
     RDKit          3D

 43 44  0  0  0  0  0  0  0  0999 V2000
    6.3051   -0.1374    2.2940 C   0  0  0  0  0  0  0  0  0  0  0  0
    5.1971    0.0775    1.4191 O   0  0  0  0  0  0  0  0  0  0  0  0
    5.5237    0.0688    0.1029 C   0  0  0  0  0  0  0  0  0  0  0  0
    6.6427   -0.1061   -0.3537 O   0  0  0  0  0  0  0  0  0  0  0  0
    4.3201    0.2978   -0.7411 C   0  0  0  0  0  0  0  0  0  0  0  0
    4.4836    0.3239   -2.1323 C   0  0  0  0  0  0  0  0  0  0  0  0
    3.3866    0.5439   -2.9700 C   0  0  0  0  0  0  0  0  0  0  0  0
    2.1062    0.7030   -2.4340 C   0  0  0  0  0  0  0  0  0  0  0  0
    1.0412    1.0570   -3.2814 N   0  0  0  0  0  0  0  0  0  0  0  0
    1.9446    0.7036   -1.0291 C   0  0  0  0  0  0  0  0  0  0  0  0
    0.6755    0.9128   -0.4543 N   0  0  0  0  0  0  0  0  0  0  0  0
   -0.0628   -0.1450   -0.3418 C   0  0  0  0  0  0  0  0  0  0  0  0
   -1.4684   -0.0351    0.1782 C   0  0  0  0  0  0  0  0  0  0  0  0
   -1.7180   -0.9357    1.3572 C   0  0  0  0  0  0  0  0  0  0  0  0
   -0.8175   -1.5840    1.8915 O   0  0  0  0  0  0  0  0  0  0  0  0
   -3.1276   -0.9863    1.9183 C   0  0  0  0  0  0  0  0  0  0  0  0
   -4.2255   -0.5671    0.9153 C   0  0  0  0  0  0  0  0  0  0  0  0
   -5.5163   -1.3482    1.2405 C   0  0  0  0  0  0  0  0  0  0  0  0
   -4.5534    0.9333    1.0545 C   0  0  0  0  0  0  0  0  0  0  0  0
   -3.8066   -0.9022   -0.5283 C   0  0  0  0  0  0  0  0  0  0  0  0
   -2.4689   -0.3046   -0.9204 C   0  0  0  0  0  0  0  0  0  0  0  0
   -2.2129   -0.0801   -2.1050 O   0  0  0  0  0  0  0  0  0  0  0  0
    3.0476    0.4974   -0.1938 C   0  0  0  0  0  0  0  0  0  0  0  0
    5.9344   -0.1116    3.3225 H   0  0  0  0  0  0  0  0  0  0  0  0
    6.7528   -1.1194    2.1118 H   0  0  0  0  0  0  0  0  0  0  0  0
    7.0485    0.6569    2.1736 H   0  0  0  0  0  0  0  0  0  0  0  0
    5.4712    0.1927   -2.5715 H   0  0  0  0  0  0  0  0  0  0  0  0
    3.5412    0.6036   -4.0441 H   0  0  0  0  0  0  0  0  0  0  0  0
    1.0711    0.6422   -4.2049 H   0  0  0  0  0  0  0  0  0  0  0  0
    0.1312    0.9689   -2.8290 H   0  0  0  0  0  0  0  0  0  0  0  0
    0.2848   -1.1490   -0.6522 H   0  0  0  0  0  0  0  0  0  0  0  0
   -1.6134    0.9957    0.5199 H   0  0  0  0  0  0  0  0  0  0  0  0
   -3.1584   -0.3639    2.8197 H   0  0  0  0  0  0  0  0  0  0  0  0
   -3.2877   -2.0267    2.2297 H   0  0  0  0  0  0  0  0  0  0  0  0
   -6.3322   -1.0641    0.5660 H   0  0  0  0  0  0  0  0  0  0  0  0
   -5.3644   -2.4288    1.1380 H   0  0  0  0  0  0  0  0  0  0  0  0
   -5.8473   -1.1542    2.2671 H   0  0  0  0  0  0  0  0  0  0  0  0
   -4.9119    1.1641    2.0644 H   0  0  0  0  0  0  0  0  0  0  0  0
   -3.6892    1.5739    0.8639 H   0  0  0  0  0  0  0  0  0  0  0  0
   -5.3407    1.2293    0.3514 H   0  0  0  0  0  0  0  0  0  0  0  0
   -4.5618   -0.5416   -1.2372 H   0  0  0  0  0  0  0  0  0  0  0  0
   -3.7183   -1.9881   -0.6572 H   0  0  0  0  0  0  0  0  0  0  0  0
    2.8940    0.5035    0.8817 H   0  0  0  0  0  0  0  0  0  0  0  0
  1  2  1  0
  2  3  1  0
  3  4  2  0
  3  5  1  0
  5  6  2  0
  6  7  1  0
  7  8  2  0
  8  9  1  0
  8 10  1  0
 10 11  1  0
 11 12  2  3
 12 13  1  0
 13 14  1  0
 14 15  2  0
 14 16  1  0
 16 17  1  0
 17 18  1  0
 17 19  1  0
 17 20  1  0
 20 21  1  0
 21 22  2  0
 10 23  2  0
 23  5  1  0
 21 13  1  0
  1 24  1  0
  1 25  1  0
  1 26  1  0
  6 27  1  0
  7 28  1  0
  9 29  1  0
  9 30  1  0
 12 31  1  0
 13 32  1  0
 16 33  1  0
 16 34  1  0
 18 35  1  0
 18 36  1  0
 18 37  1  0
 19 38  1  0
 19 39  1  0
 19 40  1  0
 20 41  1  0
 20 42  1  0
 23 43  1  0
M  END
$$$$
