
     RDKit          3D

 58 61  0  0  0  0  0  0  0  0999 V2000
    1.2085   -2.3462    1.8225 S   0  0  0  0  0  0  0  0  0  0  0  0
    0.9609   -0.8362    1.1267 C   0  0  0  0  0  0  0  0  0  0  0  0
    1.9535    0.1191    1.0154 N   0  0  0  0  0  0  0  0  0  0  0  0
    3.3479    0.0042    1.4439 C   0  0  0  0  0  0  0  0  0  0  0  0
    4.2138   -0.6538    0.3702 C   0  0  0  0  0  0  0  0  0  0  0  0
    5.6609   -0.8595    0.8341 C   0  0  0  0  0  0  0  0  0  0  0  0
    6.3605    0.3883    1.1755 N   0  0  0  0  0  0  0  0  0  0  0  0
    7.6675    0.1233    1.8189 C   0  0  0  0  0  0  0  0  0  0  0  0
    8.8578    0.2355    0.8553 C   0  0  0  0  0  0  0  0  0  0  0  0
    8.9787    1.5342    0.2591 O   0  0  0  0  0  0  0  0  0  0  0  0
    7.7260    2.2229    0.1574 C   0  0  0  0  0  0  0  0  0  0  0  0
    6.5359    1.2650   -0.0053 C   0  0  0  0  0  0  0  0  0  0  0  0
   -0.2633   -0.4208    0.5866 N   0  0  0  0  0  0  0  0  0  0  0  0
   -0.3767    0.6705   -0.3985 C   0  0  0  0  0  0  0  0  0  0  0  0
   -1.5157    0.4676   -1.4164 C   0  0  0  0  0  0  0  0  0  0  0  0
   -2.8025    0.2629   -0.7519 N   0  0  0  0  0  0  0  0  0  0  0  0
   -3.9960    0.3493   -1.4065 C   0  0  0  0  0  0  0  0  0  0  0  0
   -5.1518    0.1141   -0.8226 N   0  0  0  0  0  0  0  0  0  0  0  0
   -6.2167    0.2598   -1.6979 C   0  0  0  0  0  0  0  0  0  0  0  0
   -7.5908    0.0436   -1.2501 C   0  0  0  0  0  0  0  0  0  0  0  0
   -7.8744    0.0570    0.1246 C   0  0  0  0  0  0  0  0  0  0  0  0
   -9.1754   -0.1458    0.5916 C   0  0  0  0  0  0  0  0  0  0  0  0
  -10.2115   -0.3700   -0.3107 C   0  0  0  0  0  0  0  0  0  0  0  0
   -9.9468   -0.3938   -1.6783 C   0  0  0  0  0  0  0  0  0  0  0  0
   -8.6444   -0.1901   -2.1461 C   0  0  0  0  0  0  0  0  0  0  0  0
   -5.8522    0.6329   -2.9741 C   0  0  0  0  0  0  0  0  0  0  0  0
   -4.1523    0.7836   -3.0774 S   0  0  0  0  0  0  0  0  0  0  0  0
   -2.7812   -0.3100    0.6006 C   0  0  0  0  0  0  0  0  0  0  0  0
   -1.5193   -1.1584    0.8367 C   0  0  0  0  0  0  0  0  0  0  0  0
    1.6265    1.0683    0.9162 H   0  0  0  0  0  0  0  0  0  0  0  0
    3.4004   -0.5438    2.3902 H   0  0  0  0  0  0  0  0  0  0  0  0
    3.6931    1.0257    1.6375 H   0  0  0  0  0  0  0  0  0  0  0  0
    4.1793   -0.0602   -0.5511 H   0  0  0  0  0  0  0  0  0  0  0  0
    3.7996   -1.6338    0.1054 H   0  0  0  0  0  0  0  0  0  0  0  0
    6.2127   -1.4117    0.0629 H   0  0  0  0  0  0  0  0  0  0  0  0
    5.6272   -1.5087    1.7185 H   0  0  0  0  0  0  0  0  0  0  0  0
    7.7912    0.8769    2.6067 H   0  0  0  0  0  0  0  0  0  0  0  0
    7.6813   -0.8490    2.3247 H   0  0  0  0  0  0  0  0  0  0  0  0
    9.7925    0.0328    1.3870 H   0  0  0  0  0  0  0  0  0  0  0  0
    8.7754   -0.5035    0.0499 H   0  0  0  0  0  0  0  0  0  0  0  0
    7.6052    2.8516    1.0475 H   0  0  0  0  0  0  0  0  0  0  0  0
    7.7900    2.8935   -0.7056 H   0  0  0  0  0  0  0  0  0  0  0  0
    5.6222    1.8489   -0.1593 H   0  0  0  0  0  0  0  0  0  0  0  0
    6.7097    0.6625   -0.9065 H   0  0  0  0  0  0  0  0  0  0  0  0
    0.5659    0.7822   -0.9446 H   0  0  0  0  0  0  0  0  0  0  0  0
   -0.5501    1.5902    0.1734 H   0  0  0  0  0  0  0  0  0  0  0  0
   -1.2908   -0.4034   -2.0447 H   0  0  0  0  0  0  0  0  0  0  0  0
   -1.5422    1.3547   -2.0594 H   0  0  0  0  0  0  0  0  0  0  0  0
   -7.0753    0.2294    0.8441 H   0  0  0  0  0  0  0  0  0  0  0  0
   -9.3748   -0.1299    1.6597 H   0  0  0  0  0  0  0  0  0  0  0  0
  -11.2239   -0.5295    0.0519 H   0  0  0  0  0  0  0  0  0  0  0  0
  -10.7539   -0.5765   -2.3831 H   0  0  0  0  0  0  0  0  0  0  0  0
   -8.4729   -0.2322   -3.2178 H   0  0  0  0  0  0  0  0  0  0  0  0
   -6.4727    0.8321   -3.8343 H   0  0  0  0  0  0  0  0  0  0  0  0
   -2.8120    0.5124    1.3260 H   0  0  0  0  0  0  0  0  0  0  0  0
   -3.6519   -0.9491    0.7912 H   0  0  0  0  0  0  0  0  0  0  0  0
   -1.5298   -1.5270    1.8677 H   0  0  0  0  0  0  0  0  0  0  0  0
   -1.5229   -2.0241    0.1625 H   0  0  0  0  0  0  0  0  0  0  0  0
  1  2  2  0
  2  3  1  0
  3  4  1  0
  4  5  1  0
  5  6  1  0
  6  7  1  0
  7  8  1  0
  8  9  1  0
  9 10  1  0
 10 11  1  0
 11 12  1  0
  2 13  1  0
 13 14  1  0
 14 15  1  0
 15 16  1  0
 16 17  1  0
 17 18  2  0
 18 19  1  0
 19 20  1  0
 20 21  2  0
 21 22  1  0
 22 23  2  0
 23 24  1  0
 24 25  2  0
 19 26  2  0
 26 27  1  0
 16 28  1  0
 28 29  1  0
 12  7  1  0
 29 13  1  0
 27 17  1  0
 25 20  1  0
  3 30  1  0
  4 31  1  0
  4 32  1  0
  5 33  1  0
  5 34  1  0
  6 35  1  0
  6 36  1  0
  8 37  1  0
  8 38  1  0
  9 39  1  0
  9 40  1  0
 11 41  1  0
 11 42  1  0
 12 43  1  0
 12 44  1  0
 14 45  1  0
 14 46  1  0
 15 47  1  0
 15 48  1  0
 21 49  1  0
 22 50  1  0
 23 51  1  0
 24 52  1  0
 25 53  1  0
 26 54  1  0
 28 55  1  0
 28 56  1  0
 29 57  1  0
 29 58  1  0
M  END
$$$$
