
     RDKit          3D

 43 44  0  0  0  0  0  0  0  0999 V2000
    6.8722    0.2469    1.5928 C   0  0  0  0  0  0  0  0  0  0  0  0
    5.8327    0.7186    0.7341 O   0  0  0  0  0  0  0  0  0  0  0  0
    4.6308    0.1284    0.9500 C   0  0  0  0  0  0  0  0  0  0  0  0
    4.3973   -0.7343    1.7815 O   0  0  0  0  0  0  0  0  0  0  0  0
    3.6035    0.6702    0.0202 C   0  0  0  0  0  0  0  0  0  0  0  0
    3.8936    1.6587   -0.9287 C   0  0  0  0  0  0  0  0  0  0  0  0
    2.8880    2.1418   -1.7715 C   0  0  0  0  0  0  0  0  0  0  0  0
    1.5932    1.6202   -1.7057 C   0  0  0  0  0  0  0  0  0  0  0  0
    0.5675    2.2146   -2.4618 N   0  0  0  0  0  0  0  0  0  0  0  0
    1.2936    0.6413   -0.7326 C   0  0  0  0  0  0  0  0  0  0  0  0
   -0.0201    0.1462   -0.6107 N   0  0  0  0  0  0  0  0  0  0  0  0
   -0.2525   -0.9873   -1.1906 C   0  0  0  0  0  0  0  0  0  0  0  0
   -1.6158   -1.6047   -1.1296 C   0  0  0  0  0  0  0  0  0  0  0  0
   -1.8299   -2.3051    0.1831 C   0  0  0  0  0  0  0  0  0  0  0  0
   -1.4174   -3.4525    0.3622 O   0  0  0  0  0  0  0  0  0  0  0  0
   -2.4449   -1.5142    1.3160 C   0  0  0  0  0  0  0  0  0  0  0  0
   -3.6922   -0.7395    0.8601 C   0  0  0  0  0  0  0  0  0  0  0  0
   -4.8308   -1.7111    0.4927 C   0  0  0  0  0  0  0  0  0  0  0  0
   -4.1738    0.1489    2.0219 C   0  0  0  0  0  0  0  0  0  0  0  0
   -3.3424    0.1597   -0.3373 C   0  0  0  0  0  0  0  0  0  0  0  0
   -2.6993   -0.6149   -1.4680 C   0  0  0  0  0  0  0  0  0  0  0  0
   -2.9756   -0.3607   -2.6431 O   0  0  0  0  0  0  0  0  0  0  0  0
    2.2985    0.1720    0.1194 C   0  0  0  0  0  0  0  0  0  0  0  0
    7.7933    0.7748    1.3307 H   0  0  0  0  0  0  0  0  0  0  0  0
    6.6332    0.4650    2.6385 H   0  0  0  0  0  0  0  0  0  0  0  0
    7.0343   -0.8256    1.4464 H   0  0  0  0  0  0  0  0  0  0  0  0
    4.8929    2.0794   -1.0119 H   0  0  0  0  0  0  0  0  0  0  0  0
    3.1198    2.9402   -2.4721 H   0  0  0  0  0  0  0  0  0  0  0  0
   -0.2777    1.6472   -2.4792 H   0  0  0  0  0  0  0  0  0  0  0  0
    0.8488    2.5546   -3.3740 H   0  0  0  0  0  0  0  0  0  0  0  0
    0.5324   -1.5578   -1.7217 H   0  0  0  0  0  0  0  0  0  0  0  0
   -1.6609   -2.3808   -1.9051 H   0  0  0  0  0  0  0  0  0  0  0  0
   -2.7010   -2.2091    2.1248 H   0  0  0  0  0  0  0  0  0  0  0  0
   -1.6748   -0.8338    1.6988 H   0  0  0  0  0  0  0  0  0  0  0  0
   -5.7324   -1.1643    0.1939 H   0  0  0  0  0  0  0  0  0  0  0  0
   -4.5586   -2.3725   -0.3365 H   0  0  0  0  0  0  0  0  0  0  0  0
   -5.0960   -2.3457    1.3460 H   0  0  0  0  0  0  0  0  0  0  0  0
   -4.4340   -0.4536    2.8995 H   0  0  0  0  0  0  0  0  0  0  0  0
   -5.0612    0.7258    1.7375 H   0  0  0  0  0  0  0  0  0  0  0  0
   -3.3980    0.8608    2.3257 H   0  0  0  0  0  0  0  0  0  0  0  0
   -4.2461    0.6466   -0.7235 H   0  0  0  0  0  0  0  0  0  0  0  0
   -2.6453    0.9527   -0.0422 H   0  0  0  0  0  0  0  0  0  0  0  0
    2.0551   -0.5769    0.8698 H   0  0  0  0  0  0  0  0  0  0  0  0
  1  2  1  0
  2  3  1  0
  3  4  2  0
  3  5  1  0
  5  6  2  0
  6  7  1  0
  7  8  2  0
  8  9  1  0
  8 10  1  0
 10 11  1  0
 11 12  2  3
 12 13  1  0
 13 14  1  0
 14 15  2  0
 14 16  1  0
 16 17  1  0
 17 18  1  0
 17 19  1  0
 17 20  1  0
 20 21  1  0
 21 22  2  0
 10 23  2  0
 23  5  1  0
 21 13  1  0
  1 24  1  0
  1 25  1  0
  1 26  1  0
  6 27  1  0
  7 28  1  0
  9 29  1  0
  9 30  1  0
 12 31  1  0
 13 32  1  0
 16 33  1  0
 16 34  1  0
 18 35  1  0
 18 36  1  0
 18 37  1  0
 19 38  1  0
 19 39  1  0
 19 40  1  0
 20 41  1  0
 20 42  1  0
 23 43  1  0
M  END
$$$$
