
     RDKit          3D

 59 63  0  0  0  0  0  0  0  0999 V2000
   -4.4030    2.8666    1.7040 C   0  0  0  0  0  0  0  0  0  0  0  0
   -4.8680    1.4319    1.4726 C   0  0  0  0  0  0  0  0  0  0  0  0
   -3.7064    0.4167    1.4888 C   0  0  0  0  0  0  0  0  0  0  0  0
   -2.9373    0.5233    0.2253 N   0  0  0  0  0  0  0  0  0  0  0  0
   -1.8368   -0.3614    0.2357 C   0  0  0  0  0  0  0  0  0  0  0  0
   -2.0350   -1.6657    0.5311 N   0  0  0  0  0  0  0  0  0  0  0  0
   -0.9707   -2.4895    0.5078 C   0  0  0  0  0  0  0  0  0  0  0  0
   -1.1390   -3.8404    0.7905 C   0  0  0  0  0  0  0  0  0  0  0  0
   -0.0609   -4.7248    0.7740 C   0  0  0  0  0  0  0  0  0  0  0  0
    1.2094   -4.2508    0.4699 C   0  0  0  0  0  0  0  0  0  0  0  0
    1.3905   -2.8966    0.1869 C   0  0  0  0  0  0  0  0  0  0  0  0
    0.3217   -2.0102    0.2022 C   0  0  0  0  0  0  0  0  0  0  0  0
    0.5334   -0.7097   -0.0675 N   0  0  0  0  0  0  0  0  0  0  0  0
   -0.5506    0.1191   -0.0579 C   0  0  0  0  0  0  0  0  0  0  0  0
   -0.3430    1.5857   -0.3959 C   0  0  0  0  0  0  0  0  0  0  0  0
   -0.7316    1.8324   -1.7950 C   0  0  0  0  0  0  0  0  0  0  0  0
   -1.0967    1.9960   -2.8870 N   0  0  0  0  0  0  0  0  0  0  0  0
    1.0610    2.1440   -0.1489 C   0  0  0  0  0  0  0  0  0  0  0  0
    1.4560    3.1745   -0.6980 O   0  0  0  0  0  0  0  0  0  0  0  0
    1.8344    1.5054    0.8028 N   0  0  0  0  0  0  0  0  0  0  0  0
    3.2287    1.8417    0.9879 C   0  0  0  0  0  0  0  0  0  0  0  0
    4.1005    0.8939    0.1995 C   0  0  0  0  0  0  0  0  0  0  0  0
    4.2887    1.0943   -1.1880 C   0  0  0  0  0  0  0  0  0  0  0  0
    5.0445    0.1983   -1.9493 C   0  0  0  0  0  0  0  0  0  0  0  0
    5.5951   -0.8849   -1.3015 C   0  0  0  0  0  0  0  0  0  0  0  0
    5.4165   -1.0908    0.0457 C   0  0  0  0  0  0  0  0  0  0  0  0
    4.6752   -0.2264    0.8220 C   0  0  0  0  0  0  0  0  0  0  0  0
    6.0341   -2.2205    0.4867 O   0  0  0  0  0  0  0  0  0  0  0  0
    6.6314   -2.6948   -0.7383 C   0  0  0  0  0  0  0  0  0  0  0  0
    6.3464   -1.8595   -1.8790 O   0  0  0  0  0  0  0  0  0  0  0  0
   -3.8357    0.1887   -0.9101 C   0  0  0  0  0  0  0  0  0  0  0  0
   -5.0151    1.1845   -0.9560 C   0  0  0  0  0  0  0  0  0  0  0  0
   -4.6262    2.5418   -1.5334 C   0  0  0  0  0  0  0  0  0  0  0  0
   -5.6994    1.3140    0.3044 O   0  0  0  0  0  0  0  0  0  0  0  0
   -4.0457    2.9914    2.7304 H   0  0  0  0  0  0  0  0  0  0  0  0
   -5.2198    3.5743    1.5293 H   0  0  0  0  0  0  0  0  0  0  0  0
   -3.5768    3.1463    1.0483 H   0  0  0  0  0  0  0  0  0  0  0  0
   -5.5264    1.1860    2.3157 H   0  0  0  0  0  0  0  0  0  0  0  0
   -3.0568    0.6098    2.3509 H   0  0  0  0  0  0  0  0  0  0  0  0
   -4.1306   -0.5912    1.5974 H   0  0  0  0  0  0  0  0  0  0  0  0
   -2.1345   -4.2108    1.0262 H   0  0  0  0  0  0  0  0  0  0  0  0
   -0.2168   -5.7786    0.9951 H   0  0  0  0  0  0  0  0  0  0  0  0
    2.0587   -4.9283    0.4489 H   0  0  0  0  0  0  0  0  0  0  0  0
    2.3852   -2.5264   -0.0551 H   0  0  0  0  0  0  0  0  0  0  0  0
   -0.9795    2.1862    0.2680 H   0  0  0  0  0  0  0  0  0  0  0  0
    1.6095    0.5240    0.9554 H   0  0  0  0  0  0  0  0  0  0  0  0
    3.4292    2.8784    0.6980 H   0  0  0  0  0  0  0  0  0  0  0  0
    3.4425    1.7548    2.0584 H   0  0  0  0  0  0  0  0  0  0  0  0
    3.8301    1.9534   -1.6773 H   0  0  0  0  0  0  0  0  0  0  0  0
    5.1836    0.3462   -3.0133 H   0  0  0  0  0  0  0  0  0  0  0  0
    4.5429   -0.4204    1.8814 H   0  0  0  0  0  0  0  0  0  0  0  0
    7.7179   -2.7458   -0.6031 H   0  0  0  0  0  0  0  0  0  0  0  0
    6.2544   -3.7029   -0.9407 H   0  0  0  0  0  0  0  0  0  0  0  0
   -3.2941    0.2083   -1.8616 H   0  0  0  0  0  0  0  0  0  0  0  0
   -4.2435   -0.8234   -0.7808 H   0  0  0  0  0  0  0  0  0  0  0  0
   -5.7630    0.7681   -1.6405 H   0  0  0  0  0  0  0  0  0  0  0  0
   -4.3921    2.4507   -2.6022 H   0  0  0  0  0  0  0  0  0  0  0  0
   -5.4453    3.2606   -1.4137 H   0  0  0  0  0  0  0  0  0  0  0  0
   -3.7413    2.9623   -1.0468 H   0  0  0  0  0  0  0  0  0  0  0  0
  1  2  1  0
  2  3  1  0
  3  4  1  0
  4  5  1  0
  5  6  2  0
  6  7  1  0
  7  8  2  0
  8  9  1  0
  9 10  2  0
 10 11  1  0
 11 12  2  0
 12 13  1  0
 13 14  2  0
 14 15  1  0
 15 16  1  0
 16 17  3  0
 15 18  1  0
 18 19  2  0
 18 20  1  0
 20 21  1  0
 21 22  1  0
 22 23  2  0
 23 24  1  0
 24 25  2  0
 25 26  1  0
 26 27  2  0
 26 28  1  0
 28 29  1  0
 29 30  1  0
  4 31  1  0
 31 32  1  0
 32 33  1  0
 32 34  1  0
 34  2  1  0
 14  5  1  0
 27 22  1  0
 12  7  1  0
 30 25  1  0
  1 35  1  0
  1 36  1  0
  1 37  1  0
  2 38  1  0
  3 39  1  0
  3 40  1  0
  8 41  1  0
  9 42  1  0
 10 43  1  0
 11 44  1  0
 15 45  1  0
 20 46  1  0
 21 47  1  0
 21 48  1  0
 23 49  1  0
 24 50  1  0
 27 51  1  0
 29 52  1  0
 29 53  1  0
 31 54  1  0
 31 55  1  0
 32 56  1  0
 33 57  1  0
 33 58  1  0
 33 59  1  0
M  END
$$$$
