
     RDKit          3D

 36 38  0  0  0  0  0  0  0  0999 V2000
    2.7536   -2.4890   -0.0616 C   0  0  0  0  0  0  0  0  0  0  0  0
    2.4459   -1.7107   -1.3392 C   0  0  0  0  0  0  0  0  0  0  0  0
    3.4164   -0.6887   -1.5175 O   0  0  0  0  0  0  0  0  0  0  0  0
    3.0991    0.4875   -0.8935 C   0  0  0  0  0  0  0  0  0  0  0  0
    4.1760    1.3441   -0.6517 C   0  0  0  0  0  0  0  0  0  0  0  0
    3.9678    2.5674   -0.0215 C   0  0  0  0  0  0  0  0  0  0  0  0
    2.6812    2.9332    0.3621 C   0  0  0  0  0  0  0  0  0  0  0  0
    1.5998    2.0840    0.1018 C   0  0  0  0  0  0  0  0  0  0  0  0
    1.7918    0.8536   -0.5418 C   0  0  0  0  0  0  0  0  0  0  0  0
    0.7150   -0.0138   -0.8731 N   0  0  0  0  0  0  0  0  0  0  0  0
   -0.6799    0.3814   -0.7124 C   0  0  0  0  0  0  0  0  0  0  0  0
   -1.2118    0.0078    0.6708 C   0  0  0  0  0  0  0  0  0  0  0  0
   -0.4815   -0.1327    1.6519 O   0  0  0  0  0  0  0  0  0  0  0  0
   -2.6874   -0.1477    0.8505 C   0  0  0  0  0  0  0  0  0  0  0  0
   -3.6140    0.3140   -0.0957 C   0  0  0  0  0  0  0  0  0  0  0  0
   -4.9843    0.1479    0.1291 C   0  0  0  0  0  0  0  0  0  0  0  0
   -5.4241   -0.4711    1.2940 C   0  0  0  0  0  0  0  0  0  0  0  0
   -6.7377   -0.6248    1.5029 F   0  0  0  0  0  0  0  0  0  0  0  0
   -4.5204   -0.9278    2.2444 C   0  0  0  0  0  0  0  0  0  0  0  0
   -3.1511   -0.7644    2.0244 C   0  0  0  0  0  0  0  0  0  0  0  0
    0.9739   -1.2922   -1.3472 C   0  0  0  0  0  0  0  0  0  0  0  0
    0.0849   -2.0761   -1.6874 O   0  0  0  0  0  0  0  0  0  0  0  0
    2.0829   -3.3468    0.0519 H   0  0  0  0  0  0  0  0  0  0  0  0
    3.7879   -2.8489   -0.0707 H   0  0  0  0  0  0  0  0  0  0  0  0
    2.6428   -1.8578    0.8271 H   0  0  0  0  0  0  0  0  0  0  0  0
    2.5718   -2.3868   -2.1939 H   0  0  0  0  0  0  0  0  0  0  0  0
    5.1793    1.0491   -0.9477 H   0  0  0  0  0  0  0  0  0  0  0  0
    4.8074    3.2283    0.1771 H   0  0  0  0  0  0  0  0  0  0  0  0
    2.5155    3.8806    0.8695 H   0  0  0  0  0  0  0  0  0  0  0  0
    0.6207    2.4062    0.4404 H   0  0  0  0  0  0  0  0  0  0  0  0
   -0.8054    1.4541   -0.8863 H   0  0  0  0  0  0  0  0  0  0  0  0
   -1.2699   -0.1407   -1.4735 H   0  0  0  0  0  0  0  0  0  0  0  0
   -3.3043    0.8121   -1.0096 H   0  0  0  0  0  0  0  0  0  0  0  0
   -5.7129    0.4989   -0.5959 H   0  0  0  0  0  0  0  0  0  0  0  0
   -4.8834   -1.4066    3.1485 H   0  0  0  0  0  0  0  0  0  0  0  0
   -2.4456   -1.1237    2.7724 H   0  0  0  0  0  0  0  0  0  0  0  0
  1  2  1  0
  2  3  1  0
  3  4  1  0
  4  5  2  0
  5  6  1  0
  6  7  2  0
  7  8  1  0
  8  9  2  0
  9 10  1  0
 10 11  1  0
 11 12  1  0
 12 13  2  0
 12 14  1  0
 14 15  2  0
 15 16  1  0
 16 17  2  0
 17 18  1  0
 17 19  1  0
 19 20  2  0
 10 21  1  0
 21 22  2  0
 21  2  1  0
  9  4  1  0
 20 14  1  0
  1 23  1  0
  1 24  1  0
  1 25  1  0
  2 26  1  0
  5 27  1  0
  6 28  1  0
  7 29  1  0
  8 30  1  0
 11 31  1  0
 11 32  1  0
 15 33  1  0
 16 34  1  0
 19 35  1  0
 20 36  1  0
M  END
$$$$
