
     RDKit          3D

 47 50  0  0  0  0  0  0  0  0999 V2000
   -0.4262    3.4623    0.5482 O   0  0  0  0  0  0  0  0  0  0  0  0
   -0.0501    2.7594   -0.3913 C   0  0  0  0  0  0  0  0  0  0  0  0
   -0.5473    3.0392   -1.8077 C   0  0  0  0  0  0  0  0  0  0  0  0
   -2.3565    3.2198   -1.8420 S   0  0  0  0  0  0  0  0  0  0  0  0
   -2.8379    1.6334   -1.3322 C   0  0  0  0  0  0  0  0  0  0  0  0
   -2.1130    0.5424   -1.4810 N   0  0  0  0  0  0  0  0  0  0  0  0
   -2.8488   -0.4967   -0.9531 N   0  0  0  0  0  0  0  0  0  0  0  0
   -3.9813    0.0295   -0.5268 C   0  0  0  0  0  0  0  0  0  0  0  0
   -5.1246   -0.6053    0.1170 C   0  0  0  0  0  0  0  0  0  0  0  0
   -5.1139   -1.9922    0.3369 C   0  0  0  0  0  0  0  0  0  0  0  0
   -6.1948   -2.6284    0.9546 C   0  0  0  0  0  0  0  0  0  0  0  0
   -7.3004   -1.8848    1.3616 C   0  0  0  0  0  0  0  0  0  0  0  0
   -7.3280   -0.5070    1.1511 C   0  0  0  0  0  0  0  0  0  0  0  0
   -6.2472    0.1293    0.5321 C   0  0  0  0  0  0  0  0  0  0  0  0
   -4.0483    1.3803   -0.7457 O   0  0  0  0  0  0  0  0  0  0  0  0
    0.8546    1.7288   -0.1980 N   0  0  0  0  0  0  0  0  0  0  0  0
    1.3881    1.4834    1.1444 C   0  0  0  0  0  0  0  0  0  0  0  0
    2.8989    1.1809    1.1271 C   0  0  0  0  0  0  0  0  0  0  0  0
    3.2531    0.1096    0.1676 N   0  0  0  0  0  0  0  0  0  0  0  0
    4.3592   -0.6889    0.4456 C   0  0  0  0  0  0  0  0  0  0  0  0
    5.4896   -0.1596    1.0948 C   0  0  0  0  0  0  0  0  0  0  0  0
    6.6173   -0.9392    1.3798 C   0  0  0  0  0  0  0  0  0  0  0  0
    6.6485   -2.2788    1.0113 C   0  0  0  0  0  0  0  0  0  0  0  0
    5.5540   -2.8299    0.3555 C   0  0  0  0  0  0  0  0  0  0  0  0
    4.4293   -2.0419    0.0757 C   0  0  0  0  0  0  0  0  0  0  0  0
    2.1784   -0.3579   -0.7212 C   0  0  0  0  0  0  0  0  0  0  0  0
    1.3408    0.8259   -1.2473 C   0  0  0  0  0  0  0  0  0  0  0  0
   -0.2499    2.2872   -2.5392 H   0  0  0  0  0  0  0  0  0  0  0  0
   -0.0991    3.9873   -2.1259 H   0  0  0  0  0  0  0  0  0  0  0  0
   -4.2566   -2.5896    0.0263 H   0  0  0  0  0  0  0  0  0  0  0  0
   -6.1705   -3.7034    1.1190 H   0  0  0  0  0  0  0  0  0  0  0  0
   -8.1404   -2.3790    1.8445 H   0  0  0  0  0  0  0  0  0  0  0  0
   -8.1902    0.0739    1.4710 H   0  0  0  0  0  0  0  0  0  0  0  0
   -6.2918    1.2066    0.3813 H   0  0  0  0  0  0  0  0  0  0  0  0
    1.1966    2.3336    1.8082 H   0  0  0  0  0  0  0  0  0  0  0  0
    0.8372    0.6250    1.5499 H   0  0  0  0  0  0  0  0  0  0  0  0
    3.1917    0.9101    2.1491 H   0  0  0  0  0  0  0  0  0  0  0  0
    3.4421    2.0918    0.8450 H   0  0  0  0  0  0  0  0  0  0  0  0
    5.5243    0.8927    1.3671 H   0  0  0  0  0  0  0  0  0  0  0  0
    7.4715   -0.4907    1.8800 H   0  0  0  0  0  0  0  0  0  0  0  0
    7.5206   -2.8870    1.2281 H   0  0  0  0  0  0  0  0  0  0  0  0
    5.5691   -3.8750    0.0583 H   0  0  0  0  0  0  0  0  0  0  0  0
    3.5971   -2.5274   -0.4256 H   0  0  0  0  0  0  0  0  0  0  0  0
    1.5313   -1.0578   -0.1768 H   0  0  0  0  0  0  0  0  0  0  0  0
    2.5883   -0.8802   -1.5942 H   0  0  0  0  0  0  0  0  0  0  0  0
    1.9457    1.4336   -1.9298 H   0  0  0  0  0  0  0  0  0  0  0  0
    0.4893    0.4346   -1.8097 H   0  0  0  0  0  0  0  0  0  0  0  0
  1  2  2  0
  2  3  1  0
  3  4  1  0
  4  5  1  0
  5  6  2  0
  6  7  1  0
  7  8  2  0
  8  9  1  0
  9 10  2  0
 10 11  1  0
 11 12  2  0
 12 13  1  0
 13 14  2  0
  8 15  1  0
  2 16  1  0
 16 17  1  0
 17 18  1  0
 18 19  1  0
 19 20  1  0
 20 21  2  0
 21 22  1  0
 22 23  2  0
 23 24  1  0
 24 25  2  0
 19 26  1  0
 26 27  1  0
 15  5  1  0
 27 16  1  0
 14  9  1  0
 25 20  1  0
  3 28  1  0
  3 29  1  0
 10 30  1  0
 11 31  1  0
 12 32  1  0
 13 33  1  0
 14 34  1  0
 17 35  1  0
 17 36  1  0
 18 37  1  0
 18 38  1  0
 21 39  1  0
 22 40  1  0
 23 41  1  0
 24 42  1  0
 25 43  1  0
 26 44  1  0
 26 45  1  0
 27 46  1  0
 27 47  1  0
M  END
$$$$
