
     RDKit          3D

 72 76  0  0  0  0  0  0  0  0999 V2000
    6.4478    1.7117   -5.6109 C   0  0  0  0  0  0  0  0  0  0  0  0
    6.5333    0.3909   -5.0900 O   0  0  0  0  0  0  0  0  0  0  0  0
    5.7259    0.0908   -4.0278 C   0  0  0  0  0  0  0  0  0  0  0  0
    4.7499    0.9221   -3.4784 C   0  0  0  0  0  0  0  0  0  0  0  0
    3.9885    0.4876   -2.3844 C   0  0  0  0  0  0  0  0  0  0  0  0
    4.2046   -0.7745   -1.8142 C   0  0  0  0  0  0  0  0  0  0  0  0
    3.4200   -1.2322   -0.6570 C   0  0  0  0  0  0  0  0  0  0  0  0
    3.0196   -2.5112   -0.6155 N   0  0  0  0  0  0  0  0  0  0  0  0
    2.1567   -2.7883    0.7671 S   0  0  0  0  0  0  0  0  0  0  0  0
    2.2210   -1.1869    1.3385 C   0  0  0  0  0  0  0  0  0  0  0  0
    1.5546   -0.8339    2.5669 C   0  0  0  0  0  0  0  0  0  0  0  0
    2.1225   -1.0181    3.6447 O   0  0  0  0  0  0  0  0  0  0  0  0
    0.2937   -0.1860    2.4704 N   0  0  0  0  0  0  0  0  0  0  0  0
   -0.4555   -0.0116    3.6816 C   0  0  0  0  0  0  0  0  0  0  0  0
   -0.6356   -1.0816    4.5732 C   0  0  0  0  0  0  0  0  0  0  0  0
   -1.3639   -0.9131    5.7545 C   0  0  0  0  0  0  0  0  0  0  0  0
   -1.9076    0.3288    6.0501 C   0  0  0  0  0  0  0  0  0  0  0  0
   -2.6201    0.4907    7.1714 F   0  0  0  0  0  0  0  0  0  0  0  0
   -1.7222    1.4076    5.1949 C   0  0  0  0  0  0  0  0  0  0  0  0
   -0.9892    1.2391    4.0162 C   0  0  0  0  0  0  0  0  0  0  0  0
   -0.4565   -0.1525    1.1796 C   0  0  0  0  0  0  0  0  0  0  0  0
   -1.2471   -1.4758    0.9413 C   0  0  0  0  0  0  0  0  0  0  0  0
   -1.2063   -2.4327    1.7160 O   0  0  0  0  0  0  0  0  0  0  0  0
   -1.9246   -1.5425   -0.2674 N   0  0  0  0  0  0  0  0  0  0  0  0
   -2.7157   -2.6999   -0.6192 C   0  0  0  0  0  0  0  0  0  0  0  0
   -3.1203   -2.7094   -2.0880 C   0  0  0  0  0  0  0  0  0  0  0  0
   -4.2879   -3.6896   -2.1467 C   0  0  0  0  0  0  0  0  0  0  0  0
   -4.8799   -3.7310   -0.7355 C   0  0  0  0  0  0  0  0  0  0  0  0
   -4.0653   -2.7422    0.0909 C   0  0  0  0  0  0  0  0  0  0  0  0
   -1.2604    1.1189    0.9154 C   0  0  0  0  0  0  0  0  0  0  0  0
   -2.6328    1.2157    1.1904 C   0  0  0  0  0  0  0  0  0  0  0  0
   -3.3272    2.3957    0.9141 C   0  0  0  0  0  0  0  0  0  0  0  0
   -2.6726    3.4981    0.3606 C   0  0  0  0  0  0  0  0  0  0  0  0
   -3.4723    4.5821    0.1356 O   0  0  0  0  0  0  0  0  0  0  0  0
   -2.8926    5.6798   -0.5586 C   0  0  0  0  0  0  0  0  0  0  0  0
   -1.3048    3.4198    0.1035 C   0  0  0  0  0  0  0  0  0  0  0  0
   -0.6035    2.2418    0.3822 C   0  0  0  0  0  0  0  0  0  0  0  0
    3.0130   -0.4381    0.4922 C   0  0  0  0  0  0  0  0  0  0  0  0
    3.3463    0.8637    0.7269 N   0  0  0  0  0  0  0  0  0  0  0  0
    5.1713   -1.6116   -2.3871 C   0  0  0  0  0  0  0  0  0  0  0  0
    5.9231   -1.1798   -3.4836 C   0  0  0  0  0  0  0  0  0  0  0  0
    7.1651    1.7985   -6.4308 H   0  0  0  0  0  0  0  0  0  0  0  0
    6.7153    2.4547   -4.8520 H   0  0  0  0  0  0  0  0  0  0  0  0
    5.4529    1.9069   -6.0220 H   0  0  0  0  0  0  0  0  0  0  0  0
    4.5550    1.9145   -3.8765 H   0  0  0  0  0  0  0  0  0  0  0  0
    3.2143    1.1453   -1.9945 H   0  0  0  0  0  0  0  0  0  0  0  0
   -0.2281   -2.0645    4.3467 H   0  0  0  0  0  0  0  0  0  0  0  0
   -1.5113   -1.7479    6.4316 H   0  0  0  0  0  0  0  0  0  0  0  0
   -2.1420    2.3745    5.4484 H   0  0  0  0  0  0  0  0  0  0  0  0
   -0.8196    2.1081    3.3874 H   0  0  0  0  0  0  0  0  0  0  0  0
    0.2751   -0.1695    0.3639 H   0  0  0  0  0  0  0  0  0  0  0  0
   -2.0659   -0.6876   -0.7928 H   0  0  0  0  0  0  0  0  0  0  0  0
   -2.1431   -3.6053   -0.3790 H   0  0  0  0  0  0  0  0  0  0  0  0
   -2.2960   -3.0011   -2.7469 H   0  0  0  0  0  0  0  0  0  0  0  0
   -3.4574   -1.7143   -2.4071 H   0  0  0  0  0  0  0  0  0  0  0  0
   -5.0305   -3.3795   -2.8903 H   0  0  0  0  0  0  0  0  0  0  0  0
   -3.9314   -4.6859   -2.4307 H   0  0  0  0  0  0  0  0  0  0  0  0
   -5.9468   -3.4783   -0.7259 H   0  0  0  0  0  0  0  0  0  0  0  0
   -4.7750   -4.7435   -0.3234 H   0  0  0  0  0  0  0  0  0  0  0  0
   -3.9817   -3.0504    1.1387 H   0  0  0  0  0  0  0  0  0  0  0  0
   -4.5452   -1.7545    0.0729 H   0  0  0  0  0  0  0  0  0  0  0  0
   -3.1780    0.3848    1.6367 H   0  0  0  0  0  0  0  0  0  0  0  0
   -4.3913    2.4589    1.1318 H   0  0  0  0  0  0  0  0  0  0  0  0
   -3.6710    6.4374   -0.6916 H   0  0  0  0  0  0  0  0  0  0  0  0
   -2.0832    6.1325    0.0237 H   0  0  0  0  0  0  0  0  0  0  0  0
   -2.5442    5.3792   -1.5530 H   0  0  0  0  0  0  0  0  0  0  0  0
   -0.7504    4.2593   -0.3022 H   0  0  0  0  0  0  0  0  0  0  0  0
    0.4674    2.2078    0.1864 H   0  0  0  0  0  0  0  0  0  0  0  0
    3.3082    1.2043    1.6903 H   0  0  0  0  0  0  0  0  0  0  0  0
    4.1916    1.2211    0.2758 H   0  0  0  0  0  0  0  0  0  0  0  0
    5.3456   -2.6075   -1.9847 H   0  0  0  0  0  0  0  0  0  0  0  0
    6.6735   -1.8401   -3.9130 H   0  0  0  0  0  0  0  0  0  0  0  0
  1  2  1  0
  2  3  1  0
  3  4  2  0
  4  5  1  0
  5  6  2  0
  6  7  1  0
  7  8  2  0
  8  9  1  0
  9 10  1  0
 10 11  1  0
 11 12  2  0
 11 13  1  0
 13 14  1  0
 14 15  2  0
 15 16  1  0
 16 17  2  0
 17 18  1  0
 17 19  1  0
 19 20  2  0
 13 21  1  0
 21 22  1  0
 22 23  2  0
 22 24  1  0
 24 25  1  0
 25 26  1  0
 26 27  1  0
 27 28  1  0
 28 29  1  0
 21 30  1  0
 30 31  2  0
 31 32  1  0
 32 33  2  0
 33 34  1  0
 34 35  1  0
 33 36  1  0
 36 37  2  0
 10 38  2  0
 38 39  1  0
  6 40  1  0
 40 41  2  0
 41  3  1  0
 38  7  1  0
 20 14  1  0
 29 25  1  0
 37 30  1  0
  1 42  1  0
  1 43  1  0
  1 44  1  0
  4 45  1  0
  5 46  1  0
 15 47  1  0
 16 48  1  0
 19 49  1  0
 20 50  1  0
 21 51  1  0
 24 52  1  0
 25 53  1  0
 26 54  1  0
 26 55  1  0
 27 56  1  0
 27 57  1  0
 28 58  1  0
 28 59  1  0
 29 60  1  0
 29 61  1  0
 31 62  1  0
 32 63  1  0
 35 64  1  0
 35 65  1  0
 35 66  1  0
 36 67  1  0
 37 68  1  0
 39 69  1  0
 39 70  1  0
 40 71  1  0
 41 72  1  0
M  END
$$$$
