
     RDKit          3D

 45 47  0  0  0  0  0  0  0  0999 V2000
    2.8228   -1.6277   -3.4299 C   0  0  0  0  0  0  0  0  0  0  0  0
    2.4480   -0.7966   -2.3405 O   0  0  0  0  0  0  0  0  0  0  0  0
    3.4467   -0.1151   -1.6885 C   0  0  0  0  0  0  0  0  0  0  0  0
    4.7901   -0.1075   -2.0768 C   0  0  0  0  0  0  0  0  0  0  0  0
    5.7271    0.6217   -1.3433 C   0  0  0  0  0  0  0  0  0  0  0  0
    5.3261    1.3445   -0.2234 C   0  0  0  0  0  0  0  0  0  0  0  0
    3.9859    1.3441    0.1705 C   0  0  0  0  0  0  0  0  0  0  0  0
    3.0368    0.6190   -0.5538 C   0  0  0  0  0  0  0  0  0  0  0  0
    1.6635    0.5700   -0.2169 N   0  0  0  0  0  0  0  0  0  0  0  0
    1.0231    1.1539    0.8606 C   0  0  0  0  0  0  0  0  0  0  0  0
    1.5575    1.8587    1.7145 O   0  0  0  0  0  0  0  0  0  0  0  0
   -0.4941    0.8871    0.8787 C   0  0  0  0  0  0  0  0  0  0  0  0
   -1.1782    1.4106    2.1447 C   0  0  0  0  0  0  0  0  0  0  0  0
   -1.0326    0.2525    3.1168 C   0  0  0  0  0  0  0  0  0  0  0  0
   -1.2963   -0.9594    2.2354 C   0  0  0  0  0  0  0  0  0  0  0  0
   -0.7610   -0.5780    0.9121 N   0  0  0  0  0  0  0  0  0  0  0  0
   -1.3411   -1.3373   -0.4658 S   0  0  0  0  0  6  0  0  0  0  0  0
   -1.4261   -2.7560   -0.1991 O   0  0  0  0  0  0  0  0  0  0  0  0
   -0.5728   -0.8228   -1.5798 O   0  0  0  0  0  0  0  0  0  0  0  0
   -3.0055   -0.7222   -0.6363 C   0  0  0  0  0  0  0  0  0  0  0  0
   -4.0664   -1.4277   -0.0572 C   0  0  0  0  0  0  0  0  0  0  0  0
   -5.3738   -0.9631   -0.2173 C   0  0  0  0  0  0  0  0  0  0  0  0
   -5.6145    0.1875   -0.9687 C   0  0  0  0  0  0  0  0  0  0  0  0
   -7.2256    0.7575   -1.1633 Cl  0  0  0  0  0  0  0  0  0  0  0  0
   -4.5602    0.8741   -1.5721 C   0  0  0  0  0  0  0  0  0  0  0  0
   -3.2506    0.4141   -1.4156 C   0  0  0  0  0  0  0  0  0  0  0  0
    1.9196   -2.1246   -3.7970 H   0  0  0  0  0  0  0  0  0  0  0  0
    3.5248   -2.4056   -3.1119 H   0  0  0  0  0  0  0  0  0  0  0  0
    3.2342   -1.0348   -4.2532 H   0  0  0  0  0  0  0  0  0  0  0  0
    5.1389   -0.6559   -2.9449 H   0  0  0  0  0  0  0  0  0  0  0  0
    6.7710    0.6259   -1.6463 H   0  0  0  0  0  0  0  0  0  0  0  0
    6.0553    1.9125    0.3491 H   0  0  0  0  0  0  0  0  0  0  0  0
    3.7159    1.9213    1.0483 H   0  0  0  0  0  0  0  0  0  0  0  0
    1.1060   -0.0141   -0.8457 H   0  0  0  0  0  0  0  0  0  0  0  0
   -0.9222    1.3822    0.0025 H   0  0  0  0  0  0  0  0  0  0  0  0
   -0.7510    2.3381    2.5358 H   0  0  0  0  0  0  0  0  0  0  0  0
   -2.2423    1.5882    1.9442 H   0  0  0  0  0  0  0  0  0  0  0  0
   -1.7294    0.3153    3.9574 H   0  0  0  0  0  0  0  0  0  0  0  0
   -0.0136    0.2167    3.5196 H   0  0  0  0  0  0  0  0  0  0  0  0
   -0.7889   -1.8489    2.6186 H   0  0  0  0  0  0  0  0  0  0  0  0
   -2.3711   -1.1517    2.1893 H   0  0  0  0  0  0  0  0  0  0  0  0
   -3.8860   -2.3386    0.5106 H   0  0  0  0  0  0  0  0  0  0  0  0
   -6.1995   -1.5065    0.2361 H   0  0  0  0  0  0  0  0  0  0  0  0
   -4.7536    1.7595   -2.1732 H   0  0  0  0  0  0  0  0  0  0  0  0
   -2.4366    0.9392   -1.9113 H   0  0  0  0  0  0  0  0  0  0  0  0
  1  2  1  0
  2  3  1  0
  3  4  2  0
  4  5  1  0
  5  6  2  0
  6  7  1  0
  7  8  2  0
  8  9  1  0
  9 10  1  0
 10 11  2  0
 10 12  1  0
 12 13  1  0
 13 14  1  0
 14 15  1  0
 15 16  1  0
 16 17  1  0
 17 18  2  0
 17 19  2  0
 17 20  1  0
 20 21  2  0
 21 22  1  0
 22 23  2  0
 23 24  1  0
 23 25  1  0
 25 26  2  0
  8  3  1  0
 16 12  1  0
 26 20  1  0
  1 27  1  0
  1 28  1  0
  1 29  1  0
  4 30  1  0
  5 31  1  0
  6 32  1  0
  7 33  1  0
  9 34  1  0
 12 35  1  0
 13 36  1  0
 13 37  1  0
 14 38  1  0
 14 39  1  0
 15 40  1  0
 15 41  1  0
 21 42  1  0
 22 43  1  0
 25 44  1  0
 26 45  1  0
M  END
$$$$
