
     RDKit          3D

 42 44  0  0  0  0  0  0  0  0999 V2000
    7.6965   -0.8682   -2.7202 C   0  0  0  0  0  0  0  0  0  0  0  0
    7.3773   -0.9513   -1.3370 O   0  0  0  0  0  0  0  0  0  0  0  0
    6.0522   -0.9274   -1.0020 C   0  0  0  0  0  0  0  0  0  0  0  0
    4.9827   -0.8015   -1.8901 C   0  0  0  0  0  0  0  0  0  0  0  0
    3.6657   -0.7887   -1.4122 C   0  0  0  0  0  0  0  0  0  0  0  0
    3.4129   -0.8947   -0.0382 C   0  0  0  0  0  0  0  0  0  0  0  0
    2.0268   -0.8851    0.5114 C   0  0  0  0  0  0  0  0  0  0  0  0
    1.7975   -1.4803    1.5553 O   0  0  0  0  0  0  0  0  0  0  0  0
    1.1258   -0.1175   -0.1936 N   0  0  0  0  0  0  0  0  0  0  0  0
   -0.2112   -0.0020    0.1217 C   0  0  0  0  0  0  0  0  0  0  0  0
   -0.8966    1.3822   -0.6123 S   0  0  0  0  0  0  0  0  0  0  0  0
   -2.4107    1.0918    0.1014 C   0  0  0  0  0  0  0  0  0  0  0  0
   -2.4143   -0.0627    0.8600 C   0  0  0  0  0  0  0  0  0  0  0  0
   -1.1351   -0.7240    0.8503 C   0  0  0  0  0  0  0  0  0  0  0  0
   -0.9297   -2.0016    1.4733 C   0  0  0  0  0  0  0  0  0  0  0  0
   -0.9024   -3.0524    1.9675 N   0  0  0  0  0  0  0  0  0  0  0  0
   -3.6723   -0.5172    1.5379 C   0  0  0  0  0  0  0  0  0  0  0  0
   -4.6545    0.6537    1.7041 C   0  0  0  0  0  0  0  0  0  0  0  0
   -4.7967    1.4432    0.4671 N   0  0  0  0  0  0  0  0  0  0  0  0
   -5.9890    2.0319    0.0640 C   0  0  0  0  0  0  0  0  0  0  0  0
   -7.2603    1.5368    0.7041 C   0  0  0  0  0  0  0  0  0  0  0  0
   -6.0308    2.9183   -0.7899 O   0  0  0  0  0  0  0  0  0  0  0  0
   -3.5710    2.0174   -0.1064 C   0  0  0  0  0  0  0  0  0  0  0  0
    4.4839   -1.0397    0.8486 C   0  0  0  0  0  0  0  0  0  0  0  0
    5.7948   -1.0489    0.3660 C   0  0  0  0  0  0  0  0  0  0  0  0
    8.7857   -0.9117   -2.8153 H   0  0  0  0  0  0  0  0  0  0  0  0
    7.2795   -1.7164   -3.2733 H   0  0  0  0  0  0  0  0  0  0  0  0
    7.3627    0.0841   -3.1452 H   0  0  0  0  0  0  0  0  0  0  0  0
    5.1384   -0.7214   -2.9612 H   0  0  0  0  0  0  0  0  0  0  0  0
    2.8526   -0.7259   -2.1305 H   0  0  0  0  0  0  0  0  0  0  0  0
    1.4795    0.5691   -0.8482 H   0  0  0  0  0  0  0  0  0  0  0  0
   -3.4548   -0.9510    2.5199 H   0  0  0  0  0  0  0  0  0  0  0  0
   -4.1357   -1.2967    0.9205 H   0  0  0  0  0  0  0  0  0  0  0  0
   -5.6159    0.2624    2.0443 H   0  0  0  0  0  0  0  0  0  0  0  0
   -4.2986    1.3456    2.4783 H   0  0  0  0  0  0  0  0  0  0  0  0
   -7.3416    0.4516    0.5995 H   0  0  0  0  0  0  0  0  0  0  0  0
   -7.2901    1.8291    1.7568 H   0  0  0  0  0  0  0  0  0  0  0  0
   -8.1191    1.9881    0.1975 H   0  0  0  0  0  0  0  0  0  0  0  0
   -3.7234    2.2107   -1.1745 H   0  0  0  0  0  0  0  0  0  0  0  0
   -3.3875    2.9737    0.3979 H   0  0  0  0  0  0  0  0  0  0  0  0
    4.3038   -1.1453    1.9168 H   0  0  0  0  0  0  0  0  0  0  0  0
    6.6229   -1.1581    1.0629 H   0  0  0  0  0  0  0  0  0  0  0  0
  1  2  1  0
  2  3  1  0
  3  4  2  0
  4  5  1  0
  5  6  2  0
  6  7  1  0
  7  8  2  0
  7  9  1  0
  9 10  1  0
 10 11  1  0
 11 12  1  0
 12 13  2  0
 13 14  1  0
 14 15  1  0
 15 16  3  0
 13 17  1  0
 17 18  1  0
 18 19  1  0
 19 20  1  0
 20 21  1  0
 20 22  2  0
 19 23  1  0
  6 24  1  0
 24 25  2  0
 25  3  1  0
 14 10  2  0
 23 12  1  0
  1 26  1  0
  1 27  1  0
  1 28  1  0
  4 29  1  0
  5 30  1  0
  9 31  1  0
 17 32  1  0
 17 33  1  0
 18 34  1  0
 18 35  1  0
 21 36  1  0
 21 37  1  0
 21 38  1  0
 23 39  1  0
 23 40  1  0
 24 41  1  0
 25 42  1  0
M  END
$$$$
