
     RDKit          3D

 46 50  0  0  0  0  0  0  0  0999 V2000
    0.4693   -0.0743   -2.8429 O   0  0  0  0  0  0  0  0  0  0  0  0
    0.3090   -0.0443   -1.6304 C   0  0  0  0  0  0  0  0  0  0  0  0
    1.2963   -0.0230   -0.6636 N   0  0  0  0  0  0  0  0  0  0  0  0
    2.7039    0.0521   -0.8324 C   0  0  0  0  0  0  0  0  0  0  0  0
    3.2829    0.0663   -2.1078 C   0  0  0  0  0  0  0  0  0  0  0  0
    4.6642    0.1339   -2.2668 C   0  0  0  0  0  0  0  0  0  0  0  0
    5.4905    0.1913   -1.1518 C   0  0  0  0  0  0  0  0  0  0  0  0
    4.9518    0.1871    0.1401 C   0  0  0  0  0  0  0  0  0  0  0  0
    5.8186    0.2536    1.2440 C   0  0  0  0  0  0  0  0  0  0  0  0
    5.3273    0.2614    2.5462 C   0  0  0  0  0  0  0  0  0  0  0  0
    3.9594    0.2047    2.7609 C   0  0  0  0  0  0  0  0  0  0  0  0
    3.0834    0.1360    1.6728 C   0  0  0  0  0  0  0  0  0  0  0  0
    3.5447    0.1202    0.3280 C   0  0  0  0  0  0  0  0  0  0  0  0
   -1.0271   -0.1060   -1.0645 C   0  0  0  0  0  0  0  0  0  0  0  0
   -1.9963   -1.0007   -1.4797 C   0  0  0  0  0  0  0  0  0  0  0  0
   -3.0891   -0.8341   -0.6657 N   0  0  0  0  0  0  0  0  0  0  0  0
   -4.3241   -1.5410   -0.6982 C   0  0  0  0  0  0  0  0  0  0  0  0
   -5.3196   -1.2320    0.2424 C   0  0  0  0  0  0  0  0  0  0  0  0
   -6.5383   -1.9138    0.2287 C   0  0  0  0  0  0  0  0  0  0  0  0
   -6.7727   -2.9054   -0.7212 C   0  0  0  0  0  0  0  0  0  0  0  0
   -5.7901   -3.2169   -1.6596 C   0  0  0  0  0  0  0  0  0  0  0  0
   -4.5672   -2.5389   -1.6525 C   0  0  0  0  0  0  0  0  0  0  0  0
   -2.8632    0.1279    0.2590 N   0  0  0  0  0  0  0  0  0  0  0  0
   -1.6576    0.6302   -0.0317 C   0  0  0  0  0  0  0  0  0  0  0  0
   -1.1242    1.8984    0.7549 C   0  0  0  0  0  0  0  0  0  0  0  0
   -0.0057    2.6434    0.4424 C   0  0  0  0  0  0  0  0  0  0  0  0
    0.2108    3.7133    1.3634 C   0  0  0  0  0  0  0  0  0  0  0  0
   -0.7647    3.7653    2.3320 C   0  0  0  0  0  0  0  0  0  0  0  0
   -1.9377    2.5408    2.1215 S   0  0  0  0  0  0  0  0  0  0  0  0
    0.9671   -0.0834    0.2880 H   0  0  0  0  0  0  0  0  0  0  0  0
    2.6863    0.0184   -3.0129 H   0  0  0  0  0  0  0  0  0  0  0  0
    5.0940    0.1394   -3.2654 H   0  0  0  0  0  0  0  0  0  0  0  0
    6.5670    0.2422   -1.3031 H   0  0  0  0  0  0  0  0  0  0  0  0
    6.8959    0.3023    1.0955 H   0  0  0  0  0  0  0  0  0  0  0  0
    6.0127    0.3142    3.3879 H   0  0  0  0  0  0  0  0  0  0  0  0
    3.5665    0.2146    3.7747 H   0  0  0  0  0  0  0  0  0  0  0  0
    2.0254    0.1013    1.9127 H   0  0  0  0  0  0  0  0  0  0  0  0
   -1.9622   -1.7415   -2.2643 H   0  0  0  0  0  0  0  0  0  0  0  0
   -5.1610   -0.4601    0.9939 H   0  0  0  0  0  0  0  0  0  0  0  0
   -7.3038   -1.6679    0.9604 H   0  0  0  0  0  0  0  0  0  0  0  0
   -7.7223   -3.4344   -0.7311 H   0  0  0  0  0  0  0  0  0  0  0  0
   -5.9773   -3.9899   -2.4012 H   0  0  0  0  0  0  0  0  0  0  0  0
   -3.8343   -2.8131   -2.4047 H   0  0  0  0  0  0  0  0  0  0  0  0
    0.6350    2.4735   -0.4125 H   0  0  0  0  0  0  0  0  0  0  0  0
    1.0330    4.4166    1.3053 H   0  0  0  0  0  0  0  0  0  0  0  0
   -0.8565    4.4724    3.1451 H   0  0  0  0  0  0  0  0  0  0  0  0
  1  2  2  0
  2  3  1  0
  3  4  1  0
  4  5  2  0
  5  6  1  0
  6  7  2  0
  7  8  1  0
  8  9  2  0
  9 10  1  0
 10 11  2  0
 11 12  1  0
 12 13  2  0
  2 14  1  0
 14 15  2  0
 15 16  1  0
 16 17  1  0
 17 18  2  0
 18 19  1  0
 19 20  2  0
 20 21  1  0
 21 22  2  0
 16 23  1  0
 23 24  2  0
 24 25  1  0
 25 26  2  0
 26 27  1  0
 27 28  2  0
 28 29  1  0
 13  4  1  0
 24 14  1  0
 29 25  1  0
 13  8  1  0
 22 17  1  0
  3 30  1  0
  5 31  1  0
  6 32  1  0
  7 33  1  0
  9 34  1  0
 10 35  1  0
 11 36  1  0
 12 37  1  0
 15 38  1  0
 18 39  1  0
 19 40  1  0
 20 41  1  0
 21 42  1  0
 22 43  1  0
 26 44  1  0
 27 45  1  0
 28 46  1  0
M  END
$$$$
