
     RDKit          3D

 55 57  0  0  0  0  0  0  0  0999 V2000
   -6.9221    2.7091   -3.9685 C   0  0  0  0  0  0  0  0  0  0  0  0
   -6.5703    1.6332   -2.9844 C   0  0  0  0  0  0  0  0  0  0  0  0
   -7.3903    0.5130   -2.8310 C   0  0  0  0  0  0  0  0  0  0  0  0
   -7.0870   -0.4642   -1.8789 C   0  0  0  0  0  0  0  0  0  0  0  0
   -5.9599   -0.3445   -1.0492 C   0  0  0  0  0  0  0  0  0  0  0  0
   -5.7157   -1.4087   -0.0184 C   0  0  0  0  0  0  0  0  0  0  0  0
   -5.1224    0.7712   -1.2225 C   0  0  0  0  0  0  0  0  0  0  0  0
   -3.8719    0.9916   -0.4506 C   0  0  0  0  0  0  0  0  0  0  0  0
   -3.6857    2.0865    0.0774 O   0  0  0  0  0  0  0  0  0  0  0  0
   -2.8544   -0.1366   -0.4184 C   0  0  0  0  0  0  0  0  0  0  0  0
   -1.5438    0.4262   -0.3186 O   0  0  0  0  0  0  0  0  0  0  0  0
   -0.5584   -0.4896   -0.1841 C   0  0  0  0  0  0  0  0  0  0  0  0
   -0.7104   -1.7001   -0.1583 O   0  0  0  0  0  0  0  0  0  0  0  0
    0.7658    0.1802   -0.0788 C   0  0  0  0  0  0  0  0  0  0  0  0
    0.8931    1.5679    0.0416 C   0  0  0  0  0  0  0  0  0  0  0  0
    2.1588    2.1534    0.1392 C   0  0  0  0  0  0  0  0  0  0  0  0
    3.3245    1.3697    0.1298 C   0  0  0  0  0  0  0  0  0  0  0  0
    4.6550    2.0666    0.2112 C   0  0  0  0  0  0  0  0  0  0  0  0
    3.1869   -0.0271    0.0094 C   0  0  0  0  0  0  0  0  0  0  0  0
    4.6062   -1.1104   -0.0314 S   0  0  0  0  0  6  0  0  0  0  0  0
    5.5837   -0.5341   -0.9287 O   0  0  0  0  0  0  0  0  0  0  0  0
    4.1466   -2.4705   -0.2213 O   0  0  0  0  0  0  0  0  0  0  0  0
    5.2102   -1.0113    1.5618 N   0  0  0  0  0  0  0  0  0  0  0  0
    4.2518   -1.4305    2.6382 C   0  0  0  0  0  0  0  0  0  0  0  0
    5.0066   -1.7368    3.9355 C   0  0  0  0  0  0  0  0  0  0  0  0
    5.9183   -2.8359    3.8078 O   0  0  0  0  0  0  0  0  0  0  0  0
    6.4479   -2.9812    2.4817 C   0  0  0  0  0  0  0  0  0  0  0  0
    6.5598   -1.6499    1.7341 C   0  0  0  0  0  0  0  0  0  0  0  0
    1.9160   -0.6161   -0.0960 C   0  0  0  0  0  0  0  0  0  0  0  0
   -5.4445    1.7624   -2.1644 C   0  0  0  0  0  0  0  0  0  0  0  0
   -6.0196    3.1926   -4.3568 H   0  0  0  0  0  0  0  0  0  0  0  0
   -7.5500    3.4652   -3.4871 H   0  0  0  0  0  0  0  0  0  0  0  0
   -7.4621    2.2936   -4.8257 H   0  0  0  0  0  0  0  0  0  0  0  0
   -8.2801    0.3959   -3.4465 H   0  0  0  0  0  0  0  0  0  0  0  0
   -7.7541   -1.3193   -1.7800 H   0  0  0  0  0  0  0  0  0  0  0  0
   -6.6294   -1.9770    0.1884 H   0  0  0  0  0  0  0  0  0  0  0  0
   -4.9547   -2.1114   -0.3702 H   0  0  0  0  0  0  0  0  0  0  0  0
   -5.4027   -0.9660    0.9322 H   0  0  0  0  0  0  0  0  0  0  0  0
   -3.0526   -0.7552    0.4621 H   0  0  0  0  0  0  0  0  0  0  0  0
   -2.9228   -0.7240   -1.3402 H   0  0  0  0  0  0  0  0  0  0  0  0
    0.0153    2.2115    0.0596 H   0  0  0  0  0  0  0  0  0  0  0  0
    2.2257    3.2378    0.2211 H   0  0  0  0  0  0  0  0  0  0  0  0
    5.1548    2.0470   -0.7618 H   0  0  0  0  0  0  0  0  0  0  0  0
    5.2970    1.6129    0.9703 H   0  0  0  0  0  0  0  0  0  0  0  0
    4.5341    3.1177    0.4968 H   0  0  0  0  0  0  0  0  0  0  0  0
    3.6989   -2.3232    2.3261 H   0  0  0  0  0  0  0  0  0  0  0  0
    3.5435   -0.6156    2.8173 H   0  0  0  0  0  0  0  0  0  0  0  0
    4.3005   -1.9880    4.7332 H   0  0  0  0  0  0  0  0  0  0  0  0
    5.5780   -0.8621    4.2671 H   0  0  0  0  0  0  0  0  0  0  0  0
    5.8059   -3.6826    1.9369 H   0  0  0  0  0  0  0  0  0  0  0  0
    7.4348   -3.4451    2.5753 H   0  0  0  0  0  0  0  0  0  0  0  0
    7.1773   -0.9450    2.3034 H   0  0  0  0  0  0  0  0  0  0  0  0
    7.0557   -1.8052    0.7710 H   0  0  0  0  0  0  0  0  0  0  0  0
    1.8161   -1.6966   -0.1969 H   0  0  0  0  0  0  0  0  0  0  0  0
   -4.8042    2.6389   -2.2598 H   0  0  0  0  0  0  0  0  0  0  0  0
  1  2  1  0
  2  3  2  0
  3  4  1  0
  4  5  2  0
  5  6  1  0
  5  7  1  0
  7  8  1  0
  8  9  2  0
  8 10  1  0
 10 11  1  0
 11 12  1  0
 12 13  2  0
 12 14  1  0
 14 15  2  0
 15 16  1  0
 16 17  2  0
 17 18  1  0
 17 19  1  0
 19 20  1  0
 20 21  2  0
 20 22  2  0
 20 23  1  0
 23 24  1  0
 24 25  1  0
 25 26  1  0
 26 27  1  0
 27 28  1  0
 19 29  2  0
  7 30  2  0
 30  2  1  0
 29 14  1  0
 28 23  1  0
  1 31  1  0
  1 32  1  0
  1 33  1  0
  3 34  1  0
  4 35  1  0
  6 36  1  0
  6 37  1  0
  6 38  1  0
 10 39  1  0
 10 40  1  0
 15 41  1  0
 16 42  1  0
 18 43  1  0
 18 44  1  0
 18 45  1  0
 24 46  1  0
 24 47  1  0
 25 48  1  0
 25 49  1  0
 27 50  1  0
 27 51  1  0
 28 52  1  0
 28 53  1  0
 29 54  1  0
 30 55  1  0
M  END
$$$$
