
     RDKit          3D

 39 40  0  0  0  0  0  0  0  0999 V2000
    4.3583    3.1967    0.3563 C   0  0  0  0  0  0  0  0  0  0  0  0
    3.9715    1.9634    0.9632 O   0  0  0  0  0  0  0  0  0  0  0  0
    3.9414    0.9147    0.1054 C   0  0  0  0  0  0  0  0  0  0  0  0
    4.2035    0.9672   -1.0863 O   0  0  0  0  0  0  0  0  0  0  0  0
    3.5614   -0.1995    0.7848 N   0  0  0  0  0  0  0  0  0  0  0  0
    3.2995   -1.4548    0.1313 C   0  0  0  0  0  0  0  0  0  0  0  0
    1.8357   -1.5930   -0.2039 C   0  0  0  0  0  0  0  0  0  0  0  0
    1.3416   -1.0931   -1.4190 C   0  0  0  0  0  0  0  0  0  0  0  0
   -0.0151   -1.1945   -1.7291 C   0  0  0  0  0  0  0  0  0  0  0  0
   -0.8910   -1.7736   -0.8076 C   0  0  0  0  0  0  0  0  0  0  0  0
   -2.6220   -1.9157   -1.2046 S   0  0  0  0  0  6  0  0  0  0  0  0
   -3.1595   -3.0055   -0.4174 O   0  0  0  0  0  0  0  0  0  0  0  0
   -2.7392   -1.9039   -2.6473 O   0  0  0  0  0  0  0  0  0  0  0  0
   -3.2818   -0.4747   -0.6138 N   0  0  0  0  0  0  0  0  0  0  0  0
   -3.4201   -0.3366    0.8611 C   0  0  0  0  0  0  0  0  0  0  0  0
   -3.8902    1.0793    1.2092 C   0  0  0  0  0  0  0  0  0  0  0  0
   -2.9527    2.0916    0.8142 O   0  0  0  0  0  0  0  0  0  0  0  0
   -2.2039    1.7519   -0.3620 C   0  0  0  0  0  0  0  0  0  0  0  0
   -2.9437    0.7993   -1.3074 C   0  0  0  0  0  0  0  0  0  0  0  0
   -0.4112   -2.2949    0.3974 C   0  0  0  0  0  0  0  0  0  0  0  0
    0.9476   -2.1927    0.7017 C   0  0  0  0  0  0  0  0  0  0  0  0
    4.3546    3.9702    1.1293 H   0  0  0  0  0  0  0  0  0  0  0  0
    3.6435    3.4821   -0.4219 H   0  0  0  0  0  0  0  0  0  0  0  0
    5.3705    3.1224   -0.0537 H   0  0  0  0  0  0  0  0  0  0  0  0
    3.2622   -0.0528    1.7371 H   0  0  0  0  0  0  0  0  0  0  0  0
    3.6105   -2.2536    0.8136 H   0  0  0  0  0  0  0  0  0  0  0  0
    3.9085   -1.5474   -0.7753 H   0  0  0  0  0  0  0  0  0  0  0  0
    2.0198   -0.6237   -2.1316 H   0  0  0  0  0  0  0  0  0  0  0  0
   -0.3745   -0.8244   -2.6866 H   0  0  0  0  0  0  0  0  0  0  0  0
   -4.1541   -1.0624    1.2249 H   0  0  0  0  0  0  0  0  0  0  0  0
   -2.4572   -0.5221    1.3460 H   0  0  0  0  0  0  0  0  0  0  0  0
   -4.0381    1.1741    2.2896 H   0  0  0  0  0  0  0  0  0  0  0  0
   -4.8489    1.3008    0.7258 H   0  0  0  0  0  0  0  0  0  0  0  0
   -1.2559    1.3107   -0.0340 H   0  0  0  0  0  0  0  0  0  0  0  0
   -1.9658    2.6867   -0.8792 H   0  0  0  0  0  0  0  0  0  0  0  0
   -3.8881    1.2517   -1.6325 H   0  0  0  0  0  0  0  0  0  0  0  0
   -2.3436    0.6274   -2.2047 H   0  0  0  0  0  0  0  0  0  0  0  0
   -1.0848   -2.7805    1.1003 H   0  0  0  0  0  0  0  0  0  0  0  0
    1.3114   -2.5912    1.6467 H   0  0  0  0  0  0  0  0  0  0  0  0
  1  2  1  0
  2  3  1  0
  3  4  2  0
  3  5  1  0
  5  6  1  0
  6  7  1  0
  7  8  2  0
  8  9  1  0
  9 10  2  0
 10 11  1  0
 11 12  2  0
 11 13  2  0
 11 14  1  0
 14 15  1  0
 15 16  1  0
 16 17  1  0
 17 18  1  0
 18 19  1  0
 10 20  1  0
 20 21  2  0
 21  7  1  0
 19 14  1  0
  1 22  1  0
  1 23  1  0
  1 24  1  0
  5 25  1  0
  6 26  1  0
  6 27  1  0
  8 28  1  0
  9 29  1  0
 15 30  1  0
 15 31  1  0
 16 32  1  0
 16 33  1  0
 18 34  1  0
 18 35  1  0
 19 36  1  0
 19 37  1  0
 20 38  1  0
 21 39  1  0
M  END
$$$$
