
     RDKit          3D

 42 43  0  0  0  0  0  0  0  0999 V2000
    3.4247   -0.7803    2.1626 C   0  0  0  0  0  0  0  0  0  0  0  0
    3.7109    0.4034    1.2569 C   0  0  0  0  0  0  0  0  0  0  0  0
    2.8000    1.2001    0.7693 N   0  0  0  0  0  0  0  0  0  0  0  0
    1.4788    0.8866    0.9526 N   0  0  0  0  0  0  0  0  0  0  0  0
    0.9255   -0.2381    0.3310 C   0  0  0  0  0  0  0  0  0  0  0  0
    1.5605   -1.1484   -0.1930 O   0  0  0  0  0  0  0  0  0  0  0  0
   -0.5902   -0.2180    0.3973 C   0  0  0  0  0  0  0  0  0  0  0  0
   -1.2102   -1.4437   -0.2746 C   0  0  0  0  0  0  0  0  0  0  0  0
   -2.7341   -1.4551   -0.1593 C   0  0  0  0  0  0  0  0  0  0  0  0
   -3.2975   -0.3333   -0.9033 N   0  0  0  0  0  0  0  0  0  0  0  0
   -4.6877   -0.1599   -0.9425 C   0  0  0  0  0  0  0  0  0  0  0  0
   -5.5692   -0.6920    0.0053 C   0  0  0  0  0  0  0  0  0  0  0  0
   -6.9418   -0.4215   -0.0488 C   0  0  0  0  0  0  0  0  0  0  0  0
   -7.4531    0.4123   -1.0384 C   0  0  0  0  0  0  0  0  0  0  0  0
   -6.5898    0.9854   -1.9654 C   0  0  0  0  0  0  0  0  0  0  0  0
   -5.2202    0.7105   -1.9064 C   0  0  0  0  0  0  0  0  0  0  0  0
    5.1441    0.6928    0.9353 C   0  0  0  0  0  0  0  0  0  0  0  0
    6.1188   -0.3027    0.9972 C   0  0  0  0  0  0  0  0  0  0  0  0
    7.4220    0.0422    0.6817 C   0  0  0  0  0  0  0  0  0  0  0  0
    7.8039    1.2843    0.3169 N   0  0  0  0  0  0  0  0  0  0  0  0
    6.8380    2.2247    0.2496 C   0  0  0  0  0  0  0  0  0  0  0  0
    5.5086    1.9819    0.5432 C   0  0  0  0  0  0  0  0  0  0  0  0
    3.3745   -1.6980    1.5713 H   0  0  0  0  0  0  0  0  0  0  0  0
    4.2119   -0.8852    2.9155 H   0  0  0  0  0  0  0  0  0  0  0  0
    2.4870   -0.6456    2.7077 H   0  0  0  0  0  0  0  0  0  0  0  0
    0.8817    1.7096    0.9372 H   0  0  0  0  0  0  0  0  0  0  0  0
   -0.8855   -0.1809    1.4526 H   0  0  0  0  0  0  0  0  0  0  0  0
   -0.9386    0.6992   -0.0912 H   0  0  0  0  0  0  0  0  0  0  0  0
   -0.9124   -1.4784   -1.3303 H   0  0  0  0  0  0  0  0  0  0  0  0
   -0.8161   -2.3545    0.1933 H   0  0  0  0  0  0  0  0  0  0  0  0
   -3.1154   -2.3997   -0.5652 H   0  0  0  0  0  0  0  0  0  0  0  0
   -3.0055   -1.3989    0.9010 H   0  0  0  0  0  0  0  0  0  0  0  0
   -2.9048   -0.2496   -1.8397 H   0  0  0  0  0  0  0  0  0  0  0  0
   -5.2131   -1.3298    0.8075 H   0  0  0  0  0  0  0  0  0  0  0  0
   -7.6076   -0.8577    0.6912 H   0  0  0  0  0  0  0  0  0  0  0  0
   -8.5177    0.6252   -1.0778 H   0  0  0  0  0  0  0  0  0  0  0  0
   -6.9758    1.6539   -2.7300 H   0  0  0  0  0  0  0  0  0  0  0  0
   -4.5628    1.1894   -2.6279 H   0  0  0  0  0  0  0  0  0  0  0  0
    5.8877   -1.3274    1.2614 H   0  0  0  0  0  0  0  0  0  0  0  0
    8.2189   -0.6959    0.7102 H   0  0  0  0  0  0  0  0  0  0  0  0
    7.1720    3.2117   -0.0578 H   0  0  0  0  0  0  0  0  0  0  0  0
    4.7794    2.7812    0.4683 H   0  0  0  0  0  0  0  0  0  0  0  0
  1  2  1  0
  2  3  2  3
  3  4  1  0
  4  5  1  0
  5  6  2  0
  5  7  1  0
  7  8  1  0
  8  9  1  0
  9 10  1  0
 10 11  1  0
 11 12  2  0
 12 13  1  0
 13 14  2  0
 14 15  1  0
 15 16  2  0
  2 17  1  0
 17 18  2  0
 18 19  1  0
 19 20  2  0
 20 21  1  0
 21 22  2  0
 16 11  1  0
 22 17  1  0
  1 23  1  0
  1 24  1  0
  1 25  1  0
  4 26  1  0
  7 27  1  0
  7 28  1  0
  8 29  1  0
  8 30  1  0
  9 31  1  0
  9 32  1  0
 10 33  1  0
 12 34  1  0
 13 35  1  0
 14 36  1  0
 15 37  1  0
 16 38  1  0
 18 39  1  0
 19 40  1  0
 21 41  1  0
 22 42  1  0
M  END
$$$$
