
     RDKit          3D

 38 39  0  0  0  0  0  0  0  0999 V2000
    1.2432   -0.2879   -2.0231 O   0  0  0  0  0  0  0  0  0  0  0  0
    0.4153    0.3368   -1.3791 C   0  0  0  0  0  0  0  0  0  0  0  0
   -0.3997    1.3222   -1.8784 N   0  0  0  0  0  0  0  0  0  0  0  0
   -0.4270    1.7067   -3.2786 C   0  0  0  0  0  0  0  0  0  0  0  0
    0.8742    2.3623   -3.7539 C   0  0  0  0  0  0  0  0  0  0  0  0
    1.8663    1.3948   -4.0841 O   0  0  0  0  0  0  0  0  0  0  0  0
    0.2444    0.0928    0.1204 C   0  0  0  0  0  0  0  0  0  0  0  0
    0.5449   -1.3157    0.5922 C   0  0  0  0  0  0  0  0  0  0  0  0
   -0.4653   -2.3221    0.0912 C   0  0  0  0  0  0  0  0  0  0  0  0
   -0.2062   -3.0745   -1.0644 C   0  0  0  0  0  0  0  0  0  0  0  0
   -1.1466   -3.9893   -1.5437 C   0  0  0  0  0  0  0  0  0  0  0  0
   -2.3531   -4.1569   -0.8693 C   0  0  0  0  0  0  0  0  0  0  0  0
   -3.6276   -5.3933   -1.5170 Br  0  0  0  0  0  0  0  0  0  0  0  0
   -2.6270   -3.4180    0.2787 C   0  0  0  0  0  0  0  0  0  0  0  0
   -1.6859   -2.5025    0.7563 C   0  0  0  0  0  0  0  0  0  0  0  0
   -0.1195    1.1243    0.8288 N   0  0  0  0  0  0  0  0  0  0  0  0
   -0.2770    0.9630    2.1793 C   0  0  0  0  0  0  0  0  0  0  0  0
   -1.1014    0.2009    2.6697 O   0  0  0  0  0  0  0  0  0  0  0  0
    0.6047    1.8076    2.9766 C   0  0  0  0  0  0  0  0  0  0  0  0
    0.6347    1.8860    4.3594 C   0  0  0  0  0  0  0  0  0  0  0  0
    1.6156    2.8003    4.8408 C   0  0  0  0  0  0  0  0  0  0  0  0
    2.3096    3.3946    3.8123 C   0  0  0  0  0  0  0  0  0  0  0  0
    1.7784    2.8501    2.2821 S   0  0  0  0  0  0  0  0  0  0  0  0
   -0.9659    1.8299   -1.2042 H   0  0  0  0  0  0  0  0  0  0  0  0
   -0.6397    0.8071   -3.8660 H   0  0  0  0  0  0  0  0  0  0  0  0
   -1.2579    2.4109   -3.3853 H   0  0  0  0  0  0  0  0  0  0  0  0
    1.2841    3.0381   -2.9966 H   0  0  0  0  0  0  0  0  0  0  0  0
    0.6831    2.9399   -4.6634 H   0  0  0  0  0  0  0  0  0  0  0  0
    1.8483    0.7017   -3.3898 H   0  0  0  0  0  0  0  0  0  0  0  0
    1.5483   -1.5870    0.2405 H   0  0  0  0  0  0  0  0  0  0  0  0
    0.6055   -1.3726    1.6830 H   0  0  0  0  0  0  0  0  0  0  0  0
    0.7305   -2.9509   -1.6068 H   0  0  0  0  0  0  0  0  0  0  0  0
   -0.9276   -4.5612   -2.4415 H   0  0  0  0  0  0  0  0  0  0  0  0
   -3.5666   -3.5450    0.8100 H   0  0  0  0  0  0  0  0  0  0  0  0
   -1.9174   -1.9361    1.6564 H   0  0  0  0  0  0  0  0  0  0  0  0
   -0.0261    1.3075    4.9961 H   0  0  0  0  0  0  0  0  0  0  0  0
    1.8014    3.0109    5.8873 H   0  0  0  0  0  0  0  0  0  0  0  0
    3.1050    4.1243    3.8842 H   0  0  0  0  0  0  0  0  0  0  0  0
  1  2  2  0
  2  3  1  0
  3  4  1  0
  4  5  1  0
  5  6  1  0
  2  7  1  0
  7  8  1  0
  8  9  1  0
  9 10  2  0
 10 11  1  0
 11 12  2  0
 12 13  1  0
 12 14  1  0
 14 15  2  0
  7 16  2  3
 16 17  1  0
 17 18  2  0
 17 19  1  0
 19 20  2  0
 20 21  1  0
 21 22  2  0
 22 23  1  0
 15  9  1  0
 23 19  1  0
  3 24  1  0
  4 25  1  0
  4 26  1  0
  5 27  1  0
  5 28  1  0
  6 29  1  0
  8 30  1  0
  8 31  1  0
 10 32  1  0
 11 33  1  0
 14 34  1  0
 15 35  1  0
 20 36  1  0
 21 37  1  0
 22 38  1  0
M  END
$$$$
