
     RDKit          3D

 36 37  0  0  0  0  0  0  0  0999 V2000
   -6.5769    2.1207   -0.1176 C   0  0  0  0  0  0  0  0  0  0  0  0
   -5.3245    1.5498   -0.7357 C   0  0  0  0  0  0  0  0  0  0  0  0
   -5.2185    1.4462   -1.9520 O   0  0  0  0  0  0  0  0  0  0  0  0
   -4.3788    1.2159    0.2173 N   0  0  0  0  0  0  0  0  0  0  0  0
   -3.0985    0.6667    0.0003 C   0  0  0  0  0  0  0  0  0  0  0  0
   -2.3094    0.4173    1.1275 C   0  0  0  0  0  0  0  0  0  0  0  0
   -1.0264   -0.1276    0.9958 C   0  0  0  0  0  0  0  0  0  0  0  0
   -0.5059   -0.4328   -0.2659 C   0  0  0  0  0  0  0  0  0  0  0  0
    0.7921   -0.9792   -0.3115 N   0  0  0  0  0  0  0  0  0  0  0  0
    1.5364   -1.3028   -1.4344 C   0  0  0  0  0  0  0  0  0  0  0  0
    1.1818   -1.1799   -2.6033 O   0  0  0  0  0  0  0  0  0  0  0  0
    2.8931   -1.9140   -1.1048 C   0  0  0  0  0  0  0  0  0  0  0  0
    3.7215   -1.1066   -0.1301 C   0  0  0  0  0  0  0  0  0  0  0  0
    4.0779    0.2184   -0.4299 C   0  0  0  0  0  0  0  0  0  0  0  0
    4.8390    0.9645    0.4706 C   0  0  0  0  0  0  0  0  0  0  0  0
    5.2501    0.3858    1.6647 C   0  0  0  0  0  0  0  0  0  0  0  0
    5.9800    1.1024    2.5293 F   0  0  0  0  0  0  0  0  0  0  0  0
    4.9167   -0.9271    1.9752 C   0  0  0  0  0  0  0  0  0  0  0  0
    4.1545   -1.6763    1.0776 C   0  0  0  0  0  0  0  0  0  0  0  0
   -1.2935   -0.1856   -1.3885 C   0  0  0  0  0  0  0  0  0  0  0  0
   -2.5799    0.3599   -1.2564 C   0  0  0  0  0  0  0  0  0  0  0  0
   -6.4236    3.1813    0.0981 H   0  0  0  0  0  0  0  0  0  0  0  0
   -7.4107    2.0094   -0.8168 H   0  0  0  0  0  0  0  0  0  0  0  0
   -6.8340    1.5901    0.8037 H   0  0  0  0  0  0  0  0  0  0  0  0
   -4.6271    1.3912    1.1823 H   0  0  0  0  0  0  0  0  0  0  0  0
   -2.6762    0.6423    2.1254 H   0  0  0  0  0  0  0  0  0  0  0  0
   -0.4436   -0.3047    1.8960 H   0  0  0  0  0  0  0  0  0  0  0  0
    1.2530   -1.0973    0.5826 H   0  0  0  0  0  0  0  0  0  0  0  0
    3.4640   -2.0236   -2.0350 H   0  0  0  0  0  0  0  0  0  0  0  0
    2.7129   -2.9256   -0.7211 H   0  0  0  0  0  0  0  0  0  0  0  0
    3.7641    0.6771   -1.3668 H   0  0  0  0  0  0  0  0  0  0  0  0
    5.1157    1.9898    0.2462 H   0  0  0  0  0  0  0  0  0  0  0  0
    5.2579   -1.3591    2.9107 H   0  0  0  0  0  0  0  0  0  0  0  0
    3.9086   -2.7069    1.3260 H   0  0  0  0  0  0  0  0  0  0  0  0
   -0.9448   -0.4058   -2.3929 H   0  0  0  0  0  0  0  0  0  0  0  0
   -3.1470    0.5303   -2.1666 H   0  0  0  0  0  0  0  0  0  0  0  0
  1  2  1  0
  2  3  2  0
  2  4  1  0
  4  5  1  0
  5  6  2  0
  6  7  1  0
  7  8  2  0
  8  9  1  0
  9 10  1  0
 10 11  2  0
 10 12  1  0
 12 13  1  0
 13 14  2  0
 14 15  1  0
 15 16  2  0
 16 17  1  0
 16 18  1  0
 18 19  2  0
  8 20  1  0
 20 21  2  0
 21  5  1  0
 19 13  1  0
  1 22  1  0
  1 23  1  0
  1 24  1  0
  4 25  1  0
  6 26  1  0
  7 27  1  0
  9 28  1  0
 12 29  1  0
 12 30  1  0
 14 31  1  0
 15 32  1  0
 18 33  1  0
 19 34  1  0
 20 35  1  0
 21 36  1  0
M  END
$$$$
