
     RDKit          3D

 37 39  0  0  0  0  0  0  0  0999 V2000
   -0.3696    0.0153   -0.7606 O   0  0  0  0  0  0  0  0  0  0  0  0
   -0.9332    0.0827    0.3240 C   0  0  0  0  0  0  0  0  0  0  0  0
   -0.1871   -0.0130    1.6496 C   0  0  0  0  0  0  0  0  0  0  0  0
    1.3160   -0.2705    1.5178 C   0  0  0  0  0  0  0  0  0  0  0  0
    2.1871    1.1789    0.8495 S   0  0  0  0  0  0  0  0  0  0  0  0
    3.7698    0.4471    0.5083 C   0  0  0  0  0  0  0  0  0  0  0  0
    4.8810    1.2942    0.4075 C   0  0  0  0  0  0  0  0  0  0  0  0
    6.1357    0.7838    0.0706 C   0  0  0  0  0  0  0  0  0  0  0  0
    6.2858   -0.5764   -0.1840 C   0  0  0  0  0  0  0  0  0  0  0  0
    5.1827   -1.4265   -0.0963 C   0  0  0  0  0  0  0  0  0  0  0  0
    3.9267   -0.9213    0.2607 C   0  0  0  0  0  0  0  0  0  0  0  0
    2.8586   -1.8249    0.3219 N   0  0  0  0  0  0  0  0  0  0  0  0
    1.6000   -1.5786    0.7921 C   0  0  0  0  0  0  0  0  0  0  0  0
    0.7715   -2.4937    0.7529 O   0  0  0  0  0  0  0  0  0  0  0  0
   -2.2932    0.2645    0.5285 N   0  0  0  0  0  0  0  0  0  0  0  0
   -3.3277    0.4029   -0.4353 C   0  0  0  0  0  0  0  0  0  0  0  0
   -3.0534    0.3767   -1.8102 C   0  0  0  0  0  0  0  0  0  0  0  0
   -4.0710    0.5139   -2.7626 C   0  0  0  0  0  0  0  0  0  0  0  0
   -5.3915    0.6808   -2.3645 C   0  0  0  0  0  0  0  0  0  0  0  0
   -5.7004    0.7104   -1.0078 C   0  0  0  0  0  0  0  0  0  0  0  0
   -4.6790    0.5723   -0.0454 C   0  0  0  0  0  0  0  0  0  0  0  0
   -5.0819    0.6109    1.3719 N   0  0  0  0  0  4  0  0  0  0  0  0
   -6.2918    0.6877    1.6303 O   0  0  0  0  0  0  0  0  0  0  0  0
   -4.1928    0.5659    2.2379 O   0  0  0  0  0  1  0  0  0  0  0  0
   -0.6427   -0.8335    2.2201 H   0  0  0  0  0  0  0  0  0  0  0  0
   -0.3669    0.9094    2.2167 H   0  0  0  0  0  0  0  0  0  0  0  0
    1.7102   -0.4112    2.5330 H   0  0  0  0  0  0  0  0  0  0  0  0
    4.7749    2.3632    0.5804 H   0  0  0  0  0  0  0  0  0  0  0  0
    6.9907    1.4511   -0.0050 H   0  0  0  0  0  0  0  0  0  0  0  0
    7.2601   -0.9748   -0.4564 H   0  0  0  0  0  0  0  0  0  0  0  0
    5.3181   -2.4851   -0.3032 H   0  0  0  0  0  0  0  0  0  0  0  0
    2.9908   -2.7659   -0.0266 H   0  0  0  0  0  0  0  0  0  0  0  0
   -2.5956    0.2997    1.5029 H   0  0  0  0  0  0  0  0  0  0  0  0
   -2.0438    0.2484   -2.1901 H   0  0  0  0  0  0  0  0  0  0  0  0
   -3.8199    0.4880   -3.8213 H   0  0  0  0  0  0  0  0  0  0  0  0
   -6.1771    0.7863   -3.1091 H   0  0  0  0  0  0  0  0  0  0  0  0
   -6.7412    0.8414   -0.7161 H   0  0  0  0  0  0  0  0  0  0  0  0
  1  2  2  0
  2  3  1  0
  3  4  1  0
  4  5  1  0
  5  6  1  0
  6  7  2  0
  7  8  1  0
  8  9  2  0
  9 10  1  0
 10 11  2  0
 11 12  1  0
 12 13  1  0
 13 14  2  0
  2 15  1  0
 15 16  1  0
 16 17  2  0
 17 18  1  0
 18 19  2  0
 19 20  1  0
 20 21  2  0
 21 22  1  0
 22 23  2  0
 22 24  1  0
 13  4  1  0
 21 16  1  0
 11  6  1  0
  3 25  1  0
  3 26  1  0
  4 27  1  0
  7 28  1  0
  8 29  1  0
  9 30  1  0
 10 31  1  0
 12 32  1  0
 15 33  1  0
 17 34  1  0
 18 35  1  0
 19 36  1  0
 20 37  1  0
M  CHG  2  22   1  24  -1
M  END
$$$$
