
     RDKit          3D

 37 39  0  0  0  0  0  0  0  0999 V2000
   -1.8151    0.6313    2.8829 C   0  0  0  0  0  0  0  0  0  0  0  0
   -0.7542    0.4677    1.8148 C   0  0  0  0  0  0  0  0  0  0  0  0
    0.3774    1.0735    2.0450 N   0  0  0  0  0  0  0  0  0  0  0  0
    1.3767    0.9448    1.1225 N   0  0  0  0  0  0  0  0  0  0  0  0
    2.0919   -0.2433    1.0103 C   0  0  0  0  0  0  0  0  0  0  0  0
    1.7874   -1.3064    1.5415 O   0  0  0  0  0  0  0  0  0  0  0  0
    3.3163   -0.1663    0.1686 C   0  0  0  0  0  0  0  0  0  0  0  0
    3.4060    0.7188   -0.9162 C   0  0  0  0  0  0  0  0  0  0  0  0
    4.5676    0.7575   -1.6902 C   0  0  0  0  0  0  0  0  0  0  0  0
    5.6344   -0.0901   -1.3887 C   0  0  0  0  0  0  0  0  0  0  0  0
    5.5349   -0.9809   -0.3197 C   0  0  0  0  0  0  0  0  0  0  0  0
    6.8510   -2.0296    0.0385 Cl  0  0  0  0  0  0  0  0  0  0  0  0
    4.3805   -1.0282    0.4581 C   0  0  0  0  0  0  0  0  0  0  0  0
   -1.1027   -0.3022    0.5534 C   0  0  0  0  0  0  0  0  0  0  0  0
   -1.3179    0.5970   -0.6538 C   0  0  0  0  0  0  0  0  0  0  0  0
   -0.5609    1.4285   -1.1239 O   0  0  0  0  0  0  0  0  0  0  0  0
   -2.6259    0.3020   -1.2348 C   0  0  0  0  0  0  0  0  0  0  0  0
   -3.2256    0.8729   -2.3426 C   0  0  0  0  0  0  0  0  0  0  0  0
   -4.4969    0.4123   -2.6981 C   0  0  0  0  0  0  0  0  0  0  0  0
   -5.1340   -0.5957   -1.9484 C   0  0  0  0  0  0  0  0  0  0  0  0
   -4.5100   -1.1590   -0.8315 C   0  0  0  0  0  0  0  0  0  0  0  0
   -3.2524   -0.6899   -0.4984 C   0  0  0  0  0  0  0  0  0  0  0  0
   -2.3943   -1.0963    0.6118 C   0  0  0  0  0  0  0  0  0  0  0  0
   -2.7200   -1.9383    1.4283 O   0  0  0  0  0  0  0  0  0  0  0  0
   -1.4856    1.3440    3.6451 H   0  0  0  0  0  0  0  0  0  0  0  0
   -2.7391    1.0063    2.4350 H   0  0  0  0  0  0  0  0  0  0  0  0
   -2.0000   -0.3302    3.3678 H   0  0  0  0  0  0  0  0  0  0  0  0
    1.9273    1.7935    1.0204 H   0  0  0  0  0  0  0  0  0  0  0  0
    2.5709    1.3622   -1.1883 H   0  0  0  0  0  0  0  0  0  0  0  0
    4.6376    1.4403   -2.5339 H   0  0  0  0  0  0  0  0  0  0  0  0
    6.5365   -0.0585   -1.9949 H   0  0  0  0  0  0  0  0  0  0  0  0
    4.3053   -1.7284    1.2875 H   0  0  0  0  0  0  0  0  0  0  0  0
   -0.3217   -1.0200    0.2933 H   0  0  0  0  0  0  0  0  0  0  0  0
   -2.7262    1.6497   -2.9139 H   0  0  0  0  0  0  0  0  0  0  0  0
   -5.0021    0.8364   -3.5645 H   0  0  0  0  0  0  0  0  0  0  0  0
   -6.1243   -0.9393   -2.2437 H   0  0  0  0  0  0  0  0  0  0  0  0
   -4.9926   -1.9362   -0.2461 H   0  0  0  0  0  0  0  0  0  0  0  0
  1  2  1  0
  2  3  2  3
  3  4  1  0
  4  5  1  0
  5  6  2  0
  5  7  1  0
  7  8  2  0
  8  9  1  0
  9 10  2  0
 10 11  1  0
 11 12  1  0
 11 13  2  0
  2 14  1  0
 14 15  1  0
 15 16  2  0
 15 17  1  0
 17 18  2  0
 18 19  1  0
 19 20  2  0
 20 21  1  0
 21 22  2  0
 22 23  1  0
 23 24  2  0
 13  7  1  0
 23 14  1  0
 22 17  1  0
  1 25  1  0
  1 26  1  0
  1 27  1  0
  4 28  1  0
  8 29  1  0
  9 30  1  0
 10 31  1  0
 13 32  1  0
 14 33  1  0
 18 34  1  0
 19 35  1  0
 20 36  1  0
 21 37  1  0
M  END
$$$$
