
     RDKit          3D

 34 35  0  0  0  0  0  0  0  0999 V2000
   -1.8082    2.4508    0.2413 O   0  0  0  0  0  0  0  0  0  0  0  0
   -0.9606    1.5995    0.4871 C   0  0  0  0  0  0  0  0  0  0  0  0
    0.3934    1.9531    1.0935 C   0  0  0  0  0  0  0  0  0  0  0  0
    1.4034    1.0764    0.5752 O   0  0  0  0  0  0  0  0  0  0  0  0
    2.6207    1.2607    1.1426 C   0  0  0  0  0  0  0  0  0  0  0  0
    2.8806    2.0491    2.0351 O   0  0  0  0  0  0  0  0  0  0  0  0
    3.6176    0.3486    0.5428 C   0  0  0  0  0  0  0  0  0  0  0  0
    3.3767   -0.4231   -0.5981 C   0  0  0  0  0  0  0  0  0  0  0  0
    4.3845   -1.2550   -1.0871 C   0  0  0  0  0  0  0  0  0  0  0  0
    5.5952   -1.2791   -0.4145 C   0  0  0  0  0  0  0  0  0  0  0  0
    6.8815   -2.2754   -0.9513 Cl  0  0  0  0  0  0  0  0  0  0  0  0
    5.8665   -0.5468    0.6848 N   0  0  0  0  0  0  0  0  0  0  0  0
    4.8710    0.2551    1.1379 C   0  0  0  0  0  0  0  0  0  0  0  0
   -1.1127    0.2413    0.2591 N   0  0  0  0  0  0  0  0  0  0  0  0
   -2.2483   -0.3504   -0.3481 C   0  0  0  0  0  0  0  0  0  0  0  0
   -2.0004   -1.3502   -1.3167 C   0  0  0  0  0  0  0  0  0  0  0  0
   -0.3796   -1.8404   -1.6975 Cl  0  0  0  0  0  0  0  0  0  0  0  0
   -3.0404   -1.9552   -2.0236 C   0  0  0  0  0  0  0  0  0  0  0  0
   -4.3528   -1.5839   -1.7655 C   0  0  0  0  0  0  0  0  0  0  0  0
   -4.6184   -0.6391   -0.7754 C   0  0  0  0  0  0  0  0  0  0  0  0
   -3.5814   -0.0304   -0.0284 C   0  0  0  0  0  0  0  0  0  0  0  0
   -4.0130    0.8466    1.1278 C   0  0  0  0  0  0  0  0  0  0  0  0
   -5.1034    0.3130    1.7664 F   0  0  0  0  0  0  0  0  0  0  0  0
   -3.0898    0.9946    2.1187 F   0  0  0  0  0  0  0  0  0  0  0  0
   -4.4114    2.0906    0.7506 F   0  0  0  0  0  0  0  0  0  0  0  0
    0.3116    1.8517    2.1815 H   0  0  0  0  0  0  0  0  0  0  0  0
    0.6354    2.9849    0.8164 H   0  0  0  0  0  0  0  0  0  0  0  0
    2.4245   -0.3822   -1.1188 H   0  0  0  0  0  0  0  0  0  0  0  0
    4.2246   -1.8636   -1.9706 H   0  0  0  0  0  0  0  0  0  0  0  0
    5.1235    0.8350    2.0237 H   0  0  0  0  0  0  0  0  0  0  0  0
   -0.2280   -0.2351    0.0937 H   0  0  0  0  0  0  0  0  0  0  0  0
   -2.8325   -2.7068   -2.7810 H   0  0  0  0  0  0  0  0  0  0  0  0
   -5.1711   -2.0431   -2.3158 H   0  0  0  0  0  0  0  0  0  0  0  0
   -5.6585   -0.3911   -0.5556 H   0  0  0  0  0  0  0  0  0  0  0  0
  1  2  2  0
  2  3  1  0
  3  4  1  0
  4  5  1  0
  5  6  2  0
  5  7  1  0
  7  8  2  0
  8  9  1  0
  9 10  2  0
 10 11  1  0
 10 12  1  0
 12 13  2  0
  2 14  1  0
 14 15  1  0
 15 16  2  0
 16 17  1  0
 16 18  1  0
 18 19  2  0
 19 20  1  0
 20 21  2  0
 21 22  1  0
 22 23  1  0
 22 24  1  0
 22 25  1  0
 13  7  1  0
 21 15  1  0
  3 26  1  0
  3 27  1  0
  8 28  1  0
  9 29  1  0
 13 30  1  0
 14 31  1  0
 18 32  1  0
 19 33  1  0
 20 34  1  0
M  END
$$$$
