
     RDKit          3D

 43 44  0  0  0  0  0  0  0  0999 V2000
    7.5776   -0.9164    0.7111 C   0  0  0  0  0  0  0  0  0  0  0  0
    6.4947   -0.2967    0.0160 O   0  0  0  0  0  0  0  0  0  0  0  0
    5.3003   -0.4044    0.6509 C   0  0  0  0  0  0  0  0  0  0  0  0
    5.1079   -0.9712    1.7148 O   0  0  0  0  0  0  0  0  0  0  0  0
    4.2273    0.2663   -0.1319 C   0  0  0  0  0  0  0  0  0  0  0  0
    4.4746    0.9007   -1.3564 C   0  0  0  0  0  0  0  0  0  0  0  0
    3.4331    1.5258   -2.0492 C   0  0  0  0  0  0  0  0  0  0  0  0
    2.1281    1.4961   -1.5501 C   0  0  0  0  0  0  0  0  0  0  0  0
    1.1259    2.2460   -2.1914 N   0  0  0  0  0  0  0  0  0  0  0  0
    1.8836    0.8791   -0.3017 C   0  0  0  0  0  0  0  0  0  0  0  0
    0.5898    0.8786    0.2546 N   0  0  0  0  0  0  0  0  0  0  0  0
   -0.1873   -0.0755   -0.1485 C   0  0  0  0  0  0  0  0  0  0  0  0
   -1.6198   -0.1232    0.3022 C   0  0  0  0  0  0  0  0  0  0  0  0
   -1.9959   -1.4517    0.8988 C   0  0  0  0  0  0  0  0  0  0  0  0
   -1.1729   -2.3495    1.0784 O   0  0  0  0  0  0  0  0  0  0  0  0
   -3.4393   -1.6436    1.3277 C   0  0  0  0  0  0  0  0  0  0  0  0
   -4.4438   -0.7256    0.5948 C   0  0  0  0  0  0  0  0  0  0  0  0
   -4.7102    0.5571    1.4085 C   0  0  0  0  0  0  0  0  0  0  0  0
   -5.7894   -1.4702    0.4638 C   0  0  0  0  0  0  0  0  0  0  0  0
   -3.9419   -0.3790   -0.8197 C   0  0  0  0  0  0  0  0  0  0  0  0
   -2.5516    0.2280   -0.8335 C   0  0  0  0  0  0  0  0  0  0  0  0
   -2.2018    0.9565   -1.7643 O   0  0  0  0  0  0  0  0  0  0  0  0
    2.9299    0.2660    0.3938 C   0  0  0  0  0  0  0  0  0  0  0  0
    7.7220   -0.4500    1.6907 H   0  0  0  0  0  0  0  0  0  0  0  0
    7.4014   -1.9917    0.8147 H   0  0  0  0  0  0  0  0  0  0  0  0
    8.4865   -0.7701    0.1210 H   0  0  0  0  0  0  0  0  0  0  0  0
    5.4767    0.9353   -1.7768 H   0  0  0  0  0  0  0  0  0  0  0  0
    3.6503    2.0504   -2.9761 H   0  0  0  0  0  0  0  0  0  0  0  0
    0.1887    2.0164   -1.8592 H   0  0  0  0  0  0  0  0  0  0  0  0
    1.1944    2.2808   -3.2011 H   0  0  0  0  0  0  0  0  0  0  0  0
    0.1457   -0.8533   -0.8620 H   0  0  0  0  0  0  0  0  0  0  0  0
   -1.7432    0.6328    1.0854 H   0  0  0  0  0  0  0  0  0  0  0  0
   -3.4944   -1.5028    2.4130 H   0  0  0  0  0  0  0  0  0  0  0  0
   -3.6764   -2.6949    1.1191 H   0  0  0  0  0  0  0  0  0  0  0  0
   -5.4321    1.2036    0.8962 H   0  0  0  0  0  0  0  0  0  0  0  0
   -3.8059    1.1471    1.5745 H   0  0  0  0  0  0  0  0  0  0  0  0
   -5.1266    0.3170    2.3937 H   0  0  0  0  0  0  0  0  0  0  0  0
   -6.1822   -1.7522    1.4474 H   0  0  0  0  0  0  0  0  0  0  0  0
   -6.5418   -0.8453   -0.0307 H   0  0  0  0  0  0  0  0  0  0  0  0
   -5.6815   -2.3868   -0.1272 H   0  0  0  0  0  0  0  0  0  0  0  0
   -4.6269    0.3272   -1.3042 H   0  0  0  0  0  0  0  0  0  0  0  0
   -3.8985   -1.2826   -1.4405 H   0  0  0  0  0  0  0  0  0  0  0  0
    2.7249   -0.2038    1.3532 H   0  0  0  0  0  0  0  0  0  0  0  0
  1  2  1  0
  2  3  1  0
  3  4  2  0
  3  5  1  0
  5  6  2  0
  6  7  1  0
  7  8  2  0
  8  9  1  0
  8 10  1  0
 10 11  1  0
 11 12  2  3
 12 13  1  0
 13 14  1  0
 14 15  2  0
 14 16  1  0
 16 17  1  0
 17 18  1  0
 17 19  1  0
 17 20  1  0
 20 21  1  0
 21 22  2  0
 10 23  2  0
 23  5  1  0
 21 13  1  0
  1 24  1  0
  1 25  1  0
  1 26  1  0
  6 27  1  0
  7 28  1  0
  9 29  1  0
  9 30  1  0
 12 31  1  0
 13 32  1  0
 16 33  1  0
 16 34  1  0
 18 35  1  0
 18 36  1  0
 18 37  1  0
 19 38  1  0
 19 39  1  0
 19 40  1  0
 20 41  1  0
 20 42  1  0
 23 43  1  0
M  END
$$$$
