
     RDKit          3D

 50 53  0  0  0  0  0  0  0  0999 V2000
   -3.0480   -2.6902    2.5689 C   0  0  0  0  0  0  0  0  0  0  0  0
   -2.0795   -2.3650    1.5708 O   0  0  0  0  0  0  0  0  0  0  0  0
   -2.1011   -1.0598    1.1925 C   0  0  0  0  0  0  0  0  0  0  0  0
   -2.8700   -0.2116    1.6142 O   0  0  0  0  0  0  0  0  0  0  0  0
   -1.0583   -0.8385    0.1579 C   0  0  0  0  0  0  0  0  0  0  0  0
   -1.2195    0.0109   -0.8890 C   0  0  0  0  0  0  0  0  0  0  0  0
   -2.4469    0.7741   -1.1620 C   0  0  0  0  0  0  0  0  0  0  0  0
   -2.4612    2.1654   -1.0056 C   0  0  0  0  0  0  0  0  0  0  0  0
   -3.6224    2.8947   -1.2673 C   0  0  0  0  0  0  0  0  0  0  0  0
   -4.7789    2.2377   -1.6879 C   0  0  0  0  0  0  0  0  0  0  0  0
   -4.7759    0.8481   -1.8457 C   0  0  0  0  0  0  0  0  0  0  0  0
   -5.9630    0.1703   -2.2762 C   0  0  0  0  0  0  0  0  0  0  0  0
   -6.9186   -0.3823   -2.6354 N   0  0  0  0  0  0  0  0  0  0  0  0
   -3.6098    0.1184   -1.5864 C   0  0  0  0  0  0  0  0  0  0  0  0
   -0.0787    0.2312   -1.8817 C   0  0  0  0  0  0  0  0  0  0  0  0
    1.1098   -0.7293   -1.6269 C   0  0  0  0  0  0  0  0  0  0  0  0
    0.7420   -2.1871   -1.9629 C   0  0  0  0  0  0  0  0  0  0  0  0
    0.2719   -2.7981   -0.6277 C   0  0  0  0  0  0  0  0  0  0  0  0
    0.2424   -1.6119    0.3421 C   0  0  0  0  0  0  0  0  0  0  0  0
    1.3228   -0.7889   -0.1865 N   0  0  0  0  0  0  0  0  0  0  0  0
    1.9432    0.1437    0.6112 C   0  0  0  0  0  0  0  0  0  0  0  0
    1.7222    0.2300    1.8149 O   0  0  0  0  0  0  0  0  0  0  0  0
    2.8116    0.9669   -0.0552 N   0  0  0  0  0  0  0  0  0  0  0  0
    3.5848    1.9654    0.6485 C   0  0  0  0  0  0  0  0  0  0  0  0
    4.9413    1.4202    0.9730 C   0  0  0  0  0  0  0  0  0  0  0  0
    5.7001    1.9357    2.1696 C   0  0  0  0  0  0  0  0  0  0  0  0
    5.1501    0.5363    2.1766 C   0  0  0  0  0  0  0  0  0  0  0  0
   -2.8664   -2.1142    3.4817 H   0  0  0  0  0  0  0  0  0  0  0  0
   -2.9469   -3.7531    2.8047 H   0  0  0  0  0  0  0  0  0  0  0  0
   -4.0607   -2.5140    2.1927 H   0  0  0  0  0  0  0  0  0  0  0  0
   -1.5729    2.6883   -0.6564 H   0  0  0  0  0  0  0  0  0  0  0  0
   -3.6269    3.9736   -1.1312 H   0  0  0  0  0  0  0  0  0  0  0  0
   -5.6809    2.8147   -1.8824 H   0  0  0  0  0  0  0  0  0  0  0  0
   -3.6107   -0.9630   -1.7096 H   0  0  0  0  0  0  0  0  0  0  0  0
   -0.4363    0.1092   -2.9114 H   0  0  0  0  0  0  0  0  0  0  0  0
    0.2776    1.2642   -1.7778 H   0  0  0  0  0  0  0  0  0  0  0  0
    1.9949   -0.3995   -2.1771 H   0  0  0  0  0  0  0  0  0  0  0  0
    1.6273   -2.7310   -2.3133 H   0  0  0  0  0  0  0  0  0  0  0  0
   -0.0206   -2.2631   -2.7449 H   0  0  0  0  0  0  0  0  0  0  0  0
   -0.6880   -3.3158   -0.7254 H   0  0  0  0  0  0  0  0  0  0  0  0
    1.0128   -3.5348   -0.2927 H   0  0  0  0  0  0  0  0  0  0  0  0
    0.4317   -1.8918    1.3829 H   0  0  0  0  0  0  0  0  0  0  0  0
    3.2510    0.5603   -0.8637 H   0  0  0  0  0  0  0  0  0  0  0  0
    3.0498    2.2995    1.5443 H   0  0  0  0  0  0  0  0  0  0  0  0
    3.6899    2.8218   -0.0251 H   0  0  0  0  0  0  0  0  0  0  0  0
    5.5178    1.2029    0.0808 H   0  0  0  0  0  0  0  0  0  0  0  0
    6.7738    2.0561    2.0792 H   0  0  0  0  0  0  0  0  0  0  0  0
    5.2258    2.6648    2.8174 H   0  0  0  0  0  0  0  0  0  0  0  0
    4.3005    0.3270    2.8187 H   0  0  0  0  0  0  0  0  0  0  0  0
    5.8472   -0.2887    2.0862 H   0  0  0  0  0  0  0  0  0  0  0  0
  1  2  1  0
  2  3  1  0
  3  4  2  0
  3  5  1  0
  5  6  2  0
  6  7  1  0
  7  8  2  0
  8  9  1  0
  9 10  2  0
 10 11  1  0
 11 12  1  0
 12 13  3  0
 11 14  2  0
  6 15  1  0
 15 16  1  0
 16 17  1  0
 17 18  1  0
 18 19  1  0
 19 20  1  0
 20 21  1  0
 21 22  2  0
 21 23  1  0
 23 24  1  0
 24 25  1  0
 25 26  1  0
 26 27  1  0
 19  5  1  0
 27 25  1  0
 14  7  1  0
 20 16  1  0
  1 28  1  0
  1 29  1  0
  1 30  1  0
  8 31  1  0
  9 32  1  0
 10 33  1  0
 14 34  1  0
 15 35  1  0
 15 36  1  0
 16 37  1  0
 17 38  1  0
 17 39  1  0
 18 40  1  0
 18 41  1  0
 19 42  1  0
 23 43  1  0
 24 44  1  0
 24 45  1  0
 25 46  1  0
 26 47  1  0
 26 48  1  0
 27 49  1  0
 27 50  1  0
M  END
$$$$
