
     RDKit          3D

 59 62  0  0  0  0  0  0  0  0999 V2000
   -9.2632    0.6551   -0.7180 C   0  0  0  0  0  0  0  0  0  0  0  0
   -7.8569    0.6644   -0.9320 O   0  0  0  0  0  0  0  0  0  0  0  0
   -7.0610    0.4313    0.1553 C   0  0  0  0  0  0  0  0  0  0  0  0
   -7.4998    0.1922    1.4539 C   0  0  0  0  0  0  0  0  0  0  0  0
   -6.5677   -0.0290    2.4691 C   0  0  0  0  0  0  0  0  0  0  0  0
   -5.1917   -0.0123    2.1868 C   0  0  0  0  0  0  0  0  0  0  0  0
   -4.2305   -0.2222    3.1790 C   0  0  0  0  0  0  0  0  0  0  0  0
   -2.8710   -0.1949    2.8523 C   0  0  0  0  0  0  0  0  0  0  0  0
   -1.9097   -0.3579    3.8995 C   0  0  0  0  0  0  0  0  0  0  0  0
   -1.1679   -0.5049    4.7809 N   0  0  0  0  0  0  0  0  0  0  0  0
   -2.4949    0.0330    1.5238 C   0  0  0  0  0  0  0  0  0  0  0  0
   -1.1400    0.0527    1.1379 N   0  0  0  0  0  0  0  0  0  0  0  0
   -0.8973    0.8074   -0.1053 C   0  0  0  0  0  0  0  0  0  0  0  0
    0.6281    0.9313   -0.3424 C   0  0  0  0  0  0  0  0  0  0  0  0
    1.4170   -0.3264   -0.2268 N   0  0  0  0  0  0  0  0  0  0  0  0
    2.4035   -0.2047    0.8660 C   0  0  0  0  0  0  0  0  0  0  0  0
    3.3606   -1.3449    0.9048 C   0  0  0  0  0  0  0  0  0  0  0  0
    3.4404   -2.2890    1.8228 N   0  0  0  0  0  0  0  0  0  0  0  0
    4.4728   -3.1101    1.4428 N   0  0  0  0  0  0  0  0  0  0  0  0
    5.0235   -2.6897    0.3136 N   0  0  0  0  0  0  0  0  0  0  0  0
    4.3285   -1.5920   -0.0300 N   0  0  0  0  0  0  0  0  0  0  0  0
    4.6574   -0.8702   -1.2382 C   0  0  0  0  0  0  0  0  0  0  0  0
    5.7320    0.1906   -0.9964 C   0  0  0  0  0  0  0  0  0  0  0  0
    5.9990    1.0761   -2.2267 C   0  0  0  0  0  0  0  0  0  0  0  0
    6.9684    2.2012   -1.8570 C   0  0  0  0  0  0  0  0  0  0  0  0
    6.5571    0.2796   -3.4069 C   0  0  0  0  0  0  0  0  0  0  0  0
    0.5029   -1.4753   -0.0089 C   0  0  0  0  0  0  0  0  0  0  0  0
   -0.5348   -1.3040    1.1314 C   0  0  0  0  0  0  0  0  0  0  0  0
   -3.4310    0.2502    0.5660 N   0  0  0  0  0  0  0  0  0  0  0  0
   -4.7398    0.2273    0.8788 C   0  0  0  0  0  0  0  0  0  0  0  0
   -5.6872    0.4446   -0.1120 C   0  0  0  0  0  0  0  0  0  0  0  0
   -9.6024   -0.3259   -0.3696 H   0  0  0  0  0  0  0  0  0  0  0  0
   -9.5616    1.4470   -0.0234 H   0  0  0  0  0  0  0  0  0  0  0  0
   -9.7489    0.8540   -1.6782 H   0  0  0  0  0  0  0  0  0  0  0  0
   -8.5540    0.1720    1.7103 H   0  0  0  0  0  0  0  0  0  0  0  0
   -6.9233   -0.2136    3.4807 H   0  0  0  0  0  0  0  0  0  0  0  0
   -4.5358   -0.3961    4.2092 H   0  0  0  0  0  0  0  0  0  0  0  0
   -1.3638    0.3137   -0.9688 H   0  0  0  0  0  0  0  0  0  0  0  0
   -1.3145    1.8199   -0.0291 H   0  0  0  0  0  0  0  0  0  0  0  0
    0.7873    1.3302   -1.3514 H   0  0  0  0  0  0  0  0  0  0  0  0
    1.0118    1.6975    0.3447 H   0  0  0  0  0  0  0  0  0  0  0  0
    1.9122   -0.1024    1.8415 H   0  0  0  0  0  0  0  0  0  0  0  0
    2.9951    0.7090    0.7212 H   0  0  0  0  0  0  0  0  0  0  0  0
    3.7422   -0.4153   -1.6266 H   0  0  0  0  0  0  0  0  0  0  0  0
    4.9899   -1.6115   -1.9732 H   0  0  0  0  0  0  0  0  0  0  0  0
    5.4209    0.8303   -0.1601 H   0  0  0  0  0  0  0  0  0  0  0  0
    6.6629   -0.2959   -0.6769 H   0  0  0  0  0  0  0  0  0  0  0  0
    5.0535    1.5373   -2.5398 H   0  0  0  0  0  0  0  0  0  0  0  0
    7.9370    1.8022   -1.5369 H   0  0  0  0  0  0  0  0  0  0  0  0
    7.1406    2.8637   -2.7118 H   0  0  0  0  0  0  0  0  0  0  0  0
    6.5654    2.8101   -1.0407 H   0  0  0  0  0  0  0  0  0  0  0  0
    7.4675   -0.2605   -3.1263 H   0  0  0  0  0  0  0  0  0  0  0  0
    6.8028    0.9439   -4.2424 H   0  0  0  0  0  0  0  0  0  0  0  0
    5.8288   -0.4485   -3.7761 H   0  0  0  0  0  0  0  0  0  0  0  0
    1.0607   -2.4069    0.1438 H   0  0  0  0  0  0  0  0  0  0  0  0
   -0.0410   -1.6383   -0.9497 H   0  0  0  0  0  0  0  0  0  0  0  0
   -0.0367   -1.4708    2.0928 H   0  0  0  0  0  0  0  0  0  0  0  0
   -1.2970   -2.0856    1.0122 H   0  0  0  0  0  0  0  0  0  0  0  0
   -5.3466    0.6310   -1.1282 H   0  0  0  0  0  0  0  0  0  0  0  0
  1  2  1  0
  2  3  1  0
  3  4  2  0
  4  5  1  0
  5  6  2  0
  6  7  1  0
  7  8  2  0
  8  9  1  0
  9 10  3  0
  8 11  1  0
 11 12  1  0
 12 13  1  0
 13 14  1  0
 14 15  1  0
 15 16  1  0
 16 17  1  0
 17 18  2  0
 18 19  1  0
 19 20  2  0
 20 21  1  0
 21 22  1  0
 22 23  1  0
 23 24  1  0
 24 25  1  0
 24 26  1  0
 15 27  1  0
 27 28  1  0
 11 29  2  0
 29 30  1  0
 30 31  2  0
 31  3  1  0
 30  6  1  0
 28 12  1  0
 21 17  1  0
  1 32  1  0
  1 33  1  0
  1 34  1  0
  4 35  1  0
  5 36  1  0
  7 37  1  0
 13 38  1  0
 13 39  1  0
 14 40  1  0
 14 41  1  0
 16 42  1  0
 16 43  1  0
 22 44  1  0
 22 45  1  0
 23 46  1  0
 23 47  1  0
 24 48  1  0
 25 49  1  0
 25 50  1  0
 25 51  1  0
 26 52  1  0
 26 53  1  0
 26 54  1  0
 27 55  1  0
 27 56  1  0
 28 57  1  0
 28 58  1  0
 31 59  1  0
M  END
$$$$
