
     RDKit          3D

 53 56  0  0  0  0  0  0  0  0999 V2000
   -8.0440    0.7946    0.0526 C   0  0  0  0  0  0  0  0  0  0  0  0
   -6.5633    0.6608    0.2524 C   0  0  0  0  0  0  0  0  0  0  0  0
   -5.8602   -0.4137   -0.2971 C   0  0  0  0  0  0  0  0  0  0  0  0
   -4.4764   -0.5159   -0.1233 C   0  0  0  0  0  0  0  0  0  0  0  0
   -3.7661    0.4657    0.5788 C   0  0  0  0  0  0  0  0  0  0  0  0
   -2.3773    0.2609    0.7423 N   0  0  0  0  0  0  0  0  0  0  0  0
   -1.3477    1.1484    1.0390 C   0  0  0  0  0  0  0  0  0  0  0  0
   -1.4071    2.7919    0.6711 S   0  0  0  0  0  0  0  0  0  0  0  0
   -0.2209    0.5095    1.6205 N   0  0  0  0  0  0  0  0  0  0  0  0
   -0.2747   -0.8881    2.0937 C   0  0  0  0  0  0  0  0  0  0  0  0
   -0.0473   -1.8846    0.9865 C   0  0  0  0  0  0  0  0  0  0  0  0
    0.3495   -1.7069   -0.3270 C   0  0  0  0  0  0  0  0  0  0  0  0
    0.4298   -2.9318   -1.0491 C   0  0  0  0  0  0  0  0  0  0  0  0
    0.0826   -4.0118   -0.2703 C   0  0  0  0  0  0  0  0  0  0  0  0
   -0.3247   -3.5490    1.3220 S   0  0  0  0  0  0  0  0  0  0  0  0
    1.0056    1.2440    2.0101 C   0  0  0  0  0  0  0  0  0  0  0  0
    2.1320    0.9506    1.0620 C   0  0  0  0  0  0  0  0  0  0  0  0
    2.3086    1.6032   -0.1004 C   0  0  0  0  0  0  0  0  0  0  0  0
    3.4212    1.2780   -0.9918 C   0  0  0  0  0  0  0  0  0  0  0  0
    3.5780    1.9386   -2.2120 C   0  0  0  0  0  0  0  0  0  0  0  0
    4.6419    1.6093   -3.0499 C   0  0  0  0  0  0  0  0  0  0  0  0
    5.5520    0.6205   -2.6716 C   0  0  0  0  0  0  0  0  0  0  0  0
    5.4137   -0.0554   -1.4491 C   0  0  0  0  0  0  0  0  0  0  0  0
    6.4134   -1.1129   -1.0749 C   0  0  0  0  0  0  0  0  0  0  0  0
    4.3363    0.2841   -0.6139 C   0  0  0  0  0  0  0  0  0  0  0  0
    4.1491   -0.3561    0.6200 N   0  0  0  0  0  0  0  0  0  0  0  0
    3.1251   -0.0795    1.4843 C   0  0  0  0  0  0  0  0  0  0  0  0
    3.0369   -0.6596    2.5629 O   0  0  0  0  0  0  0  0  0  0  0  0
   -4.4711    1.5308    1.1371 C   0  0  0  0  0  0  0  0  0  0  0  0
   -5.8561    1.6356    0.9633 C   0  0  0  0  0  0  0  0  0  0  0  0
   -8.5011   -0.1738   -0.1761 H   0  0  0  0  0  0  0  0  0  0  0  0
   -8.2511    1.4832   -0.7727 H   0  0  0  0  0  0  0  0  0  0  0  0
   -8.5222    1.1725    0.9627 H   0  0  0  0  0  0  0  0  0  0  0  0
   -6.3826   -1.1822   -0.8624 H   0  0  0  0  0  0  0  0  0  0  0  0
   -3.9620   -1.3693   -0.5581 H   0  0  0  0  0  0  0  0  0  0  0  0
   -2.0573   -0.6357    0.3999 H   0  0  0  0  0  0  0  0  0  0  0  0
    0.4631   -1.0407    2.8886 H   0  0  0  0  0  0  0  0  0  0  0  0
   -1.2569   -1.0562    2.5516 H   0  0  0  0  0  0  0  0  0  0  0  0
    0.5747   -0.7401   -0.7626 H   0  0  0  0  0  0  0  0  0  0  0  0
    0.7261   -3.0142   -2.0878 H   0  0  0  0  0  0  0  0  0  0  0  0
    0.0545   -5.0537   -0.5574 H   0  0  0  0  0  0  0  0  0  0  0  0
    1.2535    0.9865    3.0466 H   0  0  0  0  0  0  0  0  0  0  0  0
    0.8345    2.3236    2.0397 H   0  0  0  0  0  0  0  0  0  0  0  0
    1.6156    2.3757   -0.4172 H   0  0  0  0  0  0  0  0  0  0  0  0
    2.8773    2.7111   -2.5191 H   0  0  0  0  0  0  0  0  0  0  0  0
    4.7640    2.1235   -4.0002 H   0  0  0  0  0  0  0  0  0  0  0  0
    6.3750    0.3815   -3.3423 H   0  0  0  0  0  0  0  0  0  0  0  0
    7.1824   -1.2324   -1.8455 H   0  0  0  0  0  0  0  0  0  0  0  0
    5.9146   -2.0799   -0.9536 H   0  0  0  0  0  0  0  0  0  0  0  0
    6.9214   -0.8422   -0.1431 H   0  0  0  0  0  0  0  0  0  0  0  0
    4.7949   -1.0670    0.9312 H   0  0  0  0  0  0  0  0  0  0  0  0
   -3.9779    2.2847    1.7418 H   0  0  0  0  0  0  0  0  0  0  0  0
   -6.3792    2.4836    1.3987 H   0  0  0  0  0  0  0  0  0  0  0  0
  1  2  1  0
  2  3  2  0
  3  4  1  0
  4  5  2  0
  5  6  1  0
  6  7  1  0
  7  8  2  0
  7  9  1  0
  9 10  1  0
 10 11  1  0
 11 12  2  0
 12 13  1  0
 13 14  2  0
 14 15  1  0
  9 16  1  0
 16 17  1  0
 17 18  2  0
 18 19  1  0
 19 20  2  0
 20 21  1  0
 21 22  2  0
 22 23  1  0
 23 24  1  0
 23 25  2  0
 25 26  1  0
 26 27  1  0
 27 28  2  0
  5 29  1  0
 29 30  2  0
 30  2  1  0
 15 11  1  0
 27 17  1  0
 25 19  1  0
  1 31  1  0
  1 32  1  0
  1 33  1  0
  3 34  1  0
  4 35  1  0
  6 36  1  0
 10 37  1  0
 10 38  1  0
 12 39  1  0
 13 40  1  0
 14 41  1  0
 16 42  1  0
 16 43  1  0
 18 44  1  0
 20 45  1  0
 21 46  1  0
 22 47  1  0
 24 48  1  0
 24 49  1  0
 24 50  1  0
 26 51  1  0
 29 52  1  0
 30 53  1  0
M  END
$$$$
