
     RDKit          3D

 71 75  0  0  0  0  0  0  0  0999 V2000
    1.3035   -0.4606    5.7238 C   0  0  0  0  0  0  0  0  0  0  0  0
    0.6080    0.7794    5.1782 C   0  0  0  0  0  0  0  0  0  0  0  0
    0.5406    0.7431    3.7055 N   0  0  0  0  0  0  0  0  0  0  0  0
    1.5425    1.3286    2.9413 C   0  0  0  0  0  0  0  0  0  0  0  0
    1.6293    1.3503    1.6032 C   0  0  0  0  0  0  0  0  0  0  0  0
    2.7959    2.0334    0.9738 C   0  0  0  0  0  0  0  0  0  0  0  0
    3.6646    2.5812    1.6476 O   0  0  0  0  0  0  0  0  0  0  0  0
    2.8242    1.9943   -0.3980 N   0  0  0  0  0  0  0  0  0  0  0  0
    3.9307    2.5058   -1.1753 C   0  0  0  0  0  0  0  0  0  0  0  0
    5.1129    1.5372   -1.2419 C   0  0  0  0  0  0  0  0  0  0  0  0
    4.7676    0.2561   -2.0112 C   0  0  0  0  0  0  0  0  0  0  0  0
    5.8948   -0.6787   -2.0612 N   0  0  0  0  0  0  0  0  0  0  0  0
    7.0015   -0.2321   -2.9086 C   0  0  0  0  0  0  0  0  0  0  0  0
    7.8392   -1.4918   -3.0404 C   0  0  0  0  0  0  0  0  0  0  0  0
    6.8359   -2.6375   -2.9575 C   0  0  0  0  0  0  0  0  0  0  0  0
    5.5068   -1.9829   -2.6051 C   0  0  0  0  0  0  0  0  0  0  0  0
    0.5466    0.6685    0.8570 C   0  0  0  0  0  0  0  0  0  0  0  0
    0.5308    0.6412   -0.3723 O   0  0  0  0  0  0  0  0  0  0  0  0
   -0.5281    0.0049    1.6379 C   0  0  0  0  0  0  0  0  0  0  0  0
   -1.5460   -0.6569    0.9361 C   0  0  0  0  0  0  0  0  0  0  0  0
   -2.5622   -1.2911    1.6461 C   0  0  0  0  0  0  0  0  0  0  0  0
   -3.8495   -2.1191    0.7473 S   0  0  0  0  0  6  0  0  0  0  0  0
   -3.2067   -2.9239   -0.2685 O   0  0  0  0  0  0  0  0  0  0  0  0
   -4.7694   -2.7062    1.6999 O   0  0  0  0  0  0  0  0  0  0  0  0
   -4.6492   -0.8192   -0.0072 N   0  0  0  0  0  0  0  0  0  0  0  0
   -5.4064    0.0822    0.9032 C   0  0  0  0  0  0  0  0  0  0  0  0
   -5.7499    1.3758    0.1631 C   0  0  0  0  0  0  0  0  0  0  0  0
   -6.4368    1.1115   -1.1533 C   0  0  0  0  0  0  0  0  0  0  0  0
   -7.1795    2.1270   -1.7711 C   0  0  0  0  0  0  0  0  0  0  0  0
   -7.7846    1.9044   -3.0068 C   0  0  0  0  0  0  0  0  0  0  0  0
   -7.6453    0.6707   -3.6392 C   0  0  0  0  0  0  0  0  0  0  0  0
   -6.8949   -0.3427   -3.0379 C   0  0  0  0  0  0  0  0  0  0  0  0
   -6.2799   -0.1315   -1.7957 C   0  0  0  0  0  0  0  0  0  0  0  0
   -5.4994   -1.2585   -1.1478 C   0  0  0  0  0  0  0  0  0  0  0  0
   -2.5595   -1.2853    3.0389 C   0  0  0  0  0  0  0  0  0  0  0  0
   -1.5394   -0.6172    3.7296 C   0  0  0  0  0  0  0  0  0  0  0  0
   -0.5012    0.0481    3.0517 C   0  0  0  0  0  0  0  0  0  0  0  0
    0.7547   -1.3760    5.4756 H   0  0  0  0  0  0  0  0  0  0  0  0
    2.3164   -0.5570    5.3129 H   0  0  0  0  0  0  0  0  0  0  0  0
    1.3843   -0.3977    6.8136 H   0  0  0  0  0  0  0  0  0  0  0  0
   -0.3820    0.9067    5.6311 H   0  0  0  0  0  0  0  0  0  0  0  0
    1.1742    1.6636    5.4998 H   0  0  0  0  0  0  0  0  0  0  0  0
    2.3169    1.8060    3.5407 H   0  0  0  0  0  0  0  0  0  0  0  0
    2.0751    1.4937   -0.8787 H   0  0  0  0  0  0  0  0  0  0  0  0
    3.5531    2.7230   -2.1809 H   0  0  0  0  0  0  0  0  0  0  0  0
    4.2590    3.4510   -0.7274 H   0  0  0  0  0  0  0  0  0  0  0  0
    5.4445    1.2820   -0.2284 H   0  0  0  0  0  0  0  0  0  0  0  0
    5.9435    2.0570   -1.7331 H   0  0  0  0  0  0  0  0  0  0  0  0
    4.4218    0.5084   -3.0212 H   0  0  0  0  0  0  0  0  0  0  0  0
    3.9310   -0.2377   -1.5014 H   0  0  0  0  0  0  0  0  0  0  0  0
    7.5820    0.5767   -2.4560 H   0  0  0  0  0  0  0  0  0  0  0  0
    6.6503    0.0924   -3.8958 H   0  0  0  0  0  0  0  0  0  0  0  0
    8.4092   -1.5107   -3.9759 H   0  0  0  0  0  0  0  0  0  0  0  0
    8.5508   -1.5662   -2.2085 H   0  0  0  0  0  0  0  0  0  0  0  0
    7.1449   -3.3516   -2.1840 H   0  0  0  0  0  0  0  0  0  0  0  0
    6.7730   -3.1806   -3.9069 H   0  0  0  0  0  0  0  0  0  0  0  0
    4.8905   -1.8819   -3.5085 H   0  0  0  0  0  0  0  0  0  0  0  0
    4.9542   -2.5807   -1.8703 H   0  0  0  0  0  0  0  0  0  0  0  0
   -1.5432   -0.6764   -0.1526 H   0  0  0  0  0  0  0  0  0  0  0  0
   -4.8067    0.3396    1.7819 H   0  0  0  0  0  0  0  0  0  0  0  0
   -6.3195   -0.4196    1.2486 H   0  0  0  0  0  0  0  0  0  0  0  0
   -4.8313    1.9414   -0.0403 H   0  0  0  0  0  0  0  0  0  0  0  0
   -6.3902    1.9925    0.8056 H   0  0  0  0  0  0  0  0  0  0  0  0
   -7.2860    3.0991   -1.2932 H   0  0  0  0  0  0  0  0  0  0  0  0
   -8.3581    2.6957   -3.4811 H   0  0  0  0  0  0  0  0  0  0  0  0
   -8.1142    0.5009   -4.6039 H   0  0  0  0  0  0  0  0  0  0  0  0
   -6.7927   -1.3000   -3.5467 H   0  0  0  0  0  0  0  0  0  0  0  0
   -4.8486   -1.7011   -1.9122 H   0  0  0  0  0  0  0  0  0  0  0  0
   -6.2183   -2.0119   -0.8030 H   0  0  0  0  0  0  0  0  0  0  0  0
   -3.3427   -1.7926    3.6004 H   0  0  0  0  0  0  0  0  0  0  0  0
   -1.5836   -0.6444    4.8146 H   0  0  0  0  0  0  0  0  0  0  0  0
  1  2  1  0
  2  3  1  0
  3  4  1  0
  4  5  2  0
  5  6  1  0
  6  7  2  0
  6  8  1  0
  8  9  1  0
  9 10  1  0
 10 11  1  0
 11 12  1  0
 12 13  1  0
 13 14  1  0
 14 15  1  0
 15 16  1  0
  5 17  1  0
 17 18  2  0
 17 19  1  0
 19 20  2  0
 20 21  1  0
 21 22  1  0
 22 23  2  0
 22 24  2  0
 22 25  1  0
 25 26  1  0
 26 27  1  0
 27 28  1  0
 28 29  2  0
 29 30  1  0
 30 31  2  0
 31 32  1  0
 32 33  2  0
 33 34  1  0
 21 35  2  0
 35 36  1  0
 36 37  2  0
 37  3  1  0
 16 12  1  0
 37 19  1  0
 34 25  1  0
 33 28  1  0
  1 38  1  0
  1 39  1  0
  1 40  1  0
  2 41  1  0
  2 42  1  0
  4 43  1  0
  8 44  1  0
  9 45  1  0
  9 46  1  0
 10 47  1  0
 10 48  1  0
 11 49  1  0
 11 50  1  0
 13 51  1  0
 13 52  1  0
 14 53  1  0
 14 54  1  0
 15 55  1  0
 15 56  1  0
 16 57  1  0
 16 58  1  0
 20 59  1  0
 26 60  1  0
 26 61  1  0
 27 62  1  0
 27 63  1  0
 29 64  1  0
 30 65  1  0
 31 66  1  0
 32 67  1  0
 34 68  1  0
 34 69  1  0
 35 70  1  0
 36 71  1  0
M  END
$$$$
