
     RDKit          3D

 47 48  0  0  0  0  0  0  0  0999 V2000
   -2.4007    1.2756   -3.3798 C   0  0  0  0  0  0  0  0  0  0  0  0
   -3.3235    0.2066   -2.2484 S   0  0  0  0  0  0  0  0  0  0  0  0
   -3.1092    1.1354   -0.6918 C   0  0  0  0  0  0  0  0  0  0  0  0
   -1.6731    1.2761   -0.1714 C   0  0  0  0  0  0  0  0  0  0  0  0
   -0.9596   -0.0048    0.2883 C   0  0  0  0  0  0  0  0  0  0  0  0
   -0.6944   -0.8881   -0.8651 N   0  0  0  0  0  0  0  0  0  0  0  0
    0.5444   -2.0121   -0.7057 S   0  0  0  0  0  6  0  0  0  0  0  0
    0.2263   -3.1297   -1.5641 O   0  0  0  0  0  0  0  0  0  0  0  0
    0.8509   -2.1727    0.6988 O   0  0  0  0  0  0  0  0  0  0  0  0
    1.8844   -1.1307   -1.4710 C   0  0  0  0  0  0  0  0  0  0  0  0
    2.9460   -0.6578   -0.6971 C   0  0  0  0  0  0  0  0  0  0  0  0
    3.9917    0.0302   -1.3153 C   0  0  0  0  0  0  0  0  0  0  0  0
    3.9776    0.2517   -2.6998 C   0  0  0  0  0  0  0  0  0  0  0  0
    5.1232    0.9574   -3.3652 C   0  0  0  0  0  0  0  0  0  0  0  0
    2.9157   -0.2492   -3.4659 C   0  0  0  0  0  0  0  0  0  0  0  0
    1.8673   -0.9381   -2.8548 C   0  0  0  0  0  0  0  0  0  0  0  0
   -1.7825   -0.7617    1.3446 C   0  0  0  0  0  0  0  0  0  0  0  0
   -2.6058   -1.6154    1.0025 O   0  0  0  0  0  0  0  0  0  0  0  0
   -1.6078   -0.4150    2.6667 N   0  0  0  0  0  0  0  0  0  0  0  0
   -2.3204   -1.1216    3.7190 C   0  0  0  0  0  0  0  0  0  0  0  0
   -1.5385   -0.8142    4.9888 C   0  0  0  0  0  0  0  0  0  0  0  0
   -0.9340    0.5529    4.6976 C   0  0  0  0  0  0  0  0  0  0  0  0
   -0.5840    0.4559    3.2205 C   0  0  0  0  0  0  0  0  0  0  0  0
   -1.3296    1.2283   -3.1700 H   0  0  0  0  0  0  0  0  0  0  0  0
   -2.5615    0.9306   -4.4048 H   0  0  0  0  0  0  0  0  0  0  0  0
   -2.7499    2.3086   -3.3044 H   0  0  0  0  0  0  0  0  0  0  0  0
   -3.5291    2.1352   -0.8508 H   0  0  0  0  0  0  0  0  0  0  0  0
   -3.7414    0.6609    0.0652 H   0  0  0  0  0  0  0  0  0  0  0  0
   -1.7194    1.9600    0.6863 H   0  0  0  0  0  0  0  0  0  0  0  0
   -1.0552    1.7865   -0.9200 H   0  0  0  0  0  0  0  0  0  0  0  0
    0.0058    0.2993    0.7064 H   0  0  0  0  0  0  0  0  0  0  0  0
   -1.5397   -1.3240   -1.2562 H   0  0  0  0  0  0  0  0  0  0  0  0
    2.9729   -0.8268    0.3766 H   0  0  0  0  0  0  0  0  0  0  0  0
    4.8233    0.3882   -0.7116 H   0  0  0  0  0  0  0  0  0  0  0  0
    5.8905    0.2333   -3.6556 H   0  0  0  0  0  0  0  0  0  0  0  0
    5.5699    1.6969   -2.6923 H   0  0  0  0  0  0  0  0  0  0  0  0
    4.7855    1.4936   -4.2583 H   0  0  0  0  0  0  0  0  0  0  0  0
    2.9030   -0.1102   -4.5450 H   0  0  0  0  0  0  0  0  0  0  0  0
    1.0476   -1.3259   -3.4557 H   0  0  0  0  0  0  0  0  0  0  0  0
   -3.3352   -0.7116    3.7651 H   0  0  0  0  0  0  0  0  0  0  0  0
   -2.3785   -2.1946    3.5123 H   0  0  0  0  0  0  0  0  0  0  0  0
   -2.1665   -0.8243    5.8837 H   0  0  0  0  0  0  0  0  0  0  0  0
   -0.7375   -1.5512    5.1228 H   0  0  0  0  0  0  0  0  0  0  0  0
   -0.0666    0.7804    5.3230 H   0  0  0  0  0  0  0  0  0  0  0  0
   -1.6885    1.3329    4.8559 H   0  0  0  0  0  0  0  0  0  0  0  0
    0.3885   -0.0263    3.0718 H   0  0  0  0  0  0  0  0  0  0  0  0
   -0.5825    1.4295    2.7246 H   0  0  0  0  0  0  0  0  0  0  0  0
  1  2  1  0
  2  3  1  0
  3  4  1  0
  4  5  1  0
  5  6  1  0
  6  7  1  0
  7  8  2  0
  7  9  2  0
  7 10  1  0
 10 11  2  0
 11 12  1  0
 12 13  2  0
 13 14  1  0
 13 15  1  0
 15 16  2  0
  5 17  1  0
 17 18  2  0
 17 19  1  0
 19 20  1  0
 20 21  1  0
 21 22  1  0
 22 23  1  0
 16 10  1  0
 23 19  1  0
  1 24  1  0
  1 25  1  0
  1 26  1  0
  3 27  1  0
  3 28  1  0
  4 29  1  0
  4 30  1  0
  5 31  1  0
  6 32  1  0
 11 33  1  0
 12 34  1  0
 14 35  1  0
 14 36  1  0
 14 37  1  0
 15 38  1  0
 16 39  1  0
 20 40  1  0
 20 41  1  0
 21 42  1  0
 21 43  1  0
 22 44  1  0
 22 45  1  0
 23 46  1  0
 23 47  1  0
M  END
$$$$
