
     RDKit          3D

 34 35  0  0  0  0  0  0  0  0999 V2000
   -3.8276   -1.4326    1.3576 C   0  0  0  0  0  0  0  0  0  0  0  0
   -2.7419   -1.0826    0.5050 O   0  0  0  0  0  0  0  0  0  0  0  0
   -3.0557   -0.6978   -0.7749 C   0  0  0  0  0  0  0  0  0  0  0  0
   -4.3388   -0.3281   -1.2030 C   0  0  0  0  0  0  0  0  0  0  0  0
   -4.5652    0.0448   -2.5289 C   0  0  0  0  0  0  0  0  0  0  0  0
   -3.5185    0.0359   -3.4498 C   0  0  0  0  0  0  0  0  0  0  0  0
   -3.8141    0.4876   -5.0838 Cl  0  0  0  0  0  0  0  0  0  0  0  0
   -2.2364   -0.3246   -3.0502 C   0  0  0  0  0  0  0  0  0  0  0  0
   -2.0051   -0.6702   -1.7088 C   0  0  0  0  0  0  0  0  0  0  0  0
   -0.6190   -1.0101   -1.3354 C   0  0  0  0  0  0  0  0  0  0  0  0
    0.0318   -1.8546   -1.9228 O   0  0  0  0  0  0  0  0  0  0  0  0
   -0.2278   -0.1353   -0.3688 O   0  0  0  0  0  0  0  0  0  0  0  0
    1.1636   -0.2330   -0.1636 N   0  0  0  0  0  0  0  0  0  0  0  0
    1.5530    0.5855    0.7683 C   0  0  0  0  0  0  0  0  0  0  0  0
    0.6837    1.3997    1.4678 N   0  0  0  0  0  0  0  0  0  0  0  0
    3.0177    0.6318    1.1007 C   0  0  0  0  0  0  0  0  0  0  0  0
    3.8543   -0.4194    0.7060 C   0  0  0  0  0  0  0  0  0  0  0  0
    5.2196   -0.3839    1.0113 C   0  0  0  0  0  0  0  0  0  0  0  0
    5.7517    0.7051    1.7040 C   0  0  0  0  0  0  0  0  0  0  0  0
    7.4316    0.7501    2.0772 Cl  0  0  0  0  0  0  0  0  0  0  0  0
    4.9288    1.7618    2.0917 C   0  0  0  0  0  0  0  0  0  0  0  0
    3.5603    1.7281    1.7962 C   0  0  0  0  0  0  0  0  0  0  0  0
   -4.4917   -2.1601    0.8745 H   0  0  0  0  0  0  0  0  0  0  0  0
   -3.4061   -1.8943    2.2622 H   0  0  0  0  0  0  0  0  0  0  0  0
   -4.3779   -0.5383    1.6672 H   0  0  0  0  0  0  0  0  0  0  0  0
   -5.1870   -0.3133   -0.5246 H   0  0  0  0  0  0  0  0  0  0  0  0
   -5.5663    0.3383   -2.8387 H   0  0  0  0  0  0  0  0  0  0  0  0
   -1.4137   -0.3296   -3.7653 H   0  0  0  0  0  0  0  0  0  0  0  0
   -0.2844    1.1172    1.3242 H   0  0  0  0  0  0  0  0  0  0  0  0
    0.8981    1.5035    2.4551 H   0  0  0  0  0  0  0  0  0  0  0  0
    3.4455   -1.2672    0.1548 H   0  0  0  0  0  0  0  0  0  0  0  0
    5.8565   -1.2034    0.6883 H   0  0  0  0  0  0  0  0  0  0  0  0
    5.3461    2.6172    2.6218 H   0  0  0  0  0  0  0  0  0  0  0  0
    2.9349    2.5718    2.0849 H   0  0  0  0  0  0  0  0  0  0  0  0
  1  2  1  0
  2  3  1  0
  3  4  2  0
  4  5  1  0
  5  6  2  0
  6  7  1  0
  6  8  1  0
  8  9  2  0
  9 10  1  0
 10 11  2  0
 10 12  1  0
 12 13  1  0
 13 14  2  3
 14 15  1  0
 14 16  1  0
 16 17  2  0
 17 18  1  0
 18 19  2  0
 19 20  1  0
 19 21  1  0
 21 22  2  0
  9  3  1  0
 22 16  1  0
  1 23  1  0
  1 24  1  0
  1 25  1  0
  4 26  1  0
  5 27  1  0
  8 28  1  0
 15 29  1  0
 15 30  1  0
 17 31  1  0
 18 32  1  0
 21 33  1  0
 22 34  1  0
M  END
$$$$
