
     RDKit          3D

 34 36  0  0  0  0  0  0  0  0999 V2000
    1.6888    1.8464   -2.9768 S   0  0  0  0  0  0  0  0  0  0  0  0
    1.9936    1.1049   -1.5010 C   0  0  0  0  0  0  0  0  0  0  0  0
    1.0364    0.6397   -0.6472 N   0  0  0  0  0  0  0  0  0  0  0  0
    0.6679   -0.5985   -0.7129 C   0  0  0  0  0  0  0  0  0  0  0  0
    1.3366   -1.8382   -1.8312 S   0  0  0  0  0  0  0  0  0  0  0  0
    0.2645   -3.0553   -1.1898 C   0  0  0  0  0  0  0  0  0  0  0  0
   -0.5066   -2.5527   -0.2187 C   0  0  0  0  0  0  0  0  0  0  0  0
   -0.3014   -1.2124    0.0738 N   0  0  0  0  0  0  0  0  0  0  0  0
   -1.0899   -0.4580    1.0374 C   0  0  0  0  0  0  0  0  0  0  0  0
   -2.4436   -0.0881    0.4729 C   0  0  0  0  0  0  0  0  0  0  0  0
   -2.5616    0.9467   -0.4675 C   0  0  0  0  0  0  0  0  0  0  0  0
   -3.8071    1.2835   -0.9991 C   0  0  0  0  0  0  0  0  0  0  0  0
   -4.9474    0.5906   -0.5981 C   0  0  0  0  0  0  0  0  0  0  0  0
   -4.8439   -0.4411    0.3330 C   0  0  0  0  0  0  0  0  0  0  0  0
   -3.5988   -0.7810    0.8654 C   0  0  0  0  0  0  0  0  0  0  0  0
    3.2979    1.0439   -1.0706 N   0  0  0  0  0  0  0  0  0  0  0  0
    3.7363    0.5373    0.1881 C   0  0  0  0  0  0  0  0  0  0  0  0
    3.5825    1.3470    1.4455 C   0  0  0  0  0  0  0  0  0  0  0  0
    4.9462    1.1256    0.8621 C   0  0  0  0  0  0  0  0  0  0  0  0
    0.2401   -4.0710   -1.5578 H   0  0  0  0  0  0  0  0  0  0  0  0
   -1.2654   -3.0952    0.3303 H   0  0  0  0  0  0  0  0  0  0  0  0
   -1.2171   -1.0528    1.9514 H   0  0  0  0  0  0  0  0  0  0  0  0
   -0.5724    0.4540    1.3613 H   0  0  0  0  0  0  0  0  0  0  0  0
   -1.6796    1.4946   -0.7959 H   0  0  0  0  0  0  0  0  0  0  0  0
   -3.8844    2.0851   -1.7293 H   0  0  0  0  0  0  0  0  0  0  0  0
   -5.9163    0.8535   -1.0145 H   0  0  0  0  0  0  0  0  0  0  0  0
   -5.7342   -0.9823    0.6425 H   0  0  0  0  0  0  0  0  0  0  0  0
   -3.5379   -1.5915    1.5878 H   0  0  0  0  0  0  0  0  0  0  0  0
    3.9811    1.4293   -1.7116 H   0  0  0  0  0  0  0  0  0  0  0  0
    3.6144   -0.5396    0.2765 H   0  0  0  0  0  0  0  0  0  0  0  0
    3.3207    0.8183    2.3542 H   0  0  0  0  0  0  0  0  0  0  0  0
    3.1448    2.3354    1.3657 H   0  0  0  0  0  0  0  0  0  0  0  0
    5.6160    0.4484    1.3793 H   0  0  0  0  0  0  0  0  0  0  0  0
    5.4398    1.9737    0.4026 H   0  0  0  0  0  0  0  0  0  0  0  0
  1  2  2  0
  2  3  1  0
  3  4  2  3
  4  5  1  0
  5  6  1  0
  6  7  2  0
  7  8  1  0
  8  9  1  0
  9 10  1  0
 10 11  2  0
 11 12  1  0
 12 13  2  0
 13 14  1  0
 14 15  2  0
  2 16  1  0
 16 17  1  0
 17 18  1  0
 18 19  1  0
  8  4  1  0
 15 10  1  0
 19 17  1  0
  6 20  1  0
  7 21  1  0
  9 22  1  0
  9 23  1  0
 11 24  1  0
 12 25  1  0
 13 26  1  0
 14 27  1  0
 15 28  1  0
 16 29  1  0
 17 30  1  0
 18 31  1  0
 18 32  1  0
 19 33  1  0
 19 34  1  0
M  END
$$$$
