
     RDKit          3D

 45 47  0  0  0  0  0  0  0  0999 V2000
    3.0219   -1.2862   -3.3212 C   0  0  0  0  0  0  0  0  0  0  0  0
    2.8618   -0.7922   -1.9973 O   0  0  0  0  0  0  0  0  0  0  0  0
    3.3435    0.4725   -1.7517 C   0  0  0  0  0  0  0  0  0  0  0  0
    4.3008    1.1193   -2.5391 C   0  0  0  0  0  0  0  0  0  0  0  0
    4.7436    2.3963   -2.1917 C   0  0  0  0  0  0  0  0  0  0  0  0
    4.2386    3.0247   -1.0564 C   0  0  0  0  0  0  0  0  0  0  0  0
    3.2885    2.3810   -0.2596 C   0  0  0  0  0  0  0  0  0  0  0  0
    2.8329    1.1055   -0.5983 C   0  0  0  0  0  0  0  0  0  0  0  0
    1.8715    0.3887    0.1508 N   0  0  0  0  0  0  0  0  0  0  0  0
    1.1783    0.8003    1.2742 C   0  0  0  0  0  0  0  0  0  0  0  0
    1.2758    1.9019    1.8106 O   0  0  0  0  0  0  0  0  0  0  0  0
    0.2501   -0.2901    1.8383 C   0  0  0  0  0  0  0  0  0  0  0  0
   -0.0907   -0.0379    3.3105 C   0  0  0  0  0  0  0  0  0  0  0  0
   -1.2957    0.8837    3.2418 C   0  0  0  0  0  0  0  0  0  0  0  0
   -2.0605    0.4129    2.0120 C   0  0  0  0  0  0  0  0  0  0  0  0
   -1.0999   -0.3923    1.2180 N   0  0  0  0  0  0  0  0  0  0  0  0
   -1.2071   -0.3422   -0.4590 S   0  0  0  0  0  6  0  0  0  0  0  0
   -0.2183   -1.2654   -0.9766 O   0  0  0  0  0  0  0  0  0  0  0  0
   -1.2391    1.0413   -0.8741 O   0  0  0  0  0  0  0  0  0  0  0  0
   -2.8084   -1.0529   -0.7536 C   0  0  0  0  0  0  0  0  0  0  0  0
   -2.9817   -2.4312   -0.5860 C   0  0  0  0  0  0  0  0  0  0  0  0
   -4.2345   -2.9998   -0.8235 C   0  0  0  0  0  0  0  0  0  0  0  0
   -5.2971   -2.1916   -1.2315 C   0  0  0  0  0  0  0  0  0  0  0  0
   -6.8403   -2.8949   -1.5206 Cl  0  0  0  0  0  0  0  0  0  0  0  0
   -5.1188   -0.8183   -1.4095 C   0  0  0  0  0  0  0  0  0  0  0  0
   -3.8682   -0.2432   -1.1737 C   0  0  0  0  0  0  0  0  0  0  0  0
    2.4280   -2.2010   -3.4097 H   0  0  0  0  0  0  0  0  0  0  0  0
    2.6488   -0.5735   -4.0649 H   0  0  0  0  0  0  0  0  0  0  0  0
    4.0668   -1.5485   -3.5145 H   0  0  0  0  0  0  0  0  0  0  0  0
    4.7277    0.6512   -3.4193 H   0  0  0  0  0  0  0  0  0  0  0  0
    5.4865    2.9000   -2.8049 H   0  0  0  0  0  0  0  0  0  0  0  0
    4.5829    4.0196   -0.7850 H   0  0  0  0  0  0  0  0  0  0  0  0
    2.9211    2.9046    0.6165 H   0  0  0  0  0  0  0  0  0  0  0  0
    1.6184   -0.5064   -0.2741 H   0  0  0  0  0  0  0  0  0  0  0  0
    0.7624   -1.2567    1.7600 H   0  0  0  0  0  0  0  0  0  0  0  0
   -0.3803   -0.9806    3.7918 H   0  0  0  0  0  0  0  0  0  0  0  0
    0.7318    0.3960    3.8872 H   0  0  0  0  0  0  0  0  0  0  0  0
   -1.9061    0.8422    4.1489 H   0  0  0  0  0  0  0  0  0  0  0  0
   -0.9790    1.9243    3.1091 H   0  0  0  0  0  0  0  0  0  0  0  0
   -2.4570    1.2686    1.4585 H   0  0  0  0  0  0  0  0  0  0  0  0
   -2.8957   -0.2326    2.3039 H   0  0  0  0  0  0  0  0  0  0  0  0
   -2.1501   -3.0595   -0.2738 H   0  0  0  0  0  0  0  0  0  0  0  0
   -4.3756   -4.0699   -0.6931 H   0  0  0  0  0  0  0  0  0  0  0  0
   -5.9471   -0.1938   -1.7350 H   0  0  0  0  0  0  0  0  0  0  0  0
   -3.7302    0.8261   -1.3214 H   0  0  0  0  0  0  0  0  0  0  0  0
  1  2  1  0
  2  3  1  0
  3  4  2  0
  4  5  1  0
  5  6  2  0
  6  7  1  0
  7  8  2  0
  8  9  1  0
  9 10  1  0
 10 11  2  0
 10 12  1  0
 12 13  1  0
 13 14  1  0
 14 15  1  0
 15 16  1  0
 16 17  1  0
 17 18  2  0
 17 19  2  0
 17 20  1  0
 20 21  2  0
 21 22  1  0
 22 23  2  0
 23 24  1  0
 23 25  1  0
 25 26  2  0
  8  3  1  0
 16 12  1  0
 26 20  1  0
  1 27  1  0
  1 28  1  0
  1 29  1  0
  4 30  1  0
  5 31  1  0
  6 32  1  0
  7 33  1  0
  9 34  1  0
 12 35  1  0
 13 36  1  0
 13 37  1  0
 14 38  1  0
 14 39  1  0
 15 40  1  0
 15 41  1  0
 21 42  1  0
 22 43  1  0
 25 44  1  0
 26 45  1  0
M  END
$$$$
