
     RDKit          3D

 55 58  0  0  0  0  0  0  0  0999 V2000
   -7.2156    1.5466   -1.8535 C   0  0  0  0  0  0  0  0  0  0  0  0
   -6.5753    0.3422   -1.4584 O   0  0  0  0  0  0  0  0  0  0  0  0
   -5.3187    0.4392   -0.9148 C   0  0  0  0  0  0  0  0  0  0  0  0
   -4.6056    1.6313   -0.7800 C   0  0  0  0  0  0  0  0  0  0  0  0
   -3.3244    1.6282   -0.2180 C   0  0  0  0  0  0  0  0  0  0  0  0
   -2.7157    0.4412    0.2201 C   0  0  0  0  0  0  0  0  0  0  0  0
   -1.3576    0.4633    0.8016 C   0  0  0  0  0  0  0  0  0  0  0  0
   -0.4500   -0.5670    0.6325 C   0  0  0  0  0  0  0  0  0  0  0  0
    0.8071   -0.4433    1.2223 C   0  0  0  0  0  0  0  0  0  0  0  0
    1.7501   -1.5546    0.9973 C   0  0  0  0  0  0  0  0  0  0  0  0
    1.5100   -2.6223    1.5528 O   0  0  0  0  0  0  0  0  0  0  0  0
    2.8400   -1.3444    0.1538 N   0  0  0  0  0  0  0  0  0  0  0  0
    3.8065   -2.4312    0.0051 C   0  0  0  0  0  0  0  0  0  0  0  0
    5.1887   -1.9038   -0.3548 C   0  0  0  0  0  0  0  0  0  0  0  0
    5.1792   -1.0708   -1.6387 C   0  0  0  0  0  0  0  0  0  0  0  0
    3.8062   -0.4543   -1.9511 C   0  0  0  0  0  0  0  0  0  0  0  0
    3.9388    0.7972   -2.7941 C   0  0  0  0  0  0  0  0  0  0  0  0
    2.7248    1.2901   -3.1228 F   0  0  0  0  0  0  0  0  0  0  0  0
    4.5985    0.5394   -3.9439 F   0  0  0  0  0  0  0  0  0  0  0  0
    4.6121    1.7665   -2.1389 F   0  0  0  0  0  0  0  0  0  0  0  0
    3.0346   -0.1420   -0.6717 C   0  0  0  0  0  0  0  0  0  0  0  0
    1.1451    0.6738    2.0104 C   0  0  0  0  0  0  0  0  0  0  0  0
    2.3746    0.8397    2.6962 C   0  0  0  0  0  0  0  0  0  0  0  0
    2.6284    1.9882    3.4420 C   0  0  0  0  0  0  0  0  0  0  0  0
    1.6600    2.9790    3.5179 C   0  0  0  0  0  0  0  0  0  0  0  0
    0.4420    2.8099    2.8545 C   0  0  0  0  0  0  0  0  0  0  0  0
    0.1626    1.6735    2.1070 C   0  0  0  0  0  0  0  0  0  0  0  0
   -1.0381    1.5764    1.5089 N   0  0  0  0  0  0  0  0  0  0  0  0
   -3.4525   -0.7516    0.0895 C   0  0  0  0  0  0  0  0  0  0  0  0
   -4.7377   -0.7647   -0.4739 C   0  0  0  0  0  0  0  0  0  0  0  0
   -5.5040   -1.8942   -0.6305 O   0  0  0  0  0  0  0  0  0  0  0  0
   -4.9551   -3.1339   -0.2074 C   0  0  0  0  0  0  0  0  0  0  0  0
   -8.2063    1.2868   -2.2390 H   0  0  0  0  0  0  0  0  0  0  0  0
   -6.6648    2.0414   -2.6607 H   0  0  0  0  0  0  0  0  0  0  0  0
   -7.3566    2.2186   -0.9998 H   0  0  0  0  0  0  0  0  0  0  0  0
   -5.0131    2.5837   -1.1005 H   0  0  0  0  0  0  0  0  0  0  0  0
   -2.7926    2.5744   -0.1238 H   0  0  0  0  0  0  0  0  0  0  0  0
   -0.6894   -1.4470    0.0449 H   0  0  0  0  0  0  0  0  0  0  0  0
    3.4312   -3.0990   -0.7795 H   0  0  0  0  0  0  0  0  0  0  0  0
    3.8591   -3.0115    0.9330 H   0  0  0  0  0  0  0  0  0  0  0  0
    5.5520   -1.2750    0.4686 H   0  0  0  0  0  0  0  0  0  0  0  0
    5.8997   -2.7317   -0.4539 H   0  0  0  0  0  0  0  0  0  0  0  0
    5.4773   -1.7025   -2.4852 H   0  0  0  0  0  0  0  0  0  0  0  0
    5.9513   -0.2960   -1.5557 H   0  0  0  0  0  0  0  0  0  0  0  0
    3.2295   -1.1906   -2.5271 H   0  0  0  0  0  0  0  0  0  0  0  0
    2.0614    0.2959   -0.9148 H   0  0  0  0  0  0  0  0  0  0  0  0
    3.5830    0.5829   -0.0584 H   0  0  0  0  0  0  0  0  0  0  0  0
    3.1396    0.0662    2.6586 H   0  0  0  0  0  0  0  0  0  0  0  0
    3.5744    2.1044    3.9647 H   0  0  0  0  0  0  0  0  0  0  0  0
    1.8409    3.8802    4.0980 H   0  0  0  0  0  0  0  0  0  0  0  0
   -0.3164    3.5866    2.9293 H   0  0  0  0  0  0  0  0  0  0  0  0
   -3.0133   -1.6728    0.4571 H   0  0  0  0  0  0  0  0  0  0  0  0
   -4.0430   -3.3736   -0.7643 H   0  0  0  0  0  0  0  0  0  0  0  0
   -5.6895   -3.9155   -0.4229 H   0  0  0  0  0  0  0  0  0  0  0  0
   -4.7734   -3.1374    0.8723 H   0  0  0  0  0  0  0  0  0  0  0  0
  1  2  1  0
  2  3  1  0
  3  4  2  0
  4  5  1  0
  5  6  2  0
  6  7  1  0
  7  8  2  0
  8  9  1  0
  9 10  1  0
 10 11  2  0
 10 12  1  0
 12 13  1  0
 13 14  1  0
 14 15  1  0
 15 16  1  0
 16 17  1  0
 17 18  1  0
 17 19  1  0
 17 20  1  0
 16 21  1  0
  9 22  2  0
 22 23  1  0
 23 24  2  0
 24 25  1  0
 25 26  2  0
 26 27  1  0
 27 28  2  0
  6 29  1  0
 29 30  2  0
 30 31  1  0
 31 32  1  0
 30  3  1  0
 28  7  1  0
 21 12  1  0
 27 22  1  0
  1 33  1  0
  1 34  1  0
  1 35  1  0
  4 36  1  0
  5 37  1  0
  8 38  1  0
 13 39  1  0
 13 40  1  0
 14 41  1  0
 14 42  1  0
 15 43  1  0
 15 44  1  0
 16 45  1  0
 21 46  1  0
 21 47  1  0
 23 48  1  0
 24 49  1  0
 25 50  1  0
 26 51  1  0
 29 52  1  0
 32 53  1  0
 32 54  1  0
 32 55  1  0
M  END
$$$$
