
     RDKit          3D

 35 37  0  0  0  0  0  0  0  0999 V2000
    0.8910    1.0081   -2.6406 O   0  0  0  0  0  0  0  0  0  0  0  0
    1.7562    0.6852   -1.6866 C   0  0  0  0  0  0  0  0  0  0  0  0
    3.0804    0.9785   -1.8356 N   0  0  0  0  0  0  0  0  0  0  0  0
    3.7898    0.5575   -0.7351 C   0  0  0  0  0  0  0  0  0  0  0  0
    5.1585    0.6489   -0.4562 C   0  0  0  0  0  0  0  0  0  0  0  0
    5.6081    0.1270    0.7597 C   0  0  0  0  0  0  0  0  0  0  0  0
    4.7228   -0.4622    1.6586 C   0  0  0  0  0  0  0  0  0  0  0  0
    3.3564   -0.5458    1.3648 C   0  0  0  0  0  0  0  0  0  0  0  0
    2.8742   -0.0267    0.1442 C   0  0  0  0  0  0  0  0  0  0  0  0
    1.5823    0.0586   -0.4669 C   0  0  0  0  0  0  0  0  0  0  0  0
    0.3163   -0.4062    0.0585 C   0  0  0  0  0  0  0  0  0  0  0  0
   -0.7472   -0.2338   -0.6625 N   0  0  0  0  0  0  0  0  0  0  0  0
   -1.9608   -0.6482   -0.1566 N   0  0  0  0  0  0  0  0  0  0  0  0
   -2.2743   -0.4712    1.2689 C   0  0  0  0  0  0  0  0  0  0  0  0
   -3.7587   -0.6707    1.5593 C   0  0  0  0  0  0  0  0  0  0  0  0
   -4.6306    0.2705    0.7248 C   0  0  0  0  0  0  0  0  0  0  0  0
   -4.0563    0.5456   -0.6686 C   0  0  0  0  0  0  0  0  0  0  0  0
   -3.0806   -0.5409   -1.0993 C   0  0  0  0  0  0  0  0  0  0  0  0
    0.0169    0.6937   -2.3144 H   0  0  0  0  0  0  0  0  0  0  0  0
    3.4696    1.4389   -2.6448 H   0  0  0  0  0  0  0  0  0  0  0  0
    5.8509    1.1070   -1.1552 H   0  0  0  0  0  0  0  0  0  0  0  0
    6.6663    0.1822    1.0057 H   0  0  0  0  0  0  0  0  0  0  0  0
    5.0954   -0.8624    2.5985 H   0  0  0  0  0  0  0  0  0  0  0  0
    2.6811   -1.0097    2.0773 H   0  0  0  0  0  0  0  0  0  0  0  0
    0.3204   -0.8959    1.0446 H   0  0  0  0  0  0  0  0  0  0  0  0
   -1.9749    0.5431    1.5584 H   0  0  0  0  0  0  0  0  0  0  0  0
   -1.6887   -1.1933    1.8457 H   0  0  0  0  0  0  0  0  0  0  0  0
   -3.9626   -0.5196    2.6252 H   0  0  0  0  0  0  0  0  0  0  0  0
   -4.0336   -1.7084    1.3306 H   0  0  0  0  0  0  0  0  0  0  0  0
   -4.7570    1.2250    1.2499 H   0  0  0  0  0  0  0  0  0  0  0  0
   -5.6334   -0.1643    0.6350 H   0  0  0  0  0  0  0  0  0  0  0  0
   -3.5349    1.5113   -0.6535 H   0  0  0  0  0  0  0  0  0  0  0  0
   -4.8716    0.6382   -1.3946 H   0  0  0  0  0  0  0  0  0  0  0  0
   -3.5778   -1.5174   -1.1258 H   0  0  0  0  0  0  0  0  0  0  0  0
   -2.6938   -0.3426   -2.1054 H   0  0  0  0  0  0  0  0  0  0  0  0
  1  2  1  0
  2  3  1  0
  3  4  1  0
  4  5  2  0
  5  6  1  0
  6  7  2  0
  7  8  1  0
  8  9  2  0
  9 10  1  0
 10 11  1  0
 11 12  2  3
 12 13  1  0
 13 14  1  0
 14 15  1  0
 15 16  1  0
 16 17  1  0
 17 18  1  0
 10  2  2  0
 18 13  1  0
  9  4  1  0
  1 19  1  0
  3 20  1  0
  5 21  1  0
  6 22  1  0
  7 23  1  0
  8 24  1  0
 11 25  1  0
 14 26  1  0
 14 27  1  0
 15 28  1  0
 15 29  1  0
 16 30  1  0
 16 31  1  0
 17 32  1  0
 17 33  1  0
 18 34  1  0
 18 35  1  0
M  END
$$$$
