
     RDKit          3D

 56 59  0  0  0  0  0  0  0  0999 V2000
    7.2035   -0.3286    2.9382 C   0  0  0  0  0  0  0  0  0  0  0  0
    6.5975    0.4596    1.9207 O   0  0  0  0  0  0  0  0  0  0  0  0
    5.4891   -0.0587    1.3111 C   0  0  0  0  0  0  0  0  0  0  0  0
    4.9575    0.7395    0.2981 C   0  0  0  0  0  0  0  0  0  0  0  0
    3.8295    0.3286   -0.4141 C   0  0  0  0  0  0  0  0  0  0  0  0
    3.2114   -0.8907   -0.1099 C   0  0  0  0  0  0  0  0  0  0  0  0
    2.0209   -1.3143   -0.9000 C   0  0  0  0  0  0  0  0  0  0  0  0
    1.9460   -2.4708   -1.3085 O   0  0  0  0  0  0  0  0  0  0  0  0
    0.9241   -0.2891   -1.1559 C   0  0  0  0  0  0  0  0  0  0  0  0
    0.8791    0.0788   -2.6408 C   0  0  0  0  0  0  0  0  0  0  0  0
   -0.3298    0.9592   -2.9442 C   0  0  0  0  0  0  0  0  0  0  0  0
   -1.6215    0.3255   -2.4228 C   0  0  0  0  0  0  0  0  0  0  0  0
   -1.5872   -0.0139   -0.9915 N   0  0  0  0  0  0  0  0  0  0  0  0
   -1.6499    1.1378   -0.0819 C   0  0  0  0  0  0  0  0  0  0  0  0
   -2.9062    1.9409   -0.2240 C   0  0  0  0  0  0  0  0  0  0  0  0
   -2.9962    3.1594   -0.8904 C   0  0  0  0  0  0  0  0  0  0  0  0
   -4.2901    3.6716   -0.7223 C   0  0  0  0  0  0  0  0  0  0  0  0
   -4.9696    2.7645    0.0485 C   0  0  0  0  0  0  0  0  0  0  0  0
   -4.1582    1.6704    0.3444 N   0  0  0  0  0  0  0  0  0  0  0  0
   -4.6560    0.5601    1.1193 C   0  0  0  0  0  0  0  0  0  0  0  0
   -3.9604   -0.6320    1.2641 C   0  0  0  0  0  0  0  0  0  0  0  0
   -4.5139   -1.6602    2.0325 C   0  0  0  0  0  0  0  0  0  0  0  0
   -5.7501   -1.4832    2.6336 C   0  0  0  0  0  0  0  0  0  0  0  0
   -6.3917   -0.2779    2.4370 C   0  0  0  0  0  0  0  0  0  0  0  0
   -5.8781    0.7322    1.7026 N   0  0  0  0  0  0  0  0  0  0  0  0
   -0.4241   -0.8770   -0.7040 C   0  0  0  0  0  0  0  0  0  0  0  0
    3.7290   -1.7046    0.9165 C   0  0  0  0  0  0  0  0  0  0  0  0
    3.1141   -3.0295    1.2782 C   0  0  0  0  0  0  0  0  0  0  0  0
    4.8773   -1.2770    1.6128 C   0  0  0  0  0  0  0  0  0  0  0  0
    6.5185   -0.4819    3.7788 H   0  0  0  0  0  0  0  0  0  0  0  0
    8.0723    0.2206    3.3132 H   0  0  0  0  0  0  0  0  0  0  0  0
    7.5598   -1.2839    2.5382 H   0  0  0  0  0  0  0  0  0  0  0  0
    5.4356    1.6856    0.0535 H   0  0  0  0  0  0  0  0  0  0  0  0
    3.4628    0.9639   -1.2153 H   0  0  0  0  0  0  0  0  0  0  0  0
    1.1263    0.6111   -0.5642 H   0  0  0  0  0  0  0  0  0  0  0  0
    1.7986    0.5959   -2.9376 H   0  0  0  0  0  0  0  0  0  0  0  0
    0.8267   -0.8303   -3.2540 H   0  0  0  0  0  0  0  0  0  0  0  0
   -0.4077    1.1094   -4.0272 H   0  0  0  0  0  0  0  0  0  0  0  0
   -0.1857    1.9504   -2.4989 H   0  0  0  0  0  0  0  0  0  0  0  0
   -1.8067   -0.6003   -2.9842 H   0  0  0  0  0  0  0  0  0  0  0  0
   -2.4753    0.9672   -2.6632 H   0  0  0  0  0  0  0  0  0  0  0  0
   -1.5628    0.8130    0.9625 H   0  0  0  0  0  0  0  0  0  0  0  0
   -0.7917    1.8036   -0.2390 H   0  0  0  0  0  0  0  0  0  0  0  0
   -2.1847    3.6349   -1.4273 H   0  0  0  0  0  0  0  0  0  0  0  0
   -4.6867    4.6032   -1.1036 H   0  0  0  0  0  0  0  0  0  0  0  0
   -5.9902    2.7882    0.4080 H   0  0  0  0  0  0  0  0  0  0  0  0
   -3.0199   -0.8323    0.7810 H   0  0  0  0  0  0  0  0  0  0  0  0
   -3.9799   -2.5998    2.1451 H   0  0  0  0  0  0  0  0  0  0  0  0
   -6.2043   -2.2662    3.2294 H   0  0  0  0  0  0  0  0  0  0  0  0
   -7.3669   -0.0827    2.8730 H   0  0  0  0  0  0  0  0  0  0  0  0
   -0.3886   -1.1163    0.3671 H   0  0  0  0  0  0  0  0  0  0  0  0
   -0.5954   -1.8430   -1.1988 H   0  0  0  0  0  0  0  0  0  0  0  0
    2.0251   -2.9482    1.3479 H   0  0  0  0  0  0  0  0  0  0  0  0
    3.4664   -3.3759    2.2563 H   0  0  0  0  0  0  0  0  0  0  0  0
    3.3819   -3.7869    0.5352 H   0  0  0  0  0  0  0  0  0  0  0  0
    5.2769   -1.9201    2.3917 H   0  0  0  0  0  0  0  0  0  0  0  0
  1  2  1  0
  2  3  1  0
  3  4  2  0
  4  5  1  0
  5  6  2  0
  6  7  1  0
  7  8  2  0
  7  9  1  0
  9 10  1  0
 10 11  1  0
 11 12  1  0
 12 13  1  0
 13 14  1  0
 14 15  1  0
 15 16  2  0
 16 17  1  0
 17 18  2  0
 18 19  1  0
 19 20  1  0
 20 21  2  0
 21 22  1  0
 22 23  2  0
 23 24  1  0
 24 25  2  0
 13 26  1  0
  6 27  1  0
 27 28  1  0
 27 29  2  0
 29  3  1  0
 26  9  1  0
 19 15  1  0
 25 20  1  0
  1 30  1  0
  1 31  1  0
  1 32  1  0
  4 33  1  0
  5 34  1  0
  9 35  1  0
 10 36  1  0
 10 37  1  0
 11 38  1  0
 11 39  1  0
 12 40  1  0
 12 41  1  0
 14 42  1  0
 14 43  1  0
 16 44  1  0
 17 45  1  0
 18 46  1  0
 21 47  1  0
 22 48  1  0
 23 49  1  0
 24 50  1  0
 26 51  1  0
 26 52  1  0
 28 53  1  0
 28 54  1  0
 28 55  1  0
 29 56  1  0
M  END
$$$$
