
     RDKit          3D

 58 61  0  0  0  0  0  0  0  0999 V2000
    1.8635    0.4114   -2.1722 O   0  0  0  0  0  0  0  0  0  0  0  0
    1.9287    0.8526   -1.0272 C   0  0  0  0  0  0  0  0  0  0  0  0
    3.1246    0.6939   -0.1100 C   0  0  0  0  0  0  0  0  0  0  0  0
    4.2874   -0.0193   -0.8009 C   0  0  0  0  0  0  0  0  0  0  0  0
    5.5466   -0.1154    0.0796 C   0  0  0  0  0  0  0  0  0  0  0  0
    6.7138   -0.7188   -0.7110 C   0  0  0  0  0  0  0  0  0  0  0  0
    8.0189   -0.7044    0.0893 C   0  0  0  0  0  0  0  0  0  0  0  0
    7.8112   -0.7747    1.6011 C   0  0  0  0  0  0  0  0  0  0  0  0
    6.5571   -1.5567    1.9586 C   0  0  0  0  0  0  0  0  0  0  0  0
    5.2941   -0.9234    1.3676 C   0  0  0  0  0  0  0  0  0  0  0  0
    0.8908    1.5560   -0.4402 N   0  0  0  0  0  0  0  0  0  0  0  0
   -0.3600    1.4924   -1.1072 N   0  0  0  0  0  0  0  0  0  0  0  0
   -1.4233    1.0651   -0.3314 C   0  0  0  0  0  0  0  0  0  0  0  0
   -1.3384    0.9234    0.8828 O   0  0  0  0  0  0  0  0  0  0  0  0
   -2.5433    0.8443   -1.0931 N   0  0  0  0  0  0  0  0  0  0  0  0
   -3.8509    0.4712   -0.5425 C   0  0  0  0  0  0  0  0  0  0  0  0
   -3.7914   -0.8584    0.2525 C   0  0  0  0  0  0  0  0  0  0  0  0
   -5.1890   -1.2437    0.7696 C   0  0  0  0  0  0  0  0  0  0  0  0
   -5.7199   -0.1204    1.6767 C   0  0  0  0  0  0  0  0  0  0  0  0
   -5.8185    1.1958    0.8871 C   0  0  0  0  0  0  0  0  0  0  0  0
   -6.7652    1.0000   -0.3077 C   0  0  0  0  0  0  0  0  0  0  0  0
   -6.2350   -0.1159   -1.2211 C   0  0  0  0  0  0  0  0  0  0  0  0
   -6.1405   -1.4252   -0.4228 C   0  0  0  0  0  0  0  0  0  0  0  0
   -4.8351    0.2681   -1.7262 C   0  0  0  0  0  0  0  0  0  0  0  0
   -4.4215    1.5833    0.3714 C   0  0  0  0  0  0  0  0  0  0  0  0
    3.4401    1.6909    0.2186 H   0  0  0  0  0  0  0  0  0  0  0  0
    2.7973    0.1282    0.7695 H   0  0  0  0  0  0  0  0  0  0  0  0
    3.9708   -1.0238   -1.1097 H   0  0  0  0  0  0  0  0  0  0  0  0
    4.5371    0.5199   -1.7239 H   0  0  0  0  0  0  0  0  0  0  0  0
    5.8325    0.9062    0.3666 H   0  0  0  0  0  0  0  0  0  0  0  0
    6.8668   -0.1801   -1.6538 H   0  0  0  0  0  0  0  0  0  0  0  0
    6.4702   -1.7541   -0.9829 H   0  0  0  0  0  0  0  0  0  0  0  0
    8.5879    0.2027   -0.1449 H   0  0  0  0  0  0  0  0  0  0  0  0
    8.6399   -1.5461   -0.2391 H   0  0  0  0  0  0  0  0  0  0  0  0
    7.7292    0.2414    2.0055 H   0  0  0  0  0  0  0  0  0  0  0  0
    8.6910   -1.2277    2.0726 H   0  0  0  0  0  0  0  0  0  0  0  0
    6.6558   -2.5823    1.5838 H   0  0  0  0  0  0  0  0  0  0  0  0
    6.4547   -1.6336    3.0458 H   0  0  0  0  0  0  0  0  0  0  0  0
    4.5617   -1.7212    1.1902 H   0  0  0  0  0  0  0  0  0  0  0  0
    4.8445   -0.2583    2.1157 H   0  0  0  0  0  0  0  0  0  0  0  0
    0.8121    1.5643    0.5782 H   0  0  0  0  0  0  0  0  0  0  0  0
   -0.2912    1.0638   -2.0299 H   0  0  0  0  0  0  0  0  0  0  0  0
   -2.5608    1.3943   -1.9403 H   0  0  0  0  0  0  0  0  0  0  0  0
   -3.3933   -1.6607   -0.3826 H   0  0  0  0  0  0  0  0  0  0  0  0
   -3.1105   -0.7778    1.1073 H   0  0  0  0  0  0  0  0  0  0  0  0
   -5.1267   -2.1788    1.3375 H   0  0  0  0  0  0  0  0  0  0  0  0
   -6.7063   -0.3938    2.0711 H   0  0  0  0  0  0  0  0  0  0  0  0
   -5.0566    0.0094    2.5406 H   0  0  0  0  0  0  0  0  0  0  0  0
   -6.2047    1.9891    1.5368 H   0  0  0  0  0  0  0  0  0  0  0  0
   -6.8554    1.9356   -0.8720 H   0  0  0  0  0  0  0  0  0  0  0  0
   -7.7700    0.7457    0.0492 H   0  0  0  0  0  0  0  0  0  0  0  0
   -6.9116   -0.2499   -2.0723 H   0  0  0  0  0  0  0  0  0  0  0  0
   -5.7801   -2.2345   -1.0699 H   0  0  0  0  0  0  0  0  0  0  0  0
   -7.1357   -1.7206   -0.0675 H   0  0  0  0  0  0  0  0  0  0  0  0
   -4.4568   -0.5109   -2.4015 H   0  0  0  0  0  0  0  0  0  0  0  0
   -4.9003    1.1865   -2.3250 H   0  0  0  0  0  0  0  0  0  0  0  0
   -4.4770    2.5320   -0.1784 H   0  0  0  0  0  0  0  0  0  0  0  0
   -3.7590    1.7629    1.2266 H   0  0  0  0  0  0  0  0  0  0  0  0
  1  2  2  0
  2  3  1  0
  3  4  1  0
  4  5  1  0
  5  6  1  0
  6  7  1  0
  7  8  1  0
  8  9  1  0
  9 10  1  0
  2 11  1  0
 11 12  1  0
 12 13  1  0
 13 14  2  0
 13 15  1  0
 15 16  1  0
 16 17  1  0
 17 18  1  0
 18 19  1  0
 19 20  1  0
 20 21  1  0
 21 22  1  0
 22 23  1  0
 22 24  1  0
 20 25  1  0
 10  5  1  0
 24 16  1  0
 25 16  1  0
 23 18  1  0
  3 26  1  0
  3 27  1  0
  4 28  1  0
  4 29  1  0
  5 30  1  0
  6 31  1  0
  6 32  1  0
  7 33  1  0
  7 34  1  0
  8 35  1  0
  8 36  1  0
  9 37  1  0
  9 38  1  0
 10 39  1  0
 10 40  1  0
 11 41  1  0
 12 42  1  0
 15 43  1  0
 17 44  1  0
 17 45  1  0
 18 46  1  0
 19 47  1  0
 19 48  1  0
 20 49  1  0
 21 50  1  0
 21 51  1  0
 22 52  1  0
 23 53  1  0
 23 54  1  0
 24 55  1  0
 24 56  1  0
 25 57  1  0
 25 58  1  0
M  END
$$$$
