
     RDKit          3D

 48 50  0  0  0  0  0  0  0  0999 V2000
   -1.0795    1.3082   -1.1087 O   0  0  0  0  0  0  0  0  0  0  0  0
   -1.2634    0.4297   -0.2603 C   0  0  0  0  0  0  0  0  0  0  0  0
   -0.4445    0.4400    1.0226 C   0  0  0  0  0  0  0  0  0  0  0  0
    1.0205    0.4452    0.7381 N   0  0  0  0  0  0  0  0  0  0  0  0
    1.7801    1.3135    1.5941 C   0  0  0  0  0  0  0  0  0  0  0  0
    2.1581    0.9449    2.8846 C   0  0  0  0  0  0  0  0  0  0  0  0
    2.8246    1.8619    3.6984 C   0  0  0  0  0  0  0  0  0  0  0  0
    3.0917    3.1556    3.2364 C   0  0  0  0  0  0  0  0  0  0  0  0
    3.9124    4.2294    4.3101 Cl  0  0  0  0  0  0  0  0  0  0  0  0
    2.6884    3.5504    1.9549 C   0  0  0  0  0  0  0  0  0  0  0  0
    2.9481    4.9390    1.4391 C   0  0  0  0  0  0  0  0  0  0  0  0
    2.3376    5.9018    2.1827 F   0  0  0  0  0  0  0  0  0  0  0  0
    2.4961    5.1297    0.1655 F   0  0  0  0  0  0  0  0  0  0  0  0
    4.2701    5.2589    1.4025 F   0  0  0  0  0  0  0  0  0  0  0  0
    2.0169    2.6151    1.1449 C   0  0  0  0  0  0  0  0  0  0  0  0
    1.7367   -1.0818    0.4453 S   0  0  0  0  0  6  0  0  0  0  0  0
    1.1858   -2.0019    1.4223 O   0  0  0  0  0  0  0  0  0  0  0  0
    3.1679   -0.9192    0.2994 O   0  0  0  0  0  0  0  0  0  0  0  0
    1.1292   -1.5605   -1.1510 C   0  0  0  0  0  0  0  0  0  0  0  0
    1.2555   -0.6756   -2.2247 C   0  0  0  0  0  0  0  0  0  0  0  0
    0.7849   -1.0526   -3.4821 C   0  0  0  0  0  0  0  0  0  0  0  0
    0.2061   -2.3098   -3.6644 C   0  0  0  0  0  0  0  0  0  0  0  0
    0.0974   -3.1964   -2.5918 C   0  0  0  0  0  0  0  0  0  0  0  0
    0.5599   -2.8250   -1.3294 C   0  0  0  0  0  0  0  0  0  0  0  0
   -2.2192   -0.5566   -0.4357 N   0  0  0  0  0  0  0  0  0  0  0  0
   -3.0771   -0.5160   -1.6237 C   0  0  0  0  0  0  0  0  0  0  0  0
   -4.4909   -1.0009   -1.2855 C   0  0  0  0  0  0  0  0  0  0  0  0
   -4.5405   -2.3238   -0.7307 O   0  0  0  0  0  0  0  0  0  0  0  0
   -3.2975   -2.7779   -0.1868 C   0  0  0  0  0  0  0  0  0  0  0  0
   -2.4924   -1.6633    0.4876 C   0  0  0  0  0  0  0  0  0  0  0  0
   -0.7023   -0.3568    1.7208 H   0  0  0  0  0  0  0  0  0  0  0  0
   -0.7319    1.3666    1.5385 H   0  0  0  0  0  0  0  0  0  0  0  0
    1.9504   -0.0510    3.2682 H   0  0  0  0  0  0  0  0  0  0  0  0
    3.1330    1.5608    4.6976 H   0  0  0  0  0  0  0  0  0  0  0  0
    1.6809    2.8981    0.1468 H   0  0  0  0  0  0  0  0  0  0  0  0
    1.7068    0.3048   -2.0882 H   0  0  0  0  0  0  0  0  0  0  0  0
    0.8708   -0.3656   -4.3209 H   0  0  0  0  0  0  0  0  0  0  0  0
   -0.1538   -2.6012   -4.6486 H   0  0  0  0  0  0  0  0  0  0  0  0
   -0.3425   -4.1794   -2.7444 H   0  0  0  0  0  0  0  0  0  0  0  0
    0.4864   -3.5264   -0.5019 H   0  0  0  0  0  0  0  0  0  0  0  0
   -2.6182   -1.1774   -2.3682 H   0  0  0  0  0  0  0  0  0  0  0  0
   -3.1151    0.4942   -2.0441 H   0  0  0  0  0  0  0  0  0  0  0  0
   -4.9515   -0.3258   -0.5543 H   0  0  0  0  0  0  0  0  0  0  0  0
   -5.1217   -0.9943   -2.1807 H   0  0  0  0  0  0  0  0  0  0  0  0
   -2.7205   -3.2286   -1.0004 H   0  0  0  0  0  0  0  0  0  0  0  0
   -3.5194   -3.5718    0.5330 H   0  0  0  0  0  0  0  0  0  0  0  0
   -3.0601   -1.2387    1.3230 H   0  0  0  0  0  0  0  0  0  0  0  0
   -1.5543   -2.0697    0.8705 H   0  0  0  0  0  0  0  0  0  0  0  0
  1  2  2  0
  2  3  1  0
  3  4  1  0
  4  5  1  0
  5  6  2  0
  6  7  1  0
  7  8  2  0
  8  9  1  0
  8 10  1  0
 10 11  1  0
 11 12  1  0
 11 13  1  0
 11 14  1  0
 10 15  2  0
  4 16  1  0
 16 17  2  0
 16 18  2  0
 16 19  1  0
 19 20  2  0
 20 21  1  0
 21 22  2  0
 22 23  1  0
 23 24  2  0
  2 25  1  0
 25 26  1  0
 26 27  1  0
 27 28  1  0
 28 29  1  0
 29 30  1  0
 15  5  1  0
 24 19  1  0
 30 25  1  0
  3 31  1  0
  3 32  1  0
  6 33  1  0
  7 34  1  0
 15 35  1  0
 20 36  1  0
 21 37  1  0
 22 38  1  0
 23 39  1  0
 24 40  1  0
 26 41  1  0
 26 42  1  0
 27 43  1  0
 27 44  1  0
 29 45  1  0
 29 46  1  0
 30 47  1  0
 30 48  1  0
M  END
$$$$
