
     RDKit          3D

 50 53  0  0  0  0  0  0  0  0999 V2000
  -10.1992    0.8567   -0.8243 C   0  0  0  0  0  0  0  0  0  0  0  0
   -8.7583    0.4330   -0.8453 C   0  0  0  0  0  0  0  0  0  0  0  0
   -8.3264   -0.5390   -1.7510 C   0  0  0  0  0  0  0  0  0  0  0  0
   -6.9816   -0.9238   -1.8042 C   0  0  0  0  0  0  0  0  0  0  0  0
   -6.0449   -0.3195   -0.9436 C   0  0  0  0  0  0  0  0  0  0  0  0
   -4.6915   -0.6018   -0.8890 N   0  0  0  0  0  0  0  0  0  0  0  0
   -4.0933    0.1432    0.0209 C   0  0  0  0  0  0  0  0  0  0  0  0
   -2.6457    0.0670    0.3159 C   0  0  0  0  0  0  0  0  0  0  0  0
   -1.9875    0.9135    1.2194 C   0  0  0  0  0  0  0  0  0  0  0  0
   -0.6099    0.7903    1.4541 C   0  0  0  0  0  0  0  0  0  0  0  0
    0.1489   -0.1811    0.7931 C   0  0  0  0  0  0  0  0  0  0  0  0
    1.5269   -0.2343    1.0876 N   0  0  0  0  0  0  0  0  0  0  0  0
    2.4654   -1.1109    0.5702 C   0  0  0  0  0  0  0  0  0  0  0  0
    2.2667   -2.0023   -0.2459 O   0  0  0  0  0  0  0  0  0  0  0  0
    3.8495   -0.8348    1.1198 C   0  0  0  0  0  0  0  0  0  0  0  0
    4.8407   -1.8932    0.6655 C   0  0  0  0  0  0  0  0  0  0  0  0
    6.4872   -1.5718    1.2492 S   0  0  0  0  0  6  0  0  0  0  0  0
    6.4022   -1.2243    2.6561 O   0  0  0  0  0  0  0  0  0  0  0  0
    7.3475   -2.6514    0.8054 O   0  0  0  0  0  0  0  0  0  0  0  0
    6.9913   -0.1169    0.3610 C   0  0  0  0  0  0  0  0  0  0  0  0
    7.1112    1.1042    1.0297 C   0  0  0  0  0  0  0  0  0  0  0  0
    7.5030    2.2376    0.3176 C   0  0  0  0  0  0  0  0  0  0  0  0
    7.7802    2.1448   -1.0477 C   0  0  0  0  0  0  0  0  0  0  0  0
    7.6754    0.9181   -1.7057 C   0  0  0  0  0  0  0  0  0  0  0  0
    7.2849   -0.2205   -1.0018 C   0  0  0  0  0  0  0  0  0  0  0  0
   -0.4929   -1.0267   -0.1076 C   0  0  0  0  0  0  0  0  0  0  0  0
   -1.8701   -0.9018   -0.3414 C   0  0  0  0  0  0  0  0  0  0  0  0
   -5.1439    1.2228    0.8581 S   0  0  0  0  0  0  0  0  0  0  0  0
   -6.4852    0.6585   -0.0554 C   0  0  0  0  0  0  0  0  0  0  0  0
   -7.8326    1.0546    0.0079 C   0  0  0  0  0  0  0  0  0  0  0  0
  -10.3591    1.6725   -1.5359 H   0  0  0  0  0  0  0  0  0  0  0  0
  -10.8557    0.0211   -1.0888 H   0  0  0  0  0  0  0  0  0  0  0  0
  -10.4924    1.1956    0.1749 H   0  0  0  0  0  0  0  0  0  0  0  0
   -9.0347   -1.0121   -2.4286 H   0  0  0  0  0  0  0  0  0  0  0  0
   -6.6508   -1.6835   -2.5054 H   0  0  0  0  0  0  0  0  0  0  0  0
   -2.5237    1.6889    1.7605 H   0  0  0  0  0  0  0  0  0  0  0  0
   -0.1468    1.4707    2.1645 H   0  0  0  0  0  0  0  0  0  0  0  0
    1.8574    0.4423    1.7648 H   0  0  0  0  0  0  0  0  0  0  0  0
    3.7947   -0.8124    2.2143 H   0  0  0  0  0  0  0  0  0  0  0  0
    4.1557    0.1587    0.7750 H   0  0  0  0  0  0  0  0  0  0  0  0
    4.8834   -1.9784   -0.4253 H   0  0  0  0  0  0  0  0  0  0  0  0
    4.5574   -2.8753    1.0610 H   0  0  0  0  0  0  0  0  0  0  0  0
    6.9120    1.1824    2.0961 H   0  0  0  0  0  0  0  0  0  0  0  0
    7.6028    3.1931    0.8272 H   0  0  0  0  0  0  0  0  0  0  0  0
    8.0919    3.0295   -1.5986 H   0  0  0  0  0  0  0  0  0  0  0  0
    7.9087    0.8493   -2.7658 H   0  0  0  0  0  0  0  0  0  0  0  0
    7.2249   -1.1773   -1.5162 H   0  0  0  0  0  0  0  0  0  0  0  0
    0.0407   -1.7995   -0.6520 H   0  0  0  0  0  0  0  0  0  0  0  0
   -2.3382   -1.5813   -1.0537 H   0  0  0  0  0  0  0  0  0  0  0  0
   -8.1459    1.8253    0.7066 H   0  0  0  0  0  0  0  0  0  0  0  0
  1  2  1  0
  2  3  2  0
  3  4  1  0
  4  5  2  0
  5  6  1  0
  6  7  2  0
  7  8  1  0
  8  9  2  0
  9 10  1  0
 10 11  2  0
 11 12  1  0
 12 13  1  0
 13 14  2  0
 13 15  1  0
 15 16  1  0
 16 17  1  0
 17 18  2  0
 17 19  2  0
 17 20  1  0
 20 21  2  0
 21 22  1  0
 22 23  2  0
 23 24  1  0
 24 25  2  0
 11 26  1  0
 26 27  2  0
  7 28  1  0
 28 29  1  0
 29 30  2  0
 30  2  1  0
 29  5  1  0
 27  8  1  0
 25 20  1  0
  1 31  1  0
  1 32  1  0
  1 33  1  0
  3 34  1  0
  4 35  1  0
  9 36  1  0
 10 37  1  0
 12 38  1  0
 15 39  1  0
 15 40  1  0
 16 41  1  0
 16 42  1  0
 21 43  1  0
 22 44  1  0
 23 45  1  0
 24 46  1  0
 25 47  1  0
 26 48  1  0
 27 49  1  0
 30 50  1  0
M  END
$$$$
