
     RDKit          3D

 39 40  0  0  0  0  0  0  0  0999 V2000
    1.5848   -2.9500    2.1904 C   0  0  0  0  0  0  0  0  0  0  0  0
    1.4670   -1.4514    2.4477 C   0  0  0  0  0  0  0  0  0  0  0  0
    0.8924   -0.7043    1.2357 C   0  0  0  0  0  0  0  0  0  0  0  0
    1.0515    1.1128    1.4989 S   0  0  0  0  0  0  0  0  0  0  0  0
    2.6912    1.3695    1.0266 C   0  0  0  0  0  0  0  0  0  0  0  0
    3.4677    0.5266    0.3861 N   0  0  0  0  0  0  0  0  0  0  0  0
    4.6880    1.1380    0.2041 N   0  0  0  0  0  0  0  0  0  0  0  0
    4.6152    2.3359    0.7385 C   0  0  0  0  0  0  0  0  0  0  0  0
    3.3733    2.5264    1.2666 N   0  0  0  0  0  0  0  0  0  0  0  0
    2.9122    3.7117    1.9371 C   0  0  0  0  0  0  0  0  0  0  0  0
   -0.6036   -0.9915    1.0196 C   0  0  0  0  0  0  0  0  0  0  0  0
   -1.3114   -1.4777    1.8975 O   0  0  0  0  0  0  0  0  0  0  0  0
   -1.0242   -0.6332   -0.2509 N   0  0  0  0  0  0  0  0  0  0  0  0
   -2.3097   -0.7542   -0.8222 C   0  0  0  0  0  0  0  0  0  0  0  0
   -3.4013   -1.3191   -0.1604 C   0  0  0  0  0  0  0  0  0  0  0  0
   -4.6415   -1.4048   -0.7965 C   0  0  0  0  0  0  0  0  0  0  0  0
   -4.7971   -0.9278   -2.0954 C   0  0  0  0  0  0  0  0  0  0  0  0
   -3.7129   -0.3618   -2.7689 C   0  0  0  0  0  0  0  0  0  0  0  0
   -2.4671   -0.2723   -2.1407 C   0  0  0  0  0  0  0  0  0  0  0  0
   -1.3347    0.2659   -2.7097 O   0  0  0  0  0  0  0  0  0  0  0  0
   -1.4412    0.7238   -4.0520 C   0  0  0  0  0  0  0  0  0  0  0  0
    0.6083   -3.4055    2.0019 H   0  0  0  0  0  0  0  0  0  0  0  0
    2.0240   -3.4471    3.0613 H   0  0  0  0  0  0  0  0  0  0  0  0
    2.2292   -3.1485    1.3280 H   0  0  0  0  0  0  0  0  0  0  0  0
    0.8466   -1.2935    3.3386 H   0  0  0  0  0  0  0  0  0  0  0  0
    2.4713   -1.0808    2.6867 H   0  0  0  0  0  0  0  0  0  0  0  0
    1.4251   -0.9997    0.3240 H   0  0  0  0  0  0  0  0  0  0  0  0
    5.4075    3.0708    0.7648 H   0  0  0  0  0  0  0  0  0  0  0  0
    2.0613    4.1200    1.3860 H   0  0  0  0  0  0  0  0  0  0  0  0
    3.7164    4.4519    1.9649 H   0  0  0  0  0  0  0  0  0  0  0  0
    2.6240    3.4498    2.9583 H   0  0  0  0  0  0  0  0  0  0  0  0
   -0.3480   -0.1894   -0.8673 H   0  0  0  0  0  0  0  0  0  0  0  0
   -3.3191   -1.7030    0.8512 H   0  0  0  0  0  0  0  0  0  0  0  0
   -5.4856   -1.8463   -0.2723 H   0  0  0  0  0  0  0  0  0  0  0  0
   -5.7654   -0.9972   -2.5850 H   0  0  0  0  0  0  0  0  0  0  0  0
   -3.8756   -0.0015   -3.7786 H   0  0  0  0  0  0  0  0  0  0  0  0
   -0.4587    1.0983   -4.3553 H   0  0  0  0  0  0  0  0  0  0  0  0
   -2.1515    1.5534   -4.1302 H   0  0  0  0  0  0  0  0  0  0  0  0
   -1.7086   -0.0941   -4.7291 H   0  0  0  0  0  0  0  0  0  0  0  0
  1  2  1  0
  2  3  1  0
  3  4  1  0
  4  5  1  0
  5  6  2  0
  6  7  1  0
  7  8  2  0
  8  9  1  0
  9 10  1  0
  3 11  1  0
 11 12  2  0
 11 13  1  0
 13 14  1  0
 14 15  2  0
 15 16  1  0
 16 17  2  0
 17 18  1  0
 18 19  2  0
 19 20  1  0
 20 21  1  0
  9  5  1  0
 19 14  1  0
  1 22  1  0
  1 23  1  0
  1 24  1  0
  2 25  1  0
  2 26  1  0
  3 27  1  0
  8 28  1  0
 10 29  1  0
 10 30  1  0
 10 31  1  0
 13 32  1  0
 15 33  1  0
 16 34  1  0
 17 35  1  0
 18 36  1  0
 21 37  1  0
 21 38  1  0
 21 39  1  0
M  END
$$$$
