
     RDKit          3D

 45 46  0  0  0  0  0  0  0  0999 V2000
   -7.0212   -2.8624    1.5096 C   0  0  0  0  0  0  0  0  0  0  0  0
   -6.2180   -1.5806    1.3798 C   0  0  0  0  0  0  0  0  0  0  0  0
   -5.3337   -1.7261    0.2705 O   0  0  0  0  0  0  0  0  0  0  0  0
   -4.5334   -0.6601   -0.0338 C   0  0  0  0  0  0  0  0  0  0  0  0
   -3.7233   -0.8406   -1.1565 C   0  0  0  0  0  0  0  0  0  0  0  0
   -2.8563    0.1688   -1.5806 C   0  0  0  0  0  0  0  0  0  0  0  0
   -2.7875    1.3817   -0.8840 C   0  0  0  0  0  0  0  0  0  0  0  0
   -1.8317    2.4585   -1.3277 C   0  0  0  0  0  0  0  0  0  0  0  0
   -0.4860    2.1411   -0.9089 N   0  0  0  0  0  0  0  0  0  0  0  0
    0.4449    1.6786   -1.7910 C   0  0  0  0  0  0  0  0  0  0  0  0
    0.2695    1.6076   -2.9952 O   0  0  0  0  0  0  0  0  0  0  0  0
    1.6151    1.2910   -1.1589 N   0  0  0  0  0  0  0  0  0  0  0  0
    2.9245    0.6843   -1.9927 S   0  0  0  0  0  6  0  0  0  0  0  0
    2.5787   -0.6031   -2.5529 O   0  0  0  0  0  0  0  0  0  0  0  0
    3.5224    1.7429   -2.7752 O   0  0  0  0  0  0  0  0  0  0  0  0
    4.0329    0.3686   -0.6301 C   0  0  0  0  0  0  0  0  0  0  0  0
    4.0492   -0.8924   -0.0282 C   0  0  0  0  0  0  0  0  0  0  0  0
    4.9153   -1.1372    1.0424 C   0  0  0  0  0  0  0  0  0  0  0  0
    5.7646   -0.1284    1.5040 C   0  0  0  0  0  0  0  0  0  0  0  0
    6.6510   -0.2364    2.5394 O   0  0  0  0  0  0  0  0  0  0  0  0
    6.7790   -1.5157    3.1479 C   0  0  0  0  0  0  0  0  0  0  0  0
    5.7440    1.1266    0.8847 C   0  0  0  0  0  0  0  0  0  0  0  0
    4.8855    1.3806   -0.1862 C   0  0  0  0  0  0  0  0  0  0  0  0
   -3.5960    1.5571    0.2467 C   0  0  0  0  0  0  0  0  0  0  0  0
   -4.4657    0.5436    0.6675 C   0  0  0  0  0  0  0  0  0  0  0  0
   -6.3571   -3.7199    1.6607 H   0  0  0  0  0  0  0  0  0  0  0  0
   -7.5886   -3.0562    0.5932 H   0  0  0  0  0  0  0  0  0  0  0  0
   -7.7178   -2.8025    2.3504 H   0  0  0  0  0  0  0  0  0  0  0  0
   -6.9053   -0.7432    1.2124 H   0  0  0  0  0  0  0  0  0  0  0  0
   -5.6474   -1.4214    2.3020 H   0  0  0  0  0  0  0  0  0  0  0  0
   -3.7676   -1.7766   -1.7086 H   0  0  0  0  0  0  0  0  0  0  0  0
   -2.2336    0.0017   -2.4588 H   0  0  0  0  0  0  0  0  0  0  0  0
   -1.8919    2.5937   -2.4133 H   0  0  0  0  0  0  0  0  0  0  0  0
   -2.0942    3.4169   -0.8665 H   0  0  0  0  0  0  0  0  0  0  0  0
   -0.3210    2.0345    0.0772 H   0  0  0  0  0  0  0  0  0  0  0  0
    1.7220    1.3850   -0.1602 H   0  0  0  0  0  0  0  0  0  0  0  0
    3.3997   -1.6888   -0.3872 H   0  0  0  0  0  0  0  0  0  0  0  0
    4.9059   -2.1261    1.4900 H   0  0  0  0  0  0  0  0  0  0  0  0
    5.8441   -1.8159    3.6324 H   0  0  0  0  0  0  0  0  0  0  0  0
    7.1089   -2.2676    2.4232 H   0  0  0  0  0  0  0  0  0  0  0  0
    7.5471   -1.4415    3.9238 H   0  0  0  0  0  0  0  0  0  0  0  0
    6.4134    1.9092    1.2361 H   0  0  0  0  0  0  0  0  0  0  0  0
    4.8953    2.3568   -0.6663 H   0  0  0  0  0  0  0  0  0  0  0  0
   -3.5606    2.4870    0.8102 H   0  0  0  0  0  0  0  0  0  0  0  0
   -5.0750    0.7269    1.5460 H   0  0  0  0  0  0  0  0  0  0  0  0
  1  2  1  0
  2  3  1  0
  3  4  1  0
  4  5  2  0
  5  6  1  0
  6  7  2  0
  7  8  1  0
  8  9  1  0
  9 10  1  0
 10 11  2  0
 10 12  1  0
 12 13  1  0
 13 14  2  0
 13 15  2  0
 13 16  1  0
 16 17  2  0
 17 18  1  0
 18 19  2  0
 19 20  1  0
 20 21  1  0
 19 22  1  0
 22 23  2  0
  7 24  1  0
 24 25  2  0
 25  4  1  0
 23 16  1  0
  1 26  1  0
  1 27  1  0
  1 28  1  0
  2 29  1  0
  2 30  1  0
  5 31  1  0
  6 32  1  0
  8 33  1  0
  8 34  1  0
  9 35  1  0
 12 36  1  0
 17 37  1  0
 18 38  1  0
 21 39  1  0
 21 40  1  0
 21 41  1  0
 22 42  1  0
 23 43  1  0
 24 44  1  0
 25 45  1  0
M  END
$$$$
