
     RDKit          3D

 47 49  0  0  0  0  0  0  0  0999 V2000
   -8.7082    1.4675   -1.4276 C   0  0  0  0  0  0  0  0  0  0  0  0
   -8.6729    0.6067   -0.1726 C   0  0  0  0  0  0  0  0  0  0  0  0
   -7.3478   -0.1363   -0.0138 C   0  0  0  0  0  0  0  0  0  0  0  0
   -6.3006    0.8193    0.1536 O   0  0  0  0  0  0  0  0  0  0  0  0
   -5.0318    0.3353    0.3085 C   0  0  0  0  0  0  0  0  0  0  0  0
   -4.6617   -1.0096    0.3283 C   0  0  0  0  0  0  0  0  0  0  0  0
   -3.3184   -1.3654    0.4957 C   0  0  0  0  0  0  0  0  0  0  0  0
   -2.3352   -0.3787    0.6340 C   0  0  0  0  0  0  0  0  0  0  0  0
   -0.9176   -0.8054    0.8095 C   0  0  0  0  0  0  0  0  0  0  0  0
   -0.6969   -1.8452    1.4186 O   0  0  0  0  0  0  0  0  0  0  0  0
    0.0170    0.0238    0.2158 N   0  0  0  0  0  0  0  0  0  0  0  0
    1.4204   -0.1082    0.2491 C   0  0  0  0  0  0  0  0  0  0  0  0
    2.0969   -1.0819    0.9800 C   0  0  0  0  0  0  0  0  0  0  0  0
    3.4969   -1.1394    0.9615 C   0  0  0  0  0  0  0  0  0  0  0  0
    4.2468   -0.2246    0.2138 C   0  0  0  0  0  0  0  0  0  0  0  0
    5.6504   -0.3563    0.2589 N   0  0  0  0  0  0  0  0  0  0  0  0
    6.6012    0.3834   -0.4330 C   0  0  0  0  0  0  0  0  0  0  0  0
    6.3261    1.2591   -1.2485 O   0  0  0  0  0  0  0  0  0  0  0  0
    7.9821    0.0103   -0.1141 C   0  0  0  0  0  0  0  0  0  0  0  0
    8.5040   -0.6589    0.9818 C   0  0  0  0  0  0  0  0  0  0  0  0
    9.9190   -0.8263    0.9032 C   0  0  0  0  0  0  0  0  0  0  0  0
   10.4397   -0.2738   -0.2434 C   0  0  0  0  0  0  0  0  0  0  0  0
    9.2325    0.4479   -1.2114 S   0  0  0  0  0  0  0  0  0  0  0  0
    3.5696    0.7537   -0.5112 C   0  0  0  0  0  0  0  0  0  0  0  0
    2.1691    0.8105   -0.4934 C   0  0  0  0  0  0  0  0  0  0  0  0
   -2.7071    0.9698    0.6338 C   0  0  0  0  0  0  0  0  0  0  0  0
   -4.0503    1.3186    0.4664 C   0  0  0  0  0  0  0  0  0  0  0  0
   -7.9390    2.2456   -1.3993 H   0  0  0  0  0  0  0  0  0  0  0  0
   -8.5496    0.8592   -2.3238 H   0  0  0  0  0  0  0  0  0  0  0  0
   -9.6814    1.9599   -1.5197 H   0  0  0  0  0  0  0  0  0  0  0  0
   -8.8373    1.2537    0.6969 H   0  0  0  0  0  0  0  0  0  0  0  0
   -9.4931   -0.1186   -0.2094 H   0  0  0  0  0  0  0  0  0  0  0  0
   -7.1647   -0.7516   -0.9030 H   0  0  0  0  0  0  0  0  0  0  0  0
   -7.4112   -0.7772    0.8736 H   0  0  0  0  0  0  0  0  0  0  0  0
   -5.3893   -1.8073    0.2214 H   0  0  0  0  0  0  0  0  0  0  0  0
   -3.0398   -2.4176    0.5167 H   0  0  0  0  0  0  0  0  0  0  0  0
   -0.3361    0.7731   -0.3649 H   0  0  0  0  0  0  0  0  0  0  0  0
    1.5669   -1.8145    1.5807 H   0  0  0  0  0  0  0  0  0  0  0  0
    3.9827   -1.9172    1.5453 H   0  0  0  0  0  0  0  0  0  0  0  0
    5.9941   -1.1187    0.8240 H   0  0  0  0  0  0  0  0  0  0  0  0
    7.9162   -1.0048    1.8228 H   0  0  0  0  0  0  0  0  0  0  0  0
   10.5245   -1.3196    1.6542 H   0  0  0  0  0  0  0  0  0  0  0  0
   11.4741   -0.2502   -0.5586 H   0  0  0  0  0  0  0  0  0  0  0  0
    4.0949    1.4958   -1.1039 H   0  0  0  0  0  0  0  0  0  0  0  0
    1.6812    1.5887   -1.0748 H   0  0  0  0  0  0  0  0  0  0  0  0
   -1.9769    1.7583    0.7924 H   0  0  0  0  0  0  0  0  0  0  0  0
   -4.3397    2.3674    0.4697 H   0  0  0  0  0  0  0  0  0  0  0  0
  1  2  1  0
  2  3  1  0
  3  4  1  0
  4  5  1  0
  5  6  2  0
  6  7  1  0
  7  8  2  0
  8  9  1  0
  9 10  2  0
  9 11  1  0
 11 12  1  0
 12 13  2  0
 13 14  1  0
 14 15  2  0
 15 16  1  0
 16 17  1  0
 17 18  2  0
 17 19  1  0
 19 20  2  0
 20 21  1  0
 21 22  2  0
 22 23  1  0
 15 24  1  0
 24 25  2  0
  8 26  1  0
 26 27  2  0
 27  5  1  0
 25 12  1  0
 23 19  1  0
  1 28  1  0
  1 29  1  0
  1 30  1  0
  2 31  1  0
  2 32  1  0
  3 33  1  0
  3 34  1  0
  6 35  1  0
  7 36  1  0
 11 37  1  0
 13 38  1  0
 14 39  1  0
 16 40  1  0
 20 41  1  0
 21 42  1  0
 22 43  1  0
 24 44  1  0
 25 45  1  0
 26 46  1  0
 27 47  1  0
M  END
$$$$
