
     RDKit          3D

 61 65  0  0  0  0  0  0  0  0999 V2000
    3.4992   -2.3819   -0.4362 C   0  0  0  0  0  0  0  0  0  0  0  0
    3.5399   -1.5198    0.7728 C   0  0  0  0  0  0  0  0  0  0  0  0
    2.4798   -0.9011    1.4132 C   0  0  0  0  0  0  0  0  0  0  0  0
    1.0134   -0.9160    1.0927 C   0  0  0  0  0  0  0  0  0  0  0  0
    0.6378    0.1620    0.0744 C   0  0  0  0  0  0  0  0  0  0  0  0
   -0.7705    0.1291   -0.1987 O   0  0  0  0  0  0  0  0  0  0  0  0
   -1.5523    0.7997    0.6988 C   0  0  0  0  0  0  0  0  0  0  0  0
   -1.1131    1.3506    1.6997 O   0  0  0  0  0  0  0  0  0  0  0  0
   -3.0257    0.7331    0.3063 C   0  0  0  0  0  0  0  0  0  0  0  0
   -3.5305   -0.7229    0.4088 C   0  0  0  0  0  0  0  0  0  0  0  0
   -5.0164   -0.8023    0.0215 C   0  0  0  0  0  0  0  0  0  0  0  0
   -5.1965   -0.2911   -1.4171 C   0  0  0  0  0  0  0  0  0  0  0  0
   -4.7197    1.1668   -1.5241 C   0  0  0  0  0  0  0  0  0  0  0  0
   -5.5421    2.0408   -0.5639 C   0  0  0  0  0  0  0  0  0  0  0  0
   -5.3707    1.5491    0.8912 C   0  0  0  0  0  0  0  0  0  0  0  0
   -6.1897    2.4229    1.8453 C   0  0  0  0  0  0  0  0  0  0  0  0
   -5.8377    0.0777    0.9781 C   0  0  0  0  0  0  0  0  0  0  0  0
   -3.8705    1.6125    1.2611 C   0  0  0  0  0  0  0  0  0  0  0  0
   -3.2338    1.2458   -1.1367 C   0  0  0  0  0  0  0  0  0  0  0  0
    3.0479   -0.0104    2.7695 S   0  0  0  0  0  0  0  0  0  0  0  0
    4.6638   -0.4650    2.4659 C   0  0  0  0  0  0  0  0  0  0  0  0
    4.7567   -1.2310    1.3911 N   0  0  0  0  0  4  0  0  0  0  0  0
    6.0685   -1.7328    0.9542 C   0  0  0  0  0  0  0  0  0  0  0  0
    6.5033   -1.0655   -0.3284 C   0  0  0  0  0  0  0  0  0  0  0  0
    6.5299    0.3333   -0.4545 C   0  0  0  0  0  0  0  0  0  0  0  0
    6.9439    0.9291   -1.6469 C   0  0  0  0  0  0  0  0  0  0  0  0
    7.3473    0.1393   -2.7204 C   0  0  0  0  0  0  0  0  0  0  0  0
    7.3454   -1.2476   -2.6030 C   0  0  0  0  0  0  0  0  0  0  0  0
    6.9320   -1.8487   -1.4134 C   0  0  0  0  0  0  0  0  0  0  0  0
    3.8494   -1.8295   -1.3130 H   0  0  0  0  0  0  0  0  0  0  0  0
    4.1073   -3.2817   -0.3111 H   0  0  0  0  0  0  0  0  0  0  0  0
    2.4796   -2.7176   -0.6495 H   0  0  0  0  0  0  0  0  0  0  0  0
    0.7246   -1.8988    0.6999 H   0  0  0  0  0  0  0  0  0  0  0  0
    0.4203   -0.7992    2.0077 H   0  0  0  0  0  0  0  0  0  0  0  0
    1.1493   -0.0265   -0.8768 H   0  0  0  0  0  0  0  0  0  0  0  0
    0.9485    1.1641    0.3974 H   0  0  0  0  0  0  0  0  0  0  0  0
   -2.9457   -1.3818   -0.2461 H   0  0  0  0  0  0  0  0  0  0  0  0
   -3.3888   -1.1023    1.4295 H   0  0  0  0  0  0  0  0  0  0  0  0
   -5.3593   -1.8407    0.0897 H   0  0  0  0  0  0  0  0  0  0  0  0
   -6.2518   -0.3612   -1.7095 H   0  0  0  0  0  0  0  0  0  0  0  0
   -4.6310   -0.9229   -2.1132 H   0  0  0  0  0  0  0  0  0  0  0  0
   -4.8520    1.5236   -2.5517 H   0  0  0  0  0  0  0  0  0  0  0  0
   -5.2219    3.0870   -0.6523 H   0  0  0  0  0  0  0  0  0  0  0  0
   -6.6006    2.0101   -0.8528 H   0  0  0  0  0  0  0  0  0  0  0  0
   -7.2558    2.3891    1.5954 H   0  0  0  0  0  0  0  0  0  0  0  0
   -5.8685    3.4693    1.7974 H   0  0  0  0  0  0  0  0  0  0  0  0
   -6.0784    2.0866    2.8819 H   0  0  0  0  0  0  0  0  0  0  0  0
   -5.7302   -0.2949    2.0050 H   0  0  0  0  0  0  0  0  0  0  0  0
   -6.9031    0.0016    0.7257 H   0  0  0  0  0  0  0  0  0  0  0  0
   -3.5167    2.6522    1.2226 H   0  0  0  0  0  0  0  0  0  0  0  0
   -3.7294    1.2816    2.2995 H   0  0  0  0  0  0  0  0  0  0  0  0
   -2.8763    2.2797   -1.2263 H   0  0  0  0  0  0  0  0  0  0  0  0
   -2.6435    0.6553   -1.8488 H   0  0  0  0  0  0  0  0  0  0  0  0
    5.4963   -0.1469    3.0824 H   0  0  0  0  0  0  0  0  0  0  0  0
    6.0027   -2.8217    0.8460 H   0  0  0  0  0  0  0  0  0  0  0  0
    6.8251   -1.5417    1.7258 H   0  0  0  0  0  0  0  0  0  0  0  0
    6.2391    0.9865    0.3653 H   0  0  0  0  0  0  0  0  0  0  0  0
    6.9628    2.0134   -1.7408 H   0  0  0  0  0  0  0  0  0  0  0  0
    7.6758    0.6066   -3.6468 H   0  0  0  0  0  0  0  0  0  0  0  0
    7.6763   -1.8593   -3.4406 H   0  0  0  0  0  0  0  0  0  0  0  0
    6.9561   -2.9358   -1.3524 H   0  0  0  0  0  0  0  0  0  0  0  0
  1  2  1  0
  2  3  2  0
  3  4  1  0
  4  5  1  0
  5  6  1  0
  6  7  1  0
  7  8  2  0
  7  9  1  0
  9 10  1  0
 10 11  1  0
 11 12  1  0
 12 13  1  0
 13 14  1  0
 14 15  1  0
 15 16  1  0
 15 17  1  0
 15 18  1  0
 13 19  1  0
  3 20  1  0
 20 21  1  0
 21 22  2  0
 22 23  1  0
 23 24  1  0
 24 25  2  0
 25 26  1  0
 26 27  2  0
 27 28  1  0
 28 29  2  0
 22  2  1  0
 29 24  1  0
 18  9  1  0
 19  9  1  0
 17 11  1  0
  1 30  1  0
  1 31  1  0
  1 32  1  0
  4 33  1  0
  4 34  1  0
  5 35  1  0
  5 36  1  0
 10 37  1  0
 10 38  1  0
 11 39  1  0
 12 40  1  0
 12 41  1  0
 13 42  1  0
 14 43  1  0
 14 44  1  0
 16 45  1  0
 16 46  1  0
 16 47  1  0
 17 48  1  0
 17 49  1  0
 18 50  1  0
 18 51  1  0
 19 52  1  0
 19 53  1  0
 21 54  1  0
 23 55  1  0
 23 56  1  0
 25 57  1  0
 26 58  1  0
 27 59  1  0
 28 60  1  0
 29 61  1  0
M  CHG  1  22   1
M  END
$$$$
