
     RDKit          3D

 36 38  0  0  0  0  0  0  0  0999 V2000
    6.3629    0.9620   -3.4246 Br  0  0  0  0  0  0  0  0  0  0  0  0
    5.1009    0.3179   -2.1737 C   0  0  0  0  0  0  0  0  0  0  0  0
    5.4570    0.1958   -0.8314 C   0  0  0  0  0  0  0  0  0  0  0  0
    4.5235   -0.2790    0.0967 C   0  0  0  0  0  0  0  0  0  0  0  0
    3.2305   -0.6364   -0.3141 C   0  0  0  0  0  0  0  0  0  0  0  0
    2.2322   -1.1299    0.6271 C   0  0  0  0  0  0  0  0  0  0  0  0
    2.5224   -1.8647    1.7562 C   0  0  0  0  0  0  0  0  0  0  0  0
    1.0760   -2.2732    2.5741 S   0  0  0  0  0  0  0  0  0  0  0  0
    0.1511   -1.4405    1.3730 C   0  0  0  0  0  0  0  0  0  0  0  0
   -1.1974   -1.4154    1.5231 N   0  0  0  0  0  0  0  0  0  0  0  0
   -1.9323   -0.7353    0.6960 C   0  0  0  0  0  0  0  0  0  0  0  0
   -3.4333   -0.7866    0.9763 C   0  0  0  0  0  0  0  0  0  0  0  0
   -3.9895    0.5872    1.3184 C   0  0  0  0  0  0  0  0  0  0  0  0
   -4.3918    1.4016    0.0884 C   0  0  0  0  0  0  0  0  0  0  0  0
   -3.4505    1.3145   -1.1134 C   0  0  0  0  0  0  0  0  0  0  0  0
   -1.9738    1.3099   -0.7476 C   0  0  0  0  0  0  0  0  0  0  0  0
   -1.4973   -0.0174   -0.4023 N   0  0  0  0  0  0  0  0  0  0  0  0
    0.8830   -0.8978    0.4170 N   0  0  0  0  0  0  0  0  0  0  0  0
    2.8878   -0.4988   -1.6704 C   0  0  0  0  0  0  0  0  0  0  0  0
    3.8196   -0.0261   -2.5990 C   0  0  0  0  0  0  0  0  0  0  0  0
    6.4529    0.4726   -0.4947 H   0  0  0  0  0  0  0  0  0  0  0  0
    4.8179   -0.3460    1.1425 H   0  0  0  0  0  0  0  0  0  0  0  0
    3.4803   -2.1900    2.1336 H   0  0  0  0  0  0  0  0  0  0  0  0
   -3.9456   -1.2316    0.1167 H   0  0  0  0  0  0  0  0  0  0  0  0
   -3.5997   -1.4551    1.8295 H   0  0  0  0  0  0  0  0  0  0  0  0
   -3.2612    1.1558    1.9094 H   0  0  0  0  0  0  0  0  0  0  0  0
   -4.8799    0.4713    1.9489 H   0  0  0  0  0  0  0  0  0  0  0  0
   -4.4981    2.4506    0.3895 H   0  0  0  0  0  0  0  0  0  0  0  0
   -5.3886    1.0864   -0.2403 H   0  0  0  0  0  0  0  0  0  0  0  0
   -3.6558    2.1805   -1.7556 H   0  0  0  0  0  0  0  0  0  0  0  0
   -3.6956    0.4282   -1.7123 H   0  0  0  0  0  0  0  0  0  0  0  0
   -1.4039    1.6400   -1.6248 H   0  0  0  0  0  0  0  0  0  0  0  0
   -1.7513    2.0201    0.0570 H   0  0  0  0  0  0  0  0  0  0  0  0
   -0.4757   -0.0702   -0.4744 H   0  0  0  0  0  0  0  0  0  0  0  0
    1.8897   -0.7687   -2.0124 H   0  0  0  0  0  0  0  0  0  0  0  0
    3.5338    0.0684   -3.6439 H   0  0  0  0  0  0  0  0  0  0  0  0
  1  2  1  0
  2  3  2  0
  3  4  1  0
  4  5  2  0
  5  6  1  0
  6  7  2  0
  7  8  1  0
  8  9  1  0
  9 10  1  0
 10 11  2  3
 11 12  1  0
 12 13  1  0
 13 14  1  0
 14 15  1  0
 15 16  1  0
 16 17  1  0
  9 18  2  0
  5 19  1  0
 19 20  2  0
 20  2  1  0
 18  6  1  0
 17 11  1  0
  3 21  1  0
  4 22  1  0
  7 23  1  0
 12 24  1  0
 12 25  1  0
 13 26  1  0
 13 27  1  0
 14 28  1  0
 14 29  1  0
 15 30  1  0
 15 31  1  0
 16 32  1  0
 16 33  1  0
 17 34  1  0
 19 35  1  0
 20 36  1  0
M  END
$$$$
