
     RDKit          3D

 42 44  0  0  0  0  0  0  0  0999 V2000
    1.6140    4.1294    1.7246 C   0  0  0  0  0  0  0  0  0  0  0  0
   -0.0356    3.4316    2.0008 S   0  0  0  0  0  0  0  0  0  0  0  0
    0.0760    1.9154    1.0480 C   0  0  0  0  0  0  0  0  0  0  0  0
    1.3238    1.4802    0.7717 N   0  0  0  0  0  0  0  0  0  0  0  0
    1.4381    0.2950    0.1523 C   0  0  0  0  0  0  0  0  0  0  0  0
    2.7971   -0.2068   -0.1393 C   0  0  0  0  0  0  0  0  0  0  0  0
    3.0082   -1.4949   -0.6726 C   0  0  0  0  0  0  0  0  0  0  0  0
    4.2936   -1.9742   -0.9456 C   0  0  0  0  0  0  0  0  0  0  0  0
    5.4021   -1.1732   -0.6925 C   0  0  0  0  0  0  0  0  0  0  0  0
    5.2266    0.1049   -0.1677 C   0  0  0  0  0  0  0  0  0  0  0  0
    3.9403    0.5795    0.1044 C   0  0  0  0  0  0  0  0  0  0  0  0
    0.3923   -0.4727   -0.2061 N   0  0  0  0  0  0  0  0  0  0  0  0
   -0.8532   -0.0209    0.0447 C   0  0  0  0  0  0  0  0  0  0  0  0
   -1.9525   -0.8214   -0.3435 N   0  0  0  0  0  0  0  0  0  0  0  0
   -2.5759   -0.3067   -1.5918 C   0  0  0  0  0  0  0  0  0  0  0  0
   -3.8142   -1.1553   -1.9291 C   0  0  0  0  0  0  0  0  0  0  0  0
   -3.4786   -2.5465   -2.0685 O   0  0  0  0  0  0  0  0  0  0  0  0
   -2.8729   -3.0449   -0.8633 C   0  0  0  0  0  0  0  0  0  0  0  0
   -1.6052   -2.2545   -0.5031 C   0  0  0  0  0  0  0  0  0  0  0  0
   -1.0492    1.1914    0.6959 C   0  0  0  0  0  0  0  0  0  0  0  0
   -2.4008    1.6417    1.0485 C   0  0  0  0  0  0  0  0  0  0  0  0
   -3.0864    0.9447    2.1893 C   0  0  0  0  0  0  0  0  0  0  0  0
   -2.9259    2.5493    0.4096 O   0  0  0  0  0  0  0  0  0  0  0  0
    2.3944    3.4840    2.1362 H   0  0  0  0  0  0  0  0  0  0  0  0
    1.6783    5.0985    2.2258 H   0  0  0  0  0  0  0  0  0  0  0  0
    1.7868    4.2845    0.6578 H   0  0  0  0  0  0  0  0  0  0  0  0
    2.1596   -2.1445   -0.8816 H   0  0  0  0  0  0  0  0  0  0  0  0
    4.4250   -2.9734   -1.3565 H   0  0  0  0  0  0  0  0  0  0  0  0
    6.4012   -1.5434   -0.9052 H   0  0  0  0  0  0  0  0  0  0  0  0
    6.0894    0.7360    0.0289 H   0  0  0  0  0  0  0  0  0  0  0  0
    3.8358    1.5838    0.5105 H   0  0  0  0  0  0  0  0  0  0  0  0
   -2.8854    0.7385   -1.4954 H   0  0  0  0  0  0  0  0  0  0  0  0
   -1.8558   -0.3743   -2.4172 H   0  0  0  0  0  0  0  0  0  0  0  0
   -4.5868   -1.0506   -1.1549 H   0  0  0  0  0  0  0  0  0  0  0  0
   -4.2431   -0.8231   -2.8779 H   0  0  0  0  0  0  0  0  0  0  0  0
   -3.6095   -3.0015   -0.0482 H   0  0  0  0  0  0  0  0  0  0  0  0
   -2.6199   -4.0958   -1.0324 H   0  0  0  0  0  0  0  0  0  0  0  0
   -0.8702   -2.3873   -1.3095 H   0  0  0  0  0  0  0  0  0  0  0  0
   -1.1887   -2.6525    0.4297 H   0  0  0  0  0  0  0  0  0  0  0  0
   -3.9635    0.4126    1.8140 H   0  0  0  0  0  0  0  0  0  0  0  0
   -3.3891    1.6902    2.9336 H   0  0  0  0  0  0  0  0  0  0  0  0
   -2.4203    0.2269    2.6758 H   0  0  0  0  0  0  0  0  0  0  0  0
  1  2  1  0
  2  3  1  0
  3  4  2  0
  4  5  1  0
  5  6  1  0
  6  7  2  0
  7  8  1  0
  8  9  2  0
  9 10  1  0
 10 11  2  0
  5 12  2  0
 12 13  1  0
 13 14  1  0
 14 15  1  0
 15 16  1  0
 16 17  1  0
 17 18  1  0
 18 19  1  0
 13 20  2  0
 20 21  1  0
 21 22  1  0
 21 23  2  0
 20  3  1  0
 11  6  1  0
 19 14  1  0
  1 24  1  0
  1 25  1  0
  1 26  1  0
  7 27  1  0
  8 28  1  0
  9 29  1  0
 10 30  1  0
 11 31  1  0
 15 32  1  0
 15 33  1  0
 16 34  1  0
 16 35  1  0
 18 36  1  0
 18 37  1  0
 19 38  1  0
 19 39  1  0
 22 40  1  0
 22 41  1  0
 22 42  1  0
M  END
$$$$
