
     RDKit          3D

 40 44  0  0  0  0  0  0  0  0999 V2000
    7.6733    2.0158   -1.2123 O   0  0  0  0  0  0  0  0  0  0  0  0
    6.5379    1.8053   -0.8270 C   0  0  0  0  0  0  0  0  0  0  0  0
    5.7980    2.7813   -0.2727 O   0  0  0  0  0  0  0  0  0  0  0  0
    5.8240    0.5078   -0.9012 C   0  0  0  0  0  0  0  0  0  0  0  0
    6.4968   -0.5844   -1.4585 C   0  0  0  0  0  0  0  0  0  0  0  0
    5.8622   -1.8213   -1.5475 C   0  0  0  0  0  0  0  0  0  0  0  0
    4.5537   -1.9702   -1.0796 C   0  0  0  0  0  0  0  0  0  0  0  0
    3.8584   -0.8885   -0.5160 C   0  0  0  0  0  0  0  0  0  0  0  0
    2.4902   -1.0591   -0.0306 C   0  0  0  0  0  0  0  0  0  0  0  0
    1.6129   -2.1176    0.0371 C   0  0  0  0  0  0  0  0  0  0  0  0
    0.4273   -1.6193    0.6310 C   0  0  0  0  0  0  0  0  0  0  0  0
    0.6073   -0.2664    0.8844 C   0  0  0  0  0  0  0  0  0  0  0  0
   -0.2272    0.7121    1.4865 C   0  0  0  0  0  0  0  0  0  0  0  0
   -1.5518    0.8460    1.3275 C   0  0  0  0  0  0  0  0  0  0  0  0
   -2.4159    2.1369    2.1707 S   0  0  0  0  0  0  0  0  0  0  0  0
   -3.8893    1.6339    1.4473 C   0  0  0  0  0  0  0  0  0  0  0  0
   -5.1142    2.0695    1.5396 N   0  0  0  0  0  0  0  0  0  0  0  0
   -5.8156    1.2267    0.7000 C   0  0  0  0  0  0  0  0  0  0  0  0
   -7.1845    1.2153    0.3942 C   0  0  0  0  0  0  0  0  0  0  0  0
   -7.6686    0.2506   -0.4988 C   0  0  0  0  0  0  0  0  0  0  0  0
   -6.8096   -0.6865   -1.0782 C   0  0  0  0  0  0  0  0  0  0  0  0
   -5.4407   -0.6962   -0.7892 C   0  0  0  0  0  0  0  0  0  0  0  0
   -4.9780    0.2750    0.1047 C   0  0  0  0  0  0  0  0  0  0  0  0
   -3.7414    0.5743    0.6185 N   0  0  0  0  0  0  0  0  0  0  0  0
   -2.4778    0.0448    0.4642 C   0  0  0  0  0  0  0  0  0  0  0  0
   -2.2694   -0.8998   -0.2714 O   0  0  0  0  0  0  0  0  0  0  0  0
    1.8907    0.0475    0.4940 O   0  0  0  0  0  0  0  0  0  0  0  0
    4.5111    0.3526   -0.4335 C   0  0  0  0  0  0  0  0  0  0  0  0
    6.3879    3.5637   -0.2914 H   0  0  0  0  0  0  0  0  0  0  0  0
    7.5159   -0.4741   -1.8248 H   0  0  0  0  0  0  0  0  0  0  0  0
    6.3849   -2.6704   -1.9815 H   0  0  0  0  0  0  0  0  0  0  0  0
    4.0841   -2.9477   -1.1637 H   0  0  0  0  0  0  0  0  0  0  0  0
    1.7961   -3.1305   -0.2910 H   0  0  0  0  0  0  0  0  0  0  0  0
   -0.4613   -2.1955    0.8499 H   0  0  0  0  0  0  0  0  0  0  0  0
    0.3046    1.4341    2.1037 H   0  0  0  0  0  0  0  0  0  0  0  0
   -7.8497    1.9442    0.8447 H   0  0  0  0  0  0  0  0  0  0  0  0
   -8.7285    0.2333   -0.7433 H   0  0  0  0  0  0  0  0  0  0  0  0
   -7.2125   -1.4246   -1.7698 H   0  0  0  0  0  0  0  0  0  0  0  0
   -4.7734   -1.4245   -1.2412 H   0  0  0  0  0  0  0  0  0  0  0  0
    3.9922    1.2059   -0.0015 H   0  0  0  0  0  0  0  0  0  0  0  0
  1  2  2  0
  2  3  1  0
  2  4  1  0
  4  5  2  0
  5  6  1  0
  6  7  2  0
  7  8  1  0
  8  9  1  0
  9 10  2  0
 10 11  1  0
 11 12  2  0
 12 13  1  0
 13 14  2  3
 14 15  1  0
 15 16  1  0
 16 17  2  0
 17 18  1  0
 18 19  2  0
 19 20  1  0
 20 21  2  0
 21 22  1  0
 22 23  2  0
 23 24  1  0
 24 25  1  0
 25 26  2  0
 12 27  1  0
  8 28  2  0
 28  4  1  0
 27  9  1  0
 25 14  1  0
 24 16  1  0
 23 18  1  0
  3 29  1  0
  5 30  1  0
  6 31  1  0
  7 32  1  0
 10 33  1  0
 11 34  1  0
 13 35  1  0
 19 36  1  0
 20 37  1  0
 21 38  1  0
 22 39  1  0
 28 40  1  0
M  END
$$$$
