
     RDKit          3D

 37 39  0  0  0  0  0  0  0  0999 V2000
   -5.5326    1.1087    0.3558 C   0  0  0  0  0  0  0  0  0  0  0  0
   -4.4822    0.2552    1.0027 C   0  0  0  0  0  0  0  0  0  0  0  0
   -4.7749   -0.5574    2.0287 C   0  0  0  0  0  0  0  0  0  0  0  0
   -3.7820   -1.4128    2.6963 C   0  0  0  0  0  0  0  0  0  0  0  0
   -4.1064   -2.1364    3.6306 O   0  0  0  0  0  0  0  0  0  0  0  0
   -2.4849   -1.3548    2.2180 O   0  0  0  0  0  0  0  0  0  0  0  0
   -2.1414   -0.5120    1.1409 C   0  0  0  0  0  0  0  0  0  0  0  0
   -0.7992   -0.5379    0.7450 C   0  0  0  0  0  0  0  0  0  0  0  0
   -0.3864    0.2675   -0.3111 C   0  0  0  0  0  0  0  0  0  0  0  0
    0.8765    0.3629   -0.8224 O   0  0  0  0  0  0  0  0  0  0  0  0
    1.9132   -0.4452   -0.2629 C   0  0  0  0  0  0  0  0  0  0  0  0
    1.8204   -1.9364   -0.6201 C   0  0  0  0  0  0  0  0  0  0  0  0
    2.1481   -2.8648    0.1066 O   0  0  0  0  0  0  0  0  0  0  0  0
    1.3481   -2.1885   -1.8605 O   0  0  0  0  0  0  0  0  0  0  0  0
    3.2574    0.1099   -0.7199 C   0  0  0  0  0  0  0  0  0  0  0  0
    3.4563    0.5340   -2.0441 C   0  0  0  0  0  0  0  0  0  0  0  0
    4.6989    1.0166   -2.4574 C   0  0  0  0  0  0  0  0  0  0  0  0
    5.7597    1.0749   -1.5562 C   0  0  0  0  0  0  0  0  0  0  0  0
    5.5805    0.6485   -0.2419 C   0  0  0  0  0  0  0  0  0  0  0  0
    4.3385    0.1657    0.1747 C   0  0  0  0  0  0  0  0  0  0  0  0
   -1.3266    1.0831   -0.9476 C   0  0  0  0  0  0  0  0  0  0  0  0
   -2.6670    1.0987   -0.5405 C   0  0  0  0  0  0  0  0  0  0  0  0
   -3.0961    0.2942    0.5183 C   0  0  0  0  0  0  0  0  0  0  0  0
   -6.5138    0.9716    0.8241 H   0  0  0  0  0  0  0  0  0  0  0  0
   -5.6420    0.8549   -0.7039 H   0  0  0  0  0  0  0  0  0  0  0  0
   -5.2787    2.1706    0.4422 H   0  0  0  0  0  0  0  0  0  0  0  0
   -5.7779   -0.6328    2.4336 H   0  0  0  0  0  0  0  0  0  0  0  0
   -0.1248   -1.1929    1.2852 H   0  0  0  0  0  0  0  0  0  0  0  0
    1.8751   -0.3535    0.8305 H   0  0  0  0  0  0  0  0  0  0  0  0
    1.3728   -3.1648   -1.9349 H   0  0  0  0  0  0  0  0  0  0  0  0
    2.6389    0.4895   -2.7621 H   0  0  0  0  0  0  0  0  0  0  0  0
    4.8386    1.3457   -3.4839 H   0  0  0  0  0  0  0  0  0  0  0  0
    6.7272    1.4503   -1.8791 H   0  0  0  0  0  0  0  0  0  0  0  0
    6.4102    0.6893    0.4594 H   0  0  0  0  0  0  0  0  0  0  0  0
    4.2237   -0.1700    1.2036 H   0  0  0  0  0  0  0  0  0  0  0  0
   -1.0127    1.7171   -1.7749 H   0  0  0  0  0  0  0  0  0  0  0  0
   -3.3547    1.7515   -1.0713 H   0  0  0  0  0  0  0  0  0  0  0  0
  1  2  1  0
  2  3  2  0
  3  4  1  0
  4  5  2  0
  4  6  1  0
  6  7  1  0
  7  8  2  0
  8  9  1  0
  9 10  1  0
 10 11  1  0
 11 12  1  0
 12 13  2  0
 12 14  1  0
 11 15  1  0
 15 16  2  0
 16 17  1  0
 17 18  2  0
 18 19  1  0
 19 20  2  0
  9 21  2  0
 21 22  1  0
 22 23  2  0
 23  2  1  0
 23  7  1  0
 20 15  1  0
  1 24  1  0
  1 25  1  0
  1 26  1  0
  3 27  1  0
  8 28  1  0
 11 29  1  0
 14 30  1  0
 16 31  1  0
 17 32  1  0
 18 33  1  0
 19 34  1  0
 20 35  1  0
 21 36  1  0
 22 37  1  0
M  END
$$$$
