
     RDKit          3D

 45 48  0  0  0  0  0  0  0  0999 V2000
   -5.4183   -2.3133    1.2086 C   0  0  0  0  0  0  0  0  0  0  0  0
   -4.3325   -2.1171    2.2498 C   0  0  0  0  0  0  0  0  0  0  0  0
   -3.2479   -1.3589    1.6945 O   0  0  0  0  0  0  0  0  0  0  0  0
   -2.3074   -2.0741    1.0244 C   0  0  0  0  0  0  0  0  0  0  0  0
   -2.2831   -3.2897    0.9017 O   0  0  0  0  0  0  0  0  0  0  0  0
   -1.2753   -1.1536    0.4903 C   0  0  0  0  0  0  0  0  0  0  0  0
   -1.8334    0.0364   -0.1956 C   0  0  0  0  0  0  0  0  0  0  0  0
   -2.7014   -0.0166   -1.0550 O   0  0  0  0  0  0  0  0  0  0  0  0
   -1.3521    1.1668    0.3913 O   0  0  0  0  0  0  0  0  0  0  0  0
   -1.9694    2.3946   -0.0206 C   0  0  0  0  0  0  0  0  0  0  0  0
   -1.2696    2.9681   -1.2373 C   0  0  0  0  0  0  0  0  0  0  0  0
    0.0498   -1.3789    0.7074 C   0  0  0  0  0  0  0  0  0  0  0  0
    0.4844   -2.3798    1.7541 C   0  0  0  0  0  0  0  0  0  0  0  0
    1.7140   -2.3604    2.3300 C   0  0  0  0  0  0  0  0  0  0  0  0
    2.1826   -3.5699    3.6743 Br  0  0  0  0  0  0  0  0  0  0  0  0
    2.6924   -1.4114    1.8842 C   0  0  0  0  0  0  0  0  0  0  0  0
    3.9520   -1.1691    2.2654 N   0  0  0  0  0  0  0  0  0  0  0  0
    4.4361   -0.2231    1.3496 O   0  0  0  0  0  0  0  0  0  0  0  0
    3.4643    0.0640    0.4304 C   0  0  0  0  0  0  0  0  0  0  0  0
    3.5301    0.8771   -0.7079 C   0  0  0  0  0  0  0  0  0  0  0  0
    4.7008    1.5909   -1.0237 C   0  0  0  0  0  0  0  0  0  0  0  0
    4.7341    2.3686   -2.1762 C   0  0  0  0  0  0  0  0  0  0  0  0
    3.6144    2.4332   -3.0034 C   0  0  0  0  0  0  0  0  0  0  0  0
    2.4526    1.7145   -2.6896 C   0  0  0  0  0  0  0  0  0  0  0  0
    2.3731    0.9048   -1.5344 C   0  0  0  0  0  0  0  0  0  0  0  0
    1.2243    0.1392   -1.1578 C   0  0  0  0  0  0  0  0  0  0  0  0
    0.1746   -0.0020   -2.0298 O   0  0  0  0  0  0  0  0  0  0  0  0
    1.1365   -0.5550    0.0626 C   0  0  0  0  0  0  0  0  0  0  0  0
    2.3308   -0.6178    0.7838 C   0  0  0  0  0  0  0  0  0  0  0  0
   -6.2768   -2.8379    1.6374 H   0  0  0  0  0  0  0  0  0  0  0  0
   -5.0458   -2.8906    0.3565 H   0  0  0  0  0  0  0  0  0  0  0  0
   -5.7537   -1.3475    0.8164 H   0  0  0  0  0  0  0  0  0  0  0  0
   -4.7288   -1.5393    3.0911 H   0  0  0  0  0  0  0  0  0  0  0  0
   -3.9839   -3.0750    2.6525 H   0  0  0  0  0  0  0  0  0  0  0  0
   -1.8753    3.0929    0.8176 H   0  0  0  0  0  0  0  0  0  0  0  0
   -3.0416    2.2594   -0.2039 H   0  0  0  0  0  0  0  0  0  0  0  0
   -1.6931    3.9405   -1.5042 H   0  0  0  0  0  0  0  0  0  0  0  0
   -0.1993    3.0915   -1.0442 H   0  0  0  0  0  0  0  0  0  0  0  0
   -1.3682    2.3002   -2.0982 H   0  0  0  0  0  0  0  0  0  0  0  0
   -0.2338   -3.1132    2.1100 H   0  0  0  0  0  0  0  0  0  0  0  0
    5.5765    1.5424   -0.3802 H   0  0  0  0  0  0  0  0  0  0  0  0
    5.6313    2.9284   -2.4292 H   0  0  0  0  0  0  0  0  0  0  0  0
    3.6408    3.0523   -3.8977 H   0  0  0  0  0  0  0  0  0  0  0  0
    1.5993    1.8264   -3.3544 H   0  0  0  0  0  0  0  0  0  0  0  0
    0.4960    0.1019   -2.9407 H   0  0  0  0  0  0  0  0  0  0  0  0
  1  2  1  0
  2  3  1  0
  3  4  1  0
  4  5  2  0
  4  6  1  0
  6  7  1  0
  7  8  2  0
  7  9  1  0
  9 10  1  0
 10 11  1  0
  6 12  2  3
 12 13  1  0
 13 14  2  0
 14 15  1  0
 14 16  1  0
 16 17  2  0
 17 18  1  0
 18 19  1  0
 19 20  1  0
 20 21  2  0
 21 22  1  0
 22 23  2  0
 23 24  1  0
 24 25  2  0
 25 26  1  0
 26 27  1  0
 26 28  2  0
 28 29  1  0
 28 12  1  0
 29 16  1  0
 29 19  2  0
 25 20  1  0
  1 30  1  0
  1 31  1  0
  1 32  1  0
  2 33  1  0
  2 34  1  0
 10 35  1  0
 10 36  1  0
 11 37  1  0
 11 38  1  0
 11 39  1  0
 13 40  1  0
 21 41  1  0
 22 42  1  0
 23 43  1  0
 24 44  1  0
 27 45  1  0
M  END
$$$$
