
     RDKit          3D

 66 70  0  0  0  0  0  0  0  0999 V2000
    3.6342    3.1400   -0.0314 C   0  0  0  0  0  0  0  0  0  0  0  0
    3.1220    2.4441   -1.2397 C   0  0  0  0  0  0  0  0  0  0  0  0
    1.8212    2.4051   -1.7130 C   0  0  0  0  0  0  0  0  0  0  0  0
    0.5668    3.0227   -1.1493 C   0  0  0  0  0  0  0  0  0  0  0  0
    0.0635    2.2660    0.0813 C   0  0  0  0  0  0  0  0  0  0  0  0
   -0.3992    0.9674   -0.3188 O   0  0  0  0  0  0  0  0  0  0  0  0
   -0.5687    0.0906    0.7112 C   0  0  0  0  0  0  0  0  0  0  0  0
   -0.2805    0.3251    1.8772 O   0  0  0  0  0  0  0  0  0  0  0  0
   -1.1568   -1.2092    0.2166 C   0  0  0  0  0  0  0  0  0  0  0  0
   -2.6950   -1.2833    0.2874 C   0  0  0  0  0  0  0  0  0  0  0  0
   -3.1420   -2.6779   -0.2284 C   0  0  0  0  0  0  0  0  0  0  0  0
   -4.6711   -2.8187   -0.1781 C   0  0  0  0  0  0  0  0  0  0  0  0
   -5.1495   -2.6414    1.2710 C   0  0  0  0  0  0  0  0  0  0  0  0
   -4.7426   -1.2545    1.7912 C   0  0  0  0  0  0  0  0  0  0  0  0
   -5.3792   -0.1711    0.9033 C   0  0  0  0  0  0  0  0  0  0  0  0
   -4.9092   -0.3284   -0.5621 C   0  0  0  0  0  0  0  0  0  0  0  0
   -5.5504    0.7498   -1.4430 C   0  0  0  0  0  0  0  0  0  0  0  0
   -5.3087   -1.7349   -1.0631 C   0  0  0  0  0  0  0  0  0  0  0  0
   -3.3659   -0.2040   -0.6021 C   0  0  0  0  0  0  0  0  0  0  0  0
   -3.2113   -1.1160    1.7391 C   0  0  0  0  0  0  0  0  0  0  0  0
    1.7498    1.4838   -3.1625 S   0  0  0  0  0  0  0  0  0  0  0  0
    3.4230    1.1563   -3.1076 C   0  0  0  0  0  0  0  0  0  0  0  0
    3.9870    1.6989   -2.0407 N   0  0  0  0  0  4  0  0  0  0  0  0
    5.4257    1.5225   -1.7948 C   0  0  0  0  0  0  0  0  0  0  0  0
    5.6679    0.5878   -0.6276 C   0  0  0  0  0  0  0  0  0  0  0  0
    5.0873   -0.6939   -0.5815 C   0  0  0  0  0  0  0  0  0  0  0  0
    5.3391   -1.5548    0.4927 C   0  0  0  0  0  0  0  0  0  0  0  0
    6.1851   -1.1418    1.5299 C   0  0  0  0  0  0  0  0  0  0  0  0
    6.4606   -2.0484    2.6533 N   0  0  0  0  0  4  0  0  0  0  0  0
    6.0146   -3.2014    2.5789 O   0  0  0  0  0  0  0  0  0  0  0  0
    7.1240   -1.6022    3.5973 O   0  0  0  0  0  1  0  0  0  0  0  0
    6.7791    0.1258    1.4951 C   0  0  0  0  0  0  0  0  0  0  0  0
    6.5252    0.9807    0.4172 C   0  0  0  0  0  0  0  0  0  0  0  0
    2.8953    3.8468    0.3609 H   0  0  0  0  0  0  0  0  0  0  0  0
    3.8542    2.4216    0.7641 H   0  0  0  0  0  0  0  0  0  0  0  0
    4.5369    3.7181   -0.2548 H   0  0  0  0  0  0  0  0  0  0  0  0
   -0.2211    3.0464   -1.9128 H   0  0  0  0  0  0  0  0  0  0  0  0
    0.7783    4.0634   -0.8753 H   0  0  0  0  0  0  0  0  0  0  0  0
    0.8625    2.1836    0.8280 H   0  0  0  0  0  0  0  0  0  0  0  0
   -0.7816    2.8092    0.5192 H   0  0  0  0  0  0  0  0  0  0  0  0
   -0.8071   -1.3769   -0.8108 H   0  0  0  0  0  0  0  0  0  0  0  0
   -0.7025   -2.0128    0.8124 H   0  0  0  0  0  0  0  0  0  0  0  0
   -2.6810   -3.4696    0.3781 H   0  0  0  0  0  0  0  0  0  0  0  0
   -2.7946   -2.8294   -1.2600 H   0  0  0  0  0  0  0  0  0  0  0  0
   -4.9609   -3.8107   -0.5436 H   0  0  0  0  0  0  0  0  0  0  0  0
   -6.2392   -2.7557    1.3230 H   0  0  0  0  0  0  0  0  0  0  0  0
   -4.7167   -3.4230    1.9086 H   0  0  0  0  0  0  0  0  0  0  0  0
   -5.0873   -1.1347    2.8257 H   0  0  0  0  0  0  0  0  0  0  0  0
   -6.4731   -0.2434    0.9605 H   0  0  0  0  0  0  0  0  0  0  0  0
   -5.1087    0.8230    1.2834 H   0  0  0  0  0  0  0  0  0  0  0  0
   -6.6437    0.6774   -1.4290 H   0  0  0  0  0  0  0  0  0  0  0  0
   -5.2791    1.7546   -1.0994 H   0  0  0  0  0  0  0  0  0  0  0  0
   -5.2229    0.6517   -2.4839 H   0  0  0  0  0  0  0  0  0  0  0  0
   -6.4010   -1.8457   -1.0520 H   0  0  0  0  0  0  0  0  0  0  0  0
   -4.9887   -1.8733   -2.1049 H   0  0  0  0  0  0  0  0  0  0  0  0
   -3.0781    0.7999   -0.2633 H   0  0  0  0  0  0  0  0  0  0  0  0
   -3.0090   -0.3002   -1.6368 H   0  0  0  0  0  0  0  0  0  0  0  0
   -2.9300   -0.1328    2.1356 H   0  0  0  0  0  0  0  0  0  0  0  0
   -2.7521   -1.8653    2.3963 H   0  0  0  0  0  0  0  0  0  0  0  0
    3.9375    0.5641   -3.8559 H   0  0  0  0  0  0  0  0  0  0  0  0
    5.9142    1.1077   -2.6855 H   0  0  0  0  0  0  0  0  0  0  0  0
    5.8738    2.5080   -1.6245 H   0  0  0  0  0  0  0  0  0  0  0  0
    4.4377   -1.0545   -1.3786 H   0  0  0  0  0  0  0  0  0  0  0  0
    4.8787   -2.5433    0.5047 H   0  0  0  0  0  0  0  0  0  0  0  0
    7.4475    0.4556    2.2923 H   0  0  0  0  0  0  0  0  0  0  0  0
    7.0159    1.9554    0.4104 H   0  0  0  0  0  0  0  0  0  0  0  0
  1  2  1  0
  2  3  2  0
  3  4  1  0
  4  5  1  0
  5  6  1  0
  6  7  1  0
  7  8  2  0
  7  9  1  0
  9 10  1  0
 10 11  1  0
 11 12  1  0
 12 13  1  0
 13 14  1  0
 14 15  1  0
 15 16  1  0
 16 17  1  0
 16 18  1  0
 16 19  1  0
 14 20  1  0
  3 21  1  0
 21 22  1  0
 22 23  2  0
 23 24  1  0
 24 25  1  0
 25 26  2  0
 26 27  1  0
 27 28  2  0
 28 29  1  0
 29 30  2  0
 29 31  1  0
 28 32  1  0
 32 33  2  0
 23  2  1  0
 33 25  1  0
 19 10  1  0
 20 10  1  0
 18 12  1  0
  1 34  1  0
  1 35  1  0
  1 36  1  0
  4 37  1  0
  4 38  1  0
  5 39  1  0
  5 40  1  0
  9 41  1  0
  9 42  1  0
 11 43  1  0
 11 44  1  0
 12 45  1  0
 13 46  1  0
 13 47  1  0
 14 48  1  0
 15 49  1  0
 15 50  1  0
 17 51  1  0
 17 52  1  0
 17 53  1  0
 18 54  1  0
 18 55  1  0
 19 56  1  0
 19 57  1  0
 20 58  1  0
 20 59  1  0
 22 60  1  0
 24 61  1  0
 24 62  1  0
 26 63  1  0
 27 64  1  0
 32 65  1  0
 33 66  1  0
M  CHG  3  23   1  29   1  31  -1
M  END
$$$$
