
     RDKit          3D

 36 37  0  0  0  0  0  0  0  0999 V2000
    1.6372    1.7691   -2.9143 C   0  0  0  0  0  0  0  0  0  0  0  0
    1.3054    0.6245   -2.1350 O   0  0  0  0  0  0  0  0  0  0  0  0
    2.1550    0.3297   -1.1006 C   0  0  0  0  0  0  0  0  0  0  0  0
    2.9572    1.2782   -0.4570 C   0  0  0  0  0  0  0  0  0  0  0  0
    3.7734    0.9049    0.6132 C   0  0  0  0  0  0  0  0  0  0  0  0
    3.7887   -0.4149    1.0525 C   0  0  0  0  0  0  0  0  0  0  0  0
    2.9868   -1.3645    0.4230 C   0  0  0  0  0  0  0  0  0  0  0  0
    2.1616   -1.0042   -0.6564 C   0  0  0  0  0  0  0  0  0  0  0  0
    1.3073   -2.0700   -1.3064 C   0  0  0  0  0  0  0  0  0  0  0  0
    0.1925   -2.5642   -0.4020 C   0  0  0  0  0  0  0  0  0  0  0  0
    0.2216   -3.6976    0.0684 O   0  0  0  0  0  0  0  0  0  0  0  0
   -0.8095   -1.6277   -0.2177 N   0  0  0  0  0  0  0  0  0  0  0  0
   -1.8966   -1.7727    0.6225 C   0  0  0  0  0  0  0  0  0  0  0  0
   -2.3175   -2.8464    1.0414 O   0  0  0  0  0  0  0  0  0  0  0  0
   -2.6434   -0.5186    0.9737 C   0  0  0  0  0  0  0  0  0  0  0  0
   -3.7803   -0.6524    1.7889 C   0  0  0  0  0  0  0  0  0  0  0  0
   -4.5267    0.4654    2.1691 C   0  0  0  0  0  0  0  0  0  0  0  0
   -4.1462    1.7341    1.7403 C   0  0  0  0  0  0  0  0  0  0  0  0
   -3.0201    1.8887    0.9321 C   0  0  0  0  0  0  0  0  0  0  0  0
   -2.2741    0.7683    0.5524 C   0  0  0  0  0  0  0  0  0  0  0  0
   -1.1736    0.9495   -0.2430 O   0  0  0  0  0  0  0  0  0  0  0  0
    2.6899    1.7616   -3.2169 H   0  0  0  0  0  0  0  0  0  0  0  0
    1.0284    1.7408   -3.8232 H   0  0  0  0  0  0  0  0  0  0  0  0
    1.3872    2.6886   -2.3759 H   0  0  0  0  0  0  0  0  0  0  0  0
    2.9608    2.3205   -0.7577 H   0  0  0  0  0  0  0  0  0  0  0  0
    4.3952    1.6469    1.1079 H   0  0  0  0  0  0  0  0  0  0  0  0
    4.4211   -0.7065    1.8874 H   0  0  0  0  0  0  0  0  0  0  0  0
    3.0035   -2.3940    0.7802 H   0  0  0  0  0  0  0  0  0  0  0  0
    1.9451   -2.9228   -1.5719 H   0  0  0  0  0  0  0  0  0  0  0  0
    0.8636   -1.7326   -2.2498 H   0  0  0  0  0  0  0  0  0  0  0  0
   -0.6017   -0.6795   -0.5188 H   0  0  0  0  0  0  0  0  0  0  0  0
   -4.0915   -1.6373    2.1357 H   0  0  0  0  0  0  0  0  0  0  0  0
   -5.4036    0.3405    2.8003 H   0  0  0  0  0  0  0  0  0  0  0  0
   -4.7288    2.6031    2.0371 H   0  0  0  0  0  0  0  0  0  0  0  0
   -2.7433    2.8878    0.6079 H   0  0  0  0  0  0  0  0  0  0  0  0
   -1.0244    1.9035   -0.3706 H   0  0  0  0  0  0  0  0  0  0  0  0
  1  2  1  0
  2  3  1  0
  3  4  2  0
  4  5  1  0
  5  6  2  0
  6  7  1  0
  7  8  2  0
  8  9  1  0
  9 10  1  0
 10 11  2  0
 10 12  1  0
 12 13  1  0
 13 14  2  0
 13 15  1  0
 15 16  2  0
 16 17  1  0
 17 18  2  0
 18 19  1  0
 19 20  2  0
 20 21  1  0
  8  3  1  0
 20 15  1  0
  1 22  1  0
  1 23  1  0
  1 24  1  0
  4 25  1  0
  5 26  1  0
  6 27  1  0
  7 28  1  0
  9 29  1  0
  9 30  1  0
 12 31  1  0
 16 32  1  0
 17 33  1  0
 18 34  1  0
 19 35  1  0
 21 36  1  0
M  END
$$$$
