
     RDKit          3D

 46 48  0  0  0  0  0  0  0  0999 V2000
    5.7655    3.0655   -3.5471 C   0  0  0  0  0  0  0  0  0  0  0  0
    5.5736    1.6716   -3.3488 O   0  0  0  0  0  0  0  0  0  0  0  0
    5.8540    1.2434   -2.0120 C   0  0  0  0  0  0  0  0  0  0  0  0
    4.7159    1.5614   -1.0425 C   0  0  0  0  0  0  0  0  0  0  0  0
    3.5445    0.8422   -1.4571 O   0  0  0  0  0  0  0  0  0  0  0  0
    2.4337    1.0787   -0.7057 C   0  0  0  0  0  0  0  0  0  0  0  0
    2.4182    1.8190    0.2711 O   0  0  0  0  0  0  0  0  0  0  0  0
    1.2625    0.3614   -1.1794 C   0  0  0  0  0  0  0  0  0  0  0  0
    1.1522   -0.3968   -2.3375 C   0  0  0  0  0  0  0  0  0  0  0  0
    2.0841   -0.7387   -3.4366 C   0  0  0  0  0  0  0  0  0  0  0  0
   -0.1033   -0.9146   -2.4527 O   0  0  0  0  0  0  0  0  0  0  0  0
   -0.8143   -0.4976   -1.3746 C   0  0  0  0  0  0  0  0  0  0  0  0
   -2.1460   -0.8158   -1.1185 C   0  0  0  0  0  0  0  0  0  0  0  0
   -2.7004   -0.2890    0.0526 C   0  0  0  0  0  0  0  0  0  0  0  0
   -1.9438    0.5174    0.9051 C   0  0  0  0  0  0  0  0  0  0  0  0
   -2.5248    0.9967    2.1123 N   0  0  0  0  0  0  0  0  0  0  0  0
   -2.4238    0.0063    3.4822 S   0  0  0  0  0  6  0  0  0  0  0  0
   -2.7534    0.8503    4.6116 O   0  0  0  0  0  0  0  0  0  0  0  0
   -1.1898   -0.7474    3.4471 O   0  0  0  0  0  0  0  0  0  0  0  0
   -3.7851   -1.1123    3.2519 C   0  0  0  0  0  0  0  0  0  0  0  0
   -3.5413   -2.4354    2.8642 C   0  0  0  0  0  0  0  0  0  0  0  0
   -4.6168   -3.3084    2.6975 C   0  0  0  0  0  0  0  0  0  0  0  0
   -5.9130   -2.8552    2.9281 C   0  0  0  0  0  0  0  0  0  0  0  0
   -6.9423   -3.6963    2.7659 F   0  0  0  0  0  0  0  0  0  0  0  0
   -6.1582   -1.5438    3.3266 C   0  0  0  0  0  0  0  0  0  0  0  0
   -5.0891   -0.6634    3.4952 C   0  0  0  0  0  0  0  0  0  0  0  0
   -0.6034    0.8153    0.6237 C   0  0  0  0  0  0  0  0  0  0  0  0
   -0.0251    0.2962   -0.5529 C   0  0  0  0  0  0  0  0  0  0  0  0
    6.7892    3.3545   -3.2906 H   0  0  0  0  0  0  0  0  0  0  0  0
    5.0500    3.6474   -2.9608 H   0  0  0  0  0  0  0  0  0  0  0  0
    5.5989    3.2852   -4.6052 H   0  0  0  0  0  0  0  0  0  0  0  0
    5.9860    0.1571   -2.0627 H   0  0  0  0  0  0  0  0  0  0  0  0
    6.7982    1.6798   -1.6674 H   0  0  0  0  0  0  0  0  0  0  0  0
    4.4978    2.6340   -1.0365 H   0  0  0  0  0  0  0  0  0  0  0  0
    4.9971    1.2371   -0.0343 H   0  0  0  0  0  0  0  0  0  0  0  0
    1.5847   -1.3302   -4.2106 H   0  0  0  0  0  0  0  0  0  0  0  0
    2.4726    0.1691   -3.9084 H   0  0  0  0  0  0  0  0  0  0  0  0
    2.9262   -1.3254   -3.0571 H   0  0  0  0  0  0  0  0  0  0  0  0
   -2.7164   -1.4398   -1.7960 H   0  0  0  0  0  0  0  0  0  0  0  0
   -3.7404   -0.5069    0.2834 H   0  0  0  0  0  0  0  0  0  0  0  0
   -2.3308    1.9655    2.3676 H   0  0  0  0  0  0  0  0  0  0  0  0
   -2.5268   -2.7881    2.6893 H   0  0  0  0  0  0  0  0  0  0  0  0
   -4.4540   -4.3382    2.3940 H   0  0  0  0  0  0  0  0  0  0  0  0
   -7.1787   -1.2199    3.5073 H   0  0  0  0  0  0  0  0  0  0  0  0
   -5.2737    0.3599    3.8147 H   0  0  0  0  0  0  0  0  0  0  0  0
   -0.0103    1.4202    1.3038 H   0  0  0  0  0  0  0  0  0  0  0  0
  1  2  1  0
  2  3  1  0
  3  4  1  0
  4  5  1  0
  5  6  1  0
  6  7  2  0
  6  8  1  0
  8  9  2  0
  9 10  1  0
  9 11  1  0
 11 12  1  0
 12 13  2  0
 13 14  1  0
 14 15  2  0
 15 16  1  0
 16 17  1  0
 17 18  2  0
 17 19  2  0
 17 20  1  0
 20 21  2  0
 21 22  1  0
 22 23  2  0
 23 24  1  0
 23 25  1  0
 25 26  2  0
 15 27  1  0
 27 28  2  0
 28  8  1  0
 28 12  1  0
 26 20  1  0
  1 29  1  0
  1 30  1  0
  1 31  1  0
  3 32  1  0
  3 33  1  0
  4 34  1  0
  4 35  1  0
 10 36  1  0
 10 37  1  0
 10 38  1  0
 13 39  1  0
 14 40  1  0
 16 41  1  0
 21 42  1  0
 22 43  1  0
 25 44  1  0
 26 45  1  0
 27 46  1  0
M  END
$$$$
