
     RDKit          3D

 42 43  0  0  0  0  0  0  0  0999 V2000
   -2.3299    2.4169    0.7528 C   0  0  0  0  0  0  0  0  0  0  0  0
   -0.9240    1.8961    0.8701 C   0  0  0  0  0  0  0  0  0  0  0  0
    0.1393    2.8099    0.7466 C   0  0  0  0  0  0  0  0  0  0  0  0
    1.4680    2.3918    0.8452 C   0  0  0  0  0  0  0  0  0  0  0  0
    1.7477    1.0452    1.0693 C   0  0  0  0  0  0  0  0  0  0  0  0
    3.4331    0.4901    1.1862 S   0  0  0  0  0  6  0  0  0  0  0  0
    3.5336   -0.2794    2.4113 O   0  0  0  0  0  0  0  0  0  0  0  0
    4.2965    1.6330    0.9523 O   0  0  0  0  0  0  0  0  0  0  0  0
    3.6821   -0.6211   -0.1833 C   0  0  0  0  0  0  0  0  0  0  0  0
    3.8718   -0.0919   -1.4645 C   0  0  0  0  0  0  0  0  0  0  0  0
    4.0639   -0.9583   -2.5424 C   0  0  0  0  0  0  0  0  0  0  0  0
    4.0718   -2.3383   -2.3318 C   0  0  0  0  0  0  0  0  0  0  0  0
    4.3019   -3.4016   -3.6641 Cl  0  0  0  0  0  0  0  0  0  0  0  0
    3.8958   -2.8626   -1.0502 C   0  0  0  0  0  0  0  0  0  0  0  0
    3.7046   -2.0025    0.0332 C   0  0  0  0  0  0  0  0  0  0  0  0
    0.7155    0.1147    1.2043 C   0  0  0  0  0  0  0  0  0  0  0  0
   -0.6181    0.5379    1.0923 C   0  0  0  0  0  0  0  0  0  0  0  0
   -1.8910   -0.7083    1.2482 S   0  0  0  0  0  6  0  0  0  0  0  0
   -2.7899   -0.2887    2.2985 O   0  0  0  0  0  0  0  0  0  0  0  0
   -1.2435   -2.0037    1.3032 O   0  0  0  0  0  0  0  0  0  0  0  0
   -2.7045   -0.6497   -0.2555 N   0  0  0  0  0  0  0  0  0  0  0  0
   -1.8823   -1.0201   -1.4284 C   0  0  0  0  0  0  0  0  0  0  0  0
   -3.9938   -1.4092   -0.2395 C   0  0  0  0  0  0  0  0  0  0  0  0
   -5.0836   -0.8080    0.6168 C   0  0  0  0  0  0  0  0  0  0  0  0
   -5.9218   -1.4365    1.2456 O   0  0  0  0  0  0  0  0  0  0  0  0
   -5.1374    0.5400    0.5747 O   0  0  0  0  0  0  0  0  0  0  0  0
   -2.3424    3.5091    0.6639 H   0  0  0  0  0  0  0  0  0  0  0  0
   -2.8143    2.0194   -0.1426 H   0  0  0  0  0  0  0  0  0  0  0  0
   -2.9150    2.1710    1.6424 H   0  0  0  0  0  0  0  0  0  0  0  0
   -0.0631    3.8673    0.5777 H   0  0  0  0  0  0  0  0  0  0  0  0
    2.2683    3.1240    0.7539 H   0  0  0  0  0  0  0  0  0  0  0  0
    3.8808    0.9837   -1.6293 H   0  0  0  0  0  0  0  0  0  0  0  0
    4.2141   -0.5542   -3.5407 H   0  0  0  0  0  0  0  0  0  0  0  0
    3.9117   -3.9380   -0.8885 H   0  0  0  0  0  0  0  0  0  0  0  0
    3.5773   -2.4170    1.0317 H   0  0  0  0  0  0  0  0  0  0  0  0
    0.9483   -0.9297    1.4057 H   0  0  0  0  0  0  0  0  0  0  0  0
   -1.6386   -2.0866   -1.4200 H   0  0  0  0  0  0  0  0  0  0  0  0
   -2.4341   -0.7967   -2.3476 H   0  0  0  0  0  0  0  0  0  0  0  0
   -0.9600   -0.4352   -1.4660 H   0  0  0  0  0  0  0  0  0  0  0  0
   -4.3983   -1.4654   -1.2571 H   0  0  0  0  0  0  0  0  0  0  0  0
   -3.8067   -2.4354    0.0980 H   0  0  0  0  0  0  0  0  0  0  0  0
   -5.8336    0.7621    1.2274 H   0  0  0  0  0  0  0  0  0  0  0  0
  1  2  1  0
  2  3  2  0
  3  4  1  0
  4  5  2  0
  5  6  1  0
  6  7  2  0
  6  8  2  0
  6  9  1  0
  9 10  2  0
 10 11  1  0
 11 12  2  0
 12 13  1  0
 12 14  1  0
 14 15  2  0
  5 16  1  0
 16 17  2  0
 17 18  1  0
 18 19  2  0
 18 20  2  0
 18 21  1  0
 21 22  1  0
 21 23  1  0
 23 24  1  0
 24 25  2  0
 24 26  1  0
 17  2  1  0
 15  9  1  0
  1 27  1  0
  1 28  1  0
  1 29  1  0
  3 30  1  0
  4 31  1  0
 10 32  1  0
 11 33  1  0
 14 34  1  0
 15 35  1  0
 16 36  1  0
 22 37  1  0
 22 38  1  0
 22 39  1  0
 23 40  1  0
 23 41  1  0
 26 42  1  0
M  END
$$$$
