
     RDKit          3D

 59 62  0  0  0  0  0  0  0  0999 V2000
    6.1946    1.1230    2.3410 C   0  0  0  0  0  0  0  0  0  0  0  0
    5.5614    1.7311    1.2175 O   0  0  0  0  0  0  0  0  0  0  0  0
    4.8982    0.7962    0.4648 C   0  0  0  0  0  0  0  0  0  0  0  0
    3.5051    0.8019    0.5121 C   0  0  0  0  0  0  0  0  0  0  0  0
    2.7698   -0.1166   -0.2479 C   0  0  0  0  0  0  0  0  0  0  0  0
    1.3619   -0.0637   -0.1315 N   0  0  0  0  0  0  0  0  0  0  0  0
    0.4473   -0.9673   -0.6404 C   0  0  0  0  0  0  0  0  0  0  0  0
    0.6840   -2.0027   -1.2464 O   0  0  0  0  0  0  0  0  0  0  0  0
   -0.9613   -0.6362   -0.3426 C   0  0  0  0  0  0  0  0  0  0  0  0
   -1.4735    0.6546   -0.5334 C   0  0  0  0  0  0  0  0  0  0  0  0
   -2.8091    0.9222   -0.2198 C   0  0  0  0  0  0  0  0  0  0  0  0
   -3.4160    2.2606   -0.4287 C   0  0  0  0  0  0  0  0  0  0  0  0
   -4.7837    2.3830   -0.7490 C   0  0  0  0  0  0  0  0  0  0  0  0
   -5.3785    3.6309   -0.9667 C   0  0  0  0  0  0  0  0  0  0  0  0
   -4.6163    4.7922   -0.8664 C   0  0  0  0  0  0  0  0  0  0  0  0
   -3.2650    4.7042   -0.5420 C   0  0  0  0  0  0  0  0  0  0  0  0
   -2.6736    3.4529   -0.3230 C   0  0  0  0  0  0  0  0  0  0  0  0
   -3.6548   -0.0153    0.2787 N   0  0  0  0  0  0  0  0  0  0  0  0
   -3.1238   -1.2448    0.4231 C   0  0  0  0  0  0  0  0  0  0  0  0
   -1.8256   -1.6270    0.1311 C   0  0  0  0  0  0  0  0  0  0  0  0
   -1.7810   -2.9975    0.4443 C   0  0  0  0  0  0  0  0  0  0  0  0
   -2.9432   -3.4560    0.9198 N   0  0  0  0  0  0  0  0  0  0  0  0
   -3.7496   -2.3714    0.8978 N   0  0  0  0  0  0  0  0  0  0  0  0
   -5.1208   -2.4918    1.3799 C   0  0  0  0  0  0  0  0  0  0  0  0
   -6.1479   -2.2159    0.2802 C   0  0  0  0  0  0  0  0  0  0  0  0
   -5.3686   -1.6278    2.6154 C   0  0  0  0  0  0  0  0  0  0  0  0
    3.4489   -1.0222   -1.0741 C   0  0  0  0  0  0  0  0  0  0  0  0
    4.8495   -1.0202   -1.1476 C   0  0  0  0  0  0  0  0  0  0  0  0
    5.5932   -1.8681   -1.9234 O   0  0  0  0  0  0  0  0  0  0  0  0
    4.8966   -2.8958   -2.6185 C   0  0  0  0  0  0  0  0  0  0  0  0
    5.5692   -0.0839   -0.3909 C   0  0  0  0  0  0  0  0  0  0  0  0
    6.9433   -0.0689   -0.4385 O   0  0  0  0  0  0  0  0  0  0  0  0
    7.3814    0.8595   -1.4275 C   0  0  0  0  0  0  0  0  0  0  0  0
    6.6779    0.1666    2.1100 H   0  0  0  0  0  0  0  0  0  0  0  0
    5.4581    0.9790    3.1367 H   0  0  0  0  0  0  0  0  0  0  0  0
    6.9606    1.8129    2.7081 H   0  0  0  0  0  0  0  0  0  0  0  0
    3.0102    1.5180    1.1614 H   0  0  0  0  0  0  0  0  0  0  0  0
    1.0023    0.6574    0.4823 H   0  0  0  0  0  0  0  0  0  0  0  0
   -0.8438    1.4244   -0.9680 H   0  0  0  0  0  0  0  0  0  0  0  0
   -5.4042    1.4888   -0.8390 H   0  0  0  0  0  0  0  0  0  0  0  0
   -6.4365    3.6911   -1.2139 H   0  0  0  0  0  0  0  0  0  0  0  0
   -5.0761    5.7621   -1.0363 H   0  0  0  0  0  0  0  0  0  0  0  0
   -2.6708    5.6103   -0.4568 H   0  0  0  0  0  0  0  0  0  0  0  0
   -1.6207    3.4317   -0.0505 H   0  0  0  0  0  0  0  0  0  0  0  0
   -0.9447   -3.6774    0.3488 H   0  0  0  0  0  0  0  0  0  0  0  0
   -5.2439   -3.5401    1.6870 H   0  0  0  0  0  0  0  0  0  0  0  0
   -6.0937   -1.1849   -0.0860 H   0  0  0  0  0  0  0  0  0  0  0  0
   -5.9864   -2.8805   -0.5748 H   0  0  0  0  0  0  0  0  0  0  0  0
   -7.1658   -2.3873    0.6499 H   0  0  0  0  0  0  0  0  0  0  0  0
   -5.3131   -0.5591    2.3870 H   0  0  0  0  0  0  0  0  0  0  0  0
   -4.6275   -1.8414    3.3933 H   0  0  0  0  0  0  0  0  0  0  0  0
   -6.3620   -1.8270    3.0342 H   0  0  0  0  0  0  0  0  0  0  0  0
    2.8824   -1.7263   -1.6714 H   0  0  0  0  0  0  0  0  0  0  0  0
    4.3334   -3.5383   -1.9296 H   0  0  0  0  0  0  0  0  0  0  0  0
    5.6395   -3.5227   -3.1233 H   0  0  0  0  0  0  0  0  0  0  0  0
    4.2434   -2.4721   -3.3895 H   0  0  0  0  0  0  0  0  0  0  0  0
    7.1094    0.5182   -2.4328 H   0  0  0  0  0  0  0  0  0  0  0  0
    8.4732    0.9133   -1.3720 H   0  0  0  0  0  0  0  0  0  0  0  0
    6.9869    1.8642   -1.2461 H   0  0  0  0  0  0  0  0  0  0  0  0
  1  2  1  0
  2  3  1  0
  3  4  2  0
  4  5  1  0
  5  6  1  0
  6  7  1  0
  7  8  2  0
  7  9  1  0
  9 10  2  0
 10 11  1  0
 11 12  1  0
 12 13  2  0
 13 14  1  0
 14 15  2  0
 15 16  1  0
 16 17  2  0
 11 18  2  0
 18 19  1  0
 19 20  2  0
 20 21  1  0
 21 22  2  0
 22 23  1  0
 23 24  1  0
 24 25  1  0
 24 26  1  0
  5 27  2  0
 27 28  1  0
 28 29  1  0
 29 30  1  0
 28 31  2  0
 31 32  1  0
 32 33  1  0
 31  3  1  0
 20  9  1  0
 17 12  1  0
 23 19  1  0
  1 34  1  0
  1 35  1  0
  1 36  1  0
  4 37  1  0
  6 38  1  0
 10 39  1  0
 13 40  1  0
 14 41  1  0
 15 42  1  0
 16 43  1  0
 17 44  1  0
 21 45  1  0
 24 46  1  0
 25 47  1  0
 25 48  1  0
 25 49  1  0
 26 50  1  0
 26 51  1  0
 26 52  1  0
 27 53  1  0
 30 54  1  0
 30 55  1  0
 30 56  1  0
 33 57  1  0
 33 58  1  0
 33 59  1  0
M  END
$$$$
