
     RDKit          3D

 53 56  0  0  0  0  0  0  0  0999 V2000
   -2.9357    6.0963    1.3727 C   0  0  0  0  0  0  0  0  0  0  0  0
   -2.4565    5.3253    0.2793 O   0  0  0  0  0  0  0  0  0  0  0  0
   -2.0403    4.0523    0.5523 C   0  0  0  0  0  0  0  0  0  0  0  0
   -1.6469    3.3142   -0.5652 C   0  0  0  0  0  0  0  0  0  0  0  0
   -1.2011    1.9971   -0.4312 C   0  0  0  0  0  0  0  0  0  0  0  0
   -1.1297    1.3938    0.8321 C   0  0  0  0  0  0  0  0  0  0  0  0
   -0.6769   -0.0464    1.0146 C   0  0  0  0  0  0  0  0  0  0  0  0
   -1.8478   -1.0089    0.7921 C   0  0  0  0  0  0  0  0  0  0  0  0
   -1.3102   -1.8297   -0.3427 C   0  0  0  0  0  0  0  0  0  0  0  0
   -2.0937   -2.9300   -0.9367 C   0  0  0  0  0  0  0  0  0  0  0  0
   -3.4508   -2.7048   -1.2127 C   0  0  0  0  0  0  0  0  0  0  0  0
   -4.2235   -3.7031   -1.8052 C   0  0  0  0  0  0  0  0  0  0  0  0
   -3.6478   -4.9275   -2.1283 C   0  0  0  0  0  0  0  0  0  0  0  0
   -2.2985   -5.1570   -1.8548 C   0  0  0  0  0  0  0  0  0  0  0  0
   -1.5002   -4.1672   -1.2471 C   0  0  0  0  0  0  0  0  0  0  0  0
   -0.0547   -4.4770   -0.9327 C   0  0  0  0  0  0  0  0  0  0  0  0
    0.3183   -4.1045    0.3226 F   0  0  0  0  0  0  0  0  0  0  0  0
    0.2022   -5.8213   -0.9806 F   0  0  0  0  0  0  0  0  0  0  0  0
    0.8276   -3.9227   -1.8057 F   0  0  0  0  0  0  0  0  0  0  0  0
   -0.1158   -1.5298   -0.7377 N   0  0  0  0  0  0  0  0  0  0  0  0
    0.3135   -0.4791    0.0217 N   0  0  0  0  0  0  0  0  0  0  0  0
    1.6765   -0.1715    0.0699 C   0  0  0  0  0  0  0  0  0  0  0  0
    2.5873   -0.8184   -0.7874 C   0  0  0  0  0  0  0  0  0  0  0  0
    3.9557   -0.5281   -0.7733 C   0  0  0  0  0  0  0  0  0  0  0  0
    4.4392    0.4414    0.1013 C   0  0  0  0  0  0  0  0  0  0  0  0
    6.1654    0.8095    0.1205 S   0  0  0  0  0  6  0  0  0  0  0  0
    6.3975    1.5136   -1.3860 N   0  0  0  0  0  0  0  0  0  0  0  0
    6.4241    1.8614    1.0772 O   0  0  0  0  0  0  0  0  0  0  0  0
    6.9101   -0.4277    0.1069 O   0  0  0  0  0  0  0  0  0  0  0  0
    3.5704    1.1052    0.9637 C   0  0  0  0  0  0  0  0  0  0  0  0
    2.2037    0.7968    0.9416 C   0  0  0  0  0  0  0  0  0  0  0  0
   -1.5298    2.1417    1.9516 C   0  0  0  0  0  0  0  0  0  0  0  0
   -1.9782    3.4609    1.8133 C   0  0  0  0  0  0  0  0  0  0  0  0
   -3.8037    5.6218    1.8413 H   0  0  0  0  0  0  0  0  0  0  0  0
   -3.2570    7.0669    0.9824 H   0  0  0  0  0  0  0  0  0  0  0  0
   -2.1438    6.2786    2.1057 H   0  0  0  0  0  0  0  0  0  0  0  0
   -1.6859    3.7682   -1.5524 H   0  0  0  0  0  0  0  0  0  0  0  0
   -0.8995    1.4478   -1.3228 H   0  0  0  0  0  0  0  0  0  0  0  0
   -0.2810   -0.1907    2.0284 H   0  0  0  0  0  0  0  0  0  0  0  0
   -2.7851   -0.5131    0.5277 H   0  0  0  0  0  0  0  0  0  0  0  0
   -2.0074   -1.6533    1.6628 H   0  0  0  0  0  0  0  0  0  0  0  0
   -3.9168   -1.7458   -1.0007 H   0  0  0  0  0  0  0  0  0  0  0  0
   -5.2729   -3.5208   -2.0267 H   0  0  0  0  0  0  0  0  0  0  0  0
   -4.2471   -5.7048   -2.5971 H   0  0  0  0  0  0  0  0  0  0  0  0
   -1.8683   -6.1241   -2.1137 H   0  0  0  0  0  0  0  0  0  0  0  0
    2.2249   -1.5723   -1.4844 H   0  0  0  0  0  0  0  0  0  0  0  0
    4.6238   -1.0582   -1.4462 H   0  0  0  0  0  0  0  0  0  0  0  0
    6.6886    2.4849   -1.2709 H   0  0  0  0  0  0  0  0  0  0  0  0
    7.0409    0.9479   -1.9385 H   0  0  0  0  0  0  0  0  0  0  0  0
    3.9368    1.8652    1.6503 H   0  0  0  0  0  0  0  0  0  0  0  0
    1.5587    1.3451    1.6215 H   0  0  0  0  0  0  0  0  0  0  0  0
   -1.4921    1.7040    2.9476 H   0  0  0  0  0  0  0  0  0  0  0  0
   -2.2665    3.9979    2.7109 H   0  0  0  0  0  0  0  0  0  0  0  0
  1  2  1  0
  2  3  1  0
  3  4  2  0
  4  5  1  0
  5  6  2  0
  6  7  1  0
  7  8  1  0
  8  9  1  0
  9 10  1  0
 10 11  2  0
 11 12  1  0
 12 13  2  0
 13 14  1  0
 14 15  2  0
 15 16  1  0
 16 17  1  0
 16 18  1  0
 16 19  1  0
  9 20  2  0
 20 21  1  0
 21 22  1  0
 22 23  2  0
 23 24  1  0
 24 25  2  0
 25 26  1  0
 26 27  1  0
 26 28  2  0
 26 29  2  0
 25 30  1  0
 30 31  2  0
  6 32  1  0
 32 33  2  0
 33  3  1  0
 21  7  1  0
 31 22  1  0
 15 10  1  0
  1 34  1  0
  1 35  1  0
  1 36  1  0
  4 37  1  0
  5 38  1  0
  7 39  1  0
  8 40  1  0
  8 41  1  0
 11 42  1  0
 12 43  1  0
 13 44  1  0
 14 45  1  0
 23 46  1  0
 24 47  1  0
 27 48  1  0
 27 49  1  0
 30 50  1  0
 31 51  1  0
 32 52  1  0
 33 53  1  0
M  END
$$$$
