
     RDKit          3D

 47 49  0  0  0  0  0  0  0  0999 V2000
   -5.5813   -1.9758    0.2520 C   0  0  0  0  0  0  0  0  0  0  0  0
   -4.4802   -1.0670    0.5611 N   0  0  0  0  0  0  0  0  0  0  0  0
   -4.9871    0.1538    1.2238 C   0  0  0  0  0  0  0  0  0  0  0  0
   -4.0121    1.3406    1.1180 C   0  0  0  0  0  0  0  0  0  0  0  0
   -3.8247    1.7342   -0.3056 N   0  0  0  0  0  0  0  0  0  0  0  0
   -2.6824    2.9366   -0.6326 S   0  0  0  0  0  6  0  0  0  0  0  0
   -2.7897    3.2860   -2.0339 O   0  0  0  0  0  0  0  0  0  0  0  0
   -2.7864    3.9473    0.3989 O   0  0  0  0  0  0  0  0  0  0  0  0
   -1.1232    2.1046   -0.4108 C   0  0  0  0  0  0  0  0  0  0  0  0
   -0.4922    1.5078   -1.5007 C   0  0  0  0  0  0  0  0  0  0  0  0
    0.7427    0.8782   -1.3191 C   0  0  0  0  0  0  0  0  0  0  0  0
    1.3697    0.8464   -0.0613 C   0  0  0  0  0  0  0  0  0  0  0  0
    2.6111    0.1757   -0.0114 N   0  0  0  0  0  0  0  0  0  0  0  0
    3.4983   -0.1204    0.9966 C   0  0  0  0  0  0  0  0  0  0  0  0
    3.4124    0.1876    2.6351 S   0  0  0  0  0  0  0  0  0  0  0  0
    4.6425   -0.7881    0.5805 N   0  0  0  0  0  0  0  0  0  0  0  0
    5.0042   -1.2011   -0.6908 C   0  0  0  0  0  0  0  0  0  0  0  0
    4.3040   -1.0363   -1.6847 O   0  0  0  0  0  0  0  0  0  0  0  0
    6.3197   -1.8882   -0.8277 C   0  0  0  0  0  0  0  0  0  0  0  0
    7.5258   -1.5078   -0.0011 C   0  0  0  0  0  0  0  0  0  0  0  0
    6.8540   -2.8328    0.2236 C   0  0  0  0  0  0  0  0  0  0  0  0
    0.7380    1.4808    1.0086 C   0  0  0  0  0  0  0  0  0  0  0  0
   -0.4996    2.1160    0.8370 C   0  0  0  0  0  0  0  0  0  0  0  0
   -3.9751    0.6184   -1.2800 C   0  0  0  0  0  0  0  0  0  0  0  0
   -3.6743   -0.7479   -0.6349 C   0  0  0  0  0  0  0  0  0  0  0  0
   -6.1477   -2.2171    1.1584 H   0  0  0  0  0  0  0  0  0  0  0  0
   -5.1972   -2.9244   -0.1393 H   0  0  0  0  0  0  0  0  0  0  0  0
   -6.2719   -1.5525   -0.4862 H   0  0  0  0  0  0  0  0  0  0  0  0
   -5.1686   -0.0702    2.2813 H   0  0  0  0  0  0  0  0  0  0  0  0
   -5.9470    0.4610    0.7862 H   0  0  0  0  0  0  0  0  0  0  0  0
   -3.0559    1.0671    1.5745 H   0  0  0  0  0  0  0  0  0  0  0  0
   -4.4301    2.1903    1.6685 H   0  0  0  0  0  0  0  0  0  0  0  0
   -0.9422    1.5324   -2.4904 H   0  0  0  0  0  0  0  0  0  0  0  0
    1.2160    0.4136   -2.1829 H   0  0  0  0  0  0  0  0  0  0  0  0
    2.9198   -0.1805   -0.9184 H   0  0  0  0  0  0  0  0  0  0  0  0
    5.2819   -0.9864    1.3362 H   0  0  0  0  0  0  0  0  0  0  0  0
    6.5284   -2.1677   -1.8590 H   0  0  0  0  0  0  0  0  0  0  0  0
    8.4922   -1.5071   -0.4960 H   0  0  0  0  0  0  0  0  0  0  0  0
    7.4376   -0.7431    0.7610 H   0  0  0  0  0  0  0  0  0  0  0  0
    6.2994   -2.9861    1.1415 H   0  0  0  0  0  0  0  0  0  0  0  0
    7.3671   -3.7259   -0.1196 H   0  0  0  0  0  0  0  0  0  0  0  0
    1.1737    1.5266    1.9976 H   0  0  0  0  0  0  0  0  0  0  0  0
   -0.9613    2.6190    1.6844 H   0  0  0  0  0  0  0  0  0  0  0  0
   -3.3242    0.7542   -2.1486 H   0  0  0  0  0  0  0  0  0  0  0  0
   -5.0047    0.6385   -1.6572 H   0  0  0  0  0  0  0  0  0  0  0  0
   -2.6230   -0.7530   -0.3195 H   0  0  0  0  0  0  0  0  0  0  0  0
   -3.7563   -1.5375   -1.3921 H   0  0  0  0  0  0  0  0  0  0  0  0
  1  2  1  0
  2  3  1  0
  3  4  1  0
  4  5  1  0
  5  6  1  0
  6  7  2  0
  6  8  2  0
  6  9  1  0
  9 10  2  0
 10 11  1  0
 11 12  2  0
 12 13  1  0
 13 14  1  0
 14 15  2  0
 14 16  1  0
 16 17  1  0
 17 18  2  0
 17 19  1  0
 19 20  1  0
 20 21  1  0
 12 22  1  0
 22 23  2  0
  5 24  1  0
 24 25  1  0
 25  2  1  0
 23  9  1  0
 21 19  1  0
  1 26  1  0
  1 27  1  0
  1 28  1  0
  3 29  1  0
  3 30  1  0
  4 31  1  0
  4 32  1  0
 10 33  1  0
 11 34  1  0
 13 35  1  0
 16 36  1  0
 19 37  1  0
 20 38  1  0
 20 39  1  0
 21 40  1  0
 21 41  1  0
 22 42  1  0
 23 43  1  0
 24 44  1  0
 24 45  1  0
 25 46  1  0
 25 47  1  0
M  END
$$$$
