
     RDKit          3D

 34 36  0  0  0  0  0  0  0  0999 V2000
    1.6437   -1.1364    2.4423 S   0  0  0  0  0  0  0  0  0  0  0  0
    1.8280   -0.7967    0.8058 C   0  0  0  0  0  0  0  0  0  0  0  0
    0.7911   -0.4753   -0.0246 N   0  0  0  0  0  0  0  0  0  0  0  0
    0.4864    0.7685   -0.2154 C   0  0  0  0  0  0  0  0  0  0  0  0
    1.3737    2.1808    0.4548 S   0  0  0  0  0  0  0  0  0  0  0  0
    0.2725    3.2916   -0.3169 C   0  0  0  0  0  0  0  0  0  0  0  0
   -0.6598    2.6348   -1.0168 C   0  0  0  0  0  0  0  0  0  0  0  0
   -0.5618    1.2510   -0.9920 N   0  0  0  0  0  0  0  0  0  0  0  0
   -1.5371    0.3558   -1.5990 C   0  0  0  0  0  0  0  0  0  0  0  0
   -2.7930    0.2579   -0.7615 C   0  0  0  0  0  0  0  0  0  0  0  0
   -3.9636    0.9311   -1.1424 C   0  0  0  0  0  0  0  0  0  0  0  0
   -5.1167    0.8451   -0.3598 C   0  0  0  0  0  0  0  0  0  0  0  0
   -5.1114    0.0898    0.8114 C   0  0  0  0  0  0  0  0  0  0  0  0
   -3.9541   -0.5800    1.2024 C   0  0  0  0  0  0  0  0  0  0  0  0
   -2.8006   -0.4971    0.4213 C   0  0  0  0  0  0  0  0  0  0  0  0
    3.0160   -0.8988    0.1176 N   0  0  0  0  0  0  0  0  0  0  0  0
    4.2981   -1.2088    0.6629 C   0  0  0  0  0  0  0  0  0  0  0  0
    4.7528   -2.6349    0.8058 C   0  0  0  0  0  0  0  0  0  0  0  0
    5.3880   -1.7492   -0.2240 C   0  0  0  0  0  0  0  0  0  0  0  0
    0.3494    4.3644   -0.2126 H   0  0  0  0  0  0  0  0  0  0  0  0
   -1.4698    3.0899   -1.5722 H   0  0  0  0  0  0  0  0  0  0  0  0
   -1.1254   -0.6500   -1.7510 H   0  0  0  0  0  0  0  0  0  0  0  0
   -1.7874    0.7164   -2.6054 H   0  0  0  0  0  0  0  0  0  0  0  0
   -3.9868    1.5286   -2.0506 H   0  0  0  0  0  0  0  0  0  0  0  0
   -6.0198    1.3692   -0.6618 H   0  0  0  0  0  0  0  0  0  0  0  0
   -6.0081    0.0251    1.4220 H   0  0  0  0  0  0  0  0  0  0  0  0
   -3.9457   -1.1655    2.1184 H   0  0  0  0  0  0  0  0  0  0  0  0
   -1.9036   -1.0228    0.7451 H   0  0  0  0  0  0  0  0  0  0  0  0
    2.9472   -0.7080   -0.8734 H   0  0  0  0  0  0  0  0  0  0  0  0
    4.6161   -0.5060    1.4308 H   0  0  0  0  0  0  0  0  0  0  0  0
    5.3267   -2.8913    1.6887 H   0  0  0  0  0  0  0  0  0  0  0  0
    4.0884   -3.4211    0.4666 H   0  0  0  0  0  0  0  0  0  0  0  0
    6.4010   -1.4085   -0.0437 H   0  0  0  0  0  0  0  0  0  0  0  0
    5.1655   -1.9495   -1.2651 H   0  0  0  0  0  0  0  0  0  0  0  0
  1  2  2  0
  2  3  1  0
  3  4  2  3
  4  5  1  0
  5  6  1  0
  6  7  2  0
  7  8  1  0
  8  9  1  0
  9 10  1  0
 10 11  2  0
 11 12  1  0
 12 13  2  0
 13 14  1  0
 14 15  2  0
  2 16  1  0
 16 17  1  0
 17 18  1  0
 18 19  1  0
  8  4  1  0
 15 10  1  0
 19 17  1  0
  6 20  1  0
  7 21  1  0
  9 22  1  0
  9 23  1  0
 11 24  1  0
 12 25  1  0
 13 26  1  0
 14 27  1  0
 15 28  1  0
 16 29  1  0
 17 30  1  0
 18 31  1  0
 18 32  1  0
 19 33  1  0
 19 34  1  0
M  END
$$$$
