
     RDKit          3D

 40 40  0  0  0  0  0  0  0  0999 V2000
   -2.7964    2.9578    2.4809 C   0  0  0  0  0  0  0  0  0  0  0  0
   -1.9337    2.1603    1.5153 C   0  0  0  0  0  0  0  0  0  0  0  0
   -1.0022    1.2010    2.2602 C   0  0  0  0  0  0  0  0  0  0  0  0
   -0.0917    0.4166    1.3124 C   0  0  0  0  0  0  0  0  0  0  0  0
   -0.9066   -0.5002    0.5287 N   0  0  0  0  0  0  0  0  0  0  0  0
   -0.4293   -1.0350   -0.5439 C   0  0  0  0  0  0  0  0  0  0  0  0
    0.8504   -0.9733   -1.0987 N   0  0  0  0  0  0  0  0  0  0  0  0
    2.0004   -0.9155   -0.3538 N   0  0  0  0  0  0  0  0  0  0  0  0
    2.9913    0.0684   -0.5323 C   0  0  0  0  0  0  0  0  0  0  0  0
    2.9663    0.9632   -1.6101 C   0  0  0  0  0  0  0  0  0  0  0  0
    3.9911    1.8970   -1.7932 C   0  0  0  0  0  0  0  0  0  0  0  0
    5.0625    1.9281   -0.9054 C   0  0  0  0  0  0  0  0  0  0  0  0
    6.4505    3.1870   -1.1500 Br  0  0  0  0  0  0  0  0  0  0  0  0
    5.1204    1.0313    0.1576 C   0  0  0  0  0  0  0  0  0  0  0  0
    4.0919    0.1006    0.3355 C   0  0  0  0  0  0  0  0  0  0  0  0
   -1.4219   -1.8903   -1.3866 C   0  0  0  0  0  0  0  0  0  0  0  0
   -1.0153   -2.4982   -2.3670 O   0  0  0  0  0  0  0  0  0  0  0  0
   -2.6780   -1.8501   -0.9099 O   0  0  0  0  0  0  0  0  0  0  0  0
   -3.6508   -2.6075   -1.6389 C   0  0  0  0  0  0  0  0  0  0  0  0
   -3.6808   -4.0396   -1.1389 C   0  0  0  0  0  0  0  0  0  0  0  0
   -3.4536    3.6372    1.9293 H   0  0  0  0  0  0  0  0  0  0  0  0
   -3.4233    2.2948    3.0857 H   0  0  0  0  0  0  0  0  0  0  0  0
   -2.1780    3.5574    3.1564 H   0  0  0  0  0  0  0  0  0  0  0  0
   -2.5860    1.6031    0.8334 H   0  0  0  0  0  0  0  0  0  0  0  0
   -1.3429    2.8535    0.9053 H   0  0  0  0  0  0  0  0  0  0  0  0
   -0.3743    1.7743    2.9530 H   0  0  0  0  0  0  0  0  0  0  0  0
   -1.5969    0.5044    2.8640 H   0  0  0  0  0  0  0  0  0  0  0  0
    0.4547    1.1232    0.6782 H   0  0  0  0  0  0  0  0  0  0  0  0
    0.6232   -0.1477    1.9205 H   0  0  0  0  0  0  0  0  0  0  0  0
    0.9358   -1.5534   -1.9415 H   0  0  0  0  0  0  0  0  0  0  0  0
    1.9574   -1.3116    0.5856 H   0  0  0  0  0  0  0  0  0  0  0  0
    2.1395    0.9490   -2.3153 H   0  0  0  0  0  0  0  0  0  0  0  0
    3.9417    2.5879   -2.6304 H   0  0  0  0  0  0  0  0  0  0  0  0
    5.9594    1.0422    0.8482 H   0  0  0  0  0  0  0  0  0  0  0  0
    4.1599   -0.6027    1.1617 H   0  0  0  0  0  0  0  0  0  0  0  0
   -4.6231   -2.1356   -1.4632 H   0  0  0  0  0  0  0  0  0  0  0  0
   -3.4624   -2.5651   -2.7179 H   0  0  0  0  0  0  0  0  0  0  0  0
   -4.4602   -4.6124   -1.6493 H   0  0  0  0  0  0  0  0  0  0  0  0
   -3.8709   -4.0666   -0.0609 H   0  0  0  0  0  0  0  0  0  0  0  0
   -2.7183   -4.5335   -1.3050 H   0  0  0  0  0  0  0  0  0  0  0  0
  1  2  1  0
  2  3  1  0
  3  4  1  0
  4  5  1  0
  5  6  2  3
  6  7  1  0
  7  8  1  0
  8  9  1  0
  9 10  2  0
 10 11  1  0
 11 12  2  0
 12 13  1  0
 12 14  1  0
 14 15  2  0
  6 16  1  0
 16 17  2  0
 16 18  1  0
 18 19  1  0
 19 20  1  0
 15  9  1  0
  1 21  1  0
  1 22  1  0
  1 23  1  0
  2 24  1  0
  2 25  1  0
  3 26  1  0
  3 27  1  0
  4 28  1  0
  4 29  1  0
  7 30  1  0
  8 31  1  0
 10 32  1  0
 11 33  1  0
 14 34  1  0
 15 35  1  0
 19 36  1  0
 19 37  1  0
 20 38  1  0
 20 39  1  0
 20 40  1  0
M  END
$$$$
