
     RDKit          3D

 47 49  0  0  0  0  0  0  0  0999 V2000
    7.0642   -1.8896    1.0150 C   0  0  0  0  0  0  0  0  0  0  0  0
    6.5304   -0.5964    0.4198 C   0  0  0  0  0  0  0  0  0  0  0  0
    5.0403   -0.7013    0.0979 C   0  0  0  0  0  0  0  0  0  0  0  0
    4.5087    0.6044   -0.4977 C   0  0  0  0  0  0  0  0  0  0  0  0
    3.0933    0.5241   -0.8486 N   0  0  0  0  0  0  0  0  0  0  0  0
    2.1244    0.6761    0.2244 C   0  0  0  0  0  0  0  0  0  0  0  0
    0.7160    0.7825   -0.2526 C   0  0  0  0  0  0  0  0  0  0  0  0
   -0.3252    1.2249    0.5680 C   0  0  0  0  0  0  0  0  0  0  0  0
   -1.6314    1.2230    0.0762 C   0  0  0  0  0  0  0  0  0  0  0  0
   -2.7328    1.7063    0.9321 C   0  0  0  0  0  0  0  0  0  0  0  0
   -2.5180    2.6478    1.6951 O   0  0  0  0  0  0  0  0  0  0  0  0
   -4.0951    1.1163    0.8959 C   0  0  0  0  0  0  0  0  0  0  0  0
   -4.2957   -0.2377    0.5796 C   0  0  0  0  0  0  0  0  0  0  0  0
   -5.5902   -0.7613    0.5329 C   0  0  0  0  0  0  0  0  0  0  0  0
   -5.9237   -2.0514    0.2270 O   0  0  0  0  0  0  0  0  0  0  0  0
   -4.8658   -2.9350   -0.1241 C   0  0  0  0  0  0  0  0  0  0  0  0
   -6.6789    0.0662    0.8224 C   0  0  0  0  0  0  0  0  0  0  0  0
   -6.4855    1.4033    1.1691 C   0  0  0  0  0  0  0  0  0  0  0  0
   -5.1966    1.9208    1.2183 C   0  0  0  0  0  0  0  0  0  0  0  0
   -5.0777    3.2316    1.5936 O   0  0  0  0  0  0  0  0  0  0  0  0
   -1.8364    0.8012   -1.2303 C   0  0  0  0  0  0  0  0  0  0  0  0
   -0.8477    0.3434   -2.0351 N   0  0  0  0  0  0  0  0  0  0  0  0
    0.4032    0.3535   -1.5300 C   0  0  0  0  0  0  0  0  0  0  0  0
    1.4180   -0.0935   -2.3512 N   0  0  0  0  0  0  0  0  0  0  0  0
    2.7456   -0.0140   -2.0721 C   0  0  0  0  0  0  0  0  0  0  0  0
    3.5674   -0.3855   -2.9075 O   0  0  0  0  0  0  0  0  0  0  0  0
    6.9368   -2.7241    0.3181 H   0  0  0  0  0  0  0  0  0  0  0  0
    6.5444   -2.1368    1.9462 H   0  0  0  0  0  0  0  0  0  0  0  0
    8.1314   -1.7924    1.2372 H   0  0  0  0  0  0  0  0  0  0  0  0
    7.0927   -0.3614   -0.4914 H   0  0  0  0  0  0  0  0  0  0  0  0
    6.7016    0.2229    1.1276 H   0  0  0  0  0  0  0  0  0  0  0  0
    4.4848   -0.9472    1.0107 H   0  0  0  0  0  0  0  0  0  0  0  0
    4.8714   -1.5270   -0.6041 H   0  0  0  0  0  0  0  0  0  0  0  0
    4.6427    1.4353    0.2046 H   0  0  0  0  0  0  0  0  0  0  0  0
    5.0800    0.8535   -1.4001 H   0  0  0  0  0  0  0  0  0  0  0  0
    2.2130   -0.1927    0.8862 H   0  0  0  0  0  0  0  0  0  0  0  0
    2.3886    1.5795    0.7859 H   0  0  0  0  0  0  0  0  0  0  0  0
   -0.1244    1.5641    1.5823 H   0  0  0  0  0  0  0  0  0  0  0  0
   -3.4412   -0.8777    0.3908 H   0  0  0  0  0  0  0  0  0  0  0  0
   -5.3075   -3.9064   -0.3659 H   0  0  0  0  0  0  0  0  0  0  0  0
   -4.3329   -2.5800   -1.0125 H   0  0  0  0  0  0  0  0  0  0  0  0
   -4.1800   -3.0802    0.7169 H   0  0  0  0  0  0  0  0  0  0  0  0
   -7.6884   -0.3381    0.7886 H   0  0  0  0  0  0  0  0  0  0  0  0
   -7.3365    2.0351    1.4091 H   0  0  0  0  0  0  0  0  0  0  0  0
   -4.1308    3.4029    1.7974 H   0  0  0  0  0  0  0  0  0  0  0  0
   -2.8175    0.8218   -1.6972 H   0  0  0  0  0  0  0  0  0  0  0  0
    1.1607   -0.4110   -3.2734 H   0  0  0  0  0  0  0  0  0  0  0  0
  1  2  1  0
  2  3  1  0
  3  4  1  0
  4  5  1  0
  5  6  1  0
  6  7  1  0
  7  8  2  0
  8  9  1  0
  9 10  1  0
 10 11  2  0
 10 12  1  0
 12 13  2  0
 13 14  1  0
 14 15  1  0
 15 16  1  0
 14 17  2  0
 17 18  1  0
 18 19  2  0
 19 20  1  0
  9 21  2  0
 21 22  1  0
 22 23  2  0
 23 24  1  0
 24 25  1  0
 25 26  2  0
 25  5  1  0
 23  7  1  0
 19 12  1  0
  1 27  1  0
  1 28  1  0
  1 29  1  0
  2 30  1  0
  2 31  1  0
  3 32  1  0
  3 33  1  0
  4 34  1  0
  4 35  1  0
  6 36  1  0
  6 37  1  0
  8 38  1  0
 13 39  1  0
 16 40  1  0
 16 41  1  0
 16 42  1  0
 17 43  1  0
 18 44  1  0
 20 45  1  0
 21 46  1  0
 24 47  1  0
M  END
$$$$
