
     RDKit          3D

 52 55  0  0  0  0  0  0  0  0999 V2000
    3.3484    2.2602    1.1924 O   0  0  0  0  0  0  0  0  0  0  0  0
    3.2900    1.4304    0.2874 C   0  0  0  0  0  0  0  0  0  0  0  0
    2.3331    1.4792   -0.7146 N   0  0  0  0  0  0  0  0  0  0  0  0
    1.2516    2.3755   -0.4749 N   0  0  0  0  0  0  0  0  0  0  0  0
    0.0306    1.6588   -0.3209 C   0  0  0  0  0  0  0  0  0  0  0  0
   -1.0796    2.3390    0.1276 C   0  0  0  0  0  0  0  0  0  0  0  0
   -2.2524    1.6290    0.2544 C   0  0  0  0  0  0  0  0  0  0  0  0
   -3.4133    2.2280    0.7002 N   0  0  0  0  0  0  0  0  0  0  0  0
   -3.4167    3.3686    1.6122 C   0  0  0  0  0  0  0  0  0  0  0  0
   -4.7061    3.2057    2.4193 C   0  0  0  0  0  0  0  0  0  0  0  0
   -5.5993    2.3798    1.5075 C   0  0  0  0  0  0  0  0  0  0  0  0
   -4.6106    1.4104    0.8674 C   0  0  0  0  0  0  0  0  0  0  0  0
   -2.2966    0.3317   -0.0931 N   0  0  0  0  0  0  0  0  0  0  0  0
   -1.1900   -0.2689   -0.5550 C   0  0  0  0  0  0  0  0  0  0  0  0
   -1.2546   -1.6000   -0.8885 N   0  0  0  0  0  0  0  0  0  0  0  0
   -0.2690   -2.1786   -1.7869 C   0  0  0  0  0  0  0  0  0  0  0  0
   -1.0463   -3.2552   -2.5487 C   0  0  0  0  0  0  0  0  0  0  0  0
   -2.2005   -3.5957   -1.6169 C   0  0  0  0  0  0  0  0  0  0  0  0
   -2.5531   -2.2380   -1.0163 C   0  0  0  0  0  0  0  0  0  0  0  0
   -0.0163    0.3620   -0.6773 N   0  0  0  0  0  0  0  0  0  0  0  0
    4.2334    0.2778    0.2438 C   0  0  0  0  0  0  0  0  0  0  0  0
    4.8964   -0.0848    1.4258 C   0  0  0  0  0  0  0  0  0  0  0  0
    5.7913   -1.1593    1.4365 C   0  0  0  0  0  0  0  0  0  0  0  0
    6.0292   -1.8694    0.2530 C   0  0  0  0  0  0  0  0  0  0  0  0
    6.9683   -2.9991    0.2558 N   0  0  0  0  0  4  0  0  0  0  0  0
    7.5776   -3.2396    1.3076 O   0  0  0  0  0  0  0  0  0  0  0  0
    7.0938   -3.6448   -0.7945 O   0  0  0  0  0  1  0  0  0  0  0  0
    5.3820   -1.5077   -0.9371 C   0  0  0  0  0  0  0  0  0  0  0  0
    4.4875   -0.4316   -0.9396 C   0  0  0  0  0  0  0  0  0  0  0  0
    2.0167    0.6028   -1.1344 H   0  0  0  0  0  0  0  0  0  0  0  0
    1.4398    2.9197    0.3760 H   0  0  0  0  0  0  0  0  0  0  0  0
   -1.0240    3.3936    0.3573 H   0  0  0  0  0  0  0  0  0  0  0  0
   -3.4366    4.3005    1.0360 H   0  0  0  0  0  0  0  0  0  0  0  0
   -2.5540    3.3848    2.2885 H   0  0  0  0  0  0  0  0  0  0  0  0
   -4.5000    2.6485    3.3417 H   0  0  0  0  0  0  0  0  0  0  0  0
   -5.1502    4.1663    2.6957 H   0  0  0  0  0  0  0  0  0  0  0  0
   -6.0510    3.0227    0.7418 H   0  0  0  0  0  0  0  0  0  0  0  0
   -6.4009    1.8680    2.0470 H   0  0  0  0  0  0  0  0  0  0  0  0
   -4.4211    0.5681    1.5447 H   0  0  0  0  0  0  0  0  0  0  0  0
   -4.9912    1.0312   -0.0868 H   0  0  0  0  0  0  0  0  0  0  0  0
    0.5427   -2.6274   -1.2032 H   0  0  0  0  0  0  0  0  0  0  0  0
    0.1610   -1.4612   -2.4957 H   0  0  0  0  0  0  0  0  0  0  0  0
   -1.4364   -2.8391   -3.4861 H   0  0  0  0  0  0  0  0  0  0  0  0
   -0.4268   -4.1225   -2.7945 H   0  0  0  0  0  0  0  0  0  0  0  0
   -3.0443   -4.0581   -2.1360 H   0  0  0  0  0  0  0  0  0  0  0  0
   -1.8580   -4.2811   -0.8317 H   0  0  0  0  0  0  0  0  0  0  0  0
   -3.2027   -1.6824   -1.7050 H   0  0  0  0  0  0  0  0  0  0  0  0
   -3.0597   -2.3516   -0.0516 H   0  0  0  0  0  0  0  0  0  0  0  0
    4.7132    0.4689    2.3464 H   0  0  0  0  0  0  0  0  0  0  0  0
    6.2888   -1.4249    2.3673 H   0  0  0  0  0  0  0  0  0  0  0  0
    5.5685   -2.0436   -1.8663 H   0  0  0  0  0  0  0  0  0  0  0  0
    4.0173   -0.1465   -1.8777 H   0  0  0  0  0  0  0  0  0  0  0  0
  1  2  2  0
  2  3  1  0
  3  4  1  0
  4  5  1  0
  5  6  2  0
  6  7  1  0
  7  8  1  0
  8  9  1  0
  9 10  1  0
 10 11  1  0
 11 12  1  0
  7 13  2  0
 13 14  1  0
 14 15  1  0
 15 16  1  0
 16 17  1  0
 17 18  1  0
 18 19  1  0
 14 20  2  0
  2 21  1  0
 21 22  2  0
 22 23  1  0
 23 24  2  0
 24 25  1  0
 25 26  2  0
 25 27  1  0
 24 28  1  0
 28 29  2  0
 20  5  1  0
 29 21  1  0
 12  8  1  0
 19 15  1  0
  3 30  1  0
  4 31  1  0
  6 32  1  0
  9 33  1  0
  9 34  1  0
 10 35  1  0
 10 36  1  0
 11 37  1  0
 11 38  1  0
 12 39  1  0
 12 40  1  0
 16 41  1  0
 16 42  1  0
 17 43  1  0
 17 44  1  0
 18 45  1  0
 18 46  1  0
 19 47  1  0
 19 48  1  0
 22 49  1  0
 23 50  1  0
 28 51  1  0
 29 52  1  0
M  CHG  2  25   1  27  -1
M  END
$$$$
