
     RDKit          3D

 35 36  0  0  0  0  0  0  0  0999 V2000
    1.9922   -2.2794   -0.1107 O   0  0  0  0  0  0  0  0  0  0  0  0
    2.2444   -1.1200    0.1958 C   0  0  0  0  0  0  0  0  0  0  0  0
    1.2802   -0.2003    0.5602 N   0  0  0  0  0  0  0  0  0  0  0  0
   -0.1141   -0.5865    0.7036 C   0  0  0  0  0  0  0  0  0  0  0  0
   -0.8020   -0.7681   -0.6487 C   0  0  0  0  0  0  0  0  0  0  0  0
   -2.2560   -1.2171   -0.5113 C   0  0  0  0  0  0  0  0  0  0  0  0
   -3.1531   -0.1668   -0.0580 N   0  0  0  0  0  0  0  0  0  0  0  0
   -3.5801    0.9099   -0.9154 C   0  0  0  0  0  0  0  0  0  0  0  0
   -4.6774    1.5751   -0.1086 C   0  0  0  0  0  0  0  0  0  0  0  0
   -4.2400    1.3686    1.3368 C   0  0  0  0  0  0  0  0  0  0  0  0
   -3.4415    0.0892    1.2751 C   0  0  0  0  0  0  0  0  0  0  0  0
   -3.0701   -0.5590    2.2390 O   0  0  0  0  0  0  0  0  0  0  0  0
    3.6501   -0.6506    0.2124 C   0  0  0  0  0  0  0  0  0  0  0  0
    4.0168    0.6915    0.0831 C   0  0  0  0  0  0  0  0  0  0  0  0
    5.3679    1.0362    0.1055 C   0  0  0  0  0  0  0  0  0  0  0  0
    6.3058    0.0256    0.2503 C   0  0  0  0  0  0  0  0  0  0  0  0
    5.9868   -1.2810    0.3651 N   0  0  0  0  0  0  0  0  0  0  0  0
    4.6655   -1.5915    0.3355 C   0  0  0  0  0  0  0  0  0  0  0  0
    1.5690    0.6441    1.0341 H   0  0  0  0  0  0  0  0  0  0  0  0
   -0.5955    0.2107    1.2776 H   0  0  0  0  0  0  0  0  0  0  0  0
   -0.1584   -1.5107    1.2905 H   0  0  0  0  0  0  0  0  0  0  0  0
   -0.7366    0.1613   -1.2268 H   0  0  0  0  0  0  0  0  0  0  0  0
   -0.2664   -1.5291   -1.2285 H   0  0  0  0  0  0  0  0  0  0  0  0
   -2.6301   -1.5638   -1.4812 H   0  0  0  0  0  0  0  0  0  0  0  0
   -2.3227   -2.0594    0.1868 H   0  0  0  0  0  0  0  0  0  0  0  0
   -3.9440    0.5233   -1.8713 H   0  0  0  0  0  0  0  0  0  0  0  0
   -2.7357    1.5869   -1.0801 H   0  0  0  0  0  0  0  0  0  0  0  0
   -4.8171    2.6286   -0.3664 H   0  0  0  0  0  0  0  0  0  0  0  0
   -5.6299    1.0573   -0.2784 H   0  0  0  0  0  0  0  0  0  0  0  0
   -3.5852    2.1771    1.6759 H   0  0  0  0  0  0  0  0  0  0  0  0
   -5.0959    1.2653    2.0078 H   0  0  0  0  0  0  0  0  0  0  0  0
    3.2754    1.4704   -0.0618 H   0  0  0  0  0  0  0  0  0  0  0  0
    5.6841    2.0688    0.0034 H   0  0  0  0  0  0  0  0  0  0  0  0
    7.3697    0.2460    0.2725 H   0  0  0  0  0  0  0  0  0  0  0  0
    4.4437   -2.6528    0.4223 H   0  0  0  0  0  0  0  0  0  0  0  0
  1  2  2  0
  2  3  1  0
  3  4  1  0
  4  5  1  0
  5  6  1  0
  6  7  1  0
  7  8  1  0
  8  9  1  0
  9 10  1  0
 10 11  1  0
 11 12  2  0
  2 13  1  0
 13 14  2  0
 14 15  1  0
 15 16  2  0
 16 17  1  0
 17 18  2  0
 11  7  1  0
 18 13  1  0
  3 19  1  0
  4 20  1  0
  4 21  1  0
  5 22  1  0
  5 23  1  0
  6 24  1  0
  6 25  1  0
  8 26  1  0
  8 27  1  0
  9 28  1  0
  9 29  1  0
 10 30  1  0
 10 31  1  0
 14 32  1  0
 15 33  1  0
 16 34  1  0
 18 35  1  0
M  END
$$$$
