
     RDKit          3D

 43 45  0  0  0  0  0  0  0  0999 V2000
   -3.5451    0.3127    2.9797 C   0  0  0  0  0  0  0  0  0  0  0  0
   -4.3406   -0.0648    1.7632 C   0  0  0  0  0  0  0  0  0  0  0  0
   -5.7397   -0.0128    1.8119 C   0  0  0  0  0  0  0  0  0  0  0  0
   -6.5019   -0.3651    0.6984 C   0  0  0  0  0  0  0  0  0  0  0  0
   -5.8759   -0.7838   -0.4753 C   0  0  0  0  0  0  0  0  0  0  0  0
   -4.4788   -0.8449   -0.5539 C   0  0  0  0  0  0  0  0  0  0  0  0
   -3.8269   -1.3048   -1.8265 C   0  0  0  0  0  0  0  0  0  0  0  0
   -3.7227   -0.4357    0.5576 C   0  0  0  0  0  0  0  0  0  0  0  0
   -2.3519   -0.4696    0.4830 O   0  0  0  0  0  0  0  0  0  0  0  0
   -1.8496    0.7984    0.0419 C   0  0  0  0  0  0  0  0  0  0  0  0
   -0.3928    0.6319   -0.1643 C   0  0  0  0  0  0  0  0  0  0  0  0
    0.4048   -0.3798   -0.6385 C   0  0  0  0  0  0  0  0  0  0  0  0
    1.7270    0.1350   -0.5758 C   0  0  0  0  0  0  0  0  0  0  0  0
    2.9452   -0.5554   -1.0224 C   0  0  0  0  0  0  0  0  0  0  0  0
    2.8631   -1.4607   -1.8546 O   0  0  0  0  0  0  0  0  0  0  0  0
    4.1877   -0.1598   -0.5178 N   0  0  0  0  0  0  0  0  0  0  0  0
    4.3993    0.3835    0.8253 C   0  0  0  0  0  0  0  0  0  0  0  0
    5.5315    1.4055    0.7882 C   0  0  0  0  0  0  0  0  0  0  0  0
    6.7359    0.8476    0.2065 N   0  0  0  0  0  0  0  0  0  0  0  0
    6.7009   -0.0313   -0.8490 C   0  0  0  0  0  0  0  0  0  0  0  0
    7.7365   -0.2867   -1.4610 O   0  0  0  0  0  0  0  0  0  0  0  0
    5.3756   -0.7596   -1.1299 C   0  0  0  0  0  0  0  0  0  0  0  0
    1.7094    1.4041   -0.1301 N   0  0  0  0  0  0  0  0  0  0  0  0
    0.3881    1.7008    0.1423 O   0  0  0  0  0  0  0  0  0  0  0  0
   -3.2676    1.3701    2.9351 H   0  0  0  0  0  0  0  0  0  0  0  0
   -2.6378   -0.2943    3.0629 H   0  0  0  0  0  0  0  0  0  0  0  0
   -4.1242    0.1443    3.8942 H   0  0  0  0  0  0  0  0  0  0  0  0
   -6.2468    0.2955    2.7237 H   0  0  0  0  0  0  0  0  0  0  0  0
   -7.5872   -0.3253    0.7495 H   0  0  0  0  0  0  0  0  0  0  0  0
   -6.4878   -1.0702   -1.3280 H   0  0  0  0  0  0  0  0  0  0  0  0
   -3.5289   -0.4426   -2.4306 H   0  0  0  0  0  0  0  0  0  0  0  0
   -2.9459   -1.9198   -1.6161 H   0  0  0  0  0  0  0  0  0  0  0  0
   -4.5113   -1.9217   -2.4188 H   0  0  0  0  0  0  0  0  0  0  0  0
   -2.0381    1.5661    0.8010 H   0  0  0  0  0  0  0  0  0  0  0  0
   -2.3137    1.1043   -0.9033 H   0  0  0  0  0  0  0  0  0  0  0  0
    0.0907   -1.3548   -0.9826 H   0  0  0  0  0  0  0  0  0  0  0  0
    4.6740   -0.4642    1.4663 H   0  0  0  0  0  0  0  0  0  0  0  0
    3.5035    0.8196    1.2638 H   0  0  0  0  0  0  0  0  0  0  0  0
    5.2486    2.2694    0.1767 H   0  0  0  0  0  0  0  0  0  0  0  0
    5.7767    1.7550    1.7953 H   0  0  0  0  0  0  0  0  0  0  0  0
    7.6137    1.3448    0.2998 H   0  0  0  0  0  0  0  0  0  0  0  0
    5.4663   -1.7832   -0.7487 H   0  0  0  0  0  0  0  0  0  0  0  0
    5.2365   -0.7979   -2.2160 H   0  0  0  0  0  0  0  0  0  0  0  0
  1  2  1  0
  2  3  2  0
  3  4  1  0
  4  5  2  0
  5  6  1  0
  6  7  1  0
  6  8  2  0
  8  9  1  0
  9 10  1  0
 10 11  1  0
 11 12  2  0
 12 13  1  0
 13 14  1  0
 14 15  2  0
 14 16  1  0
 16 17  1  0
 17 18  1  0
 18 19  1  0
 19 20  1  0
 20 21  2  0
 20 22  1  0
 13 23  2  0
 23 24  1  0
  8  2  1  0
 24 11  1  0
 22 16  1  0
  1 25  1  0
  1 26  1  0
  1 27  1  0
  3 28  1  0
  4 29  1  0
  5 30  1  0
  7 31  1  0
  7 32  1  0
  7 33  1  0
 10 34  1  0
 10 35  1  0
 12 36  1  0
 17 37  1  0
 17 38  1  0
 18 39  1  0
 18 40  1  0
 19 41  1  0
 22 42  1  0
 22 43  1  0
M  END
$$$$
