
     RDKit          3D

 52 57  0  0  0  0  0  0  0  0999 V2000
   -6.0360   -2.5252    0.2520 C   0  0  0  0  0  0  0  0  0  0  0  0
   -4.6693   -1.9029    0.1881 C   0  0  0  0  0  0  0  0  0  0  0  0
   -3.8310   -2.1510   -0.9105 C   0  0  0  0  0  0  0  0  0  0  0  0
   -2.5514   -1.5991   -0.9611 C   0  0  0  0  0  0  0  0  0  0  0  0
   -2.1285   -0.8072    0.0994 C   0  0  0  0  0  0  0  0  0  0  0  0
   -0.7916   -0.2441    0.0651 N   0  0  0  0  0  0  0  0  0  0  0  0
   -0.4265    1.1076    0.2203 C   0  0  0  0  0  0  0  0  0  0  0  0
   -1.3059    2.4249    0.2334 C   0  0  0  0  0  0  0  0  0  0  0  0
   -0.7404    3.6303    0.6737 C   0  0  0  0  0  0  0  0  0  0  0  0
   -1.5003    4.8047    0.6874 C   0  0  0  0  0  0  0  0  0  0  0  0
   -2.8211    4.7807    0.2494 C   0  0  0  0  0  0  0  0  0  0  0  0
   -3.8471    6.3660    0.2660 Br  0  0  0  0  0  0  0  0  0  0  0  0
   -3.3857    3.5941   -0.2095 C   0  0  0  0  0  0  0  0  0  0  0  0
   -2.6272    2.4183   -0.2225 C   0  0  0  0  0  0  0  0  0  0  0  0
    0.9500    1.0862    0.3303 C   0  0  0  0  0  0  0  0  0  0  0  0
    1.3897   -0.2097    0.1494 N   0  0  0  0  0  4  0  0  0  0  0  0
    0.3198   -1.0101    0.0087 C   0  0  0  0  0  0  0  0  0  0  0  0
    0.4483   -2.4910   -0.1502 C   0  0  0  0  0  0  0  0  0  0  0  0
    1.7056   -3.0145    0.5142 C   0  0  0  0  0  0  0  0  0  0  0  0
    2.8927   -2.1348    0.2231 C   0  0  0  0  0  0  0  0  0  0  0  0
    4.1676   -2.6976    0.1859 C   0  0  0  0  0  0  0  0  0  0  0  0
    5.2814   -1.8837   -0.0063 C   0  0  0  0  0  0  0  0  0  0  0  0
    5.1456   -0.4930   -0.1558 C   0  0  0  0  0  0  0  0  0  0  0  0
    6.2793    0.3053   -0.3584 C   0  0  0  0  0  0  0  0  0  0  0  0
    6.1478    1.6764   -0.5205 C   0  0  0  0  0  0  0  0  0  0  0  0
    4.8785    2.2083   -0.4742 C   0  0  0  0  0  0  0  0  0  0  0  0
    3.7620    1.4696   -0.2751 N   0  0  0  0  0  0  0  0  0  0  0  0
    3.8760    0.1245   -0.1106 C   0  0  0  0  0  0  0  0  0  0  0  0
    2.7735   -0.7363    0.0881 C   0  0  0  0  0  0  0  0  0  0  0  0
   -2.9273   -0.5542    1.2085 C   0  0  0  0  0  0  0  0  0  0  0  0
   -4.2041   -1.1127    1.2509 C   0  0  0  0  0  0  0  0  0  0  0  0
   -6.4560   -2.6477   -0.7519 H   0  0  0  0  0  0  0  0  0  0  0  0
   -5.9774   -3.5058    0.7342 H   0  0  0  0  0  0  0  0  0  0  0  0
   -6.7269   -1.8917    0.8181 H   0  0  0  0  0  0  0  0  0  0  0  0
   -4.1826   -2.7703   -1.7350 H   0  0  0  0  0  0  0  0  0  0  0  0
   -1.9256   -1.7694   -1.8302 H   0  0  0  0  0  0  0  0  0  0  0  0
    0.2838    3.6907    1.0320 H   0  0  0  0  0  0  0  0  0  0  0  0
   -1.0541    5.7319    1.0413 H   0  0  0  0  0  0  0  0  0  0  0  0
   -4.4121    3.5757   -0.5705 H   0  0  0  0  0  0  0  0  0  0  0  0
   -3.0927    1.5302   -0.6348 H   0  0  0  0  0  0  0  0  0  0  0  0
    1.6637    1.8740    0.4883 H   0  0  0  0  0  0  0  0  0  0  0  0
   -0.4356   -2.9649    0.2811 H   0  0  0  0  0  0  0  0  0  0  0  0
    0.4670   -2.6565   -1.2323 H   0  0  0  0  0  0  0  0  0  0  0  0
    1.5669   -3.0368    1.6023 H   0  0  0  0  0  0  0  0  0  0  0  0
    1.8863   -4.0432    0.1820 H   0  0  0  0  0  0  0  0  0  0  0  0
    4.3120   -3.7700    0.3135 H   0  0  0  0  0  0  0  0  0  0  0  0
    6.2686   -2.3462   -0.0364 H   0  0  0  0  0  0  0  0  0  0  0  0
    7.2740   -0.1357   -0.3965 H   0  0  0  0  0  0  0  0  0  0  0  0
    7.0140    2.3094   -0.6820 H   0  0  0  0  0  0  0  0  0  0  0  0
    4.7175    3.2760   -0.6004 H   0  0  0  0  0  0  0  0  0  0  0  0
   -2.5744    0.0512    2.0368 H   0  0  0  0  0  0  0  0  0  0  0  0
   -4.8408   -0.9305    2.1161 H   0  0  0  0  0  0  0  0  0  0  0  0
  1  2  1  0
  2  3  2  0
  3  4  1  0
  4  5  2  0
  5  6  1  0
  6  7  1  0
  7  8  1  0
  8  9  2  0
  9 10  1  0
 10 11  2  0
 11 12  1  0
 11 13  1  0
 13 14  2  0
  7 15  2  0
 15 16  1  0
 16 17  2  0
 17 18  1  0
 18 19  1  0
 19 20  1  0
 20 21  2  0
 21 22  1  0
 22 23  2  0
 23 24  1  0
 24 25  2  0
 25 26  1  0
 26 27  2  0
 27 28  1  0
 28 29  2  0
  5 30  1  0
 30 31  2  0
 31  2  1  0
 17  6  1  0
 29 20  1  0
 14  8  1  0
 29 16  1  0
 28 23  1  0
  1 32  1  0
  1 33  1  0
  1 34  1  0
  3 35  1  0
  4 36  1  0
  9 37  1  0
 10 38  1  0
 13 39  1  0
 14 40  1  0
 15 41  1  0
 18 42  1  0
 18 43  1  0
 19 44  1  0
 19 45  1  0
 21 46  1  0
 22 47  1  0
 24 48  1  0
 25 49  1  0
 26 50  1  0
 30 51  1  0
 31 52  1  0
M  CHG  1  16   1
M  END
$$$$
