
     RDKit          3D

 52 54  0  0  0  0  0  0  0  0999 V2000
    3.3181    0.0122   -0.3696 O   0  0  0  0  0  0  0  0  0  0  0  0
    2.1808   -0.2999   -0.0414 C   0  0  0  0  0  0  0  0  0  0  0  0
    1.7647   -1.4895    0.5217 N   0  0  0  0  0  0  0  0  0  0  0  0
    2.5392   -2.6201    0.8378 C   0  0  0  0  0  0  0  0  0  0  0  0
    1.8715   -3.7143    1.4033 C   0  0  0  0  0  0  0  0  0  0  0  0
    2.5683   -4.8768    1.7432 C   0  0  0  0  0  0  0  0  0  0  0  0
    3.9402   -4.9552    1.5205 C   0  0  0  0  0  0  0  0  0  0  0  0
    4.6122   -3.8718    0.9592 C   0  0  0  0  0  0  0  0  0  0  0  0
    3.9146   -2.7082    0.6188 C   0  0  0  0  0  0  0  0  0  0  0  0
    1.0156    0.6417   -0.2351 C   0  0  0  0  0  0  0  0  0  0  0  0
    1.2426    1.8786   -0.7079 C   0  0  0  0  0  0  0  0  0  0  0  0
    0.1451    2.8935   -0.8683 C   0  0  0  0  0  0  0  0  0  0  0  0
    0.5352    4.2738   -0.3682 C   0  0  0  0  0  0  0  0  0  0  0  0
    0.4168    5.3862   -1.2160 C   0  0  0  0  0  0  0  0  0  0  0  0
    0.7621    6.6631   -0.7683 C   0  0  0  0  0  0  0  0  0  0  0  0
    1.2282    6.8456    0.5316 C   0  0  0  0  0  0  0  0  0  0  0  0
    1.3498    5.7521    1.3856 C   0  0  0  0  0  0  0  0  0  0  0  0
    1.0048    4.4747    0.9403 C   0  0  0  0  0  0  0  0  0  0  0  0
   -1.1460    2.4093   -0.2006 C   0  0  0  0  0  0  0  0  0  0  0  0
   -1.3244    0.9198   -0.4753 C   0  0  0  0  0  0  0  0  0  0  0  0
   -2.5644    0.5270    0.1207 O   0  0  0  0  0  0  0  0  0  0  0  0
   -3.1434   -0.6522   -0.4364 C   0  0  0  0  0  0  0  0  0  0  0  0
   -2.4180   -1.9239    0.0003 C   0  0  0  0  0  0  0  0  0  0  0  0
   -3.1436   -3.2054   -0.4030 C   0  0  0  0  0  0  0  0  0  0  0  0
   -4.4287   -3.4503    0.3772 C   0  0  0  0  0  0  0  0  0  0  0  0
   -4.9741   -4.6968   -0.0335 O   0  0  0  0  0  0  0  0  0  0  0  0
   -0.2449    0.1713    0.0939 O   0  0  0  0  0  0  0  0  0  0  0  0
    0.7738   -1.5393    0.7322 H   0  0  0  0  0  0  0  0  0  0  0  0
    0.8009   -3.6781    1.5862 H   0  0  0  0  0  0  0  0  0  0  0  0
    2.0397   -5.7194    2.1814 H   0  0  0  0  0  0  0  0  0  0  0  0
    4.4860   -5.8575    1.7832 H   0  0  0  0  0  0  0  0  0  0  0  0
    5.6836   -3.9271    0.7832 H   0  0  0  0  0  0  0  0  0  0  0  0
    4.4763   -1.8872    0.1846 H   0  0  0  0  0  0  0  0  0  0  0  0
    2.2538    2.1868   -0.9700 H   0  0  0  0  0  0  0  0  0  0  0  0
   -0.0403    2.9618   -1.9498 H   0  0  0  0  0  0  0  0  0  0  0  0
    0.0554    5.2688   -2.2353 H   0  0  0  0  0  0  0  0  0  0  0  0
    0.6682    7.5161   -1.4354 H   0  0  0  0  0  0  0  0  0  0  0  0
    1.4983    7.8393    0.8787 H   0  0  0  0  0  0  0  0  0  0  0  0
    1.7152    5.8922    2.3995 H   0  0  0  0  0  0  0  0  0  0  0  0
    1.1088    3.6348    1.6244 H   0  0  0  0  0  0  0  0  0  0  0  0
   -1.1169    2.5704    0.8860 H   0  0  0  0  0  0  0  0  0  0  0  0
   -2.0098    2.9786   -0.5664 H   0  0  0  0  0  0  0  0  0  0  0  0
   -1.3642    0.7389   -1.5585 H   0  0  0  0  0  0  0  0  0  0  0  0
   -3.1886   -0.5735   -1.5289 H   0  0  0  0  0  0  0  0  0  0  0  0
   -4.1763   -0.6711   -0.0768 H   0  0  0  0  0  0  0  0  0  0  0  0
   -2.2475   -1.9053    1.0836 H   0  0  0  0  0  0  0  0  0  0  0  0
   -1.4245   -1.9452   -0.4615 H   0  0  0  0  0  0  0  0  0  0  0  0
   -3.3585   -3.1988   -1.4789 H   0  0  0  0  0  0  0  0  0  0  0  0
   -2.4713   -4.0584   -0.2444 H   0  0  0  0  0  0  0  0  0  0  0  0
   -5.1731   -2.6735    0.1824 H   0  0  0  0  0  0  0  0  0  0  0  0
   -4.2298   -3.4943    1.4527 H   0  0  0  0  0  0  0  0  0  0  0  0
   -5.7813   -4.8436    0.4893 H   0  0  0  0  0  0  0  0  0  0  0  0
  1  2  2  0
  2  3  1  0
  3  4  1  0
  4  5  2  0
  5  6  1  0
  6  7  2  0
  7  8  1  0
  8  9  2  0
  2 10  1  0
 10 11  2  0
 11 12  1  0
 12 13  1  0
 13 14  2  0
 14 15  1  0
 15 16  2  0
 16 17  1  0
 17 18  2  0
 12 19  1  0
 19 20  1  0
 20 21  1  0
 21 22  1  0
 22 23  1  0
 23 24  1  0
 24 25  1  0
 25 26  1  0
 20 27  1  0
  9  4  1  0
 27 10  1  0
 18 13  1  0
  3 28  1  0
  5 29  1  0
  6 30  1  0
  7 31  1  0
  8 32  1  0
  9 33  1  0
 11 34  1  0
 12 35  1  0
 14 36  1  0
 15 37  1  0
 16 38  1  0
 17 39  1  0
 18 40  1  0
 19 41  1  0
 19 42  1  0
 20 43  1  0
 22 44  1  0
 22 45  1  0
 23 46  1  0
 23 47  1  0
 24 48  1  0
 24 49  1  0
 25 50  1  0
 25 51  1  0
 26 52  1  0
M  END
$$$$
