
     RDKit          3D

 42 44  0  0  0  0  0  0  0  0999 V2000
    4.2656    0.4452   -0.3661 C   0  0  0  0  0  0  0  0  0  0  0  0
    3.8266    0.3024    1.0891 C   0  0  0  0  0  0  0  0  0  0  0  0
    5.0473    0.2264    2.0053 C   0  0  0  0  0  0  0  0  0  0  0  0
    2.8455   -1.2330    1.3168 S   0  0  0  0  0  0  0  0  0  0  0  0
    1.2539   -0.7588    0.6505 C   0  0  0  0  0  0  0  0  0  0  0  0
    0.2963   -1.7377    0.4860 C   0  0  0  0  0  0  0  0  0  0  0  0
   -0.9285   -1.3557   -0.0213 C   0  0  0  0  0  0  0  0  0  0  0  0
   -1.9383   -2.2684   -0.2387 N   0  0  0  0  0  0  0  0  0  0  0  0
   -3.2367   -1.7867   -0.7024 C   0  0  0  0  0  0  0  0  0  0  0  0
   -4.0959   -3.0464   -0.6791 C   0  0  0  0  0  0  0  0  0  0  0  0
   -3.5792   -3.7734    0.5519 C   0  0  0  0  0  0  0  0  0  0  0  0
   -2.0736   -3.5037    0.5277 C   0  0  0  0  0  0  0  0  0  0  0  0
   -1.1492   -0.0739   -0.3565 N   0  0  0  0  0  0  0  0  0  0  0  0
   -0.1740    0.8217   -0.1374 C   0  0  0  0  0  0  0  0  0  0  0  0
   -0.4176    2.2147   -0.5279 C   0  0  0  0  0  0  0  0  0  0  0  0
    0.5478    2.8872   -1.3097 C   0  0  0  0  0  0  0  0  0  0  0  0
    0.3659    4.2087   -1.7260 C   0  0  0  0  0  0  0  0  0  0  0  0
   -0.7876    4.8948   -1.3653 C   0  0  0  0  0  0  0  0  0  0  0  0
   -1.7518    4.2610   -0.5838 C   0  0  0  0  0  0  0  0  0  0  0  0
   -1.5706    2.9345   -0.1643 C   0  0  0  0  0  0  0  0  0  0  0  0
   -2.8051    2.2752    0.8583 Cl  0  0  0  0  0  0  0  0  0  0  0  0
    1.0411    0.5276    0.3469 N   0  0  0  0  0  0  0  0  0  0  0  0
    3.4121    0.5171   -1.0475 H   0  0  0  0  0  0  0  0  0  0  0  0
    4.8875   -0.3982   -0.6873 H   0  0  0  0  0  0  0  0  0  0  0  0
    4.8588    1.3575   -0.4951 H   0  0  0  0  0  0  0  0  0  0  0  0
    3.2346    1.1723    1.3921 H   0  0  0  0  0  0  0  0  0  0  0  0
    4.7517    0.1421    3.0571 H   0  0  0  0  0  0  0  0  0  0  0  0
    5.6932   -0.6241    1.7590 H   0  0  0  0  0  0  0  0  0  0  0  0
    5.6513    1.1358    1.9100 H   0  0  0  0  0  0  0  0  0  0  0  0
    0.5109   -2.7686    0.7315 H   0  0  0  0  0  0  0  0  0  0  0  0
   -3.1871   -1.3622   -1.7107 H   0  0  0  0  0  0  0  0  0  0  0  0
   -3.6490   -1.0404   -0.0119 H   0  0  0  0  0  0  0  0  0  0  0  0
   -3.9107   -3.6494   -1.5762 H   0  0  0  0  0  0  0  0  0  0  0  0
   -5.1652   -2.8248   -0.6252 H   0  0  0  0  0  0  0  0  0  0  0  0
   -4.0212   -3.3350    1.4550 H   0  0  0  0  0  0  0  0  0  0  0  0
   -3.8124   -4.8419    0.5451 H   0  0  0  0  0  0  0  0  0  0  0  0
   -1.5437   -4.3139    0.0151 H   0  0  0  0  0  0  0  0  0  0  0  0
   -1.6948   -3.4215    1.5526 H   0  0  0  0  0  0  0  0  0  0  0  0
    1.4573    2.3652   -1.6063 H   0  0  0  0  0  0  0  0  0  0  0  0
    1.1256    4.6967   -2.3316 H   0  0  0  0  0  0  0  0  0  0  0  0
   -0.9351    5.9231   -1.6855 H   0  0  0  0  0  0  0  0  0  0  0  0
   -2.6458    4.8085   -0.2943 H   0  0  0  0  0  0  0  0  0  0  0  0
  1  2  1  0
  2  3  1  0
  2  4  1  0
  4  5  1  0
  5  6  2  0
  6  7  1  0
  7  8  1  0
  8  9  1  0
  9 10  1  0
 10 11  1  0
 11 12  1  0
  7 13  2  0
 13 14  1  0
 14 15  1  0
 15 16  2  0
 16 17  1  0
 17 18  2  0
 18 19  1  0
 19 20  2  0
 20 21  1  0
 14 22  2  0
 22  5  1  0
 12  8  1  0
 20 15  1  0
  1 23  1  0
  1 24  1  0
  1 25  1  0
  2 26  1  0
  3 27  1  0
  3 28  1  0
  3 29  1  0
  6 30  1  0
  9 31  1  0
  9 32  1  0
 10 33  1  0
 10 34  1  0
 11 35  1  0
 11 36  1  0
 12 37  1  0
 12 38  1  0
 16 39  1  0
 17 40  1  0
 18 41  1  0
 19 42  1  0
M  END
$$$$
