
     RDKit          3D

 77 83  0  0  0  0  0  0  0  0999 V2000
   -6.6969    0.3715   -2.3080 C   0  0  0  0  0  0  0  0  0  0  0  0
   -6.5693   -0.9908   -1.6170 C   0  0  0  0  0  0  0  0  0  0  0  0
   -6.7434   -2.0928   -2.6737 C   0  0  0  0  0  0  0  0  0  0  0  0
   -7.6310   -1.1853   -0.5290 C   0  0  0  0  0  0  0  0  0  0  0  0
   -5.2326   -1.1962   -1.0929 O   0  0  0  0  0  0  0  0  0  0  0  0
   -4.7233   -0.3840   -0.1305 C   0  0  0  0  0  0  0  0  0  0  0  0
   -5.3283    0.5569    0.3663 O   0  0  0  0  0  0  0  0  0  0  0  0
   -3.4350   -0.7427    0.2259 N   0  0  0  0  0  0  0  0  0  0  0  0
   -2.8515   -2.0277   -0.1345 C   0  0  0  0  0  0  0  0  0  0  0  0
   -1.3339   -1.9022   -0.3001 C   0  0  0  0  0  0  0  0  0  0  0  0
   -0.6366   -1.4687    0.9272 N   0  0  0  0  0  0  0  0  0  0  0  0
   -1.2966   -0.2010    1.4789 C   0  0  2  0  0  0  0  0  0  0  0  0
   -2.8325   -0.0883    1.3827 C   0  0  0  0  0  0  0  0  0  0  0  0
   -0.4944    0.8704    0.8278 C   0  0  0  0  0  0  0  0  0  0  0  0
    0.7316    0.3726    0.3756 C   0  0  0  0  0  0  0  0  0  0  0  0
    1.4494    1.4047   -0.1743 C   0  0  0  0  0  0  0  0  0  0  0  0
    2.6804    1.4213   -0.6813 O   0  0  0  0  0  0  0  0  0  0  0  0
    0.6657    2.5701   -0.0437 N   0  0  0  0  0  0  0  0  0  0  0  0
    1.0688    3.9012   -0.3843 C   0  0  0  0  0  0  0  0  0  0  0  0
    1.9433    4.1313   -1.4537 C   0  0  0  0  0  0  0  0  0  0  0  0
    2.3285    5.4342   -1.7816 C   0  0  0  0  0  0  0  0  0  0  0  0
    1.8531    6.5138   -1.0405 C   0  0  0  0  0  0  0  0  0  0  0  0
    0.9964    6.2935    0.0352 C   0  0  0  0  0  0  0  0  0  0  0  0
    0.6059    4.9932    0.3661 C   0  0  0  0  0  0  0  0  0  0  0  0
   -0.5730    2.1992    0.5208 C   0  0  0  0  0  0  0  0  0  0  0  0
   -1.6159    3.0132    0.6706 O   0  0  0  0  0  0  0  0  0  0  0  0
    0.8119   -1.0791    0.6688 C   0  0  1  0  0  0  0  0  0  0  0  0
    1.6455   -1.3582    1.9687 C   0  0  0  0  0  0  0  0  0  0  0  0
    1.4253   -0.9433    3.1003 O   0  0  0  0  0  0  0  0  0  0  0  0
    2.7249   -2.1692    1.5934 N   0  0  0  0  0  0  0  0  0  0  0  0
    3.7934   -2.5243    2.5008 C   0  0  0  0  0  0  0  0  0  0  0  0
    4.9913   -1.6080    2.3716 C   0  0  0  0  0  0  0  0  0  0  0  0
    4.8760   -0.2378    2.6548 C   0  0  0  0  0  0  0  0  0  0  0  0
    5.9742    0.6117    2.5169 C   0  0  0  0  0  0  0  0  0  0  0  0
    7.2029    0.1015    2.1042 C   0  0  0  0  0  0  0  0  0  0  0  0
    7.3358   -1.2589    1.8339 C   0  0  0  0  0  0  0  0  0  0  0  0
    6.2374   -2.1105    1.9688 C   0  0  0  0  0  0  0  0  0  0  0  0
    2.7227   -2.4119    0.2138 C   0  0  0  0  0  0  0  0  0  0  0  0
    3.6552   -3.1217   -0.5254 C   0  0  0  0  0  0  0  0  0  0  0  0
    3.4992   -3.1750   -1.9111 C   0  0  0  0  0  0  0  0  0  0  0  0
    2.4332   -2.5126   -2.5329 C   0  0  0  0  0  0  0  0  0  0  0  0
    1.4984   -1.8022   -1.7757 C   0  0  0  0  0  0  0  0  0  0  0  0
    1.6301   -1.7751   -0.3900 C   0  0  0  0  0  0  0  0  0  0  0  0
   -6.6618    1.1989   -1.5931 H   0  0  0  0  0  0  0  0  0  0  0  0
   -5.8722    0.5285   -3.0119 H   0  0  0  0  0  0  0  0  0  0  0  0
   -7.6421    0.4541   -2.8551 H   0  0  0  0  0  0  0  0  0  0  0  0
   -6.6208   -3.0857   -2.2251 H   0  0  0  0  0  0  0  0  0  0  0  0
   -5.9766   -2.0097   -3.4526 H   0  0  0  0  0  0  0  0  0  0  0  0
   -7.7279   -2.0483   -3.1512 H   0  0  0  0  0  0  0  0  0  0  0  0
   -8.6400   -1.1899   -0.9543 H   0  0  0  0  0  0  0  0  0  0  0  0
   -7.5967   -0.3928    0.2241 H   0  0  0  0  0  0  0  0  0  0  0  0
   -7.4738   -2.1301    0.0028 H   0  0  0  0  0  0  0  0  0  0  0  0
   -3.2797   -2.4035   -1.0689 H   0  0  0  0  0  0  0  0  0  0  0  0
   -3.1046   -2.7463    0.6545 H   0  0  0  0  0  0  0  0  0  0  0  0
   -0.9492   -2.8825   -0.6031 H   0  0  0  0  0  0  0  0  0  0  0  0
   -1.1652   -1.1960   -1.1214 H   0  0  0  0  0  0  0  0  0  0  0  0
   -1.0548   -0.1572    2.5504 H   0  0  0  0  0  0  0  0  0  0  0  0
   -3.1593    0.9555    1.4328 H   0  0  0  0  0  0  0  0  0  0  0  0
   -3.2681   -0.5949    2.2544 H   0  0  0  0  0  0  0  0  0  0  0  0
    3.0678    0.5319   -0.5863 H   0  0  0  0  0  0  0  0  0  0  0  0
    2.3170    3.3160   -2.0672 H   0  0  0  0  0  0  0  0  0  0  0  0
    3.0021    5.6036   -2.6179 H   0  0  0  0  0  0  0  0  0  0  0  0
    2.1595    7.5252   -1.2949 H   0  0  0  0  0  0  0  0  0  0  0  0
    0.6444    7.1333    0.6294 H   0  0  0  0  0  0  0  0  0  0  0  0
   -0.0151    4.8545    1.2489 H   0  0  0  0  0  0  0  0  0  0  0  0
   -1.5346    3.7465    0.0342 H   0  0  0  0  0  0  0  0  0  0  0  0
    4.0701   -3.5705    2.3247 H   0  0  0  0  0  0  0  0  0  0  0  0
    3.4274   -2.4692    3.5335 H   0  0  0  0  0  0  0  0  0  0  0  0
    3.9265    0.1789    2.9880 H   0  0  0  0  0  0  0  0  0  0  0  0
    5.8685    1.6717    2.7339 H   0  0  0  0  0  0  0  0  0  0  0  0
    8.0575    0.7646    1.9988 H   0  0  0  0  0  0  0  0  0  0  0  0
    8.2971   -1.6563    1.5182 H   0  0  0  0  0  0  0  0  0  0  0  0
    6.3640   -3.1692    1.7557 H   0  0  0  0  0  0  0  0  0  0  0  0
    4.4967   -3.6217   -0.0606 H   0  0  0  0  0  0  0  0  0  0  0  0
    4.2191   -3.7219   -2.5163 H   0  0  0  0  0  0  0  0  0  0  0  0
    2.3381   -2.5446   -3.6165 H   0  0  0  0  0  0  0  0  0  0  0  0
    0.7007   -1.2659   -2.2807 H   0  0  0  0  0  0  0  0  0  0  0  0
  1  2  1  0
  2  3  1  0
  2  4  1  0
  2  5  1  0
  5  6  1  0
  6  7  2  0
  6  8  1  0
  8  9  1  0
  9 10  1  0
 10 11  1  0
 11 12  1  0
 12 13  1  0
 12 14  1  0
 14 15  1  0
 15 16  2  0
 16 17  1  0
 16 18  1  0
 18 19  1  0
 19 20  2  0
 20 21  1  0
 21 22  2  0
 22 23  1  0
 23 24  2  0
 18 25  1  0
 25 26  1  0
 15 27  1  0
 27 28  1  0
 28 29  2  0
 28 30  1  0
 30 31  1  0
 31 32  1  0
 32 33  2  0
 33 34  1  0
 34 35  2  0
 35 36  1  0
 36 37  2  0
 30 38  1  0
 38 39  2  0
 39 40  1  0
 40 41  2  0
 41 42  1  0
 42 43  2  0
 13  8  1  0
 25 14  2  0
 43 27  1  0
 27 11  1  1
 37 32  1  0
 43 38  1  0
 24 19  1  0
  1 44  1  0
  1 45  1  0
  1 46  1  0
  3 47  1  0
  3 48  1  0
  3 49  1  0
  4 50  1  0
  4 51  1  0
  4 52  1  0
  9 53  1  0
  9 54  1  0
 10 55  1  0
 10 56  1  0
 12 57  1  1
 13 58  1  0
 13 59  1  0
 17 60  1  0
 20 61  1  0
 21 62  1  0
 22 63  1  0
 23 64  1  0
 24 65  1  0
 26 66  1  0
 31 67  1  0
 31 68  1  0
 33 69  1  0
 34 70  1  0
 35 71  1  0
 36 72  1  0
 37 73  1  0
 39 74  1  0
 40 75  1  0
 41 76  1  0
 42 77  1  0
M  END
$$$$
