
     RDKit          3D

 41 42  0  0  0  0  0  0  0  0999 V2000
   -1.6964    1.8921   -2.1329 O   0  0  0  0  0  0  0  0  0  0  0  0
   -0.7775    1.3898   -1.1531 C   0  0  0  0  0  0  0  0  0  0  0  0
    0.6453    1.4604   -1.7113 C   0  0  0  0  0  0  0  0  0  0  0  0
    1.5770    0.9996   -0.7341 O   0  0  0  0  0  0  0  0  0  0  0  0
    2.9172    1.0600   -1.2182 C   0  0  0  0  0  0  0  0  0  0  0  0
    3.8443    0.5648   -0.1372 C   0  0  0  0  0  0  0  0  0  0  0  0
    3.8599    1.1868    1.1212 C   0  0  0  0  0  0  0  0  0  0  0  0
    4.7248    0.7424    2.1238 C   0  0  0  0  0  0  0  0  0  0  0  0
    5.5817   -0.3265    1.8723 C   0  0  0  0  0  0  0  0  0  0  0  0
    6.6478   -0.8769    3.1058 Cl  0  0  0  0  0  0  0  0  0  0  0  0
    5.5812   -0.9536    0.6281 C   0  0  0  0  0  0  0  0  0  0  0  0
    4.7157   -0.5084   -0.3748 C   0  0  0  0  0  0  0  0  0  0  0  0
   -1.1791   -0.0563   -0.7826 C   0  0  0  0  0  0  0  0  0  0  0  0
   -2.6193   -0.1400   -0.4378 N   0  0  0  0  0  0  0  0  0  0  0  0
   -3.1004   -1.5223   -0.5980 C   0  0  0  0  0  0  0  0  0  0  0  0
   -4.4869   -1.7095    0.0120 C   0  0  0  0  0  0  0  0  0  0  0  0
   -4.4759   -1.4567    1.5183 C   0  0  0  0  0  0  0  0  0  0  0  0
   -3.2873   -0.6032    1.9526 C   0  0  0  0  0  0  0  0  0  0  0  0
   -2.9184    0.4308    0.8895 C   0  0  0  0  0  0  0  0  0  0  0  0
   -2.5575    1.5013   -1.8730 H   0  0  0  0  0  0  0  0  0  0  0  0
   -0.8450    2.0361   -0.2713 H   0  0  0  0  0  0  0  0  0  0  0  0
    0.7245    0.8533   -2.6220 H   0  0  0  0  0  0  0  0  0  0  0  0
    0.8779    2.4961   -1.9880 H   0  0  0  0  0  0  0  0  0  0  0  0
    3.1815    2.0926   -1.4760 H   0  0  0  0  0  0  0  0  0  0  0  0
    3.0064    0.4397   -2.1178 H   0  0  0  0  0  0  0  0  0  0  0  0
    3.1861    2.0175    1.3241 H   0  0  0  0  0  0  0  0  0  0  0  0
    4.7216    1.2309    3.0941 H   0  0  0  0  0  0  0  0  0  0  0  0
    6.2490   -1.7886    0.4327 H   0  0  0  0  0  0  0  0  0  0  0  0
    4.7241   -1.0092   -1.3407 H   0  0  0  0  0  0  0  0  0  0  0  0
   -1.0022   -0.6775   -1.6714 H   0  0  0  0  0  0  0  0  0  0  0  0
   -0.5527   -0.4544    0.0252 H   0  0  0  0  0  0  0  0  0  0  0  0
   -3.1502   -1.7606   -1.6670 H   0  0  0  0  0  0  0  0  0  0  0  0
   -2.4055   -2.2378   -0.1384 H   0  0  0  0  0  0  0  0  0  0  0  0
   -5.1925   -1.0196   -0.4690 H   0  0  0  0  0  0  0  0  0  0  0  0
   -4.8578   -2.7208   -0.1902 H   0  0  0  0  0  0  0  0  0  0  0  0
   -4.4462   -2.4100    2.0597 H   0  0  0  0  0  0  0  0  0  0  0  0
   -5.4152   -0.9689    1.8055 H   0  0  0  0  0  0  0  0  0  0  0  0
   -2.4215   -1.2498    2.1458 H   0  0  0  0  0  0  0  0  0  0  0  0
   -3.5199   -0.1048    2.9007 H   0  0  0  0  0  0  0  0  0  0  0  0
   -2.0935    1.0429    1.2709 H   0  0  0  0  0  0  0  0  0  0  0  0
   -3.7651    1.1179    0.7644 H   0  0  0  0  0  0  0  0  0  0  0  0
  1  2  1  0
  2  3  1  0
  3  4  1  0
  4  5  1  0
  5  6  1  0
  6  7  2  0
  7  8  1  0
  8  9  2  0
  9 10  1  0
  9 11  1  0
 11 12  2  0
  2 13  1  0
 13 14  1  0
 14 15  1  0
 15 16  1  0
 16 17  1  0
 17 18  1  0
 18 19  1  0
 12  6  1  0
 19 14  1  0
  1 20  1  0
  2 21  1  0
  3 22  1  0
  3 23  1  0
  5 24  1  0
  5 25  1  0
  7 26  1  0
  8 27  1  0
 11 28  1  0
 12 29  1  0
 13 30  1  0
 13 31  1  0
 15 32  1  0
 15 33  1  0
 16 34  1  0
 16 35  1  0
 17 36  1  0
 17 37  1  0
 18 38  1  0
 18 39  1  0
 19 40  1  0
 19 41  1  0
M  END
$$$$
