
     RDKit          3D

 41 44  0  0  0  0  0  0  0  0999 V2000
    4.1045   -4.4234    2.5217 C   0  0  0  0  0  0  0  0  0  0  0  0
    3.0485   -3.4699    2.5185 O   0  0  0  0  0  0  0  0  0  0  0  0
    2.7334   -2.8959    1.3158 C   0  0  0  0  0  0  0  0  0  0  0  0
    3.3573   -3.1532    0.0997 C   0  0  0  0  0  0  0  0  0  0  0  0
    2.9557   -2.4925   -1.0663 C   0  0  0  0  0  0  0  0  0  0  0  0
    1.9046   -1.5735   -0.9703 C   0  0  0  0  0  0  0  0  0  0  0  0
    1.3377   -0.7895   -1.9388 N   0  0  0  0  0  0  0  0  0  0  0  0
    0.3358    0.0087   -1.4255 C   0  0  0  0  0  0  0  0  0  0  0  0
   -0.4518    0.9760   -2.0796 C   0  0  0  0  0  0  0  0  0  0  0  0
   -0.2762    1.2727   -3.5496 C   0  0  0  0  0  0  0  0  0  0  0  0
   -1.3974    1.6812   -1.2864 C   0  0  0  0  0  0  0  0  0  0  0  0
   -2.1912    2.7041   -1.8364 C   0  0  0  0  0  0  0  0  0  0  0  0
   -3.1029    3.4008   -1.0585 C   0  0  0  0  0  0  0  0  0  0  0  0
   -3.2406    3.1069    0.2445 N   0  0  0  0  0  4  0  0  0  0  0  0
   -4.1973    3.8555    1.0774 C   0  0  0  0  0  0  0  0  0  0  0  0
   -2.4999    2.1308    0.8116 C   0  0  0  0  0  0  0  0  0  0  0  0
   -1.5644    1.3719    0.0851 C   0  0  0  0  0  0  0  0  0  0  0  0
   -0.7978    0.3263    0.6949 C   0  0  0  0  0  0  0  0  0  0  0  0
   -1.0386   -0.0646    2.1358 C   0  0  0  0  0  0  0  0  0  0  0  0
    0.2133   -0.3163   -0.0750 C   0  0  0  0  0  0  0  0  0  0  0  0
    1.2371   -1.2964    0.2180 C   0  0  0  0  0  0  0  0  0  0  0  0
    1.6807   -1.9702    1.3792 C   0  0  0  0  0  0  0  0  0  0  0  0
    4.2253   -4.7844    3.5476 H   0  0  0  0  0  0  0  0  0  0  0  0
    5.0508   -3.9647    2.2164 H   0  0  0  0  0  0  0  0  0  0  0  0
    3.8600   -5.2850    1.8918 H   0  0  0  0  0  0  0  0  0  0  0  0
    4.1741   -3.8639    0.0186 H   0  0  0  0  0  0  0  0  0  0  0  0
    3.4541   -2.6906   -2.0106 H   0  0  0  0  0  0  0  0  0  0  0  0
    1.6434   -0.7856   -2.9006 H   0  0  0  0  0  0  0  0  0  0  0  0
   -1.2223    1.1283   -4.0815 H   0  0  0  0  0  0  0  0  0  0  0  0
    0.4583    0.6155   -4.0226 H   0  0  0  0  0  0  0  0  0  0  0  0
    0.0700    2.3021   -3.6887 H   0  0  0  0  0  0  0  0  0  0  0  0
   -2.1081    2.9822   -2.8852 H   0  0  0  0  0  0  0  0  0  0  0  0
   -3.7168    4.1951   -1.4730 H   0  0  0  0  0  0  0  0  0  0  0  0
   -4.7969    4.5220    0.4529 H   0  0  0  0  0  0  0  0  0  0  0  0
   -4.8487    3.1334    1.5771 H   0  0  0  0  0  0  0  0  0  0  0  0
   -3.6216    4.4348    1.8040 H   0  0  0  0  0  0  0  0  0  0  0  0
   -2.6712    1.9853    1.8728 H   0  0  0  0  0  0  0  0  0  0  0  0
   -2.0963    0.0072    2.4057 H   0  0  0  0  0  0  0  0  0  0  0  0
   -0.4474    0.5693    2.8028 H   0  0  0  0  0  0  0  0  0  0  0  0
   -0.7863   -1.1121    2.3103 H   0  0  0  0  0  0  0  0  0  0  0  0
    1.2293   -1.7785    2.3464 H   0  0  0  0  0  0  0  0  0  0  0  0
  1  2  1  0
  2  3  1  0
  3  4  2  0
  4  5  1  0
  5  6  2  0
  6  7  1  0
  7  8  1  0
  8  9  2  0
  9 10  1  0
  9 11  1  0
 11 12  2  0
 12 13  1  0
 13 14  2  0
 14 15  1  0
 14 16  1  0
 16 17  2  0
 17 18  1  0
 18 19  1  0
 18 20  2  0
 20 21  1  0
 21 22  2  0
 22  3  1  0
 21  6  1  0
 20  8  1  0
 17 11  1  0
  1 23  1  0
  1 24  1  0
  1 25  1  0
  4 26  1  0
  5 27  1  0
  7 28  1  0
 10 29  1  0
 10 30  1  0
 10 31  1  0
 12 32  1  0
 13 33  1  0
 15 34  1  0
 15 35  1  0
 15 36  1  0
 16 37  1  0
 19 38  1  0
 19 39  1  0
 19 40  1  0
 22 41  1  0
M  CHG  1  14   1
M  END
$$$$
