
     RDKit          3D

 54 57  0  0  0  0  0  0  0  0999 V2000
   -3.8154    5.7107    0.6672 C   0  0  0  0  0  0  0  0  0  0  0  0
   -3.1625    4.6595    1.3670 O   0  0  0  0  0  0  0  0  0  0  0  0
   -2.4265    3.7819    0.6201 C   0  0  0  0  0  0  0  0  0  0  0  0
   -1.8358    2.7476    1.3473 C   0  0  0  0  0  0  0  0  0  0  0  0
   -1.0555    1.7803    0.7091 C   0  0  0  0  0  0  0  0  0  0  0  0
   -0.8546    1.8262   -0.6778 C   0  0  0  0  0  0  0  0  0  0  0  0
    0.0123    0.8078   -1.4040 C   0  0  0  0  0  0  0  0  0  0  0  0
    1.4946    1.1665   -1.2811 C   0  0  0  0  0  0  0  0  0  0  0  0
    1.9740    0.0462   -0.3997 C   0  0  0  0  0  0  0  0  0  0  0  0
    3.3487    0.0207    0.1524 C   0  0  0  0  0  0  0  0  0  0  0  0
    4.2847    1.0065   -0.1725 C   0  0  0  0  0  0  0  0  0  0  0  0
    5.5704    0.9494    0.3686 C   0  0  0  0  0  0  0  0  0  0  0  0
    5.9277   -0.0889    1.2333 C   0  0  0  0  0  0  0  0  0  0  0  0
    5.0004   -1.0779    1.5615 C   0  0  0  0  0  0  0  0  0  0  0  0
    5.2214   -2.1425    2.3910 O   0  0  0  0  0  0  0  0  0  0  0  0
    6.5152   -2.2535    2.9695 C   0  0  0  0  0  0  0  0  0  0  0  0
    3.7138   -1.0180    1.0180 C   0  0  0  0  0  0  0  0  0  0  0  0
    1.1069   -0.8971   -0.1907 N   0  0  0  0  0  0  0  0  0  0  0  0
   -0.0492   -0.5337   -0.8207 N   0  0  0  0  0  0  0  0  0  0  0  0
   -1.1070   -1.4332   -0.9434 C   0  0  0  0  0  0  0  0  0  0  0  0
   -2.2982   -1.1110   -1.6158 C   0  0  0  0  0  0  0  0  0  0  0  0
   -3.3541   -2.0252   -1.7255 C   0  0  0  0  0  0  0  0  0  0  0  0
   -3.2341   -3.2888   -1.1504 C   0  0  0  0  0  0  0  0  0  0  0  0
   -4.5486   -4.4576   -1.3076 S   0  0  0  0  0  6  0  0  0  0  0  0
   -5.4088   -4.2093    0.1121 N   0  0  0  0  0  0  0  0  0  0  0  0
   -4.0133   -5.7962   -1.2194 O   0  0  0  0  0  0  0  0  0  0  0  0
   -5.4285   -4.0472   -2.3777 O   0  0  0  0  0  0  0  0  0  0  0  0
   -2.0641   -3.6495   -0.4876 C   0  0  0  0  0  0  0  0  0  0  0  0
   -1.0204   -2.7232   -0.3854 C   0  0  0  0  0  0  0  0  0  0  0  0
   -1.4452    2.8749   -1.4011 C   0  0  0  0  0  0  0  0  0  0  0  0
   -2.2269    3.8428   -0.7583 C   0  0  0  0  0  0  0  0  0  0  0  0
   -3.0896    6.3714    0.1817 H   0  0  0  0  0  0  0  0  0  0  0  0
   -4.5371    5.3161   -0.0556 H   0  0  0  0  0  0  0  0  0  0  0  0
   -4.3693    6.3062    1.3993 H   0  0  0  0  0  0  0  0  0  0  0  0
   -1.9860    2.6898    2.4227 H   0  0  0  0  0  0  0  0  0  0  0  0
   -0.6129    0.9827    1.3044 H   0  0  0  0  0  0  0  0  0  0  0  0
   -0.2636    0.7738   -2.4659 H   0  0  0  0  0  0  0  0  0  0  0  0
    1.9981    1.0913   -2.2509 H   0  0  0  0  0  0  0  0  0  0  0  0
    1.6834    2.1479   -0.8374 H   0  0  0  0  0  0  0  0  0  0  0  0
    4.0413    1.8244   -0.8433 H   0  0  0  0  0  0  0  0  0  0  0  0
    6.2994    1.7162    0.1165 H   0  0  0  0  0  0  0  0  0  0  0  0
    6.9367   -0.0965    1.6324 H   0  0  0  0  0  0  0  0  0  0  0  0
    6.5260   -3.1517    3.5948 H   0  0  0  0  0  0  0  0  0  0  0  0
    6.7338   -1.3959    3.6144 H   0  0  0  0  0  0  0  0  0  0  0  0
    7.2835   -2.3752    2.1987 H   0  0  0  0  0  0  0  0  0  0  0  0
    2.9943   -1.7923    1.2780 H   0  0  0  0  0  0  0  0  0  0  0  0
   -2.4348   -0.1327   -2.0665 H   0  0  0  0  0  0  0  0  0  0  0  0
   -4.2590   -1.7378   -2.2554 H   0  0  0  0  0  0  0  0  0  0  0  0
   -6.3480   -3.8760   -0.1035 H   0  0  0  0  0  0  0  0  0  0  0  0
   -5.3864   -5.0535    0.6839 H   0  0  0  0  0  0  0  0  0  0  0  0
   -1.9495   -4.6369   -0.0477 H   0  0  0  0  0  0  0  0  0  0  0  0
   -0.1148   -3.0181    0.1421 H   0  0  0  0  0  0  0  0  0  0  0  0
   -1.3039    2.9483   -2.4776 H   0  0  0  0  0  0  0  0  0  0  0  0
   -2.6633    4.6301   -1.3637 H   0  0  0  0  0  0  0  0  0  0  0  0
  1  2  1  0
  2  3  1  0
  3  4  2  0
  4  5  1  0
  5  6  2  0
  6  7  1  0
  7  8  1  0
  8  9  1  0
  9 10  1  0
 10 11  2  0
 11 12  1  0
 12 13  2  0
 13 14  1  0
 14 15  1  0
 15 16  1  0
 14 17  2  0
  9 18  2  0
 18 19  1  0
 19 20  1  0
 20 21  2  0
 21 22  1  0
 22 23  2  0
 23 24  1  0
 24 25  1  0
 24 26  2  0
 24 27  2  0
 23 28  1  0
 28 29  2  0
  6 30  1  0
 30 31  2  0
 31  3  1  0
 19  7  1  0
 29 20  1  0
 17 10  1  0
  1 32  1  0
  1 33  1  0
  1 34  1  0
  4 35  1  0
  5 36  1  0
  7 37  1  0
  8 38  1  0
  8 39  1  0
 11 40  1  0
 12 41  1  0
 13 42  1  0
 16 43  1  0
 16 44  1  0
 16 45  1  0
 17 46  1  0
 21 47  1  0
 22 48  1  0
 25 49  1  0
 25 50  1  0
 28 51  1  0
 29 52  1  0
 30 53  1  0
 31 54  1  0
M  END
$$$$
