
     RDKit          3D

 41 42  0  0  0  0  0  0  0  0999 V2000
   -2.0128   -0.0331   -3.4403 O   0  0  0  0  0  0  0  0  0  0  0  0
   -1.3625    0.2069   -2.4260 C   0  0  0  0  0  0  0  0  0  0  0  0
    0.1323   -0.0803   -2.3291 C   0  0  0  0  0  0  0  0  0  0  0  0
    0.5228   -0.2729   -0.9706 O   0  0  0  0  0  0  0  0  0  0  0  0
    1.9144   -0.4496   -0.9258 N   0  0  0  0  0  0  0  0  0  0  0  0
    2.2683   -0.7054    0.2924 C   0  0  0  0  0  0  0  0  0  0  0  0
    3.6767   -0.9410    0.6612 C   0  0  0  0  0  0  0  0  0  0  0  0
    3.9818   -1.2212    1.9981 C   0  0  0  0  0  0  0  0  0  0  0  0
    5.3059   -1.4497    2.3790 C   0  0  0  0  0  0  0  0  0  0  0  0
    6.3261   -1.3986    1.4272 C   0  0  0  0  0  0  0  0  0  0  0  0
    6.0132   -1.1168    0.0890 C   0  0  0  0  0  0  0  0  0  0  0  0
    7.0877   -1.0623   -0.9104 N   0  0  0  0  0  4  0  0  0  0  0  0
    8.2409   -1.3066   -0.5282 O   0  0  0  0  0  0  0  0  0  0  0  0
    6.7792   -0.7745   -2.0749 O   0  0  0  0  0  1  0  0  0  0  0  0
    4.6886   -0.8867   -0.3025 C   0  0  0  0  0  0  0  0  0  0  0  0
   -1.9022    0.8043   -1.3027 N   0  0  0  0  0  0  0  0  0  0  0  0
   -3.3327    1.0442   -1.1642 C   0  0  0  0  0  0  0  0  0  0  0  0
   -4.0719   -0.2408   -0.7451 C   0  0  0  0  0  0  0  0  0  0  0  0
   -4.2355   -0.3323    0.7681 C   0  0  0  0  0  0  0  0  0  0  0  0
   -5.0490    0.8388    1.3236 C   0  0  0  0  0  0  0  0  0  0  0  0
   -4.9258    2.1165    0.4915 C   0  0  0  0  0  0  0  0  0  0  0  0
   -3.5681    2.2123   -0.1918 C   0  0  0  0  0  0  0  0  0  0  0  0
    0.6724    0.7696   -2.7601 H   0  0  0  0  0  0  0  0  0  0  0  0
    0.3465   -0.9929   -2.8953 H   0  0  0  0  0  0  0  0  0  0  0  0
    1.5188   -0.7574    1.1030 H   0  0  0  0  0  0  0  0  0  0  0  0
    3.1979   -1.2652    2.7511 H   0  0  0  0  0  0  0  0  0  0  0  0
    5.5436   -1.6683    3.4183 H   0  0  0  0  0  0  0  0  0  0  0  0
    7.3529   -1.5791    1.7412 H   0  0  0  0  0  0  0  0  0  0  0  0
    4.4394   -0.6685   -1.3393 H   0  0  0  0  0  0  0  0  0  0  0  0
   -1.3319    0.7616   -0.4646 H   0  0  0  0  0  0  0  0  0  0  0  0
   -3.7090    1.3304   -2.1548 H   0  0  0  0  0  0  0  0  0  0  0  0
   -3.5588   -1.1346   -1.1187 H   0  0  0  0  0  0  0  0  0  0  0  0
   -5.0704   -0.2422   -1.2015 H   0  0  0  0  0  0  0  0  0  0  0  0
   -4.7203   -1.2766    1.0410 H   0  0  0  0  0  0  0  0  0  0  0  0
   -3.2442   -0.3437    1.2386 H   0  0  0  0  0  0  0  0  0  0  0  0
   -4.7259    1.0330    2.3535 H   0  0  0  0  0  0  0  0  0  0  0  0
   -6.1081    0.5603    1.3839 H   0  0  0  0  0  0  0  0  0  0  0  0
   -5.0921    2.9898    1.1323 H   0  0  0  0  0  0  0  0  0  0  0  0
   -5.7151    2.1340   -0.2706 H   0  0  0  0  0  0  0  0  0  0  0  0
   -2.7872    2.2379    0.5800 H   0  0  0  0  0  0  0  0  0  0  0  0
   -3.4861    3.1608   -0.7363 H   0  0  0  0  0  0  0  0  0  0  0  0
  1  2  2  0
  2  3  1  0
  3  4  1  0
  4  5  1  0
  5  6  2  3
  6  7  1  0
  7  8  2  0
  8  9  1  0
  9 10  2  0
 10 11  1  0
 11 12  1  0
 12 13  2  0
 12 14  1  0
 11 15  2  0
  2 16  1  0
 16 17  1  0
 17 18  1  0
 18 19  1  0
 19 20  1  0
 20 21  1  0
 21 22  1  0
 15  7  1  0
 22 17  1  0
  3 23  1  0
  3 24  1  0
  6 25  1  0
  8 26  1  0
  9 27  1  0
 10 28  1  0
 15 29  1  0
 16 30  1  0
 17 31  1  0
 18 32  1  0
 18 33  1  0
 19 34  1  0
 19 35  1  0
 20 36  1  0
 20 37  1  0
 21 38  1  0
 21 39  1  0
 22 40  1  0
 22 41  1  0
M  CHG  2  12   1  14  -1
M  END
$$$$
