
     RDKit          3D

 48 49  0  0  0  0  0  0  0  0999 V2000
    1.2417   -0.8222    3.1512 C   0  0  0  0  0  0  0  0  0  0  0  0
    1.7926   -0.4339    1.8999 O   0  0  0  0  0  0  0  0  0  0  0  0
    0.9288   -0.3042    0.8428 C   0  0  0  0  0  0  0  0  0  0  0  0
   -0.3999   -0.7442    0.8443 C   0  0  0  0  0  0  0  0  0  0  0  0
   -1.2204   -0.5641   -0.2830 C   0  0  0  0  0  0  0  0  0  0  0  0
   -2.6624   -1.0194   -0.2677 C   0  0  0  0  0  0  0  0  0  0  0  0
   -3.5404    0.1196   -0.0047 N   0  0  0  0  0  0  0  0  0  0  0  0
   -4.9956   -0.1668   -0.0561 C   0  0  0  0  0  0  0  0  0  0  0  0
   -5.6954    1.1338    0.3923 C   0  0  0  0  0  0  0  0  0  0  0  0
   -5.4216   -1.2982    0.8912 C   0  0  0  0  0  0  0  0  0  0  0  0
   -5.4327   -0.4933   -1.5095 C   0  0  0  0  0  0  0  0  0  0  0  0
   -4.8890    0.4655   -2.4178 O   0  0  0  0  0  0  0  0  0  0  0  0
   -0.6999    0.0829   -1.4129 C   0  0  0  0  0  0  0  0  0  0  0  0
    0.6247    0.5206   -1.4259 C   0  0  0  0  0  0  0  0  0  0  0  0
    1.2667    1.3940   -2.9838 Br  0  0  0  0  0  0  0  0  0  0  0  0
    1.4453    0.3072   -0.3126 C   0  0  0  0  0  0  0  0  0  0  0  0
    2.7383    0.7752   -0.3276 O   0  0  0  0  0  0  0  0  0  0  0  0
    3.6543   -0.2928   -0.5834 C   0  0  0  0  0  0  0  0  0  0  0  0
    5.0205    0.3114   -0.7999 C   0  0  0  0  0  0  0  0  0  0  0  0
    5.8538    0.5871    0.2943 C   0  0  0  0  0  0  0  0  0  0  0  0
    7.1108    1.1635    0.0991 C   0  0  0  0  0  0  0  0  0  0  0  0
    7.5357    1.4760   -1.1904 C   0  0  0  0  0  0  0  0  0  0  0  0
    9.0846    2.1865   -1.4311 Cl  0  0  0  0  0  0  0  0  0  0  0  0
    6.7130    1.2222   -2.2857 C   0  0  0  0  0  0  0  0  0  0  0  0
    5.4559    0.6454   -2.0907 C   0  0  0  0  0  0  0  0  0  0  0  0
    0.8929   -1.8594    3.1194 H   0  0  0  0  0  0  0  0  0  0  0  0
    0.4404   -0.1437    3.4626 H   0  0  0  0  0  0  0  0  0  0  0  0
    2.0378   -0.7627    3.8996 H   0  0  0  0  0  0  0  0  0  0  0  0
   -0.8243   -1.2330    1.7159 H   0  0  0  0  0  0  0  0  0  0  0  0
   -2.7828   -1.7966    0.4953 H   0  0  0  0  0  0  0  0  0  0  0  0
   -2.8810   -1.4844   -1.2354 H   0  0  0  0  0  0  0  0  0  0  0  0
   -3.3019    0.5048    0.9105 H   0  0  0  0  0  0  0  0  0  0  0  0
   -5.4366    1.3912    1.4265 H   0  0  0  0  0  0  0  0  0  0  0  0
   -5.4180    1.9851   -0.2404 H   0  0  0  0  0  0  0  0  0  0  0  0
   -6.7857    1.0303    0.3434 H   0  0  0  0  0  0  0  0  0  0  0  0
   -5.0773   -1.1112    1.9148 H   0  0  0  0  0  0  0  0  0  0  0  0
   -6.5134   -1.3912    0.9221 H   0  0  0  0  0  0  0  0  0  0  0  0
   -5.0258   -2.2687    0.5733 H   0  0  0  0  0  0  0  0  0  0  0  0
   -5.0838   -1.4827   -1.8227 H   0  0  0  0  0  0  0  0  0  0  0  0
   -6.5229   -0.4781   -1.6120 H   0  0  0  0  0  0  0  0  0  0  0  0
   -4.0644    0.7754   -1.9895 H   0  0  0  0  0  0  0  0  0  0  0  0
   -1.3386    0.2508   -2.2781 H   0  0  0  0  0  0  0  0  0  0  0  0
    3.6967   -0.9892    0.2630 H   0  0  0  0  0  0  0  0  0  0  0  0
    3.3595   -0.8641   -1.4739 H   0  0  0  0  0  0  0  0  0  0  0  0
    5.5199    0.3613    1.3052 H   0  0  0  0  0  0  0  0  0  0  0  0
    7.7471    1.3718    0.9547 H   0  0  0  0  0  0  0  0  0  0  0  0
    7.0391    1.4763   -3.2905 H   0  0  0  0  0  0  0  0  0  0  0  0
    4.8134    0.4658   -2.9502 H   0  0  0  0  0  0  0  0  0  0  0  0
  1  2  1  0
  2  3  1  0
  3  4  2  0
  4  5  1  0
  5  6  1  0
  6  7  1  0
  7  8  1  0
  8  9  1  0
  8 10  1  0
  8 11  1  0
 11 12  1  0
  5 13  2  0
 13 14  1  0
 14 15  1  0
 14 16  2  0
 16 17  1  0
 17 18  1  0
 18 19  1  0
 19 20  2  0
 20 21  1  0
 21 22  2  0
 22 23  1  0
 22 24  1  0
 24 25  2  0
 16  3  1  0
 25 19  1  0
  1 26  1  0
  1 27  1  0
  1 28  1  0
  4 29  1  0
  6 30  1  0
  6 31  1  0
  7 32  1  0
  9 33  1  0
  9 34  1  0
  9 35  1  0
 10 36  1  0
 10 37  1  0
 10 38  1  0
 11 39  1  0
 11 40  1  0
 12 41  1  0
 13 42  1  0
 18 43  1  0
 18 44  1  0
 20 45  1  0
 21 46  1  0
 24 47  1  0
 25 48  1  0
M  END
$$$$
