
     RDKit          3D

 43 45  0  0  0  0  0  0  0  0999 V2000
   -3.7649   -2.8317   -2.8910 C   0  0  0  0  0  0  0  0  0  0  0  0
   -2.9571   -2.2215   -1.7462 C   0  0  0  0  0  0  0  0  0  0  0  0
   -3.3249   -2.8910   -0.4244 C   0  0  0  0  0  0  0  0  0  0  0  0
   -1.1745   -2.4608   -2.1156 S   0  0  0  0  0  0  0  0  0  0  0  0
   -0.4055   -1.2466   -1.0507 C   0  0  0  0  0  0  0  0  0  0  0  0
    0.9697   -1.2266   -0.9706 C   0  0  0  0  0  0  0  0  0  0  0  0
    1.5496   -0.2759   -0.1550 C   0  0  0  0  0  0  0  0  0  0  0  0
    2.9284   -0.2053   -0.0002 N   0  0  0  0  0  0  0  0  0  0  0  0
    3.4343    0.7460    1.0035 C   0  0  0  0  0  0  0  0  0  0  0  0
    4.9616    0.6107    1.1088 C   0  0  0  0  0  0  0  0  0  0  0  0
    5.6571    0.8847   -0.1184 O   0  0  0  0  0  0  0  0  0  0  0  0
    4.8402    0.7149   -1.2847 C   0  0  0  0  0  0  0  0  0  0  0  0
    3.8104   -0.4223   -1.1607 C   0  0  0  0  0  0  0  0  0  0  0  0
    0.7789    0.5716    0.5472 N   0  0  0  0  0  0  0  0  0  0  0  0
   -0.5568    0.4898    0.4113 C   0  0  0  0  0  0  0  0  0  0  0  0
   -1.3872    1.4348    1.1872 C   0  0  0  0  0  0  0  0  0  0  0  0
   -0.8070    2.4598    1.9618 C   0  0  0  0  0  0  0  0  0  0  0  0
   -1.5911    3.3570    2.6971 C   0  0  0  0  0  0  0  0  0  0  0  0
   -2.9770    3.2438    2.6726 C   0  0  0  0  0  0  0  0  0  0  0  0
   -3.9431    4.3428    3.5760 Cl  0  0  0  0  0  0  0  0  0  0  0  0
   -3.5841    2.2440    1.9201 C   0  0  0  0  0  0  0  0  0  0  0  0
   -2.7948    1.3507    1.1857 C   0  0  0  0  0  0  0  0  0  0  0  0
   -1.1856   -0.3920   -0.3778 N   0  0  0  0  0  0  0  0  0  0  0  0
   -4.8371   -2.6892   -2.7151 H   0  0  0  0  0  0  0  0  0  0  0  0
   -3.5902   -3.9094   -2.9891 H   0  0  0  0  0  0  0  0  0  0  0  0
   -3.5273   -2.3527   -3.8474 H   0  0  0  0  0  0  0  0  0  0  0  0
   -3.1883   -1.1518   -1.7062 H   0  0  0  0  0  0  0  0  0  0  0  0
   -2.7789   -2.4603    0.4210 H   0  0  0  0  0  0  0  0  0  0  0  0
   -4.3927   -2.7595   -0.2183 H   0  0  0  0  0  0  0  0  0  0  0  0
   -3.1243   -3.9681   -0.4464 H   0  0  0  0  0  0  0  0  0  0  0  0
    1.5658   -1.9509   -1.5092 H   0  0  0  0  0  0  0  0  0  0  0  0
    2.9939    0.5375    1.9857 H   0  0  0  0  0  0  0  0  0  0  0  0
    3.1786    1.7723    0.7114 H   0  0  0  0  0  0  0  0  0  0  0  0
    5.2320   -0.4064    1.4168 H   0  0  0  0  0  0  0  0  0  0  0  0
    5.3515    1.2971    1.8671 H   0  0  0  0  0  0  0  0  0  0  0  0
    5.5104    0.5229   -2.1288 H   0  0  0  0  0  0  0  0  0  0  0  0
    4.3348    1.6679   -1.4825 H   0  0  0  0  0  0  0  0  0  0  0  0
    4.3329   -1.3743   -1.0114 H   0  0  0  0  0  0  0  0  0  0  0  0
    3.2561   -0.4812   -2.1041 H   0  0  0  0  0  0  0  0  0  0  0  0
    0.2766    2.5689    1.9948 H   0  0  0  0  0  0  0  0  0  0  0  0
   -1.1106    4.1361    3.2826 H   0  0  0  0  0  0  0  0  0  0  0  0
   -4.6666    2.1489    1.8980 H   0  0  0  0  0  0  0  0  0  0  0  0
   -3.2931    0.5755    0.6050 H   0  0  0  0  0  0  0  0  0  0  0  0
  1  2  1  0
  2  3  1  0
  2  4  1  0
  4  5  1  0
  5  6  2  0
  6  7  1  0
  7  8  1  0
  8  9  1  0
  9 10  1  0
 10 11  1  0
 11 12  1  0
 12 13  1  0
  7 14  2  0
 14 15  1  0
 15 16  1  0
 16 17  2  0
 17 18  1  0
 18 19  2  0
 19 20  1  0
 19 21  1  0
 21 22  2  0
 15 23  2  0
 23  5  1  0
 13  8  1  0
 22 16  1  0
  1 24  1  0
  1 25  1  0
  1 26  1  0
  2 27  1  0
  3 28  1  0
  3 29  1  0
  3 30  1  0
  6 31  1  0
  9 32  1  0
  9 33  1  0
 10 34  1  0
 10 35  1  0
 12 36  1  0
 12 37  1  0
 13 38  1  0
 13 39  1  0
 17 40  1  0
 18 41  1  0
 21 42  1  0
 22 43  1  0
M  END
$$$$
