
     RDKit          3D

 46 48  0  0  0  0  0  0  0  0999 V2000
   -3.9658   -1.8804    1.2679 C   0  0  0  0  0  0  0  0  0  0  0  0
   -5.0492   -1.0140    0.7519 C   0  0  0  0  0  0  0  0  0  0  0  0
   -6.3129   -1.4861    0.9580 O   0  0  0  0  0  0  0  0  0  0  0  0
   -7.1701   -0.6161    0.3722 C   0  0  0  0  0  0  0  0  0  0  0  0
   -6.4770    0.4187   -0.2036 C   0  0  0  0  0  0  0  0  0  0  0  0
   -5.0915    0.1888    0.0599 C   0  0  0  0  0  0  0  0  0  0  0  0
   -3.9889    1.0380   -0.3688 C   0  0  0  0  0  0  0  0  0  0  0  0
   -4.1041    1.8262   -1.3021 O   0  0  0  0  0  0  0  0  0  0  0  0
   -2.8385    0.9357    0.3763 N   0  0  0  0  0  0  0  0  0  0  0  0
   -1.7209    1.8103    0.1207 C   0  0  0  0  0  0  0  0  0  0  0  0
   -0.5470    1.4320    0.9834 C   0  0  0  0  0  0  0  0  0  0  0  0
   -0.2305    2.1749    2.1274 C   0  0  0  0  0  0  0  0  0  0  0  0
    0.8472    1.8066    2.9327 C   0  0  0  0  0  0  0  0  0  0  0  0
    1.6149    0.6876    2.6088 C   0  0  0  0  0  0  0  0  0  0  0  0
    1.3061   -0.0810    1.4790 C   0  0  0  0  0  0  0  0  0  0  0  0
    2.1423   -1.2798    1.1101 C   0  0  0  0  0  0  0  0  0  0  0  0
    3.0928   -0.9431    0.0761 N   0  0  0  0  0  0  0  0  0  0  0  0
    2.8410   -1.2253   -1.2475 C   0  0  0  0  0  0  0  0  0  0  0  0
    1.8560   -1.8565   -1.6175 O   0  0  0  0  0  0  0  0  0  0  0  0
    3.7967   -0.6774   -2.2004 C   0  0  0  0  0  0  0  0  0  0  0  0
    3.5409   -0.4198   -3.5829 C   0  0  0  0  0  0  0  0  0  0  0  0
    4.6977    0.0910   -4.1154 C   0  0  0  0  0  0  0  0  0  0  0  0
    5.6637    0.1490   -3.1678 O   0  0  0  0  0  0  0  0  0  0  0  0
    5.1281   -0.3342   -2.0096 C   0  0  0  0  0  0  0  0  0  0  0  0
    6.0701   -0.4055   -0.8708 C   0  0  0  0  0  0  0  0  0  0  0  0
    0.2247    0.3024    0.6709 C   0  0  0  0  0  0  0  0  0  0  0  0
   -4.3203   -2.9049    1.4212 H   0  0  0  0  0  0  0  0  0  0  0  0
   -3.5990   -1.5031    2.2272 H   0  0  0  0  0  0  0  0  0  0  0  0
   -3.1293   -1.9224    0.5636 H   0  0  0  0  0  0  0  0  0  0  0  0
   -8.2185   -0.8706    0.4421 H   0  0  0  0  0  0  0  0  0  0  0  0
   -6.9017    1.2518   -0.7475 H   0  0  0  0  0  0  0  0  0  0  0  0
   -2.8888    0.4950    1.2829 H   0  0  0  0  0  0  0  0  0  0  0  0
   -1.4522    1.7567   -0.9410 H   0  0  0  0  0  0  0  0  0  0  0  0
   -2.0392    2.8399    0.3205 H   0  0  0  0  0  0  0  0  0  0  0  0
   -0.8198    3.0491    2.3969 H   0  0  0  0  0  0  0  0  0  0  0  0
    1.0898    2.3945    3.8148 H   0  0  0  0  0  0  0  0  0  0  0  0
    2.4536    0.4193    3.2472 H   0  0  0  0  0  0  0  0  0  0  0  0
    1.4985   -2.1106    0.8004 H   0  0  0  0  0  0  0  0  0  0  0  0
    2.7181   -1.6235    1.9769 H   0  0  0  0  0  0  0  0  0  0  0  0
    3.7485   -0.2061    0.2846 H   0  0  0  0  0  0  0  0  0  0  0  0
    2.6106   -0.5850   -4.1102 H   0  0  0  0  0  0  0  0  0  0  0  0
    4.9833    0.4364   -5.0995 H   0  0  0  0  0  0  0  0  0  0  0  0
    5.9324   -1.3339   -0.3080 H   0  0  0  0  0  0  0  0  0  0  0  0
    7.1084   -0.3804   -1.2171 H   0  0  0  0  0  0  0  0  0  0  0  0
    5.9183    0.4416   -0.1954 H   0  0  0  0  0  0  0  0  0  0  0  0
   -0.0185   -0.2855   -0.2152 H   0  0  0  0  0  0  0  0  0  0  0  0
  1  2  1  0
  2  3  1  0
  3  4  1  0
  4  5  2  0
  5  6  1  0
  6  7  1  0
  7  8  2  0
  7  9  1  0
  9 10  1  0
 10 11  1  0
 11 12  2  0
 12 13  1  0
 13 14  2  0
 14 15  1  0
 15 16  1  0
 16 17  1  0
 17 18  1  0
 18 19  2  0
 18 20  1  0
 20 21  1  0
 21 22  2  0
 22 23  1  0
 23 24  1  0
 24 25  1  0
 15 26  2  0
  6  2  2  0
 26 11  1  0
 24 20  2  0
  1 27  1  0
  1 28  1  0
  1 29  1  0
  4 30  1  0
  5 31  1  0
  9 32  1  0
 10 33  1  0
 10 34  1  0
 12 35  1  0
 13 36  1  0
 14 37  1  0
 16 38  1  0
 16 39  1  0
 17 40  1  0
 21 41  1  0
 22 42  1  0
 25 43  1  0
 25 44  1  0
 25 45  1  0
 26 46  1  0
M  END
$$$$
