
     RDKit          3D

 48 50  0  0  0  0  0  0  0  0999 V2000
    5.3876   -4.4131   -0.3508 C   0  0  0  0  0  0  0  0  0  0  0  0
    5.3930   -2.9013   -0.5043 C   0  0  0  0  0  0  0  0  0  0  0  0
    4.0570   -2.2969   -0.0914 C   0  0  0  0  0  0  0  0  0  0  0  0
    4.0482   -0.5278   -0.3194 S   0  0  0  0  0  6  0  0  0  0  0  0
    4.9751    0.0763    0.6189 O   0  0  0  0  0  0  0  0  0  0  0  0
    4.0838   -0.2320   -1.7391 O   0  0  0  0  0  0  0  0  0  0  0  0
    2.4298   -0.0620    0.2286 C   0  0  0  0  0  0  0  0  0  0  0  0
    1.4834   -0.8891    0.6125 N   0  0  0  0  0  0  0  0  0  0  0  0
    0.3637   -0.1414    0.9933 C   0  0  0  0  0  0  0  0  0  0  0  0
   -1.0996   -0.9522    1.5094 S   0  0  0  0  0  6  0  0  0  0  0  0
   -0.6668   -2.2401    2.0186 O   0  0  0  0  0  0  0  0  0  0  0  0
   -1.8109    0.0004    2.3440 O   0  0  0  0  0  0  0  0  0  0  0  0
   -2.0060   -1.1970    0.0086 C   0  0  0  0  0  0  0  0  0  0  0  0
   -2.8717   -0.1994   -0.4469 C   0  0  0  0  0  0  0  0  0  0  0  0
   -3.5885   -0.3993   -1.6275 C   0  0  0  0  0  0  0  0  0  0  0  0
   -3.4601   -1.5977   -2.3432 C   0  0  0  0  0  0  0  0  0  0  0  0
   -4.2069   -1.7941   -3.6303 C   0  0  0  0  0  0  0  0  0  0  0  0
   -2.5877   -2.5892   -1.8734 C   0  0  0  0  0  0  0  0  0  0  0  0
   -1.8670   -2.3967   -0.6938 C   0  0  0  0  0  0  0  0  0  0  0  0
    0.4792    1.2425    0.8721 C   0  0  0  0  0  0  0  0  0  0  0  0
   -0.4559    2.1913    1.1598 N   0  0  0  0  0  0  0  0  0  0  0  0
   -0.1832    3.6229    1.1672 C   0  0  0  0  0  0  0  0  0  0  0  0
   -1.3557    4.4435    1.5879 C   0  0  0  0  0  0  0  0  0  0  0  0
   -1.6147    5.2325    2.6898 C   0  0  0  0  0  0  0  0  0  0  0  0
   -2.9248    5.7413    2.5174 C   0  0  0  0  0  0  0  0  0  0  0  0
   -3.3819    5.2298    1.3257 C   0  0  0  0  0  0  0  0  0  0  0  0
   -2.4374    4.4399    0.7542 O   0  0  0  0  0  0  0  0  0  0  0  0
    2.0519    1.5954    0.2465 S   0  0  0  0  0  0  0  0  0  0  0  0
    5.1956   -4.7019    0.6875 H   0  0  0  0  0  0  0  0  0  0  0  0
    4.6179   -4.8680   -0.9823 H   0  0  0  0  0  0  0  0  0  0  0  0
    6.3570   -4.8272   -0.6453 H   0  0  0  0  0  0  0  0  0  0  0  0
    5.6165   -2.6447   -1.5458 H   0  0  0  0  0  0  0  0  0  0  0  0
    6.1995   -2.4781    0.1056 H   0  0  0  0  0  0  0  0  0  0  0  0
    3.2430   -2.7110   -0.6956 H   0  0  0  0  0  0  0  0  0  0  0  0
    3.8578   -2.4934    0.9673 H   0  0  0  0  0  0  0  0  0  0  0  0
   -2.9919    0.7345    0.0990 H   0  0  0  0  0  0  0  0  0  0  0  0
   -4.2517    0.3861   -1.9861 H   0  0  0  0  0  0  0  0  0  0  0  0
   -4.4339   -2.8529   -3.7921 H   0  0  0  0  0  0  0  0  0  0  0  0
   -5.1609   -1.2569   -3.6145 H   0  0  0  0  0  0  0  0  0  0  0  0
   -3.6080   -1.4277   -4.4697 H   0  0  0  0  0  0  0  0  0  0  0  0
   -2.4680   -3.5200   -2.4247 H   0  0  0  0  0  0  0  0  0  0  0  0
   -1.2019   -3.1802   -0.3364 H   0  0  0  0  0  0  0  0  0  0  0  0
   -1.2525    1.9325    1.7530 H   0  0  0  0  0  0  0  0  0  0  0  0
    0.1172    3.9488    0.1638 H   0  0  0  0  0  0  0  0  0  0  0  0
    0.6504    3.8360    1.8484 H   0  0  0  0  0  0  0  0  0  0  0  0
   -0.9423    5.4142    3.5170 H   0  0  0  0  0  0  0  0  0  0  0  0
   -3.4713    6.3972    3.1803 H   0  0  0  0  0  0  0  0  0  0  0  0
   -4.3067    5.3260    0.7739 H   0  0  0  0  0  0  0  0  0  0  0  0
  1  2  1  0
  2  3  1  0
  3  4  1  0
  4  5  2  0
  4  6  2  0
  4  7  1  0
  7  8  2  0
  8  9  1  0
  9 10  1  0
 10 11  2  0
 10 12  2  0
 10 13  1  0
 13 14  2  0
 14 15  1  0
 15 16  2  0
 16 17  1  0
 16 18  1  0
 18 19  2  0
  9 20  2  0
 20 21  1  0
 21 22  1  0
 22 23  1  0
 23 24  2  0
 24 25  1  0
 25 26  2  0
 26 27  1  0
 20 28  1  0
 28  7  1  0
 19 13  1  0
 27 23  1  0
  1 29  1  0
  1 30  1  0
  1 31  1  0
  2 32  1  0
  2 33  1  0
  3 34  1  0
  3 35  1  0
 14 36  1  0
 15 37  1  0
 17 38  1  0
 17 39  1  0
 17 40  1  0
 18 41  1  0
 19 42  1  0
 21 43  1  0
 22 44  1  0
 22 45  1  0
 24 46  1  0
 25 47  1  0
 26 48  1  0
M  END
$$$$
