
     RDKit          3D

 52 54  0  0  0  0  0  0  0  0999 V2000
   -7.7955    0.4738    1.8076 C   0  0  0  0  0  0  0  0  0  0  0  0
   -6.3398    0.5565    1.3372 C   0  0  0  0  0  0  0  0  0  0  0  0
   -5.4943   -0.4485    2.1210 C   0  0  0  0  0  0  0  0  0  0  0  0
   -6.2822    0.3416   -0.1902 C   0  0  0  0  0  0  0  0  0  0  0  0
   -4.9143    0.6077   -0.8239 C   0  0  0  0  0  0  0  0  0  0  0  0
   -4.0224   -0.4577   -0.5059 O   0  0  0  0  0  0  0  0  0  0  0  0
   -2.7365   -0.3520   -0.9588 C   0  0  0  0  0  0  0  0  0  0  0  0
   -1.8660   -1.3332   -0.4723 C   0  0  0  0  0  0  0  0  0  0  0  0
   -0.5236   -1.3499   -0.8574 C   0  0  0  0  0  0  0  0  0  0  0  0
   -0.0431   -0.3676   -1.7251 C   0  0  0  0  0  0  0  0  0  0  0  0
    1.3688   -0.3652   -2.1738 C   0  0  0  0  0  0  0  0  0  0  0  0
    1.5856   -0.3210   -3.3829 O   0  0  0  0  0  0  0  0  0  0  0  0
    2.3806   -0.4078   -1.2206 N   0  0  0  0  0  0  0  0  0  0  0  0
    2.1965   -0.1017    0.2067 C   0  0  0  0  0  0  0  0  0  0  0  0
    3.4395    0.5394    0.8519 C   0  0  0  0  0  0  0  0  0  0  0  0
    4.6169   -0.2983    0.6398 N   0  0  0  0  0  0  0  0  0  0  0  0
    5.7672    0.0114    1.3348 C   0  0  0  0  0  0  0  0  0  0  0  0
    6.8902   -0.6800    1.0724 N   0  0  0  0  0  0  0  0  0  0  0  0
    7.9955   -0.3777    1.7795 C   0  0  0  0  0  0  0  0  0  0  0  0
    8.0344    0.5928    2.7457 C   0  0  0  0  0  0  0  0  0  0  0  0
    6.8497    1.2497    2.9501 C   0  0  0  0  0  0  0  0  0  0  0  0
    5.7199    0.9781    2.2689 N   0  0  0  0  0  0  0  0  0  0  0  0
    4.7421   -1.0246   -0.6269 C   0  0  0  0  0  0  0  0  0  0  0  0
    3.7660   -0.4905   -1.6904 C   0  0  0  0  0  0  0  0  0  0  0  0
   -0.9135    0.5986   -2.2385 C   0  0  0  0  0  0  0  0  0  0  0  0
   -2.2574    0.6108   -1.8495 C   0  0  0  0  0  0  0  0  0  0  0  0
   -8.4109    1.2271    1.3037 H   0  0  0  0  0  0  0  0  0  0  0  0
   -8.2247   -0.5126    1.5983 H   0  0  0  0  0  0  0  0  0  0  0  0
   -7.8690    0.6537    2.8859 H   0  0  0  0  0  0  0  0  0  0  0  0
   -5.9726    1.5653    1.5660 H   0  0  0  0  0  0  0  0  0  0  0  0
   -4.4263   -0.2846    1.9560 H   0  0  0  0  0  0  0  0  0  0  0  0
   -5.6669   -0.3470    3.1987 H   0  0  0  0  0  0  0  0  0  0  0  0
   -5.7356   -1.4794    1.8364 H   0  0  0  0  0  0  0  0  0  0  0  0
   -6.5995   -0.6828   -0.4246 H   0  0  0  0  0  0  0  0  0  0  0  0
   -7.0037    1.0212   -0.6624 H   0  0  0  0  0  0  0  0  0  0  0  0
   -4.5188    1.5651   -0.4650 H   0  0  0  0  0  0  0  0  0  0  0  0
   -5.0499    0.6513   -1.9114 H   0  0  0  0  0  0  0  0  0  0  0  0
   -2.2409   -2.0942    0.2082 H   0  0  0  0  0  0  0  0  0  0  0  0
    0.1309   -2.1358   -0.4945 H   0  0  0  0  0  0  0  0  0  0  0  0
    1.3344    0.5591    0.3406 H   0  0  0  0  0  0  0  0  0  0  0  0
    1.9818   -1.0536    0.7061 H   0  0  0  0  0  0  0  0  0  0  0  0
    3.2324    0.6673    1.9215 H   0  0  0  0  0  0  0  0  0  0  0  0
    3.6068    1.5317    0.4154 H   0  0  0  0  0  0  0  0  0  0  0  0
    8.8755   -0.9646    1.5334 H   0  0  0  0  0  0  0  0  0  0  0  0
    8.9305    0.8216    3.3035 H   0  0  0  0  0  0  0  0  0  0  0  0
    6.7634    2.0384    3.6912 H   0  0  0  0  0  0  0  0  0  0  0  0
    5.7515   -0.9657   -1.0522 H   0  0  0  0  0  0  0  0  0  0  0  0
    4.5258   -2.0823   -0.4364 H   0  0  0  0  0  0  0  0  0  0  0  0
    4.0592    0.5242   -1.9884 H   0  0  0  0  0  0  0  0  0  0  0  0
    3.8126   -1.1196   -2.5864 H   0  0  0  0  0  0  0  0  0  0  0  0
   -0.5477    1.3370   -2.9481 H   0  0  0  0  0  0  0  0  0  0  0  0
   -2.9026    1.3746   -2.2700 H   0  0  0  0  0  0  0  0  0  0  0  0
  1  2  1  0
  2  3  1  0
  2  4  1  0
  4  5  1  0
  5  6  1  0
  6  7  1  0
  7  8  2  0
  8  9  1  0
  9 10  2  0
 10 11  1  0
 11 12  2  0
 11 13  1  0
 13 14  1  0
 14 15  1  0
 15 16  1  0
 16 17  1  0
 17 18  2  0
 18 19  1  0
 19 20  2  0
 20 21  1  0
 21 22  2  0
 16 23  1  0
 23 24  1  0
 10 25  1  0
 25 26  2  0
 26  7  1  0
 24 13  1  0
 22 17  1  0
  1 27  1  0
  1 28  1  0
  1 29  1  0
  2 30  1  0
  3 31  1  0
  3 32  1  0
  3 33  1  0
  4 34  1  0
  4 35  1  0
  5 36  1  0
  5 37  1  0
  8 38  1  0
  9 39  1  0
 14 40  1  0
 14 41  1  0
 15 42  1  0
 15 43  1  0
 19 44  1  0
 20 45  1  0
 21 46  1  0
 23 47  1  0
 23 48  1  0
 24 49  1  0
 24 50  1  0
 25 51  1  0
 26 52  1  0
M  END
$$$$
