
     RDKit          3D

 44 46  0  0  0  0  0  0  0  0999 V2000
    3.4017    3.9630   -1.9759 C   0  0  0  0  0  0  0  0  0  0  0  0
    2.5505    3.1644   -2.8538 N   0  0  0  0  0  0  0  0  0  0  0  0
    2.9763    1.7515   -2.8921 C   0  0  0  0  0  0  0  0  0  0  0  0
    2.6965    0.9281   -1.6129 C   0  0  0  0  0  0  0  0  0  0  0  0
    1.2798    1.0242   -1.1787 N   0  0  0  0  0  0  0  0  0  0  0  0
    0.7040    0.0728   -0.3069 C   0  0  0  0  0  0  0  0  0  0  0  0
   -0.6324   -0.0413   -0.1499 C   0  0  0  0  0  0  0  0  0  0  0  0
   -1.2851   -0.9427    0.7869 C   0  0  0  0  0  0  0  0  0  0  0  0
   -2.6222   -1.1030    0.7766 C   0  0  0  0  0  0  0  0  0  0  0  0
   -3.3476   -1.9744    1.7088 C   0  0  0  0  0  0  0  0  0  0  0  0
   -4.6759   -2.2333    1.5980 C   0  0  0  0  0  0  0  0  0  0  0  0
   -5.3538   -3.0619    2.5405 C   0  0  0  0  0  0  0  0  0  0  0  0
   -5.8927   -3.7364    3.3162 N   0  0  0  0  0  0  0  0  0  0  0  0
   -5.4748   -1.6887    0.5492 C   0  0  0  0  0  0  0  0  0  0  0  0
   -6.1171   -1.2367   -0.3055 N   0  0  0  0  0  0  0  0  0  0  0  0
   -2.4878   -2.5544    2.8257 C   0  0  0  0  0  0  0  0  0  0  0  0
   -1.0820   -2.9087    2.3438 C   0  0  0  0  0  0  0  0  0  0  0  0
   -0.3859   -1.6749    1.7576 C   0  0  0  0  0  0  0  0  0  0  0  0
    0.9246   -2.0727    1.0781 C   0  0  0  0  0  0  0  0  0  0  0  0
    1.6277   -0.8535    0.4755 C   0  0  0  0  0  0  0  0  0  0  0  0
    0.8036    2.4362   -1.1365 C   0  0  0  0  0  0  0  0  0  0  0  0
    1.1353    3.2059   -2.4339 C   0  0  0  0  0  0  0  0  0  0  0  0
    3.3996    3.6218   -0.9360 H   0  0  0  0  0  0  0  0  0  0  0  0
    4.4367    3.9476   -2.3352 H   0  0  0  0  0  0  0  0  0  0  0  0
    3.0838    5.0115   -1.9898 H   0  0  0  0  0  0  0  0  0  0  0  0
    2.4540    1.2708   -3.7303 H   0  0  0  0  0  0  0  0  0  0  0  0
    4.0435    1.6893   -3.1391 H   0  0  0  0  0  0  0  0  0  0  0  0
    2.9455   -0.1114   -1.8529 H   0  0  0  0  0  0  0  0  0  0  0  0
    3.3520    1.2527   -0.7963 H   0  0  0  0  0  0  0  0  0  0  0  0
   -1.2878    0.5711   -0.7637 H   0  0  0  0  0  0  0  0  0  0  0  0
   -3.2002   -0.5559    0.0322 H   0  0  0  0  0  0  0  0  0  0  0  0
   -2.9289   -3.4604    3.2547 H   0  0  0  0  0  0  0  0  0  0  0  0
   -2.4211   -1.8169    3.6363 H   0  0  0  0  0  0  0  0  0  0  0  0
   -1.1440   -3.7095    1.5944 H   0  0  0  0  0  0  0  0  0  0  0  0
   -0.4942   -3.3035    3.1813 H   0  0  0  0  0  0  0  0  0  0  0  0
   -0.1541   -0.9851    2.5822 H   0  0  0  0  0  0  0  0  0  0  0  0
    1.5949   -2.5599    1.7965 H   0  0  0  0  0  0  0  0  0  0  0  0
    0.7302   -2.8050    0.2822 H   0  0  0  0  0  0  0  0  0  0  0  0
    2.0969   -0.2696    1.2775 H   0  0  0  0  0  0  0  0  0  0  0  0
    2.4346   -1.2391   -0.1544 H   0  0  0  0  0  0  0  0  0  0  0  0
    1.2579    2.9349   -0.2716 H   0  0  0  0  0  0  0  0  0  0  0  0
   -0.2811    2.4860   -0.9953 H   0  0  0  0  0  0  0  0  0  0  0  0
    0.5321    2.7841   -3.2490 H   0  0  0  0  0  0  0  0  0  0  0  0
    0.8068    4.2478   -2.3343 H   0  0  0  0  0  0  0  0  0  0  0  0
  1  2  1  0
  2  3  1  0
  3  4  1  0
  4  5  1  0
  5  6  1  0
  6  7  2  0
  7  8  1  0
  8  9  2  0
  9 10  1  0
 10 11  2  3
 11 12  1  0
 12 13  3  0
 11 14  1  0
 14 15  3  0
 10 16  1  0
 16 17  1  0
 17 18  1  0
 18 19  1  0
 19 20  1  0
  5 21  1  0
 21 22  1  0
 22  2  1  0
 20  6  1  0
 18  8  1  0
  1 23  1  0
  1 24  1  0
  1 25  1  0
  3 26  1  0
  3 27  1  0
  4 28  1  0
  4 29  1  0
  7 30  1  0
  9 31  1  0
 16 32  1  0
 16 33  1  0
 17 34  1  0
 17 35  1  0
 18 36  1  0
 19 37  1  0
 19 38  1  0
 20 39  1  0
 20 40  1  0
 21 41  1  0
 21 42  1  0
 22 43  1  0
 22 44  1  0
M  END
$$$$
