
     RDKit          3D

 41 42  0  0  0  0  0  0  0  0999 V2000
   -5.0418   -1.3570   -3.0630 C   0  0  0  0  0  0  0  0  0  0  0  0
   -5.2557    0.4303   -3.2557 S   0  0  0  0  0  0  0  0  0  0  0  0
   -3.9041    1.0006   -2.2403 C   0  0  0  0  0  0  0  0  0  0  0  0
   -4.1764    1.7983   -1.1271 C   0  0  0  0  0  0  0  0  0  0  0  0
   -3.1370    2.2601   -0.3149 C   0  0  0  0  0  0  0  0  0  0  0  0
   -1.8066    1.9384   -0.6126 C   0  0  0  0  0  0  0  0  0  0  0  0
   -0.6749    2.4499    0.2546 C   0  0  0  0  0  0  0  0  0  0  0  0
    0.1234    1.3654    0.8618 N   0  0  0  0  0  0  0  0  0  0  0  0
   -0.6641    0.6696    1.8963 C   0  0  0  0  0  0  0  0  0  0  0  0
    1.3478    1.9482    1.4800 C   0  0  0  0  0  0  0  0  0  0  0  0
    2.4277    0.8788    1.7107 C   0  0  0  0  0  0  0  0  0  0  0  0
    3.2972    1.0372    2.5627 O   0  0  0  0  0  0  0  0  0  0  0  0
    2.3134   -0.1811    0.8288 N   0  0  0  0  0  0  0  0  0  0  0  0
    3.1346   -1.3139    0.7102 C   0  0  0  0  0  0  0  0  0  0  0  0
    2.7536   -2.2803   -0.2310 C   0  0  0  0  0  0  0  0  0  0  0  0
    3.5224   -3.4323   -0.4204 C   0  0  0  0  0  0  0  0  0  0  0  0
    4.6784   -3.6283    0.3316 C   0  0  0  0  0  0  0  0  0  0  0  0
    5.0572   -2.6706    1.2704 C   0  0  0  0  0  0  0  0  0  0  0  0
    6.6267   -2.9383    2.2905 Br  0  0  0  0  0  0  0  0  0  0  0  0
    4.2931   -1.5168    1.4626 C   0  0  0  0  0  0  0  0  0  0  0  0
   -1.5377    1.1528   -1.7418 C   0  0  0  0  0  0  0  0  0  0  0  0
   -2.5786    0.6880   -2.5498 C   0  0  0  0  0  0  0  0  0  0  0  0
   -5.8652   -1.8735   -3.5625 H   0  0  0  0  0  0  0  0  0  0  0  0
   -4.1024   -1.6897   -3.5126 H   0  0  0  0  0  0  0  0  0  0  0  0
   -5.0515   -1.6279   -2.0023 H   0  0  0  0  0  0  0  0  0  0  0  0
   -5.2012    2.0656   -0.8793 H   0  0  0  0  0  0  0  0  0  0  0  0
   -3.3778    2.8752    0.5499 H   0  0  0  0  0  0  0  0  0  0  0  0
   -1.0544    3.1356    1.0261 H   0  0  0  0  0  0  0  0  0  0  0  0
   -0.0385    3.0563   -0.4050 H   0  0  0  0  0  0  0  0  0  0  0  0
   -0.0725   -0.1136    2.3834 H   0  0  0  0  0  0  0  0  0  0  0  0
   -1.5310    0.1620    1.4578 H   0  0  0  0  0  0  0  0  0  0  0  0
   -1.0229    1.3538    2.6738 H   0  0  0  0  0  0  0  0  0  0  0  0
    1.8079    2.6849    0.8102 H   0  0  0  0  0  0  0  0  0  0  0  0
    1.1193    2.4455    2.4298 H   0  0  0  0  0  0  0  0  0  0  0  0
    1.4759   -0.1316    0.2510 H   0  0  0  0  0  0  0  0  0  0  0  0
    1.8550   -2.1478   -0.8290 H   0  0  0  0  0  0  0  0  0  0  0  0
    3.2192   -4.1754   -1.1538 H   0  0  0  0  0  0  0  0  0  0  0  0
    5.2751   -4.5249    0.1837 H   0  0  0  0  0  0  0  0  0  0  0  0
    4.6169   -0.7909    2.1999 H   0  0  0  0  0  0  0  0  0  0  0  0
   -0.5106    0.9051   -1.9973 H   0  0  0  0  0  0  0  0  0  0  0  0
   -2.3401    0.0919   -3.4267 H   0  0  0  0  0  0  0  0  0  0  0  0
  1  2  1  0
  2  3  1  0
  3  4  2  0
  4  5  1  0
  5  6  2  0
  6  7  1  0
  7  8  1  0
  8  9  1  0
  8 10  1  0
 10 11  1  0
 11 12  2  0
 11 13  1  0
 13 14  1  0
 14 15  2  0
 15 16  1  0
 16 17  2  0
 17 18  1  0
 18 19  1  0
 18 20  2  0
  6 21  1  0
 21 22  2  0
 22  3  1  0
 20 14  1  0
  1 23  1  0
  1 24  1  0
  1 25  1  0
  4 26  1  0
  5 27  1  0
  7 28  1  0
  7 29  1  0
  9 30  1  0
  9 31  1  0
  9 32  1  0
 10 33  1  0
 10 34  1  0
 13 35  1  0
 15 36  1  0
 16 37  1  0
 17 38  1  0
 20 39  1  0
 21 40  1  0
 22 41  1  0
M  END
$$$$
