
     RDKit          3D

 62 66  0  0  0  0  0  0  0  0999 V2000
   -4.8108    0.6953    3.5992 C   0  0  0  0  0  0  0  0  0  0  0  0
   -5.1450    0.5471    2.1358 C   0  0  0  0  0  0  0  0  0  0  0  0
   -6.0375    1.3786    1.5659 C   0  0  0  0  0  0  0  0  0  0  0  0
   -6.3982    1.2754    0.1473 C   0  0  0  0  0  0  0  0  0  0  0  0
   -7.3353    2.1654   -0.3923 C   0  0  0  0  0  0  0  0  0  0  0  0
   -7.6868    2.0837   -1.7368 C   0  0  0  0  0  0  0  0  0  0  0  0
   -7.1074    1.1105   -2.5447 C   0  0  0  0  0  0  0  0  0  0  0  0
   -6.1718    0.2142   -2.0174 C   0  0  0  0  0  0  0  0  0  0  0  0
   -5.8103    0.2907   -0.6702 C   0  0  0  0  0  0  0  0  0  0  0  0
   -4.8733   -0.5722   -0.0352 N   0  0  0  0  0  0  0  0  0  0  0  0
   -4.0998   -1.6391   -0.4633 C   0  0  0  0  0  0  0  0  0  0  0  0
   -3.9947   -2.2957   -2.0623 S   0  0  0  0  0  0  0  0  0  0  0  0
   -2.8204   -3.6607   -1.8311 C   0  0  0  0  0  0  0  0  0  0  0  0
   -1.3853   -3.1554   -1.8408 C   0  0  0  0  0  0  0  0  0  0  0  0
   -0.7392   -3.1282   -2.8864 O   0  0  0  0  0  0  0  0  0  0  0  0
   -0.9360   -2.7547   -0.5942 N   0  0  0  0  0  0  0  0  0  0  0  0
    0.3595   -2.3340   -0.2386 C   0  0  0  0  0  0  0  0  0  0  0  0
    0.5268   -1.8121    1.0525 C   0  0  0  0  0  0  0  0  0  0  0  0
    1.7833   -1.3875    1.4923 C   0  0  0  0  0  0  0  0  0  0  0  0
    2.8804   -1.4885    0.6356 C   0  0  0  0  0  0  0  0  0  0  0  0
    4.4809   -0.9783    1.2142 S   0  0  0  0  0  6  0  0  0  0  0  0
    5.4676   -1.3703    0.2308 O   0  0  0  0  0  0  0  0  0  0  0  0
    4.5908   -1.4152    2.5900 O   0  0  0  0  0  0  0  0  0  0  0  0
    4.3573    0.7212    1.2035 N   0  0  0  0  0  0  0  0  0  0  0  0
    4.1356    1.4001   -0.0979 C   0  0  0  0  0  0  0  0  0  0  0  0
    5.4396    1.6415   -0.8527 C   0  0  0  0  0  0  0  0  0  0  0  0
    6.4770    2.3651    0.0154 C   0  0  0  0  0  0  0  0  0  0  0  0
    7.8067    2.4985   -0.7245 C   0  0  0  0  0  0  0  0  0  0  0  0
    6.6637    1.6314    1.3497 C   0  0  0  0  0  0  0  0  0  0  0  0
    5.3292    1.4434    2.0621 C   0  0  0  0  0  0  0  0  0  0  0  0
    2.7330   -2.0213   -0.6458 C   0  0  0  0  0  0  0  0  0  0  0  0
    1.4697   -2.4361   -1.0813 C   0  0  0  0  0  0  0  0  0  0  0  0
   -3.3985   -2.1229    0.5398 N   0  0  0  0  0  0  0  0  0  0  0  0
   -3.6628   -1.3781    1.6468 N   0  0  0  0  0  0  0  0  0  0  0  0
   -4.5462   -0.4581    1.3175 C   0  0  0  0  0  0  0  0  0  0  0  0
   -3.7409    0.8885    3.7258 H   0  0  0  0  0  0  0  0  0  0  0  0
   -5.3562    1.5184    4.0709 H   0  0  0  0  0  0  0  0  0  0  0  0
   -5.0624   -0.2235    4.1381 H   0  0  0  0  0  0  0  0  0  0  0  0
   -6.5214    2.1574    2.1476 H   0  0  0  0  0  0  0  0  0  0  0  0
   -7.7992    2.9280    0.2278 H   0  0  0  0  0  0  0  0  0  0  0  0
   -8.4116    2.7774   -2.1549 H   0  0  0  0  0  0  0  0  0  0  0  0
   -7.3843    1.0458   -3.5952 H   0  0  0  0  0  0  0  0  0  0  0  0
   -5.7657   -0.5132   -2.7060 H   0  0  0  0  0  0  0  0  0  0  0  0
   -3.0295   -4.2310   -0.9202 H   0  0  0  0  0  0  0  0  0  0  0  0
   -2.9344   -4.3580   -2.6682 H   0  0  0  0  0  0  0  0  0  0  0  0
   -1.6501   -2.6555    0.1286 H   0  0  0  0  0  0  0  0  0  0  0  0
   -0.3204   -1.7294    1.7307 H   0  0  0  0  0  0  0  0  0  0  0  0
    1.9012   -0.9873    2.4969 H   0  0  0  0  0  0  0  0  0  0  0  0
    3.4400    0.8339   -0.7224 H   0  0  0  0  0  0  0  0  0  0  0  0
    3.6410    2.3586    0.1033 H   0  0  0  0  0  0  0  0  0  0  0  0
    5.2302    2.2380   -1.7498 H   0  0  0  0  0  0  0  0  0  0  0  0
    5.8490    0.6882   -1.2071 H   0  0  0  0  0  0  0  0  0  0  0  0
    6.1054    3.3775    0.2256 H   0  0  0  0  0  0  0  0  0  0  0  0
    7.6741    3.0399   -1.6673 H   0  0  0  0  0  0  0  0  0  0  0  0
    8.2347    1.5169   -0.9557 H   0  0  0  0  0  0  0  0  0  0  0  0
    8.5340    3.0510   -0.1196 H   0  0  0  0  0  0  0  0  0  0  0  0
    7.3404    2.2026    1.9970 H   0  0  0  0  0  0  0  0  0  0  0  0
    7.1363    0.6559    1.1795 H   0  0  0  0  0  0  0  0  0  0  0  0
    5.4741    0.9217    3.0138 H   0  0  0  0  0  0  0  0  0  0  0  0
    4.8981    2.4189    2.3208 H   0  0  0  0  0  0  0  0  0  0  0  0
    3.5871   -2.1217   -1.3116 H   0  0  0  0  0  0  0  0  0  0  0  0
    1.3886   -2.8528   -2.0810 H   0  0  0  0  0  0  0  0  0  0  0  0
  1  2  1  0
  2  3  2  0
  3  4  1  0
  4  5  2  0
  5  6  1  0
  6  7  2  0
  7  8  1  0
  8  9  2  0
  9 10  1  0
 10 11  1  0
 11 12  1  0
 12 13  1  0
 13 14  1  0
 14 15  2  0
 14 16  1  0
 16 17  1  0
 17 18  2  0
 18 19  1  0
 19 20  2  0
 20 21  1  0
 21 22  2  0
 21 23  2  0
 21 24  1  0
 24 25  1  0
 25 26  1  0
 26 27  1  0
 27 28  1  0
 27 29  1  0
 29 30  1  0
 20 31  1  0
 31 32  2  0
 11 33  2  0
 33 34  1  0
 34 35  2  0
 35  2  1  0
  9  4  1  0
 35 10  1  0
 32 17  1  0
 30 24  1  0
  1 36  1  0
  1 37  1  0
  1 38  1  0
  3 39  1  0
  5 40  1  0
  6 41  1  0
  7 42  1  0
  8 43  1  0
 13 44  1  0
 13 45  1  0
 16 46  1  0
 18 47  1  0
 19 48  1  0
 25 49  1  0
 25 50  1  0
 26 51  1  0
 26 52  1  0
 27 53  1  0
 28 54  1  0
 28 55  1  0
 28 56  1  0
 29 57  1  0
 29 58  1  0
 30 59  1  0
 30 60  1  0
 31 61  1  0
 32 62  1  0
M  END
$$$$
