
     RDKit          3D

 38 40  0  0  0  0  0  0  0  0999 V2000
   -0.2060    3.8880    2.7537 C   0  0  0  0  0  0  0  0  0  0  0  0
    0.1484    3.0868    1.6277 O   0  0  0  0  0  0  0  0  0  0  0  0
   -0.3344    1.8290    1.6867 C   0  0  0  0  0  0  0  0  0  0  0  0
   -1.0233    1.3222    2.5529 O   0  0  0  0  0  0  0  0  0  0  0  0
    0.1082    1.0711    0.4510 C   0  0  0  0  0  0  0  0  0  0  0  0
    1.2815    0.5222    0.4979 N   0  0  0  0  0  0  0  0  0  0  0  0
    1.7283   -0.1847   -0.6096 N   0  0  0  0  0  0  0  0  0  0  0  0
    3.0430   -0.7548   -0.4332 C   0  0  0  0  0  0  0  0  0  0  0  0
    3.7370   -0.5688    0.7802 C   0  0  0  0  0  0  0  0  0  0  0  0
    5.0127   -1.1050    0.9922 C   0  0  0  0  0  0  0  0  0  0  0  0
    5.6303   -1.8443   -0.0080 C   0  0  0  0  0  0  0  0  0  0  0  0
    4.9706   -2.0448   -1.2148 C   0  0  0  0  0  0  0  0  0  0  0  0
    3.6928   -1.5064   -1.4235 C   0  0  0  0  0  0  0  0  0  0  0  0
    0.9607   -0.3141   -1.7749 C   0  0  0  0  0  0  0  0  0  0  0  0
    1.2513   -0.9035   -2.8134 O   0  0  0  0  0  0  0  0  0  0  0  0
   -0.3671    0.3421   -1.7594 C   0  0  0  0  0  0  0  0  0  0  0  0
   -0.8176    1.0067   -0.6956 C   0  0  0  0  0  0  0  0  0  0  0  0
   -2.3477    1.8009   -0.6558 S   0  0  0  0  0  0  0  0  0  0  0  0
   -3.4119    0.3709   -0.5786 C   0  0  0  0  0  0  0  0  0  0  0  0
   -4.1074   -0.0394   -1.7220 C   0  0  0  0  0  0  0  0  0  0  0  0
   -4.9462   -1.1564   -1.6737 C   0  0  0  0  0  0  0  0  0  0  0  0
   -5.0963   -1.8589   -0.4796 C   0  0  0  0  0  0  0  0  0  0  0  0
   -6.1293   -3.2325   -0.4200 Cl  0  0  0  0  0  0  0  0  0  0  0  0
   -4.4180   -1.4513    0.6671 C   0  0  0  0  0  0  0  0  0  0  0  0
   -3.5791   -0.3342    0.6190 C   0  0  0  0  0  0  0  0  0  0  0  0
    0.2344    4.8796    2.6172 H   0  0  0  0  0  0  0  0  0  0  0  0
   -1.2932    3.9977    2.8189 H   0  0  0  0  0  0  0  0  0  0  0  0
    0.1953    3.4545    3.6753 H   0  0  0  0  0  0  0  0  0  0  0  0
    3.2937    0.0018    1.5928 H   0  0  0  0  0  0  0  0  0  0  0  0
    5.5172   -0.9414    1.9408 H   0  0  0  0  0  0  0  0  0  0  0  0
    6.6201   -2.2631    0.1511 H   0  0  0  0  0  0  0  0  0  0  0  0
    5.4451   -2.6227   -2.0042 H   0  0  0  0  0  0  0  0  0  0  0  0
    3.2403   -1.7048   -2.3888 H   0  0  0  0  0  0  0  0  0  0  0  0
   -0.9406    0.2394   -2.6731 H   0  0  0  0  0  0  0  0  0  0  0  0
   -4.0055    0.5045   -2.6586 H   0  0  0  0  0  0  0  0  0  0  0  0
   -5.4800   -1.4698   -2.5673 H   0  0  0  0  0  0  0  0  0  0  0  0
   -4.5393   -1.9933    1.6017 H   0  0  0  0  0  0  0  0  0  0  0  0
   -3.0681   -0.0231    1.5279 H   0  0  0  0  0  0  0  0  0  0  0  0
  1  2  1  0
  2  3  1  0
  3  4  2  0
  3  5  1  0
  5  6  2  0
  6  7  1  0
  7  8  1  0
  8  9  2  0
  9 10  1  0
 10 11  2  0
 11 12  1  0
 12 13  2  0
  7 14  1  0
 14 15  2  0
 14 16  1  0
 16 17  2  0
 17 18  1  0
 18 19  1  0
 19 20  2  0
 20 21  1  0
 21 22  2  0
 22 23  1  0
 22 24  1  0
 24 25  2  0
 17  5  1  0
 25 19  1  0
 13  8  1  0
  1 26  1  0
  1 27  1  0
  1 28  1  0
  9 29  1  0
 10 30  1  0
 11 31  1  0
 12 32  1  0
 13 33  1  0
 16 34  1  0
 20 35  1  0
 21 36  1  0
 24 37  1  0
 25 38  1  0
M  END
$$$$
