
     RDKit          3D

 45 47  0  0  0  0  0  0  0  0999 V2000
    4.0841    1.3641    4.5103 N   0  0  0  0  0  0  0  0  0  0  0  0
    4.4817    0.9647    3.4955 C   0  0  0  0  0  0  0  0  0  0  0  0
    4.9575    0.4690    2.2455 C   0  0  0  0  0  0  0  0  0  0  0  0
    6.3716    0.3323    2.1194 C   0  0  0  0  0  0  0  0  0  0  0  0
    7.5205    0.2146    2.0040 N   0  0  0  0  0  0  0  0  0  0  0  0
    4.1200    0.1336    1.2307 C   0  0  0  0  0  0  0  0  0  0  0  0
    2.6591    0.2318    1.3341 C   0  0  0  0  0  0  0  0  0  0  0  0
    1.8195    0.0351    0.2997 C   0  0  0  0  0  0  0  0  0  0  0  0
    0.3786    0.1247    0.4785 C   0  0  0  0  0  0  0  0  0  0  0  0
   -0.5264    0.0872   -0.5233 C   0  0  0  0  0  0  0  0  0  0  0  0
   -1.9218    0.1035   -0.2983 N   0  0  0  0  0  0  0  0  0  0  0  0
   -2.5053   -0.5785    0.8729 C   0  0  0  0  0  0  0  0  0  0  0  0
   -3.5962   -1.5808    0.4980 C   0  0  0  0  0  0  0  0  0  0  0  0
   -4.9885   -0.9598    0.4715 C   0  0  0  0  0  0  0  0  0  0  0  0
   -5.2170    0.0183   -0.6717 C   0  0  0  0  0  0  0  0  0  0  0  0
   -4.1928    1.1469   -0.7471 C   0  0  0  0  0  0  0  0  0  0  0  0
   -2.8387    0.6947   -1.2911 C   0  0  0  0  0  0  0  0  0  0  0  0
   -0.0383    0.0165   -1.9668 C   0  0  0  0  0  0  0  0  0  0  0  0
    1.4330    0.3991   -2.1438 C   0  0  0  0  0  0  0  0  0  0  0  0
    2.3091   -0.2867   -1.0948 C   0  0  0  0  0  0  0  0  0  0  0  0
    3.7778    0.1130   -1.2779 C   0  0  0  0  0  0  0  0  0  0  0  0
    4.6217   -0.3925   -0.1089 C   0  0  0  0  0  0  0  0  0  0  0  0
    2.2301    0.4801    2.3045 H   0  0  0  0  0  0  0  0  0  0  0  0
    0.0266    0.2373    1.5008 H   0  0  0  0  0  0  0  0  0  0  0  0
   -2.8630    0.1629    1.5968 H   0  0  0  0  0  0  0  0  0  0  0  0
   -1.7303   -1.1563    1.3913 H   0  0  0  0  0  0  0  0  0  0  0  0
   -3.6102   -2.3664    1.2645 H   0  0  0  0  0  0  0  0  0  0  0  0
   -3.3734   -2.0765   -0.4542 H   0  0  0  0  0  0  0  0  0  0  0  0
   -5.7307   -1.7636    0.3907 H   0  0  0  0  0  0  0  0  0  0  0  0
   -5.1846   -0.4571    1.4268 H   0  0  0  0  0  0  0  0  0  0  0  0
   -5.2399   -0.5270   -1.6233 H   0  0  0  0  0  0  0  0  0  0  0  0
   -6.2141    0.4589   -0.5475 H   0  0  0  0  0  0  0  0  0  0  0  0
   -4.5937    1.8939   -1.4449 H   0  0  0  0  0  0  0  0  0  0  0  0
   -4.0914    1.6532    0.2196 H   0  0  0  0  0  0  0  0  0  0  0  0
   -2.9728   -0.0021   -2.1273 H   0  0  0  0  0  0  0  0  0  0  0  0
   -2.3627    1.5969   -1.6962 H   0  0  0  0  0  0  0  0  0  0  0  0
   -0.6179    0.6749   -2.6209 H   0  0  0  0  0  0  0  0  0  0  0  0
   -0.1952   -1.0080   -2.3280 H   0  0  0  0  0  0  0  0  0  0  0  0
    1.5331    1.4904   -2.0658 H   0  0  0  0  0  0  0  0  0  0  0  0
    1.7606    0.1239   -3.1536 H   0  0  0  0  0  0  0  0  0  0  0  0
    2.2282   -1.3748   -1.2329 H   0  0  0  0  0  0  0  0  0  0  0  0
    3.8743    1.2047   -1.3529 H   0  0  0  0  0  0  0  0  0  0  0  0
    4.1617   -0.3042   -2.2167 H   0  0  0  0  0  0  0  0  0  0  0  0
    4.5957   -1.4900   -0.0871 H   0  0  0  0  0  0  0  0  0  0  0  0
    5.6602   -0.1020   -0.3005 H   0  0  0  0  0  0  0  0  0  0  0  0
  1  2  3  0
  2  3  1  0
  3  4  1  0
  4  5  3  0
  3  6  2  3
  6  7  1  0
  7  8  2  0
  8  9  1  0
  9 10  2  0
 10 11  1  0
 11 12  1  0
 12 13  1  0
 13 14  1  0
 14 15  1  0
 15 16  1  0
 16 17  1  0
 10 18  1  0
 18 19  1  0
 19 20  1  0
 20 21  1  0
 21 22  1  0
 22  6  1  0
 20  8  1  0
 17 11  1  0
  7 23  1  0
  9 24  1  0
 12 25  1  0
 12 26  1  0
 13 27  1  0
 13 28  1  0
 14 29  1  0
 14 30  1  0
 15 31  1  0
 15 32  1  0
 16 33  1  0
 16 34  1  0
 17 35  1  0
 17 36  1  0
 18 37  1  0
 18 38  1  0
 19 39  1  0
 19 40  1  0
 20 41  1  0
 21 42  1  0
 21 43  1  0
 22 44  1  0
 22 45  1  0
M  END
$$$$
