
     RDKit          3D

 37 38  0  0  0  0  0  0  0  0999 V2000
   -2.9757    2.1742   -1.7865 C   0  0  0  0  0  0  0  0  0  0  0  0
   -3.2463    0.8239   -1.1929 C   0  0  0  0  0  0  0  0  0  0  0  0
   -4.5497    0.4369   -0.9079 C   0  0  0  0  0  0  0  0  0  0  0  0
   -4.7776   -0.8272   -0.3567 C   0  0  0  0  0  0  0  0  0  0  0  0
   -6.1762   -1.2970   -0.0649 C   0  0  0  0  0  0  0  0  0  0  0  0
   -6.2326   -2.2326    0.9222 F   0  0  0  0  0  0  0  0  0  0  0  0
   -6.7683   -1.8608   -1.1528 F   0  0  0  0  0  0  0  0  0  0  0  0
   -7.0014   -0.2878    0.3299 F   0  0  0  0  0  0  0  0  0  0  0  0
   -3.6791   -1.6602   -0.1213 C   0  0  0  0  0  0  0  0  0  0  0  0
   -2.4013   -1.2022   -0.4166 C   0  0  0  0  0  0  0  0  0  0  0  0
   -1.2991   -2.0701   -0.1978 N   0  0  0  0  0  0  0  0  0  0  0  0
   -0.0613   -1.3652   -0.3657 N   0  0  0  0  0  0  0  0  0  0  0  0
    0.6754   -1.2157    0.8103 C   0  0  0  0  0  0  0  0  0  0  0  0
    0.3571   -1.7858    1.8481 O   0  0  0  0  0  0  0  0  0  0  0  0
    1.7654   -0.3973    0.6055 N   0  0  0  0  0  0  0  0  0  0  0  0
    2.6794   -0.0785    1.5893 C   0  0  0  0  0  0  0  0  0  0  0  0
    2.4804   -0.1090    2.7968 O   0  0  0  0  0  0  0  0  0  0  0  0
    4.0029    0.4012    1.1022 C   0  0  0  0  0  0  0  0  0  0  0  0
    5.1381    0.0927    1.8647 C   0  0  0  0  0  0  0  0  0  0  0  0
    6.4021    0.5194    1.4497 C   0  0  0  0  0  0  0  0  0  0  0  0
    6.5301    1.2637    0.2786 C   0  0  0  0  0  0  0  0  0  0  0  0
    8.0844    1.7914   -0.2344 Cl  0  0  0  0  0  0  0  0  0  0  0  0
    5.4042    1.5915   -0.4774 C   0  0  0  0  0  0  0  0  0  0  0  0
    4.1371    1.1651   -0.0657 C   0  0  0  0  0  0  0  0  0  0  0  0
   -2.1807    0.0217   -0.9613 N   0  0  0  0  0  0  0  0  0  0  0  0
   -3.3436    2.9609   -1.1206 H   0  0  0  0  0  0  0  0  0  0  0  0
   -3.4693    2.2650   -2.7591 H   0  0  0  0  0  0  0  0  0  0  0  0
   -1.9015    2.3268   -1.9330 H   0  0  0  0  0  0  0  0  0  0  0  0
   -5.3798    1.1088   -1.1137 H   0  0  0  0  0  0  0  0  0  0  0  0
   -3.8197   -2.6583    0.2854 H   0  0  0  0  0  0  0  0  0  0  0  0
   -1.3490   -2.4420    0.7608 H   0  0  0  0  0  0  0  0  0  0  0  0
   -0.2198   -0.4998   -0.8877 H   0  0  0  0  0  0  0  0  0  0  0  0
    2.0815   -0.4009   -0.3501 H   0  0  0  0  0  0  0  0  0  0  0  0
    5.0388   -0.4813    2.7851 H   0  0  0  0  0  0  0  0  0  0  0  0
    7.2767    0.2723    2.0465 H   0  0  0  0  0  0  0  0  0  0  0  0
    5.5070    2.1886   -1.3804 H   0  0  0  0  0  0  0  0  0  0  0  0
    3.2717    1.4677   -0.6485 H   0  0  0  0  0  0  0  0  0  0  0  0
  1  2  1  0
  2  3  2  0
  3  4  1  0
  4  5  1  0
  5  6  1  0
  5  7  1  0
  5  8  1  0
  4  9  2  0
  9 10  1  0
 10 11  1  0
 11 12  1  0
 12 13  1  0
 13 14  2  0
 13 15  1  0
 15 16  1  0
 16 17  2  0
 16 18  1  0
 18 19  2  0
 19 20  1  0
 20 21  2  0
 21 22  1  0
 21 23  1  0
 23 24  2  0
 10 25  2  0
 25  2  1  0
 24 18  1  0
  1 26  1  0
  1 27  1  0
  1 28  1  0
  3 29  1  0
  9 30  1  0
 11 31  1  0
 12 32  1  0
 15 33  1  0
 19 34  1  0
 20 35  1  0
 23 36  1  0
 24 37  1  0
M  END
$$$$
