
     RDKit          3D

 30 30  0  0  0  0  0  0  0  0999 V2000
    4.0980    0.0039    0.9140 C   0  0  0  0  0  0  0  0  0  0  0  0
    3.4180    0.3340    2.1708 N   0  0  0  0  0  0  0  0  0  0  0  0
    4.3330    0.7048    3.2543 C   0  0  0  0  0  0  0  0  0  0  0  0
    2.0684    0.0300    2.4120 C   0  0  0  0  0  0  0  0  0  0  0  0
    1.2591    0.2038    3.8780 S   0  0  0  0  0  0  0  0  0  0  0  0
    1.1449   -0.5976    1.0411 S   0  0  0  0  0  0  0  0  0  0  0  0
    0.5564    0.9967    0.3869 C   0  0  0  0  0  0  0  0  0  0  0  0
   -0.3045    0.7741   -0.8460 C   0  0  0  0  0  0  0  0  0  0  0  0
    0.0172    1.2555   -1.9294 O   0  0  0  0  0  0  0  0  0  0  0  0
   -1.4531    0.0469   -0.5829 N   0  0  0  0  0  0  0  0  0  0  0  0
   -2.4912   -0.3070   -1.4759 C   0  0  0  0  0  0  0  0  0  0  0  0
   -2.5281    0.1048   -2.8120 C   0  0  0  0  0  0  0  0  0  0  0  0
   -3.5853   -0.2787   -3.6461 C   0  0  0  0  0  0  0  0  0  0  0  0
   -4.6159   -1.0737   -3.1472 C   0  0  0  0  0  0  0  0  0  0  0  0
   -5.9097   -1.5400   -4.1797 Cl  0  0  0  0  0  0  0  0  0  0  0  0
   -4.6012   -1.4952   -1.8211 C   0  0  0  0  0  0  0  0  0  0  0  0
   -3.5423   -1.1125   -0.9936 C   0  0  0  0  0  0  0  0  0  0  0  0
   -3.5552   -1.6660    0.6483 Cl  0  0  0  0  0  0  0  0  0  0  0  0
    4.3001   -1.0727    0.8973 H   0  0  0  0  0  0  0  0  0  0  0  0
    5.0439    0.5504    0.8422 H   0  0  0  0  0  0  0  0  0  0  0  0
    3.4941    0.2812    0.0467 H   0  0  0  0  0  0  0  0  0  0  0  0
    3.8240    1.0247    4.1655 H   0  0  0  0  0  0  0  0  0  0  0  0
    4.9620   -0.1607    3.4892 H   0  0  0  0  0  0  0  0  0  0  0  0
    4.9619    1.5361    2.9159 H   0  0  0  0  0  0  0  0  0  0  0  0
    1.4146    1.6157    0.1054 H   0  0  0  0  0  0  0  0  0  0  0  0
   -0.0323    1.5378    1.1353 H   0  0  0  0  0  0  0  0  0  0  0  0
   -1.5376   -0.3445    0.3531 H   0  0  0  0  0  0  0  0  0  0  0  0
   -1.7450    0.7212   -3.2436 H   0  0  0  0  0  0  0  0  0  0  0  0
   -3.5919    0.0473   -4.6856 H   0  0  0  0  0  0  0  0  0  0  0  0
   -5.4025   -2.1202   -1.4359 H   0  0  0  0  0  0  0  0  0  0  0  0
  1  2  1  0
  2  3  1  0
  2  4  1  0
  4  5  2  0
  4  6  1  0
  6  7  1  0
  7  8  1  0
  8  9  2  0
  8 10  1  0
 10 11  1  0
 11 12  2  0
 12 13  1  0
 13 14  2  0
 14 15  1  0
 14 16  1  0
 16 17  2  0
 17 18  1  0
 17 11  1  0
  1 19  1  0
  1 20  1  0
  1 21  1  0
  3 22  1  0
  3 23  1  0
  3 24  1  0
  7 25  1  0
  7 26  1  0
 10 27  1  0
 12 28  1  0
 13 29  1  0
 16 30  1  0
M  END
$$$$
