
     RDKit          3D

 59 62  0  0  0  0  0  0  0  0999 V2000
    9.6146    4.2284    1.5666 C   0  0  0  0  0  0  0  0  0  0  0  0
    8.2447    3.5842    1.6831 C   0  0  0  0  0  0  0  0  0  0  0  0
    8.2748    2.3551    0.9612 O   0  0  0  0  0  0  0  0  0  0  0  0
    7.1264    1.6129    0.9468 C   0  0  0  0  0  0  0  0  0  0  0  0
    5.9167    1.9585    1.5484 C   0  0  0  0  0  0  0  0  0  0  0  0
    4.8122    1.1036    1.4519 C   0  0  0  0  0  0  0  0  0  0  0  0
    4.9055   -0.1093    0.7579 C   0  0  0  0  0  0  0  0  0  0  0  0
    3.7127   -1.0243    0.6440 C   0  0  0  0  0  0  0  0  0  0  0  0
    3.0155   -0.8992   -0.7107 C   0  0  0  0  0  0  0  0  0  0  0  0
    1.8316   -1.7384   -0.7764 N   0  0  0  0  0  0  0  0  0  0  0  0
    1.3396   -2.1785   -1.9898 C   0  0  0  0  0  0  0  0  0  0  0  0
    1.9382   -2.0369   -3.0527 O   0  0  0  0  0  0  0  0  0  0  0  0
    0.0163   -2.9237   -1.9059 C   0  0  0  0  0  0  0  0  0  0  0  0
   -1.0734   -2.1521   -1.1984 C   0  0  0  0  0  0  0  0  0  0  0  0
   -1.5668   -0.9603   -1.7482 C   0  0  0  0  0  0  0  0  0  0  0  0
   -2.5588   -0.2344   -1.0853 C   0  0  0  0  0  0  0  0  0  0  0  0
   -3.0830   -0.6932    0.1251 C   0  0  0  0  0  0  0  0  0  0  0  0
   -4.0519    0.0550    0.8044 N   0  0  0  0  0  0  0  0  0  0  0  0
   -5.3073   -0.1790    0.6139 C   0  0  0  0  0  0  0  0  0  0  0  0
   -6.2891    0.5394    1.2381 N   0  0  0  0  0  0  0  0  0  0  0  0
   -7.6147    0.4464    0.6573 C   0  0  0  0  0  0  0  0  0  0  0  0
   -7.7985    1.4346   -0.4847 C   0  0  0  0  0  0  0  0  0  0  0  0
   -9.0658    0.6932   -1.4773 S   0  0  0  0  0  6  0  0  0  0  0  0
   -8.7410    0.8842   -2.8732 O   0  0  0  0  0  0  0  0  0  0  0  0
  -10.3431    1.0887   -0.9200 O   0  0  0  0  0  0  0  0  0  0  0  0
   -8.7674   -1.0024   -1.0214 C   0  0  0  0  0  0  0  0  0  0  0  0
   -7.7234   -0.9753    0.0811 C   0  0  0  0  0  0  0  0  0  0  0  0
   -6.0219   -1.3671   -0.4777 S   0  0  0  0  0  0  0  0  0  0  0  0
   -2.5816   -1.8724    0.6822 C   0  0  0  0  0  0  0  0  0  0  0  0
   -1.5908   -2.6040    0.0232 C   0  0  0  0  0  0  0  0  0  0  0  0
    6.1210   -0.4498    0.1537 C   0  0  0  0  0  0  0  0  0  0  0  0
    7.2201    0.4066    0.2497 C   0  0  0  0  0  0  0  0  0  0  0  0
   10.3910    3.5604    1.9529 H   0  0  0  0  0  0  0  0  0  0  0  0
    9.6509    5.1706    2.1204 H   0  0  0  0  0  0  0  0  0  0  0  0
    9.8577    4.4259    0.5175 H   0  0  0  0  0  0  0  0  0  0  0  0
    8.0241    3.3987    2.7406 H   0  0  0  0  0  0  0  0  0  0  0  0
    7.4958    4.2598    1.2548 H   0  0  0  0  0  0  0  0  0  0  0  0
    5.7957    2.8857    2.0983 H   0  0  0  0  0  0  0  0  0  0  0  0
    3.8771    1.3953    1.9258 H   0  0  0  0  0  0  0  0  0  0  0  0
    3.0014   -0.8089    1.4521 H   0  0  0  0  0  0  0  0  0  0  0  0
    4.0344   -2.0613    0.8079 H   0  0  0  0  0  0  0  0  0  0  0  0
    3.6983   -1.1679   -1.5246 H   0  0  0  0  0  0  0  0  0  0  0  0
    2.6872    0.1322   -0.8864 H   0  0  0  0  0  0  0  0  0  0  0  0
    1.1588   -1.6464   -0.0249 H   0  0  0  0  0  0  0  0  0  0  0  0
    0.2031   -3.8839   -1.4101 H   0  0  0  0  0  0  0  0  0  0  0  0
   -0.3216   -3.1541   -2.9238 H   0  0  0  0  0  0  0  0  0  0  0  0
   -1.1789   -0.5861   -2.6942 H   0  0  0  0  0  0  0  0  0  0  0  0
   -2.9253    0.6942   -1.5134 H   0  0  0  0  0  0  0  0  0  0  0  0
   -5.9772    1.4068    1.6609 H   0  0  0  0  0  0  0  0  0  0  0  0
   -8.3843    0.6022    1.4225 H   0  0  0  0  0  0  0  0  0  0  0  0
   -8.1276    2.4181   -0.1389 H   0  0  0  0  0  0  0  0  0  0  0  0
   -6.9043    1.5533   -1.1045 H   0  0  0  0  0  0  0  0  0  0  0  0
   -8.4694   -1.5724   -1.9043 H   0  0  0  0  0  0  0  0  0  0  0  0
   -9.7155   -1.3978   -0.6439 H   0  0  0  0  0  0  0  0  0  0  0  0
   -7.9628   -1.7033    0.8640 H   0  0  0  0  0  0  0  0  0  0  0  0
   -2.9718   -2.2227    1.6342 H   0  0  0  0  0  0  0  0  0  0  0  0
   -1.2300   -3.5267    0.4721 H   0  0  0  0  0  0  0  0  0  0  0  0
    6.2231   -1.3826   -0.3974 H   0  0  0  0  0  0  0  0  0  0  0  0
    8.1590    0.1307   -0.2244 H   0  0  0  0  0  0  0  0  0  0  0  0
  1  2  1  0
  2  3  1  0
  3  4  1  0
  4  5  2  0
  5  6  1  0
  6  7  2  0
  7  8  1  0
  8  9  1  0
  9 10  1  0
 10 11  1  0
 11 12  2  0
 11 13  1  0
 13 14  1  0
 14 15  2  0
 15 16  1  0
 16 17  2  0
 17 18  1  0
 18 19  2  3
 19 20  1  0
 20 21  1  0
 21 22  1  0
 22 23  1  0
 23 24  2  0
 23 25  2  0
 23 26  1  0
 26 27  1  0
 27 28  1  0
 17 29  1  0
 29 30  2  0
  7 31  1  0
 31 32  2  0
 32  4  1  0
 30 14  1  0
 28 19  1  0
 27 21  1  0
  1 33  1  0
  1 34  1  0
  1 35  1  0
  2 36  1  0
  2 37  1  0
  5 38  1  0
  6 39  1  0
  8 40  1  0
  8 41  1  0
  9 42  1  0
  9 43  1  0
 10 44  1  0
 13 45  1  0
 13 46  1  0
 15 47  1  0
 16 48  1  0
 20 49  1  0
 21 50  1  0
 22 51  1  0
 22 52  1  0
 26 53  1  0
 26 54  1  0
 27 55  1  0
 29 56  1  0
 30 57  1  0
 31 58  1  0
 32 59  1  0
M  END
$$$$
