
     RDKit          3D

 37 37  0  0  0  0  0  0  0  0999 V2000
    4.8517   -0.5219   -2.1799 C   0  0  0  0  0  0  0  0  0  0  0  0
    5.3067   -0.2510   -0.7530 C   0  0  0  0  0  0  0  0  0  0  0  0
    4.7677    1.0652   -0.1855 C   0  0  0  0  0  0  0  0  0  0  0  0
    3.4975    0.9277    0.6605 C   0  0  0  0  0  0  0  0  0  0  0  0
    2.2806    0.4251   -0.1107 C   0  0  0  0  0  0  0  0  0  0  0  0
    1.0054    0.4870    0.7144 C   0  0  0  0  0  0  0  0  0  0  0  0
    0.9820    0.8478    1.8868 O   0  0  0  0  0  0  0  0  0  0  0  0
   -0.0980    0.0731   -0.0238 N   0  0  0  0  0  0  0  0  0  0  0  0
   -1.3339    0.1000    0.5419 N   0  0  0  0  0  0  0  0  0  0  0  0
   -2.3608   -0.3301   -0.1312 C   0  0  0  0  0  0  0  0  0  0  0  0
   -2.2711   -0.9173   -1.5247 C   0  0  0  0  0  0  0  0  0  0  0  0
   -3.7076   -0.2407    0.5161 C   0  0  0  0  0  0  0  0  0  0  0  0
   -4.8801   -0.1086   -0.2384 C   0  0  0  0  0  0  0  0  0  0  0  0
   -6.1204   -0.0210    0.4030 C   0  0  0  0  0  0  0  0  0  0  0  0
   -6.1891   -0.0566    1.7953 C   0  0  0  0  0  0  0  0  0  0  0  0
   -7.7173    0.0516    2.5773 Cl  0  0  0  0  0  0  0  0  0  0  0  0
   -5.0278   -0.1725    2.5551 C   0  0  0  0  0  0  0  0  0  0  0  0
   -3.7878   -0.2602    1.9164 C   0  0  0  0  0  0  0  0  0  0  0  0
    5.2962   -1.4537   -2.5443 H   0  0  0  0  0  0  0  0  0  0  0  0
    3.7663   -0.6189   -2.2543 H   0  0  0  0  0  0  0  0  0  0  0  0
    5.1684    0.2843   -2.8496 H   0  0  0  0  0  0  0  0  0  0  0  0
    5.0392   -1.0938   -0.1059 H   0  0  0  0  0  0  0  0  0  0  0  0
    6.4025   -0.1991   -0.7631 H   0  0  0  0  0  0  0  0  0  0  0  0
    5.5408    1.4891    0.4685 H   0  0  0  0  0  0  0  0  0  0  0  0
    4.6090    1.7976   -0.9859 H   0  0  0  0  0  0  0  0  0  0  0  0
    3.2719    1.9118    1.0914 H   0  0  0  0  0  0  0  0  0  0  0  0
    3.6936    0.2618    1.5104 H   0  0  0  0  0  0  0  0  0  0  0  0
    2.1344    1.0308   -1.0126 H   0  0  0  0  0  0  0  0  0  0  0  0
    2.4286   -0.6188   -0.4072 H   0  0  0  0  0  0  0  0  0  0  0  0
    0.0100   -0.1798   -0.9971 H   0  0  0  0  0  0  0  0  0  0  0  0
   -3.1791   -1.4544   -1.8073 H   0  0  0  0  0  0  0  0  0  0  0  0
   -1.4524   -1.6418   -1.5714 H   0  0  0  0  0  0  0  0  0  0  0  0
   -2.0879   -0.1148   -2.2445 H   0  0  0  0  0  0  0  0  0  0  0  0
   -4.8530   -0.0488   -1.3225 H   0  0  0  0  0  0  0  0  0  0  0  0
   -7.0272    0.0831   -0.1876 H   0  0  0  0  0  0  0  0  0  0  0  0
   -5.0754   -0.1903    3.6408 H   0  0  0  0  0  0  0  0  0  0  0  0
   -2.8836   -0.3417    2.5186 H   0  0  0  0  0  0  0  0  0  0  0  0
  1  2  1  0
  2  3  1  0
  3  4  1  0
  4  5  1  0
  5  6  1  0
  6  7  2  0
  6  8  1  0
  8  9  1  0
  9 10  2  3
 10 11  1  0
 10 12  1  0
 12 13  2  0
 13 14  1  0
 14 15  2  0
 15 16  1  0
 15 17  1  0
 17 18  2  0
 18 12  1  0
  1 19  1  0
  1 20  1  0
  1 21  1  0
  2 22  1  0
  2 23  1  0
  3 24  1  0
  3 25  1  0
  4 26  1  0
  4 27  1  0
  5 28  1  0
  5 29  1  0
  8 30  1  0
 11 31  1  0
 11 32  1  0
 11 33  1  0
 13 34  1  0
 14 35  1  0
 17 36  1  0
 18 37  1  0
M  END
$$$$
