
     RDKit          3D

 31 32  0  0  0  0  0  0  0  0999 V2000
   -6.9957   -0.4178    0.2763 N   0  0  0  0  0  0  0  0  0  0  0  0
   -5.6848   -0.2286   -0.2152 N   0  0  0  0  0  0  0  0  0  0  0  0
   -4.6105   -0.2663    0.6759 C   0  0  0  0  0  0  0  0  0  0  0  0
   -4.7677   -0.3843    1.8894 O   0  0  0  0  0  0  0  0  0  0  0  0
   -3.2564   -0.1423   -0.0242 C   0  0  0  0  0  0  0  0  0  0  0  0
   -2.1897   -0.1798    0.9104 O   0  0  0  0  0  0  0  0  0  0  0  0
   -0.9199   -0.0789    0.4156 C   0  0  0  0  0  0  0  0  0  0  0  0
   -0.5661    0.0620   -0.9249 C   0  0  0  0  0  0  0  0  0  0  0  0
    0.7829    0.1546   -1.2920 C   0  0  0  0  0  0  0  0  0  0  0  0
    1.8039    0.1075   -0.3282 C   0  0  0  0  0  0  0  0  0  0  0  0
    3.2532    0.2147   -0.7595 C   0  0  0  0  0  0  0  0  0  0  0  0
    4.0578    1.7213   -0.1183 S   0  0  0  0  0  0  0  0  0  0  0  0
    5.2582    0.8851    0.9473 C   0  0  0  0  0  0  0  0  0  0  0  0
    5.7087   -0.3732    0.2348 C   0  0  0  0  0  0  0  0  0  0  0  0
    4.2266   -1.2595   -0.3052 S   0  0  0  0  0  0  0  0  0  0  0  0
    1.4317   -0.0332    1.0183 C   0  0  0  0  0  0  0  0  0  0  0  0
    0.0853   -0.1255    1.3817 C   0  0  0  0  0  0  0  0  0  0  0  0
   -7.2803    0.4574    0.7295 H   0  0  0  0  0  0  0  0  0  0  0  0
   -6.9259   -1.0690    1.0711 H   0  0  0  0  0  0  0  0  0  0  0  0
   -5.5327   -0.2787   -1.2205 H   0  0  0  0  0  0  0  0  0  0  0  0
   -3.1733   -0.9816   -0.7254 H   0  0  0  0  0  0  0  0  0  0  0  0
   -3.2538    0.8133   -0.5624 H   0  0  0  0  0  0  0  0  0  0  0  0
   -1.3085    0.1046   -1.7141 H   0  0  0  0  0  0  0  0  0  0  0  0
    1.0296    0.2655   -2.3465 H   0  0  0  0  0  0  0  0  0  0  0  0
    3.3015    0.2869   -1.8513 H   0  0  0  0  0  0  0  0  0  0  0  0
    6.1058    1.5492    1.1410 H   0  0  0  0  0  0  0  0  0  0  0  0
    4.7887    0.6556    1.9102 H   0  0  0  0  0  0  0  0  0  0  0  0
    6.3278   -0.1405   -0.6387 H   0  0  0  0  0  0  0  0  0  0  0  0
    6.2986   -1.0099    0.9010 H   0  0  0  0  0  0  0  0  0  0  0  0
    2.1865   -0.0736    1.8005 H   0  0  0  0  0  0  0  0  0  0  0  0
   -0.1817   -0.2350    2.4306 H   0  0  0  0  0  0  0  0  0  0  0  0
  1  2  1  0
  2  3  1  0
  3  4  2  0
  3  5  1  0
  5  6  1  0
  6  7  1  0
  7  8  2  0
  8  9  1  0
  9 10  2  0
 10 11  1  0
 11 12  1  0
 12 13  1  0
 13 14  1  0
 14 15  1  0
 10 16  1  0
 16 17  2  0
 17  7  1  0
 15 11  1  0
  1 18  1  0
  1 19  1  0
  2 20  1  0
  5 21  1  0
  5 22  1  0
  8 23  1  0
  9 24  1  0
 11 25  1  0
 13 26  1  0
 13 27  1  0
 14 28  1  0
 14 29  1  0
 16 30  1  0
 17 31  1  0
M  END
$$$$
