
     RDKit          3D

 43 45  0  0  0  0  0  0  0  0999 V2000
    3.5304    2.5302    1.4014 C   0  0  0  0  0  0  0  0  0  0  0  0
    3.5442    1.1905    1.8993 O   0  0  0  0  0  0  0  0  0  0  0  0
    2.7386    0.3588    1.1624 C   0  0  0  0  0  0  0  0  0  0  0  0
    1.6606   -0.2047    1.8554 C   0  0  0  0  0  0  0  0  0  0  0  0
    0.7717   -1.0849    1.2180 C   0  0  0  0  0  0  0  0  0  0  0  0
   -0.3935   -1.5551    2.0011 C   0  0  0  0  0  0  0  0  0  0  0  0
   -0.1935   -2.5972    2.9626 C   0  0  0  0  0  0  0  0  0  0  0  0
   -0.0332   -3.4200    3.7655 N   0  0  0  0  0  0  0  0  0  0  0  0
   -1.6202   -1.0085    1.8654 C   0  0  0  0  0  0  0  0  0  0  0  0
   -1.9767    0.0885    0.9460 C   0  0  0  0  0  0  0  0  0  0  0  0
   -1.5400    1.3837    1.2657 C   0  0  0  0  0  0  0  0  0  0  0  0
   -1.8234    2.4529    0.4219 C   0  0  0  0  0  0  0  0  0  0  0  0
   -2.5527    2.2403   -0.7453 C   0  0  0  0  0  0  0  0  0  0  0  0
   -3.0176    0.9601   -1.0823 C   0  0  0  0  0  0  0  0  0  0  0  0
   -3.7571    0.7662   -2.2607 C   0  0  0  0  0  0  0  0  0  0  0  0
   -4.2281   -0.4977   -2.6123 C   0  0  0  0  0  0  0  0  0  0  0  0
   -3.9687   -1.5851   -1.7882 C   0  0  0  0  0  0  0  0  0  0  0  0
   -3.2364   -1.4090   -0.6124 C   0  0  0  0  0  0  0  0  0  0  0  0
   -2.7392   -0.1399   -0.2316 C   0  0  0  0  0  0  0  0  0  0  0  0
    1.0300   -1.4089   -0.1271 C   0  0  0  0  0  0  0  0  0  0  0  0
    0.1880   -2.3550   -0.8601 N   0  0  0  0  0  4  0  0  0  0  0  0
   -0.2612   -3.3291   -0.2411 O   0  0  0  0  0  0  0  0  0  0  0  0
    0.0136   -2.1415   -2.0685 O   0  0  0  0  0  1  0  0  0  0  0  0
    2.1286   -0.8613   -0.8206 C   0  0  0  0  0  0  0  0  0  0  0  0
    2.9947    0.0240   -0.1763 C   0  0  0  0  0  0  0  0  0  0  0  0
    4.1016    0.5851   -0.7515 O   0  0  0  0  0  0  0  0  0  0  0  0
    4.4285    0.2028   -2.0844 C   0  0  0  0  0  0  0  0  0  0  0  0
    2.5324    2.8355    1.0570 H   0  0  0  0  0  0  0  0  0  0  0  0
    4.2691    2.6603    0.6022 H   0  0  0  0  0  0  0  0  0  0  0  0
    3.8148    3.1892    2.2279 H   0  0  0  0  0  0  0  0  0  0  0  0
    1.5139    0.0735    2.8989 H   0  0  0  0  0  0  0  0  0  0  0  0
   -2.4575   -1.3802    2.4567 H   0  0  0  0  0  0  0  0  0  0  0  0
   -0.9765    1.5696    2.1777 H   0  0  0  0  0  0  0  0  0  0  0  0
   -1.4800    3.4530    0.6729 H   0  0  0  0  0  0  0  0  0  0  0  0
   -2.7635    3.0898   -1.3933 H   0  0  0  0  0  0  0  0  0  0  0  0
   -3.9721    1.6045   -2.9211 H   0  0  0  0  0  0  0  0  0  0  0  0
   -4.7950   -0.6321   -3.5297 H   0  0  0  0  0  0  0  0  0  0  0  0
   -4.3293   -2.5745   -2.0586 H   0  0  0  0  0  0  0  0  0  0  0  0
   -3.0520   -2.2881    0.0031 H   0  0  0  0  0  0  0  0  0  0  0  0
    2.2910   -1.1469   -1.8564 H   0  0  0  0  0  0  0  0  0  0  0  0
    3.6454    0.5142   -2.7865 H   0  0  0  0  0  0  0  0  0  0  0  0
    4.6194   -0.8740   -2.1529 H   0  0  0  0  0  0  0  0  0  0  0  0
    5.3511    0.7209   -2.3639 H   0  0  0  0  0  0  0  0  0  0  0  0
  1  2  1  0
  2  3  1  0
  3  4  2  0
  4  5  1  0
  5  6  1  0
  6  7  1  0
  7  8  3  0
  6  9  2  3
  9 10  1  0
 10 11  2  0
 11 12  1  0
 12 13  2  0
 13 14  1  0
 14 15  2  0
 15 16  1  0
 16 17  2  0
 17 18  1  0
 18 19  2  0
  5 20  2  0
 20 21  1  0
 21 22  2  0
 21 23  1  0
 20 24  1  0
 24 25  2  0
 25 26  1  0
 26 27  1  0
 25  3  1  0
 19 10  1  0
 19 14  1  0
  1 28  1  0
  1 29  1  0
  1 30  1  0
  4 31  1  0
  9 32  1  0
 11 33  1  0
 12 34  1  0
 13 35  1  0
 15 36  1  0
 16 37  1  0
 17 38  1  0
 18 39  1  0
 24 40  1  0
 27 41  1  0
 27 42  1  0
 27 43  1  0
M  CHG  2  21   1  23  -1
M  END
$$$$
