
     RDKit          3D

 33 35  0  0  0  0  0  0  0  0999 V2000
   -0.0744   -1.1558   -0.1234 O   0  0  0  0  0  0  0  0  0  0  0  0
    0.5305   -0.2425   -0.6709 C   0  0  0  0  0  0  0  0  0  0  0  0
    2.0111   -0.1039   -0.7323 C   0  0  0  0  0  0  0  0  0  0  0  0
    2.8004   -1.0286   -0.1691 C   0  0  0  0  0  0  0  0  0  0  0  0
    4.2254   -1.0119   -0.1755 C   0  0  0  0  0  0  0  0  0  0  0  0
    5.1304    0.0206    0.0080 C   0  0  0  0  0  0  0  0  0  0  0  0
    6.4895   -0.4043   -0.0666 C   0  0  0  0  0  0  0  0  0  0  0  0
    6.5929   -1.7569   -0.2876 C   0  0  0  0  0  0  0  0  0  0  0  0
    5.0631   -2.5060   -0.3932 S   0  0  0  0  0  0  0  0  0  0  0  0
    2.4352    1.3095   -1.6277 S   0  0  0  0  0  0  0  0  0  0  0  0
    0.7583    1.7667   -1.9170 C   0  0  0  0  0  0  0  0  0  0  0  0
    0.3098    3.1204   -2.7747 S   0  0  0  0  0  0  0  0  0  0  0  0
   -0.0547    0.8126   -1.3465 N   0  0  0  0  0  0  0  0  0  0  0  0
   -1.5640    0.9430   -1.2883 N   0  0  0  0  0  0  0  0  0  0  0  0
   -2.1040    1.8060    0.0919 S   0  0  0  0  0  6  0  0  0  0  0  0
   -2.7852    2.9959   -0.3659 O   0  0  0  0  0  0  0  0  0  0  0  0
   -1.0068    1.8767    1.0354 O   0  0  0  0  0  0  0  0  0  0  0  0
   -3.3216    0.6880    0.7383 C   0  0  0  0  0  0  0  0  0  0  0  0
   -2.9258   -0.3403    1.5983 C   0  0  0  0  0  0  0  0  0  0  0  0
   -3.8854   -1.2162    2.1049 C   0  0  0  0  0  0  0  0  0  0  0  0
   -5.2289   -1.0569    1.7604 C   0  0  0  0  0  0  0  0  0  0  0  0
   -5.6199   -0.0198    0.9116 C   0  0  0  0  0  0  0  0  0  0  0  0
   -4.6669    0.8600    0.3991 C   0  0  0  0  0  0  0  0  0  0  0  0
    2.3306   -1.8871    0.3118 H   0  0  0  0  0  0  0  0  0  0  0  0
    4.8407    1.0473    0.1977 H   0  0  0  0  0  0  0  0  0  0  0  0
    7.3453    0.2506    0.0435 H   0  0  0  0  0  0  0  0  0  0  0  0
    7.4952   -2.3452   -0.3837 H   0  0  0  0  0  0  0  0  0  0  0  0
   -2.0265    0.0297   -1.3503 H   0  0  0  0  0  0  0  0  0  0  0  0
   -1.8814   -0.4683    1.8768 H   0  0  0  0  0  0  0  0  0  0  0  0
   -3.5875   -2.0215    2.7728 H   0  0  0  0  0  0  0  0  0  0  0  0
   -5.9751   -1.7394    2.1614 H   0  0  0  0  0  0  0  0  0  0  0  0
   -6.6697    0.1055    0.6558 H   0  0  0  0  0  0  0  0  0  0  0  0
   -4.9806    1.6722   -0.2539 H   0  0  0  0  0  0  0  0  0  0  0  0
  1  2  2  0
  2  3  1  0
  3  4  2  3
  4  5  1  0
  5  6  2  0
  6  7  1  0
  7  8  2  0
  8  9  1  0
  3 10  1  0
 10 11  1  0
 11 12  2  0
 11 13  1  0
 13 14  1  0
 14 15  1  0
 15 16  2  0
 15 17  2  0
 15 18  1  0
 18 19  2  0
 19 20  1  0
 20 21  2  0
 21 22  1  0
 22 23  2  0
 13  2  1  0
 23 18  1  0
  9  5  1  0
  4 24  1  0
  6 25  1  0
  7 26  1  0
  8 27  1  0
 14 28  1  0
 19 29  1  0
 20 30  1  0
 21 31  1  0
 22 32  1  0
 23 33  1  0
M  END
$$$$
