
     RDKit          3D

 39 41  0  0  0  0  0  0  0  0999 V2000
    2.4713   -0.3799    2.4876 O   0  0  0  0  0  0  0  0  0  0  0  0
    1.9235   -0.0527    1.4396 C   0  0  0  0  0  0  0  0  0  0  0  0
    2.4199   -0.2744    0.1751 N   0  0  0  0  0  0  0  0  0  0  0  0
    3.6680   -0.8266   -0.1984 C   0  0  0  0  0  0  0  0  0  0  0  0
    4.7835   -0.9949    0.6294 C   0  0  0  0  0  0  0  0  0  0  0  0
    4.8068   -0.5591    1.8940 F   0  0  0  0  0  0  0  0  0  0  0  0
    5.9623   -1.5641    0.1446 C   0  0  0  0  0  0  0  0  0  0  0  0
    6.0392   -1.9584   -1.1833 C   0  0  0  0  0  0  0  0  0  0  0  0
    7.1720   -2.5003   -1.6472 F   0  0  0  0  0  0  0  0  0  0  0  0
    4.9645   -1.7845   -2.0396 C   0  0  0  0  0  0  0  0  0  0  0  0
    3.7968   -1.2168   -1.5407 C   0  0  0  0  0  0  0  0  0  0  0  0
    2.7594   -1.0543   -2.3775 F   0  0  0  0  0  0  0  0  0  0  0  0
    0.5738    0.6061    1.4783 C   0  0  0  0  0  0  0  0  0  0  0  0
    0.0570    0.9034    2.6853 C   0  0  0  0  0  0  0  0  0  0  0  0
   -1.2294    1.5347    2.8224 C   0  0  0  0  0  0  0  0  0  0  0  0
   -1.9385    1.8473    1.7340 C   0  0  0  0  0  0  0  0  0  0  0  0
   -1.4576    1.5751    0.4650 N   0  0  0  0  0  0  0  0  0  0  0  0
   -2.2839    1.9104   -0.6960 C   0  0  0  0  0  0  0  0  0  0  0  0
   -3.3640    0.8842   -0.9544 C   0  0  0  0  0  0  0  0  0  0  0  0
   -4.6936    1.1337   -0.5840 C   0  0  0  0  0  0  0  0  0  0  0  0
   -5.6842    0.1772   -0.8141 C   0  0  0  0  0  0  0  0  0  0  0  0
   -5.3568   -1.0374   -1.4137 C   0  0  0  0  0  0  0  0  0  0  0  0
   -4.0391   -1.2978   -1.7840 C   0  0  0  0  0  0  0  0  0  0  0  0
   -3.0472   -0.3431   -1.5554 C   0  0  0  0  0  0  0  0  0  0  0  0
   -0.2257    0.9498    0.2570 C   0  0  0  0  0  0  0  0  0  0  0  0
    0.2170    0.6777   -0.8602 O   0  0  0  0  0  0  0  0  0  0  0  0
    1.7795   -0.0968   -0.6050 H   0  0  0  0  0  0  0  0  0  0  0  0
    6.8169   -1.6816    0.8022 H   0  0  0  0  0  0  0  0  0  0  0  0
    5.0309   -2.0848   -3.0788 H   0  0  0  0  0  0  0  0  0  0  0  0
    0.5936    0.6751    3.6034 H   0  0  0  0  0  0  0  0  0  0  0  0
   -1.6042    1.7419    3.8197 H   0  0  0  0  0  0  0  0  0  0  0  0
   -2.9142    2.3180    1.8118 H   0  0  0  0  0  0  0  0  0  0  0  0
   -2.7248    2.9030   -0.5358 H   0  0  0  0  0  0  0  0  0  0  0  0
   -1.6596    2.0046   -1.5930 H   0  0  0  0  0  0  0  0  0  0  0  0
   -4.9685    2.0749   -0.1140 H   0  0  0  0  0  0  0  0  0  0  0  0
   -6.7124    0.3787   -0.5250 H   0  0  0  0  0  0  0  0  0  0  0  0
   -6.1282   -1.7819   -1.5920 H   0  0  0  0  0  0  0  0  0  0  0  0
   -3.7819   -2.2452   -2.2507 H   0  0  0  0  0  0  0  0  0  0  0  0
   -2.0220   -0.5614   -1.8498 H   0  0  0  0  0  0  0  0  0  0  0  0
  1  2  2  0
  2  3  1  0
  3  4  1  0
  4  5  2  0
  5  6  1  0
  5  7  1  0
  7  8  2  0
  8  9  1  0
  8 10  1  0
 10 11  2  0
 11 12  1  0
  2 13  1  0
 13 14  2  0
 14 15  1  0
 15 16  2  0
 16 17  1  0
 17 18  1  0
 18 19  1  0
 19 20  2  0
 20 21  1  0
 21 22  2  0
 22 23  1  0
 23 24  2  0
 17 25  1  0
 25 26  2  0
 11  4  1  0
 25 13  1  0
 24 19  1  0
  3 27  1  0
  7 28  1  0
 10 29  1  0
 14 30  1  0
 15 31  1  0
 16 32  1  0
 18 33  1  0
 18 34  1  0
 20 35  1  0
 21 36  1  0
 22 37  1  0
 23 38  1  0
 24 39  1  0
M  END
$$$$
