
     RDKit          3D

 67 72  0  0  0  0  0  0  0  0999 V2000
   -1.8473    4.9443    3.8278 C   0  0  0  0  0  0  0  0  0  0  0  0
   -1.7507    4.9056    2.4103 O   0  0  0  0  0  0  0  0  0  0  0  0
   -1.5166    3.6864    1.8397 C   0  0  0  0  0  0  0  0  0  0  0  0
   -1.3372    2.4826    2.5163 C   0  0  0  0  0  0  0  0  0  0  0  0
   -1.1075    1.2975    1.8052 C   0  0  0  0  0  0  0  0  0  0  0  0
   -1.0562    1.2921    0.4050 C   0  0  0  0  0  0  0  0  0  0  0  0
   -0.8009    0.0384   -0.4136 C   0  0  0  0  0  0  0  0  0  0  0  0
   -1.5093   -1.2581    0.0557 C   0  0  0  0  0  0  0  0  0  0  0  0
   -2.8296   -1.4590   -0.7029 C   0  0  0  0  0  0  0  0  0  0  0  0
   -2.8544   -1.4441   -1.9400 O   0  0  0  0  0  0  0  0  0  0  0  0
   -4.1137   -1.7056    0.1164 C   0  0  0  0  0  0  0  0  0  0  0  0
   -3.9800   -3.0094    0.9108 C   0  0  0  0  0  0  0  0  0  0  0  0
   -4.3761   -0.5242    1.0579 C   0  0  0  0  0  0  0  0  0  0  0  0
   -5.3127   -1.8371   -0.8414 C   0  0  0  0  0  0  0  0  0  0  0  0
   -0.5917   -2.3475   -0.3090 N   0  0  0  0  0  0  0  0  0  0  0  0
   -0.5411   -3.4069    0.5607 N   0  0  0  0  0  0  0  0  0  0  0  0
    0.5508   -4.1064    0.6164 C   0  0  0  0  0  0  0  0  0  0  0  0
    1.7711   -3.8235   -0.1427 C   0  0  0  0  0  0  0  0  0  0  0  0
    2.8836   -4.6582   -0.0238 C   0  0  0  0  0  0  0  0  0  0  0  0
    4.0304   -4.3758   -0.7650 C   0  0  0  0  0  0  0  0  0  0  0  0
    4.0541   -3.2737   -1.6205 C   0  0  0  0  0  0  0  0  0  0  0  0
    2.9362   -2.4430   -1.7290 C   0  0  0  0  0  0  0  0  0  0  0  0
    1.7857   -2.7037   -0.9724 C   0  0  0  0  0  0  0  0  0  0  0  0
    0.5630   -1.8358   -1.0507 C   0  0  0  0  0  0  0  0  0  0  0  0
    0.6786   -0.3836   -0.5604 C   0  0  0  0  0  0  0  0  0  0  0  0
    1.3763    0.4964   -1.5428 N   0  0  0  0  0  0  0  0  0  0  0  0
    2.3517    0.9921   -0.8487 C   0  0  0  0  0  0  0  0  0  0  0  0
    3.3578    1.9491   -1.3387 C   0  0  0  0  0  0  0  0  0  0  0  0
    3.2599    2.4116   -2.6577 C   0  0  0  0  0  0  0  0  0  0  0  0
    4.1986    3.3176   -3.1548 C   0  0  0  0  0  0  0  0  0  0  0  0
    5.2370    3.7637   -2.3383 C   0  0  0  0  0  0  0  0  0  0  0  0
    5.3392    3.3065   -1.0241 C   0  0  0  0  0  0  0  0  0  0  0  0
    4.4022    2.4000   -0.5214 C   0  0  0  0  0  0  0  0  0  0  0  0
    2.5046    0.6165    0.4327 O   0  0  0  0  0  0  0  0  0  0  0  0
    1.5004   -0.2582    0.7066 C   0  0  0  0  0  0  0  0  0  0  0  0
    1.3341   -0.7951    1.7877 O   0  0  0  0  0  0  0  0  0  0  0  0
   -1.2242    2.5135   -0.2636 C   0  0  0  0  0  0  0  0  0  0  0  0
   -1.4545    3.6938    0.4471 C   0  0  0  0  0  0  0  0  0  0  0  0
   -2.0640    5.9761    4.1193 H   0  0  0  0  0  0  0  0  0  0  0  0
   -0.8990    4.6574    4.2942 H   0  0  0  0  0  0  0  0  0  0  0  0
   -2.6712    4.3188    4.1865 H   0  0  0  0  0  0  0  0  0  0  0  0
   -1.3639    2.4264    3.5995 H   0  0  0  0  0  0  0  0  0  0  0  0
   -0.9564    0.3855    2.3805 H   0  0  0  0  0  0  0  0  0  0  0  0
   -1.1649    0.2652   -1.4275 H   0  0  0  0  0  0  0  0  0  0  0  0
   -1.6607   -1.2919    1.1355 H   0  0  0  0  0  0  0  0  0  0  0  0
   -3.7222   -3.8450    0.2514 H   0  0  0  0  0  0  0  0  0  0  0  0
   -3.1994   -2.9433    1.6752 H   0  0  0  0  0  0  0  0  0  0  0  0
   -4.9158   -3.2597    1.4227 H   0  0  0  0  0  0  0  0  0  0  0  0
   -4.3536    0.4264    0.5129 H   0  0  0  0  0  0  0  0  0  0  0  0
   -5.3554   -0.6117    1.5420 H   0  0  0  0  0  0  0  0  0  0  0  0
   -3.6290   -0.4629    1.8555 H   0  0  0  0  0  0  0  0  0  0  0  0
   -5.1730   -2.6686   -1.5422 H   0  0  0  0  0  0  0  0  0  0  0  0
   -5.4495   -0.9251   -1.4335 H   0  0  0  0  0  0  0  0  0  0  0  0
   -6.2422   -2.0207   -0.2910 H   0  0  0  0  0  0  0  0  0  0  0  0
    0.5684   -4.9713    1.2999 H   0  0  0  0  0  0  0  0  0  0  0  0
    2.8648   -5.5230    0.6337 H   0  0  0  0  0  0  0  0  0  0  0  0
    4.9031   -5.0197   -0.6856 H   0  0  0  0  0  0  0  0  0  0  0  0
    4.9439   -3.0651   -2.2098 H   0  0  0  0  0  0  0  0  0  0  0  0
    2.9667   -1.6004   -2.4167 H   0  0  0  0  0  0  0  0  0  0  0  0
    0.2398   -1.8342   -2.1020 H   0  0  0  0  0  0  0  0  0  0  0  0
    2.4522    2.0735   -3.3044 H   0  0  0  0  0  0  0  0  0  0  0  0
    4.1182    3.6773   -4.1782 H   0  0  0  0  0  0  0  0  0  0  0  0
    5.9663    4.4712   -2.7266 H   0  0  0  0  0  0  0  0  0  0  0  0
    6.1493    3.6591   -0.3895 H   0  0  0  0  0  0  0  0  0  0  0  0
    4.5012    2.0584    0.5066 H   0  0  0  0  0  0  0  0  0  0  0  0
   -1.1779    2.5601   -1.3507 H   0  0  0  0  0  0  0  0  0  0  0  0
   -1.5869    4.6283   -0.0929 H   0  0  0  0  0  0  0  0  0  0  0  0
  1  2  1  0
  2  3  1  0
  3  4  2  0
  4  5  1  0
  5  6  2  0
  6  7  1  0
  7  8  1  0
  8  9  1  0
  9 10  2  0
  9 11  1  0
 11 12  1  0
 11 13  1  0
 11 14  1  0
  8 15  1  0
 15 16  1  0
 16 17  2  0
 17 18  1  0
 18 19  2  0
 19 20  1  0
 20 21  2  0
 21 22  1  0
 22 23  2  0
 23 24  1  0
 24 25  1  0
 25 26  1  0
 26 27  2  0
 27 28  1  0
 28 29  2  0
 29 30  1  0
 30 31  2  0
 31 32  1  0
 32 33  2  0
 27 34  1  0
 34 35  1  0
 35 36  2  0
  6 37  1  0
 37 38  2  0
 38  3  1  0
 25  7  1  0
 33 28  1  0
 24 15  1  0
 35 25  1  0
 23 18  1  0
  1 39  1  0
  1 40  1  0
  1 41  1  0
  4 42  1  0
  5 43  1  0
  7 44  1  0
  8 45  1  0
 12 46  1  0
 12 47  1  0
 12 48  1  0
 13 49  1  0
 13 50  1  0
 13 51  1  0
 14 52  1  0
 14 53  1  0
 14 54  1  0
 17 55  1  0
 19 56  1  0
 20 57  1  0
 21 58  1  0
 22 59  1  0
 24 60  1  0
 29 61  1  0
 30 62  1  0
 31 63  1  0
 32 64  1  0
 33 65  1  0
 37 66  1  0
 38 67  1  0
M  END
$$$$
