
     RDKit          3D

 35 37  0  0  0  0  0  0  0  0999 V2000
   -5.6875    0.3952   -0.3187 C   0  0  0  0  0  0  0  0  0  0  0  0
   -4.2567   -0.0162   -0.1085 C   0  0  0  0  0  0  0  0  0  0  0  0
   -3.2405    0.9429   -0.2569 C   0  0  0  0  0  0  0  0  0  0  0  0
   -1.8978    0.6204   -0.1134 C   0  0  0  0  0  0  0  0  0  0  0  0
   -0.9626    1.5754   -0.2649 N   0  0  0  0  0  0  0  0  0  0  0  0
    0.3248    1.2059   -0.1316 C   0  0  0  0  0  0  0  0  0  0  0  0
    1.3283    2.1466   -0.2727 C   0  0  0  0  0  0  0  0  0  0  0  0
    2.6783    1.7961   -0.1435 C   0  0  0  0  0  0  0  0  0  0  0  0
    3.0780    0.4800    0.1237 C   0  0  0  0  0  0  0  0  0  0  0  0
    4.4239    0.1277    0.2707 N   0  0  0  0  0  0  0  0  0  0  0  0
    5.4543    1.0321   -0.2393 C   0  0  0  0  0  0  0  0  0  0  0  0
    4.7909   -1.2879    0.3090 C   0  0  0  0  0  0  0  0  0  0  0  0
    2.0345   -0.4509    0.2782 C   0  0  0  0  0  0  0  0  0  0  0  0
    0.6842   -0.1229    0.1529 C   0  0  0  0  0  0  0  0  0  0  0  0
   -0.2546   -1.0773    0.3055 N   0  0  0  0  0  0  0  0  0  0  0  0
   -1.5441   -0.7108    0.1759 C   0  0  0  0  0  0  0  0  0  0  0  0
   -2.5499   -1.6580    0.3263 C   0  0  0  0  0  0  0  0  0  0  0  0
   -3.9082   -1.3267    0.2422 C   0  0  0  0  0  0  0  0  0  0  0  0
   -4.8629   -2.3518    0.2949 N   0  0  0  0  0  0  0  0  0  0  0  0
   -5.7641    1.4401   -0.6378 H   0  0  0  0  0  0  0  0  0  0  0  0
   -6.2518    0.2905    0.6135 H   0  0  0  0  0  0  0  0  0  0  0  0
   -6.1507   -0.2190   -1.0976 H   0  0  0  0  0  0  0  0  0  0  0  0
   -3.4941    1.9717   -0.5045 H   0  0  0  0  0  0  0  0  0  0  0  0
    1.0601    3.1786   -0.4841 H   0  0  0  0  0  0  0  0  0  0  0  0
    3.4051    2.5950   -0.2542 H   0  0  0  0  0  0  0  0  0  0  0  0
    5.4370    1.9908    0.2899 H   0  0  0  0  0  0  0  0  0  0  0  0
    6.4581    0.6213   -0.0830 H   0  0  0  0  0  0  0  0  0  0  0  0
    5.3313    1.2023   -1.3146 H   0  0  0  0  0  0  0  0  0  0  0  0
    5.8709   -1.4144    0.4452 H   0  0  0  0  0  0  0  0  0  0  0  0
    4.3210   -1.7965    1.1577 H   0  0  0  0  0  0  0  0  0  0  0  0
    4.5133   -1.7915   -0.6235 H   0  0  0  0  0  0  0  0  0  0  0  0
    2.2484   -1.4906    0.5068 H   0  0  0  0  0  0  0  0  0  0  0  0
   -2.2548   -2.6860    0.5215 H   0  0  0  0  0  0  0  0  0  0  0  0
   -5.7944   -2.0461    0.5564 H   0  0  0  0  0  0  0  0  0  0  0  0
   -4.5679   -3.1660    0.8259 H   0  0  0  0  0  0  0  0  0  0  0  0
  1  2  1  0
  2  3  2  0
  3  4  1  0
  4  5  2  0
  5  6  1  0
  6  7  2  0
  7  8  1  0
  8  9  2  0
  9 10  1  0
 10 11  1  0
 10 12  1  0
  9 13  1  0
 13 14  2  0
 14 15  1  0
 15 16  2  0
 16 17  1  0
 17 18  2  0
 18 19  1  0
 18  2  1  0
 16  4  1  0
 14  6  1  0
  1 20  1  0
  1 21  1  0
  1 22  1  0
  3 23  1  0
  7 24  1  0
  8 25  1  0
 11 26  1  0
 11 27  1  0
 11 28  1  0
 12 29  1  0
 12 30  1  0
 12 31  1  0
 13 32  1  0
 17 33  1  0
 19 34  1  0
 19 35  1  0
M  END
$$$$
