
     RDKit          3D

 34 36  0  0  0  0  0  0  0  0999 V2000
    3.5420   -0.1174   -3.1760 S   0  0  0  0  0  0  0  0  0  0  0  0
    2.5771    0.0790   -1.8144 C   0  0  0  0  0  0  0  0  0  0  0  0
    1.2347   -0.1626   -1.7677 N   0  0  0  0  0  0  0  0  0  0  0  0
    0.8113   -1.3248   -1.3870 C   0  0  0  0  0  0  0  0  0  0  0  0
    1.8460   -2.6960   -0.8492 S   0  0  0  0  0  0  0  0  0  0  0  0
    0.4463   -3.6945   -0.5597 C   0  0  0  0  0  0  0  0  0  0  0  0
   -0.6815   -3.0372   -0.8531 C   0  0  0  0  0  0  0  0  0  0  0  0
   -0.5148   -1.7395   -1.3132 N   0  0  0  0  0  0  0  0  0  0  0  0
   -1.6120   -0.8546   -1.6737 C   0  0  0  0  0  0  0  0  0  0  0  0
   -2.1628   -0.1398   -0.4603 C   0  0  0  0  0  0  0  0  0  0  0  0
   -1.5980    1.0716   -0.0353 C   0  0  0  0  0  0  0  0  0  0  0  0
   -2.0971    1.7311    1.0888 C   0  0  0  0  0  0  0  0  0  0  0  0
   -3.1607    1.1844    1.8037 C   0  0  0  0  0  0  0  0  0  0  0  0
   -3.7259   -0.0225    1.3965 C   0  0  0  0  0  0  0  0  0  0  0  0
   -3.2295   -0.6831    0.2714 C   0  0  0  0  0  0  0  0  0  0  0  0
    3.1637    0.6050   -0.6879 N   0  0  0  0  0  0  0  0  0  0  0  0
    2.4917    0.9720    0.5156 C   0  0  0  0  0  0  0  0  0  0  0  0
    2.0336    2.3868    0.7355 C   0  0  0  0  0  0  0  0  0  0  0  0
    3.1825    1.8429    1.5308 C   0  0  0  0  0  0  0  0  0  0  0  0
    0.5128   -4.7077   -0.1900 H   0  0  0  0  0  0  0  0  0  0  0  0
   -1.6845   -3.4323   -0.7585 H   0  0  0  0  0  0  0  0  0  0  0  0
   -2.4149   -1.4289   -2.1548 H   0  0  0  0  0  0  0  0  0  0  0  0
   -1.3016   -0.1194   -2.4271 H   0  0  0  0  0  0  0  0  0  0  0  0
   -0.7619    1.5062   -0.5810 H   0  0  0  0  0  0  0  0  0  0  0  0
   -1.6543    2.6712    1.4070 H   0  0  0  0  0  0  0  0  0  0  0  0
   -3.5477    1.6983    2.6797 H   0  0  0  0  0  0  0  0  0  0  0  0
   -4.5537   -0.4496    1.9568 H   0  0  0  0  0  0  0  0  0  0  0  0
   -3.6815   -1.6249   -0.0303 H   0  0  0  0  0  0  0  0  0  0  0  0
    4.1528    0.8045   -0.7780 H   0  0  0  0  0  0  0  0  0  0  0  0
    1.8636    0.1812    0.9198 H   0  0  0  0  0  0  0  0  0  0  0  0
    2.2442    3.1186   -0.0354 H   0  0  0  0  0  0  0  0  0  0  0  0
    1.0906    2.5382    1.2464 H   0  0  0  0  0  0  0  0  0  0  0  0
    4.1733    2.2210    1.3096 H   0  0  0  0  0  0  0  0  0  0  0  0
    3.0160    1.6229    2.5791 H   0  0  0  0  0  0  0  0  0  0  0  0
  1  2  2  0
  2  3  1  0
  3  4  2  3
  4  5  1  0
  5  6  1  0
  6  7  2  0
  7  8  1  0
  8  9  1  0
  9 10  1  0
 10 11  2  0
 11 12  1  0
 12 13  2  0
 13 14  1  0
 14 15  2  0
  2 16  1  0
 16 17  1  0
 17 18  1  0
 18 19  1  0
  8  4  1  0
 15 10  1  0
 19 17  1  0
  6 20  1  0
  7 21  1  0
  9 22  1  0
  9 23  1  0
 11 24  1  0
 12 25  1  0
 13 26  1  0
 14 27  1  0
 15 28  1  0
 16 29  1  0
 17 30  1  0
 18 31  1  0
 18 32  1  0
 19 33  1  0
 19 34  1  0
M  END
$$$$
