
     RDKit          3D

 66 70  0  0  0  0  0  0  0  0999 V2000
    4.2012   -1.9815    0.1057 C   0  0  0  0  0  0  0  0  0  0  0  0
    3.9009   -1.3577    1.4189 C   0  0  0  0  0  0  0  0  0  0  0  0
    2.6767   -1.2740    2.0593 C   0  0  0  0  0  0  0  0  0  0  0  0
    1.3281   -1.7887    1.6459 C   0  0  0  0  0  0  0  0  0  0  0  0
    0.6213   -0.8468    0.6687 C   0  0  0  0  0  0  0  0  0  0  0  0
   -0.6868   -1.3437    0.3502 O   0  0  0  0  0  0  0  0  0  0  0  0
   -1.6575   -1.0257    1.2543 C   0  0  0  0  0  0  0  0  0  0  0  0
   -1.4608   -0.4052    2.2898 O   0  0  0  0  0  0  0  0  0  0  0  0
   -3.0010   -1.5491    0.8071 C   0  0  0  0  0  0  0  0  0  0  0  0
   -3.8434   -0.5481   -0.0070 C   0  0  0  0  0  0  0  0  0  0  0  0
   -3.1319   -0.1288   -1.3173 C   0  0  0  0  0  0  0  0  0  0  0  0
   -4.0167    0.8282   -2.1342 C   0  0  0  0  0  0  0  0  0  0  0  0
   -4.3165    2.0808   -1.2962 C   0  0  0  0  0  0  0  0  0  0  0  0
   -5.0504    1.6864   -0.0051 C   0  0  0  0  0  0  0  0  0  0  0  0
   -6.3685    0.9836   -0.3647 C   0  0  0  0  0  0  0  0  0  0  0  0
   -6.0907   -0.2824   -1.2051 C   0  0  0  0  0  0  0  0  0  0  0  0
   -7.4064   -0.9803   -1.5626 C   0  0  0  0  0  0  0  0  0  0  0  0
   -5.3365    0.1268   -2.4899 C   0  0  0  0  0  0  0  0  0  0  0  0
   -5.1875   -1.2306   -0.3840 C   0  0  0  0  0  0  0  0  0  0  0  0
   -4.1651    0.7278    0.8102 C   0  0  0  0  0  0  0  0  0  0  0  0
    2.8503   -0.4473    3.5563 S   0  0  0  0  0  0  0  0  0  0  0  0
    4.5272   -0.2463    3.3194 C   0  0  0  0  0  0  0  0  0  0  0  0
    4.9164   -0.7529    2.1605 N   0  0  0  0  0  4  0  0  0  0  0  0
    6.3329   -0.6987    1.7701 C   0  0  0  0  0  0  0  0  0  0  0  0
    6.5569    0.3209    0.6735 C   0  0  0  0  0  0  0  0  0  0  0  0
    6.1894    1.6681    0.8428 C   0  0  0  0  0  0  0  0  0  0  0  0
    6.4305    2.6072   -0.1662 C   0  0  0  0  0  0  0  0  0  0  0  0
    7.0488    2.2037   -1.3555 C   0  0  0  0  0  0  0  0  0  0  0  0
    7.3101    3.1887   -2.4130 N   0  0  0  0  0  4  0  0  0  0  0  0
    7.6587    2.7569   -3.5197 O   0  0  0  0  0  0  0  0  0  0  0  0
    7.1628    4.3853   -2.1278 O   0  0  0  0  0  1  0  0  0  0  0  0
    7.4293    0.8694   -1.5375 C   0  0  0  0  0  0  0  0  0  0  0  0
    7.1894   -0.0634   -0.5231 C   0  0  0  0  0  0  0  0  0  0  0  0
    3.3662   -2.6009   -0.2389 H   0  0  0  0  0  0  0  0  0  0  0  0
    4.3706   -1.2122   -0.6533 H   0  0  0  0  0  0  0  0  0  0  0  0
    5.0772   -2.6335    0.1587 H   0  0  0  0  0  0  0  0  0  0  0  0
    1.4322   -2.7796    1.1829 H   0  0  0  0  0  0  0  0  0  0  0  0
    0.6978   -1.9611    2.5283 H   0  0  0  0  0  0  0  0  0  0  0  0
    1.1788   -0.7954   -0.2741 H   0  0  0  0  0  0  0  0  0  0  0  0
    0.5648    0.1816    1.0498 H   0  0  0  0  0  0  0  0  0  0  0  0
   -2.8378   -2.4724    0.2363 H   0  0  0  0  0  0  0  0  0  0  0  0
   -3.5390   -1.8588    1.7124 H   0  0  0  0  0  0  0  0  0  0  0  0
   -2.8924   -1.0150   -1.9186 H   0  0  0  0  0  0  0  0  0  0  0  0
   -2.1810    0.3712   -1.0969 H   0  0  0  0  0  0  0  0  0  0  0  0
   -3.4944    1.1168   -3.0532 H   0  0  0  0  0  0  0  0  0  0  0  0
   -3.3821    2.6014   -1.0527 H   0  0  0  0  0  0  0  0  0  0  0  0
   -4.9289    2.7819   -1.8765 H   0  0  0  0  0  0  0  0  0  0  0  0
   -5.2626    2.5839    0.5867 H   0  0  0  0  0  0  0  0  0  0  0  0
   -6.9077    0.7193    0.5540 H   0  0  0  0  0  0  0  0  0  0  0  0
   -7.0149    1.6745   -0.9215 H   0  0  0  0  0  0  0  0  0  0  0  0
   -8.0599   -0.3179   -2.1410 H   0  0  0  0  0  0  0  0  0  0  0  0
   -7.2263   -1.8796   -2.1623 H   0  0  0  0  0  0  0  0  0  0  0  0
   -7.9518   -1.2840   -0.6618 H   0  0  0  0  0  0  0  0  0  0  0  0
   -5.9579    0.7972   -3.0978 H   0  0  0  0  0  0  0  0  0  0  0  0
   -5.1295   -0.7565   -3.1078 H   0  0  0  0  0  0  0  0  0  0  0  0
   -4.9907   -2.1453   -0.9596 H   0  0  0  0  0  0  0  0  0  0  0  0
   -5.7127   -1.5453    0.5282 H   0  0  0  0  0  0  0  0  0  0  0  0
   -3.2422    1.2504    1.0900 H   0  0  0  0  0  0  0  0  0  0  0  0
   -4.6729    0.4595    1.7455 H   0  0  0  0  0  0  0  0  0  0  0  0
    5.1733    0.2443    4.0381 H   0  0  0  0  0  0  0  0  0  0  0  0
    6.6518   -1.7015    1.4636 H   0  0  0  0  0  0  0  0  0  0  0  0
    6.9543   -0.4295    2.6339 H   0  0  0  0  0  0  0  0  0  0  0  0
    5.7244    2.0204    1.7626 H   0  0  0  0  0  0  0  0  0  0  0  0
    6.1428    3.6476   -0.0092 H   0  0  0  0  0  0  0  0  0  0  0  0
    7.9233    0.5468   -2.4541 H   0  0  0  0  0  0  0  0  0  0  0  0
    7.5162   -1.0910   -0.6846 H   0  0  0  0  0  0  0  0  0  0  0  0
  1  2  1  0
  2  3  2  0
  3  4  1  0
  4  5  1  0
  5  6  1  0
  6  7  1  0
  7  8  2  0
  7  9  1  0
  9 10  1  0
 10 11  1  0
 11 12  1  0
 12 13  1  0
 13 14  1  0
 14 15  1  0
 15 16  1  0
 16 17  1  0
 16 18  1  0
 16 19  1  0
 14 20  1  0
  3 21  1  0
 21 22  1  0
 22 23  2  0
 23 24  1  0
 24 25  1  0
 25 26  2  0
 26 27  1  0
 27 28  2  0
 28 29  1  0
 29 30  2  0
 29 31  1  0
 28 32  1  0
 32 33  2  0
 23  2  1  0
 33 25  1  0
 19 10  1  0
 20 10  1  0
 18 12  1  0
  1 34  1  0
  1 35  1  0
  1 36  1  0
  4 37  1  0
  4 38  1  0
  5 39  1  0
  5 40  1  0
  9 41  1  0
  9 42  1  0
 11 43  1  0
 11 44  1  0
 12 45  1  0
 13 46  1  0
 13 47  1  0
 14 48  1  0
 15 49  1  0
 15 50  1  0
 17 51  1  0
 17 52  1  0
 17 53  1  0
 18 54  1  0
 18 55  1  0
 19 56  1  0
 19 57  1  0
 20 58  1  0
 20 59  1  0
 22 60  1  0
 24 61  1  0
 24 62  1  0
 26 63  1  0
 27 64  1  0
 32 65  1  0
 33 66  1  0
M  CHG  3  23   1  29   1  31  -1
M  END
$$$$
