
     RDKit          3D

 39 41  0  0  0  0  0  0  0  0999 V2000
   -4.2611   -0.0502    2.1350 F   0  0  0  0  0  0  0  0  0  0  0  0
   -4.3807    0.0677    0.8045 C   0  0  0  0  0  0  0  0  0  0  0  0
   -5.5103    0.7001    0.2913 C   0  0  0  0  0  0  0  0  0  0  0  0
   -5.6687    0.8214   -1.0877 C   0  0  0  0  0  0  0  0  0  0  0  0
   -4.6962    0.3073   -1.9453 C   0  0  0  0  0  0  0  0  0  0  0  0
   -3.5645   -0.3268   -1.4250 C   0  0  0  0  0  0  0  0  0  0  0  0
   -3.3934   -0.4531   -0.0377 C   0  0  0  0  0  0  0  0  0  0  0  0
   -2.1699   -1.1241    0.5396 C   0  0  0  0  0  0  0  0  0  0  0  0
   -1.1506   -0.1771    1.0151 N   0  0  0  0  0  0  0  0  0  0  0  0
   -0.1002   -0.8552    1.8031 C   0  0  0  0  0  0  0  0  0  0  0  0
    1.1987   -1.2020    1.0374 C   0  0  0  0  0  0  0  0  0  0  0  0
    1.7855   -0.0075    0.4046 N   0  0  0  0  0  0  0  0  0  0  0  0
    3.1525    0.1048    0.2162 C   0  0  0  0  0  0  0  0  0  0  0  0
    3.7913    1.3518    0.1071 C   0  0  0  0  0  0  0  0  0  0  0  0
    5.1743    1.4645   -0.0895 C   0  0  0  0  0  0  0  0  0  0  0  0
    5.9530    0.3194   -0.1867 C   0  0  0  0  0  0  0  0  0  0  0  0
    7.6500    0.4500   -0.4295 Cl  0  0  0  0  0  0  0  0  0  0  0  0
    5.3588   -0.9313   -0.0896 C   0  0  0  0  0  0  0  0  0  0  0  0
    3.9754   -1.0304    0.1085 C   0  0  0  0  0  0  0  0  0  0  0  0
    0.8708    1.1258    0.1857 C   0  0  0  0  0  0  0  0  0  0  0  0
   -0.5623    0.6131   -0.0891 C   0  0  0  0  0  0  0  0  0  0  0  0
   -6.2584    1.0924    0.9726 H   0  0  0  0  0  0  0  0  0  0  0  0
   -6.5480    1.3149   -1.4933 H   0  0  0  0  0  0  0  0  0  0  0  0
   -4.8184    0.4012   -3.0218 H   0  0  0  0  0  0  0  0  0  0  0  0
   -2.8149   -0.7194   -2.1083 H   0  0  0  0  0  0  0  0  0  0  0  0
   -1.7439   -1.8245   -0.1916 H   0  0  0  0  0  0  0  0  0  0  0  0
   -2.5162   -1.7486    1.3745 H   0  0  0  0  0  0  0  0  0  0  0  0
   -0.4859   -1.7572    2.2941 H   0  0  0  0  0  0  0  0  0  0  0  0
    0.1664   -0.1743    2.6228 H   0  0  0  0  0  0  0  0  0  0  0  0
    1.8941   -1.6424    1.7623 H   0  0  0  0  0  0  0  0  0  0  0  0
    0.9874   -1.9532    0.2671 H   0  0  0  0  0  0  0  0  0  0  0  0
    3.2237    2.2739    0.1967 H   0  0  0  0  0  0  0  0  0  0  0  0
    5.6279    2.4489   -0.1607 H   0  0  0  0  0  0  0  0  0  0  0  0
    5.9561   -1.8349   -0.1716 H   0  0  0  0  0  0  0  0  0  0  0  0
    3.5456   -2.0275    0.1533 H   0  0  0  0  0  0  0  0  0  0  0  0
    1.1811    1.7095   -0.6893 H   0  0  0  0  0  0  0  0  0  0  0  0
    0.8773    1.7881    1.0599 H   0  0  0  0  0  0  0  0  0  0  0  0
   -0.5173    0.0108   -1.0069 H   0  0  0  0  0  0  0  0  0  0  0  0
   -1.2089    1.4742   -0.2930 H   0  0  0  0  0  0  0  0  0  0  0  0
  1  2  1  0
  2  3  2  0
  3  4  1  0
  4  5  2  0
  5  6  1  0
  6  7  2  0
  7  8  1  0
  8  9  1  0
  9 10  1  0
 10 11  1  0
 11 12  1  0
 12 13  1  0
 13 14  2  0
 14 15  1  0
 15 16  2  0
 16 17  1  0
 16 18  1  0
 18 19  2  0
 12 20  1  0
 20 21  1  0
  7  2  1  0
 21  9  1  0
 19 13  1  0
  3 22  1  0
  4 23  1  0
  5 24  1  0
  6 25  1  0
  8 26  1  0
  8 27  1  0
 10 28  1  0
 10 29  1  0
 11 30  1  0
 11 31  1  0
 14 32  1  0
 15 33  1  0
 18 34  1  0
 19 35  1  0
 20 36  1  0
 20 37  1  0
 21 38  1  0
 21 39  1  0
M  END
$$$$
