
     RDKit          3D

 61 65  0  0  0  0  0  0  0  0999 V2000
  -10.3183    2.0429    0.5204 C   0  0  0  0  0  0  0  0  0  0  0  0
   -9.9810    0.7217    0.1178 O   0  0  0  0  0  0  0  0  0  0  0  0
   -8.6495    0.4213    0.0438 C   0  0  0  0  0  0  0  0  0  0  0  0
   -7.5948    1.2796    0.3418 C   0  0  0  0  0  0  0  0  0  0  0  0
   -6.2678    0.8403    0.2212 C   0  0  0  0  0  0  0  0  0  0  0  0
   -5.9716   -0.4645   -0.1995 C   0  0  0  0  0  0  0  0  0  0  0  0
   -4.6075   -0.9064   -0.3172 N   0  0  0  0  0  0  0  0  0  0  0  0
   -4.1433   -2.2299   -0.2924 C   0  0  0  0  0  0  0  0  0  0  0  0
   -4.9460   -3.2790   -0.1198 O   0  0  0  0  0  0  0  0  0  0  0  0
   -2.7685   -2.2200   -0.4120 C   0  0  0  0  0  0  0  0  0  0  0  0
   -2.3489   -0.8805   -0.4845 C   0  0  0  0  0  0  0  0  0  0  0  0
   -1.0689   -0.4139   -0.5863 N   0  0  0  0  0  0  0  0  0  0  0  0
    0.0157   -1.3250   -1.0077 C   0  0  0  0  0  0  0  0  0  0  0  0
    1.3516   -0.5760   -1.2109 C   0  0  0  0  0  0  0  0  0  0  0  0
    1.7812    0.1112    0.0217 N   0  0  0  0  0  0  0  0  0  0  0  0
    3.1166    0.3560    0.2875 C   0  0  0  0  0  0  0  0  0  0  0  0
    4.0726    0.4212   -0.7409 C   0  0  0  0  0  0  0  0  0  0  0  0
    5.4283    0.6737   -0.4869 C   0  0  0  0  0  0  0  0  0  0  0  0
    5.8681    0.8552    0.8235 C   0  0  0  0  0  0  0  0  0  0  0  0
    7.2888    1.1365    1.1460 C   0  0  0  0  0  0  0  0  0  0  0  0
    7.5546    1.8962    2.0732 O   0  0  0  0  0  0  0  0  0  0  0  0
    8.3953    0.5223    0.3832 C   0  0  0  0  0  0  0  0  0  0  0  0
    8.3261   -0.7638   -0.1561 C   0  0  0  0  0  0  0  0  0  0  0  0
    9.4224   -1.2704   -0.8518 C   0  0  0  0  0  0  0  0  0  0  0  0
   10.5514   -0.4750   -0.9750 C   0  0  0  0  0  0  0  0  0  0  0  0
   10.6553    0.7653   -0.4510 N   0  0  0  0  0  0  0  0  0  0  0  0
    9.5788    1.2327    0.2292 C   0  0  0  0  0  0  0  0  0  0  0  0
    4.9407    0.8196    1.8634 C   0  0  0  0  0  0  0  0  0  0  0  0
    3.5890    0.5682    1.5931 C   0  0  0  0  0  0  0  0  0  0  0  0
    0.7187    0.4324    0.9923 C   0  0  0  0  0  0  0  0  0  0  0  0
   -0.6336    0.7023    0.2924 C   0  0  0  0  0  0  0  0  0  0  0  0
   -3.4823   -0.0917   -0.4947 C   0  0  0  0  0  0  0  0  0  0  0  0
   -3.5631    1.2199   -0.7299 O   0  0  0  0  0  0  0  0  0  0  0  0
   -7.0399   -1.3204   -0.4941 C   0  0  0  0  0  0  0  0  0  0  0  0
   -8.3632   -0.8778   -0.3731 C   0  0  0  0  0  0  0  0  0  0  0  0
   -9.9665    2.2484    1.5367 H   0  0  0  0  0  0  0  0  0  0  0  0
  -11.4095    2.1229    0.5242 H   0  0  0  0  0  0  0  0  0  0  0  0
   -9.9331    2.7827   -0.1890 H   0  0  0  0  0  0  0  0  0  0  0  0
   -7.7613    2.2976    0.6767 H   0  0  0  0  0  0  0  0  0  0  0  0
   -5.4842    1.5398    0.4976 H   0  0  0  0  0  0  0  0  0  0  0  0
   -4.3898   -4.0771   -0.0924 H   0  0  0  0  0  0  0  0  0  0  0  0
   -2.1405   -3.0990   -0.4034 H   0  0  0  0  0  0  0  0  0  0  0  0
   -0.2576   -1.8114   -1.9519 H   0  0  0  0  0  0  0  0  0  0  0  0
    0.1551   -2.1079   -0.2510 H   0  0  0  0  0  0  0  0  0  0  0  0
    2.0975   -1.3163   -1.5245 H   0  0  0  0  0  0  0  0  0  0  0  0
    1.2427    0.1641   -2.0131 H   0  0  0  0  0  0  0  0  0  0  0  0
    3.7698    0.3106   -1.7793 H   0  0  0  0  0  0  0  0  0  0  0  0
    6.1125    0.7491   -1.3279 H   0  0  0  0  0  0  0  0  0  0  0  0
    7.4440   -1.3847   -0.0275 H   0  0  0  0  0  0  0  0  0  0  0  0
    9.4015   -2.2664   -1.2809 H   0  0  0  0  0  0  0  0  0  0  0  0
   11.4307   -0.8274   -1.5077 H   0  0  0  0  0  0  0  0  0  0  0  0
    9.6999    2.2263    0.6540 H   0  0  0  0  0  0  0  0  0  0  0  0
    5.2610    0.9841    2.8905 H   0  0  0  0  0  0  0  0  0  0  0  0
    2.9123    0.5255    2.4424 H   0  0  0  0  0  0  0  0  0  0  0  0
    0.6118   -0.4013    1.6971 H   0  0  0  0  0  0  0  0  0  0  0  0
    0.9708    1.3334    1.5639 H   0  0  0  0  0  0  0  0  0  0  0  0
   -0.5399    1.6017   -0.3286 H   0  0  0  0  0  0  0  0  0  0  0  0
   -1.3804    0.9141    1.0676 H   0  0  0  0  0  0  0  0  0  0  0  0
   -2.6923    1.4550   -1.1006 H   0  0  0  0  0  0  0  0  0  0  0  0
   -6.8845   -2.3312   -0.8565 H   0  0  0  0  0  0  0  0  0  0  0  0
   -9.1775   -1.5566   -0.6151 H   0  0  0  0  0  0  0  0  0  0  0  0
  1  2  1  0
  2  3  1  0
  3  4  2  0
  4  5  1  0
  5  6  2  0
  6  7  1  0
  7  8  1  0
  8  9  1  0
  8 10  2  0
 10 11  1  0
 11 12  1  0
 12 13  1  0
 13 14  1  0
 14 15  1  0
 15 16  1  0
 16 17  2  0
 17 18  1  0
 18 19  2  0
 19 20  1  0
 20 21  2  0
 20 22  1  0
 22 23  2  0
 23 24  1  0
 24 25  2  0
 25 26  1  0
 26 27  2  0
 19 28  1  0
 28 29  2  0
 15 30  1  0
 30 31  1  0
 11 32  2  0
 32 33  1  0
  6 34  1  0
 34 35  2  0
 35  3  1  0
 32  7  1  0
 31 12  1  0
 29 16  1  0
 27 22  1  0
  1 36  1  0
  1 37  1  0
  1 38  1  0
  4 39  1  0
  5 40  1  0
  9 41  1  0
 10 42  1  0
 13 43  1  0
 13 44  1  0
 14 45  1  0
 14 46  1  0
 17 47  1  0
 18 48  1  0
 23 49  1  0
 24 50  1  0
 25 51  1  0
 27 52  1  0
 28 53  1  0
 29 54  1  0
 30 55  1  0
 30 56  1  0
 31 57  1  0
 31 58  1  0
 33 59  1  0
 34 60  1  0
 35 61  1  0
M  END
$$$$
