
     RDKit          3D

 52 55  0  0  0  0  0  0  0  0999 V2000
   -8.7686   -1.3755   -0.7496 C   0  0  0  0  0  0  0  0  0  0  0  0
   -8.1894   -0.9747    0.4858 O   0  0  0  0  0  0  0  0  0  0  0  0
   -6.8613   -1.2480    0.6629 C   0  0  0  0  0  0  0  0  0  0  0  0
   -6.0302   -1.9087   -0.2429 C   0  0  0  0  0  0  0  0  0  0  0  0
   -4.6814   -2.1218    0.0660 C   0  0  0  0  0  0  0  0  0  0  0  0
   -4.1523   -1.6733    1.2811 C   0  0  0  0  0  0  0  0  0  0  0  0
   -2.7436   -1.8926    1.6184 C   0  0  0  0  0  0  0  0  0  0  0  0
   -1.7000   -1.2496    1.0747 C   0  0  0  0  0  0  0  0  0  0  0  0
   -1.7431   -0.0397   -0.1443 S   0  0  0  0  0  0  0  0  0  0  0  0
   -0.0459    0.3361    0.1005 C   0  0  0  0  0  0  0  0  0  0  0  0
    0.4735    1.5033   -0.3435 C   0  0  0  0  0  0  0  0  0  0  0  0
   -0.2474    2.4117   -1.1694 C   0  0  0  0  0  0  0  0  0  0  0  0
   -0.8014    3.1491   -1.8740 N   0  0  0  0  0  0  0  0  0  0  0  0
    1.7771    2.0078    0.1572 C   0  0  0  0  0  0  0  0  0  0  0  0
    1.9877    2.1354    1.3580 O   0  0  0  0  0  0  0  0  0  0  0  0
    2.6833    2.3362   -0.8176 N   0  0  0  0  0  0  0  0  0  0  0  0
    3.9899    2.8577   -0.4842 C   0  0  0  0  0  0  0  0  0  0  0  0
    4.9403    2.4653   -1.5538 C   0  0  0  0  0  0  0  0  0  0  0  0
    6.1909    1.8828   -1.5402 C   0  0  0  0  0  0  0  0  0  0  0  0
    6.5891    1.7579   -2.8929 C   0  0  0  0  0  0  0  0  0  0  0  0
    5.5587    2.2698   -3.6457 C   0  0  0  0  0  0  0  0  0  0  0  0
    4.5508    2.6989   -2.8434 O   0  0  0  0  0  0  0  0  0  0  0  0
    0.5762   -0.6580    0.8653 N   0  0  0  0  0  0  0  0  0  0  0  0
    1.9794   -0.9471    0.8987 C   0  0  0  0  0  0  0  0  0  0  0  0
    2.6088   -1.3387    2.0872 C   0  0  0  0  0  0  0  0  0  0  0  0
    3.9751   -1.6331    2.1095 C   0  0  0  0  0  0  0  0  0  0  0  0
    4.7270   -1.5555    0.9402 C   0  0  0  0  0  0  0  0  0  0  0  0
    4.1125   -1.1909   -0.2542 C   0  0  0  0  0  0  0  0  0  0  0  0
    2.7469   -0.8936   -0.2762 C   0  0  0  0  0  0  0  0  0  0  0  0
   -0.3056   -1.5558    1.4959 C   0  0  0  0  0  0  0  0  0  0  0  0
   -0.0383   -2.4932    2.2374 O   0  0  0  0  0  0  0  0  0  0  0  0
   -4.9868   -1.0192    2.1910 C   0  0  0  0  0  0  0  0  0  0  0  0
   -6.3325   -0.8080    1.8795 C   0  0  0  0  0  0  0  0  0  0  0  0
   -8.7395   -2.4646   -0.8630 H   0  0  0  0  0  0  0  0  0  0  0  0
   -9.8195   -1.0694   -0.7407 H   0  0  0  0  0  0  0  0  0  0  0  0
   -8.2835   -0.8757   -1.5952 H   0  0  0  0  0  0  0  0  0  0  0  0
   -6.3970   -2.2719   -1.1975 H   0  0  0  0  0  0  0  0  0  0  0  0
   -4.0503   -2.6419   -0.6519 H   0  0  0  0  0  0  0  0  0  0  0  0
   -2.5770   -2.6362    2.3966 H   0  0  0  0  0  0  0  0  0  0  0  0
    2.4506    2.3110   -1.8034 H   0  0  0  0  0  0  0  0  0  0  0  0
    3.9101    3.9475   -0.4235 H   0  0  0  0  0  0  0  0  0  0  0  0
    4.3138    2.4764    0.4897 H   0  0  0  0  0  0  0  0  0  0  0  0
    6.7450    1.5872   -0.6593 H   0  0  0  0  0  0  0  0  0  0  0  0
    7.5145    1.3488   -3.2740 H   0  0  0  0  0  0  0  0  0  0  0  0
    5.3978    2.3965   -4.7076 H   0  0  0  0  0  0  0  0  0  0  0  0
    2.0511   -1.3952    3.0195 H   0  0  0  0  0  0  0  0  0  0  0  0
    4.4479   -1.9238    3.0442 H   0  0  0  0  0  0  0  0  0  0  0  0
    5.7881   -1.7898    0.9600 H   0  0  0  0  0  0  0  0  0  0  0  0
    4.6926   -1.1467   -1.1727 H   0  0  0  0  0  0  0  0  0  0  0  0
    2.2925   -0.6561   -1.2340 H   0  0  0  0  0  0  0  0  0  0  0  0
   -4.6012   -0.6646    3.1443 H   0  0  0  0  0  0  0  0  0  0  0  0
   -6.9752   -0.2940    2.5911 H   0  0  0  0  0  0  0  0  0  0  0  0
  1  2  1  0
  2  3  1  0
  3  4  2  0
  4  5  1  0
  5  6  2  0
  6  7  1  0
  7  8  2  3
  8  9  1  0
  9 10  1  0
 10 11  2  3
 11 12  1  0
 12 13  3  0
 11 14  1  0
 14 15  2  0
 14 16  1  0
 16 17  1  0
 17 18  1  0
 18 19  2  0
 19 20  1  0
 20 21  2  0
 21 22  1  0
 10 23  1  0
 23 24  1  0
 24 25  2  0
 25 26  1  0
 26 27  2  0
 27 28  1  0
 28 29  2  0
 23 30  1  0
 30 31  2  0
  6 32  1  0
 32 33  2  0
 33  3  1  0
 30  8  1  0
 22 18  1  0
 29 24  1  0
  1 34  1  0
  1 35  1  0
  1 36  1  0
  4 37  1  0
  5 38  1  0
  7 39  1  0
 16 40  1  0
 17 41  1  0
 17 42  1  0
 19 43  1  0
 20 44  1  0
 21 45  1  0
 25 46  1  0
 26 47  1  0
 27 48  1  0
 28 49  1  0
 29 50  1  0
 32 51  1  0
 33 52  1  0
M  END
$$$$
