
     RDKit          3D

 40 43  0  0  0  0  0  0  0  0999 V2000
    6.3995    1.2994    0.9894 O   0  0  0  0  0  0  0  0  0  0  0  0
    5.9449    0.2192    0.5846 N   0  0  0  0  0  4  0  0  0  0  0  0
    6.6384   -0.7312    0.1947 O   0  0  0  0  0  1  0  0  0  0  0  0
    4.4870    0.0556    0.5689 C   0  0  0  0  0  0  0  0  0  0  0  0
    3.9262   -1.1497    0.1455 C   0  0  0  0  0  0  0  0  0  0  0  0
    2.5334   -1.2905    0.1357 C   0  0  0  0  0  0  0  0  0  0  0  0
    1.6715   -0.2529    0.5410 C   0  0  0  0  0  0  0  0  0  0  0  0
    0.2903   -0.4285    0.5163 N   0  0  0  0  0  0  0  0  0  0  0  0
   -0.2571   -1.6157    0.1137 N   0  0  0  0  0  0  0  0  0  0  0  0
   -1.5337   -1.5434    0.3388 C   0  0  0  0  0  0  0  0  0  0  0  0
   -2.4558   -2.5978    0.0222 C   0  0  0  0  0  0  0  0  0  0  0  0
   -3.8224   -2.7194    0.2004 C   0  0  0  0  0  0  0  0  0  0  0  0
   -4.1910   -3.9892   -0.3082 C   0  0  0  0  0  0  0  0  0  0  0  0
   -3.0319   -4.5671   -0.7656 C   0  0  0  0  0  0  0  0  0  0  0  0
   -1.9786   -3.7353   -0.5709 O   0  0  0  0  0  0  0  0  0  0  0  0
   -1.9952   -0.2808    1.0028 C   0  0  0  0  0  0  0  0  0  0  0  0
   -0.7185    0.5545    0.9174 C   0  0  0  0  0  0  0  0  0  0  0  0
   -0.8846    1.6968   -0.0738 C   0  0  0  0  0  0  0  0  0  0  0  0
   -0.7212    1.5162   -1.4571 C   0  0  0  0  0  0  0  0  0  0  0  0
   -0.9061    2.5798   -2.3420 C   0  0  0  0  0  0  0  0  0  0  0  0
   -1.2638    3.8361   -1.8590 C   0  0  0  0  0  0  0  0  0  0  0  0
   -1.4382    4.0310   -0.4909 C   0  0  0  0  0  0  0  0  0  0  0  0
   -1.2531    2.9689    0.3964 C   0  0  0  0  0  0  0  0  0  0  0  0
    2.2719    0.9459    0.9613 C   0  0  0  0  0  0  0  0  0  0  0  0
    3.6641    1.1082    0.9780 C   0  0  0  0  0  0  0  0  0  0  0  0
    4.5428   -1.9846   -0.1792 H   0  0  0  0  0  0  0  0  0  0  0  0
    2.1105   -2.2369   -0.1999 H   0  0  0  0  0  0  0  0  0  0  0  0
   -4.4784   -1.9827    0.6427 H   0  0  0  0  0  0  0  0  0  0  0  0
   -5.1778   -4.4296   -0.3387 H   0  0  0  0  0  0  0  0  0  0  0  0
   -2.7976   -5.5142   -1.2319 H   0  0  0  0  0  0  0  0  0  0  0  0
   -2.2533   -0.5090    2.0427 H   0  0  0  0  0  0  0  0  0  0  0  0
   -2.8626    0.1539    0.4980 H   0  0  0  0  0  0  0  0  0  0  0  0
   -0.4816    0.9566    1.9108 H   0  0  0  0  0  0  0  0  0  0  0  0
   -0.4368    0.5434   -1.8568 H   0  0  0  0  0  0  0  0  0  0  0  0
   -0.7669    2.4256   -3.4091 H   0  0  0  0  0  0  0  0  0  0  0  0
   -1.4051    4.6633   -2.5498 H   0  0  0  0  0  0  0  0  0  0  0  0
   -1.7181    5.0121   -0.1153 H   0  0  0  0  0  0  0  0  0  0  0  0
   -1.3974    3.1450    1.4604 H   0  0  0  0  0  0  0  0  0  0  0  0
    1.6655    1.7895    1.2790 H   0  0  0  0  0  0  0  0  0  0  0  0
    4.0806    2.0576    1.3075 H   0  0  0  0  0  0  0  0  0  0  0  0
  1  2  2  0
  2  3  1  0
  2  4  1  0
  4  5  2  0
  5  6  1  0
  6  7  2  0
  7  8  1  0
  8  9  1  0
  9 10  2  0
 10 11  1  0
 11 12  2  0
 12 13  1  0
 13 14  2  0
 14 15  1  0
 10 16  1  0
 16 17  1  0
 17 18  1  0
 18 19  2  0
 19 20  1  0
 20 21  2  0
 21 22  1  0
 22 23  2  0
  7 24  1  0
 24 25  2  0
 25  4  1  0
 17  8  1  0
 23 18  1  0
 15 11  1  0
  5 26  1  0
  6 27  1  0
 12 28  1  0
 13 29  1  0
 14 30  1  0
 16 31  1  0
 16 32  1  0
 17 33  1  0
 19 34  1  0
 20 35  1  0
 21 36  1  0
 22 37  1  0
 23 38  1  0
 24 39  1  0
 25 40  1  0
M  CHG  2   2   1   3  -1
M  END
$$$$
