
     RDKit          3D

 37 39  0  0  0  0  0  0  0  0999 V2000
    0.7417   -0.7918    1.8888 O   0  0  0  0  0  0  0  0  0  0  0  0
    0.8873   -0.1202    0.8748 C   0  0  0  0  0  0  0  0  0  0  0  0
    2.2186    0.2254    0.3053 C   0  0  0  0  0  0  0  0  0  0  0  0
    3.3547   -0.2169    0.8622 C   0  0  0  0  0  0  0  0  0  0  0  0
    4.7134    0.0764    0.3953 C   0  0  0  0  0  0  0  0  0  0  0  0
    5.5666    0.8362    1.2047 C   0  0  0  0  0  0  0  0  0  0  0  0
    6.8689    1.1199    0.7870 C   0  0  0  0  0  0  0  0  0  0  0  0
    7.3285    0.6407   -0.4393 C   0  0  0  0  0  0  0  0  0  0  0  0
    6.4831   -0.1239   -1.2410 C   0  0  0  0  0  0  0  0  0  0  0  0
    7.1069   -0.7801   -2.9010 Br  0  0  0  0  0  0  0  0  0  0  0  0
    5.1813   -0.4122   -0.8301 C   0  0  0  0  0  0  0  0  0  0  0  0
    2.0425    1.2466   -1.0672 S   0  0  0  0  0  0  0  0  0  0  0  0
    0.2861    1.3032   -0.9247 C   0  0  0  0  0  0  0  0  0  0  0  0
   -0.6461    2.2962   -1.8940 S   0  0  0  0  0  0  0  0  0  0  0  0
   -0.1147    0.4373    0.0857 N   0  0  0  0  0  0  0  0  0  0  0  0
   -1.4165    0.3192    0.5392 N   0  0  0  0  0  0  0  0  0  0  0  0
   -2.2801   -0.1300   -0.3177 C   0  0  0  0  0  0  0  0  0  0  0  0
   -3.7068   -0.2775    0.0384 C   0  0  0  0  0  0  0  0  0  0  0  0
   -4.5902   -0.6869   -0.9669 C   0  0  0  0  0  0  0  0  0  0  0  0
   -5.9534   -0.8321   -0.6656 C   0  0  0  0  0  0  0  0  0  0  0  0
   -6.8851   -1.2631   -1.7161 N   0  0  0  0  0  4  0  0  0  0  0  0
   -8.0870   -1.3383   -1.4274 O   0  0  0  0  0  0  0  0  0  0  0  0
   -6.4087   -1.5276   -2.8290 O   0  0  0  0  0  1  0  0  0  0  0  0
   -6.4352   -0.5727    0.6244 C   0  0  0  0  0  0  0  0  0  0  0  0
   -5.5450   -0.1668    1.6200 C   0  0  0  0  0  0  0  0  0  0  0  0
   -4.1889   -0.0215    1.3291 C   0  0  0  0  0  0  0  0  0  0  0  0
   -3.3915    0.3706    2.3675 O   0  0  0  0  0  0  0  0  0  0  0  0
    3.3107   -0.8360    1.7581 H   0  0  0  0  0  0  0  0  0  0  0  0
    5.2236    1.2180    2.1643 H   0  0  0  0  0  0  0  0  0  0  0  0
    7.5246    1.7148    1.4182 H   0  0  0  0  0  0  0  0  0  0  0  0
    8.3428    0.8660   -0.7582 H   0  0  0  0  0  0  0  0  0  0  0  0
    4.5360   -1.0169   -1.4622 H   0  0  0  0  0  0  0  0  0  0  0  0
   -1.9865   -0.4371   -1.3384 H   0  0  0  0  0  0  0  0  0  0  0  0
   -4.2225   -0.8845   -1.9718 H   0  0  0  0  0  0  0  0  0  0  0  0
   -7.4900   -0.6815    0.8705 H   0  0  0  0  0  0  0  0  0  0  0  0
   -5.9058    0.0356    2.6265 H   0  0  0  0  0  0  0  0  0  0  0  0
   -2.4631    0.4114    2.0517 H   0  0  0  0  0  0  0  0  0  0  0  0
  1  2  2  0
  2  3  1  0
  3  4  2  3
  4  5  1  0
  5  6  2  0
  6  7  1  0
  7  8  2  0
  8  9  1  0
  9 10  1  0
  9 11  2  0
  3 12  1  0
 12 13  1  0
 13 14  2  0
 13 15  1  0
 15 16  1  0
 16 17  2  3
 17 18  1  0
 18 19  2  0
 19 20  1  0
 20 21  1  0
 21 22  2  0
 21 23  1  0
 20 24  2  0
 24 25  1  0
 25 26  2  0
 26 27  1  0
 15  2  1  0
 26 18  1  0
 11  5  1  0
  4 28  1  0
  6 29  1  0
  7 30  1  0
  8 31  1  0
 11 32  1  0
 17 33  1  0
 19 34  1  0
 24 35  1  0
 25 36  1  0
 27 37  1  0
M  CHG  2  21   1  23  -1
M  END
$$$$
