
     RDKit          3D

 34 35  0  0  0  0  0  0  0  0999 V2000
   -1.6485   -2.3846    2.2036 C   0  0  0  0  0  0  0  0  0  0  0  0
   -0.8401   -1.5133    1.3520 N   0  0  0  0  0  0  0  0  0  0  0  0
    0.3325   -0.9708    1.9142 C   0  0  0  0  0  0  0  0  0  0  0  0
    0.6884   -1.2748    3.0535 O   0  0  0  0  0  0  0  0  0  0  0  0
    1.1404   -0.0246    1.0279 C   0  0  0  0  0  0  0  0  0  0  0  0
    2.4994    0.7848    1.9170 S   0  0  0  0  0  0  0  0  0  0  0  0
    3.1988    1.7302    0.5891 C   0  0  0  0  0  0  0  0  0  0  0  0
    4.3512    2.3683    0.8517 N   0  0  0  0  0  0  0  0  0  0  0  0
    4.8837    3.0894   -0.1513 C   0  0  0  0  0  0  0  0  0  0  0  0
    4.3098    3.1964   -1.3942 C   0  0  0  0  0  0  0  0  0  0  0  0
    3.1317    2.5093   -1.5610 C   0  0  0  0  0  0  0  0  0  0  0  0
    2.5541    1.7728   -0.5923 N   0  0  0  0  0  0  0  0  0  0  0  0
   -1.3760   -1.1278    0.0325 C   0  0  0  0  0  0  0  0  0  0  0  0
   -2.3454    0.0631    0.1250 C   0  0  0  0  0  0  0  0  0  0  0  0
   -2.8598    0.2926   -1.2907 C   0  0  0  0  0  0  0  0  0  0  0  0
   -2.9856   -1.3340   -2.0195 S   0  0  0  0  0  6  0  0  0  0  0  0
   -2.1568   -1.3683   -3.2061 O   0  0  0  0  0  0  0  0  0  0  0  0
   -4.3755   -1.7377   -2.0302 O   0  0  0  0  0  0  0  0  0  0  0  0
   -2.1456   -2.2180   -0.7176 C   0  0  0  0  0  0  0  0  0  0  0  0
   -1.2287   -2.5059    3.2051 H   0  0  0  0  0  0  0  0  0  0  0  0
   -1.7065   -3.3739    1.7410 H   0  0  0  0  0  0  0  0  0  0  0  0
   -2.6514   -1.9601    2.3031 H   0  0  0  0  0  0  0  0  0  0  0  0
    0.4759    0.7575    0.6522 H   0  0  0  0  0  0  0  0  0  0  0  0
    1.5533   -0.6100    0.2002 H   0  0  0  0  0  0  0  0  0  0  0  0
    5.8166    3.5930    0.0850 H   0  0  0  0  0  0  0  0  0  0  0  0
    4.7554    3.7814   -2.1863 H   0  0  0  0  0  0  0  0  0  0  0  0
    2.6007    2.5311   -2.5083 H   0  0  0  0  0  0  0  0  0  0  0  0
   -0.5364   -0.8298   -0.6054 H   0  0  0  0  0  0  0  0  0  0  0  0
   -1.8689    0.9640    0.5235 H   0  0  0  0  0  0  0  0  0  0  0  0
   -3.1840   -0.1793    0.7892 H   0  0  0  0  0  0  0  0  0  0  0  0
   -3.8353    0.7827   -1.3059 H   0  0  0  0  0  0  0  0  0  0  0  0
   -2.1412    0.8691   -1.8806 H   0  0  0  0  0  0  0  0  0  0  0  0
   -2.9171   -2.6941   -0.1066 H   0  0  0  0  0  0  0  0  0  0  0  0
   -1.4893   -2.9787   -1.1456 H   0  0  0  0  0  0  0  0  0  0  0  0
  1  2  1  0
  2  3  1  0
  3  4  2  0
  3  5  1  0
  5  6  1  0
  6  7  1  0
  7  8  2  0
  8  9  1  0
  9 10  2  0
 10 11  1  0
 11 12  2  0
  2 13  1  0
 13 14  1  0
 14 15  1  0
 15 16  1  0
 16 17  2  0
 16 18  2  0
 16 19  1  0
 12  7  1  0
 19 13  1  0
  1 20  1  0
  1 21  1  0
  1 22  1  0
  5 23  1  0
  5 24  1  0
  9 25  1  0
 10 26  1  0
 11 27  1  0
 13 28  1  0
 14 29  1  0
 14 30  1  0
 15 31  1  0
 15 32  1  0
 19 33  1  0
 19 34  1  0
M  END
$$$$
