
     RDKit          3D

 47 50  0  0  0  0  0  0  0  0999 V2000
    3.8246    1.0504   -0.7046 C   0  0  0  0  0  0  0  0  0  0  0  0
    2.9845    0.2905    0.1928 N   0  0  0  0  0  0  0  0  0  0  0  0
    3.3407   -0.1989    1.4361 C   0  0  0  0  0  0  0  0  0  0  0  0
    4.6534   -0.0908    2.0581 C   0  0  0  0  0  0  0  0  0  0  0  0
    4.8078    0.6186    3.2547 C   0  0  0  0  0  0  0  0  0  0  0  0
    6.0637    0.7214    3.8570 C   0  0  0  0  0  0  0  0  0  0  0  0
    7.1712    0.1106    3.2706 C   0  0  0  0  0  0  0  0  0  0  0  0
    7.0246   -0.6066    2.0842 C   0  0  0  0  0  0  0  0  0  0  0  0
    5.7695   -0.7091    1.4805 C   0  0  0  0  0  0  0  0  0  0  0  0
    2.1783   -0.7750    1.9166 C   0  0  0  0  0  0  0  0  0  0  0  0
    1.1593   -0.6910    1.0061 N   0  0  0  0  0  0  0  0  0  0  0  0
    1.6739   -0.0581   -0.0218 C   0  0  0  0  0  0  0  0  0  0  0  0
    0.8288    0.3034   -1.4901 S   0  0  0  0  0  0  0  0  0  0  0  0
   -0.7331   -0.5862   -1.1821 C   0  0  0  0  0  0  0  0  0  0  0  0
   -1.6397   -0.5055   -2.4065 C   0  0  0  0  0  0  0  0  0  0  0  0
   -1.1815   -0.6599   -3.5451 O   0  0  0  0  0  0  0  0  0  0  0  0
   -2.9835   -0.1682   -2.2111 N   0  0  0  0  0  0  0  0  0  0  0  0
   -3.6740    0.4620   -3.3374 C   0  0  0  0  0  0  0  0  0  0  0  0
   -4.4716    1.6637   -2.8639 C   0  0  0  0  0  0  0  0  0  0  0  0
   -5.5377    1.2094   -1.8823 C   0  0  0  0  0  0  0  0  0  0  0  0
   -5.0190    0.2021   -0.8856 C   0  0  0  0  0  0  0  0  0  0  0  0
   -5.8291   -0.0941    0.2258 C   0  0  0  0  0  0  0  0  0  0  0  0
   -5.4439   -1.0619    1.1477 C   0  0  0  0  0  0  0  0  0  0  0  0
   -4.2605   -1.7618    0.9521 C   0  0  0  0  0  0  0  0  0  0  0  0
   -3.4517   -1.4805   -0.1536 C   0  0  0  0  0  0  0  0  0  0  0  0
   -3.7936   -0.4754   -1.0697 C   0  0  0  0  0  0  0  0  0  0  0  0
    3.2589    1.8997   -1.0963 H   0  0  0  0  0  0  0  0  0  0  0  0
    4.6935    1.4407   -0.1712 H   0  0  0  0  0  0  0  0  0  0  0  0
    4.1461    0.3903   -1.5142 H   0  0  0  0  0  0  0  0  0  0  0  0
    3.9520    1.1005    3.7222 H   0  0  0  0  0  0  0  0  0  0  0  0
    6.1764    1.2768    4.7846 H   0  0  0  0  0  0  0  0  0  0  0  0
    8.1481    0.1882    3.7416 H   0  0  0  0  0  0  0  0  0  0  0  0
    7.8861   -1.0911    1.6319 H   0  0  0  0  0  0  0  0  0  0  0  0
    5.6664   -1.2851    0.5637 H   0  0  0  0  0  0  0  0  0  0  0  0
    2.0355   -1.2629    2.8727 H   0  0  0  0  0  0  0  0  0  0  0  0
   -0.5194   -1.6401   -0.9811 H   0  0  0  0  0  0  0  0  0  0  0  0
   -1.1989   -0.1143   -0.3146 H   0  0  0  0  0  0  0  0  0  0  0  0
   -2.9540    0.7968   -4.0921 H   0  0  0  0  0  0  0  0  0  0  0  0
   -4.3165   -0.2912   -3.8103 H   0  0  0  0  0  0  0  0  0  0  0  0
   -3.8000    2.3813   -2.3756 H   0  0  0  0  0  0  0  0  0  0  0  0
   -4.9373    2.1782   -3.7115 H   0  0  0  0  0  0  0  0  0  0  0  0
   -5.9399    2.0855   -1.3599 H   0  0  0  0  0  0  0  0  0  0  0  0
   -6.3633    0.7438   -2.4353 H   0  0  0  0  0  0  0  0  0  0  0  0
   -6.7732    0.4280    0.3694 H   0  0  0  0  0  0  0  0  0  0  0  0
   -6.0760   -1.2845    2.0033 H   0  0  0  0  0  0  0  0  0  0  0  0
   -3.9686   -2.5423    1.6507 H   0  0  0  0  0  0  0  0  0  0  0  0
   -2.5774   -2.1074   -0.2898 H   0  0  0  0  0  0  0  0  0  0  0  0
  1  2  1  0
  2  3  1  0
  3  4  1  0
  4  5  2  0
  5  6  1  0
  6  7  2  0
  7  8  1  0
  8  9  2  0
  3 10  2  0
 10 11  1  0
 11 12  2  0
 12 13  1  0
 13 14  1  0
 14 15  1  0
 15 16  2  0
 15 17  1  0
 17 18  1  0
 18 19  1  0
 19 20  1  0
 20 21  1  0
 21 22  2  0
 22 23  1  0
 23 24  2  0
 24 25  1  0
 25 26  2  0
 12  2  1  0
 26 17  1  0
  9  4  1  0
 26 21  1  0
  1 27  1  0
  1 28  1  0
  1 29  1  0
  5 30  1  0
  6 31  1  0
  7 32  1  0
  8 33  1  0
  9 34  1  0
 10 35  1  0
 14 36  1  0
 14 37  1  0
 18 38  1  0
 18 39  1  0
 19 40  1  0
 19 41  1  0
 20 42  1  0
 20 43  1  0
 22 44  1  0
 23 45  1  0
 24 46  1  0
 25 47  1  0
M  END
$$$$
