
     RDKit          3D

 36 37  0  0  0  0  0  0  0  0999 V2000
    0.7993    2.4546    0.5798 C   0  0  0  0  0  0  0  0  0  0  0  0
    1.0598    0.9800    0.2652 C   0  0  0  0  0  0  0  0  0  0  0  0
   -0.0588    0.4704   -0.5353 N   0  0  0  0  0  0  0  0  0  0  0  0
   -1.0495   -0.1715   -0.0025 C   0  0  0  0  0  0  0  0  0  0  0  0
   -1.1593   -0.4629    1.4934 C   0  0  0  0  0  0  0  0  0  0  0  0
   -2.4696   -1.0100    2.0534 C   0  0  0  0  0  0  0  0  0  0  0  0
   -2.9565   -2.2639    1.3371 C   0  0  0  0  0  0  0  0  0  0  0  0
   -3.7688   -1.9742    0.0745 C   0  0  0  0  0  0  0  0  0  0  0  0
   -3.3995   -0.6894   -0.6537 C   0  0  0  0  0  0  0  0  0  0  0  0
   -1.9810   -0.6173   -0.9045 N   0  0  0  0  0  0  0  0  0  0  0  0
    2.3842    0.8378   -0.4722 C   0  0  0  0  0  0  0  0  0  0  0  0
    2.4754    1.0517   -1.8566 C   0  0  0  0  0  0  0  0  0  0  0  0
    3.7007    0.9402   -2.5166 C   0  0  0  0  0  0  0  0  0  0  0  0
    4.8517    0.6156   -1.8021 C   0  0  0  0  0  0  0  0  0  0  0  0
    4.7792    0.4046   -0.4266 C   0  0  0  0  0  0  0  0  0  0  0  0
    3.5543    0.5165    0.2357 C   0  0  0  0  0  0  0  0  0  0  0  0
    0.7171    3.0538   -0.3347 H   0  0  0  0  0  0  0  0  0  0  0  0
    1.6079    2.8784    1.1853 H   0  0  0  0  0  0  0  0  0  0  0  0
   -0.1370    2.5781    1.1346 H   0  0  0  0  0  0  0  0  0  0  0  0
    1.1589    0.4284    1.2060 H   0  0  0  0  0  0  0  0  0  0  0  0
   -0.3596   -1.1768    1.7309 H   0  0  0  0  0  0  0  0  0  0  0  0
   -0.9356    0.4617    2.0376 H   0  0  0  0  0  0  0  0  0  0  0  0
   -3.2449   -0.2348    2.0588 H   0  0  0  0  0  0  0  0  0  0  0  0
   -2.2931   -1.2630    3.1066 H   0  0  0  0  0  0  0  0  0  0  0  0
   -3.5846   -2.8508    2.0185 H   0  0  0  0  0  0  0  0  0  0  0  0
   -2.1013   -2.9048    1.0882 H   0  0  0  0  0  0  0  0  0  0  0  0
   -3.6702   -2.8303   -0.6059 H   0  0  0  0  0  0  0  0  0  0  0  0
   -4.8325   -1.9194    0.3393 H   0  0  0  0  0  0  0  0  0  0  0  0
   -3.9295   -0.6721   -1.6131 H   0  0  0  0  0  0  0  0  0  0  0  0
   -3.7384    0.1969   -0.1077 H   0  0  0  0  0  0  0  0  0  0  0  0
   -1.7514   -0.2576   -1.8286 H   0  0  0  0  0  0  0  0  0  0  0  0
    1.5811    1.2987   -2.4257 H   0  0  0  0  0  0  0  0  0  0  0  0
    3.7531    1.1037   -3.5895 H   0  0  0  0  0  0  0  0  0  0  0  0
    5.8044    0.5265   -2.3167 H   0  0  0  0  0  0  0  0  0  0  0  0
    5.6768    0.1529    0.1325 H   0  0  0  0  0  0  0  0  0  0  0  0
    3.5171    0.3484    1.3097 H   0  0  0  0  0  0  0  0  0  0  0  0
  1  2  1  0
  2  3  1  0
  3  4  2  3
  4  5  1  0
  5  6  1  0
  6  7  1  0
  7  8  1  0
  8  9  1  0
  9 10  1  0
  2 11  1  0
 11 12  2  0
 12 13  1  0
 13 14  2  0
 14 15  1  0
 15 16  2  0
 10  4  1  0
 16 11  1  0
  1 17  1  0
  1 18  1  0
  1 19  1  0
  2 20  1  0
  5 21  1  0
  5 22  1  0
  6 23  1  0
  6 24  1  0
  7 25  1  0
  7 26  1  0
  8 27  1  0
  8 28  1  0
  9 29  1  0
  9 30  1  0
 10 31  1  0
 12 32  1  0
 13 33  1  0
 14 34  1  0
 15 35  1  0
 16 36  1  0
M  END
$$$$
