
     RDKit          3D

 51 55  0  0  0  0  0  0  0  0999 V2000
    3.0325   -2.8413    0.3371 C   0  0  0  0  0  0  0  0  0  0  0  0
    3.0119   -1.6709    1.3086 C   0  0  0  0  0  0  0  0  0  0  0  0
    2.6072   -0.4446    0.6311 N   0  0  0  0  0  0  0  0  0  0  0  0
    1.3054    0.0596    0.5477 C   0  0  0  0  0  0  0  0  0  0  0  0
    0.1781   -0.5879    0.9039 C   0  0  0  0  0  0  0  0  0  0  0  0
   -1.1851   -0.0454    0.8154 C   0  0  0  0  0  0  0  0  0  0  0  0
   -1.6553    0.6944    1.9003 C   0  0  0  0  0  0  0  0  0  0  0  0
   -2.9330    1.2189    1.8789 C   0  0  0  0  0  0  0  0  0  0  0  0
   -3.7464    0.9901    0.7763 C   0  0  0  0  0  0  0  0  0  0  0  0
   -5.0489    1.5139    0.7590 C   0  0  0  0  0  0  0  0  0  0  0  0
   -5.8977    1.3023   -0.3304 C   0  0  0  0  0  0  0  0  0  0  0  0
   -7.2996    1.8418   -0.3204 C   0  0  0  0  0  0  0  0  0  0  0  0
   -5.4426    0.5319   -1.3981 C   0  0  0  0  0  0  0  0  0  0  0  0
   -4.1450    0.0055   -1.3947 C   0  0  0  0  0  0  0  0  0  0  0  0
   -3.2609    0.2263   -0.3205 C   0  0  0  0  0  0  0  0  0  0  0  0
   -1.9751   -0.2672   -0.2788 N   0  0  0  0  0  4  0  0  0  0  0  0
   -1.4186   -1.0245   -1.4409 C   0  0  0  0  0  0  0  0  0  0  0  0
   -1.7541   -2.4978   -1.3020 C   0  0  0  0  0  0  0  0  0  0  0  0
    1.2015    1.6898   -0.1488 S   0  0  0  0  0  0  0  0  0  0  0  0
    2.9791    1.6734   -0.3641 C   0  0  0  0  0  0  0  0  0  0  0  0
    3.6819    2.7283   -0.9115 C   0  0  0  0  0  0  0  0  0  0  0  0
    5.0575    2.6105   -1.0441 C   0  0  0  0  0  0  0  0  0  0  0  0
    5.6952    1.4181   -0.6362 C   0  0  0  0  0  0  0  0  0  0  0  0
    7.3910    1.1212   -0.7560 S   0  0  0  0  0  0  0  0  0  0  0  0
    7.2352   -0.4420   -0.1192 C   0  0  0  0  0  0  0  0  0  0  0  0
    5.9289   -0.7409    0.1895 C   0  0  0  0  0  0  0  0  0  0  0  0
    4.9978    0.3297   -0.0806 C   0  0  0  0  0  0  0  0  0  0  0  0
    3.5837    0.4597    0.0859 C   0  0  0  0  0  0  0  0  0  0  0  0
    3.3634   -3.7512    0.8473 H   0  0  0  0  0  0  0  0  0  0  0  0
    3.7041   -2.6577   -0.5068 H   0  0  0  0  0  0  0  0  0  0  0  0
    2.0343   -3.0280   -0.0733 H   0  0  0  0  0  0  0  0  0  0  0  0
    3.9687   -1.5544    1.8236 H   0  0  0  0  0  0  0  0  0  0  0  0
    2.3090   -1.9036    2.1181 H   0  0  0  0  0  0  0  0  0  0  0  0
    0.2257   -1.5932    1.3103 H   0  0  0  0  0  0  0  0  0  0  0  0
   -1.0196    0.8749    2.7666 H   0  0  0  0  0  0  0  0  0  0  0  0
   -3.2845    1.8025    2.7294 H   0  0  0  0  0  0  0  0  0  0  0  0
   -5.4165    2.0977    1.6043 H   0  0  0  0  0  0  0  0  0  0  0  0
   -7.6503    2.0374   -1.3392 H   0  0  0  0  0  0  0  0  0  0  0  0
   -7.9736    1.1219    0.1539 H   0  0  0  0  0  0  0  0  0  0  0  0
   -7.3487    2.7889    0.2271 H   0  0  0  0  0  0  0  0  0  0  0  0
   -6.0991    0.3345   -2.2459 H   0  0  0  0  0  0  0  0  0  0  0  0
   -3.8758   -0.5883   -2.2624 H   0  0  0  0  0  0  0  0  0  0  0  0
   -0.3381   -0.8787   -1.5002 H   0  0  0  0  0  0  0  0  0  0  0  0
   -1.8075   -0.5954   -2.3680 H   0  0  0  0  0  0  0  0  0  0  0  0
   -1.3260   -2.9170   -0.3862 H   0  0  0  0  0  0  0  0  0  0  0  0
   -1.3528   -3.0582   -2.1518 H   0  0  0  0  0  0  0  0  0  0  0  0
   -2.8348   -2.6637   -1.2655 H   0  0  0  0  0  0  0  0  0  0  0  0
    3.1803    3.6366   -1.2313 H   0  0  0  0  0  0  0  0  0  0  0  0
    5.6389    3.4266   -1.4677 H   0  0  0  0  0  0  0  0  0  0  0  0
    8.1048   -1.0750   -0.0023 H   0  0  0  0  0  0  0  0  0  0  0  0
    5.6737   -1.7095    0.5916 H   0  0  0  0  0  0  0  0  0  0  0  0
  1  2  1  0
  2  3  1  0
  3  4  1  0
  4  5  2  3
  5  6  1  0
  6  7  2  0
  7  8  1  0
  8  9  2  0
  9 10  1  0
 10 11  2  0
 11 12  1  0
 11 13  1  0
 13 14  2  0
 14 15  1  0
 15 16  2  0
 16 17  1  0
 17 18  1  0
  4 19  1  0
 19 20  1  0
 20 21  2  0
 21 22  1  0
 22 23  2  0
 23 24  1  0
 24 25  1  0
 25 26  2  0
 26 27  1  0
 27 28  2  0
 28  3  1  0
 16  6  1  0
 28 20  1  0
 15  9  1  0
 27 23  1  0
  1 29  1  0
  1 30  1  0
  1 31  1  0
  2 32  1  0
  2 33  1  0
  5 34  1  0
  7 35  1  0
  8 36  1  0
 10 37  1  0
 12 38  1  0
 12 39  1  0
 12 40  1  0
 13 41  1  0
 14 42  1  0
 17 43  1  0
 17 44  1  0
 18 45  1  0
 18 46  1  0
 18 47  1  0
 21 48  1  0
 22 49  1  0
 25 50  1  0
 26 51  1  0
M  CHG  1  16   1
M  END
$$$$
