
     RDKit          3D

 42 45  0  0  0  0  0  0  0  0999 V2000
   -3.5980    1.2406    2.1170 O   0  0  0  0  0  0  0  0  0  0  0  0
   -3.8602    0.8140    0.9891 C   0  0  0  0  0  0  0  0  0  0  0  0
   -2.7654    0.5267    0.0464 C   0  0  0  0  0  0  0  0  0  0  0  0
   -1.3789    0.5443    0.3666 C   0  0  0  0  0  0  0  0  0  0  0  0
   -0.7344    0.2375   -0.8057 C   0  0  0  0  0  0  0  0  0  0  0  0
    0.6793    0.0851   -1.2206 C   0  0  0  0  0  0  0  0  0  0  0  0
    1.4570   -0.0589   -0.0326 O   0  0  0  0  0  0  0  0  0  0  0  0
    2.8068   -0.2086   -0.1873 C   0  0  0  0  0  0  0  0  0  0  0  0
    3.5165   -0.3473    1.0085 C   0  0  0  0  0  0  0  0  0  0  0  0
    4.9063   -0.5089    1.0081 C   0  0  0  0  0  0  0  0  0  0  0  0
    5.6016   -0.5326   -0.2058 C   0  0  0  0  0  0  0  0  0  0  0  0
    7.0106   -0.6946   -0.2441 N   0  0  0  0  0  0  0  0  0  0  0  0
    7.8938   -0.8484    0.7980 C   0  0  0  0  0  0  0  0  0  0  0  0
    9.1228   -0.9691    0.3494 N   0  0  0  0  0  0  0  0  0  0  0  0
    8.9559   -0.8833   -0.9985 C   0  0  0  0  0  0  0  0  0  0  0  0
    7.7001   -0.7169   -1.4136 N   0  0  0  0  0  0  0  0  0  0  0  0
    4.8906   -0.3934   -1.4070 C   0  0  0  0  0  0  0  0  0  0  0  0
    3.4996   -0.2323   -1.3966 C   0  0  0  0  0  0  0  0  0  0  0  0
   -1.6640    0.0582   -1.7801 O   0  0  0  0  0  0  0  0  0  0  0  0
   -2.9273    0.2428   -1.2576 N   0  0  0  0  0  0  0  0  0  0  0  0
   -5.1813    0.6055    0.6131 N   0  0  0  0  0  0  0  0  0  0  0  0
   -5.6897   -0.0080   -0.6065 C   0  0  0  0  0  0  0  0  0  0  0  0
   -7.1660   -0.2589   -0.3212 C   0  0  0  0  0  0  0  0  0  0  0  0
   -7.5190    0.8490    0.6609 C   0  0  0  0  0  0  0  0  0  0  0  0
   -6.2653    0.9484    1.5158 C   0  0  0  0  0  0  0  0  0  0  0  0
   -0.9293    0.7531    1.3268 H   0  0  0  0  0  0  0  0  0  0  0  0
    0.7806   -0.8071   -1.8498 H   0  0  0  0  0  0  0  0  0  0  0  0
    0.9871    0.9799   -1.7740 H   0  0  0  0  0  0  0  0  0  0  0  0
    2.9791   -0.3290    1.9548 H   0  0  0  0  0  0  0  0  0  0  0  0
    5.4019   -0.6112    1.9686 H   0  0  0  0  0  0  0  0  0  0  0  0
    7.6015   -0.8655    1.8369 H   0  0  0  0  0  0  0  0  0  0  0  0
    9.7766   -0.9437   -1.7025 H   0  0  0  0  0  0  0  0  0  0  0  0
    5.4065   -0.4077   -2.3666 H   0  0  0  0  0  0  0  0  0  0  0  0
    2.9975   -0.1284   -2.3531 H   0  0  0  0  0  0  0  0  0  0  0  0
   -5.1615   -0.9379   -0.8335 H   0  0  0  0  0  0  0  0  0  0  0  0
   -5.5668    0.7071   -1.4267 H   0  0  0  0  0  0  0  0  0  0  0  0
   -7.2934   -1.2355    0.1619 H   0  0  0  0  0  0  0  0  0  0  0  0
   -7.7788   -0.2421   -1.2266 H   0  0  0  0  0  0  0  0  0  0  0  0
   -7.6806    1.7880    0.1178 H   0  0  0  0  0  0  0  0  0  0  0  0
   -8.4150    0.6322    1.2487 H   0  0  0  0  0  0  0  0  0  0  0  0
   -6.2749    0.2113    2.3267 H   0  0  0  0  0  0  0  0  0  0  0  0
   -6.1221    1.9454    1.9434 H   0  0  0  0  0  0  0  0  0  0  0  0
  1  2  2  0
  2  3  1  0
  3  4  1  0
  4  5  2  0
  5  6  1  0
  6  7  1  0
  7  8  1  0
  8  9  2  0
  9 10  1  0
 10 11  2  0
 11 12  1  0
 12 13  1  0
 13 14  2  0
 14 15  1  0
 15 16  2  0
 11 17  1  0
 17 18  2  0
  5 19  1  0
 19 20  1  0
  2 21  1  0
 21 22  1  0
 22 23  1  0
 23 24  1  0
 24 25  1  0
 20  3  2  0
 25 21  1  0
 18  8  1  0
 16 12  1  0
  4 26  1  0
  6 27  1  0
  6 28  1  0
  9 29  1  0
 10 30  1  0
 13 31  1  0
 15 32  1  0
 17 33  1  0
 18 34  1  0
 22 35  1  0
 22 36  1  0
 23 37  1  0
 23 38  1  0
 24 39  1  0
 24 40  1  0
 25 41  1  0
 25 42  1  0
M  END
$$$$
