
     RDKit          3D

 29 31  0  0  0  0  0  0  0  0999 V2000
   -3.7795    2.2030    1.1298 C   0  0  0  0  0  0  0  0  0  0  0  0
   -4.0970    0.8431    0.8587 O   0  0  0  0  0  0  0  0  0  0  0  0
   -3.0636    0.0262    0.4837 C   0  0  0  0  0  0  0  0  0  0  0  0
   -3.4494   -1.3027    0.2118 C   0  0  0  0  0  0  0  0  0  0  0  0
   -2.5168   -2.2644   -0.1835 C   0  0  0  0  0  0  0  0  0  0  0  0
   -1.2050   -1.8580   -0.2947 C   0  0  0  0  0  0  0  0  0  0  0  0
   -0.7984   -0.5482   -0.0309 C   0  0  0  0  0  0  0  0  0  0  0  0
   -1.7225    0.4096    0.3622 C   0  0  0  0  0  0  0  0  0  0  0  0
    0.6581   -0.5157   -0.2575 C   0  0  0  0  0  0  0  0  0  0  0  0
    1.4145    0.5831   -0.1138 C   0  0  0  0  0  0  0  0  0  0  0  0
    2.8104    0.7749   -0.2790 C   0  0  0  0  0  0  0  0  0  0  0  0
    3.8573   -0.1003   -0.1353 C   0  0  0  0  0  0  0  0  0  0  0  0
    4.9782    0.6414   -0.3923 N   0  0  0  0  0  0  0  0  0  0  0  0
    4.5758    1.9242   -0.6319 C   0  0  0  0  0  0  0  0  0  0  0  0
    3.2695    2.0398   -0.5535 N   0  0  0  0  0  0  0  0  0  0  0  0
    1.0572   -1.9061   -0.6902 C   0  0  0  0  0  0  0  0  0  0  0  0
    2.1482   -2.3356   -1.0072 O   0  0  0  0  0  0  0  0  0  0  0  0
   -0.1206   -2.6395   -0.6718 N   0  0  0  0  0  0  0  0  0  0  0  0
   -3.3757    2.6989    0.2410 H   0  0  0  0  0  0  0  0  0  0  0  0
   -4.7073    2.7144    1.4039 H   0  0  0  0  0  0  0  0  0  0  0  0
   -3.0909    2.2855    1.9771 H   0  0  0  0  0  0  0  0  0  0  0  0
   -4.4967   -1.5817    0.3118 H   0  0  0  0  0  0  0  0  0  0  0  0
   -2.8223   -3.2829   -0.3916 H   0  0  0  0  0  0  0  0  0  0  0  0
   -1.3964    1.4216    0.5650 H   0  0  0  0  0  0  0  0  0  0  0  0
    0.9048    1.5063    0.1509 H   0  0  0  0  0  0  0  0  0  0  0  0
    3.9189   -1.1499    0.1122 H   0  0  0  0  0  0  0  0  0  0  0  0
    5.9310    0.3051   -0.3940 H   0  0  0  0  0  0  0  0  0  0  0  0
    5.2724    2.7217   -0.8525 H   0  0  0  0  0  0  0  0  0  0  0  0
   -0.1544   -3.6138   -0.9285 H   0  0  0  0  0  0  0  0  0  0  0  0
  1  2  1  0
  2  3  1  0
  3  4  2  0
  4  5  1  0
  5  6  2  0
  6  7  1  0
  7  8  2  0
  7  9  1  0
  9 10  2  3
 10 11  1  0
 11 12  2  0
 12 13  1  0
 13 14  1  0
 14 15  2  0
  9 16  1  0
 16 17  2  0
 16 18  1  0
  8  3  1  0
 15 11  1  0
 18  6  1  0
  1 19  1  0
  1 20  1  0
  1 21  1  0
  4 22  1  0
  5 23  1  0
  8 24  1  0
 10 25  1  0
 12 26  1  0
 13 27  1  0
 14 28  1  0
 18 29  1  0
M  END
$$$$
