
     RDKit          3D

 61 65  0  0  0  0  0  0  0  0999 V2000
    5.9329    4.5144    0.8436 C   0  0  0  0  0  0  0  0  0  0  0  0
    4.5945    4.3454    0.3935 O   0  0  0  0  0  0  0  0  0  0  0  0
    4.0412    3.1054    0.5568 C   0  0  0  0  0  0  0  0  0  0  0  0
    4.6747    1.9878    1.0964 C   0  0  0  0  0  0  0  0  0  0  0  0
    3.9868    0.7734    1.2053 C   0  0  0  0  0  0  0  0  0  0  0  0
    2.6556    0.6564    0.7796 C   0  0  0  0  0  0  0  0  0  0  0  0
    1.9269   -0.6723    0.8843 C   0  0  0  0  0  0  0  0  0  0  0  0
    1.9022   -1.3868   -0.3870 N   0  0  0  0  0  0  0  0  0  0  0  0
    3.1046   -2.0178   -0.7401 C   0  0  0  0  0  0  0  0  0  0  0  0
    3.9943   -2.2757    0.0775 O   0  0  0  0  0  0  0  0  0  0  0  0
    3.3481   -2.2648   -2.2334 C   0  0  0  0  0  0  0  0  0  0  0  0
    4.0660   -1.0644   -2.8451 C   0  0  0  0  0  0  0  0  0  0  0  0
    2.1248   -2.5587   -2.9592 N   0  0  0  0  0  0  0  0  0  0  0  0
    1.0333   -1.7573   -2.6476 C   0  0  0  0  0  0  0  0  0  0  0  0
    0.1815   -1.5838   -3.6685 N   0  0  0  0  0  0  0  0  0  0  0  0
   -0.9288   -0.9078   -3.3877 C   0  0  0  0  0  0  0  0  0  0  0  0
   -1.2822   -0.4550   -2.1835 N   0  0  0  0  0  0  0  0  0  0  0  0
   -0.4296   -0.6645   -1.1562 C   0  0  0  0  0  0  0  0  0  0  0  0
   -0.9354   -0.3901    0.1306 N   0  0  0  0  0  0  0  0  0  0  0  0
   -1.4168   -1.6449    0.7881 C   0  0  0  0  0  0  0  0  0  0  0  0
   -2.9566   -1.7131    0.9013 C   0  0  0  0  0  0  0  0  0  0  0  0
   -3.5011   -0.5509    1.6557 N   0  0  0  0  0  0  0  0  0  0  0  0
   -4.8990   -0.4779    1.5520 C   0  0  0  0  0  0  0  0  0  0  0  0
   -5.6775   -1.4232    2.2394 C   0  0  0  0  0  0  0  0  0  0  0  0
   -7.0732   -1.4135    2.1669 C   0  0  0  0  0  0  0  0  0  0  0  0
   -7.7207   -0.4551    1.3951 C   0  0  0  0  0  0  0  0  0  0  0  0
   -6.9711    0.4885    0.6994 C   0  0  0  0  0  0  0  0  0  0  0  0
   -5.5736    0.4755    0.7781 C   0  0  0  0  0  0  0  0  0  0  0  0
   -2.7079    0.6939    1.5110 C   0  0  0  0  0  0  0  0  0  0  0  0
   -1.9278    0.7184    0.1797 C   0  0  0  0  0  0  0  0  0  0  0  0
    0.8349   -1.2513   -1.3553 C   0  0  0  0  0  0  0  0  0  0  0  0
    2.0305    1.7824    0.2336 C   0  0  0  0  0  0  0  0  0  0  0  0
    2.7184    2.9939    0.1254 C   0  0  0  0  0  0  0  0  0  0  0  0
    6.6218    3.8741    0.2828 H   0  0  0  0  0  0  0  0  0  0  0  0
    6.2195    5.5540    0.6578 H   0  0  0  0  0  0  0  0  0  0  0  0
    6.0133    4.3349    1.9209 H   0  0  0  0  0  0  0  0  0  0  0  0
    5.7032    2.0209    1.4391 H   0  0  0  0  0  0  0  0  0  0  0  0
    4.5055   -0.0905    1.6192 H   0  0  0  0  0  0  0  0  0  0  0  0
    0.9515   -0.5157    1.3319 H   0  0  0  0  0  0  0  0  0  0  0  0
    2.4458   -1.2995    1.6219 H   0  0  0  0  0  0  0  0  0  0  0  0
    3.9943   -3.1468   -2.3129 H   0  0  0  0  0  0  0  0  0  0  0  0
    3.4725   -0.1467   -2.7629 H   0  0  0  0  0  0  0  0  0  0  0  0
    5.0178   -0.8821   -2.3345 H   0  0  0  0  0  0  0  0  0  0  0  0
    4.2748   -1.2332   -3.9068 H   0  0  0  0  0  0  0  0  0  0  0  0
    2.1915   -2.6691   -3.9656 H   0  0  0  0  0  0  0  0  0  0  0  0
   -1.6189   -0.7280   -4.2040 H   0  0  0  0  0  0  0  0  0  0  0  0
   -1.0532   -2.5478    0.2808 H   0  0  0  0  0  0  0  0  0  0  0  0
   -0.9949   -1.6677    1.8006 H   0  0  0  0  0  0  0  0  0  0  0  0
   -3.3857   -1.7463   -0.1094 H   0  0  0  0  0  0  0  0  0  0  0  0
   -3.2256   -2.6449    1.4131 H   0  0  0  0  0  0  0  0  0  0  0  0
   -5.1886   -2.1692    2.8612 H   0  0  0  0  0  0  0  0  0  0  0  0
   -7.6489   -2.1519    2.7176 H   0  0  0  0  0  0  0  0  0  0  0  0
   -8.8055   -0.4437    1.3351 H   0  0  0  0  0  0  0  0  0  0  0  0
   -7.4710    1.2354    0.0888 H   0  0  0  0  0  0  0  0  0  0  0  0
   -5.0274    1.2127    0.1989 H   0  0  0  0  0  0  0  0  0  0  0  0
   -3.3195    1.5968    1.6172 H   0  0  0  0  0  0  0  0  0  0  0  0
   -1.9917    0.7222    2.3424 H   0  0  0  0  0  0  0  0  0  0  0  0
   -1.3959    1.6722    0.0922 H   0  0  0  0  0  0  0  0  0  0  0  0
   -2.6568    0.6650   -0.6380 H   0  0  0  0  0  0  0  0  0  0  0  0
    1.0040    1.7288   -0.1154 H   0  0  0  0  0  0  0  0  0  0  0  0
    2.2179    3.8597   -0.3012 H   0  0  0  0  0  0  0  0  0  0  0  0
  1  2  1  0
  2  3  1  0
  3  4  2  0
  4  5  1  0
  5  6  2  0
  6  7  1  0
  7  8  1  0
  8  9  1  0
  9 10  2  0
  9 11  1  0
 11 12  1  0
 11 13  1  0
 13 14  1  0
 14 15  2  0
 15 16  1  0
 16 17  2  0
 17 18  1  0
 18 19  1  0
 19 20  1  0
 20 21  1  0
 21 22  1  0
 22 23  1  0
 23 24  2  0
 24 25  1  0
 25 26  2  0
 26 27  1  0
 27 28  2  0
 22 29  1  0
 29 30  1  0
 18 31  2  0
  6 32  1  0
 32 33  2  0
 33  3  1  0
 31  8  1  0
 31 14  1  0
 30 19  1  0
 28 23  1  0
  1 34  1  0
  1 35  1  0
  1 36  1  0
  4 37  1  0
  5 38  1  0
  7 39  1  0
  7 40  1  0
 11 41  1  0
 12 42  1  0
 12 43  1  0
 12 44  1  0
 13 45  1  0
 16 46  1  0
 20 47  1  0
 20 48  1  0
 21 49  1  0
 21 50  1  0
 24 51  1  0
 25 52  1  0
 26 53  1  0
 27 54  1  0
 28 55  1  0
 29 56  1  0
 29 57  1  0
 30 58  1  0
 30 59  1  0
 32 60  1  0
 33 61  1  0
M  END
$$$$
