
     RDKit          3D

 57 59  0  0  0  0  0  0  0  0999 V2000
   -4.8925   -1.2101   -1.8510 C   0  0  0  0  0  0  0  0  0  0  0  0
   -3.4663   -0.8415   -1.4705 C   0  0  0  0  0  0  0  0  0  0  0  0
   -3.4205    0.0221   -0.2840 N   0  0  0  0  0  0  0  0  0  0  0  0
   -3.3896   -0.4738    1.0241 C   0  0  0  0  0  0  0  0  0  0  0  0
   -3.6985    0.2401    1.9833 O   0  0  0  0  0  0  0  0  0  0  0  0
   -2.9886   -1.9399    1.2454 C   0  0  0  0  0  0  0  0  0  0  0  0
   -1.7328   -2.3197    0.6835 O   0  0  0  0  0  0  0  0  0  0  0  0
   -0.6588   -1.7583    1.2798 C   0  0  0  0  0  0  0  0  0  0  0  0
   -0.6505   -0.9533    2.1927 O   0  0  0  0  0  0  0  0  0  0  0  0
    0.5619   -2.1752    0.5741 C   0  0  0  0  0  0  0  0  0  0  0  0
    1.3623   -1.1601    0.0339 C   0  0  0  0  0  0  0  0  0  0  0  0
    2.5523   -1.4854   -0.6348 C   0  0  0  0  0  0  0  0  0  0  0  0
    3.4995   -0.1666   -1.3456 S   0  0  0  0  0  6  0  0  0  0  0  0
    3.7554   -0.5099   -2.7262 O   0  0  0  0  0  0  0  0  0  0  0  0
    2.8399    1.0807   -1.0170 O   0  0  0  0  0  0  0  0  0  0  0  0
    4.9568   -0.2020   -0.4699 N   0  0  0  0  0  0  0  0  0  0  0  0
    4.8386    0.0411    1.0070 C   0  0  0  0  0  0  0  0  0  0  0  0
    6.2050    0.4017    1.5995 C   0  0  0  0  0  0  0  0  0  0  0  0
    6.7388    1.6227    1.0695 O   0  0  0  0  0  0  0  0  0  0  0  0
    6.3191    1.8890   -0.2775 C   0  0  0  0  0  0  0  0  0  0  0  0
    6.0583    0.6148   -1.0865 C   0  0  0  0  0  0  0  0  0  0  0  0
    2.9463   -2.8203   -0.7546 C   0  0  0  0  0  0  0  0  0  0  0  0
    4.4051   -3.3336   -1.5196 Cl  0  0  0  0  0  0  0  0  0  0  0  0
    2.1436   -3.8273   -0.2001 C   0  0  0  0  0  0  0  0  0  0  0  0
    0.9546   -3.5109    0.4656 C   0  0  0  0  0  0  0  0  0  0  0  0
    0.0564   -4.8085    1.1652 Cl  0  0  0  0  0  0  0  0  0  0  0  0
   -3.7498    1.4483   -0.4849 C   0  0  0  0  0  0  0  0  0  0  0  0
   -5.1699    1.8348    0.0079 C   0  0  0  0  0  0  0  0  0  0  0  0
   -5.0630    2.9782    1.0096 C   0  0  0  0  0  0  0  0  0  0  0  0
   -3.6002    3.8574    0.5330 S   0  0  0  0  0  6  0  0  0  0  0  0
   -3.0056    4.4919    1.6902 O   0  0  0  0  0  0  0  0  0  0  0  0
   -3.8850    4.5904   -0.6866 O   0  0  0  0  0  0  0  0  0  0  0  0
   -2.6959    2.3986    0.1057 C   0  0  0  0  0  0  0  0  0  0  0  0
   -4.8948   -1.8740   -2.7215 H   0  0  0  0  0  0  0  0  0  0  0  0
   -5.4774   -0.3206   -2.1033 H   0  0  0  0  0  0  0  0  0  0  0  0
   -5.3994   -1.7229   -1.0259 H   0  0  0  0  0  0  0  0  0  0  0  0
   -2.9049   -1.7601   -1.3013 H   0  0  0  0  0  0  0  0  0  0  0  0
   -2.9694   -0.3215   -2.2978 H   0  0  0  0  0  0  0  0  0  0  0  0
   -3.7643   -2.5770    0.8071 H   0  0  0  0  0  0  0  0  0  0  0  0
   -2.9864   -2.1519    2.3220 H   0  0  0  0  0  0  0  0  0  0  0  0
    1.0476   -0.1207    0.1366 H   0  0  0  0  0  0  0  0  0  0  0  0
    4.1367    0.8600    1.1990 H   0  0  0  0  0  0  0  0  0  0  0  0
    4.4652   -0.8695    1.4865 H   0  0  0  0  0  0  0  0  0  0  0  0
    6.1272    0.5216    2.6849 H   0  0  0  0  0  0  0  0  0  0  0  0
    6.9322   -0.3962    1.4082 H   0  0  0  0  0  0  0  0  0  0  0  0
    7.1056    2.4833   -0.7529 H   0  0  0  0  0  0  0  0  0  0  0  0
    5.4191    2.5134   -0.2327 H   0  0  0  0  0  0  0  0  0  0  0  0
    5.8306    0.8762   -2.1243 H   0  0  0  0  0  0  0  0  0  0  0  0
    6.9546   -0.0157   -1.1020 H   0  0  0  0  0  0  0  0  0  0  0  0
    2.4540   -4.8682   -0.2803 H   0  0  0  0  0  0  0  0  0  0  0  0
   -3.7420    1.6209   -1.5704 H   0  0  0  0  0  0  0  0  0  0  0  0
   -5.7347    0.9937    0.4257 H   0  0  0  0  0  0  0  0  0  0  0  0
   -5.7462    2.1839   -0.8599 H   0  0  0  0  0  0  0  0  0  0  0  0
   -4.9154    2.6090    2.0286 H   0  0  0  0  0  0  0  0  0  0  0  0
   -5.9242    3.6487    0.9809 H   0  0  0  0  0  0  0  0  0  0  0  0
   -2.2232    2.0200    1.0150 H   0  0  0  0  0  0  0  0  0  0  0  0
   -1.9169    2.6520   -0.6178 H   0  0  0  0  0  0  0  0  0  0  0  0
  1  2  1  0
  2  3  1  0
  3  4  1  0
  4  5  2  0
  4  6  1  0
  6  7  1  0
  7  8  1  0
  8  9  2  0
  8 10  1  0
 10 11  2  0
 11 12  1  0
 12 13  1  0
 13 14  2  0
 13 15  2  0
 13 16  1  0
 16 17  1  0
 17 18  1  0
 18 19  1  0
 19 20  1  0
 20 21  1  0
 12 22  2  0
 22 23  1  0
 22 24  1  0
 24 25  2  0
 25 26  1  0
  3 27  1  0
 27 28  1  0
 28 29  1  0
 29 30  1  0
 30 31  2  0
 30 32  2  0
 30 33  1  0
 25 10  1  0
 33 27  1  0
 21 16  1  0
  1 34  1  0
  1 35  1  0
  1 36  1  0
  2 37  1  0
  2 38  1  0
  6 39  1  0
  6 40  1  0
 11 41  1  0
 17 42  1  0
 17 43  1  0
 18 44  1  0
 18 45  1  0
 20 46  1  0
 20 47  1  0
 21 48  1  0
 21 49  1  0
 24 50  1  0
 27 51  1  0
 28 52  1  0
 28 53  1  0
 29 54  1  0
 29 55  1  0
 33 56  1  0
 33 57  1  0
M  END
$$$$
