
     RDKit          3D

 55 56  0  0  0  0  0  0  0  0999 V2000
   -4.7703   -0.8102    0.8657 C   0  0  0  0  0  0  0  0  0  0  0  0
   -3.9239    0.4271    1.1804 C   0  0  0  0  0  0  0  0  0  0  0  0
   -3.5708    1.1467   -0.0326 N   0  0  0  0  0  0  0  0  0  0  0  0
   -2.5783    0.7162   -0.8815 C   0  0  0  0  0  0  0  0  0  0  0  0
   -1.9352   -0.3114   -0.6980 O   0  0  0  0  0  0  0  0  0  0  0  0
   -2.3887    1.6222   -2.0806 C   0  0  0  0  0  0  0  0  0  0  0  0
   -1.1101    1.3380   -2.8616 C   0  0  0  0  0  0  0  0  0  0  0  0
    0.3176    2.3617   -2.3424 S   0  0  0  0  0  0  0  0  0  0  0  0
    0.7126    1.6564   -0.6986 C   0  0  0  0  0  0  0  0  0  0  0  0
    1.2724    0.2405   -0.7462 C   0  0  0  0  0  0  0  0  0  0  0  0
    2.7281    0.1859   -1.1655 C   0  0  0  0  0  0  0  0  0  0  0  0
    3.5023    1.1303   -1.0569 O   0  0  0  0  0  0  0  0  0  0  0  0
    3.1029   -1.0587   -1.6296 N   0  0  0  0  0  0  0  0  0  0  0  0
    4.4922   -1.3843   -1.9094 C   0  0  0  0  0  0  0  0  0  0  0  0
    4.5865   -2.1757   -3.2155 C   0  0  0  0  0  0  0  0  0  0  0  0
    5.0945   -2.0916   -0.7058 C   0  0  0  0  0  0  0  0  0  0  0  0
    5.7117   -1.3218    0.2955 C   0  0  0  0  0  0  0  0  0  0  0  0
    6.2573   -1.9239    1.4306 C   0  0  0  0  0  0  0  0  0  0  0  0
    6.1856   -3.3052    1.5883 C   0  0  0  0  0  0  0  0  0  0  0  0
    5.5628   -4.0827    0.6147 C   0  0  0  0  0  0  0  0  0  0  0  0
    5.0157   -3.4809   -0.5219 C   0  0  0  0  0  0  0  0  0  0  0  0
   -4.5970    1.3829    2.1498 C   0  0  0  0  0  0  0  0  0  0  0  0
   -5.9425    1.7603    2.0140 C   0  0  0  0  0  0  0  0  0  0  0  0
   -6.5237    2.6633    2.9073 C   0  0  0  0  0  0  0  0  0  0  0  0
   -5.7669    3.2096    3.9410 C   0  0  0  0  0  0  0  0  0  0  0  0
   -4.4270    2.8582    4.0803 C   0  0  0  0  0  0  0  0  0  0  0  0
   -3.8448    1.9544    3.1894 C   0  0  0  0  0  0  0  0  0  0  0  0
   -5.6671   -0.5594    0.2890 H   0  0  0  0  0  0  0  0  0  0  0  0
   -4.2006   -1.5291    0.2671 H   0  0  0  0  0  0  0  0  0  0  0  0
   -5.0855   -1.3160    1.7849 H   0  0  0  0  0  0  0  0  0  0  0  0
   -2.9909    0.0655    1.6331 H   0  0  0  0  0  0  0  0  0  0  0  0
   -4.0628    2.0085   -0.2312 H   0  0  0  0  0  0  0  0  0  0  0  0
   -2.4490    2.6724   -1.7735 H   0  0  0  0  0  0  0  0  0  0  0  0
   -3.2456    1.4263   -2.7380 H   0  0  0  0  0  0  0  0  0  0  0  0
   -1.2868    1.6156   -3.9071 H   0  0  0  0  0  0  0  0  0  0  0  0
   -0.8363    0.2797   -2.8706 H   0  0  0  0  0  0  0  0  0  0  0  0
    1.4288    2.3365   -0.2249 H   0  0  0  0  0  0  0  0  0  0  0  0
   -0.1880    1.6914   -0.0800 H   0  0  0  0  0  0  0  0  0  0  0  0
    1.2343   -0.1816    0.2662 H   0  0  0  0  0  0  0  0  0  0  0  0
    0.6753   -0.4141   -1.3873 H   0  0  0  0  0  0  0  0  0  0  0  0
    2.4774   -1.8337   -1.4551 H   0  0  0  0  0  0  0  0  0  0  0  0
    5.0506   -0.4534   -2.0719 H   0  0  0  0  0  0  0  0  0  0  0  0
    5.6196   -2.4738   -3.4241 H   0  0  0  0  0  0  0  0  0  0  0  0
    4.2341   -1.5650   -4.0550 H   0  0  0  0  0  0  0  0  0  0  0  0
    3.9651   -3.0779   -3.1990 H   0  0  0  0  0  0  0  0  0  0  0  0
    5.7622   -0.2377    0.1948 H   0  0  0  0  0  0  0  0  0  0  0  0
    6.7339   -1.3113    2.1916 H   0  0  0  0  0  0  0  0  0  0  0  0
    6.6102   -3.7746    2.4716 H   0  0  0  0  0  0  0  0  0  0  0  0
    5.5002   -5.1606    0.7411 H   0  0  0  0  0  0  0  0  0  0  0  0
    4.5277   -4.1156   -1.2563 H   0  0  0  0  0  0  0  0  0  0  0  0
   -6.5545    1.3586    1.2099 H   0  0  0  0  0  0  0  0  0  0  0  0
   -7.5684    2.9419    2.7949 H   0  0  0  0  0  0  0  0  0  0  0  0
   -6.2201    3.9124    4.6352 H   0  0  0  0  0  0  0  0  0  0  0  0
   -3.8328    3.2890    4.8821 H   0  0  0  0  0  0  0  0  0  0  0  0
   -2.7937    1.6987    3.3116 H   0  0  0  0  0  0  0  0  0  0  0  0
  1  2  1  0
  2  3  1  0
  3  4  1  0
  4  5  2  0
  4  6  1  0
  6  7  1  0
  7  8  1  0
  8  9  1  0
  9 10  1  0
 10 11  1  0
 11 12  2  0
 11 13  1  0
 13 14  1  0
 14 15  1  0
 14 16  1  0
 16 17  2  0
 17 18  1  0
 18 19  2  0
 19 20  1  0
 20 21  2  0
  2 22  1  0
 22 23  2  0
 23 24  1  0
 24 25  2  0
 25 26  1  0
 26 27  2  0
 21 16  1  0
 27 22  1  0
  1 28  1  0
  1 29  1  0
  1 30  1  0
  2 31  1  0
  3 32  1  0
  6 33  1  0
  6 34  1  0
  7 35  1  0
  7 36  1  0
  9 37  1  0
  9 38  1  0
 10 39  1  0
 10 40  1  0
 13 41  1  0
 14 42  1  0
 15 43  1  0
 15 44  1  0
 15 45  1  0
 17 46  1  0
 18 47  1  0
 19 48  1  0
 20 49  1  0
 21 50  1  0
 23 51  1  0
 24 52  1  0
 25 53  1  0
 26 54  1  0
 27 55  1  0
M  END
$$$$
