
     RDKit          3D

 54 56  0  0  0  0  0  0  0  0999 V2000
   -4.9321   -1.6173   -2.2383 C   0  0  0  0  0  0  0  0  0  0  0  0
   -4.7918   -0.6461   -1.0941 C   0  0  0  0  0  0  0  0  0  0  0  0
   -5.9906   -0.2123   -0.5016 C   0  0  0  0  0  0  0  0  0  0  0  0
   -5.9885    0.7613    0.4862 C   0  0  0  0  0  0  0  0  0  0  0  0
   -4.7867    1.3312    0.8877 C   0  0  0  0  0  0  0  0  0  0  0  0
   -3.5568    0.9279    0.3291 C   0  0  0  0  0  0  0  0  0  0  0  0
   -2.2682    1.5791    0.8394 C   0  0  0  0  0  0  0  0  0  0  0  0
   -1.6826    0.7649    1.9960 C   0  0  0  0  0  0  0  0  0  0  0  0
   -2.4072    3.0521    1.2528 C   0  0  0  0  0  0  0  0  0  0  0  0
   -3.5607   -0.1257   -0.6317 C   0  0  0  0  0  0  0  0  0  0  0  0
   -2.3173   -0.5848   -1.1374 N   0  0  0  0  0  0  0  0  0  0  0  0
   -1.9696   -1.9117   -1.3581 C   0  0  0  0  0  0  0  0  0  0  0  0
   -2.6594   -2.8982   -1.1196 O   0  0  0  0  0  0  0  0  0  0  0  0
   -0.5674   -2.0605   -1.9326 C   0  0  0  0  0  0  0  0  0  0  0  0
    0.4505   -1.8396   -0.8537 C   0  0  0  0  0  0  0  0  0  0  0  0
    0.9104   -2.7435    0.0842 C   0  0  0  0  0  0  0  0  0  0  0  0
    1.8540   -2.1583    0.9759 C   0  0  0  0  0  0  0  0  0  0  0  0
    2.0891   -0.8246    0.6957 C   0  0  0  0  0  0  0  0  0  0  0  0
    3.1264    0.3872    1.4953 S   0  0  0  0  0  6  0  0  0  0  0  0
    2.3762    1.6250    1.4863 O   0  0  0  0  0  0  0  0  0  0  0  0
    3.5046   -0.2484    2.7394 O   0  0  0  0  0  0  0  0  0  0  0  0
    4.5350    0.5961    0.5799 N   0  0  0  0  0  0  0  0  0  0  0  0
    5.4044   -0.6021    0.4197 C   0  0  0  0  0  0  0  0  0  0  0  0
    6.7647   -0.1706   -0.1409 C   0  0  0  0  0  0  0  0  0  0  0  0
    6.6114    0.5229   -1.3881 O   0  0  0  0  0  0  0  0  0  0  0  0
    5.8208    1.7076   -1.2058 C   0  0  0  0  0  0  0  0  0  0  0  0
    4.4187    1.3615   -0.6900 C   0  0  0  0  0  0  0  0  0  0  0  0
    1.1905   -0.3060   -0.6635 S   0  0  0  0  0  0  0  0  0  0  0  0
   -4.0873   -1.5667   -2.9306 H   0  0  0  0  0  0  0  0  0  0  0  0
   -5.8124   -1.3666   -2.8379 H   0  0  0  0  0  0  0  0  0  0  0  0
   -5.0527   -2.6381   -1.8647 H   0  0  0  0  0  0  0  0  0  0  0  0
   -6.9418   -0.6289   -0.8260 H   0  0  0  0  0  0  0  0  0  0  0  0
   -6.9233    1.0855    0.9359 H   0  0  0  0  0  0  0  0  0  0  0  0
   -4.8282    2.0905    1.6640 H   0  0  0  0  0  0  0  0  0  0  0  0
   -1.5386    1.6050    0.0240 H   0  0  0  0  0  0  0  0  0  0  0  0
   -2.3602    0.7546    2.8574 H   0  0  0  0  0  0  0  0  0  0  0  0
   -1.5002   -0.2757    1.7051 H   0  0  0  0  0  0  0  0  0  0  0  0
   -0.7281    1.1883    2.3262 H   0  0  0  0  0  0  0  0  0  0  0  0
   -2.8874    3.6392    0.4626 H   0  0  0  0  0  0  0  0  0  0  0  0
   -1.4169    3.4879    1.4381 H   0  0  0  0  0  0  0  0  0  0  0  0
   -2.9865    3.1726    2.1737 H   0  0  0  0  0  0  0  0  0  0  0  0
   -1.5194    0.0086   -0.9704 H   0  0  0  0  0  0  0  0  0  0  0  0
   -0.4424   -1.3613   -2.7669 H   0  0  0  0  0  0  0  0  0  0  0  0
   -0.4666   -3.0693   -2.3487 H   0  0  0  0  0  0  0  0  0  0  0  0
    0.5685   -3.7724    0.1422 H   0  0  0  0  0  0  0  0  0  0  0  0
    2.3268   -2.6793    1.8003 H   0  0  0  0  0  0  0  0  0  0  0  0
    4.9241   -1.2992   -0.2758 H   0  0  0  0  0  0  0  0  0  0  0  0
    5.5580   -1.1018    1.3809 H   0  0  0  0  0  0  0  0  0  0  0  0
    7.2985    0.4771    0.5645 H   0  0  0  0  0  0  0  0  0  0  0  0
    7.3874   -1.0500   -0.3255 H   0  0  0  0  0  0  0  0  0  0  0  0
    5.7456    2.2060   -2.1770 H   0  0  0  0  0  0  0  0  0  0  0  0
    6.3419    2.3854   -0.5194 H   0  0  0  0  0  0  0  0  0  0  0  0
    3.9031    0.7526   -1.4384 H   0  0  0  0  0  0  0  0  0  0  0  0
    3.8605    2.2892   -0.5298 H   0  0  0  0  0  0  0  0  0  0  0  0
  1  2  1  0
  2  3  2  0
  3  4  1  0
  4  5  2  0
  5  6  1  0
  6  7  1  0
  7  8  1  0
  7  9  1  0
  6 10  2  0
 10 11  1  0
 11 12  1  0
 12 13  2  0
 12 14  1  0
 14 15  1  0
 15 16  2  0
 16 17  1  0
 17 18  2  0
 18 19  1  0
 19 20  2  0
 19 21  2  0
 19 22  1  0
 22 23  1  0
 23 24  1  0
 24 25  1  0
 25 26  1  0
 26 27  1  0
 18 28  1  0
 10  2  1  0
 28 15  1  0
 27 22  1  0
  1 29  1  0
  1 30  1  0
  1 31  1  0
  3 32  1  0
  4 33  1  0
  5 34  1  0
  7 35  1  0
  8 36  1  0
  8 37  1  0
  8 38  1  0
  9 39  1  0
  9 40  1  0
  9 41  1  0
 11 42  1  0
 14 43  1  0
 14 44  1  0
 16 45  1  0
 17 46  1  0
 23 47  1  0
 23 48  1  0
 24 49  1  0
 24 50  1  0
 26 51  1  0
 26 52  1  0
 27 53  1  0
 27 54  1  0
M  END
$$$$
