
     RDKit          3D

 63 67  0  0  0  0  0  0  0  0999 V2000
   -3.9923   -5.3042   -1.9759 C   0  0  0  0  0  0  0  0  0  0  0  0
   -4.1899   -3.9167   -1.7355 O   0  0  0  0  0  0  0  0  0  0  0  0
   -3.6482   -3.4041   -0.5883 C   0  0  0  0  0  0  0  0  0  0  0  0
   -2.8911   -4.1098    0.3471 C   0  0  0  0  0  0  0  0  0  0  0  0
   -2.3907   -3.4596    1.4778 C   0  0  0  0  0  0  0  0  0  0  0  0
   -2.6453   -2.1026    1.6785 C   0  0  0  0  0  0  0  0  0  0  0  0
   -3.4047   -1.3810    0.7503 C   0  0  0  0  0  0  0  0  0  0  0  0
   -3.6569    0.0512    0.9529 C   0  0  0  0  0  0  0  0  0  0  0  0
   -5.2704    0.5646    1.2008 S   0  0  0  0  0  0  0  0  0  0  0  0
   -4.8167    2.2100    1.3807 C   0  0  0  0  0  0  0  0  0  0  0  0
   -5.6738    3.3003    1.6250 C   0  0  0  0  0  0  0  0  0  0  0  0
   -5.1319    4.5855    1.7400 C   0  0  0  0  0  0  0  0  0  0  0  0
   -3.7651    4.7903    1.6125 C   0  0  0  0  0  0  0  0  0  0  0  0
   -3.1195    5.9933    1.7018 O   0  0  0  0  0  0  0  0  0  0  0  0
   -3.9245    7.1416    1.9364 C   0  0  0  0  0  0  0  0  0  0  0  0
   -2.9245    3.6973    1.3697 C   0  0  0  0  0  0  0  0  0  0  0  0
   -3.4379    2.3782    1.2538 C   0  0  0  0  0  0  0  0  0  0  0  0
   -2.7705    1.1168    1.0099 C   0  0  0  0  0  0  0  0  0  0  0  0
   -1.3324    0.9331    0.8347 C   0  0  0  0  0  0  0  0  0  0  0  0
   -0.4609    1.1801    1.8992 C   0  0  0  0  0  0  0  0  0  0  0  0
    0.9146    1.0029    1.7318 C   0  0  0  0  0  0  0  0  0  0  0  0
    1.4355    0.5799    0.5061 C   0  0  0  0  0  0  0  0  0  0  0  0
    2.7961    0.4440    0.4815 O   0  0  0  0  0  0  0  0  0  0  0  0
    3.3800   -0.0265   -0.7373 C   0  0  0  0  0  0  0  0  0  0  0  0
    4.9022   -0.1092   -0.5328 C   0  0  0  0  0  0  0  0  0  0  0  0
    5.6494   -0.5302   -1.7310 N   0  0  0  0  0  0  0  0  0  0  0  0
    5.2944   -1.9057   -2.1489 C   0  0  0  0  0  0  0  0  0  0  0  0
    6.4212   -2.5755   -2.9503 C   0  0  0  0  0  0  0  0  0  0  0  0
    7.6156   -2.7535   -2.1767 O   0  0  0  0  0  0  0  0  0  0  0  0
    7.7904   -1.7442   -1.1728 C   0  0  0  0  0  0  0  0  0  0  0  0
    7.1115   -0.4123   -1.5287 C   0  0  0  0  0  0  0  0  0  0  0  0
    0.5667    0.3397   -0.5588 C   0  0  0  0  0  0  0  0  0  0  0  0
   -0.8120    0.5177   -0.3958 C   0  0  0  0  0  0  0  0  0  0  0  0
   -3.8999   -2.0439   -0.3818 C   0  0  0  0  0  0  0  0  0  0  0  0
   -4.4956   -5.5558   -2.9144 H   0  0  0  0  0  0  0  0  0  0  0  0
   -4.4429   -5.9108   -1.1834 H   0  0  0  0  0  0  0  0  0  0  0  0
   -2.9289   -5.5359   -2.0962 H   0  0  0  0  0  0  0  0  0  0  0  0
   -2.6700   -5.1648    0.2266 H   0  0  0  0  0  0  0  0  0  0  0  0
   -1.7991   -4.0111    2.2042 H   0  0  0  0  0  0  0  0  0  0  0  0
   -2.2475   -1.6113    2.5636 H   0  0  0  0  0  0  0  0  0  0  0  0
   -6.7453    3.1477    1.7223 H   0  0  0  0  0  0  0  0  0  0  0  0
   -5.8175    5.4052    1.9285 H   0  0  0  0  0  0  0  0  0  0  0  0
   -3.2623    8.0119    1.9750 H   0  0  0  0  0  0  0  0  0  0  0  0
   -4.4393    7.0722    2.9004 H   0  0  0  0  0  0  0  0  0  0  0  0
   -4.6350    7.2999    1.1184 H   0  0  0  0  0  0  0  0  0  0  0  0
   -1.8551    3.8679    1.2647 H   0  0  0  0  0  0  0  0  0  0  0  0
   -0.8435    1.5068    2.8632 H   0  0  0  0  0  0  0  0  0  0  0  0
    1.5861    1.1958    2.5648 H   0  0  0  0  0  0  0  0  0  0  0  0
    3.1628    0.6744   -1.5526 H   0  0  0  0  0  0  0  0  0  0  0  0
    2.9782   -1.0182   -0.9747 H   0  0  0  0  0  0  0  0  0  0  0  0
    5.2375    0.8921   -0.2304 H   0  0  0  0  0  0  0  0  0  0  0  0
    5.1226   -0.7642    0.3209 H   0  0  0  0  0  0  0  0  0  0  0  0
    5.0895   -2.5306   -1.2695 H   0  0  0  0  0  0  0  0  0  0  0  0
    4.3867   -1.8721   -2.7610 H   0  0  0  0  0  0  0  0  0  0  0  0
    6.1025   -3.5658   -3.2915 H   0  0  0  0  0  0  0  0  0  0  0  0
    6.6711   -1.9895   -3.8427 H   0  0  0  0  0  0  0  0  0  0  0  0
    7.4027   -2.1359   -0.2252 H   0  0  0  0  0  0  0  0  0  0  0  0
    8.8674   -1.5945   -1.0454 H   0  0  0  0  0  0  0  0  0  0  0  0
    7.3579    0.3484   -0.7787 H   0  0  0  0  0  0  0  0  0  0  0  0
    7.5344   -0.0536   -2.4757 H   0  0  0  0  0  0  0  0  0  0  0  0
    0.9242    0.0155   -1.5303 H   0  0  0  0  0  0  0  0  0  0  0  0
   -1.4751    0.3284   -1.2372 H   0  0  0  0  0  0  0  0  0  0  0  0
   -4.4851   -1.4995   -1.1198 H   0  0  0  0  0  0  0  0  0  0  0  0
  1  2  1  0
  2  3  1  0
  3  4  2  0
  4  5  1  0
  5  6  2  0
  6  7  1  0
  7  8  1  0
  8  9  1  0
  9 10  1  0
 10 11  2  0
 11 12  1  0
 12 13  2  0
 13 14  1  0
 14 15  1  0
 13 16  1  0
 16 17  2  0
 17 18  1  0
 18 19  1  0
 19 20  2  0
 20 21  1  0
 21 22  2  0
 22 23  1  0
 23 24  1  0
 24 25  1  0
 25 26  1  0
 26 27  1  0
 27 28  1  0
 28 29  1  0
 29 30  1  0
 30 31  1  0
 22 32  1  0
 32 33  2  0
  7 34  2  0
 34  3  1  0
 18  8  2  0
 33 19  1  0
 17 10  1  0
 31 26  1  0
  1 35  1  0
  1 36  1  0
  1 37  1  0
  4 38  1  0
  5 39  1  0
  6 40  1  0
 11 41  1  0
 12 42  1  0
 15 43  1  0
 15 44  1  0
 15 45  1  0
 16 46  1  0
 20 47  1  0
 21 48  1  0
 24 49  1  0
 24 50  1  0
 25 51  1  0
 25 52  1  0
 27 53  1  0
 27 54  1  0
 28 55  1  0
 28 56  1  0
 30 57  1  0
 30 58  1  0
 31 59  1  0
 31 60  1  0
 32 61  1  0
 33 62  1  0
 34 63  1  0
M  END
$$$$
