
     RDKit          3D

 41 41  0  0  0  0  0  0  0  0999 V2000
    4.2886    0.1909    1.8300 C   0  0  0  0  0  0  0  0  0  0  0  0
    3.5421   -1.1343    1.8370 C   0  0  0  0  0  0  0  0  0  0  0  0
    2.2536   -1.1115    1.0110 C   0  0  0  0  0  0  0  0  0  0  0  0
    1.1899   -0.1701    1.5812 C   0  0  0  0  0  0  0  0  0  0  0  0
   -0.1662   -0.2824    0.8705 C   0  0  0  0  0  0  0  0  0  0  0  0
   -0.1667    0.0049   -0.6568 C   0  0  0  0  0  0  0  0  0  0  0  0
    0.4630    1.3610   -1.0023 C   0  0  0  0  0  0  0  0  0  0  0  0
   -0.3978    2.5056   -0.4962 C   0  0  0  0  0  0  0  0  0  0  0  0
    0.0611    3.6405   -0.0519 N   0  0  0  0  0  0  0  0  0  0  0  0
    1.4579    3.6855   -0.0745 O   0  0  0  0  0  0  0  0  0  0  0  0
   -1.8743    2.3373   -0.5782 C   0  0  0  0  0  0  0  0  0  0  0  0
   -2.4285    1.1750   -0.9690 C   0  0  0  0  0  0  0  0  0  0  0  0
   -3.9146    1.0973   -1.1988 C   0  0  0  0  0  0  0  0  0  0  0  0
   -1.5902   -0.0610   -1.2819 C   0  0  0  0  0  0  0  0  0  0  0  0
   -2.2502   -1.3997   -0.9147 C   0  0  0  0  0  0  0  0  0  0  0  0
   -3.0897   -1.5735   -0.0422 O   0  0  0  0  0  0  0  0  0  0  0  0
   -1.7283   -2.3929   -1.6953 O   0  0  0  0  0  0  0  0  0  0  0  0
   -2.2527   -3.6906   -1.4113 C   0  0  0  0  0  0  0  0  0  0  0  0
    4.4964    0.5197    0.8069 H   0  0  0  0  0  0  0  0  0  0  0  0
    3.7189    0.9752    2.3369 H   0  0  0  0  0  0  0  0  0  0  0  0
    5.2446    0.0860    2.3530 H   0  0  0  0  0  0  0  0  0  0  0  0
    4.2027   -1.9083    1.4281 H   0  0  0  0  0  0  0  0  0  0  0  0
    3.3189   -1.4225    2.8708 H   0  0  0  0  0  0  0  0  0  0  0  0
    2.4962   -0.8316   -0.0202 H   0  0  0  0  0  0  0  0  0  0  0  0
    1.8490   -2.1305    0.9770 H   0  0  0  0  0  0  0  0  0  0  0  0
    1.0345   -0.4097    2.6409 H   0  0  0  0  0  0  0  0  0  0  0  0
    1.5378    0.8674    1.5533 H   0  0  0  0  0  0  0  0  0  0  0  0
   -0.5407   -1.2987    1.0438 H   0  0  0  0  0  0  0  0  0  0  0  0
   -0.8686    0.3876    1.3808 H   0  0  0  0  0  0  0  0  0  0  0  0
    0.4388   -0.7758   -1.1359 H   0  0  0  0  0  0  0  0  0  0  0  0
    0.5433    1.4723   -2.0912 H   0  0  0  0  0  0  0  0  0  0  0  0
    1.4807    1.4193   -0.6105 H   0  0  0  0  0  0  0  0  0  0  0  0
    1.6433    4.5710    0.2898 H   0  0  0  0  0  0  0  0  0  0  0  0
   -2.4635    3.2210   -0.3555 H   0  0  0  0  0  0  0  0  0  0  0  0
   -4.3763    2.0909   -1.2164 H   0  0  0  0  0  0  0  0  0  0  0  0
   -4.4066    0.5248   -0.4079 H   0  0  0  0  0  0  0  0  0  0  0  0
   -4.1276    0.6266   -2.1642 H   0  0  0  0  0  0  0  0  0  0  0  0
   -1.4912   -0.0668   -2.3783 H   0  0  0  0  0  0  0  0  0  0  0  0
   -2.0208   -3.9801   -0.3815 H   0  0  0  0  0  0  0  0  0  0  0  0
   -3.3324   -3.7153   -1.5887 H   0  0  0  0  0  0  0  0  0  0  0  0
   -1.7744   -4.4045   -2.0875 H   0  0  0  0  0  0  0  0  0  0  0  0
  1  2  1  0
  2  3  1  0
  3  4  1  0
  4  5  1  0
  5  6  1  0
  6  7  1  0
  7  8  1  0
  8  9  2  3
  9 10  1  0
  8 11  1  0
 11 12  2  0
 12 13  1  0
 12 14  1  0
 14 15  1  0
 15 16  2  0
 15 17  1  0
 17 18  1  0
 14  6  1  0
  1 19  1  0
  1 20  1  0
  1 21  1  0
  2 22  1  0
  2 23  1  0
  3 24  1  0
  3 25  1  0
  4 26  1  0
  4 27  1  0
  5 28  1  0
  5 29  1  0
  6 30  1  0
  7 31  1  0
  7 32  1  0
 10 33  1  0
 11 34  1  0
 13 35  1  0
 13 36  1  0
 13 37  1  0
 14 38  1  0
 18 39  1  0
 18 40  1  0
 18 41  1  0
M  END
$$$$
