
     RDKit          3D

 49 52  0  0  0  0  0  0  0  0999 V2000
   -5.7005   -2.2292   -0.5638 C   0  0  0  0  0  0  0  0  0  0  0  0
   -5.0657   -0.9331   -0.1491 C   0  0  0  0  0  0  0  0  0  0  0  0
   -5.7778   -0.0210    0.6373 C   0  0  0  0  0  0  0  0  0  0  0  0
   -5.1936    1.1852    1.0323 C   0  0  0  0  0  0  0  0  0  0  0  0
   -5.9518    2.1563    1.8883 C   0  0  0  0  0  0  0  0  0  0  0  0
   -3.8665    1.4519    0.6678 C   0  0  0  0  0  0  0  0  0  0  0  0
   -3.1187    0.5360   -0.0963 C   0  0  0  0  0  0  0  0  0  0  0  0
   -1.7669    0.8674   -0.4323 N   0  0  0  0  0  0  0  0  0  0  0  0
   -1.3182    2.1342   -0.1761 N   0  0  0  0  0  0  0  0  0  0  0  0
   -0.0783    2.1817   -0.6550 C   0  0  0  0  0  0  0  0  0  0  0  0
    0.3327    0.9558   -1.1833 C   0  0  0  0  0  0  0  0  0  0  0  0
   -0.7513    0.1118   -1.0086 C   0  0  0  0  0  0  0  0  0  0  0  0
   -0.7534   -1.3288   -1.3925 C   0  0  0  0  0  0  0  0  0  0  0  0
    0.6782   -1.8205   -1.6858 C   0  0  0  0  0  0  0  0  0  0  0  0
    1.4916   -0.8044   -2.5098 C   0  0  0  0  0  0  0  0  0  0  0  0
    1.6368    0.5502   -1.7784 C   0  0  0  0  0  0  0  0  0  0  0  0
    2.5911    0.4647   -0.6999 N   0  0  0  0  0  0  0  0  0  0  0  0
    3.9501    0.4970   -0.9057 C   0  0  0  0  0  0  0  0  0  0  0  0
    4.4686    0.7116   -1.9970 O   0  0  0  0  0  0  0  0  0  0  0  0
    4.7257    0.2341    0.3161 C   0  0  0  0  0  0  0  0  0  0  0  0
    6.1376    0.2308    0.4491 C   0  0  0  0  0  0  0  0  0  0  0  0
    6.3841   -0.0647    1.7704 C   0  0  0  0  0  0  0  0  0  0  0  0
    7.6418   -0.2105    2.5347 C   0  0  0  0  0  0  0  0  0  0  0  0
    5.1547   -0.2200    2.3462 N   0  0  0  0  0  0  0  0  0  0  0  0
    4.1300   -0.0539    1.4929 N   0  0  0  0  0  0  0  0  0  0  0  0
   -3.7357   -0.6513   -0.5056 C   0  0  0  0  0  0  0  0  0  0  0  0
   -5.3361   -2.5441   -1.5474 H   0  0  0  0  0  0  0  0  0  0  0  0
   -6.7882   -2.1273   -0.6391 H   0  0  0  0  0  0  0  0  0  0  0  0
   -5.4688   -3.0093    0.1677 H   0  0  0  0  0  0  0  0  0  0  0  0
   -6.7995   -0.2476    0.9364 H   0  0  0  0  0  0  0  0  0  0  0  0
   -5.7590    1.9524    2.9460 H   0  0  0  0  0  0  0  0  0  0  0  0
   -7.0289    2.0824    1.7049 H   0  0  0  0  0  0  0  0  0  0  0  0
   -5.6554    3.1866    1.6652 H   0  0  0  0  0  0  0  0  0  0  0  0
   -3.4141    2.3863    0.9997 H   0  0  0  0  0  0  0  0  0  0  0  0
    0.4790    3.1070   -0.5806 H   0  0  0  0  0  0  0  0  0  0  0  0
   -1.1717   -1.9519   -0.5955 H   0  0  0  0  0  0  0  0  0  0  0  0
   -1.3558   -1.4588   -2.2990 H   0  0  0  0  0  0  0  0  0  0  0  0
    1.1980   -2.0151   -0.7389 H   0  0  0  0  0  0  0  0  0  0  0  0
    0.6290   -2.7768   -2.2193 H   0  0  0  0  0  0  0  0  0  0  0  0
    0.9772   -0.6437   -3.4665 H   0  0  0  0  0  0  0  0  0  0  0  0
    2.4759   -1.2264   -2.7435 H   0  0  0  0  0  0  0  0  0  0  0  0
    1.9850    1.3060   -2.4922 H   0  0  0  0  0  0  0  0  0  0  0  0
    2.2980    0.1876    0.2338 H   0  0  0  0  0  0  0  0  0  0  0  0
    6.8635    0.4241   -0.3294 H   0  0  0  0  0  0  0  0  0  0  0  0
    7.6922    0.5306    3.3387 H   0  0  0  0  0  0  0  0  0  0  0  0
    8.5129   -0.0679    1.8874 H   0  0  0  0  0  0  0  0  0  0  0  0
    7.7101   -1.2087    2.9789 H   0  0  0  0  0  0  0  0  0  0  0  0
    4.9425   -0.4409    3.3141 H   0  0  0  0  0  0  0  0  0  0  0  0
   -3.2305   -1.3758   -1.1288 H   0  0  0  0  0  0  0  0  0  0  0  0
  1  2  1  0
  2  3  2  0
  3  4  1  0
  4  5  1  0
  4  6  2  0
  6  7  1  0
  7  8  1  0
  8  9  1  0
  9 10  2  0
 10 11  1  0
 11 12  2  0
 12 13  1  0
 13 14  1  0
 14 15  1  0
 15 16  1  0
 16 17  1  0
 17 18  1  0
 18 19  2  0
 18 20  1  0
 20 21  1  0
 21 22  2  0
 22 23  1  0
 22 24  1  0
 24 25  1  0
  7 26  2  0
 26  2  1  0
 12  8  1  0
 25 20  2  0
 16 11  1  0
  1 27  1  0
  1 28  1  0
  1 29  1  0
  3 30  1  0
  5 31  1  0
  5 32  1  0
  5 33  1  0
  6 34  1  0
 10 35  1  0
 13 36  1  0
 13 37  1  0
 14 38  1  0
 14 39  1  0
 15 40  1  0
 15 41  1  0
 16 42  1  0
 17 43  1  0
 21 44  1  0
 23 45  1  0
 23 46  1  0
 23 47  1  0
 24 48  1  0
 26 49  1  0
M  END
$$$$
