
     RDKit          3D

 50 52  0  0  0  0  0  0  0  0999 V2000
    6.1509   -0.1160   -2.3869 C   0  0  0  0  0  0  0  0  0  0  0  0
    4.7928   -0.7349   -2.2688 C   0  0  0  0  0  0  0  0  0  0  0  0
    4.5358   -1.7034   -1.2910 C   0  0  0  0  0  0  0  0  0  0  0  0
    3.2767   -2.3160   -1.2172 C   0  0  0  0  0  0  0  0  0  0  0  0
    2.2676   -1.9677   -2.1209 C   0  0  0  0  0  0  0  0  0  0  0  0
    0.6631   -2.7464   -2.0326 S   0  0  0  0  0  0  0  0  0  0  0  0
   -0.1298   -1.6447   -0.8045 C   0  0  0  0  0  0  0  0  0  0  0  0
   -0.2392   -0.2152   -1.3465 C   0  0  0  0  0  0  0  0  0  0  0  0
   -0.7827   -0.0167   -2.4367 O   0  0  0  0  0  0  0  0  0  0  0  0
    0.2903    0.8539   -0.6029 N   0  0  0  0  0  0  0  0  0  0  0  0
    0.6491    0.7299    0.8219 C   0  0  0  0  0  0  0  0  0  0  0  0
   -0.5662    0.5957    1.6683 C   0  0  0  0  0  0  0  0  0  0  0  0
   -1.5354   -0.2904    1.6114 N   0  0  0  0  0  0  0  0  0  0  0  0
   -2.3978    0.1413    2.5969 C   0  0  0  0  0  0  0  0  0  0  0  0
   -3.6729   -0.5198    2.8582 C   0  0  0  0  0  0  0  0  0  0  0  0
   -4.0827   -1.5994    2.0612 C   0  0  0  0  0  0  0  0  0  0  0  0
   -5.3126   -2.2240    2.2881 C   0  0  0  0  0  0  0  0  0  0  0  0
   -6.1485   -1.7790    3.3085 C   0  0  0  0  0  0  0  0  0  0  0  0
   -5.7549   -0.7079    4.1110 C   0  0  0  0  0  0  0  0  0  0  0  0
   -4.5254   -0.0803    3.8844 C   0  0  0  0  0  0  0  0  0  0  0  0
   -1.9565    1.2239    3.2601 N   0  0  0  0  0  0  0  0  0  0  0  0
   -0.7446    1.5258    2.6448 O   0  0  0  0  0  0  0  0  0  0  0  0
    0.1249    2.2069   -1.1830 C   0  0  0  0  0  0  0  0  0  0  0  0
   -1.2270    2.8305   -0.8164 C   0  0  0  0  0  0  0  0  0  0  0  0
    1.2740    3.1630   -0.8532 C   0  0  0  0  0  0  0  0  0  0  0  0
    2.5262   -1.0172   -3.1108 C   0  0  0  0  0  0  0  0  0  0  0  0
    3.7825   -0.4061   -3.1865 C   0  0  0  0  0  0  0  0  0  0  0  0
    6.6531   -0.0892   -1.4139 H   0  0  0  0  0  0  0  0  0  0  0  0
    6.7642   -0.6891   -3.0865 H   0  0  0  0  0  0  0  0  0  0  0  0
    6.0781    0.9136   -2.7445 H   0  0  0  0  0  0  0  0  0  0  0  0
    5.3172   -1.9944   -0.5860 H   0  0  0  0  0  0  0  0  0  0  0  0
    3.0995   -3.0742   -0.4589 H   0  0  0  0  0  0  0  0  0  0  0  0
   -1.1477   -2.0130   -0.6072 H   0  0  0  0  0  0  0  0  0  0  0  0
    0.4391   -1.7330    0.1222 H   0  0  0  0  0  0  0  0  0  0  0  0
    1.2464    1.5859    1.1389 H   0  0  0  0  0  0  0  0  0  0  0  0
    1.2984   -0.1387    0.9604 H   0  0  0  0  0  0  0  0  0  0  0  0
   -3.4505   -1.9525    1.2492 H   0  0  0  0  0  0  0  0  0  0  0  0
   -5.6249   -3.0470    1.6552 H   0  0  0  0  0  0  0  0  0  0  0  0
   -7.1088   -2.2597    3.4807 H   0  0  0  0  0  0  0  0  0  0  0  0
   -6.4107   -0.3527    4.9033 H   0  0  0  0  0  0  0  0  0  0  0  0
   -4.2460    0.7637    4.5139 H   0  0  0  0  0  0  0  0  0  0  0  0
    0.1379    2.0936   -2.2754 H   0  0  0  0  0  0  0  0  0  0  0  0
   -1.2957    3.0462    0.2568 H   0  0  0  0  0  0  0  0  0  0  0  0
   -2.0558    2.1593   -1.0778 H   0  0  0  0  0  0  0  0  0  0  0  0
   -1.3756    3.7735   -1.3540 H   0  0  0  0  0  0  0  0  0  0  0  0
    2.2475    2.6901   -1.0391 H   0  0  0  0  0  0  0  0  0  0  0  0
    1.2536    3.4989    0.1910 H   0  0  0  0  0  0  0  0  0  0  0  0
    1.2052    4.0567   -1.4790 H   0  0  0  0  0  0  0  0  0  0  0  0
    1.7522   -0.7481   -3.8339 H   0  0  0  0  0  0  0  0  0  0  0  0
    3.9656    0.3239   -3.9721 H   0  0  0  0  0  0  0  0  0  0  0  0
  1  2  1  0
  2  3  2  0
  3  4  1  0
  4  5  2  0
  5  6  1  0
  6  7  1  0
  7  8  1  0
  8  9  2  0
  8 10  1  0
 10 11  1  0
 11 12  1  0
 12 13  2  0
 13 14  1  0
 14 15  1  0
 15 16  2  0
 16 17  1  0
 17 18  2  0
 18 19  1  0
 19 20  2  0
 14 21  2  0
 21 22  1  0
 10 23  1  0
 23 24  1  0
 23 25  1  0
  5 26  1  0
 26 27  2  0
 27  2  1  0
 22 12  1  0
 20 15  1  0
  1 28  1  0
  1 29  1  0
  1 30  1  0
  3 31  1  0
  4 32  1  0
  7 33  1  0
  7 34  1  0
 11 35  1  0
 11 36  1  0
 16 37  1  0
 17 38  1  0
 18 39  1  0
 19 40  1  0
 20 41  1  0
 23 42  1  0
 24 43  1  0
 24 44  1  0
 24 45  1  0
 25 46  1  0
 25 47  1  0
 25 48  1  0
 26 49  1  0
 27 50  1  0
M  END
$$$$
