
     RDKit          3D

 53 55  0  0  0  0  0  0  0  0999 V2000
   -6.8957    1.3327    0.4789 C   0  0  0  0  0  0  0  0  0  0  0  0
   -6.4547    0.0965   -0.2894 C   0  0  0  0  0  0  0  0  0  0  0  0
   -4.9521    0.0595   -0.5745 C   0  0  0  0  0  0  0  0  0  0  0  0
   -4.0990   -0.0678    0.6901 C   0  0  0  0  0  0  0  0  0  0  0  0
   -2.6977   -0.1881    0.3506 N   0  0  0  0  0  0  0  0  0  0  0  0
   -1.8116    0.8361    0.0207 C   0  0  0  0  0  0  0  0  0  0  0  0
   -2.0034    2.1097    0.0913 N   0  0  0  0  0  0  0  0  0  0  0  0
   -0.6237    0.2476   -0.4074 N   0  0  0  0  0  0  0  0  0  0  0  0
    0.4897    0.9373   -1.0385 C   0  0  0  0  0  0  0  0  0  0  0  0
    1.2420    1.8774   -0.0736 C   0  0  0  0  0  0  0  0  0  0  0  0
    0.5098    3.0746    0.2153 O   0  0  0  0  0  0  0  0  0  0  0  0
    1.6712    1.1989    1.2336 C   0  0  0  0  0  0  0  0  0  0  0  0
    2.4351    0.0137    1.0051 O   0  0  0  0  0  0  0  0  0  0  0  0
    3.7743    0.1272    0.7636 C   0  0  0  0  0  0  0  0  0  0  0  0
    4.4211   -1.0872    0.5224 C   0  0  0  0  0  0  0  0  0  0  0  0
    5.7909   -1.1274    0.2516 C   0  0  0  0  0  0  0  0  0  0  0  0
    6.5349    0.0548    0.2085 C   0  0  0  0  0  0  0  0  0  0  0  0
    8.0122    0.0174   -0.0466 C   0  0  0  0  0  0  0  0  0  0  0  0
    5.8895    1.2689    0.4673 C   0  0  0  0  0  0  0  0  0  0  0  0
    4.5166    1.3062    0.7392 C   0  0  0  0  0  0  0  0  0  0  0  0
   -0.7854   -1.1390   -0.4145 C   0  0  0  0  0  0  0  0  0  0  0  0
    0.0704   -2.1593   -0.7759 C   0  0  0  0  0  0  0  0  0  0  0  0
   -0.3945   -3.4742   -0.6747 C   0  0  0  0  0  0  0  0  0  0  0  0
   -1.6952   -3.7466   -0.2168 C   0  0  0  0  0  0  0  0  0  0  0  0
   -2.5561   -2.7097    0.1549 C   0  0  0  0  0  0  0  0  0  0  0  0
   -2.0896   -1.4142    0.0561 C   0  0  0  0  0  0  0  0  0  0  0  0
   -6.5820    2.2471   -0.0343 H   0  0  0  0  0  0  0  0  0  0  0  0
   -7.9868    1.3507    0.5665 H   0  0  0  0  0  0  0  0  0  0  0  0
   -6.4828    1.3447    1.4917 H   0  0  0  0  0  0  0  0  0  0  0  0
   -6.9901    0.0723   -1.2461 H   0  0  0  0  0  0  0  0  0  0  0  0
   -6.7523   -0.8025    0.2628 H   0  0  0  0  0  0  0  0  0  0  0  0
   -4.7510   -0.7914   -1.2375 H   0  0  0  0  0  0  0  0  0  0  0  0
   -4.6612    0.9583   -1.1326 H   0  0  0  0  0  0  0  0  0  0  0  0
   -4.2394    0.8096    1.3309 H   0  0  0  0  0  0  0  0  0  0  0  0
   -4.4325   -0.9237    1.2887 H   0  0  0  0  0  0  0  0  0  0  0  0
   -2.9525    2.2794    0.4321 H   0  0  0  0  0  0  0  0  0  0  0  0
    1.2091    0.2284   -1.4618 H   0  0  0  0  0  0  0  0  0  0  0  0
    0.1014    1.5227   -1.8813 H   0  0  0  0  0  0  0  0  0  0  0  0
    2.1375    2.2121   -0.6083 H   0  0  0  0  0  0  0  0  0  0  0  0
   -0.4478    2.8309    0.2283 H   0  0  0  0  0  0  0  0  0  0  0  0
    2.1824    1.8970    1.9079 H   0  0  0  0  0  0  0  0  0  0  0  0
    0.7795    0.8988    1.7975 H   0  0  0  0  0  0  0  0  0  0  0  0
    3.8529   -2.0137    0.5520 H   0  0  0  0  0  0  0  0  0  0  0  0
    6.2701   -2.0877    0.0768 H   0  0  0  0  0  0  0  0  0  0  0  0
    8.2765   -0.8282   -0.6902 H   0  0  0  0  0  0  0  0  0  0  0  0
    8.5532   -0.0760    0.9000 H   0  0  0  0  0  0  0  0  0  0  0  0
    8.3434    0.9285   -0.5558 H   0  0  0  0  0  0  0  0  0  0  0  0
    6.4521    2.2003    0.4606 H   0  0  0  0  0  0  0  0  0  0  0  0
    4.0673    2.2753    0.9290 H   0  0  0  0  0  0  0  0  0  0  0  0
    1.0804   -1.9668   -1.1172 H   0  0  0  0  0  0  0  0  0  0  0  0
    0.2604   -4.2980   -0.9503 H   0  0  0  0  0  0  0  0  0  0  0  0
   -2.0325   -4.7784   -0.1466 H   0  0  0  0  0  0  0  0  0  0  0  0
   -3.5540   -2.9345    0.5106 H   0  0  0  0  0  0  0  0  0  0  0  0
  1  2  1  0
  2  3  1  0
  3  4  1  0
  4  5  1  0
  5  6  1  0
  6  7  2  3
  6  8  1  0
  8  9  1  0
  9 10  1  0
 10 11  1  0
 10 12  1  0
 12 13  1  0
 13 14  1  0
 14 15  2  0
 15 16  1  0
 16 17  2  0
 17 18  1  0
 17 19  1  0
 19 20  2  0
  8 21  1  0
 21 22  2  0
 22 23  1  0
 23 24  2  0
 24 25  1  0
 25 26  2  0
 26  5  1  0
 20 14  1  0
 26 21  1  0
  1 27  1  0
  1 28  1  0
  1 29  1  0
  2 30  1  0
  2 31  1  0
  3 32  1  0
  3 33  1  0
  4 34  1  0
  4 35  1  0
  7 36  1  0
  9 37  1  0
  9 38  1  0
 10 39  1  0
 11 40  1  0
 12 41  1  0
 12 42  1  0
 15 43  1  0
 16 44  1  0
 18 45  1  0
 18 46  1  0
 18 47  1  0
 19 48  1  0
 20 49  1  0
 22 50  1  0
 23 51  1  0
 24 52  1  0
 25 53  1  0
M  END
$$$$
