
     RDKit          3D

 47 49  0  0  0  0  0  0  0  0999 V2000
   -0.7710    3.3248   -0.7495 C   0  0  0  0  0  0  0  0  0  0  0  0
   -0.3646    1.9251   -0.9229 N   0  0  0  0  0  0  0  0  0  0  0  0
    0.4595    1.7251   -2.1219 C   0  0  0  0  0  0  0  0  0  0  0  0
   -0.2123    1.0867    0.2203 C   0  0  0  0  0  0  0  0  0  0  0  0
   -1.5032    0.8278    1.0146 C   0  0  0  0  0  0  0  0  0  0  0  0
   -2.1152   -0.4717    0.6845 N   0  0  0  0  0  0  0  0  0  0  0  0
   -2.6070   -0.5048   -0.7118 C   0  0  0  0  0  0  0  0  0  0  0  0
   -3.7088   -1.5497   -0.9564 C   0  0  0  0  0  0  0  0  0  0  0  0
   -4.8573   -1.3381   -0.0767 N   0  0  0  0  0  0  0  0  0  0  0  0
   -6.0923   -1.8537   -0.3986 C   0  0  0  0  0  0  0  0  0  0  0  0
   -6.3599   -2.4941   -1.4076 O   0  0  0  0  0  0  0  0  0  0  0  0
   -4.6015   -0.6704    1.1949 C   0  0  0  0  0  0  0  0  0  0  0  0
   -3.1473   -0.8599    1.6645 C   0  0  0  0  0  0  0  0  0  0  0  0
    0.9450    0.4859    0.5992 C   0  0  0  0  0  0  0  0  0  0  0  0
    2.1534    0.6057   -0.0575 N   0  0  0  0  0  0  0  0  0  0  0  0
    2.9365   -0.1724    0.6149 C   0  0  0  0  0  0  0  0  0  0  0  0
    4.3570   -0.4423    0.3423 C   0  0  0  0  0  0  0  0  0  0  0  0
    5.0999   -1.3248    1.1379 C   0  0  0  0  0  0  0  0  0  0  0  0
    6.4467   -1.5605    0.8504 C   0  0  0  0  0  0  0  0  0  0  0  0
    7.0546   -0.9126   -0.2253 C   0  0  0  0  0  0  0  0  0  0  0  0
    6.3189   -0.0322   -1.0199 C   0  0  0  0  0  0  0  0  0  0  0  0
    4.9716    0.2028   -0.7384 C   0  0  0  0  0  0  0  0  0  0  0  0
    2.4227   -0.8062    1.6892 O   0  0  0  0  0  0  0  0  0  0  0  0
    1.1199   -0.4148    1.7871 C   0  0  0  0  0  0  0  0  0  0  0  0
    0.3597   -0.7230    2.6823 O   0  0  0  0  0  0  0  0  0  0  0  0
   -1.4469    3.4645    0.0984 H   0  0  0  0  0  0  0  0  0  0  0  0
   -1.2930    3.6796   -1.6446 H   0  0  0  0  0  0  0  0  0  0  0  0
    0.1086    3.9574   -0.5843 H   0  0  0  0  0  0  0  0  0  0  0  0
    0.5921    0.6585   -2.3369 H   0  0  0  0  0  0  0  0  0  0  0  0
   -0.0352    2.1638   -2.9960 H   0  0  0  0  0  0  0  0  0  0  0  0
    1.4391    2.2029   -2.0133 H   0  0  0  0  0  0  0  0  0  0  0  0
   -1.2740    0.9008    2.0848 H   0  0  0  0  0  0  0  0  0  0  0  0
   -2.2375    1.6254    0.8457 H   0  0  0  0  0  0  0  0  0  0  0  0
   -3.0163    0.4737   -0.9943 H   0  0  0  0  0  0  0  0  0  0  0  0
   -1.7681   -0.7177   -1.3837 H   0  0  0  0  0  0  0  0  0  0  0  0
   -3.3294   -2.5610   -0.7632 H   0  0  0  0  0  0  0  0  0  0  0  0
   -4.0419   -1.5172   -2.0011 H   0  0  0  0  0  0  0  0  0  0  0  0
   -6.8617   -1.6272    0.3592 H   0  0  0  0  0  0  0  0  0  0  0  0
   -5.3004   -1.0491    1.9491 H   0  0  0  0  0  0  0  0  0  0  0  0
   -4.8160    0.3956    1.0507 H   0  0  0  0  0  0  0  0  0  0  0  0
   -2.9944   -1.9288    1.8749 H   0  0  0  0  0  0  0  0  0  0  0  0
   -3.0064   -0.3541    2.6295 H   0  0  0  0  0  0  0  0  0  0  0  0
    4.6475   -1.8382    1.9827 H   0  0  0  0  0  0  0  0  0  0  0  0
    7.0225   -2.2500    1.4662 H   0  0  0  0  0  0  0  0  0  0  0  0
    8.1043   -1.0960   -0.4456 H   0  0  0  0  0  0  0  0  0  0  0  0
    6.7958    0.4737   -1.8575 H   0  0  0  0  0  0  0  0  0  0  0  0
    4.4063    0.8908   -1.3654 H   0  0  0  0  0  0  0  0  0  0  0  0
  1  2  1  0
  2  3  1  0
  2  4  1  0
  4  5  1  0
  5  6  1  0
  6  7  1  0
  7  8  1  0
  8  9  1  0
  9 10  1  0
 10 11  2  0
  9 12  1  0
 12 13  1  0
  4 14  2  3
 14 15  1  0
 15 16  2  0
 16 17  1  0
 17 18  2  0
 18 19  1  0
 19 20  2  0
 20 21  1  0
 21 22  2  0
 16 23  1  0
 23 24  1  0
 24 25  2  0
 13  6  1  0
 24 14  1  0
 22 17  1  0
  1 26  1  0
  1 27  1  0
  1 28  1  0
  3 29  1  0
  3 30  1  0
  3 31  1  0
  5 32  1  0
  5 33  1  0
  7 34  1  0
  7 35  1  0
  8 36  1  0
  8 37  1  0
 10 38  1  0
 12 39  1  0
 12 40  1  0
 13 41  1  0
 13 42  1  0
 18 43  1  0
 19 44  1  0
 20 45  1  0
 21 46  1  0
 22 47  1  0
M  END
$$$$
