
     RDKit          3D

 50 53  0  0  0  0  0  0  0  0999 V2000
   -6.3089   -2.5028    2.2440 C   0  0  0  0  0  0  0  0  0  0  0  0
   -6.3641   -2.0189    0.8537 C   0  0  0  0  0  0  0  0  0  0  0  0
   -6.2421   -0.7868    0.2600 C   0  0  0  0  0  0  0  0  0  0  0  0
   -6.4016   -1.0443   -1.1155 C   0  0  0  0  0  0  0  0  0  0  0  0
   -6.3673   -0.1670   -2.1817 N   0  0  0  0  0  0  0  0  0  0  0  0
   -5.7976    1.3925   -2.1407 S   0  0  0  0  0  6  0  0  0  0  0  0
   -6.4220    2.0965   -1.0415 O   0  0  0  0  0  0  0  0  0  0  0  0
   -5.8638    1.8988   -3.4955 O   0  0  0  0  0  0  0  0  0  0  0  0
   -4.0756    1.1708   -1.7578 C   0  0  0  0  0  0  0  0  0  0  0  0
   -3.2423    0.5563   -2.6937 C   0  0  0  0  0  0  0  0  0  0  0  0
   -1.8878    0.3798   -2.3968 C   0  0  0  0  0  0  0  0  0  0  0  0
   -1.3572    0.8184   -1.1746 C   0  0  0  0  0  0  0  0  0  0  0  0
    0.0186    0.5981   -0.9563 N   0  0  0  0  0  0  0  0  0  0  0  0
    0.7578    0.9249    0.1703 C   0  0  0  0  0  0  0  0  0  0  0  0
    0.3351    1.4564    1.1900 O   0  0  0  0  0  0  0  0  0  0  0  0
    2.2135    0.5314    0.0147 C   0  0  0  0  0  0  0  0  0  0  0  0
    3.0285    0.9401    1.2368 C   0  0  0  0  0  0  0  0  0  0  0  0
    4.4222    0.5557    1.0997 N   0  0  0  0  0  0  0  0  0  0  0  0
    4.9197   -0.6639    1.4709 C   0  0  0  0  0  0  0  0  0  0  0  0
    4.3386   -1.6133    1.9601 O   0  0  0  0  0  0  0  0  0  0  0  0
    6.3400   -0.6545    1.1248 C   0  0  0  0  0  0  0  0  0  0  0  0
    7.3126   -1.6177    1.3072 C   0  0  0  0  0  0  0  0  0  0  0  0
    8.6007   -1.3178    0.8524 C   0  0  0  0  0  0  0  0  0  0  0  0
    8.8796   -0.0825    0.2301 C   0  0  0  0  0  0  0  0  0  0  0  0
    7.8754    0.8745    0.0523 C   0  0  0  0  0  0  0  0  0  0  0  0
    6.6135    0.5567    0.5148 C   0  0  0  0  0  0  0  0  0  0  0  0
    5.3675    1.3195    0.4711 C   0  0  0  0  0  0  0  0  0  0  0  0
    5.2442    2.4023   -0.0682 O   0  0  0  0  0  0  0  0  0  0  0  0
   -2.2032    1.4471   -0.2566 C   0  0  0  0  0  0  0  0  0  0  0  0
   -3.5600    1.6297   -0.5457 C   0  0  0  0  0  0  0  0  0  0  0  0
   -6.6194   -2.3415   -1.3452 N   0  0  0  0  0  0  0  0  0  0  0  0
   -6.5871   -2.9554   -0.1059 O   0  0  0  0  0  0  0  0  0  0  0  0
   -7.1910   -3.1059    2.4782 H   0  0  0  0  0  0  0  0  0  0  0  0
   -5.4178   -3.1187    2.3981 H   0  0  0  0  0  0  0  0  0  0  0  0
   -6.2729   -1.6671    2.9499 H   0  0  0  0  0  0  0  0  0  0  0  0
   -6.0760    0.1537    0.7629 H   0  0  0  0  0  0  0  0  0  0  0  0
   -6.5494   -0.5509   -3.1047 H   0  0  0  0  0  0  0  0  0  0  0  0
   -3.6339    0.2206   -3.6514 H   0  0  0  0  0  0  0  0  0  0  0  0
   -1.2541   -0.1018   -3.1380 H   0  0  0  0  0  0  0  0  0  0  0  0
    0.5191    0.1432   -1.7103 H   0  0  0  0  0  0  0  0  0  0  0  0
    2.2688   -0.5541   -0.1313 H   0  0  0  0  0  0  0  0  0  0  0  0
    2.6148    1.0144   -0.8840 H   0  0  0  0  0  0  0  0  0  0  0  0
    2.9821    2.0269    1.3746 H   0  0  0  0  0  0  0  0  0  0  0  0
    2.6264    0.4652    2.1393 H   0  0  0  0  0  0  0  0  0  0  0  0
    7.0831   -2.5658    1.7824 H   0  0  0  0  0  0  0  0  0  0  0  0
    9.4000   -2.0466    0.9774 H   0  0  0  0  0  0  0  0  0  0  0  0
    9.8906    0.1260   -0.1170 H   0  0  0  0  0  0  0  0  0  0  0  0
    8.0749    1.8267   -0.4298 H   0  0  0  0  0  0  0  0  0  0  0  0
   -1.8375    1.8176    0.6963 H   0  0  0  0  0  0  0  0  0  0  0  0
   -4.1945    2.1335    0.1800 H   0  0  0  0  0  0  0  0  0  0  0  0
  1  2  1  0
  2  3  2  0
  3  4  1  0
  4  5  1  0
  5  6  1  0
  6  7  2  0
  6  8  2  0
  6  9  1  0
  9 10  2  0
 10 11  1  0
 11 12  2  0
 12 13  1  0
 13 14  1  0
 14 15  2  0
 14 16  1  0
 16 17  1  0
 17 18  1  0
 18 19  1  0
 19 20  2  0
 19 21  1  0
 21 22  2  0
 22 23  1  0
 23 24  2  0
 24 25  1  0
 25 26  2  0
 26 27  1  0
 27 28  2  0
 12 29  1  0
 29 30  2  0
  4 31  2  0
 31 32  1  0
 32  2  1  0
 30  9  1  0
 27 18  1  0
 26 21  1  0
  1 33  1  0
  1 34  1  0
  1 35  1  0
  3 36  1  0
  5 37  1  0
 10 38  1  0
 11 39  1  0
 13 40  1  0
 16 41  1  0
 16 42  1  0
 17 43  1  0
 17 44  1  0
 22 45  1  0
 23 46  1  0
 24 47  1  0
 25 48  1  0
 29 49  1  0
 30 50  1  0
M  END
$$$$
