
     RDKit          3D

 51 53  0  0  0  0  0  0  0  0999 V2000
   -3.9780    2.1988   -3.5747 C   0  0  0  0  0  0  0  0  0  0  0  0
   -3.8204    1.8446   -2.2062 O   0  0  0  0  0  0  0  0  0  0  0  0
   -4.1009    0.4657   -1.9847 C   0  0  0  0  0  0  0  0  0  0  0  0
   -3.8639    0.1519   -0.5118 C   0  0  0  0  0  0  0  0  0  0  0  0
   -2.4204    0.3998   -0.0606 C   0  0  0  0  0  0  0  0  0  0  0  0
   -1.4520   -0.5002   -0.6532 N   0  0  0  0  0  0  0  0  0  0  0  0
   -0.5118   -0.2252   -1.6104 C   0  0  0  0  0  0  0  0  0  0  0  0
   -0.1929    1.3466   -2.2536 S   0  0  0  0  0  0  0  0  0  0  0  0
    1.4762    1.1028   -2.9315 C   0  0  0  0  0  0  0  0  0  0  0  0
    2.5403    0.7200   -1.9238 C   0  0  0  0  0  0  0  0  0  0  0  0
    3.6384    0.2888   -2.2638 O   0  0  0  0  0  0  0  0  0  0  0  0
    2.1852    0.9674   -0.6336 O   0  0  0  0  0  0  0  0  0  0  0  0
    3.1216    0.5558    0.3772 C   0  0  0  0  0  0  0  0  0  0  0  0
    4.1888    1.6414    0.5730 C   0  0  0  0  0  0  0  0  0  0  0  0
    4.7602    1.6912    1.9917 C   0  0  0  0  0  0  0  0  0  0  0  0
    4.6797    0.3400    2.6892 C   0  0  0  0  0  0  0  0  0  0  0  0
    3.2368   -0.1556    2.8059 C   0  0  0  0  0  0  0  0  0  0  0  0
    2.3363    0.3187    1.6656 C   0  0  0  0  0  0  0  0  0  0  0  0
    0.1236   -1.3232   -1.9437 N   0  0  0  0  0  0  0  0  0  0  0  0
   -0.3758   -2.3429   -1.1734 N   0  0  0  0  0  0  0  0  0  0  0  0
   -1.2952   -1.8412   -0.3731 C   0  0  0  0  0  0  0  0  0  0  0  0
   -2.0032   -2.6015    0.6108 C   0  0  0  0  0  0  0  0  0  0  0  0
   -2.0835   -2.3647    1.9694 C   0  0  0  0  0  0  0  0  0  0  0  0
   -2.8849   -3.3331    2.6437 C   0  0  0  0  0  0  0  0  0  0  0  0
   -3.3785   -4.2837    1.7790 C   0  0  0  0  0  0  0  0  0  0  0  0
   -2.8712   -4.0107    0.1688 S   0  0  0  0  0  0  0  0  0  0  0  0
   -3.7498    3.2625   -3.6831 H   0  0  0  0  0  0  0  0  0  0  0  0
   -5.0092    2.0268   -3.8979 H   0  0  0  0  0  0  0  0  0  0  0  0
   -3.2864    1.6271   -4.2006 H   0  0  0  0  0  0  0  0  0  0  0  0
   -3.4664   -0.1576   -2.6244 H   0  0  0  0  0  0  0  0  0  0  0  0
   -5.1492    0.2666   -2.2349 H   0  0  0  0  0  0  0  0  0  0  0  0
   -4.5141    0.7967    0.0927 H   0  0  0  0  0  0  0  0  0  0  0  0
   -4.1622   -0.8826   -0.3137 H   0  0  0  0  0  0  0  0  0  0  0  0
   -2.1248    1.4341   -0.2577 H   0  0  0  0  0  0  0  0  0  0  0  0
   -2.3485    0.2791    1.0256 H   0  0  0  0  0  0  0  0  0  0  0  0
    1.7864    2.0433   -3.3968 H   0  0  0  0  0  0  0  0  0  0  0  0
    1.4330    0.3289   -3.7043 H   0  0  0  0  0  0  0  0  0  0  0  0
    3.5917   -0.3935    0.0867 H   0  0  0  0  0  0  0  0  0  0  0  0
    5.0040    1.4562   -0.1381 H   0  0  0  0  0  0  0  0  0  0  0  0
    3.7936    2.6303    0.3078 H   0  0  0  0  0  0  0  0  0  0  0  0
    5.7984    2.0405    1.9583 H   0  0  0  0  0  0  0  0  0  0  0  0
    4.2016    2.4308    2.5794 H   0  0  0  0  0  0  0  0  0  0  0  0
    5.1300    0.3994    3.6867 H   0  0  0  0  0  0  0  0  0  0  0  0
    5.2706   -0.3917    2.1236 H   0  0  0  0  0  0  0  0  0  0  0  0
    2.8048    0.1782    3.7570 H   0  0  0  0  0  0  0  0  0  0  0  0
    3.2442   -1.2517    2.8420 H   0  0  0  0  0  0  0  0  0  0  0  0
    1.5295   -0.4052    1.4968 H   0  0  0  0  0  0  0  0  0  0  0  0
    1.8303    1.2491    1.9565 H   0  0  0  0  0  0  0  0  0  0  0  0
   -1.5801   -1.5452    2.4679 H   0  0  0  0  0  0  0  0  0  0  0  0
   -3.0784   -3.3391    3.7096 H   0  0  0  0  0  0  0  0  0  0  0  0
   -4.0035   -5.1344    2.0141 H   0  0  0  0  0  0  0  0  0  0  0  0
  1  2  1  0
  2  3  1  0
  3  4  1  0
  4  5  1  0
  5  6  1  0
  6  7  1  0
  7  8  1  0
  8  9  1  0
  9 10  1  0
 10 11  2  0
 10 12  1  0
 12 13  1  0
 13 14  1  0
 14 15  1  0
 15 16  1  0
 16 17  1  0
 17 18  1  0
  7 19  2  0
 19 20  1  0
 20 21  2  0
 21 22  1  0
 22 23  2  0
 23 24  1  0
 24 25  2  0
 25 26  1  0
 21  6  1  0
 26 22  1  0
 18 13  1  0
  1 27  1  0
  1 28  1  0
  1 29  1  0
  3 30  1  0
  3 31  1  0
  4 32  1  0
  4 33  1  0
  5 34  1  0
  5 35  1  0
  9 36  1  0
  9 37  1  0
 13 38  1  0
 14 39  1  0
 14 40  1  0
 15 41  1  0
 15 42  1  0
 16 43  1  0
 16 44  1  0
 17 45  1  0
 17 46  1  0
 18 47  1  0
 18 48  1  0
 23 49  1  0
 24 50  1  0
 25 51  1  0
M  END
$$$$
