
     RDKit          3D

 68 71  0  0  0  0  0  0  0  0999 V2000
    3.8108    0.2555   -4.3427 C   0  0  0  0  0  0  0  0  0  0  0  0
    2.5848    0.9178   -3.1895 S   0  0  0  0  0  0  0  0  0  0  0  0
    3.7212    1.4854   -1.8825 C   0  0  0  0  0  0  0  0  0  0  0  0
    2.9692    2.0064   -0.6543 C   0  0  0  0  0  0  0  0  0  0  0  0
    2.5961    0.9410    0.3906 C   0  0  0  0  0  0  0  0  0  0  0  0
    3.7885    0.2883    0.9376 N   0  0  0  0  0  0  0  0  0  0  0  0
    4.6056    0.8876    1.8625 C   0  0  0  0  0  0  0  0  0  0  0  0
    4.4383    2.0189    2.2969 O   0  0  0  0  0  0  0  0  0  0  0  0
    5.7215    0.0478    2.3413 C   0  0  0  0  0  0  0  0  0  0  0  0
    5.4163   -1.1767    2.9552 C   0  0  0  0  0  0  0  0  0  0  0  0
    6.4420   -1.9881    3.4410 C   0  0  0  0  0  0  0  0  0  0  0  0
    7.7694   -1.5797    3.3175 C   0  0  0  0  0  0  0  0  0  0  0  0
    8.0740   -0.3621    2.7039 C   0  0  0  0  0  0  0  0  0  0  0  0
    7.0519    0.4570    2.2130 C   0  0  0  0  0  0  0  0  0  0  0  0
    7.5074    1.9179    1.4133 Cl  0  0  0  0  0  0  0  0  0  0  0  0
    1.6729   -0.1843   -0.1337 C   0  0  0  0  0  0  0  0  0  0  0  0
    2.1534   -1.3082   -0.3366 O   0  0  0  0  0  0  0  0  0  0  0  0
    0.3271    0.0819   -0.3365 N   0  0  0  0  0  0  0  0  0  0  0  0
   -0.2903    1.4098   -0.2737 C   0  0  0  0  0  0  0  0  0  0  0  0
   -1.7655    1.3551    0.1741 C   0  0  0  0  0  0  0  0  0  0  0  0
   -2.5502    0.4063   -0.6338 N   0  0  0  0  0  0  0  0  0  0  0  0
   -4.0083    0.4625   -0.3474 C   0  0  0  0  0  0  0  0  0  0  0  0
   -4.3973   -0.0846    1.0341 C   0  0  0  0  0  0  0  0  0  0  0  0
   -4.5896   -1.4587    1.2650 C   0  0  0  0  0  0  0  0  0  0  0  0
   -4.9381   -1.9307    2.5318 C   0  0  0  0  0  0  0  0  0  0  0  0
   -5.1013   -1.0380    3.5882 C   0  0  0  0  0  0  0  0  0  0  0  0
   -4.9171    0.3265    3.3796 C   0  0  0  0  0  0  0  0  0  0  0  0
   -4.5683    0.8004    2.1135 C   0  0  0  0  0  0  0  0  0  0  0  0
   -4.8861   -0.0416   -1.5140 C   0  0  0  0  0  0  0  0  0  0  0  0
   -6.2646   -0.2676   -1.3307 C   0  0  0  0  0  0  0  0  0  0  0  0
   -7.0803   -0.6778   -2.3890 C   0  0  0  0  0  0  0  0  0  0  0  0
   -6.5413   -0.8455   -3.6605 C   0  0  0  0  0  0  0  0  0  0  0  0
   -5.1906   -0.5905   -3.8768 C   0  0  0  0  0  0  0  0  0  0  0  0
   -4.3751   -0.1816   -2.8177 C   0  0  0  0  0  0  0  0  0  0  0  0
   -1.9446   -0.9355   -0.5441 C   0  0  0  0  0  0  0  0  0  0  0  0
   -0.4812   -0.9292   -1.0245 C   0  0  0  0  0  0  0  0  0  0  0  0
    3.2997   -0.1413   -5.2238 H   0  0  0  0  0  0  0  0  0  0  0  0
    4.4967    1.0439   -4.6637 H   0  0  0  0  0  0  0  0  0  0  0  0
    4.3745   -0.5555   -3.8742 H   0  0  0  0  0  0  0  0  0  0  0  0
    4.4137    0.6811   -1.6175 H   0  0  0  0  0  0  0  0  0  0  0  0
    4.3092    2.3056   -2.3083 H   0  0  0  0  0  0  0  0  0  0  0  0
    2.0888    2.5796   -0.9637 H   0  0  0  0  0  0  0  0  0  0  0  0
    3.6279    2.7348   -0.1626 H   0  0  0  0  0  0  0  0  0  0  0  0
    2.1025    1.4224    1.2422 H   0  0  0  0  0  0  0  0  0  0  0  0
    3.9502   -0.6690    0.6330 H   0  0  0  0  0  0  0  0  0  0  0  0
    4.3813   -1.4926    3.0701 H   0  0  0  0  0  0  0  0  0  0  0  0
    6.2055   -2.9343    3.9224 H   0  0  0  0  0  0  0  0  0  0  0  0
    8.5700   -2.2095    3.6990 H   0  0  0  0  0  0  0  0  0  0  0  0
    9.1140   -0.0584    2.6083 H   0  0  0  0  0  0  0  0  0  0  0  0
   -0.2211    1.8450   -1.2779 H   0  0  0  0  0  0  0  0  0  0  0  0
    0.2567    2.0619    0.4101 H   0  0  0  0  0  0  0  0  0  0  0  0
   -1.7956    1.0774    1.2352 H   0  0  0  0  0  0  0  0  0  0  0  0
   -2.1809    2.3657    0.0837 H   0  0  0  0  0  0  0  0  0  0  0  0
   -4.2695    1.5325   -0.3387 H   0  0  0  0  0  0  0  0  0  0  0  0
   -4.4733   -2.1725    0.4515 H   0  0  0  0  0  0  0  0  0  0  0  0
   -5.0842   -2.9955    2.6922 H   0  0  0  0  0  0  0  0  0  0  0  0
   -5.3733   -1.4063    4.5740 H   0  0  0  0  0  0  0  0  0  0  0  0
   -5.0463    1.0241    4.2032 H   0  0  0  0  0  0  0  0  0  0  0  0
   -4.4297    1.8702    1.9735 H   0  0  0  0  0  0  0  0  0  0  0  0
   -6.7237   -0.1242   -0.3542 H   0  0  0  0  0  0  0  0  0  0  0  0
   -8.1386   -0.8586   -2.2184 H   0  0  0  0  0  0  0  0  0  0  0  0
   -7.1753   -1.1614   -4.4844 H   0  0  0  0  0  0  0  0  0  0  0  0
   -4.7688   -0.7002   -4.8724 H   0  0  0  0  0  0  0  0  0  0  0  0
   -3.3296    0.0352   -3.0265 H   0  0  0  0  0  0  0  0  0  0  0  0
   -1.9538   -1.2985    0.4907 H   0  0  0  0  0  0  0  0  0  0  0  0
   -2.4971   -1.6570   -1.1556 H   0  0  0  0  0  0  0  0  0  0  0  0
   -0.4367   -0.7029   -2.0971 H   0  0  0  0  0  0  0  0  0  0  0  0
   -0.0535   -1.9275   -0.8838 H   0  0  0  0  0  0  0  0  0  0  0  0
  1  2  1  0
  2  3  1  0
  3  4  1  0
  4  5  1  0
  5  6  1  0
  6  7  1  0
  7  8  2  0
  7  9  1  0
  9 10  2  0
 10 11  1  0
 11 12  2  0
 12 13  1  0
 13 14  2  0
 14 15  1  0
  5 16  1  0
 16 17  2  0
 16 18  1  0
 18 19  1  0
 19 20  1  0
 20 21  1  0
 21 22  1  0
 22 23  1  0
 23 24  2  0
 24 25  1  0
 25 26  2  0
 26 27  1  0
 27 28  2  0
 22 29  1  0
 29 30  2  0
 30 31  1  0
 31 32  2  0
 32 33  1  0
 33 34  2  0
 21 35  1  0
 35 36  1  0
 14  9  1  0
 36 18  1  0
 28 23  1  0
 34 29  1  0
  1 37  1  0
  1 38  1  0
  1 39  1  0
  3 40  1  0
  3 41  1  0
  4 42  1  0
  4 43  1  0
  5 44  1  0
  6 45  1  0
 10 46  1  0
 11 47  1  0
 12 48  1  0
 13 49  1  0
 19 50  1  0
 19 51  1  0
 20 52  1  0
 20 53  1  0
 22 54  1  0
 24 55  1  0
 25 56  1  0
 26 57  1  0
 27 58  1  0
 28 59  1  0
 30 60  1  0
 31 61  1  0
 32 62  1  0
 33 63  1  0
 34 64  1  0
 35 65  1  0
 35 66  1  0
 36 67  1  0
 36 68  1  0
M  END
$$$$
