
     RDKit          3D

 77 83  0  0  0  0  0  0  0  0999 V2000
   -7.3732   -2.3298    0.7529 C   0  0  0  0  0  0  0  0  0  0  0  0
   -6.7881   -2.3389   -0.6636 C   0  0  0  0  0  0  0  0  0  0  0  0
   -6.9317   -3.7541   -1.2443 C   0  0  0  0  0  0  0  0  0  0  0  0
   -7.5086   -1.3552   -1.5921 C   0  0  0  0  0  0  0  0  0  0  0  0
   -5.3580   -2.0972   -0.6423 O   0  0  0  0  0  0  0  0  0  0  0  0
   -4.8512   -0.9232   -0.1880 C   0  0  0  0  0  0  0  0  0  0  0  0
   -5.5263    0.0129    0.2207 O   0  0  0  0  0  0  0  0  0  0  0  0
   -3.4678   -0.9005   -0.2328 N   0  0  0  0  0  0  0  0  0  0  0  0
   -2.6966   -1.9361   -0.9480 C   0  0  0  0  0  0  0  0  0  0  0  0
   -1.2037   -2.0135   -0.5330 C   0  0  0  0  0  0  0  0  0  0  0  0
   -0.6459   -0.6726   -0.5038 N   0  0  0  0  0  0  0  0  0  0  0  0
   -1.3737    0.1741    0.4929 C   0  0  2  0  0  0  0  0  0  0  0  0
   -2.7953    0.3911   -0.0099 C   0  0  0  0  0  0  0  0  0  0  0  0
   -0.4527    1.3273    0.5796 C   0  0  0  0  0  0  0  0  0  0  0  0
    0.8268    0.9510    0.1416 C   0  0  0  0  0  0  0  0  0  0  0  0
    1.6702    2.0230    0.2853 C   0  0  0  0  0  0  0  0  0  0  0  0
    2.9549    2.1415   -0.0437 O   0  0  0  0  0  0  0  0  0  0  0  0
    0.9118    3.0928    0.8196 N   0  0  0  0  0  0  0  0  0  0  0  0
    1.3983    4.4120    1.1302 C   0  0  0  0  0  0  0  0  0  0  0  0
    0.5238    5.5079    1.1779 C   0  0  0  0  0  0  0  0  0  0  0  0
    0.9967    6.7898    1.4801 C   0  0  0  0  0  0  0  0  0  0  0  0
    2.3479    6.9943    1.7413 C   0  0  0  0  0  0  0  0  0  0  0  0
    3.2281    5.9172    1.6993 C   0  0  0  0  0  0  0  0  0  0  0  0
    2.7582    4.6350    1.3947 C   0  0  0  0  0  0  0  0  0  0  0  0
   -0.4114    2.6254    1.0088 C   0  0  0  0  0  0  0  0  0  0  0  0
   -1.3639    3.3606    1.5777 O   0  0  0  0  0  0  0  0  0  0  0  0
    0.8062   -0.4667   -0.3182 C   0  0  1  0  0  0  0  0  0  0  0  0
    1.4929   -1.4247    0.6864 C   0  0  0  0  0  0  0  0  0  0  0  0
    1.1472   -1.6730    1.8337 O   0  0  0  0  0  0  0  0  0  0  0  0
    2.6101   -1.9569    0.0207 N   0  0  0  0  0  0  0  0  0  0  0  0
    3.5949   -2.7937    0.6678 C   0  0  0  0  0  0  0  0  0  0  0  0
    4.8262   -2.0180    1.0793 C   0  0  0  0  0  0  0  0  0  0  0  0
    4.7300   -0.9604    1.9975 C   0  0  0  0  0  0  0  0  0  0  0  0
    5.8626   -0.2319    2.3618 C   0  0  0  0  0  0  0  0  0  0  0  0
    7.1048   -0.5568    1.8217 C   0  0  0  0  0  0  0  0  0  0  0  0
    7.2168   -1.6135    0.9208 C   0  0  0  0  0  0  0  0  0  0  0  0
    6.0848   -2.3426    0.5523 C   0  0  0  0  0  0  0  0  0  0  0  0
    2.6971   -1.4772   -1.2959 C   0  0  0  0  0  0  0  0  0  0  0  0
    3.6432   -1.7681   -2.2614 C   0  0  0  0  0  0  0  0  0  0  0  0
    3.5113   -1.1615   -3.5139 C   0  0  0  0  0  0  0  0  0  0  0  0
    2.4470   -0.2852   -3.7813 C   0  0  0  0  0  0  0  0  0  0  0  0
    1.4988    0.0017   -2.7984 C   0  0  0  0  0  0  0  0  0  0  0  0
    1.6397   -0.5971   -1.5544 C   0  0  0  0  0  0  0  0  0  0  0  0
   -7.3614   -1.3284    1.1944 H   0  0  0  0  0  0  0  0  0  0  0  0
   -8.4118   -2.6776    0.7581 H   0  0  0  0  0  0  0  0  0  0  0  0
   -6.7868   -2.9733    1.4192 H   0  0  0  0  0  0  0  0  0  0  0  0
   -7.9787   -4.0717   -1.2909 H   0  0  0  0  0  0  0  0  0  0  0  0
   -6.3733   -4.4821   -0.6427 H   0  0  0  0  0  0  0  0  0  0  0  0
   -6.5106   -3.8033   -2.2558 H   0  0  0  0  0  0  0  0  0  0  0  0
   -8.5542   -1.6437   -1.7443 H   0  0  0  0  0  0  0  0  0  0  0  0
   -7.0147   -1.3105   -2.5697 H   0  0  0  0  0  0  0  0  0  0  0  0
   -7.5063   -0.3369   -1.1918 H   0  0  0  0  0  0  0  0  0  0  0  0
   -2.7708   -1.6972   -2.0162 H   0  0  0  0  0  0  0  0  0  0  0  0
   -3.1587   -2.9173   -0.7975 H   0  0  0  0  0  0  0  0  0  0  0  0
   -1.1273   -2.4954    0.4491 H   0  0  0  0  0  0  0  0  0  0  0  0
   -0.6731   -2.6437   -1.2554 H   0  0  0  0  0  0  0  0  0  0  0  0
   -1.3978   -0.3288    1.4707 H   0  0  0  0  0  0  0  0  0  0  0  0
   -3.3640    0.9915    0.7093 H   0  0  0  0  0  0  0  0  0  0  0  0
   -2.8080    0.9355   -0.9632 H   0  0  0  0  0  0  0  0  0  0  0  0
    3.2497    1.3106   -0.4571 H   0  0  0  0  0  0  0  0  0  0  0  0
   -0.5322    5.4055    0.9496 H   0  0  0  0  0  0  0  0  0  0  0  0
    0.3043    7.6274    1.5059 H   0  0  0  0  0  0  0  0  0  0  0  0
    2.7137    7.9892    1.9788 H   0  0  0  0  0  0  0  0  0  0  0  0
    4.2839    6.0678    1.9106 H   0  0  0  0  0  0  0  0  0  0  0  0
    3.4781    3.8227    1.4081 H   0  0  0  0  0  0  0  0  0  0  0  0
   -2.1470    2.8013    1.7155 H   0  0  0  0  0  0  0  0  0  0  0  0
    3.1550   -3.2454    1.5651 H   0  0  0  0  0  0  0  0  0  0  0  0
    3.8494   -3.6206   -0.0058 H   0  0  0  0  0  0  0  0  0  0  0  0
    3.7690   -0.6966    2.4371 H   0  0  0  0  0  0  0  0  0  0  0  0
    5.7730    0.5886    3.0695 H   0  0  0  0  0  0  0  0  0  0  0  0
    7.9858    0.0119    2.1065 H   0  0  0  0  0  0  0  0  0  0  0  0
    8.1881   -1.8698    0.5052 H   0  0  0  0  0  0  0  0  0  0  0  0
    6.1954   -3.1645   -0.1511 H   0  0  0  0  0  0  0  0  0  0  0  0
    4.4681   -2.4454   -2.0754 H   0  0  0  0  0  0  0  0  0  0  0  0
    4.2412   -1.3698   -4.2934 H   0  0  0  0  0  0  0  0  0  0  0  0
    2.3631    0.1768   -4.7628 H   0  0  0  0  0  0  0  0  0  0  0  0
    0.6772    0.6839   -2.9990 H   0  0  0  0  0  0  0  0  0  0  0  0
  1  2  1  0
  2  3  1  0
  2  4  1  0
  2  5  1  0
  5  6  1  0
  6  7  2  0
  6  8  1  0
  8  9  1  0
  9 10  1  0
 10 11  1  0
 11 12  1  0
 12 13  1  0
 12 14  1  0
 14 15  1  0
 15 16  2  0
 16 17  1  0
 16 18  1  0
 18 19  1  0
 19 20  2  0
 20 21  1  0
 21 22  2  0
 22 23  1  0
 23 24  2  0
 18 25  1  0
 25 26  1  0
 15 27  1  0
 27 28  1  0
 28 29  2  0
 28 30  1  0
 30 31  1  0
 31 32  1  0
 32 33  2  0
 33 34  1  0
 34 35  2  0
 35 36  1  0
 36 37  2  0
 30 38  1  0
 38 39  2  0
 39 40  1  0
 40 41  2  0
 41 42  1  0
 42 43  2  0
 13  8  1  0
 25 14  2  0
 43 27  1  0
 27 11  1  6
 37 32  1  0
 43 38  1  0
 24 19  1  0
  1 44  1  0
  1 45  1  0
  1 46  1  0
  3 47  1  0
  3 48  1  0
  3 49  1  0
  4 50  1  0
  4 51  1  0
  4 52  1  0
  9 53  1  0
  9 54  1  0
 10 55  1  0
 10 56  1  0
 12 57  1  1
 13 58  1  0
 13 59  1  0
 17 60  1  0
 20 61  1  0
 21 62  1  0
 22 63  1  0
 23 64  1  0
 24 65  1  0
 26 66  1  0
 31 67  1  0
 31 68  1  0
 33 69  1  0
 34 70  1  0
 35 71  1  0
 36 72  1  0
 37 73  1  0
 39 74  1  0
 40 75  1  0
 41 76  1  0
 42 77  1  0
M  END
$$$$
