
     RDKit          3D

 46 47  0  0  0  0  0  0  0  0999 V2000
    7.3031   -3.0355    0.2654 O   0  0  0  0  0  0  0  0  0  0  0  0
    7.2014   -2.4491    1.3295 C   0  0  0  0  0  0  0  0  0  0  0  0
    8.1146   -2.6259    2.3023 O   0  0  0  0  0  0  0  0  0  0  0  0
    6.1104   -1.5051    1.7400 C   0  0  0  0  0  0  0  0  0  0  0  0
    5.2158   -1.1699    0.5530 C   0  0  0  0  0  0  0  0  0  0  0  0
    4.0922   -0.2265    0.9374 C   0  0  0  0  0  0  0  0  0  0  0  0
    3.9712    0.2086    2.0764 O   0  0  0  0  0  0  0  0  0  0  0  0
    3.2710    0.0494   -0.1442 N   0  0  0  0  0  0  0  0  0  0  0  0
    2.1422    0.8936   -0.1734 C   0  0  0  0  0  0  0  0  0  0  0  0
    1.6910    1.6337    0.9234 C   0  0  0  0  0  0  0  0  0  0  0  0
    0.5602    2.4508    0.8144 C   0  0  0  0  0  0  0  0  0  0  0  0
   -0.1293    2.5193   -0.3971 C   0  0  0  0  0  0  0  0  0  0  0  0
   -1.5623    3.5607   -0.5273 S   0  0  0  0  0  6  0  0  0  0  0  0
   -1.8887    3.7086   -1.9284 O   0  0  0  0  0  0  0  0  0  0  0  0
   -1.3597    4.7028    0.3350 O   0  0  0  0  0  0  0  0  0  0  0  0
   -2.7565    2.6259    0.1904 N   0  0  0  0  0  0  0  0  0  0  0  0
   -3.0614    1.2995   -0.3575 C   0  0  0  0  0  0  0  0  0  0  0  0
   -4.5068    0.9286   -0.0224 C   0  0  0  0  0  0  0  0  0  0  0  0
   -4.8504   -0.4551   -0.5125 C   0  0  0  0  0  0  0  0  0  0  0  0
   -4.6616   -1.5698    0.3159 C   0  0  0  0  0  0  0  0  0  0  0  0
   -4.9571   -2.8523   -0.1477 C   0  0  0  0  0  0  0  0  0  0  0  0
   -5.4386   -3.0332   -1.4428 C   0  0  0  0  0  0  0  0  0  0  0  0
   -5.6259   -1.9317   -2.2758 C   0  0  0  0  0  0  0  0  0  0  0  0
   -5.3310   -0.6483   -1.8145 C   0  0  0  0  0  0  0  0  0  0  0  0
    0.3171    1.8010   -1.5067 C   0  0  0  0  0  0  0  0  0  0  0  0
    1.4486    0.9888   -1.3891 C   0  0  0  0  0  0  0  0  0  0  0  0
    8.7591   -3.2589    1.9223 H   0  0  0  0  0  0  0  0  0  0  0  0
    5.5264   -1.9790    2.5366 H   0  0  0  0  0  0  0  0  0  0  0  0
    6.5680   -0.5894    2.1317 H   0  0  0  0  0  0  0  0  0  0  0  0
    4.7749   -2.0841    0.1381 H   0  0  0  0  0  0  0  0  0  0  0  0
    5.8093   -0.6946   -0.2373 H   0  0  0  0  0  0  0  0  0  0  0  0
    3.5012   -0.4130   -1.0157 H   0  0  0  0  0  0  0  0  0  0  0  0
    2.2033    1.6059    1.8806 H   0  0  0  0  0  0  0  0  0  0  0  0
    0.2339    3.0304    1.6752 H   0  0  0  0  0  0  0  0  0  0  0  0
   -2.8401    2.7711    1.1957 H   0  0  0  0  0  0  0  0  0  0  0  0
   -2.3733    0.5683    0.0817 H   0  0  0  0  0  0  0  0  0  0  0  0
   -2.9227    1.2889   -1.4441 H   0  0  0  0  0  0  0  0  0  0  0  0
   -4.6728    0.9864    1.0613 H   0  0  0  0  0  0  0  0  0  0  0  0
   -5.1971    1.6588   -0.4638 H   0  0  0  0  0  0  0  0  0  0  0  0
   -4.2870   -1.4474    1.3295 H   0  0  0  0  0  0  0  0  0  0  0  0
   -4.8126   -3.7112    0.5026 H   0  0  0  0  0  0  0  0  0  0  0  0
   -5.6703   -4.0322   -1.8019 H   0  0  0  0  0  0  0  0  0  0  0  0
   -6.0029   -2.0720   -3.2857 H   0  0  0  0  0  0  0  0  0  0  0  0
   -5.4832    0.2026   -2.4763 H   0  0  0  0  0  0  0  0  0  0  0  0
   -0.2036    1.8667   -2.4598 H   0  0  0  0  0  0  0  0  0  0  0  0
    1.7797    0.4338   -2.2638 H   0  0  0  0  0  0  0  0  0  0  0  0
  1  2  2  0
  2  3  1  0
  2  4  1  0
  4  5  1  0
  5  6  1  0
  6  7  2  0
  6  8  1  0
  8  9  1  0
  9 10  2  0
 10 11  1  0
 11 12  2  0
 12 13  1  0
 13 14  2  0
 13 15  2  0
 13 16  1  0
 16 17  1  0
 17 18  1  0
 18 19  1  0
 19 20  2  0
 20 21  1  0
 21 22  2  0
 22 23  1  0
 23 24  2  0
 12 25  1  0
 25 26  2  0
 26  9  1  0
 24 19  1  0
  3 27  1  0
  4 28  1  0
  4 29  1  0
  5 30  1  0
  5 31  1  0
  8 32  1  0
 10 33  1  0
 11 34  1  0
 16 35  1  0
 17 36  1  0
 17 37  1  0
 18 38  1  0
 18 39  1  0
 20 40  1  0
 21 41  1  0
 22 42  1  0
 23 43  1  0
 24 44  1  0
 25 45  1  0
 26 46  1  0
M  END
$$$$
