
     RDKit          3D

 44 46  0  0  0  0  0  0  0  0999 V2000
   -6.7097   -0.6976    2.0657 C   0  0  0  0  0  0  0  0  0  0  0  0
   -6.1671    0.1181    0.9244 C   0  0  0  0  0  0  0  0  0  0  0  0
   -6.9397    1.1570    0.3833 C   0  0  0  0  0  0  0  0  0  0  0  0
   -6.4478    1.9341   -0.6635 C   0  0  0  0  0  0  0  0  0  0  0  0
   -5.1770    1.6851   -1.1727 C   0  0  0  0  0  0  0  0  0  0  0  0
   -4.3976    0.6538   -0.6424 C   0  0  0  0  0  0  0  0  0  0  0  0
   -4.8898   -0.1432    0.3957 C   0  0  0  0  0  0  0  0  0  0  0  0
   -4.2013   -1.1720    0.9828 O   0  0  0  0  0  0  0  0  0  0  0  0
   -3.1369   -1.7557    0.2533 C   0  0  0  0  0  0  0  0  0  0  0  0
   -1.7529   -1.1153    0.4530 C   0  0  0  0  0  0  0  0  0  0  0  0
   -1.5587   -0.2150    1.2614 O   0  0  0  0  0  0  0  0  0  0  0  0
   -0.8096   -1.6843   -0.3808 N   0  0  0  0  0  0  0  0  0  0  0  0
    0.5169   -1.3454   -0.4771 C   0  0  0  0  0  0  0  0  0  0  0  0
    1.3294   -1.9631   -1.3054 N   0  0  0  0  0  0  0  0  0  0  0  0
    2.6143   -1.4635   -1.2449 N   0  0  0  0  0  0  0  0  0  0  0  0
    2.7219   -0.4817   -0.3719 C   0  0  0  0  0  0  0  0  0  0  0  0
    3.9855    0.2740   -0.0704 C   0  0  0  0  0  0  0  0  0  0  0  0
    5.0323   -0.6545    0.5643 C   0  0  0  0  0  0  0  0  0  0  0  0
    6.3435    0.0807    0.8348 C   0  0  0  0  0  0  0  0  0  0  0  0
    6.8880    0.7424   -0.4282 C   0  0  0  0  0  0  0  0  0  0  0  0
    5.8549    1.6626   -1.0701 C   0  0  0  0  0  0  0  0  0  0  0  0
    4.5412    0.9328   -1.3432 C   0  0  0  0  0  0  0  0  0  0  0  0
    1.2503   -0.1094    0.4335 S   0  0  0  0  0  0  0  0  0  0  0  0
   -6.7445   -1.7588    1.7938 H   0  0  0  0  0  0  0  0  0  0  0  0
   -7.7281   -0.3911    2.3296 H   0  0  0  0  0  0  0  0  0  0  0  0
   -6.0817   -0.5697    2.9541 H   0  0  0  0  0  0  0  0  0  0  0  0
   -7.9289    1.3708    0.7811 H   0  0  0  0  0  0  0  0  0  0  0  0
   -7.0513    2.7397   -1.0732 H   0  0  0  0  0  0  0  0  0  0  0  0
   -4.7846    2.3026   -1.9768 H   0  0  0  0  0  0  0  0  0  0  0  0
   -3.4012    0.5185   -1.0472 H   0  0  0  0  0  0  0  0  0  0  0  0
   -3.3723   -1.8264   -0.8164 H   0  0  0  0  0  0  0  0  0  0  0  0
   -3.0501   -2.7875    0.6154 H   0  0  0  0  0  0  0  0  0  0  0  0
   -1.0693   -2.4394   -1.0011 H   0  0  0  0  0  0  0  0  0  0  0  0
    3.7663    1.0754    0.6493 H   0  0  0  0  0  0  0  0  0  0  0  0
    5.2306   -1.5096   -0.0962 H   0  0  0  0  0  0  0  0  0  0  0  0
    4.6482   -1.0710    1.5043 H   0  0  0  0  0  0  0  0  0  0  0  0
    7.0847   -0.6221    1.2307 H   0  0  0  0  0  0  0  0  0  0  0  0
    6.1819    0.8431    1.6068 H   0  0  0  0  0  0  0  0  0  0  0  0
    7.7911    1.3136   -0.1848 H   0  0  0  0  0  0  0  0  0  0  0  0
    7.1841   -0.0326   -1.1461 H   0  0  0  0  0  0  0  0  0  0  0  0
    6.2531    2.0678   -2.0070 H   0  0  0  0  0  0  0  0  0  0  0  0
    5.6656    2.5172   -0.4089 H   0  0  0  0  0  0  0  0  0  0  0  0
    4.7072    0.1771   -2.1225 H   0  0  0  0  0  0  0  0  0  0  0  0
    3.8091    1.6424   -1.7494 H   0  0  0  0  0  0  0  0  0  0  0  0
  1  2  1  0
  2  3  2  0
  3  4  1  0
  4  5  2  0
  5  6  1  0
  6  7  2  0
  7  8  1  0
  8  9  1  0
  9 10  1  0
 10 11  2  0
 10 12  1  0
 12 13  1  0
 13 14  2  0
 14 15  1  0
 15 16  2  0
 16 17  1  0
 17 18  1  0
 18 19  1  0
 19 20  1  0
 20 21  1  0
 21 22  1  0
 16 23  1  0
  7  2  1  0
 23 13  1  0
 22 17  1  0
  1 24  1  0
  1 25  1  0
  1 26  1  0
  3 27  1  0
  4 28  1  0
  5 29  1  0
  6 30  1  0
  9 31  1  0
  9 32  1  0
 12 33  1  0
 17 34  1  0
 18 35  1  0
 18 36  1  0
 19 37  1  0
 19 38  1  0
 20 39  1  0
 20 40  1  0
 21 41  1  0
 21 42  1  0
 22 43  1  0
 22 44  1  0
M  END
$$$$
