
     RDKit          3D

 63 68  0  0  0  0  0  0  0  0999 V2000
   -2.0813    3.9195    4.5195 C   0  0  0  0  0  0  0  0  0  0  0  0
   -1.9965    2.5047    4.3917 O   0  0  0  0  0  0  0  0  0  0  0  0
   -1.9949    2.0019    3.1187 C   0  0  0  0  0  0  0  0  0  0  0  0
   -1.8717    0.6132    3.0401 C   0  0  0  0  0  0  0  0  0  0  0  0
   -1.8539   -0.0339    1.8013 C   0  0  0  0  0  0  0  0  0  0  0  0
   -1.9693    0.7008    0.6118 C   0  0  0  0  0  0  0  0  0  0  0  0
   -1.9495    0.0224   -0.7593 C   0  0  0  0  0  0  0  0  0  0  0  0
   -3.1031   -0.9487   -0.9228 C   0  0  0  0  0  0  0  0  0  0  0  0
   -4.4170   -0.4821   -1.0333 C   0  0  0  0  0  0  0  0  0  0  0  0
   -5.4712   -1.3806   -1.1969 C   0  0  0  0  0  0  0  0  0  0  0  0
   -5.2384   -2.7629   -1.2377 C   0  0  0  0  0  0  0  0  0  0  0  0
   -6.3039   -3.6606   -1.4035 C   0  0  0  0  0  0  0  0  0  0  0  0
   -6.0792   -5.0362   -1.4516 C   0  0  0  0  0  0  0  0  0  0  0  0
   -4.7873   -5.5318   -1.3297 C   0  0  0  0  0  0  0  0  0  0  0  0
   -3.7170   -4.6518   -1.1621 C   0  0  0  0  0  0  0  0  0  0  0  0
   -3.9174   -3.2551   -1.1159 C   0  0  0  0  0  0  0  0  0  0  0  0
   -2.8601   -2.3277   -0.9691 C   0  0  0  0  0  0  0  0  0  0  0  0
   -1.5785   -2.8305   -0.8786 O   0  0  0  0  0  0  0  0  0  0  0  0
   -0.4894   -1.9841   -1.0775 C   0  0  0  0  0  0  0  0  0  0  0  0
    0.7117   -2.6385   -1.2811 N   0  0  0  0  0  0  0  0  0  0  0  0
    1.7410   -1.8912   -1.5045 C   0  0  0  0  0  0  0  0  0  0  0  0
    1.7526   -0.5173   -1.5745 N   0  0  0  0  0  0  0  0  0  0  0  0
    3.0259    0.1680   -1.8003 C   0  0  0  0  0  0  0  0  0  0  0  0
    3.6314    0.6405   -0.4616 C   0  0  0  0  0  0  0  0  0  0  0  0
    4.7804    1.5388   -0.6609 N   0  0  0  0  0  0  0  0  0  0  0  0
    6.0102    0.8501   -1.1156 C   0  0  0  0  0  0  0  0  0  0  0  0
    7.1167    0.7856   -0.0487 C   0  0  0  0  0  0  0  0  0  0  0  0
    7.5136    2.0823    0.4154 O   0  0  0  0  0  0  0  0  0  0  0  0
    6.4255    3.0149    0.4855 C   0  0  0  0  0  0  0  0  0  0  0  0
    5.0463    2.3405    0.5536 C   0  0  0  0  0  0  0  0  0  0  0  0
    0.5687    0.1782   -1.3659 C   0  0  0  0  0  0  0  0  0  0  0  0
    0.4225    1.4655   -1.4405 N   0  0  0  0  0  0  0  0  0  0  0  0
   -0.6371   -0.6432   -1.0455 C   0  0  0  0  0  0  0  0  0  0  0  0
   -2.0917    2.0949    0.7013 C   0  0  0  0  0  0  0  0  0  0  0  0
   -2.1044    2.7420    1.9423 C   0  0  0  0  0  0  0  0  0  0  0  0
   -1.2036    4.4043    4.0815 H   0  0  0  0  0  0  0  0  0  0  0  0
   -2.0918    4.1577    5.5885 H   0  0  0  0  0  0  0  0  0  0  0  0
   -3.0098    4.3021    4.0819 H   0  0  0  0  0  0  0  0  0  0  0  0
   -1.7871    0.0297    3.9547 H   0  0  0  0  0  0  0  0  0  0  0  0
   -1.7551   -1.1165    1.7747 H   0  0  0  0  0  0  0  0  0  0  0  0
   -2.1034    0.7822   -1.5388 H   0  0  0  0  0  0  0  0  0  0  0  0
   -4.6224    0.5855   -0.9960 H   0  0  0  0  0  0  0  0  0  0  0  0
   -6.4830   -0.9912   -1.2930 H   0  0  0  0  0  0  0  0  0  0  0  0
   -7.3215   -3.2903   -1.5032 H   0  0  0  0  0  0  0  0  0  0  0  0
   -6.9153   -5.7169   -1.5876 H   0  0  0  0  0  0  0  0  0  0  0  0
   -4.6050   -6.6016   -1.3697 H   0  0  0  0  0  0  0  0  0  0  0  0
   -2.7134   -5.0652   -1.0698 H   0  0  0  0  0  0  0  0  0  0  0  0
    2.7250   -2.3649   -1.6598 H   0  0  0  0  0  0  0  0  0  0  0  0
    3.7298   -0.4976   -2.3185 H   0  0  0  0  0  0  0  0  0  0  0  0
    2.8841    1.0177   -2.4809 H   0  0  0  0  0  0  0  0  0  0  0  0
    2.8462    1.1776    0.0918 H   0  0  0  0  0  0  0  0  0  0  0  0
    3.9088   -0.2262    0.1593 H   0  0  0  0  0  0  0  0  0  0  0  0
    5.8076   -0.1632   -1.4798 H   0  0  0  0  0  0  0  0  0  0  0  0
    6.3910    1.4207   -1.9732 H   0  0  0  0  0  0  0  0  0  0  0  0
    6.7899    0.1945    0.8159 H   0  0  0  0  0  0  0  0  0  0  0  0
    8.0059    0.2967   -0.4597 H   0  0  0  0  0  0  0  0  0  0  0  0
    6.5848    3.6329    1.3722 H   0  0  0  0  0  0  0  0  0  0  0  0
    6.4932    3.6783   -0.3868 H   0  0  0  0  0  0  0  0  0  0  0  0
    4.2695    3.1086    0.6547 H   0  0  0  0  0  0  0  0  0  0  0  0
    5.0086    1.7007    1.4470 H   0  0  0  0  0  0  0  0  0  0  0  0
    1.2958    1.9412   -1.6605 H   0  0  0  0  0  0  0  0  0  0  0  0
   -2.1667    2.6926   -0.2049 H   0  0  0  0  0  0  0  0  0  0  0  0
   -2.1960    3.8232    1.9510 H   0  0  0  0  0  0  0  0  0  0  0  0
  1  2  1  0
  2  3  1  0
  3  4  2  0
  4  5  1  0
  5  6  2  0
  6  7  1  0
  7  8  1  0
  8  9  2  0
  9 10  1  0
 10 11  2  0
 11 12  1  0
 12 13  2  0
 13 14  1  0
 14 15  2  0
 15 16  1  0
 16 17  2  0
 17 18  1  0
 18 19  1  0
 19 20  1  0
 20 21  2  0
 21 22  1  0
 22 23  1  0
 23 24  1  0
 24 25  1  0
 25 26  1  0
 26 27  1  0
 27 28  1  0
 28 29  1  0
 29 30  1  0
 22 31  1  0
 31 32  2  3
 31 33  1  0
  6 34  1  0
 34 35  2  0
 35  3  1  0
 33  7  1  0
 17  8  1  0
 33 19  2  0
 16 11  1  0
 30 25  1  0
  1 36  1  0
  1 37  1  0
  1 38  1  0
  4 39  1  0
  5 40  1  0
  7 41  1  0
  9 42  1  0
 10 43  1  0
 12 44  1  0
 13 45  1  0
 14 46  1  0
 15 47  1  0
 21 48  1  0
 23 49  1  0
 23 50  1  0
 24 51  1  0
 24 52  1  0
 26 53  1  0
 26 54  1  0
 27 55  1  0
 27 56  1  0
 29 57  1  0
 29 58  1  0
 30 59  1  0
 30 60  1  0
 32 61  1  0
 34 62  1  0
 35 63  1  0
M  END
$$$$
