
     RDKit          3D

 58 61  0  0  0  0  0  0  0  0999 V2000
    8.6846    1.7737   -0.8223 C   0  0  0  0  0  0  0  0  0  0  0  0
    7.3434    1.2330   -1.2207 C   0  0  0  0  0  0  0  0  0  0  0  0
    6.5133    1.9617   -2.0802 C   0  0  0  0  0  0  0  0  0  0  0  0
    5.2496    1.4770   -2.4266 C   0  0  0  0  0  0  0  0  0  0  0  0
    4.7935    0.2550   -1.9160 C   0  0  0  0  0  0  0  0  0  0  0  0
    3.4224   -0.2639   -2.2612 C   0  0  0  0  0  0  0  0  0  0  0  0
    2.4745    0.0794   -1.2250 N   0  0  0  0  0  0  0  0  0  0  0  0
    2.0846   -0.8295   -0.2654 C   0  0  0  0  0  0  0  0  0  0  0  0
    2.4237   -2.0082   -0.2818 O   0  0  0  0  0  0  0  0  0  0  0  0
    1.1963   -0.2236    0.8250 C   0  0  0  0  0  0  0  0  0  0  0  0
   -0.1435    0.2757    0.2486 C   0  0  0  0  0  0  0  0  0  0  0  0
   -1.2751   -0.7210    0.4854 C   0  0  0  0  0  0  0  0  0  0  0  0
   -1.5298   -0.9793    1.9846 C   0  0  0  0  0  0  0  0  0  0  0  0
   -2.6126   -0.0619    2.5865 C   0  0  0  0  0  0  0  0  0  0  0  0
   -3.9344   -0.3937    2.0759 N   0  0  0  0  0  0  0  0  0  0  0  0
   -4.6447    0.2338    1.0626 C   0  0  0  0  0  0  0  0  0  0  0  0
   -4.3506    1.5359    0.7545 N   0  0  0  0  0  0  0  0  0  0  0  0
   -4.9519    2.2904   -0.2164 C   0  0  0  0  0  0  0  0  0  0  0  0
   -4.4273    3.8724   -0.4087 S   0  0  0  0  0  0  0  0  0  0  0  0
   -5.9354    1.7205   -0.9723 N   0  0  0  0  0  0  0  0  0  0  0  0
   -6.2551    0.4943   -0.7080 C   0  0  0  0  0  0  0  0  0  0  0  0
   -7.3292   -0.1457   -1.5192 C   0  0  0  0  0  0  0  0  0  0  0  0
   -7.7009   -1.4120   -1.2915 C   0  0  0  0  0  0  0  0  0  0  0  0
   -7.0914   -2.2144   -0.2609 C   0  0  0  0  0  0  0  0  0  0  0  0
   -6.1163   -1.7265    0.5191 C   0  0  0  0  0  0  0  0  0  0  0  0
   -5.6323   -0.3648    0.3561 C   0  0  0  0  0  0  0  0  0  0  0  0
   -0.2355   -0.8487    2.8131 C   0  0  0  0  0  0  0  0  0  0  0  0
    0.9994   -1.2048    1.9947 C   0  0  0  0  0  0  0  0  0  0  0  0
    5.6176   -0.4622   -1.0386 C   0  0  0  0  0  0  0  0  0  0  0  0
    6.8801    0.0234   -0.6923 C   0  0  0  0  0  0  0  0  0  0  0  0
    8.5794    2.4300    0.0473 H   0  0  0  0  0  0  0  0  0  0  0  0
    9.1350    2.3418   -1.6434 H   0  0  0  0  0  0  0  0  0  0  0  0
    9.3760    0.9620   -0.5713 H   0  0  0  0  0  0  0  0  0  0  0  0
    6.8469    2.9141   -2.4860 H   0  0  0  0  0  0  0  0  0  0  0  0
    4.6252    2.0619   -3.0979 H   0  0  0  0  0  0  0  0  0  0  0  0
    3.0646    0.1910   -3.1915 H   0  0  0  0  0  0  0  0  0  0  0  0
    3.4547   -1.3470   -2.4215 H   0  0  0  0  0  0  0  0  0  0  0  0
    2.3182    1.0631   -1.0543 H   0  0  0  0  0  0  0  0  0  0  0  0
    1.7412    0.6508    1.2083 H   0  0  0  0  0  0  0  0  0  0  0  0
   -0.0719    0.4832   -0.8247 H   0  0  0  0  0  0  0  0  0  0  0  0
   -0.4064    1.2275    0.7277 H   0  0  0  0  0  0  0  0  0  0  0  0
   -2.1787   -0.3778   -0.0253 H   0  0  0  0  0  0  0  0  0  0  0  0
   -1.0067   -1.6711    0.0042 H   0  0  0  0  0  0  0  0  0  0  0  0
   -1.8825   -2.0165    2.0725 H   0  0  0  0  0  0  0  0  0  0  0  0
   -2.3544    0.9906    2.4338 H   0  0  0  0  0  0  0  0  0  0  0  0
   -2.6441   -0.2137    3.6724 H   0  0  0  0  0  0  0  0  0  0  0  0
   -4.1859   -1.3656    2.2280 H   0  0  0  0  0  0  0  0  0  0  0  0
   -3.6573    2.0194    1.3025 H   0  0  0  0  0  0  0  0  0  0  0  0
   -7.7861    0.4604   -2.2923 H   0  0  0  0  0  0  0  0  0  0  0  0
   -8.4848   -1.8680   -1.8895 H   0  0  0  0  0  0  0  0  0  0  0  0
   -7.4477   -3.2322   -0.1340 H   0  0  0  0  0  0  0  0  0  0  0  0
   -5.6883   -2.3633    1.2827 H   0  0  0  0  0  0  0  0  0  0  0  0
   -0.1229    0.1741    3.1949 H   0  0  0  0  0  0  0  0  0  0  0  0
   -0.3009   -1.5015    3.6919 H   0  0  0  0  0  0  0  0  0  0  0  0
    0.9013   -2.2379    1.6401 H   0  0  0  0  0  0  0  0  0  0  0  0
    1.8890   -1.1855    2.6352 H   0  0  0  0  0  0  0  0  0  0  0  0
    5.2723   -1.4046   -0.6154 H   0  0  0  0  0  0  0  0  0  0  0  0
    7.4979   -0.5510   -0.0058 H   0  0  0  0  0  0  0  0  0  0  0  0
  1  2  1  0
  2  3  2  0
  3  4  1  0
  4  5  2  0
  5  6  1  0
  6  7  1  0
  7  8  1  0
  8  9  2  0
  8 10  1  0
 10 11  1  0
 11 12  1  0
 12 13  1  0
 13 14  1  0
 14 15  1  0
 15 16  1  0
 16 17  1  0
 17 18  1  0
 18 19  2  0
 18 20  1  0
 20 21  2  0
 21 22  1  0
 22 23  2  0
 23 24  1  0
 24 25  2  0
 25 26  1  0
 13 27  1  0
 27 28  1  0
  5 29  1  0
 29 30  2  0
 30  2  1  0
 28 10  1  0
 26 16  2  0
 26 21  1  0
  1 31  1  0
  1 32  1  0
  1 33  1  0
  3 34  1  0
  4 35  1  0
  6 36  1  0
  6 37  1  0
  7 38  1  0
 10 39  1  0
 11 40  1  0
 11 41  1  0
 12 42  1  0
 12 43  1  0
 13 44  1  0
 14 45  1  0
 14 46  1  0
 15 47  1  0
 17 48  1  0
 22 49  1  0
 23 50  1  0
 24 51  1  0
 25 52  1  0
 27 53  1  0
 27 54  1  0
 28 55  1  0
 28 56  1  0
 29 57  1  0
 30 58  1  0
M  END
$$$$
