
     RDKit          3D

 25 26  0  0  0  0  0  0  0  0999 V2000
    3.8951   -1.4962   -0.3267 C   0  0  0  0  0  0  0  0  0  0  0  0
    3.3418   -0.1573   -0.0562 C   0  0  0  0  0  0  0  0  0  0  0  0
    4.2298    0.8610    0.1590 O   0  0  0  0  0  0  0  0  0  0  0  0
    3.4423    1.9486    0.3762 C   0  0  0  0  0  0  0  0  0  0  0  0
    2.1481    1.7251    0.3210 N   0  0  0  0  0  0  0  0  0  0  0  0
    2.0680    0.3647    0.0415 C   0  0  0  0  0  0  0  0  0  0  0  0
    0.8028   -0.3499   -0.1143 C   0  0  0  0  0  0  0  0  0  0  0  0
    0.7611   -1.5490   -0.3604 O   0  0  0  0  0  0  0  0  0  0  0  0
   -0.2718    0.5012    0.0524 N   0  0  0  0  0  0  0  0  0  0  0  0
   -1.6425    0.2024   -0.0188 C   0  0  0  0  0  0  0  0  0  0  0  0
   -2.5380    1.2596    0.1914 C   0  0  0  0  0  0  0  0  0  0  0  0
   -3.9188    1.0462    0.1376 C   0  0  0  0  0  0  0  0  0  0  0  0
   -4.4102   -0.2286   -0.1273 C   0  0  0  0  0  0  0  0  0  0  0  0
   -6.1078   -0.4954   -0.1943 Cl  0  0  0  0  0  0  0  0  0  0  0  0
   -3.5318   -1.2876   -0.3380 C   0  0  0  0  0  0  0  0  0  0  0  0
   -2.1496   -1.0720   -0.2838 C   0  0  0  0  0  0  0  0  0  0  0  0
    3.5707   -1.8539   -1.3087 H   0  0  0  0  0  0  0  0  0  0  0  0
    4.9894   -1.4838   -0.3161 H   0  0  0  0  0  0  0  0  0  0  0  0
    3.5579   -2.2105    0.4306 H   0  0  0  0  0  0  0  0  0  0  0  0
    3.9526    2.8816    0.5712 H   0  0  0  0  0  0  0  0  0  0  0  0
   -0.0070    1.4630    0.2515 H   0  0  0  0  0  0  0  0  0  0  0  0
   -2.1742    2.2630    0.3997 H   0  0  0  0  0  0  0  0  0  0  0  0
   -4.6004    1.8762    0.3028 H   0  0  0  0  0  0  0  0  0  0  0  0
   -3.9098   -2.2853   -0.5453 H   0  0  0  0  0  0  0  0  0  0  0  0
   -1.4978   -1.9235   -0.4536 H   0  0  0  0  0  0  0  0  0  0  0  0
  1  2  1  0
  2  3  1  0
  3  4  1  0
  4  5  2  0
  5  6  1  0
  6  7  1  0
  7  8  2  0
  7  9  1  0
  9 10  1  0
 10 11  2  0
 11 12  1  0
 12 13  2  0
 13 14  1  0
 13 15  1  0
 15 16  2  0
  6  2  2  0
 16 10  1  0
  1 17  1  0
  1 18  1  0
  1 19  1  0
  4 20  1  0
  9 21  1  0
 11 22  1  0
 12 23  1  0
 15 24  1  0
 16 25  1  0
M  END
$$$$
