
     RDKit          3D

 38 40  0  0  0  0  0  0  0  0999 V2000
    1.4702    1.7284    1.5507 O   0  0  0  0  0  0  0  0  0  0  0  0
    1.1422    0.5664    1.3229 C   0  0  0  0  0  0  0  0  0  0  0  0
   -0.0131   -0.0815    2.0974 C   0  0  0  0  0  0  0  0  0  0  0  0
   -1.0968   -0.5275    1.2084 N   0  0  0  0  0  0  0  0  0  0  0  0
   -1.0012   -1.8070    0.6712 C   0  0  0  0  0  0  0  0  0  0  0  0
    0.0147   -2.4972    0.7957 O   0  0  0  0  0  0  0  0  0  0  0  0
   -2.2048   -2.3376   -0.0700 C   0  0  0  0  0  0  0  0  0  0  0  0
   -2.1389   -2.0109   -1.5465 C   0  0  0  0  0  0  0  0  0  0  0  0
   -1.6595   -0.3022   -1.9438 S   0  0  0  0  0  0  0  0  0  0  0  0
   -2.4320    0.5843   -0.5918 C   0  0  0  0  0  0  0  0  0  0  0  0
   -3.3711    1.5619   -0.9576 C   0  0  0  0  0  0  0  0  0  0  0  0
   -3.9464    2.3936    0.0009 C   0  0  0  0  0  0  0  0  0  0  0  0
   -3.5757    2.2679    1.3336 C   0  0  0  0  0  0  0  0  0  0  0  0
   -2.6326    1.3088    1.7106 C   0  0  0  0  0  0  0  0  0  0  0  0
   -2.0509    0.4479    0.7638 C   0  0  0  0  0  0  0  0  0  0  0  0
    1.7644   -0.3065    0.4465 N   0  0  0  0  0  0  0  0  0  0  0  0
    2.8328   -0.0423   -0.4295 C   0  0  0  0  0  0  0  0  0  0  0  0
    3.4500    1.2053   -0.5563 C   0  0  0  0  0  0  0  0  0  0  0  0
    4.5063    1.3824   -1.4557 C   0  0  0  0  0  0  0  0  0  0  0  0
    4.9415    0.3127   -2.2268 C   0  0  0  0  0  0  0  0  0  0  0  0
    5.9527    0.4851   -3.0879 F   0  0  0  0  0  0  0  0  0  0  0  0
    4.3398   -0.9334   -2.1175 C   0  0  0  0  0  0  0  0  0  0  0  0
    3.2853   -1.1103   -1.2186 C   0  0  0  0  0  0  0  0  0  0  0  0
   -0.3734    0.6241    2.8505 H   0  0  0  0  0  0  0  0  0  0  0  0
    0.3887   -0.9403    2.6493 H   0  0  0  0  0  0  0  0  0  0  0  0
   -3.1292   -1.9639    0.3856 H   0  0  0  0  0  0  0  0  0  0  0  0
   -2.2386   -3.4251    0.0689 H   0  0  0  0  0  0  0  0  0  0  0  0
   -1.4078   -2.6637   -2.0358 H   0  0  0  0  0  0  0  0  0  0  0  0
   -3.1096   -2.2155   -2.0102 H   0  0  0  0  0  0  0  0  0  0  0  0
   -3.6483    1.6971   -2.0016 H   0  0  0  0  0  0  0  0  0  0  0  0
   -4.6707    3.1477   -0.2968 H   0  0  0  0  0  0  0  0  0  0  0  0
   -4.0188    2.9181    2.0845 H   0  0  0  0  0  0  0  0  0  0  0  0
   -2.3964    1.2267    2.7681 H   0  0  0  0  0  0  0  0  0  0  0  0
    1.3959   -1.2583    0.4324 H   0  0  0  0  0  0  0  0  0  0  0  0
    3.1315    2.0623    0.0283 H   0  0  0  0  0  0  0  0  0  0  0  0
    4.9866    2.3503   -1.5564 H   0  0  0  0  0  0  0  0  0  0  0  0
    4.6917   -1.7567   -2.7300 H   0  0  0  0  0  0  0  0  0  0  0  0
    2.8214   -2.0912   -1.1429 H   0  0  0  0  0  0  0  0  0  0  0  0
  1  2  2  0
  2  3  1  0
  3  4  1  0
  4  5  1  0
  5  6  2  0
  5  7  1  0
  7  8  1  0
  8  9  1  0
  9 10  1  0
 10 11  2  0
 11 12  1  0
 12 13  2  0
 13 14  1  0
 14 15  2  0
  2 16  1  0
 16 17  1  0
 17 18  2  0
 18 19  1  0
 19 20  2  0
 20 21  1  0
 20 22  1  0
 22 23  2  0
 15  4  1  0
 23 17  1  0
 15 10  1  0
  3 24  1  0
  3 25  1  0
  7 26  1  0
  7 27  1  0
  8 28  1  0
  8 29  1  0
 11 30  1  0
 12 31  1  0
 13 32  1  0
 14 33  1  0
 16 34  1  0
 18 35  1  0
 19 36  1  0
 22 37  1  0
 23 38  1  0
M  END
$$$$
