
     RDKit          3D

 67 72  0  0  0  0  0  0  0  0999 V2000
    6.1927    1.9931   -0.2922 C   0  0  0  0  0  0  0  0  0  0  0  0
    5.6096    1.3143    0.9542 C   0  0  0  0  0  0  0  0  0  0  0  0
    5.2774    2.3995    1.9922 C   0  0  0  0  0  0  0  0  0  0  0  0
    6.5966    0.3250    1.5811 C   0  0  0  0  0  0  0  0  0  0  0  0
    4.3362    0.6851    0.6581 O   0  0  0  0  0  0  0  0  0  0  0  0
    4.2513   -0.3305   -0.2392 C   0  0  0  0  0  0  0  0  0  0  0  0
    5.2084   -0.8296   -0.8177 O   0  0  0  0  0  0  0  0  0  0  0  0
    2.9499   -0.7425   -0.4379 N   0  0  0  0  0  0  0  0  0  0  0  0
    2.6908   -1.8203   -1.3914 C   0  0  0  0  0  0  0  0  0  0  0  0
    1.2506   -2.3584   -1.3043 C   0  0  0  0  0  0  0  0  0  0  0  0
    0.2693   -1.2953   -1.4983 N   0  0  0  0  0  0  0  0  0  0  0  0
    0.5827   -0.0243   -0.7555 C   0  0  2  0  0  0  0  0  0  0  0  0
    1.7838   -0.1306    0.2071 C   0  0  0  0  0  0  0  0  0  0  0  0
   -0.6965    0.2917   -0.0834 C   0  0  0  0  0  0  0  0  0  0  0  0
   -1.6986   -0.6275   -0.4251 C   0  0  0  0  0  0  0  0  0  0  0  0
   -2.8474   -0.2827    0.2412 C   0  0  0  0  0  0  0  0  0  0  0  0
   -4.0505   -0.8409    0.2930 O   0  0  0  0  0  0  0  0  0  0  0  0
   -2.5580    0.8745    0.9481 N   0  0  0  0  0  0  0  0  0  0  0  0
   -3.5005    1.5931    1.7965 C   0  0  0  0  0  0  0  0  0  0  0  0
   -4.1969    2.7056    1.0521 C   0  0  0  0  0  0  0  0  0  0  0  0
   -3.6948    4.0146    1.0929 C   0  0  0  0  0  0  0  0  0  0  0  0
   -4.3390    5.0432    0.4028 C   0  0  0  0  0  0  0  0  0  0  0  0
   -5.4890    4.7750   -0.3385 C   0  0  0  0  0  0  0  0  0  0  0  0
   -5.9929    3.4768   -0.3948 C   0  0  0  0  0  0  0  0  0  0  0  0
   -5.3492    2.4470    0.2945 C   0  0  0  0  0  0  0  0  0  0  0  0
   -1.2273    1.2224    0.7694 C   0  0  0  0  0  0  0  0  0  0  0  0
   -0.7071    2.2888    1.3638 O   0  0  0  0  0  0  0  0  0  0  0  0
   -1.1784   -1.6416   -1.3669 C   0  0  1  0  0  0  0  0  0  0  0  0
   -1.8596   -1.5801   -2.7738 C   0  0  0  0  0  0  0  0  0  0  0  0
   -1.8615   -0.6704   -3.5909 O   0  0  0  0  0  0  0  0  0  0  0  0
   -2.5014   -2.8060   -2.9640 N   0  0  0  0  0  0  0  0  0  0  0  0
   -2.3542   -3.6336   -1.8608 C   0  0  0  0  0  0  0  0  0  0  0  0
   -2.8911   -4.8952   -1.7043 C   0  0  0  0  0  0  0  0  0  0  0  0
   -2.6596   -5.5463   -0.4911 C   0  0  0  0  0  0  0  0  0  0  0  0
   -1.9150   -4.9240    0.5269 C   0  0  0  0  0  0  0  0  0  0  0  0
   -1.3805   -3.6436    0.3450 C   0  0  0  0  0  0  0  0  0  0  0  0
   -1.5949   -3.0030   -0.8682 C   0  0  0  0  0  0  0  0  0  0  0  0
    6.5155    1.2618   -1.0405 H   0  0  0  0  0  0  0  0  0  0  0  0
    7.0625    2.6105   -0.0413 H   0  0  0  0  0  0  0  0  0  0  0  0
    5.4422    2.6293   -0.7752 H   0  0  0  0  0  0  0  0  0  0  0  0
    4.5380    3.1051    1.5951 H   0  0  0  0  0  0  0  0  0  0  0  0
    6.1675    2.9637    2.2898 H   0  0  0  0  0  0  0  0  0  0  0  0
    4.8313    1.9562    2.8913 H   0  0  0  0  0  0  0  0  0  0  0  0
    6.1332   -0.2171    2.4124 H   0  0  0  0  0  0  0  0  0  0  0  0
    6.9295   -0.4333    0.8638 H   0  0  0  0  0  0  0  0  0  0  0  0
    7.4904    0.8377    1.9542 H   0  0  0  0  0  0  0  0  0  0  0  0
    3.4078   -2.6304   -1.2145 H   0  0  0  0  0  0  0  0  0  0  0  0
    2.8895   -1.4226   -2.3943 H   0  0  0  0  0  0  0  0  0  0  0  0
    1.1195   -3.1322   -2.0681 H   0  0  0  0  0  0  0  0  0  0  0  0
    1.1357   -2.8293   -0.3228 H   0  0  0  0  0  0  0  0  0  0  0  0
    0.7986    0.7420   -1.5118 H   0  0  0  0  0  0  0  0  0  0  0  0
    1.5378   -0.7622    1.0715 H   0  0  0  0  0  0  0  0  0  0  0  0
    2.0306    0.8624    0.5990 H   0  0  0  0  0  0  0  0  0  0  0  0
   -4.0149   -1.6712   -0.2139 H   0  0  0  0  0  0  0  0  0  0  0  0
   -2.9514    1.9814    2.6629 H   0  0  0  0  0  0  0  0  0  0  0  0
   -4.2291    0.8762    2.1915 H   0  0  0  0  0  0  0  0  0  0  0  0
   -2.7905    4.2368    1.6560 H   0  0  0  0  0  0  0  0  0  0  0  0
   -3.9383    6.0530    0.4383 H   0  0  0  0  0  0  0  0  0  0  0  0
   -5.9874    5.5760   -0.8788 H   0  0  0  0  0  0  0  0  0  0  0  0
   -6.8836    3.2626   -0.9805 H   0  0  0  0  0  0  0  0  0  0  0  0
   -5.7465    1.4354    0.2310 H   0  0  0  0  0  0  0  0  0  0  0  0
    0.1869    2.4242    1.0060 H   0  0  0  0  0  0  0  0  0  0  0  0
   -3.0152   -3.0192   -3.8061 H   0  0  0  0  0  0  0  0  0  0  0  0
   -3.4767   -5.3676   -2.4855 H   0  0  0  0  0  0  0  0  0  0  0  0
   -3.0633   -6.5433   -0.3260 H   0  0  0  0  0  0  0  0  0  0  0  0
   -1.7568   -5.4453    1.4697 H   0  0  0  0  0  0  0  0  0  0  0  0
   -0.8181   -3.1636    1.1416 H   0  0  0  0  0  0  0  0  0  0  0  0
  1  2  1  0
  2  3  1  0
  2  4  1  0
  2  5  1  0
  5  6  1  0
  6  7  2  0
  6  8  1  0
  8  9  1  0
  9 10  1  0
 10 11  1  0
 11 12  1  0
 12 13  1  0
 12 14  1  0
 14 15  1  0
 15 16  2  0
 16 17  1  0
 16 18  1  0
 18 19  1  0
 19 20  1  0
 20 21  2  0
 21 22  1  0
 22 23  2  0
 23 24  1  0
 24 25  2  0
 18 26  1  0
 26 27  1  0
 15 28  1  0
 28 29  1  0
 29 30  2  0
 29 31  1  0
 31 32  1  0
 32 33  2  0
 33 34  1  0
 34 35  2  0
 35 36  1  0
 36 37  2  0
 13  8  1  0
 26 14  2  0
 37 28  1  0
 28 11  1  6
 37 32  1  0
 25 20  1  0
  1 38  1  0
  1 39  1  0
  1 40  1  0
  3 41  1  0
  3 42  1  0
  3 43  1  0
  4 44  1  0
  4 45  1  0
  4 46  1  0
  9 47  1  0
  9 48  1  0
 10 49  1  0
 10 50  1  0
 12 51  1  6
 13 52  1  0
 13 53  1  0
 17 54  1  0
 19 55  1  0
 19 56  1  0
 21 57  1  0
 22 58  1  0
 23 59  1  0
 24 60  1  0
 25 61  1  0
 27 62  1  0
 31 63  1  0
 33 64  1  0
 34 65  1  0
 35 66  1  0
 36 67  1  0
M  END
$$$$
