
     RDKit          3D

 33 35  0  0  0  0  0  0  0  0999 V2000
   -5.3523    0.8825    1.1822 C   0  0  0  0  0  0  0  0  0  0  0  0
   -4.7890   -0.2085    0.3224 C   0  0  0  0  0  0  0  0  0  0  0  0
   -5.6199   -1.1676   -0.2186 C   0  0  0  0  0  0  0  0  0  0  0  0
   -5.0101   -2.1251   -0.9934 C   0  0  0  0  0  0  0  0  0  0  0  0
   -3.6877   -2.1571   -1.2299 N   0  0  0  0  0  0  0  0  0  0  0  0
   -2.9546   -1.1885   -0.6574 C   0  0  0  0  0  0  0  0  0  0  0  0
   -1.2127   -1.2240   -0.9825 S   0  0  0  0  0  0  0  0  0  0  0  0
   -0.6440   -0.0898    0.3194 C   0  0  0  0  0  0  0  0  0  0  0  0
    0.8454    0.0064    0.3302 C   0  0  0  0  0  0  0  0  0  0  0  0
    1.6862    0.5833   -0.6023 C   0  0  0  0  0  0  0  0  0  0  0  0
    2.9647    0.4078   -0.1290 N   0  0  0  0  0  0  0  0  0  0  0  0
    4.2001    0.7877   -0.6848 C   0  0  0  0  0  0  0  0  0  0  0  0
    4.2316    1.4965   -2.0041 C   0  0  0  0  0  0  0  0  0  0  0  0
    5.3215    0.4904    0.0053 C   0  0  0  0  0  0  0  0  0  0  0  0
    5.2233   -0.2014    1.2805 C   0  0  0  0  0  0  0  0  0  0  0  0
    4.0332   -0.5581    1.7976 C   0  0  0  0  0  0  0  0  0  0  0  0
    2.8377   -0.2563    1.0894 C   0  0  0  0  0  0  0  0  0  0  0  0
    1.5776   -0.4971    1.3838 N   0  0  0  0  0  0  0  0  0  0  0  0
   -3.4566   -0.2041    0.1093 N   0  0  0  0  0  0  0  0  0  0  0  0
   -5.8444    0.4553    2.0615 H   0  0  0  0  0  0  0  0  0  0  0  0
   -6.0777    1.4745    0.6156 H   0  0  0  0  0  0  0  0  0  0  0  0
   -4.5600    1.5543    1.5281 H   0  0  0  0  0  0  0  0  0  0  0  0
   -6.6882   -1.1729   -0.0488 H   0  0  0  0  0  0  0  0  0  0  0  0
   -5.5838   -2.9195   -1.4618 H   0  0  0  0  0  0  0  0  0  0  0  0
   -1.0615    0.9090    0.1508 H   0  0  0  0  0  0  0  0  0  0  0  0
   -0.9918   -0.4481    1.2947 H   0  0  0  0  0  0  0  0  0  0  0  0
    1.4807    1.0757   -1.5412 H   0  0  0  0  0  0  0  0  0  0  0  0
    5.2556    1.7291   -2.3159 H   0  0  0  0  0  0  0  0  0  0  0  0
    3.7831    0.8759   -2.7869 H   0  0  0  0  0  0  0  0  0  0  0  0
    3.6828    2.4424   -1.9477 H   0  0  0  0  0  0  0  0  0  0  0  0
    6.3110    0.7491   -0.3584 H   0  0  0  0  0  0  0  0  0  0  0  0
    6.1449   -0.4263    1.8086 H   0  0  0  0  0  0  0  0  0  0  0  0
    3.9549   -1.0755    2.7465 H   0  0  0  0  0  0  0  0  0  0  0  0
  1  2  1  0
  2  3  2  0
  3  4  1  0
  4  5  2  0
  5  6  1  0
  6  7  1  0
  7  8  1  0
  8  9  1  0
  9 10  2  0
 10 11  1  0
 11 12  1  0
 12 13  1  0
 12 14  2  0
 14 15  1  0
 15 16  2  0
 16 17  1  0
 17 18  2  0
  6 19  2  0
 19  2  1  0
 18  9  1  0
 17 11  1  0
  1 20  1  0
  1 21  1  0
  1 22  1  0
  3 23  1  0
  4 24  1  0
  8 25  1  0
  8 26  1  0
 10 27  1  0
 13 28  1  0
 13 29  1  0
 13 30  1  0
 14 31  1  0
 15 32  1  0
 16 33  1  0
M  END
$$$$
