
     RDKit          3D

 55 58  0  0  0  0  0  0  0  0999 V2000
   -6.7701    0.7430   -2.8092 C   0  0  0  0  0  0  0  0  0  0  0  0
   -6.3740    0.0053   -1.6625 O   0  0  0  0  0  0  0  0  0  0  0  0
   -5.1241    0.2493   -1.1498 C   0  0  0  0  0  0  0  0  0  0  0  0
   -4.1813    1.0965   -1.7361 C   0  0  0  0  0  0  0  0  0  0  0  0
   -2.9275    1.2823   -1.1417 C   0  0  0  0  0  0  0  0  0  0  0  0
   -2.5813    0.6287    0.0513 C   0  0  0  0  0  0  0  0  0  0  0  0
   -1.2652    0.8191    0.6915 C   0  0  0  0  0  0  0  0  0  0  0  0
   -0.0922    0.9546   -0.0289 C   0  0  0  0  0  0  0  0  0  0  0  0
    1.0952    1.1344    0.6784 C   0  0  0  0  0  0  0  0  0  0  0  0
    2.3325    1.2629   -0.1101 C   0  0  0  0  0  0  0  0  0  0  0  0
    2.7655    2.3919   -0.3157 O   0  0  0  0  0  0  0  0  0  0  0  0
    2.9250    0.1012   -0.6007 N   0  0  0  0  0  0  0  0  0  0  0  0
    2.4908   -1.2587   -0.2630 C   0  0  0  0  0  0  0  0  0  0  0  0
    3.6678   -2.2253   -0.2200 C   0  0  0  0  0  0  0  0  0  0  0  0
    4.4560   -2.2533   -1.5321 C   0  0  0  0  0  0  0  0  0  0  0  0
    4.3109   -0.9650   -2.3557 C   0  0  0  0  0  0  0  0  0  0  0  0
    5.5066   -0.7468   -3.2602 C   0  0  0  0  0  0  0  0  0  0  0  0
    6.6435   -0.5804   -2.5511 F   0  0  0  0  0  0  0  0  0  0  0  0
    5.3387    0.3451   -4.0364 F   0  0  0  0  0  0  0  0  0  0  0  0
    5.6851   -1.8047   -4.0833 F   0  0  0  0  0  0  0  0  0  0  0  0
    4.1082    0.2460   -1.4535 C   0  0  0  0  0  0  0  0  0  0  0  0
    1.1157    1.2093    2.0831 C   0  0  0  0  0  0  0  0  0  0  0  0
    2.2794    1.4229    2.8623 C   0  0  0  0  0  0  0  0  0  0  0  0
    2.2082    1.4723    4.2525 C   0  0  0  0  0  0  0  0  0  0  0  0
    0.9803    1.3082    4.8782 C   0  0  0  0  0  0  0  0  0  0  0  0
   -0.1675    1.0974    4.1087 C   0  0  0  0  0  0  0  0  0  0  0  0
   -0.1245    1.0464    2.7220 C   0  0  0  0  0  0  0  0  0  0  0  0
   -1.2708    0.8413    2.0476 N   0  0  0  0  0  0  0  0  0  0  0  0
   -3.5450   -0.2161    0.6344 C   0  0  0  0  0  0  0  0  0  0  0  0
   -4.8022   -0.4168    0.0473 C   0  0  0  0  0  0  0  0  0  0  0  0
   -5.7770   -1.2350    0.5637 O   0  0  0  0  0  0  0  0  0  0  0  0
   -5.4850   -1.9238    1.7713 C   0  0  0  0  0  0  0  0  0  0  0  0
   -7.8011    0.4645   -3.0472 H   0  0  0  0  0  0  0  0  0  0  0  0
   -6.7547    1.8200   -2.6136 H   0  0  0  0  0  0  0  0  0  0  0  0
   -6.1495    0.4877   -3.6746 H   0  0  0  0  0  0  0  0  0  0  0  0
   -4.3901    1.6341   -2.6542 H   0  0  0  0  0  0  0  0  0  0  0  0
   -2.2308    1.9693   -1.6184 H   0  0  0  0  0  0  0  0  0  0  0  0
   -0.0825    0.9146   -1.1128 H   0  0  0  0  0  0  0  0  0  0  0  0
    1.9775   -1.2709    0.7027 H   0  0  0  0  0  0  0  0  0  0  0  0
    1.7690   -1.5679   -1.0283 H   0  0  0  0  0  0  0  0  0  0  0  0
    3.3224   -3.2366    0.0258 H   0  0  0  0  0  0  0  0  0  0  0  0
    4.3458   -1.9207    0.5893 H   0  0  0  0  0  0  0  0  0  0  0  0
    4.1177   -3.0979   -2.1433 H   0  0  0  0  0  0  0  0  0  0  0  0
    5.5091   -2.4560   -1.2986 H   0  0  0  0  0  0  0  0  0  0  0  0
    3.4219   -1.0722   -2.9916 H   0  0  0  0  0  0  0  0  0  0  0  0
    4.9672    0.3906   -0.7868 H   0  0  0  0  0  0  0  0  0  0  0  0
    4.0053    1.1576   -2.0530 H   0  0  0  0  0  0  0  0  0  0  0  0
    3.2478    1.5654    2.3850 H   0  0  0  0  0  0  0  0  0  0  0  0
    3.1061    1.6449    4.8405 H   0  0  0  0  0  0  0  0  0  0  0  0
    0.9069    1.3502    5.9622 H   0  0  0  0  0  0  0  0  0  0  0  0
   -1.1266    0.9757    4.6072 H   0  0  0  0  0  0  0  0  0  0  0  0
   -3.2815   -0.7135    1.5633 H   0  0  0  0  0  0  0  0  0  0  0  0
   -6.3543   -2.5352    2.0264 H   0  0  0  0  0  0  0  0  0  0  0  0
   -5.3156   -1.2223    2.5942 H   0  0  0  0  0  0  0  0  0  0  0  0
   -4.6316   -2.5977    1.6435 H   0  0  0  0  0  0  0  0  0  0  0  0
  1  2  1  0
  2  3  1  0
  3  4  2  0
  4  5  1  0
  5  6  2  0
  6  7  1  0
  7  8  2  0
  8  9  1  0
  9 10  1  0
 10 11  2  0
 10 12  1  0
 12 13  1  0
 13 14  1  0
 14 15  1  0
 15 16  1  0
 16 17  1  0
 17 18  1  0
 17 19  1  0
 17 20  1  0
 16 21  1  0
  9 22  2  0
 22 23  1  0
 23 24  2  0
 24 25  1  0
 25 26  2  0
 26 27  1  0
 27 28  2  0
  6 29  1  0
 29 30  2  0
 30 31  1  0
 31 32  1  0
 30  3  1  0
 28  7  1  0
 21 12  1  0
 27 22  1  0
  1 33  1  0
  1 34  1  0
  1 35  1  0
  4 36  1  0
  5 37  1  0
  8 38  1  0
 13 39  1  0
 13 40  1  0
 14 41  1  0
 14 42  1  0
 15 43  1  0
 15 44  1  0
 16 45  1  0
 21 46  1  0
 21 47  1  0
 23 48  1  0
 24 49  1  0
 25 50  1  0
 26 51  1  0
 29 52  1  0
 32 53  1  0
 32 54  1  0
 32 55  1  0
M  END
$$$$
