
     RDKit          3D

 49 52  0  0  0  0  0  0  0  0999 V2000
    1.0329   -0.0533    0.6039 O   0  0  0  0  0  0  0  0  0  0  0  0
    0.8436    0.5457   -0.4509 C   0  0  0  0  0  0  0  0  0  0  0  0
    1.9862    0.9843   -1.3786 C   0  0  0  0  0  0  0  0  0  0  0  0
    3.2661    0.9810   -0.6928 N   0  0  0  0  0  0  0  0  0  0  0  0
    4.0673   -0.1244   -0.8738 N   0  0  0  0  0  0  0  0  0  0  0  0
    5.1887   -0.1695   -0.2225 C   0  0  0  0  0  0  0  0  0  0  0  0
    6.0703   -1.3585   -0.3879 C   0  0  0  0  0  0  0  0  0  0  0  0
    5.4718   -2.6178   -0.5464 C   0  0  0  0  0  0  0  0  0  0  0  0
    6.2643   -3.7552   -0.7115 C   0  0  0  0  0  0  0  0  0  0  0  0
    7.6483   -3.6283   -0.7275 C   0  0  0  0  0  0  0  0  0  0  0  0
    8.4094   -4.7183   -0.8881 F   0  0  0  0  0  0  0  0  0  0  0  0
    8.2562   -2.3850   -0.5855 C   0  0  0  0  0  0  0  0  0  0  0  0
    7.4677   -1.2436   -0.4185 C   0  0  0  0  0  0  0  0  0  0  0  0
    5.6504    0.8840    0.7090 C   0  0  0  0  0  0  0  0  0  0  0  0
    4.8658    1.9535    0.8499 C   0  0  0  0  0  0  0  0  0  0  0  0
    3.5923    2.0605    0.1120 C   0  0  0  0  0  0  0  0  0  0  0  0
    2.9039    3.0704    0.2400 O   0  0  0  0  0  0  0  0  0  0  0  0
   -0.4016    0.8742   -0.9827 N   0  0  0  0  0  0  0  0  0  0  0  0
   -1.6710    0.5912   -0.4369 C   0  0  0  0  0  0  0  0  0  0  0  0
   -2.7865    1.0845   -1.1285 C   0  0  0  0  0  0  0  0  0  0  0  0
   -4.0846    0.8515   -0.6586 C   0  0  0  0  0  0  0  0  0  0  0  0
   -4.2803    0.1206    0.5172 C   0  0  0  0  0  0  0  0  0  0  0  0
   -5.6397   -0.1582    1.0544 C   0  0  0  0  0  0  0  0  0  0  0  0
   -5.8525   -1.1907    1.6803 O   0  0  0  0  0  0  0  0  0  0  0  0
   -6.5905    0.8203    0.8274 N   0  0  0  0  0  0  0  0  0  0  0  0
   -7.9231    0.7066    1.3299 C   0  0  0  0  0  0  0  0  0  0  0  0
   -9.0300    0.2121    0.4410 C   0  0  0  0  0  0  0  0  0  0  0  0
   -8.9994    1.6502    0.8675 C   0  0  0  0  0  0  0  0  0  0  0  0
   -3.1728   -0.3920    1.1983 C   0  0  0  0  0  0  0  0  0  0  0  0
   -1.8761   -0.1519    0.7268 C   0  0  0  0  0  0  0  0  0  0  0  0
    1.7842    1.9951   -1.7507 H   0  0  0  0  0  0  0  0  0  0  0  0
    2.0286    0.2977   -2.2314 H   0  0  0  0  0  0  0  0  0  0  0  0
    4.3877   -2.7166   -0.5342 H   0  0  0  0  0  0  0  0  0  0  0  0
    5.8108   -4.7344   -0.8287 H   0  0  0  0  0  0  0  0  0  0  0  0
    9.3392   -2.3132   -0.6146 H   0  0  0  0  0  0  0  0  0  0  0  0
    7.9568   -0.2769   -0.3400 H   0  0  0  0  0  0  0  0  0  0  0  0
    6.5662    0.7722    1.2715 H   0  0  0  0  0  0  0  0  0  0  0  0
    5.1078    2.7710    1.5159 H   0  0  0  0  0  0  0  0  0  0  0  0
   -0.4005    1.4149   -1.8384 H   0  0  0  0  0  0  0  0  0  0  0  0
   -2.6635    1.6526   -2.0473 H   0  0  0  0  0  0  0  0  0  0  0  0
   -4.9271    1.2207   -1.2366 H   0  0  0  0  0  0  0  0  0  0  0  0
   -6.2911    1.7233    0.4836 H   0  0  0  0  0  0  0  0  0  0  0  0
   -7.9604    0.3971    2.3730 H   0  0  0  0  0  0  0  0  0  0  0  0
   -9.7720   -0.4412    0.8853 H   0  0  0  0  0  0  0  0  0  0  0  0
   -8.7919   -0.0252   -0.5889 H   0  0  0  0  0  0  0  0  0  0  0  0
   -8.7598    2.3926    0.1165 H   0  0  0  0  0  0  0  0  0  0  0  0
   -9.7308    1.9769    1.5979 H   0  0  0  0  0  0  0  0  0  0  0  0
   -3.3114   -0.9807    2.1037 H   0  0  0  0  0  0  0  0  0  0  0  0
   -1.0500   -0.5696    1.2943 H   0  0  0  0  0  0  0  0  0  0  0  0
  1  2  2  0
  2  3  1  0
  3  4  1  0
  4  5  1  0
  5  6  2  0
  6  7  1  0
  7  8  2  0
  8  9  1  0
  9 10  2  0
 10 11  1  0
 10 12  1  0
 12 13  2  0
  6 14  1  0
 14 15  2  0
 15 16  1  0
 16 17  2  0
  2 18  1  0
 18 19  1  0
 19 20  2  0
 20 21  1  0
 21 22  2  0
 22 23  1  0
 23 24  2  0
 23 25  1  0
 25 26  1  0
 26 27  1  0
 27 28  1  0
 22 29  1  0
 29 30  2  0
 16  4  1  0
 30 19  1  0
 13  7  1  0
 28 26  1  0
  3 31  1  0
  3 32  1  0
  8 33  1  0
  9 34  1  0
 12 35  1  0
 13 36  1  0
 14 37  1  0
 15 38  1  0
 18 39  1  0
 20 40  1  0
 21 41  1  0
 25 42  1  0
 26 43  1  0
 27 44  1  0
 27 45  1  0
 28 46  1  0
 28 47  1  0
 29 48  1  0
 30 49  1  0
M  END
$$$$
