
     RDKit          3D

 55 59  0  0  0  0  0  0  0  0999 V2000
    3.5842    1.4143    1.6730 C   0  0  0  0  0  0  0  0  0  0  0  0
    3.9553    0.4462    0.6692 N   0  0  0  0  0  0  0  0  0  0  0  0
    3.0860   -0.3776   -0.0164 C   0  0  0  0  0  0  0  0  0  0  0  0
    1.7363   -0.2786    0.1347 N   0  0  0  0  0  0  0  0  0  0  0  0
    1.1102    0.9091   -0.4950 C   0  0  0  0  0  0  0  0  0  0  0  0
   -0.3001    0.6226   -1.0660 C   0  0  0  0  0  0  0  0  0  0  0  0
   -1.1549   -0.0869   -0.0923 N   0  0  0  0  0  0  0  0  0  0  0  0
   -2.5438   -0.3042   -0.5851 C   0  0  0  0  0  0  0  0  0  0  0  0
   -3.2339    0.9904   -1.0347 C   0  0  0  0  0  0  0  0  0  0  0  0
   -3.8351    1.0596   -2.3034 C   0  0  0  0  0  0  0  0  0  0  0  0
   -4.4465    2.2370   -2.7373 C   0  0  0  0  0  0  0  0  0  0  0  0
   -4.4675    3.3601   -1.9105 C   0  0  0  0  0  0  0  0  0  0  0  0
   -3.8928    3.3034   -0.6428 C   0  0  0  0  0  0  0  0  0  0  0  0
   -3.2809    2.1273   -0.2073 C   0  0  0  0  0  0  0  0  0  0  0  0
   -3.4394   -1.0500    0.4153 C   0  0  0  0  0  0  0  0  0  0  0  0
   -3.4205   -0.7598    1.7903 C   0  0  0  0  0  0  0  0  0  0  0  0
   -4.2458   -1.4527    2.6784 C   0  0  0  0  0  0  0  0  0  0  0  0
   -5.1118   -2.4359    2.2058 C   0  0  0  0  0  0  0  0  0  0  0  0
   -5.1531   -2.7285    0.8446 C   0  0  0  0  0  0  0  0  0  0  0  0
   -4.3260   -2.0393   -0.0453 C   0  0  0  0  0  0  0  0  0  0  0  0
   -0.4947   -1.3645    0.3015 C   0  0  0  0  0  0  0  0  0  0  0  0
    0.9918   -1.5242   -0.1104 C   0  0  0  0  0  0  0  0  0  0  0  0
    3.7436   -1.2379   -0.7624 N   0  0  0  0  0  0  0  0  0  0  0  0
    5.0706   -0.9312   -0.6029 C   0  0  0  0  0  0  0  0  0  0  0  0
    6.1983   -1.5225   -1.1953 C   0  0  0  0  0  0  0  0  0  0  0  0
    7.4683   -1.0338   -0.8655 C   0  0  0  0  0  0  0  0  0  0  0  0
    7.6132    0.0236    0.0362 C   0  0  0  0  0  0  0  0  0  0  0  0
    6.5000    0.6279    0.6351 C   0  0  0  0  0  0  0  0  0  0  0  0
    5.2390    0.1250    0.2904 C   0  0  0  0  0  0  0  0  0  0  0  0
    3.2667    2.3318    1.1693 H   0  0  0  0  0  0  0  0  0  0  0  0
    2.7729    1.0059    2.2852 H   0  0  0  0  0  0  0  0  0  0  0  0
    4.4401    1.6227    2.3219 H   0  0  0  0  0  0  0  0  0  0  0  0
    1.0298    1.6987    0.2637 H   0  0  0  0  0  0  0  0  0  0  0  0
    1.7347    1.2983   -1.3115 H   0  0  0  0  0  0  0  0  0  0  0  0
   -0.2127    0.0359   -1.9916 H   0  0  0  0  0  0  0  0  0  0  0  0
   -0.7250    1.5925   -1.3468 H   0  0  0  0  0  0  0  0  0  0  0  0
   -2.4512   -0.9479   -1.4737 H   0  0  0  0  0  0  0  0  0  0  0  0
   -3.8392    0.1903   -2.9598 H   0  0  0  0  0  0  0  0  0  0  0  0
   -4.9097    2.2773   -3.7201 H   0  0  0  0  0  0  0  0  0  0  0  0
   -4.9432    4.2759   -2.2501 H   0  0  0  0  0  0  0  0  0  0  0  0
   -3.9187    4.1739    0.0082 H   0  0  0  0  0  0  0  0  0  0  0  0
   -2.8291    2.1003    0.7812 H   0  0  0  0  0  0  0  0  0  0  0  0
   -2.7493    0.0052    2.1757 H   0  0  0  0  0  0  0  0  0  0  0  0
   -4.2114   -1.2222    3.7397 H   0  0  0  0  0  0  0  0  0  0  0  0
   -5.7541   -2.9745    2.8981 H   0  0  0  0  0  0  0  0  0  0  0  0
   -5.8299   -3.4950    0.4740 H   0  0  0  0  0  0  0  0  0  0  0  0
   -4.3777   -2.2802   -1.1050 H   0  0  0  0  0  0  0  0  0  0  0  0
   -1.0263   -2.2393   -0.0970 H   0  0  0  0  0  0  0  0  0  0  0  0
   -0.5507   -1.4285    1.3956 H   0  0  0  0  0  0  0  0  0  0  0  0
    1.4248   -2.3500    0.4680 H   0  0  0  0  0  0  0  0  0  0  0  0
    1.0519   -1.7989   -1.1720 H   0  0  0  0  0  0  0  0  0  0  0  0
    6.0767   -2.3427   -1.8957 H   0  0  0  0  0  0  0  0  0  0  0  0
    8.3490   -1.4846   -1.3185 H   0  0  0  0  0  0  0  0  0  0  0  0
    8.6107    0.3864    0.2784 H   0  0  0  0  0  0  0  0  0  0  0  0
    6.6211    1.4497    1.3343 H   0  0  0  0  0  0  0  0  0  0  0  0
  1  2  1  0
  2  3  1  0
  3  4  1  0
  4  5  1  0
  5  6  1  0
  6  7  1  0
  7  8  1  0
  8  9  1  0
  9 10  2  0
 10 11  1  0
 11 12  2  0
 12 13  1  0
 13 14  2  0
  8 15  1  0
 15 16  2  0
 16 17  1  0
 17 18  2  0
 18 19  1  0
 19 20  2  0
  7 21  1  0
 21 22  1  0
  3 23  2  0
 23 24  1  0
 24 25  2  0
 25 26  1  0
 26 27  2  0
 27 28  1  0
 28 29  2  0
 29  2  1  0
 22  4  1  0
 29 24  1  0
 14  9  1  0
 20 15  1  0
  1 30  1  0
  1 31  1  0
  1 32  1  0
  5 33  1  0
  5 34  1  0
  6 35  1  0
  6 36  1  0
  8 37  1  0
 10 38  1  0
 11 39  1  0
 12 40  1  0
 13 41  1  0
 14 42  1  0
 16 43  1  0
 17 44  1  0
 18 45  1  0
 19 46  1  0
 20 47  1  0
 21 48  1  0
 21 49  1  0
 22 50  1  0
 22 51  1  0
 25 52  1  0
 26 53  1  0
 27 54  1  0
 28 55  1  0
M  END
$$$$
