
     RDKit          3D

 40 43  0  0  0  0  0  0  0  0999 V2000
    6.6702    2.3283    1.6089 O   0  0  0  0  0  0  0  0  0  0  0  0
    6.1928    1.1968    1.7739 N   0  0  0  0  0  4  0  0  0  0  0  0
    6.7552    0.2796    2.3894 O   0  0  0  0  0  1  0  0  0  0  0  0
    4.8722    0.9195    1.1947 C   0  0  0  0  0  0  0  0  0  0  0  0
    4.2823   -0.3381    1.3812 C   0  0  0  0  0  0  0  0  0  0  0  0
    3.0240   -0.5991    0.8283 C   0  0  0  0  0  0  0  0  0  0  0  0
    2.3544    0.3853    0.0863 C   0  0  0  0  0  0  0  0  0  0  0  0
    1.0391    0.1167   -0.4920 C   0  0  0  0  0  0  0  0  0  0  0  0
    0.0569    1.0939   -0.4810 N   0  0  0  0  0  0  0  0  0  0  0  0
   -1.0462    0.4809   -1.0494 N   0  0  0  0  0  0  0  0  0  0  0  0
   -2.3137    1.1570   -1.2202 C   0  0  0  0  0  0  0  0  0  0  0  0
   -3.2418    0.9065   -0.0571 C   0  0  0  0  0  0  0  0  0  0  0  0
   -4.3460    0.0532   -0.1941 C   0  0  0  0  0  0  0  0  0  0  0  0
   -5.2031   -0.1753    0.8839 C   0  0  0  0  0  0  0  0  0  0  0  0
   -4.9645    0.4436    2.1096 C   0  0  0  0  0  0  0  0  0  0  0  0
   -3.8673    1.2890    2.2604 C   0  0  0  0  0  0  0  0  0  0  0  0
   -3.0097    1.5191    1.1838 C   0  0  0  0  0  0  0  0  0  0  0  0
   -0.7104   -0.7729   -1.4228 C   0  0  0  0  0  0  0  0  0  0  0  0
   -1.2691   -1.8336   -2.0248 C   0  0  0  0  0  0  0  0  0  0  0  0
   -2.5109   -1.9005   -2.4814 O   0  0  0  0  0  0  0  0  0  0  0  0
   -0.3447   -2.8669   -2.1134 N   0  0  0  0  0  0  0  0  0  0  0  0
    0.8530   -2.3906   -1.5514 C   0  0  0  0  0  0  0  0  0  0  0  0
    1.9300   -3.1622   -1.5452 O   0  0  0  0  0  0  0  0  0  0  0  0
    0.5929   -1.1184   -1.1257 C   0  0  0  0  0  0  0  0  0  0  0  0
    2.9529    1.6434   -0.0817 C   0  0  0  0  0  0  0  0  0  0  0  0
    4.2106    1.9148    0.4656 C   0  0  0  0  0  0  0  0  0  0  0  0
    4.7782   -1.1147    1.9602 H   0  0  0  0  0  0  0  0  0  0  0  0
    2.5585   -1.5662    1.0097 H   0  0  0  0  0  0  0  0  0  0  0  0
   -2.1126    2.2304   -1.3174 H   0  0  0  0  0  0  0  0  0  0  0  0
   -2.7532    0.8290   -2.1685 H   0  0  0  0  0  0  0  0  0  0  0  0
   -4.5411   -0.4446   -1.1416 H   0  0  0  0  0  0  0  0  0  0  0  0
   -6.0555   -0.8393    0.7680 H   0  0  0  0  0  0  0  0  0  0  0  0
   -5.6307    0.2634    2.9490 H   0  0  0  0  0  0  0  0  0  0  0  0
   -3.6749    1.7667    3.2174 H   0  0  0  0  0  0  0  0  0  0  0  0
   -2.1487    2.1727    1.3175 H   0  0  0  0  0  0  0  0  0  0  0  0
   -2.6720   -2.7868   -2.8492 H   0  0  0  0  0  0  0  0  0  0  0  0
   -0.4622   -3.7836   -2.5209 H   0  0  0  0  0  0  0  0  0  0  0  0
    2.6728   -2.6171   -1.2270 H   0  0  0  0  0  0  0  0  0  0  0  0
    2.4330    2.4205   -0.6412 H   0  0  0  0  0  0  0  0  0  0  0  0
    4.6495    2.8994    0.3185 H   0  0  0  0  0  0  0  0  0  0  0  0
  1  2  2  0
  2  3  1  0
  2  4  1  0
  4  5  2  0
  5  6  1  0
  6  7  2  0
  7  8  1  0
  8  9  2  0
  9 10  1  0
 10 11  1  0
 11 12  1  0
 12 13  2  0
 13 14  1  0
 14 15  2  0
 15 16  1  0
 16 17  2  0
 10 18  1  0
 18 19  2  0
 19 20  1  0
 19 21  1  0
 21 22  1  0
 22 23  1  0
 22 24  2  0
  7 25  1  0
 25 26  2  0
 26  4  1  0
 24  8  1  0
 17 12  1  0
 24 18  1  0
  5 27  1  0
  6 28  1  0
 11 29  1  0
 11 30  1  0
 13 31  1  0
 14 32  1  0
 15 33  1  0
 16 34  1  0
 17 35  1  0
 20 36  1  0
 21 37  1  0
 23 38  1  0
 25 39  1  0
 26 40  1  0
M  CHG  2   2   1   3  -1
M  END
$$$$
