
     RDKit          3D

 47 48  0  0  0  0  0  0  0  0999 V2000
    3.1319    1.3622   -2.3240 C   0  0  0  0  0  0  0  0  0  0  0  0
    1.7823    1.4653   -1.8600 O   0  0  0  0  0  0  0  0  0  0  0  0
    1.7708    1.7202   -0.5121 C   0  0  0  0  0  0  0  0  0  0  0  0
    1.6240    3.0478   -0.1057 C   0  0  0  0  0  0  0  0  0  0  0  0
    1.5853    3.3593    1.2544 C   0  0  0  0  0  0  0  0  0  0  0  0
    1.6817    2.3456    2.2088 C   0  0  0  0  0  0  0  0  0  0  0  0
    1.8025    1.0149    1.8047 C   0  0  0  0  0  0  0  0  0  0  0  0
    1.8244    0.6958    0.4413 C   0  0  0  0  0  0  0  0  0  0  0  0
    1.9334   -0.7356    0.0717 C   0  0  0  0  0  0  0  0  0  0  0  0
    2.8973   -1.3506    0.5242 O   0  0  0  0  0  0  0  0  0  0  0  0
    0.9520   -1.2936   -0.7563 N   0  0  0  0  0  0  0  0  0  0  0  0
   -0.2004   -0.5473   -1.0939 N   0  0  0  0  0  0  0  0  0  0  0  0
   -1.1884   -0.3394   -0.1544 C   0  0  0  0  0  0  0  0  0  0  0  0
   -1.3045   -0.9594    0.8952 O   0  0  0  0  0  0  0  0  0  0  0  0
   -2.0040    0.6959   -0.5869 O   0  0  0  0  0  0  0  0  0  0  0  0
   -2.9773    1.0766    0.3393 C   0  0  0  0  0  0  0  0  0  0  0  0
   -4.3035    0.7301    0.0903 C   0  0  0  0  0  0  0  0  0  0  0  0
   -5.2931    1.1498    0.9782 C   0  0  0  0  0  0  0  0  0  0  0  0
   -4.9512    1.9194    2.0933 C   0  0  0  0  0  0  0  0  0  0  0  0
   -3.6196    2.2758    2.3221 C   0  0  0  0  0  0  0  0  0  0  0  0
   -2.6253    1.8604    1.4379 C   0  0  0  0  0  0  0  0  0  0  0  0
    0.9322   -2.7218   -1.1830 C   0  0  0  0  0  0  0  0  0  0  0  0
   -0.2352   -3.0487   -2.1471 C   0  0  0  0  0  0  0  0  0  0  0  0
    0.7996   -3.6463    0.0420 C   0  0  0  0  0  0  0  0  0  0  0  0
    2.2358   -3.0580   -1.9384 C   0  0  0  0  0  0  0  0  0  0  0  0
    3.1001    1.1954   -3.4048 H   0  0  0  0  0  0  0  0  0  0  0  0
    3.6846    2.2899   -2.1397 H   0  0  0  0  0  0  0  0  0  0  0  0
    3.6490    0.5128   -1.8663 H   0  0  0  0  0  0  0  0  0  0  0  0
    1.5466    3.8399   -0.8458 H   0  0  0  0  0  0  0  0  0  0  0  0
    1.4823    4.3946    1.5714 H   0  0  0  0  0  0  0  0  0  0  0  0
    1.6578    2.5893    3.2684 H   0  0  0  0  0  0  0  0  0  0  0  0
    1.8664    0.2237    2.5496 H   0  0  0  0  0  0  0  0  0  0  0  0
   -0.0685    0.1800   -1.7909 H   0  0  0  0  0  0  0  0  0  0  0  0
   -4.5648    0.1373   -0.7806 H   0  0  0  0  0  0  0  0  0  0  0  0
   -6.3310    0.8787    0.8031 H   0  0  0  0  0  0  0  0  0  0  0  0
   -5.7245    2.2426    2.7858 H   0  0  0  0  0  0  0  0  0  0  0  0
   -3.3587    2.8757    3.1901 H   0  0  0  0  0  0  0  0  0  0  0  0
   -1.5900    2.1382    1.6100 H   0  0  0  0  0  0  0  0  0  0  0  0
   -0.1928   -4.0923   -2.4804 H   0  0  0  0  0  0  0  0  0  0  0  0
   -0.2024   -2.4160   -3.0419 H   0  0  0  0  0  0  0  0  0  0  0  0
   -1.2099   -2.9057   -1.6672 H   0  0  0  0  0  0  0  0  0  0  0  0
    0.7626   -4.6994   -0.2593 H   0  0  0  0  0  0  0  0  0  0  0  0
    1.6402   -3.5369    0.7341 H   0  0  0  0  0  0  0  0  0  0  0  0
   -0.1153   -3.4276    0.6030 H   0  0  0  0  0  0  0  0  0  0  0  0
    2.3820   -2.3770   -2.7848 H   0  0  0  0  0  0  0  0  0  0  0  0
    3.1199   -2.9796   -1.2990 H   0  0  0  0  0  0  0  0  0  0  0  0
    2.2159   -4.0818   -2.3294 H   0  0  0  0  0  0  0  0  0  0  0  0
  1  2  1  0
  2  3  1  0
  3  4  2  0
  4  5  1  0
  5  6  2  0
  6  7  1  0
  7  8  2  0
  8  9  1  0
  9 10  2  0
  9 11  1  0
 11 12  1  0
 12 13  1  0
 13 14  2  0
 13 15  1  0
 15 16  1  0
 16 17  2  0
 17 18  1  0
 18 19  2  0
 19 20  1  0
 20 21  2  0
 11 22  1  0
 22 23  1  0
 22 24  1  0
 22 25  1  0
  8  3  1  0
 21 16  1  0
  1 26  1  0
  1 27  1  0
  1 28  1  0
  4 29  1  0
  5 30  1  0
  6 31  1  0
  7 32  1  0
 12 33  1  0
 17 34  1  0
 18 35  1  0
 19 36  1  0
 20 37  1  0
 21 38  1  0
 23 39  1  0
 23 40  1  0
 23 41  1  0
 24 42  1  0
 24 43  1  0
 24 44  1  0
 25 45  1  0
 25 46  1  0
 25 47  1  0
M  END
$$$$
