
     RDKit          3D

 50 53  0  0  0  0  0  0  0  0999 V2000
   -0.4005   -0.3279    1.1504 O   0  0  0  0  0  0  0  0  0  0  0  0
    0.7502   -0.1571    0.7564 C   0  0  0  0  0  0  0  0  0  0  0  0
    1.0587    0.4137   -0.4714 N   0  0  0  0  0  0  0  0  0  0  0  0
    0.2395    0.9474   -1.4514 C   0  0  0  0  0  0  0  0  0  0  0  0
    1.0345    1.4873   -2.8192 S   0  0  0  0  0  0  0  0  0  0  0  0
   -1.1001    0.9339   -1.1647 N   0  0  0  0  0  0  0  0  0  0  0  0
   -2.2576    1.4329   -1.8178 C   0  0  0  0  0  0  0  0  0  0  0  0
   -2.2403    2.3221   -2.8944 C   0  0  0  0  0  0  0  0  0  0  0  0
   -3.4324    2.8225   -3.4218 C   0  0  0  0  0  0  0  0  0  0  0  0
   -4.6506    2.4499   -2.8690 C   0  0  0  0  0  0  0  0  0  0  0  0
   -4.6845    1.5656   -1.7902 C   0  0  0  0  0  0  0  0  0  0  0  0
   -3.5050    1.0283   -1.2543 C   0  0  0  0  0  0  0  0  0  0  0  0
   -3.5098    0.1026   -0.1966 N   0  0  0  0  0  0  0  0  0  0  0  0
   -3.2535   -1.3022   -0.5970 C   0  0  0  0  0  0  0  0  0  0  0  0
   -4.5666   -2.0653   -0.8140 C   0  0  0  0  0  0  0  0  0  0  0  0
   -5.3881   -2.0254    0.3638 O   0  0  0  0  0  0  0  0  0  0  0  0
   -5.7369   -0.6690    0.6773 C   0  0  0  0  0  0  0  0  0  0  0  0
   -4.5007    0.2223    0.8906 C   0  0  0  0  0  0  0  0  0  0  0  0
    1.9171   -0.5529    1.5155 C   0  0  0  0  0  0  0  0  0  0  0  0
    2.0388   -1.1454    2.7553 C   0  0  0  0  0  0  0  0  0  0  0  0
    3.4256   -1.3030    2.9944 C   0  0  0  0  0  0  0  0  0  0  0  0
    4.0838   -0.7984    1.8893 C   0  0  0  0  0  0  0  0  0  0  0  0
    5.4890   -0.6612    1.5094 C   0  0  0  0  0  0  0  0  0  0  0  0
    6.5062   -1.1027    2.3716 C   0  0  0  0  0  0  0  0  0  0  0  0
    7.8543   -0.9772    2.0205 C   0  0  0  0  0  0  0  0  0  0  0  0
    8.2055   -0.4071    0.7995 C   0  0  0  0  0  0  0  0  0  0  0  0
    7.2070    0.0346   -0.0638 C   0  0  0  0  0  0  0  0  0  0  0  0
    7.6379    0.7400   -1.5736 Cl  0  0  0  0  0  0  0  0  0  0  0  0
    5.8604   -0.0890    0.2829 C   0  0  0  0  0  0  0  0  0  0  0  0
    3.1629   -0.3416    0.9865 O   0  0  0  0  0  0  0  0  0  0  0  0
    2.0465    0.4582   -0.6922 H   0  0  0  0  0  0  0  0  0  0  0  0
   -1.3593    0.4483   -0.2995 H   0  0  0  0  0  0  0  0  0  0  0  0
   -1.3211    2.6856   -3.3323 H   0  0  0  0  0  0  0  0  0  0  0  0
   -3.4024    3.5190   -4.2562 H   0  0  0  0  0  0  0  0  0  0  0  0
   -5.5768    2.8478   -3.2752 H   0  0  0  0  0  0  0  0  0  0  0  0
   -5.6552    1.2948   -1.3941 H   0  0  0  0  0  0  0  0  0  0  0  0
   -2.6286   -1.3746   -1.4945 H   0  0  0  0  0  0  0  0  0  0  0  0
   -2.7007   -1.7785    0.2218 H   0  0  0  0  0  0  0  0  0  0  0  0
   -5.1319   -1.6605   -1.6616 H   0  0  0  0  0  0  0  0  0  0  0  0
   -4.3514   -3.1169   -1.0285 H   0  0  0  0  0  0  0  0  0  0  0  0
   -6.3338   -0.6876    1.5952 H   0  0  0  0  0  0  0  0  0  0  0  0
   -6.3861   -0.2877   -0.1165 H   0  0  0  0  0  0  0  0  0  0  0  0
   -3.9993   -0.1095    1.8086 H   0  0  0  0  0  0  0  0  0  0  0  0
   -4.7960    1.2649    1.0578 H   0  0  0  0  0  0  0  0  0  0  0  0
    1.2180   -1.4261    3.4023 H   0  0  0  0  0  0  0  0  0  0  0  0
    3.8848   -1.7342    3.8730 H   0  0  0  0  0  0  0  0  0  0  0  0
    6.2644   -1.5519    3.3323 H   0  0  0  0  0  0  0  0  0  0  0  0
    8.6280   -1.3245    2.7011 H   0  0  0  0  0  0  0  0  0  0  0  0
    9.2531   -0.3095    0.5281 H   0  0  0  0  0  0  0  0  0  0  0  0
    5.1031    0.2653   -0.4119 H   0  0  0  0  0  0  0  0  0  0  0  0
  1  2  2  0
  2  3  1  0
  3  4  1  0
  4  5  2  0
  4  6  1  0
  6  7  1  0
  7  8  2  0
  8  9  1  0
  9 10  2  0
 10 11  1  0
 11 12  2  0
 12 13  1  0
 13 14  1  0
 14 15  1  0
 15 16  1  0
 16 17  1  0
 17 18  1  0
  2 19  1  0
 19 20  2  0
 20 21  1  0
 21 22  2  0
 22 23  1  0
 23 24  2  0
 24 25  1  0
 25 26  2  0
 26 27  1  0
 27 28  1  0
 27 29  2  0
 22 30  1  0
 12  7  1  0
 18 13  1  0
 30 19  1  0
 29 23  1  0
  3 31  1  0
  6 32  1  0
  8 33  1  0
  9 34  1  0
 10 35  1  0
 11 36  1  0
 14 37  1  0
 14 38  1  0
 15 39  1  0
 15 40  1  0
 17 41  1  0
 17 42  1  0
 18 43  1  0
 18 44  1  0
 20 45  1  0
 21 46  1  0
 24 47  1  0
 25 48  1  0
 26 49  1  0
 29 50  1  0
M  END
$$$$
