
     RDKit          3D

 54 57  0  0  0  0  0  0  0  0999 V2000
   -2.1834    5.7057   -1.7561 C   0  0  0  0  0  0  0  0  0  0  0  0
   -2.4160    4.2741   -1.8502 N   0  0  0  0  0  0  0  0  0  0  0  0
   -1.5779    3.4402   -1.1203 C   0  0  0  0  0  0  0  0  0  0  0  0
   -0.7296    3.8781   -0.3508 O   0  0  0  0  0  0  0  0  0  0  0  0
   -1.7843    1.9938   -1.2768 C   0  0  0  0  0  0  0  0  0  0  0  0
   -0.9503    0.9962   -0.7919 C   0  0  0  0  0  0  0  0  0  0  0  0
    0.6284    1.2815   -0.0035 S   0  0  0  0  0  0  0  0  0  0  0  0
    0.6269   -0.0833    1.2085 C   0  0  0  0  0  0  0  0  0  0  0  0
    1.8040    0.0173    2.1659 C   0  0  0  0  0  0  0  0  0  0  0  0
    1.6895   -0.2485    3.3607 O   0  0  0  0  0  0  0  0  0  0  0  0
    3.0134    0.3312    1.5848 N   0  0  0  0  0  0  0  0  0  0  0  0
    4.2321    0.4974    2.3547 C   0  0  0  0  0  0  0  0  0  0  0  0
    5.0314   -0.7995    2.5041 C   0  0  0  0  0  0  0  0  0  0  0  0
    4.4626   -1.7867    3.5111 C   0  0  0  0  0  0  0  0  0  0  0  0
    5.6926   -2.5703    3.8948 C   0  0  0  0  0  0  0  0  0  0  0  0
    6.7521   -1.4900    3.9237 C   0  0  0  0  0  0  0  0  0  0  0  0
    6.3723   -0.5046    2.9512 O   0  0  0  0  0  0  0  0  0  0  0  0
   -1.2284   -0.3169   -0.9572 N   0  0  0  0  0  0  0  0  0  0  0  0
   -2.3611   -0.6412   -1.5870 C   0  0  0  0  0  0  0  0  0  0  0  0
   -2.6641   -2.0594   -1.7952 C   0  0  0  0  0  0  0  0  0  0  0  0
   -3.0149   -2.5059   -3.0881 C   0  0  0  0  0  0  0  0  0  0  0  0
   -3.2966   -3.8497   -3.3486 C   0  0  0  0  0  0  0  0  0  0  0  0
   -3.2397   -4.7815   -2.3188 C   0  0  0  0  0  0  0  0  0  0  0  0
   -2.9115   -4.3669   -1.0295 C   0  0  0  0  0  0  0  0  0  0  0  0
   -2.6288   -3.0188   -0.7663 C   0  0  0  0  0  0  0  0  0  0  0  0
   -2.2982   -2.6050    0.8834 Cl  0  0  0  0  0  0  0  0  0  0  0  0
   -3.2032    0.2562   -2.1134 N   0  0  0  0  0  0  0  0  0  0  0  0
   -2.9067    1.5639   -1.9497 C   0  0  0  0  0  0  0  0  0  0  0  0
   -3.8065    2.4984   -2.5068 N   0  0  0  0  0  0  0  0  0  0  0  0
   -5.0016    1.9784   -3.1587 C   0  0  0  0  0  0  0  0  0  0  0  0
   -3.5858    3.8605   -2.4692 C   0  0  0  0  0  0  0  0  0  0  0  0
   -4.3863    4.6656   -2.9476 O   0  0  0  0  0  0  0  0  0  0  0  0
   -1.1201    5.9224   -1.6174 H   0  0  0  0  0  0  0  0  0  0  0  0
   -2.5288    6.2158   -2.6603 H   0  0  0  0  0  0  0  0  0  0  0  0
   -2.7410    6.0902   -0.8960 H   0  0  0  0  0  0  0  0  0  0  0  0
    0.6906   -1.0499    0.6998 H   0  0  0  0  0  0  0  0  0  0  0  0
   -0.2953   -0.0379    1.7966 H   0  0  0  0  0  0  0  0  0  0  0  0
    2.9942    0.6843    0.6336 H   0  0  0  0  0  0  0  0  0  0  0  0
    4.8385    1.2436    1.8288 H   0  0  0  0  0  0  0  0  0  0  0  0
    3.9958    0.9242    3.3361 H   0  0  0  0  0  0  0  0  0  0  0  0
    5.1312   -1.2859    1.5250 H   0  0  0  0  0  0  0  0  0  0  0  0
    3.6666   -2.4111    3.0954 H   0  0  0  0  0  0  0  0  0  0  0  0
    4.0721   -1.2677    4.3948 H   0  0  0  0  0  0  0  0  0  0  0  0
    5.9256   -3.3023    3.1127 H   0  0  0  0  0  0  0  0  0  0  0  0
    5.5981   -3.1016    4.8454 H   0  0  0  0  0  0  0  0  0  0  0  0
    6.7886   -0.9961    4.9004 H   0  0  0  0  0  0  0  0  0  0  0  0
    7.7489   -1.8732    3.6888 H   0  0  0  0  0  0  0  0  0  0  0  0
   -3.0626   -1.7939   -3.9119 H   0  0  0  0  0  0  0  0  0  0  0  0
   -3.5581   -4.1654   -4.3560 H   0  0  0  0  0  0  0  0  0  0  0  0
   -3.4580   -5.8284   -2.5156 H   0  0  0  0  0  0  0  0  0  0  0  0
   -2.8832   -5.0999   -0.2261 H   0  0  0  0  0  0  0  0  0  0  0  0
   -4.7082    1.3533   -4.0086 H   0  0  0  0  0  0  0  0  0  0  0  0
   -5.5810    1.3888   -2.4405 H   0  0  0  0  0  0  0  0  0  0  0  0
   -5.6439    2.7800   -3.5340 H   0  0  0  0  0  0  0  0  0  0  0  0
  1  2  1  0
  2  3  1  0
  3  4  2  0
  3  5  1  0
  5  6  2  0
  6  7  1  0
  7  8  1  0
  8  9  1  0
  9 10  2  0
  9 11  1  0
 11 12  1  0
 12 13  1  0
 13 14  1  0
 14 15  1  0
 15 16  1  0
 16 17  1  0
  6 18  1  0
 18 19  2  0
 19 20  1  0
 20 21  2  0
 21 22  1  0
 22 23  2  0
 23 24  1  0
 24 25  2  0
 25 26  1  0
 19 27  1  0
 27 28  2  0
 28 29  1  0
 29 30  1  0
 29 31  1  0
 31 32  2  0
 31  2  1  0
 28  5  1  0
 17 13  1  0
 25 20  1  0
  1 33  1  0
  1 34  1  0
  1 35  1  0
  8 36  1  0
  8 37  1  0
 11 38  1  0
 12 39  1  0
 12 40  1  0
 13 41  1  0
 14 42  1  0
 14 43  1  0
 15 44  1  0
 15 45  1  0
 16 46  1  0
 16 47  1  0
 21 48  1  0
 22 49  1  0
 23 50  1  0
 24 51  1  0
 30 52  1  0
 30 53  1  0
 30 54  1  0
M  END
$$$$
