
     RDKit          3D

 48 50  0  0  0  0  0  0  0  0999 V2000
   -2.4494    3.8316   -0.7346 C   0  0  0  0  0  0  0  0  0  0  0  0
   -3.3924    2.6750   -0.4601 C   0  0  0  0  0  0  0  0  0  0  0  0
   -2.6722    1.5684    0.1056 O   0  0  0  0  0  0  0  0  0  0  0  0
   -2.0651    0.7408   -0.7929 C   0  0  0  0  0  0  0  0  0  0  0  0
   -2.1373    0.8448   -2.0072 O   0  0  0  0  0  0  0  0  0  0  0  0
   -1.2959   -0.3313   -0.0655 C   0  0  0  0  0  0  0  0  0  0  0  0
   -0.2843   -1.0459   -0.9357 C   0  0  0  0  0  0  0  0  0  0  0  0
    1.1510   -0.5812   -0.9462 C   0  0  0  0  0  0  0  0  0  0  0  0
    1.3314    1.1004   -1.4597 S   0  0  0  0  0  6  0  0  0  0  0  0
    0.9821    1.2210   -2.8591 O   0  0  0  0  0  0  0  0  0  0  0  0
    0.7072    1.9423   -0.4545 O   0  0  0  0  0  0  0  0  0  0  0  0
    3.0882    1.3580   -1.3401 C   0  0  0  0  0  0  0  0  0  0  0  0
    3.6300    1.9255   -0.1836 C   0  0  0  0  0  0  0  0  0  0  0  0
    5.0081    2.1244   -0.1017 C   0  0  0  0  0  0  0  0  0  0  0  0
    5.8315    1.7670   -1.1711 C   0  0  0  0  0  0  0  0  0  0  0  0
    5.2813    1.2161   -2.3298 C   0  0  0  0  0  0  0  0  0  0  0  0
    3.9047    1.0134   -2.4210 C   0  0  0  0  0  0  0  0  0  0  0  0
   -0.5553   -2.1189   -1.6136 N   0  0  0  0  0  0  0  0  0  0  0  0
   -1.8051   -2.6688   -1.5931 C   0  0  0  0  0  0  0  0  0  0  0  0
   -2.1770   -3.5150   -2.3962 O   0  0  0  0  0  0  0  0  0  0  0  0
   -2.6438   -2.2975   -0.5863 N   0  0  0  0  0  0  0  0  0  0  0  0
   -2.2811   -1.3717    0.4552 C   0  0  0  0  0  0  0  0  0  0  0  0
   -1.7598   -2.0545    1.7136 C   0  0  0  0  0  0  0  0  0  0  0  0
   -1.0569   -3.2692    1.6904 C   0  0  0  0  0  0  0  0  0  0  0  0
   -0.5715   -3.8356    2.8716 C   0  0  0  0  0  0  0  0  0  0  0  0
   -0.7764   -3.1964    4.0915 C   0  0  0  0  0  0  0  0  0  0  0  0
   -1.4675   -1.9891    4.1337 C   0  0  0  0  0  0  0  0  0  0  0  0
   -1.9541   -1.4213    2.9548 C   0  0  0  0  0  0  0  0  0  0  0  0
   -3.0009    4.7033   -1.0977 H   0  0  0  0  0  0  0  0  0  0  0  0
   -1.9065    4.1095    0.1748 H   0  0  0  0  0  0  0  0  0  0  0  0
   -1.6987    3.5583   -1.4828 H   0  0  0  0  0  0  0  0  0  0  0  0
   -4.1407    2.9786    0.2793 H   0  0  0  0  0  0  0  0  0  0  0  0
   -3.9362    2.3750   -1.3632 H   0  0  0  0  0  0  0  0  0  0  0  0
   -0.7542    0.1529    0.7564 H   0  0  0  0  0  0  0  0  0  0  0  0
    1.7421   -1.2038   -1.6249 H   0  0  0  0  0  0  0  0  0  0  0  0
    1.5516   -0.6736    0.0678 H   0  0  0  0  0  0  0  0  0  0  0  0
    2.9956    2.2218    0.6485 H   0  0  0  0  0  0  0  0  0  0  0  0
    5.4423    2.5669    0.7919 H   0  0  0  0  0  0  0  0  0  0  0  0
    6.9052    1.9291   -1.1061 H   0  0  0  0  0  0  0  0  0  0  0  0
    5.9262    0.9535   -3.1654 H   0  0  0  0  0  0  0  0  0  0  0  0
    3.4813    0.5991   -3.3340 H   0  0  0  0  0  0  0  0  0  0  0  0
   -3.5115   -2.8159   -0.5459 H   0  0  0  0  0  0  0  0  0  0  0  0
   -3.2333   -0.8991    0.7319 H   0  0  0  0  0  0  0  0  0  0  0  0
   -0.8774   -3.8001    0.7579 H   0  0  0  0  0  0  0  0  0  0  0  0
   -0.0350   -4.7810    2.8375 H   0  0  0  0  0  0  0  0  0  0  0  0
   -0.4001   -3.6418    5.0090 H   0  0  0  0  0  0  0  0  0  0  0  0
   -1.6299   -1.4899    5.0858 H   0  0  0  0  0  0  0  0  0  0  0  0
   -2.4903   -0.4752    3.0145 H   0  0  0  0  0  0  0  0  0  0  0  0
  1  2  1  0
  2  3  1  0
  3  4  1  0
  4  5  2  0
  4  6  1  0
  6  7  1  0
  7  8  1  0
  8  9  1  0
  9 10  2  0
  9 11  2  0
  9 12  1  0
 12 13  2  0
 13 14  1  0
 14 15  2  0
 15 16  1  0
 16 17  2  0
  7 18  2  0
 18 19  1  0
 19 20  2  0
 19 21  1  0
 21 22  1  0
 22 23  1  0
 23 24  2  0
 24 25  1  0
 25 26  2  0
 26 27  1  0
 27 28  2  0
 22  6  1  0
 28 23  1  0
 17 12  1  0
  1 29  1  0
  1 30  1  0
  1 31  1  0
  2 32  1  0
  2 33  1  0
  6 34  1  0
  8 35  1  0
  8 36  1  0
 13 37  1  0
 14 38  1  0
 15 39  1  0
 16 40  1  0
 17 41  1  0
 21 42  1  0
 22 43  1  0
 24 44  1  0
 25 45  1  0
 26 46  1  0
 27 47  1  0
 28 48  1  0
M  END
$$$$
