
     RDKit          3D

 43 45  0  0  0  0  0  0  0  0999 V2000
    2.4533   -0.4373    2.6208 O   0  0  0  0  0  0  0  0  0  0  0  0
    2.4744    0.0563    1.4861 C   0  0  0  0  0  0  0  0  0  0  0  0
    3.8372    0.1881    0.7679 C   0  0  0  0  0  0  0  0  0  0  0  0
    4.1084   -0.9726   -0.1872 C   0  0  0  0  0  0  0  0  0  0  0  0
    4.5557   -0.3131   -1.4726 C   0  0  0  0  0  0  0  0  0  0  0  0
    4.9816    1.0644   -1.0235 C   0  0  0  0  0  0  0  0  0  0  0  0
    4.0947    1.3966    0.0497 O   0  0  0  0  0  0  0  0  0  0  0  0
    1.2980    0.4433    0.8538 N   0  0  0  0  0  0  0  0  0  0  0  0
    1.1664    0.6885   -0.5853 C   0  0  0  0  0  0  0  0  0  0  0  0
    0.0272    1.6597   -0.9267 C   0  0  0  0  0  0  0  0  0  0  0  0
   -1.2390    1.2814   -0.2793 N   0  0  0  0  0  0  0  0  0  0  0  0
   -2.4552    1.7484   -0.7579 C   0  0  0  0  0  0  0  0  0  0  0  0
   -2.6549    3.0858   -1.7545 S   0  0  0  0  0  0  0  0  0  0  0  0
   -3.6012    1.1198   -0.3515 N   0  0  0  0  0  0  0  0  0  0  0  0
   -3.8427   -0.2378   -0.0512 C   0  0  0  0  0  0  0  0  0  0  0  0
   -5.1077   -0.5645    0.4569 C   0  0  0  0  0  0  0  0  0  0  0  0
   -5.4288   -1.8892    0.7624 C   0  0  0  0  0  0  0  0  0  0  0  0
   -4.4895   -2.8880    0.5442 C   0  0  0  0  0  0  0  0  0  0  0  0
   -4.7962   -4.1588    0.8339 F   0  0  0  0  0  0  0  0  0  0  0  0
   -3.2397   -2.5870    0.0188 C   0  0  0  0  0  0  0  0  0  0  0  0
   -2.9189   -1.2613   -0.2863 C   0  0  0  0  0  0  0  0  0  0  0  0
   -1.0901    1.1108    1.1774 C   0  0  0  0  0  0  0  0  0  0  0  0
    0.0371    0.1392    1.5413 C   0  0  0  0  0  0  0  0  0  0  0  0
    4.5893    0.1613    1.5688 H   0  0  0  0  0  0  0  0  0  0  0  0
    4.9093   -1.6027    0.2179 H   0  0  0  0  0  0  0  0  0  0  0  0
    3.2431   -1.6250   -0.3429 H   0  0  0  0  0  0  0  0  0  0  0  0
    5.3515   -0.8584   -1.9872 H   0  0  0  0  0  0  0  0  0  0  0  0
    3.7051   -0.2362   -2.1592 H   0  0  0  0  0  0  0  0  0  0  0  0
    4.9004    1.8120   -1.8170 H   0  0  0  0  0  0  0  0  0  0  0  0
    6.0078    1.0634   -0.6394 H   0  0  0  0  0  0  0  0  0  0  0  0
    0.9751   -0.2865   -1.0502 H   0  0  0  0  0  0  0  0  0  0  0  0
    2.0852    1.0780   -1.0141 H   0  0  0  0  0  0  0  0  0  0  0  0
    0.2852    2.6722   -0.5916 H   0  0  0  0  0  0  0  0  0  0  0  0
   -0.1058    1.6827   -2.0137 H   0  0  0  0  0  0  0  0  0  0  0  0
   -4.4331    1.6803   -0.5062 H   0  0  0  0  0  0  0  0  0  0  0  0
   -5.8511    0.2086    0.6351 H   0  0  0  0  0  0  0  0  0  0  0  0
   -6.4029   -2.1459    1.1664 H   0  0  0  0  0  0  0  0  0  0  0  0
   -2.5267   -3.3851   -0.1619 H   0  0  0  0  0  0  0  0  0  0  0  0
   -1.9533   -1.0578   -0.7371 H   0  0  0  0  0  0  0  0  0  0  0  0
   -0.8645    2.1053    1.5848 H   0  0  0  0  0  0  0  0  0  0  0  0
   -2.0251    0.7952    1.6472 H   0  0  0  0  0  0  0  0  0  0  0  0
    0.1779    0.1488    2.6274 H   0  0  0  0  0  0  0  0  0  0  0  0
   -0.2373   -0.8832    1.2554 H   0  0  0  0  0  0  0  0  0  0  0  0
  1  2  2  0
  2  3  1  0
  3  4  1  0
  4  5  1  0
  5  6  1  0
  6  7  1  0
  2  8  1  0
  8  9  1  0
  9 10  1  0
 10 11  1  0
 11 12  1  0
 12 13  2  0
 12 14  1  0
 14 15  1  0
 15 16  2  0
 16 17  1  0
 17 18  2  0
 18 19  1  0
 18 20  1  0
 20 21  2  0
 11 22  1  0
 22 23  1  0
  7  3  1  0
 23  8  1  0
 21 15  1  0
  3 24  1  0
  4 25  1  0
  4 26  1  0
  5 27  1  0
  5 28  1  0
  6 29  1  0
  6 30  1  0
  9 31  1  0
  9 32  1  0
 10 33  1  0
 10 34  1  0
 14 35  1  0
 16 36  1  0
 17 37  1  0
 20 38  1  0
 21 39  1  0
 22 40  1  0
 22 41  1  0
 23 42  1  0
 23 43  1  0
M  END
$$$$
