
     RDKit          3D

 41 44  0  0  0  0  0  0  0  0999 V2000
    3.2181   -1.5779   -1.0062 C   0  0  0  0  0  0  0  0  0  0  0  0
    2.8587   -0.1246   -0.8631 C   0  0  0  0  0  0  0  0  0  0  0  0
    3.4101    0.7961   -1.7700 C   0  0  0  0  0  0  0  0  0  0  0  0
    3.1087    2.1561   -1.6853 C   0  0  0  0  0  0  0  0  0  0  0  0
    2.2453    2.6189   -0.6975 C   0  0  0  0  0  0  0  0  0  0  0  0
    1.6739    1.7220    0.2053 C   0  0  0  0  0  0  0  0  0  0  0  0
    1.9722    0.3537    0.1236 C   0  0  0  0  0  0  0  0  0  0  0  0
    1.2282   -0.7802    1.2885 S   0  0  0  0  0  6  0  0  0  0  0  0
    2.2235   -1.0159    2.3130 O   0  0  0  0  0  0  0  0  0  0  0  0
    0.6368   -1.8628    0.5317 O   0  0  0  0  0  0  0  0  0  0  0  0
   -0.0024    0.1339    2.0310 N   0  0  0  0  0  0  0  0  0  0  0  0
   -1.0867   -0.6698    2.4664 C   0  0  0  0  0  0  0  0  0  0  0  0
   -0.9740   -1.0299    3.7520 N   0  0  0  0  0  0  0  0  0  0  0  0
   -1.9085   -1.8582    4.2386 C   0  0  0  0  0  0  0  0  0  0  0  0
   -2.9623   -2.3633    3.5930 N   0  0  0  0  0  0  0  0  0  0  0  0
   -3.0344   -1.9526    2.3147 C   0  0  0  0  0  0  0  0  0  0  0  0
   -4.3048   -2.4811    1.3118 S   0  0  0  0  0  0  0  0  0  0  0  0
   -3.7273   -1.5551   -0.0019 C   0  0  0  0  0  0  0  0  0  0  0  0
   -2.5798   -0.8522    0.3157 C   0  0  0  0  0  0  0  0  0  0  0  0
   -1.9864    0.0386   -0.6678 C   0  0  0  0  0  0  0  0  0  0  0  0
   -2.1597    1.4223   -0.5511 C   0  0  0  0  0  0  0  0  0  0  0  0
   -1.6153    2.2781   -1.5101 C   0  0  0  0  0  0  0  0  0  0  0  0
   -0.8925    1.7551   -2.5822 C   0  0  0  0  0  0  0  0  0  0  0  0
   -0.7120    0.3772   -2.6980 C   0  0  0  0  0  0  0  0  0  0  0  0
   -1.2612   -0.4816   -1.7451 C   0  0  0  0  0  0  0  0  0  0  0  0
   -2.1515   -1.0989    1.6700 C   0  0  0  0  0  0  0  0  0  0  0  0
    3.4821   -2.0168   -0.0395 H   0  0  0  0  0  0  0  0  0  0  0  0
    4.0911   -1.7073   -1.6555 H   0  0  0  0  0  0  0  0  0  0  0  0
    2.3871   -2.1319   -1.4528 H   0  0  0  0  0  0  0  0  0  0  0  0
    4.0877    0.4576   -2.5519 H   0  0  0  0  0  0  0  0  0  0  0  0
    3.5496    2.8539   -2.3929 H   0  0  0  0  0  0  0  0  0  0  0  0
    2.0093    3.6781   -0.6346 H   0  0  0  0  0  0  0  0  0  0  0  0
    0.9941    2.1120    0.9564 H   0  0  0  0  0  0  0  0  0  0  0  0
    0.4255    0.4889    2.8894 H   0  0  0  0  0  0  0  0  0  0  0  0
   -1.7949   -2.1537    5.2775 H   0  0  0  0  0  0  0  0  0  0  0  0
   -4.2662   -1.5598   -0.9405 H   0  0  0  0  0  0  0  0  0  0  0  0
   -2.7251    1.8406    0.2781 H   0  0  0  0  0  0  0  0  0  0  0  0
   -1.7532    3.3524   -1.4213 H   0  0  0  0  0  0  0  0  0  0  0  0
   -0.4609    2.4216   -3.3244 H   0  0  0  0  0  0  0  0  0  0  0  0
   -0.1375   -0.0290   -3.5264 H   0  0  0  0  0  0  0  0  0  0  0  0
   -1.1056   -1.5545   -1.8386 H   0  0  0  0  0  0  0  0  0  0  0  0
  1  2  1  0
  2  3  2  0
  3  4  1  0
  4  5  2  0
  5  6  1  0
  6  7  2  0
  7  8  1  0
  8  9  2  0
  8 10  2  0
  8 11  1  0
 11 12  1  0
 12 13  2  0
 13 14  1  0
 14 15  2  0
 15 16  1  0
 16 17  1  0
 17 18  1  0
 18 19  2  0
 19 20  1  0
 20 21  2  0
 21 22  1  0
 22 23  2  0
 23 24  1  0
 24 25  2  0
 19 26  1  0
  7  2  1  0
 26 12  1  0
 26 16  2  0
 25 20  1  0
  1 27  1  0
  1 28  1  0
  1 29  1  0
  3 30  1  0
  4 31  1  0
  5 32  1  0
  6 33  1  0
 11 34  1  0
 14 35  1  0
 18 36  1  0
 21 37  1  0
 22 38  1  0
 23 39  1  0
 24 40  1  0
 25 41  1  0
M  END
$$$$
