
     RDKit          3D

 47 49  0  0  0  0  0  0  0  0999 V2000
    6.6916   -2.4276    0.0948 C   0  0  0  0  0  0  0  0  0  0  0  0
    6.1380   -1.3504    1.0137 C   0  0  0  0  0  0  0  0  0  0  0  0
    5.1303   -0.4598    0.2886 C   0  0  0  0  0  0  0  0  0  0  0  0
    4.5746    0.6221    1.2190 C   0  0  0  0  0  0  0  0  0  0  0  0
    3.6111    1.4822    0.5294 N   0  0  0  0  0  0  0  0  0  0  0  0
    2.2839    1.0816    0.4802 C   0  0  0  0  0  0  0  0  0  0  0  0
    1.8424    0.0589    0.9863 O   0  0  0  0  0  0  0  0  0  0  0  0
    1.4676    2.0685   -0.2872 C   0  0  0  0  0  0  0  0  0  0  0  0
    0.1496    2.0543   -0.5474 C   0  0  0  0  0  0  0  0  0  0  0  0
   -0.8145    1.0402   -0.1465 C   0  0  0  0  0  0  0  0  0  0  0  0
   -2.1597    1.0089   -0.3237 C   0  0  0  0  0  0  0  0  0  0  0  0
   -2.8433    2.1256   -0.9803 C   0  0  0  0  0  0  0  0  0  0  0  0
   -4.1462    2.1096   -1.2831 C   0  0  0  0  0  0  0  0  0  0  0  0
   -4.9480    0.9315   -0.9672 C   0  0  0  0  0  0  0  0  0  0  0  0
   -6.2970    0.9021   -1.3559 C   0  0  0  0  0  0  0  0  0  0  0  0
   -7.0859   -0.2073   -1.0722 C   0  0  0  0  0  0  0  0  0  0  0  0
   -6.5276   -1.2887   -0.4040 C   0  0  0  0  0  0  0  0  0  0  0  0
   -5.1825   -1.2597   -0.0128 C   0  0  0  0  0  0  0  0  0  0  0  0
   -4.3565   -0.1492   -0.2722 C   0  0  0  0  0  0  0  0  0  0  0  0
   -2.9775   -0.0730    0.1088 N   0  0  0  0  0  0  0  0  0  0  0  0
   -2.4768   -1.1329    1.0083 C   0  0  0  0  0  0  0  0  0  0  0  0
   -1.9081   -2.3076    0.2223 C   0  0  0  0  0  0  0  0  0  0  0  0
    2.4921    3.3431   -0.8511 S   0  0  0  0  0  0  0  0  0  0  0  0
    3.9366    2.6429   -0.1383 C   0  0  0  0  0  0  0  0  0  0  0  0
    5.4360    3.3564   -0.3019 S   0  0  0  0  0  0  0  0  0  0  0  0
    7.4102   -3.0529    0.6336 H   0  0  0  0  0  0  0  0  0  0  0  0
    5.8911   -3.0744   -0.2783 H   0  0  0  0  0  0  0  0  0  0  0  0
    7.2044   -1.9844   -0.7648 H   0  0  0  0  0  0  0  0  0  0  0  0
    5.6604   -1.8258    1.8783 H   0  0  0  0  0  0  0  0  0  0  0  0
    6.9666   -0.7417    1.3941 H   0  0  0  0  0  0  0  0  0  0  0  0
    4.3073   -1.0733   -0.0985 H   0  0  0  0  0  0  0  0  0  0  0  0
    5.6082    0.0050   -0.5821 H   0  0  0  0  0  0  0  0  0  0  0  0
    4.0755    0.1494    2.0736 H   0  0  0  0  0  0  0  0  0  0  0  0
    5.3902    1.2291    1.6246 H   0  0  0  0  0  0  0  0  0  0  0  0
   -0.2410    2.8815   -1.1334 H   0  0  0  0  0  0  0  0  0  0  0  0
   -0.3595    0.1825    0.3357 H   0  0  0  0  0  0  0  0  0  0  0  0
   -2.2925    3.0225   -1.2326 H   0  0  0  0  0  0  0  0  0  0  0  0
   -4.6186    2.9568   -1.7657 H   0  0  0  0  0  0  0  0  0  0  0  0
   -6.7376    1.7434   -1.8846 H   0  0  0  0  0  0  0  0  0  0  0  0
   -8.1287   -0.2292   -1.3761 H   0  0  0  0  0  0  0  0  0  0  0  0
   -7.1339   -2.1644   -0.1866 H   0  0  0  0  0  0  0  0  0  0  0  0
   -4.8076   -2.1461    0.4867 H   0  0  0  0  0  0  0  0  0  0  0  0
   -1.7019   -0.7357    1.6754 H   0  0  0  0  0  0  0  0  0  0  0  0
   -3.2473   -1.4748    1.7092 H   0  0  0  0  0  0  0  0  0  0  0  0
   -1.0764   -1.9967   -0.4176 H   0  0  0  0  0  0  0  0  0  0  0  0
   -1.5364   -3.0745    0.9091 H   0  0  0  0  0  0  0  0  0  0  0  0
   -2.6627   -2.7682   -0.4223 H   0  0  0  0  0  0  0  0  0  0  0  0
  1  2  1  0
  2  3  1  0
  3  4  1  0
  4  5  1  0
  5  6  1  0
  6  7  2  0
  6  8  1  0
  8  9  2  3
  9 10  1  0
 10 11  2  3
 11 12  1  0
 12 13  2  0
 13 14  1  0
 14 15  2  0
 15 16  1  0
 16 17  2  0
 17 18  1  0
 18 19  2  0
 19 20  1  0
 20 21  1  0
 21 22  1  0
  8 23  1  0
 23 24  1  0
 24 25  2  0
 24  5  1  0
 20 11  1  0
 19 14  1  0
  1 26  1  0
  1 27  1  0
  1 28  1  0
  2 29  1  0
  2 30  1  0
  3 31  1  0
  3 32  1  0
  4 33  1  0
  4 34  1  0
  9 35  1  0
 10 36  1  0
 12 37  1  0
 13 38  1  0
 15 39  1  0
 16 40  1  0
 17 41  1  0
 18 42  1  0
 21 43  1  0
 21 44  1  0
 22 45  1  0
 22 46  1  0
 22 47  1  0
M  END
$$$$
