
     RDKit          3D

 53 56  0  0  0  0  0  0  0  0999 V2000
    5.0484   -0.1177   -1.2830 C   0  0  0  0  0  0  0  0  0  0  0  0
    4.5778   -0.5553    0.0414 N   0  0  0  0  0  0  0  0  0  0  0  0
    5.5188   -0.5581    1.1036 C   0  0  0  0  0  0  0  0  0  0  0  0
    6.8909   -0.3171    0.9203 C   0  0  0  0  0  0  0  0  0  0  0  0
    7.7912   -0.3424    1.9933 C   0  0  0  0  0  0  0  0  0  0  0  0
    7.3422   -0.6225    3.2787 C   0  0  0  0  0  0  0  0  0  0  0  0
    5.9946   -0.8849    3.4900 C   0  0  0  0  0  0  0  0  0  0  0  0
    5.0995   -0.8577    2.4150 C   0  0  0  0  0  0  0  0  0  0  0  0
    3.1974   -0.2704    0.2060 C   0  0  0  0  0  0  0  0  0  0  0  0
    2.7932    0.9696    0.7278 C   0  0  0  0  0  0  0  0  0  0  0  0
    1.4379    1.2699    0.9143 C   0  0  0  0  0  0  0  0  0  0  0  0
    0.4480    0.3384    0.5809 C   0  0  0  0  0  0  0  0  0  0  0  0
   -0.9615    0.6814    0.8070 C   0  0  0  0  0  0  0  0  0  0  0  0
   -1.9102    0.7962   -0.1459 C   0  0  0  0  0  0  0  0  0  0  0  0
   -1.6092    0.6329   -1.5324 C   0  0  0  0  0  0  0  0  0  0  0  0
   -1.3933    0.4562   -2.6590 N   0  0  0  0  0  0  0  0  0  0  0  0
   -3.2112    1.1946    0.2754 C   0  0  0  0  0  0  0  0  0  0  0  0
   -3.5366    2.1216    1.1568 N   0  0  0  0  0  0  0  0  0  0  0  0
   -4.8987    2.2124    1.2160 N   0  0  0  0  0  0  0  0  0  0  0  0
   -5.4113    1.3228    0.3922 C   0  0  0  0  0  0  0  0  0  0  0  0
   -4.3780    0.6145   -0.1815 N   0  0  0  0  0  0  0  0  0  0  0  0
   -4.5521   -0.5633   -1.0006 C   0  0  0  0  0  0  0  0  0  0  0  0
   -5.1735   -0.2656   -2.3616 C   0  0  0  0  0  0  0  0  0  0  0  0
   -6.4772    0.5408   -2.3224 C   0  0  0  0  0  0  0  0  0  0  0  0
   -7.3056    0.3117   -1.0599 C   0  0  0  0  0  0  0  0  0  0  0  0
   -6.8742    1.1619    0.1367 C   0  0  0  0  0  0  0  0  0  0  0  0
    0.8247   -0.9069    0.0725 C   0  0  0  0  0  0  0  0  0  0  0  0
    2.1869   -1.1893   -0.1163 C   0  0  0  0  0  0  0  0  0  0  0  0
    2.5282   -2.5049   -0.6190 N   0  0  0  0  0  4  0  0  0  0  0  0
    3.0565   -2.5728   -1.7374 O   0  0  0  0  0  0  0  0  0  0  0  0
    2.1949   -3.4727    0.0806 O   0  0  0  0  0  1  0  0  0  0  0  0
    5.4109    0.9170   -1.2511 H   0  0  0  0  0  0  0  0  0  0  0  0
    4.2568   -0.1605   -2.0417 H   0  0  0  0  0  0  0  0  0  0  0  0
    5.8491   -0.7725   -1.6452 H   0  0  0  0  0  0  0  0  0  0  0  0
    7.3017   -0.1014   -0.0609 H   0  0  0  0  0  0  0  0  0  0  0  0
    8.8461   -0.1475    1.8178 H   0  0  0  0  0  0  0  0  0  0  0  0
    8.0415   -0.6464    4.1100 H   0  0  0  0  0  0  0  0  0  0  0  0
    5.6345   -1.1201    4.4880 H   0  0  0  0  0  0  0  0  0  0  0  0
    4.0575   -1.0915    2.6191 H   0  0  0  0  0  0  0  0  0  0  0  0
    3.5427    1.7115    0.9990 H   0  0  0  0  0  0  0  0  0  0  0  0
    1.1668    2.2425    1.3233 H   0  0  0  0  0  0  0  0  0  0  0  0
   -1.2097    0.8830    1.8503 H   0  0  0  0  0  0  0  0  0  0  0  0
   -5.1709   -1.2624   -0.4256 H   0  0  0  0  0  0  0  0  0  0  0  0
   -3.5928   -1.0716   -1.1273 H   0  0  0  0  0  0  0  0  0  0  0  0
   -5.3680   -1.2244   -2.8586 H   0  0  0  0  0  0  0  0  0  0  0  0
   -4.4555    0.2667   -2.9969 H   0  0  0  0  0  0  0  0  0  0  0  0
   -7.0731    0.2646   -3.2012 H   0  0  0  0  0  0  0  0  0  0  0  0
   -6.2563    1.6099   -2.4331 H   0  0  0  0  0  0  0  0  0  0  0  0
   -8.3524    0.5599   -1.2789 H   0  0  0  0  0  0  0  0  0  0  0  0
   -7.3100   -0.7520   -0.7936 H   0  0  0  0  0  0  0  0  0  0  0  0
   -7.2885    2.1700   -0.0007 H   0  0  0  0  0  0  0  0  0  0  0  0
   -7.3463    0.7621    1.0424 H   0  0  0  0  0  0  0  0  0  0  0  0
    0.0774   -1.6602   -0.1685 H   0  0  0  0  0  0  0  0  0  0  0  0
  1  2  1  0
  2  3  1  0
  3  4  2  0
  4  5  1  0
  5  6  2  0
  6  7  1  0
  7  8  2  0
  2  9  1  0
  9 10  2  0
 10 11  1  0
 11 12  2  0
 12 13  1  0
 13 14  2  3
 14 15  1  0
 15 16  3  0
 14 17  1  0
 17 18  2  0
 18 19  1  0
 19 20  2  0
 20 21  1  0
 21 22  1  0
 22 23  1  0
 23 24  1  0
 24 25  1  0
 25 26  1  0
 12 27  1  0
 27 28  2  0
 28 29  1  0
 29 30  2  0
 29 31  1  0
  8  3  1  0
 28  9  1  0
 21 17  1  0
 26 20  1  0
  1 32  1  0
  1 33  1  0
  1 34  1  0
  4 35  1  0
  5 36  1  0
  6 37  1  0
  7 38  1  0
  8 39  1  0
 10 40  1  0
 11 41  1  0
 13 42  1  0
 22 43  1  0
 22 44  1  0
 23 45  1  0
 23 46  1  0
 24 47  1  0
 24 48  1  0
 25 49  1  0
 25 50  1  0
 26 51  1  0
 26 52  1  0
 27 53  1  0
M  CHG  2  29   1  31  -1
M  END
$$$$
