
     RDKit          3D

 47 49  0  0  0  0  0  0  0  0999 V2000
    4.2562    4.1008   -1.7013 C   0  0  0  0  0  0  0  0  0  0  0  0
    3.4318    2.8520   -1.5467 C   0  0  0  0  0  0  0  0  0  0  0  0
    3.7345    1.9534   -0.5142 C   0  0  0  0  0  0  0  0  0  0  0  0
    2.9918    0.7842   -0.3404 C   0  0  0  0  0  0  0  0  0  0  0  0
    1.9295    0.4803   -1.1991 C   0  0  0  0  0  0  0  0  0  0  0  0
    1.1150   -0.7822   -0.9769 C   0  0  0  0  0  0  0  0  0  0  0  0
    1.0381   -1.6461   -2.2397 C   0  0  0  0  0  0  0  0  0  0  0  0
   -0.2070   -0.4196   -0.4929 N   0  0  0  0  0  0  0  0  0  0  0  0
   -1.0217   -1.3262    0.1478 C   0  0  0  0  0  0  0  0  0  0  0  0
   -0.7058   -2.4989    0.3094 O   0  0  0  0  0  0  0  0  0  0  0  0
   -2.2651   -0.7760    0.6470 C   0  0  0  0  0  0  0  0  0  0  0  0
   -3.0076   -1.1415    1.8160 C   0  0  0  0  0  0  0  0  0  0  0  0
   -2.6940   -2.1189    2.8600 C   0  0  0  0  0  0  0  0  0  0  0  0
   -3.7151   -2.9137    3.4039 C   0  0  0  0  0  0  0  0  0  0  0  0
   -3.4376   -3.8420    4.4104 C   0  0  0  0  0  0  0  0  0  0  0  0
   -2.1370   -3.9823    4.8885 C   0  0  0  0  0  0  0  0  0  0  0  0
   -1.1152   -3.1931    4.3644 C   0  0  0  0  0  0  0  0  0  0  0  0
   -1.3921   -2.2629    3.3581 C   0  0  0  0  0  0  0  0  0  0  0  0
   -4.1355   -0.4140    1.8974 N   0  0  0  0  0  0  0  0  0  0  0  0
   -4.1499    0.4143    0.8025 O   0  0  0  0  0  0  0  0  0  0  0  0
   -3.0462    0.1941    0.0473 C   0  0  0  0  0  0  0  0  0  0  0  0
   -2.9634    0.9804   -1.1998 C   0  0  0  0  0  0  0  0  0  0  0  0
    1.6201    1.3860   -2.2276 C   0  0  0  0  0  0  0  0  0  0  0  0
    2.3590    2.5670   -2.4127 C   0  0  0  0  0  0  0  0  0  0  0  0
    1.9904    3.4985   -3.5355 C   0  0  0  0  0  0  0  0  0  0  0  0
    5.0606    4.1462   -0.9593 H   0  0  0  0  0  0  0  0  0  0  0  0
    4.7218    4.1299   -2.6915 H   0  0  0  0  0  0  0  0  0  0  0  0
    3.6303    4.9883   -1.5647 H   0  0  0  0  0  0  0  0  0  0  0  0
    4.5573    2.1583    0.1681 H   0  0  0  0  0  0  0  0  0  0  0  0
    3.2535    0.1123    0.4746 H   0  0  0  0  0  0  0  0  0  0  0  0
    1.5942   -1.3857   -0.1950 H   0  0  0  0  0  0  0  0  0  0  0  0
    0.5454   -2.6020   -2.0331 H   0  0  0  0  0  0  0  0  0  0  0  0
    0.4650   -1.1583   -3.0358 H   0  0  0  0  0  0  0  0  0  0  0  0
    2.0393   -1.8642   -2.6274 H   0  0  0  0  0  0  0  0  0  0  0  0
   -0.4068    0.5656   -0.3889 H   0  0  0  0  0  0  0  0  0  0  0  0
   -4.7373   -2.8149    3.0431 H   0  0  0  0  0  0  0  0  0  0  0  0
   -4.2380   -4.4532    4.8191 H   0  0  0  0  0  0  0  0  0  0  0  0
   -1.9198   -4.7056    5.6701 H   0  0  0  0  0  0  0  0  0  0  0  0
   -0.1001   -3.3008    4.7376 H   0  0  0  0  0  0  0  0  0  0  0  0
   -0.5768   -1.6551    2.9754 H   0  0  0  0  0  0  0  0  0  0  0  0
   -3.9514    1.3373   -1.5080 H   0  0  0  0  0  0  0  0  0  0  0  0
   -2.5597    0.3760   -2.0178 H   0  0  0  0  0  0  0  0  0  0  0  0
   -2.3169    1.8519   -1.0591 H   0  0  0  0  0  0  0  0  0  0  0  0
    0.7885    1.1714   -2.8968 H   0  0  0  0  0  0  0  0  0  0  0  0
    1.1209    3.1333   -4.0924 H   0  0  0  0  0  0  0  0  0  0  0  0
    2.8211    3.5884   -4.2424 H   0  0  0  0  0  0  0  0  0  0  0  0
    1.7357    4.4875   -3.1418 H   0  0  0  0  0  0  0  0  0  0  0  0
  1  2  1  0
  2  3  2  0
  3  4  1  0
  4  5  2  0
  5  6  1  0
  6  7  1  0
  6  8  1  0
  8  9  1  0
  9 10  2  0
  9 11  1  0
 11 12  1  0
 12 13  1  0
 13 14  2  0
 14 15  1  0
 15 16  2  0
 16 17  1  0
 17 18  2  0
 12 19  2  0
 19 20  1  0
 20 21  1  0
 21 22  1  0
  5 23  1  0
 23 24  2  0
 24 25  1  0
 24  2  1  0
 21 11  2  0
 18 13  1  0
  1 26  1  0
  1 27  1  0
  1 28  1  0
  3 29  1  0
  4 30  1  0
  6 31  1  0
  7 32  1  0
  7 33  1  0
  7 34  1  0
  8 35  1  0
 14 36  1  0
 15 37  1  0
 16 38  1  0
 17 39  1  0
 18 40  1  0
 22 41  1  0
 22 42  1  0
 22 43  1  0
 23 44  1  0
 25 45  1  0
 25 46  1  0
 25 47  1  0
M  END
$$$$
