
     RDKit          3D

 31 32  0  0  0  0  0  0  0  0999 V2000
    4.1502    2.6986   -0.3487 N   0  0  0  0  0  0  0  0  0  0  0  0
    3.5679    1.7151   -1.0600 C   0  0  0  0  0  0  0  0  0  0  0  0
    2.6892    1.9078   -2.0199 N   0  0  0  0  0  0  0  0  0  0  0  0
    2.2667    0.7258   -2.5900 N   0  0  0  0  0  0  0  0  0  0  0  0
    2.8446   -0.3185   -2.0370 C   0  0  0  0  0  0  0  0  0  0  0  0
    2.4863   -1.9504   -2.5493 S   0  0  0  0  0  0  0  0  0  0  0  0
    0.9717   -1.6793   -3.5147 C   0  0  0  0  0  0  0  0  0  0  0  0
   -0.2237   -1.5269   -2.5960 C   0  0  0  0  0  0  0  0  0  0  0  0
   -0.9371   -2.4773   -2.2688 O   0  0  0  0  0  0  0  0  0  0  0  0
   -0.4719   -0.2344   -2.1614 N   0  0  0  0  0  0  0  0  0  0  0  0
   -1.3662   -0.1173   -1.0690 N   0  0  0  0  0  0  0  0  0  0  0  0
   -0.7964    0.1885    0.1576 C   0  0  0  0  0  0  0  0  0  0  0  0
    0.3690    0.5536    0.2843 O   0  0  0  0  0  0  0  0  0  0  0  0
   -1.6671    0.0112    1.3534 C   0  0  0  0  0  0  0  0  0  0  0  0
   -1.0532   -0.1630    2.6021 C   0  0  0  0  0  0  0  0  0  0  0  0
   -1.8286   -0.3302    3.7526 C   0  0  0  0  0  0  0  0  0  0  0  0
   -3.2186   -0.3149    3.6574 C   0  0  0  0  0  0  0  0  0  0  0  0
   -4.1750   -0.5183    5.0724 Cl  0  0  0  0  0  0  0  0  0  0  0  0
   -3.8400   -0.1286    2.4228 C   0  0  0  0  0  0  0  0  0  0  0  0
   -3.0664    0.0383    1.2693 C   0  0  0  0  0  0  0  0  0  0  0  0
    3.9614    0.0612   -0.8003 S   0  0  0  0  0  0  0  0  0  0  0  0
    4.0764    3.6334   -0.7344 H   0  0  0  0  0  0  0  0  0  0  0  0
    5.0315    2.5022    0.1093 H   0  0  0  0  0  0  0  0  0  0  0  0
    0.8001   -2.5594   -4.1436 H   0  0  0  0  0  0  0  0  0  0  0  0
    1.0571   -0.8222   -4.1898 H   0  0  0  0  0  0  0  0  0  0  0  0
    0.3034    0.4386   -2.1449 H   0  0  0  0  0  0  0  0  0  0  0  0
   -2.1232   -0.8003   -1.0891 H   0  0  0  0  0  0  0  0  0  0  0  0
    0.0328   -0.1713    2.6816 H   0  0  0  0  0  0  0  0  0  0  0  0
   -1.3421   -0.4685    4.7148 H   0  0  0  0  0  0  0  0  0  0  0  0
   -4.9249   -0.1047    2.3532 H   0  0  0  0  0  0  0  0  0  0  0  0
   -3.5734    0.2113    0.3238 H   0  0  0  0  0  0  0  0  0  0  0  0
  1  2  1  0
  2  3  2  0
  3  4  1  0
  4  5  2  0
  5  6  1  0
  6  7  1  0
  7  8  1  0
  8  9  2  0
  8 10  1  0
 10 11  1  0
 11 12  1  0
 12 13  2  0
 12 14  1  0
 14 15  2  0
 15 16  1  0
 16 17  2  0
 17 18  1  0
 17 19  1  0
 19 20  2  0
  5 21  1  0
 21  2  1  0
 20 14  1  0
  1 22  1  0
  1 23  1  0
  7 24  1  0
  7 25  1  0
 10 26  1  0
 11 27  1  0
 15 28  1  0
 16 29  1  0
 19 30  1  0
 20 31  1  0
M  END
$$$$
