
     RDKit          3D

 45 47  0  0  0  0  0  0  0  0999 V2000
   -0.3428    3.1140    0.3165 C   0  0  0  0  0  0  0  0  0  0  0  0
    0.4033    1.8382    0.0892 C   0  0  0  0  0  0  0  0  0  0  0  0
   -0.1442    0.6166   -0.0307 C   0  0  0  0  0  0  0  0  0  0  0  0
   -1.4701    0.2197   -0.0074 N   0  0  0  0  0  0  0  0  0  0  0  0
   -1.9523   -1.1237    0.3563 C   0  0  0  0  0  0  0  0  0  0  0  0
   -1.7603   -1.3244    1.8651 C   0  0  0  0  0  0  0  0  0  0  0  0
   -3.3895   -1.2403   -0.1436 C   0  0  0  0  0  0  0  0  0  0  0  0
   -4.4689   -1.5446    0.7065 C   0  0  0  0  0  0  0  0  0  0  0  0
   -5.7669   -1.6955    0.2025 C   0  0  0  0  0  0  0  0  0  0  0  0
   -6.0134   -1.5550   -1.1615 C   0  0  0  0  0  0  0  0  0  0  0  0
   -4.9620   -1.2441   -2.0242 C   0  0  0  0  0  0  0  0  0  0  0  0
   -3.6755   -1.0753   -1.5135 C   0  0  0  0  0  0  0  0  0  0  0  0
   -2.7048   -0.7203   -2.4138 O   0  0  0  0  0  0  0  0  0  0  0  0
    1.0437   -0.3114   -0.1964 C   0  0  0  0  0  0  0  0  0  0  0  0
    0.9494   -1.5289   -0.2698 O   0  0  0  0  0  0  0  0  0  0  0  0
    2.1907    0.4921   -0.1720 N   0  0  0  0  0  0  0  0  0  0  0  0
    3.5098    0.0557    0.1115 C   0  0  0  0  0  0  0  0  0  0  0  0
    3.9094   -1.2558   -0.1803 C   0  0  0  0  0  0  0  0  0  0  0  0
    5.2131   -1.6855    0.0784 C   0  0  0  0  0  0  0  0  0  0  0  0
    6.1399   -0.8122    0.6391 C   0  0  0  0  0  0  0  0  0  0  0  0
    5.7596    0.4874    0.9539 C   0  0  0  0  0  0  0  0  0  0  0  0
    4.4546    0.9146    0.6952 C   0  0  0  0  0  0  0  0  0  0  0  0
    1.8022    1.8546   -0.0282 N   0  0  0  0  0  0  0  0  0  0  0  0
    2.3806    2.7496   -1.0479 C   0  0  0  0  0  0  0  0  0  0  0  0
    0.1676    3.7242    1.0686 H   0  0  0  0  0  0  0  0  0  0  0  0
   -0.4086    3.6928   -0.6098 H   0  0  0  0  0  0  0  0  0  0  0  0
   -1.3585    2.9390    0.6849 H   0  0  0  0  0  0  0  0  0  0  0  0
   -2.0867    0.9422    0.3449 H   0  0  0  0  0  0  0  0  0  0  0  0
   -1.3868   -1.9029   -0.1686 H   0  0  0  0  0  0  0  0  0  0  0  0
   -0.7040   -1.2434    2.1437 H   0  0  0  0  0  0  0  0  0  0  0  0
   -2.1084   -2.3109    2.1933 H   0  0  0  0  0  0  0  0  0  0  0  0
   -2.3017   -0.5592    2.4338 H   0  0  0  0  0  0  0  0  0  0  0  0
   -4.3322   -1.6855    1.7757 H   0  0  0  0  0  0  0  0  0  0  0  0
   -6.5825   -1.9313    0.8845 H   0  0  0  0  0  0  0  0  0  0  0  0
   -7.0199   -1.6813   -1.5537 H   0  0  0  0  0  0  0  0  0  0  0  0
   -5.1404   -1.1238   -3.0917 H   0  0  0  0  0  0  0  0  0  0  0  0
   -1.9682   -0.3443   -1.8937 H   0  0  0  0  0  0  0  0  0  0  0  0
    3.2223   -1.9686   -0.6320 H   0  0  0  0  0  0  0  0  0  0  0  0
    5.4988   -2.7051   -0.1642 H   0  0  0  0  0  0  0  0  0  0  0  0
    7.1545   -1.1474    0.8368 H   0  0  0  0  0  0  0  0  0  0  0  0
    6.4744    1.1714    1.4048 H   0  0  0  0  0  0  0  0  0  0  0  0
    4.1799    1.9243    0.9895 H   0  0  0  0  0  0  0  0  0  0  0  0
    3.4682    2.6670   -1.1049 H   0  0  0  0  0  0  0  0  0  0  0  0
    2.1538    3.7920   -0.8038 H   0  0  0  0  0  0  0  0  0  0  0  0
    1.9727    2.5254   -2.0417 H   0  0  0  0  0  0  0  0  0  0  0  0
  1  2  1  0
  2  3  2  0
  3  4  1  0
  4  5  1  0
  5  6  1  0
  5  7  1  0
  7  8  2  0
  8  9  1  0
  9 10  2  0
 10 11  1  0
 11 12  2  0
 12 13  1  0
  3 14  1  0
 14 15  2  0
 14 16  1  0
 16 17  1  0
 17 18  2  0
 18 19  1  0
 19 20  2  0
 20 21  1  0
 21 22  2  0
 16 23  1  0
 23 24  1  0
 23  2  1  0
 12  7  1  0
 22 17  1  0
  1 25  1  0
  1 26  1  0
  1 27  1  0
  4 28  1  0
  5 29  1  0
  6 30  1  0
  6 31  1  0
  6 32  1  0
  8 33  1  0
  9 34  1  0
 10 35  1  0
 11 36  1  0
 13 37  1  0
 18 38  1  0
 19 39  1  0
 20 40  1  0
 21 41  1  0
 22 42  1  0
 24 43  1  0
 24 44  1  0
 24 45  1  0
M  END
$$$$
