
     RDKit          3D

 56 59  0  0  0  0  0  0  0  0999 V2000
   -4.9896   -0.0666    0.2050 C   0  0  0  0  0  0  0  0  0  0  0  0
   -3.6879   -0.3636   -0.2806 O   0  0  0  0  0  0  0  0  0  0  0  0
   -3.4356   -0.1388   -1.6073 C   0  0  0  0  0  0  0  0  0  0  0  0
   -4.3930    0.2769   -2.5385 C   0  0  0  0  0  0  0  0  0  0  0  0
   -4.0465    0.4826   -3.8793 C   0  0  0  0  0  0  0  0  0  0  0  0
   -2.7331    0.2766   -4.3061 C   0  0  0  0  0  0  0  0  0  0  0  0
   -2.3113    0.4842   -5.7222 C   0  0  0  0  0  0  0  0  0  0  0  0
   -3.3277    0.9639   -6.7255 C   0  0  0  0  0  0  0  0  0  0  0  0
   -1.1494    0.2614   -6.0541 O   0  0  0  0  0  0  0  0  0  0  0  0
   -1.7725   -0.1425   -3.3783 C   0  0  0  0  0  0  0  0  0  0  0  0
   -2.1116   -0.3604   -2.0287 C   0  0  0  0  0  0  0  0  0  0  0  0
   -1.0309   -0.7980   -1.0639 C   0  0  0  0  0  0  0  0  0  0  0  0
   -0.1210    0.6289   -0.4026 S   0  0  0  0  0  0  0  0  0  0  0  0
    1.1625   -0.1855    0.4738 C   0  0  0  0  0  0  0  0  0  0  0  0
    0.9725   -1.4243    0.7882 N   0  0  0  0  0  0  0  0  0  0  0  0
    1.9686   -2.1104    1.4815 C   0  0  0  0  0  0  0  0  0  0  0  0
    1.7488   -3.4439    1.8342 C   0  0  0  0  0  0  0  0  0  0  0  0
    2.7299   -4.1711    2.5223 C   0  0  0  0  0  0  0  0  0  0  0  0
    2.4422   -5.5846    2.8643 C   0  0  0  0  0  0  0  0  0  0  0  0
    1.4077   -6.1804    2.6287 O   0  0  0  0  0  0  0  0  0  0  0  0
    3.4706   -6.1874    3.4851 O   0  0  0  0  0  0  0  0  0  0  0  0
    3.9403   -3.5549    2.8630 C   0  0  0  0  0  0  0  0  0  0  0  0
    4.1639   -2.2235    2.5116 C   0  0  0  0  0  0  0  0  0  0  0  0
    3.1740   -1.5126    1.8221 C   0  0  0  0  0  0  0  0  0  0  0  0
    3.3742   -0.1102    1.4265 C   0  0  0  0  0  0  0  0  0  0  0  0
    4.4564    0.4160    1.6771 O   0  0  0  0  0  0  0  0  0  0  0  0
    2.3151    0.5242    0.7790 N   0  0  0  0  0  0  0  0  0  0  0  0
    2.5278    1.9332    0.4242 C   0  0  0  0  0  0  0  0  0  0  0  0
    1.9762    2.8988    1.4544 C   0  0  0  0  0  0  0  0  0  0  0  0
    0.8976    3.7401    1.1421 C   0  0  0  0  0  0  0  0  0  0  0  0
    0.3919    4.6345    2.0900 C   0  0  0  0  0  0  0  0  0  0  0  0
    0.9614    4.7048    3.3583 C   0  0  0  0  0  0  0  0  0  0  0  0
    2.0373    3.8820    3.6805 C   0  0  0  0  0  0  0  0  0  0  0  0
    2.5433    2.9859    2.7339 C   0  0  0  0  0  0  0  0  0  0  0  0
   -4.9997   -0.2695    1.2811 H   0  0  0  0  0  0  0  0  0  0  0  0
   -5.7406   -0.7137   -0.2612 H   0  0  0  0  0  0  0  0  0  0  0  0
   -5.2335    0.9926    0.0630 H   0  0  0  0  0  0  0  0  0  0  0  0
   -5.4254    0.4492   -2.2533 H   0  0  0  0  0  0  0  0  0  0  0  0
   -4.8252    0.8028   -4.5652 H   0  0  0  0  0  0  0  0  0  0  0  0
   -2.8365    1.1153   -7.6903 H   0  0  0  0  0  0  0  0  0  0  0  0
   -3.7513    1.9207   -6.4125 H   0  0  0  0  0  0  0  0  0  0  0  0
   -4.1105    0.2147   -6.8564 H   0  0  0  0  0  0  0  0  0  0  0  0
   -0.7441   -0.3007   -3.7047 H   0  0  0  0  0  0  0  0  0  0  0  0
   -1.4595   -1.3886   -0.2460 H   0  0  0  0  0  0  0  0  0  0  0  0
   -0.3325   -1.4582   -1.5931 H   0  0  0  0  0  0  0  0  0  0  0  0
    0.8058   -3.9141    1.5668 H   0  0  0  0  0  0  0  0  0  0  0  0
    3.1465   -7.0988    3.6444 H   0  0  0  0  0  0  0  0  0  0  0  0
    4.7136   -4.1024    3.3976 H   0  0  0  0  0  0  0  0  0  0  0  0
    5.1049   -1.7460    2.7726 H   0  0  0  0  0  0  0  0  0  0  0  0
    2.1003    2.1387   -0.5637 H   0  0  0  0  0  0  0  0  0  0  0  0
    3.6002    2.1376    0.3105 H   0  0  0  0  0  0  0  0  0  0  0  0
    0.4344    3.7048    0.1578 H   0  0  0  0  0  0  0  0  0  0  0  0
   -0.4470    5.2768    1.8349 H   0  0  0  0  0  0  0  0  0  0  0  0
    0.5668    5.4004    4.0954 H   0  0  0  0  0  0  0  0  0  0  0  0
    2.4882    3.9400    4.6666 H   0  0  0  0  0  0  0  0  0  0  0  0
    3.3934    2.3631    3.0053 H   0  0  0  0  0  0  0  0  0  0  0  0
  1  2  1  0
  2  3  1  0
  3  4  2  0
  4  5  1  0
  5  6  2  0
  6  7  1  0
  7  8  1  0
  7  9  2  0
  6 10  1  0
 10 11  2  0
 11 12  1  0
 12 13  1  0
 13 14  1  0
 14 15  2  0
 15 16  1  0
 16 17  2  0
 17 18  1  0
 18 19  1  0
 19 20  2  0
 19 21  1  0
 18 22  2  0
 22 23  1  0
 23 24  2  0
 24 25  1  0
 25 26  2  0
 25 27  1  0
 27 28  1  0
 28 29  1  0
 29 30  2  0
 30 31  1  0
 31 32  2  0
 32 33  1  0
 33 34  2  0
 11  3  1  0
 27 14  1  0
 34 29  1  0
 24 16  1  0
  1 35  1  0
  1 36  1  0
  1 37  1  0
  4 38  1  0
  5 39  1  0
  8 40  1  0
  8 41  1  0
  8 42  1  0
 10 43  1  0
 12 44  1  0
 12 45  1  0
 17 46  1  0
 21 47  1  0
 22 48  1  0
 23 49  1  0
 28 50  1  0
 28 51  1  0
 30 52  1  0
 31 53  1  0
 32 54  1  0
 33 55  1  0
 34 56  1  0
M  END
$$$$
