
     RDKit          3D

 41 44  0  0  0  0  0  0  0  0999 V2000
    1.6474   -2.9155   -1.7773 O   0  0  0  0  0  0  0  0  0  0  0  0
    1.5106   -1.8566   -1.1648 C   0  0  0  0  0  0  0  0  0  0  0  0
    2.6522   -1.0490   -0.7891 C   0  0  0  0  0  0  0  0  0  0  0  0
    3.8209   -1.7176    0.2547 S   0  0  0  0  0  0  0  0  0  0  0  0
    4.7794   -0.2886    0.2263 C   0  0  0  0  0  0  0  0  0  0  0  0
    5.9866   -0.0710    0.9198 C   0  0  0  0  0  0  0  0  0  0  0  0
    6.6405    1.1538    0.7756 C   0  0  0  0  0  0  0  0  0  0  0  0
    6.1113    2.1423   -0.0403 C   0  0  0  0  0  0  0  0  0  0  0  0
    4.9138    1.9221   -0.7275 C   0  0  0  0  0  0  0  0  0  0  0  0
    4.2196    0.6898   -0.6014 C   0  0  0  0  0  0  0  0  0  0  0  0
    2.9920    0.2235   -1.1928 C   0  0  0  0  0  0  0  0  0  0  0  0
    2.0745    1.1849   -2.2847 Cl  0  0  0  0  0  0  0  0  0  0  0  0
    0.2388   -1.3789   -0.8221 N   0  0  0  0  0  0  0  0  0  0  0  0
    0.0032   -0.4846    0.3225 C   0  0  0  0  0  0  0  0  0  0  0  0
   -1.3151    0.3044    0.2039 C   0  0  0  0  0  0  0  0  0  0  0  0
   -2.4441   -0.6161   -0.0726 N   0  0  0  0  0  0  0  0  0  0  0  0
   -3.7065   -0.0034    0.0753 C   0  0  0  0  0  0  0  0  0  0  0  0
   -4.0948    0.4252    1.3592 C   0  0  0  0  0  0  0  0  0  0  0  0
   -5.3345    1.0319    1.5937 C   0  0  0  0  0  0  0  0  0  0  0  0
   -6.2278    1.2219    0.5447 C   0  0  0  0  0  0  0  0  0  0  0  0
   -5.8803    0.7988   -0.7338 C   0  0  0  0  0  0  0  0  0  0  0  0
   -4.6418    0.1929   -0.9592 C   0  0  0  0  0  0  0  0  0  0  0  0
   -4.3678   -0.1774   -2.2202 F   0  0  0  0  0  0  0  0  0  0  0  0
   -2.2165   -1.4160   -1.2980 C   0  0  0  0  0  0  0  0  0  0  0  0
   -0.9106   -2.2211   -1.1752 C   0  0  0  0  0  0  0  0  0  0  0  0
    6.4071   -0.8457    1.5556 H   0  0  0  0  0  0  0  0  0  0  0  0
    7.5742    1.3301    1.3052 H   0  0  0  0  0  0  0  0  0  0  0  0
    6.6295    3.0921   -0.1502 H   0  0  0  0  0  0  0  0  0  0  0  0
    4.5164    2.7083   -1.3660 H   0  0  0  0  0  0  0  0  0  0  0  0
   -0.0253   -1.1230    1.2148 H   0  0  0  0  0  0  0  0  0  0  0  0
    0.8283    0.2167    0.4613 H   0  0  0  0  0  0  0  0  0  0  0  0
   -1.4583    0.8605    1.1372 H   0  0  0  0  0  0  0  0  0  0  0  0
   -1.2323    1.0360   -0.6108 H   0  0  0  0  0  0  0  0  0  0  0  0
   -3.4313    0.2602    2.2053 H   0  0  0  0  0  0  0  0  0  0  0  0
   -5.6009    1.3452    2.6002 H   0  0  0  0  0  0  0  0  0  0  0  0
   -7.1918    1.6906    0.7233 H   0  0  0  0  0  0  0  0  0  0  0  0
   -6.5639    0.9343   -1.5660 H   0  0  0  0  0  0  0  0  0  0  0  0
   -2.1366   -0.7555   -2.1707 H   0  0  0  0  0  0  0  0  0  0  0  0
   -3.0404   -2.1215   -1.4581 H   0  0  0  0  0  0  0  0  0  0  0  0
   -1.0058   -2.9811   -0.3896 H   0  0  0  0  0  0  0  0  0  0  0  0
   -0.7198   -2.7424   -2.1197 H   0  0  0  0  0  0  0  0  0  0  0  0
  1  2  2  0
  2  3  1  0
  3  4  1  0
  4  5  1  0
  5  6  2  0
  6  7  1  0
  7  8  2  0
  8  9  1  0
  9 10  2  0
 10 11  1  0
 11 12  1  0
  2 13  1  0
 13 14  1  0
 14 15  1  0
 15 16  1  0
 16 17  1  0
 17 18  2  0
 18 19  1  0
 19 20  2  0
 20 21  1  0
 21 22  2  0
 22 23  1  0
 16 24  1  0
 24 25  1  0
 11  3  2  0
 25 13  1  0
 10  5  1  0
 22 17  1  0
  6 26  1  0
  7 27  1  0
  8 28  1  0
  9 29  1  0
 14 30  1  0
 14 31  1  0
 15 32  1  0
 15 33  1  0
 18 34  1  0
 19 35  1  0
 20 36  1  0
 21 37  1  0
 24 38  1  0
 24 39  1  0
 25 40  1  0
 25 41  1  0
M  END
$$$$
