
     RDKit          3D

 46 49  0  0  0  0  0  0  0  0999 V2000
    6.4722    0.1592   -0.3139 N   0  0  0  0  0  0  0  0  0  0  0  0
    5.7424   -0.0106   -1.8161 S   0  0  0  0  0  6  0  0  0  0  0  0
    6.1270   -1.3178   -2.2962 O   0  0  0  0  0  0  0  0  0  0  0  0
    6.0459    1.1996   -2.5436 O   0  0  0  0  0  0  0  0  0  0  0  0
    4.0280   -0.0260   -1.3917 C   0  0  0  0  0  0  0  0  0  0  0  0
    3.3819   -1.2380   -1.1559 C   0  0  0  0  0  0  0  0  0  0  0  0
    2.0163   -1.2462   -0.8436 C   0  0  0  0  0  0  0  0  0  0  0  0
    1.2677   -0.0592   -0.7670 C   0  0  0  0  0  0  0  0  0  0  0  0
   -0.0905   -0.0493   -0.4534 N   0  0  0  0  0  0  0  0  0  0  0  0
   -0.7943    1.1211   -0.4298 N   0  0  0  0  0  0  0  0  0  0  0  0
   -2.0509    0.8135   -0.3168 C   0  0  0  0  0  0  0  0  0  0  0  0
   -3.1289    1.8269   -0.2349 C   0  0  0  0  0  0  0  0  0  0  0  0
   -2.7820    3.1831   -0.1888 C   0  0  0  0  0  0  0  0  0  0  0  0
   -3.7748    4.1615   -0.1103 C   0  0  0  0  0  0  0  0  0  0  0  0
   -5.1176    3.7903   -0.0786 C   0  0  0  0  0  0  0  0  0  0  0  0
   -5.4697    2.4420   -0.1262 C   0  0  0  0  0  0  0  0  0  0  0  0
   -4.4789    1.4594   -0.2049 C   0  0  0  0  0  0  0  0  0  0  0  0
   -2.3468   -0.6608   -0.3085 C   0  0  0  0  0  0  0  0  0  0  0  0
   -0.9284   -1.2269   -0.2188 C   0  0  0  0  0  0  0  0  0  0  0  0
   -0.6864   -1.8790    1.1369 C   0  0  0  0  0  0  0  0  0  0  0  0
   -0.8396   -3.2712    1.2705 C   0  0  0  0  0  0  0  0  0  0  0  0
   -0.6462   -3.8913    2.5064 C   0  0  0  0  0  0  0  0  0  0  0  0
   -0.3053   -3.1245    3.6137 C   0  0  0  0  0  0  0  0  0  0  0  0
   -0.1212   -3.7224    4.7980 F   0  0  0  0  0  0  0  0  0  0  0  0
   -0.1557   -1.7481    3.5103 C   0  0  0  0  0  0  0  0  0  0  0  0
   -0.3492   -1.1254    2.2762 C   0  0  0  0  0  0  0  0  0  0  0  0
    1.9539    1.1435   -1.0228 C   0  0  0  0  0  0  0  0  0  0  0  0
    3.3170    1.1697   -1.3378 C   0  0  0  0  0  0  0  0  0  0  0  0
    6.9820    1.0418   -0.2743 H   0  0  0  0  0  0  0  0  0  0  0  0
    7.0439   -0.6606   -0.1110 H   0  0  0  0  0  0  0  0  0  0  0  0
    3.9257   -2.1784   -1.2090 H   0  0  0  0  0  0  0  0  0  0  0  0
    1.5520   -2.2098   -0.6569 H   0  0  0  0  0  0  0  0  0  0  0  0
   -1.7371    3.4861   -0.2135 H   0  0  0  0  0  0  0  0  0  0  0  0
   -3.4981    5.2124   -0.0748 H   0  0  0  0  0  0  0  0  0  0  0  0
   -5.8903    4.5530   -0.0179 H   0  0  0  0  0  0  0  0  0  0  0  0
   -6.5186    2.1559   -0.1032 H   0  0  0  0  0  0  0  0  0  0  0  0
   -4.7864    0.4191   -0.2449 H   0  0  0  0  0  0  0  0  0  0  0  0
   -2.8171   -0.9301   -1.2603 H   0  0  0  0  0  0  0  0  0  0  0  0
   -2.9967   -0.9456    0.5234 H   0  0  0  0  0  0  0  0  0  0  0  0
   -0.7827   -1.9646   -1.0183 H   0  0  0  0  0  0  0  0  0  0  0  0
   -1.1083   -3.8832    0.4118 H   0  0  0  0  0  0  0  0  0  0  0  0
   -0.7588   -4.9655    2.6135 H   0  0  0  0  0  0  0  0  0  0  0  0
    0.1123   -1.1669    4.3867 H   0  0  0  0  0  0  0  0  0  0  0  0
   -0.2248   -0.0454    2.2038 H   0  0  0  0  0  0  0  0  0  0  0  0
    1.4135    2.0874   -0.9792 H   0  0  0  0  0  0  0  0  0  0  0  0
    3.8034    2.1215   -1.5358 H   0  0  0  0  0  0  0  0  0  0  0  0
  1  2  1  0
  2  3  2  0
  2  4  2  0
  2  5  1  0
  5  6  2  0
  6  7  1  0
  7  8  2  0
  8  9  1  0
  9 10  1  0
 10 11  2  0
 11 12  1  0
 12 13  2  0
 13 14  1  0
 14 15  2  0
 15 16  1  0
 16 17  2  0
 11 18  1  0
 18 19  1  0
 19 20  1  0
 20 21  2  0
 21 22  1  0
 22 23  2  0
 23 24  1  0
 23 25  1  0
 25 26  2  0
  8 27  1  0
 27 28  2  0
 28  5  1  0
 19  9  1  0
 26 20  1  0
 17 12  1  0
  1 29  1  0
  1 30  1  0
  6 31  1  0
  7 32  1  0
 13 33  1  0
 14 34  1  0
 15 35  1  0
 16 36  1  0
 17 37  1  0
 18 38  1  0
 18 39  1  0
 19 40  1  0
 21 41  1  0
 22 42  1  0
 25 43  1  0
 26 44  1  0
 27 45  1  0
 28 46  1  0
M  END
$$$$
