
     RDKit          3D

 52 57  0  0  0  0  0  0  0  0999 V2000
   -6.0471   -2.5008    0.2455 C   0  0  0  0  0  0  0  0  0  0  0  0
   -4.6566   -1.9313    0.2095 C   0  0  0  0  0  0  0  0  0  0  0  0
   -3.7541   -2.2060    1.2493 C   0  0  0  0  0  0  0  0  0  0  0  0
   -2.4737   -1.6536    1.2374 C   0  0  0  0  0  0  0  0  0  0  0  0
   -2.1223   -0.8171    0.1850 C   0  0  0  0  0  0  0  0  0  0  0  0
   -0.7864   -0.2513    0.1554 N   0  0  0  0  0  0  0  0  0  0  0  0
   -0.4324    1.1069    0.0363 C   0  0  0  0  0  0  0  0  0  0  0  0
   -1.3104    2.4210    0.1418 C   0  0  0  0  0  0  0  0  0  0  0  0
   -0.7763    3.6462   -0.2826 C   0  0  0  0  0  0  0  0  0  0  0  0
   -1.5352    4.8178   -0.1920 C   0  0  0  0  0  0  0  0  0  0  0  0
   -2.8227    4.7707    0.3344 C   0  0  0  0  0  0  0  0  0  0  0  0
   -3.8472    6.3522    0.4586 Br  0  0  0  0  0  0  0  0  0  0  0  0
   -3.3545    3.5634    0.7782 C   0  0  0  0  0  0  0  0  0  0  0  0
   -2.5971    2.3904    0.6869 C   0  0  0  0  0  0  0  0  0  0  0  0
    0.9334    1.0943   -0.1676 C   0  0  0  0  0  0  0  0  0  0  0  0
    1.3842   -0.2070   -0.0740 N   0  0  0  0  0  4  0  0  0  0  0  0
    0.3262   -1.0159    0.1034 C   0  0  0  0  0  0  0  0  0  0  0  0
    0.4649   -2.5020    0.1884 C   0  0  0  0  0  0  0  0  0  0  0  0
    1.6744   -2.9924   -0.5814 C   0  0  0  0  0  0  0  0  0  0  0  0
    2.8786   -2.1229   -0.3330 C   0  0  0  0  0  0  0  0  0  0  0  0
    4.1530   -2.6831   -0.4065 C   0  0  0  0  0  0  0  0  0  0  0  0
    5.2773   -1.8752   -0.2547 C   0  0  0  0  0  0  0  0  0  0  0  0
    5.1521   -0.4928   -0.0357 C   0  0  0  0  0  0  0  0  0  0  0  0
    6.2971    0.2991    0.1244 C   0  0  0  0  0  0  0  0  0  0  0  0
    6.1769    1.6615    0.3547 C   0  0  0  0  0  0  0  0  0  0  0  0
    4.9075    2.1913    0.4175 C   0  0  0  0  0  0  0  0  0  0  0  0
    3.7801    1.4589    0.2623 N   0  0  0  0  0  0  0  0  0  0  0  0
    3.8824    0.1225    0.0319 C   0  0  0  0  0  0  0  0  0  0  0  0
    2.7689   -0.7319   -0.1293 C   0  0  0  0  0  0  0  0  0  0  0  0
   -2.9960   -0.5138   -0.8527 C   0  0  0  0  0  0  0  0  0  0  0  0
   -4.2730   -1.0731   -0.8330 C   0  0  0  0  0  0  0  0  0  0  0  0
   -6.4330   -2.6519   -0.7682 H   0  0  0  0  0  0  0  0  0  0  0  0
   -6.0566   -3.4750    0.7453 H   0  0  0  0  0  0  0  0  0  0  0  0
   -6.7154   -1.8202    0.7818 H   0  0  0  0  0  0  0  0  0  0  0  0
   -4.0550   -2.8483    2.0763 H   0  0  0  0  0  0  0  0  0  0  0  0
   -1.7931   -1.8540    2.0575 H   0  0  0  0  0  0  0  0  0  0  0  0
    0.2209    3.7253   -0.7075 H   0  0  0  0  0  0  0  0  0  0  0  0
   -1.1143    5.7610   -0.5344 H   0  0  0  0  0  0  0  0  0  0  0  0
   -4.3535    3.5261    1.2079 H   0  0  0  0  0  0  0  0  0  0  0  0
   -3.0330    1.4835    1.0907 H   0  0  0  0  0  0  0  0  0  0  0  0
    1.6349    1.8904   -0.3384 H   0  0  0  0  0  0  0  0  0  0  0  0
    0.5564   -2.7144    1.2586 H   0  0  0  0  0  0  0  0  0  0  0  0
   -0.4461   -2.9592   -0.2025 H   0  0  0  0  0  0  0  0  0  0  0  0
    1.8771   -4.0341   -0.3073 H   0  0  0  0  0  0  0  0  0  0  0  0
    1.4626   -2.9677   -1.6576 H   0  0  0  0  0  0  0  0  0  0  0  0
    4.2883   -3.7486   -0.5903 H   0  0  0  0  0  0  0  0  0  0  0  0
    6.2642   -2.3358   -0.3115 H   0  0  0  0  0  0  0  0  0  0  0  0
    7.2920   -0.1403    0.0760 H   0  0  0  0  0  0  0  0  0  0  0  0
    7.0522    2.2894    0.4849 H   0  0  0  0  0  0  0  0  0  0  0  0
    4.7556    3.2521    0.6008 H   0  0  0  0  0  0  0  0  0  0  0  0
   -2.7030    0.1356   -1.6710 H   0  0  0  0  0  0  0  0  0  0  0  0
   -4.9729   -0.8403   -1.6348 H   0  0  0  0  0  0  0  0  0  0  0  0
  1  2  1  0
  2  3  2  0
  3  4  1  0
  4  5  2  0
  5  6  1  0
  6  7  1  0
  7  8  1  0
  8  9  2  0
  9 10  1  0
 10 11  2  0
 11 12  1  0
 11 13  1  0
 13 14  2  0
  7 15  2  0
 15 16  1  0
 16 17  2  0
 17 18  1  0
 18 19  1  0
 19 20  1  0
 20 21  2  0
 21 22  1  0
 22 23  2  0
 23 24  1  0
 24 25  2  0
 25 26  1  0
 26 27  2  0
 27 28  1  0
 28 29  2  0
  5 30  1  0
 30 31  2  0
 31  2  1  0
 17  6  1  0
 29 20  1  0
 14  8  1  0
 29 16  1  0
 28 23  1  0
  1 32  1  0
  1 33  1  0
  1 34  1  0
  3 35  1  0
  4 36  1  0
  9 37  1  0
 10 38  1  0
 13 39  1  0
 14 40  1  0
 15 41  1  0
 18 42  1  0
 18 43  1  0
 19 44  1  0
 19 45  1  0
 21 46  1  0
 22 47  1  0
 24 48  1  0
 25 49  1  0
 26 50  1  0
 30 51  1  0
 31 52  1  0
M  CHG  1  16   1
M  END
$$$$
