
     RDKit          3D

 58 62  0  0  0  0  0  0  0  0999 V2000
   -7.7948    2.8192   -0.0844 C   0  0  0  0  0  0  0  0  0  0  0  0
   -6.7666    2.3963    0.8026 O   0  0  0  0  0  0  0  0  0  0  0  0
   -5.5843    2.0059    0.2376 C   0  0  0  0  0  0  0  0  0  0  0  0
   -5.3070    1.9481   -1.1287 C   0  0  0  0  0  0  0  0  0  0  0  0
   -4.0488    1.5256   -1.5729 C   0  0  0  0  0  0  0  0  0  0  0  0
   -3.0639    1.1460   -0.6537 C   0  0  0  0  0  0  0  0  0  0  0  0
   -1.7281    0.7151   -1.1576 C   0  0  0  0  0  0  0  0  0  0  0  0
   -1.2511    1.2991   -2.2036 N   0  0  0  0  0  0  0  0  0  0  0  0
    0.0751    0.9060   -2.6749 C   0  0  0  0  0  0  0  0  0  0  0  0
    1.1516    1.4001   -1.7116 C   0  0  0  0  0  0  0  0  0  0  0  0
    1.9044    2.3244   -2.0392 O   0  0  0  0  0  0  0  0  0  0  0  0
    1.3011    0.7180   -0.4972 N   0  0  0  0  0  0  0  0  0  0  0  0
    2.5527    0.9804    0.2130 C   0  0  0  0  0  0  0  0  0  0  0  0
    3.7198    0.1641   -0.3567 C   0  0  0  0  0  0  0  0  0  0  0  0
    3.5967   -0.7258   -1.1948 O   0  0  0  0  0  0  0  0  0  0  0  0
    4.9408    0.4985    0.1948 N   0  0  0  0  0  0  0  0  0  0  0  0
    6.1541   -0.0804   -0.3334 C   0  0  0  0  0  0  0  0  0  0  0  0
    7.2730    0.2571    0.5782 C   0  0  0  0  0  0  0  0  0  0  0  0
    8.1624   -0.5023    1.3102 C   0  0  0  0  0  0  0  0  0  0  0  0
    9.0010    0.4112    1.9932 C   0  0  0  0  0  0  0  0  0  0  0  0
    8.5711    1.6675    1.6367 C   0  0  0  0  0  0  0  0  0  0  0  0
    7.5201    1.5859    0.7811 O   0  0  0  0  0  0  0  0  0  0  0  0
    0.3479   -0.2339   -0.1141 C   0  0  0  0  0  0  0  0  0  0  0  0
    0.8451   -1.4860    0.9371 S   0  0  0  0  0  0  0  0  0  0  0  0
   -0.6435   -2.2813    0.8111 C   0  0  0  0  0  0  0  0  0  0  0  0
   -1.5577   -1.5773    0.0521 C   0  0  0  0  0  0  0  0  0  0  0  0
   -1.0010   -0.3302   -0.4330 C   0  0  0  0  0  0  0  0  0  0  0  0
   -2.9434   -2.1151   -0.1879 C   0  0  0  0  0  0  0  0  0  0  0  0
   -3.0253   -3.6247    0.0869 C   0  0  0  0  0  0  0  0  0  0  0  0
   -2.3668   -3.9813    1.4260 C   0  0  0  0  0  0  0  0  0  0  0  0
   -0.8741   -3.6227    1.4375 C   0  0  0  0  0  0  0  0  0  0  0  0
   -3.3336    1.2236    0.7165 C   0  0  0  0  0  0  0  0  0  0  0  0
   -4.5922    1.6448    1.1539 C   0  0  0  0  0  0  0  0  0  0  0  0
   -8.6589    3.1111    0.5204 H   0  0  0  0  0  0  0  0  0  0  0  0
   -7.4821    3.6948   -0.6630 H   0  0  0  0  0  0  0  0  0  0  0  0
   -8.1091    2.0017   -0.7416 H   0  0  0  0  0  0  0  0  0  0  0  0
   -6.0420    2.2287   -1.8759 H   0  0  0  0  0  0  0  0  0  0  0  0
   -3.8402    1.4950   -2.6406 H   0  0  0  0  0  0  0  0  0  0  0  0
    0.2502    1.3867   -3.6443 H   0  0  0  0  0  0  0  0  0  0  0  0
    0.1664   -0.1717   -2.8543 H   0  0  0  0  0  0  0  0  0  0  0  0
    2.4415    0.7685    1.2815 H   0  0  0  0  0  0  0  0  0  0  0  0
    2.8048    2.0444    0.1280 H   0  0  0  0  0  0  0  0  0  0  0  0
    5.0385    1.4045    0.6371 H   0  0  0  0  0  0  0  0  0  0  0  0
    6.0294   -1.1643   -0.4273 H   0  0  0  0  0  0  0  0  0  0  0  0
    6.3280    0.3352   -1.3315 H   0  0  0  0  0  0  0  0  0  0  0  0
    8.1982   -1.5826    1.3455 H   0  0  0  0  0  0  0  0  0  0  0  0
    9.8186    0.1834    2.6626 H   0  0  0  0  0  0  0  0  0  0  0  0
    8.8894    2.6688    1.8921 H   0  0  0  0  0  0  0  0  0  0  0  0
   -3.6459   -1.6020    0.4781 H   0  0  0  0  0  0  0  0  0  0  0  0
   -3.2552   -1.9186   -1.2198 H   0  0  0  0  0  0  0  0  0  0  0  0
   -2.5268   -4.1764   -0.7204 H   0  0  0  0  0  0  0  0  0  0  0  0
   -4.0752   -3.9385    0.0909 H   0  0  0  0  0  0  0  0  0  0  0  0
   -2.4875   -5.0509    1.6318 H   0  0  0  0  0  0  0  0  0  0  0  0
   -2.8797   -3.4410    2.2322 H   0  0  0  0  0  0  0  0  0  0  0  0
   -0.5022   -3.6453    2.4682 H   0  0  0  0  0  0  0  0  0  0  0  0
   -0.3178   -4.3782    0.8684 H   0  0  0  0  0  0  0  0  0  0  0  0
   -2.5766    0.9698    1.4538 H   0  0  0  0  0  0  0  0  0  0  0  0
   -4.8005    1.7007    2.2200 H   0  0  0  0  0  0  0  0  0  0  0  0
  1  2  1  0
  2  3  1  0
  3  4  2  0
  4  5  1  0
  5  6  2  0
  6  7  1  0
  7  8  2  0
  8  9  1  0
  9 10  1  0
 10 11  2  0
 10 12  1  0
 12 13  1  0
 13 14  1  0
 14 15  2  0
 14 16  1  0
 16 17  1  0
 17 18  1  0
 18 19  2  0
 19 20  1  0
 20 21  2  0
 21 22  1  0
 12 23  1  0
 23 24  1  0
 24 25  1  0
 25 26  2  0
 26 27  1  0
 26 28  1  0
 28 29  1  0
 29 30  1  0
 30 31  1  0
  6 32  1  0
 32 33  2  0
 33  3  1  0
 27  7  1  0
 22 18  1  0
 27 23  2  0
 31 25  1  0
  1 34  1  0
  1 35  1  0
  1 36  1  0
  4 37  1  0
  5 38  1  0
  9 39  1  0
  9 40  1  0
 13 41  1  0
 13 42  1  0
 16 43  1  0
 17 44  1  0
 17 45  1  0
 19 46  1  0
 20 47  1  0
 21 48  1  0
 28 49  1  0
 28 50  1  0
 29 51  1  0
 29 52  1  0
 30 53  1  0
 30 54  1  0
 31 55  1  0
 31 56  1  0
 32 57  1  0
 33 58  1  0
M  END
$$$$
