
     RDKit          3D

 52 55  0  0  0  0  0  0  0  0999 V2000
   -6.3208   -1.5258   -0.2778 C   0  0  0  0  0  0  0  0  0  0  0  0
   -5.7562   -0.4085    0.5856 C   0  0  0  0  0  0  0  0  0  0  0  0
   -4.2313   -0.4415    0.7077 C   0  0  0  0  0  0  0  0  0  0  0  0
   -3.5139   -0.2077   -0.6240 C   0  0  0  0  0  0  0  0  0  0  0  0
   -2.0417   -0.0839   -0.4413 C   0  0  0  0  0  0  0  0  0  0  0  0
   -1.2033   -1.0856   -0.6529 N   0  0  0  0  0  0  0  0  0  0  0  0
    0.0709   -0.6513   -0.4106 N   0  0  0  0  0  0  0  0  0  0  0  0
   -0.0130    0.6000   -0.0263 C   0  0  0  0  0  0  0  0  0  0  0  0
    1.0502    1.4956    0.3118 C   0  0  0  0  0  0  0  0  0  0  0  0
    2.3708    0.9875    0.3458 N   0  0  0  0  0  0  0  0  0  0  0  0
    3.4976    1.8281   -0.1064 C   0  0  0  0  0  0  0  0  0  0  0  0
    2.7734   -0.0800    1.6173 S   0  0  0  0  0  6  0  0  0  0  0  0
    1.5694   -0.6111    2.2194 O   0  0  0  0  0  0  0  0  0  0  0  0
    3.7673    0.5766    2.4455 O   0  0  0  0  0  0  0  0  0  0  0  0
    3.5921   -1.4101    0.7637 C   0  0  0  0  0  0  0  0  0  0  0  0
    4.9889   -1.4623    0.7319 C   0  0  0  0  0  0  0  0  0  0  0  0
    5.6262   -2.5219    0.0832 C   0  0  0  0  0  0  0  0  0  0  0  0
    4.8756   -3.5439   -0.5129 C   0  0  0  0  0  0  0  0  0  0  0  0
    5.5607   -4.6654   -1.2374 C   0  0  0  0  0  0  0  0  0  0  0  0
    3.4766   -3.4837   -0.4658 C   0  0  0  0  0  0  0  0  0  0  0  0
    2.8337   -2.4276    0.1827 C   0  0  0  0  0  0  0  0  0  0  0  0
    0.8313    2.7602    0.4990 N   0  0  0  0  0  0  0  0  0  0  0  0
   -0.5058    3.2185    0.4749 C   0  0  0  0  0  0  0  0  0  0  0  0
   -0.7226    4.5727    0.7415 C   0  0  0  0  0  0  0  0  0  0  0  0
   -2.0137    5.0979    0.7518 C   0  0  0  0  0  0  0  0  0  0  0  0
   -3.1029    4.2679    0.4975 C   0  0  0  0  0  0  0  0  0  0  0  0
   -2.9117    2.9099    0.2268 C   0  0  0  0  0  0  0  0  0  0  0  0
   -1.6185    2.3842    0.2113 C   0  0  0  0  0  0  0  0  0  0  0  0
   -1.3147    1.0327   -0.0681 N   0  0  0  0  0  0  0  0  0  0  0  0
   -5.9904   -2.5054    0.0815 H   0  0  0  0  0  0  0  0  0  0  0  0
   -6.0151   -1.4184   -1.3227 H   0  0  0  0  0  0  0  0  0  0  0  0
   -7.4150   -1.5057   -0.2495 H   0  0  0  0  0  0  0  0  0  0  0  0
   -6.0766    0.5600    0.1843 H   0  0  0  0  0  0  0  0  0  0  0  0
   -6.1870   -0.4928    1.5905 H   0  0  0  0  0  0  0  0  0  0  0  0
   -3.9175   -1.4044    1.1313 H   0  0  0  0  0  0  0  0  0  0  0  0
   -3.9309    0.3209    1.4369 H   0  0  0  0  0  0  0  0  0  0  0  0
   -3.9180    0.6515   -1.1657 H   0  0  0  0  0  0  0  0  0  0  0  0
   -3.6960   -1.0693   -1.2793 H   0  0  0  0  0  0  0  0  0  0  0  0
    4.3989    1.2345   -0.2772 H   0  0  0  0  0  0  0  0  0  0  0  0
    3.2417    2.2962   -1.0629 H   0  0  0  0  0  0  0  0  0  0  0  0
    3.7093    2.6190    0.6192 H   0  0  0  0  0  0  0  0  0  0  0  0
    5.5874   -0.6892    1.2080 H   0  0  0  0  0  0  0  0  0  0  0  0
    6.7134   -2.5510    0.0527 H   0  0  0  0  0  0  0  0  0  0  0  0
    5.7055   -4.3978   -2.2885 H   0  0  0  0  0  0  0  0  0  0  0  0
    6.5362   -4.8818   -0.7893 H   0  0  0  0  0  0  0  0  0  0  0  0
    4.9681   -5.5846   -1.1841 H   0  0  0  0  0  0  0  0  0  0  0  0
    2.8750   -4.2639   -0.9282 H   0  0  0  0  0  0  0  0  0  0  0  0
    1.7470   -2.4118    0.2293 H   0  0  0  0  0  0  0  0  0  0  0  0
    0.1257    5.2210    0.9488 H   0  0  0  0  0  0  0  0  0  0  0  0
   -2.1683    6.1531    0.9643 H   0  0  0  0  0  0  0  0  0  0  0  0
   -4.1097    4.6811    0.5139 H   0  0  0  0  0  0  0  0  0  0  0  0
   -3.7980    2.3173    0.0509 H   0  0  0  0  0  0  0  0  0  0  0  0
  1  2  1  0
  2  3  1  0
  3  4  1  0
  4  5  1  0
  5  6  2  0
  6  7  1  0
  7  8  2  0
  8  9  1  0
  9 10  1  0
 10 11  1  0
 10 12  1  0
 12 13  2  0
 12 14  2  0
 12 15  1  0
 15 16  2  0
 16 17  1  0
 17 18  2  0
 18 19  1  0
 18 20  1  0
 20 21  2  0
  9 22  2  0
 22 23  1  0
 23 24  2  0
 24 25  1  0
 25 26  2  0
 26 27  1  0
 27 28  2  0
 28 29  1  0
 29  5  1  0
 29  8  1  0
 21 15  1  0
 28 23  1  0
  1 30  1  0
  1 31  1  0
  1 32  1  0
  2 33  1  0
  2 34  1  0
  3 35  1  0
  3 36  1  0
  4 37  1  0
  4 38  1  0
 11 39  1  0
 11 40  1  0
 11 41  1  0
 16 42  1  0
 17 43  1  0
 19 44  1  0
 19 45  1  0
 19 46  1  0
 20 47  1  0
 21 48  1  0
 24 49  1  0
 25 50  1  0
 26 51  1  0
 27 52  1  0
M  END
$$$$
