
     RDKit          3D

 40 41  0  0  0  0  0  0  0  0999 V2000
    2.5250    4.1649    0.5369 O   0  0  0  0  0  0  0  0  0  0  0  0
    2.0919    3.0665    0.8473 C   0  0  0  0  0  0  0  0  0  0  0  0
    2.9344    2.0309    1.0106 O   0  0  0  0  0  0  0  0  0  0  0  0
    0.6602    2.7560    1.1912 C   0  0  0  0  0  0  0  0  0  0  0  0
    0.2670    1.3067    0.8877 C   0  0  0  0  0  0  0  0  0  0  0  0
   -1.1080    1.0228    1.3920 N   0  0  0  0  0  0  0  0  0  0  0  0
   -1.1060    0.7005    2.8220 C   0  0  0  0  0  0  0  0  0  0  0  0
   -2.4712    0.2914    3.2487 C   0  0  0  0  0  0  0  0  0  0  0  0
   -3.6071    0.9943    3.5945 C   0  0  0  0  0  0  0  0  0  0  0  0
   -4.5959    0.0294    3.9019 C   0  0  0  0  0  0  0  0  0  0  0  0
   -4.0029   -1.1979    3.7212 C   0  0  0  0  0  0  0  0  0  0  0  0
   -2.7133   -1.0502    3.3225 O   0  0  0  0  0  0  0  0  0  0  0  0
    0.3030    1.0620   -0.6369 C   0  0  0  0  0  0  0  0  0  0  0  0
    0.8376    1.7978   -1.4556 O   0  0  0  0  0  0  0  0  0  0  0  0
   -0.3253   -0.1195   -0.9286 O   0  0  0  0  0  0  0  0  0  0  0  0
   -0.2405   -0.5628   -2.2950 C   0  0  0  0  0  0  0  0  0  0  0  0
    0.7843   -1.6917   -2.3927 C   0  0  0  0  0  0  0  0  0  0  0  0
    0.8689   -2.3025   -3.7815 C   0  0  0  0  0  0  0  0  0  0  0  0
    2.2797   -2.8347   -3.7978 C   0  0  0  0  0  0  0  0  0  0  0  0
    3.0268   -1.7572   -3.0425 C   0  0  0  0  0  0  0  0  0  0  0  0
    2.1096   -1.2135   -2.0830 O   0  0  0  0  0  0  0  0  0  0  0  0
    3.8019    2.3934    0.7290 H   0  0  0  0  0  0  0  0  0  0  0  0
    0.5417    2.9854    2.2555 H   0  0  0  0  0  0  0  0  0  0  0  0
    0.0253    3.4458    0.6213 H   0  0  0  0  0  0  0  0  0  0  0  0
    0.9791    0.5928    1.3203 H   0  0  0  0  0  0  0  0  0  0  0  0
   -1.4466    0.1883    0.9011 H   0  0  0  0  0  0  0  0  0  0  0  0
   -0.7989    1.5690    3.4142 H   0  0  0  0  0  0  0  0  0  0  0  0
   -0.4030   -0.1141    3.0346 H   0  0  0  0  0  0  0  0  0  0  0  0
   -3.7046    2.0709    3.6125 H   0  0  0  0  0  0  0  0  0  0  0  0
   -5.6161    0.2055    4.2120 H   0  0  0  0  0  0  0  0  0  0  0  0
   -4.3450   -2.2179    3.8268 H   0  0  0  0  0  0  0  0  0  0  0  0
    0.0081    0.2593   -2.9752 H   0  0  0  0  0  0  0  0  0  0  0  0
   -1.2335   -0.9318   -2.5724 H   0  0  0  0  0  0  0  0  0  0  0  0
    0.5580   -2.4633   -1.6464 H   0  0  0  0  0  0  0  0  0  0  0  0
    0.1120   -3.0730   -3.9526 H   0  0  0  0  0  0  0  0  0  0  0  0
    0.7571   -1.5342   -4.5563 H   0  0  0  0  0  0  0  0  0  0  0  0
    2.3260   -3.7806   -3.2453 H   0  0  0  0  0  0  0  0  0  0  0  0
    2.6749   -3.0042   -4.8026 H   0  0  0  0  0  0  0  0  0  0  0  0
    3.9134   -2.1403   -2.5297 H   0  0  0  0  0  0  0  0  0  0  0  0
    3.3321   -0.9441   -3.7096 H   0  0  0  0  0  0  0  0  0  0  0  0
  1  2  2  0
  2  3  1  0
  2  4  1  0
  4  5  1  0
  5  6  1  0
  6  7  1  0
  7  8  1  0
  8  9  2  0
  9 10  1  0
 10 11  2  0
 11 12  1  0
  5 13  1  0
 13 14  2  0
 13 15  1  0
 15 16  1  0
 16 17  1  0
 17 18  1  0
 18 19  1  0
 19 20  1  0
 20 21  1  0
 12  8  1  0
 21 17  1  0
  3 22  1  0
  4 23  1  0
  4 24  1  0
  5 25  1  0
  6 26  1  0
  7 27  1  0
  7 28  1  0
  9 29  1  0
 10 30  1  0
 11 31  1  0
 16 32  1  0
 16 33  1  0
 17 34  1  0
 18 35  1  0
 18 36  1  0
 19 37  1  0
 19 38  1  0
 20 39  1  0
 20 40  1  0
M  END
$$$$
