
     RDKit          3D

 47 48  0  0  0  0  0  0  0  0999 V2000
   -4.7767    2.2592   -2.0789 C   0  0  0  0  0  0  0  0  0  0  0  0
   -4.3148    0.5207   -1.8820 S   0  0  0  0  0  0  0  0  0  0  0  0
   -2.6684    0.7606   -1.1409 C   0  0  0  0  0  0  0  0  0  0  0  0
   -2.0277   -0.5996   -0.8597 C   0  0  0  0  0  0  0  0  0  0  0  0
   -0.5868   -0.4657   -0.3383 C   0  0  0  0  0  0  0  0  0  0  0  0
   -0.0121   -1.8158   -0.1763 N   0  0  0  0  0  0  0  0  0  0  0  0
    1.5495   -2.0143    0.4190 S   0  0  0  0  0  6  0  0  0  0  0  0
    1.8666   -3.4098    0.2044 O   0  0  0  0  0  0  0  0  0  0  0  0
    1.6274   -1.4241    1.7345 O   0  0  0  0  0  0  0  0  0  0  0  0
    2.5394   -1.0592   -0.7000 C   0  0  0  0  0  0  0  0  0  0  0  0
    2.9227   -1.6184   -1.9222 C   0  0  0  0  0  0  0  0  0  0  0  0
    3.7122   -0.8755   -2.8013 C   0  0  0  0  0  0  0  0  0  0  0  0
    4.1187    0.4234   -2.4662 C   0  0  0  0  0  0  0  0  0  0  0  0
    4.9970    1.2072   -3.3972 C   0  0  0  0  0  0  0  0  0  0  0  0
    3.7517    0.9586   -1.2239 C   0  0  0  0  0  0  0  0  0  0  0  0
    2.9655    0.2200   -0.3382 C   0  0  0  0  0  0  0  0  0  0  0  0
   -0.4957    0.4516    0.8872 C   0  0  0  0  0  0  0  0  0  0  0  0
    0.0741    1.5431    0.7676 O   0  0  0  0  0  0  0  0  0  0  0  0
   -1.0935    0.0916    2.0731 N   0  0  0  0  0  0  0  0  0  0  0  0
   -1.7128   -1.1780    2.4316 C   0  0  0  0  0  0  0  0  0  0  0  0
   -1.6957   -1.1954    3.9551 C   0  0  0  0  0  0  0  0  0  0  0  0
   -1.8090    0.2799    4.3099 C   0  0  0  0  0  0  0  0  0  0  0  0
   -0.9522    0.9428    3.2432 C   0  0  0  0  0  0  0  0  0  0  0  0
   -4.7885    2.7629   -1.1089 H   0  0  0  0  0  0  0  0  0  0  0  0
   -4.0766    2.7645   -2.7491 H   0  0  0  0  0  0  0  0  0  0  0  0
   -5.7780    2.3184   -2.5135 H   0  0  0  0  0  0  0  0  0  0  0  0
   -2.0486    1.3357   -1.8363 H   0  0  0  0  0  0  0  0  0  0  0  0
   -2.7879    1.3334   -0.2167 H   0  0  0  0  0  0  0  0  0  0  0  0
   -2.0035   -1.1906   -1.7861 H   0  0  0  0  0  0  0  0  0  0  0  0
   -2.6439   -1.1689   -0.1561 H   0  0  0  0  0  0  0  0  0  0  0  0
   -0.0175    0.0232   -1.1406 H   0  0  0  0  0  0  0  0  0  0  0  0
   -0.2388   -2.5128   -0.8841 H   0  0  0  0  0  0  0  0  0  0  0  0
    2.6231   -2.6287   -2.1913 H   0  0  0  0  0  0  0  0  0  0  0  0
    4.0161   -1.3170   -3.7484 H   0  0  0  0  0  0  0  0  0  0  0  0
    6.0494    0.9968   -3.1840 H   0  0  0  0  0  0  0  0  0  0  0  0
    4.8210    2.2823   -3.2870 H   0  0  0  0  0  0  0  0  0  0  0  0
    4.7875    0.9492   -4.4408 H   0  0  0  0  0  0  0  0  0  0  0  0
    4.0783    1.9561   -0.9359 H   0  0  0  0  0  0  0  0  0  0  0  0
    2.6892    0.6525    0.6219 H   0  0  0  0  0  0  0  0  0  0  0  0
   -1.1939   -2.0375    2.0085 H   0  0  0  0  0  0  0  0  0  0  0  0
   -2.7439   -1.1594    2.0652 H   0  0  0  0  0  0  0  0  0  0  0  0
   -0.7384   -1.5913    4.3152 H   0  0  0  0  0  0  0  0  0  0  0  0
   -2.5007   -1.8020    4.3788 H   0  0  0  0  0  0  0  0  0  0  0  0
   -2.8515    0.6063    4.2140 H   0  0  0  0  0  0  0  0  0  0  0  0
   -1.4688    0.5049    5.3241 H   0  0  0  0  0  0  0  0  0  0  0  0
   -1.2691    1.9662    3.0199 H   0  0  0  0  0  0  0  0  0  0  0  0
    0.1054    0.9530    3.5304 H   0  0  0  0  0  0  0  0  0  0  0  0
  1  2  1  0
  2  3  1  0
  3  4  1  0
  4  5  1  0
  5  6  1  0
  6  7  1  0
  7  8  2  0
  7  9  2  0
  7 10  1  0
 10 11  2  0
 11 12  1  0
 12 13  2  0
 13 14  1  0
 13 15  1  0
 15 16  2  0
  5 17  1  0
 17 18  2  0
 17 19  1  0
 19 20  1  0
 20 21  1  0
 21 22  1  0
 22 23  1  0
 16 10  1  0
 23 19  1  0
  1 24  1  0
  1 25  1  0
  1 26  1  0
  3 27  1  0
  3 28  1  0
  4 29  1  0
  4 30  1  0
  5 31  1  0
  6 32  1  0
 11 33  1  0
 12 34  1  0
 14 35  1  0
 14 36  1  0
 14 37  1  0
 15 38  1  0
 16 39  1  0
 20 40  1  0
 20 41  1  0
 21 42  1  0
 21 43  1  0
 22 44  1  0
 22 45  1  0
 23 46  1  0
 23 47  1  0
M  END
$$$$
