
     RDKit          3D

 46 48  0  0  0  0  0  0  0  0999 V2000
   -3.1061    2.9555   -2.0441 C   0  0  0  0  0  0  0  0  0  0  0  0
   -2.2859    4.1001   -1.4781 C   0  0  0  0  0  0  0  0  0  0  0  0
   -1.0993    3.5902   -0.8546 O   0  0  0  0  0  0  0  0  0  0  0  0
   -1.2421    3.2261    0.4384 C   0  0  0  0  0  0  0  0  0  0  0  0
   -2.2357    3.2981    1.1350 O   0  0  0  0  0  0  0  0  0  0  0  0
    0.0715    2.6712    0.9257 C   0  0  0  0  0  0  0  0  0  0  0  0
    0.6627    3.0937    2.0020 N   0  0  0  0  0  0  0  0  0  0  0  0
    1.8411    2.4018    2.0949 N   0  0  0  0  0  0  0  0  0  0  0  0
    2.0100    1.4192    1.0164 C   0  0  0  0  0  0  0  0  0  0  0  0
    2.3332    0.0421    1.6066 C   0  0  0  0  0  0  0  0  0  0  0  0
    2.2710   -0.1794    2.8176 O   0  0  0  0  0  0  0  0  0  0  0  0
    2.7456   -1.0623    0.6886 C   0  0  0  0  0  0  0  0  0  0  0  0
    3.2351   -0.8261   -0.6022 C   0  0  0  0  0  0  0  0  0  0  0  0
    3.5901   -1.9005   -1.4228 C   0  0  0  0  0  0  0  0  0  0  0  0
    3.4620   -3.2093   -0.9600 C   0  0  0  0  0  0  0  0  0  0  0  0
    2.9843   -3.4503    0.3263 C   0  0  0  0  0  0  0  0  0  0  0  0
    2.6303   -2.3808    1.1499 C   0  0  0  0  0  0  0  0  0  0  0  0
    0.7360    1.5553    0.1697 C   0  0  0  0  0  0  0  0  0  0  0  0
   -0.1578    0.3447    0.0223 C   0  0  0  0  0  0  0  0  0  0  0  0
   -0.8141   -0.2277    1.1228 C   0  0  0  0  0  0  0  0  0  0  0  0
   -1.6302   -1.3535    0.9667 C   0  0  0  0  0  0  0  0  0  0  0  0
   -1.8055   -1.9244   -0.2919 C   0  0  0  0  0  0  0  0  0  0  0  0
   -2.5703   -3.0203   -0.5809 O   0  0  0  0  0  0  0  0  0  0  0  0
   -3.2579   -3.6264    0.5067 C   0  0  0  0  0  0  0  0  0  0  0  0
   -1.1588   -1.3574   -1.3909 C   0  0  0  0  0  0  0  0  0  0  0  0
   -0.3440   -0.2330   -1.2401 C   0  0  0  0  0  0  0  0  0  0  0  0
   -2.5049    2.3581   -2.7375 H   0  0  0  0  0  0  0  0  0  0  0  0
   -3.4390    2.2802   -1.2494 H   0  0  0  0  0  0  0  0  0  0  0  0
   -3.9854    3.3328   -2.5734 H   0  0  0  0  0  0  0  0  0  0  0  0
   -1.9635    4.7594   -2.2906 H   0  0  0  0  0  0  0  0  0  0  0  0
   -2.8741    4.7095   -0.7822 H   0  0  0  0  0  0  0  0  0  0  0  0
    2.1061    2.1357    3.0487 H   0  0  0  0  0  0  0  0  0  0  0  0
    2.8884    1.7764    0.4674 H   0  0  0  0  0  0  0  0  0  0  0  0
    3.3620    0.1766   -0.9962 H   0  0  0  0  0  0  0  0  0  0  0  0
    3.9706   -1.7184   -2.4252 H   0  0  0  0  0  0  0  0  0  0  0  0
    3.7375   -4.0434   -1.6011 H   0  0  0  0  0  0  0  0  0  0  0  0
    2.8849   -4.4703    0.6894 H   0  0  0  0  0  0  0  0  0  0  0  0
    2.2540   -2.5816    2.1515 H   0  0  0  0  0  0  0  0  0  0  0  0
    1.0061    1.9444   -0.8204 H   0  0  0  0  0  0  0  0  0  0  0  0
   -0.6951    0.1902    2.1236 H   0  0  0  0  0  0  0  0  0  0  0  0
   -2.1115   -1.7568    1.8518 H   0  0  0  0  0  0  0  0  0  0  0  0
   -2.5549   -4.0100    1.2535 H   0  0  0  0  0  0  0  0  0  0  0  0
   -3.8217   -4.4775    0.1127 H   0  0  0  0  0  0  0  0  0  0  0  0
   -3.9750   -2.9320    0.9570 H   0  0  0  0  0  0  0  0  0  0  0  0
   -1.2917   -1.7986   -2.3760 H   0  0  0  0  0  0  0  0  0  0  0  0
    0.1420    0.1784   -2.1221 H   0  0  0  0  0  0  0  0  0  0  0  0
  1  2  1  0
  2  3  1  0
  3  4  1  0
  4  5  2  0
  4  6  1  0
  6  7  2  0
  7  8  1  0
  8  9  1  0
  9 10  1  0
 10 11  2  0
 10 12  1  0
 12 13  2  0
 13 14  1  0
 14 15  2  0
 15 16  1  0
 16 17  2  0
  9 18  1  0
 18 19  1  0
 19 20  2  0
 20 21  1  0
 21 22  2  0
 22 23  1  0
 23 24  1  0
 22 25  1  0
 25 26  2  0
 18  6  1  0
 26 19  1  0
 17 12  1  0
  1 27  1  0
  1 28  1  0
  1 29  1  0
  2 30  1  0
  2 31  1  0
  8 32  1  0
  9 33  1  0
 13 34  1  0
 14 35  1  0
 15 36  1  0
 16 37  1  0
 17 38  1  0
 18 39  1  0
 20 40  1  0
 21 41  1  0
 24 42  1  0
 24 43  1  0
 24 44  1  0
 25 45  1  0
 26 46  1  0
M  END
$$$$
