
     RDKit          3D

 45 47  0  0  0  0  0  0  0  0999 V2000
    6.5054    3.7259   -1.8152 C   0  0  0  0  0  0  0  0  0  0  0  0
    5.0245    3.4586   -1.9231 C   0  0  0  0  0  0  0  0  0  0  0  0
    4.3922    3.8319   -2.9046 O   0  0  0  0  0  0  0  0  0  0  0  0
    4.5364    2.7481   -0.8412 N   0  0  0  0  0  0  0  0  0  0  0  0
    3.2056    2.3431   -0.6111 C   0  0  0  0  0  0  0  0  0  0  0  0
    2.1354    2.6636   -1.4505 C   0  0  0  0  0  0  0  0  0  0  0  0
    0.8402    2.2259   -1.1522 C   0  0  0  0  0  0  0  0  0  0  0  0
    0.6155    1.4466   -0.0159 C   0  0  0  0  0  0  0  0  0  0  0  0
   -1.0375    0.9063    0.3763 S   0  0  0  0  0  6  0  0  0  0  0  0
   -1.0974    0.7078    1.8081 O   0  0  0  0  0  0  0  0  0  0  0  0
   -1.9464    1.8345   -0.2674 O   0  0  0  0  0  0  0  0  0  0  0  0
   -1.1365   -0.5474   -0.4272 N   0  0  0  0  0  0  0  0  0  0  0  0
   -1.4303   -0.5317   -1.8595 C   0  0  0  0  0  0  0  0  0  0  0  0
   -1.4031   -2.0322   -2.1637 C   0  0  0  0  0  0  0  0  0  0  0  0
   -0.7591   -2.7127   -1.0068 N   0  0  0  0  0  0  0  0  0  0  0  0
   -0.6791   -1.8170   -0.0740 C   0  0  0  0  0  0  0  0  0  0  0  0
   -0.0156   -2.1792    1.4687 S   0  0  0  0  0  0  0  0  0  0  0  0
   -1.1918   -3.4596    1.9806 C   0  0  0  0  0  0  0  0  0  0  0  0
   -2.6290   -2.9935    1.9888 C   0  0  0  0  0  0  0  0  0  0  0  0
   -3.5521   -3.5323    1.0772 C   0  0  0  0  0  0  0  0  0  0  0  0
   -4.8769   -3.0935    1.0698 C   0  0  0  0  0  0  0  0  0  0  0  0
   -5.2809   -2.1162    1.9708 C   0  0  0  0  0  0  0  0  0  0  0  0
   -6.5521   -1.6949    1.9595 F   0  0  0  0  0  0  0  0  0  0  0  0
   -4.3852   -1.5689    2.8802 C   0  0  0  0  0  0  0  0  0  0  0  0
   -3.0608   -2.0083    2.8923 C   0  0  0  0  0  0  0  0  0  0  0  0
    1.6689    1.1424    0.8470 C   0  0  0  0  0  0  0  0  0  0  0  0
    2.9593    1.5860    0.5432 C   0  0  0  0  0  0  0  0  0  0  0  0
    6.7427    4.6594   -2.3340 H   0  0  0  0  0  0  0  0  0  0  0  0
    7.0550    2.9010   -2.2759 H   0  0  0  0  0  0  0  0  0  0  0  0
    6.8145    3.8328   -0.7714 H   0  0  0  0  0  0  0  0  0  0  0  0
    5.2108    2.4695   -0.1398 H   0  0  0  0  0  0  0  0  0  0  0  0
    2.2719    3.2671   -2.3432 H   0  0  0  0  0  0  0  0  0  0  0  0
    0.0201    2.5068   -1.8098 H   0  0  0  0  0  0  0  0  0  0  0  0
   -0.6461   -0.0172   -2.4216 H   0  0  0  0  0  0  0  0  0  0  0  0
   -2.4086   -0.1020   -2.0885 H   0  0  0  0  0  0  0  0  0  0  0  0
   -0.8452   -2.2379   -3.0828 H   0  0  0  0  0  0  0  0  0  0  0  0
   -2.4188   -2.4256   -2.2838 H   0  0  0  0  0  0  0  0  0  0  0  0
   -1.0700   -4.3342    1.3312 H   0  0  0  0  0  0  0  0  0  0  0  0
   -0.9240   -3.7896    2.9908 H   0  0  0  0  0  0  0  0  0  0  0  0
   -3.2417   -4.2911    0.3611 H   0  0  0  0  0  0  0  0  0  0  0  0
   -5.5942   -3.5042    0.3664 H   0  0  0  0  0  0  0  0  0  0  0  0
   -4.7188   -0.7992    3.5689 H   0  0  0  0  0  0  0  0  0  0  0  0
   -2.3624   -1.5616    3.5986 H   0  0  0  0  0  0  0  0  0  0  0  0
    1.4990    0.5712    1.7571 H   0  0  0  0  0  0  0  0  0  0  0  0
    3.7662    1.3332    1.2268 H   0  0  0  0  0  0  0  0  0  0  0  0
  1  2  1  0
  2  3  2  0
  2  4  1  0
  4  5  1  0
  5  6  2  0
  6  7  1  0
  7  8  2  0
  8  9  1  0
  9 10  2  0
  9 11  2  0
  9 12  1  0
 12 13  1  0
 13 14  1  0
 14 15  1  0
 15 16  2  0
 16 17  1  0
 17 18  1  0
 18 19  1  0
 19 20  2  0
 20 21  1  0
 21 22  2  0
 22 23  1  0
 22 24  1  0
 24 25  2  0
  8 26  1  0
 26 27  2  0
 27  5  1  0
 16 12  1  0
 25 19  1  0
  1 28  1  0
  1 29  1  0
  1 30  1  0
  4 31  1  0
  6 32  1  0
  7 33  1  0
 13 34  1  0
 13 35  1  0
 14 36  1  0
 14 37  1  0
 18 38  1  0
 18 39  1  0
 20 40  1  0
 21 41  1  0
 24 42  1  0
 25 43  1  0
 26 44  1  0
 27 45  1  0
M  END
$$$$
