
     RDKit          3D

 40 41  0  0  0  0  0  0  0  0999 V2000
    6.2485    1.4835    1.0937 C   0  0  0  0  0  0  0  0  0  0  0  0
    4.9063    1.2568    0.4215 C   0  0  0  0  0  0  0  0  0  0  0  0
    4.3557    0.0454    0.9360 O   0  0  0  0  0  0  0  0  0  0  0  0
    3.1466   -0.3525    0.4359 C   0  0  0  0  0  0  0  0  0  0  0  0
    2.6801   -1.5700    0.9454 C   0  0  0  0  0  0  0  0  0  0  0  0
    1.4583   -2.0994    0.5260 C   0  0  0  0  0  0  0  0  0  0  0  0
    0.6977   -1.3951   -0.4071 C   0  0  0  0  0  0  0  0  0  0  0  0
   -0.8625   -2.0363   -0.9599 S   0  0  0  0  0  6  0  0  0  0  0  0
   -0.8580   -1.9637   -2.4058 O   0  0  0  0  0  0  0  0  0  0  0  0
   -1.1223   -3.2829   -0.2705 O   0  0  0  0  0  0  0  0  0  0  0  0
   -1.9809   -0.8816   -0.3650 N   0  0  0  0  0  0  0  0  0  0  0  0
   -2.0170   -0.7459    1.1141 C   0  0  0  0  0  0  0  0  0  0  0  0
   -3.0160    0.2992    1.6135 C   0  0  0  0  0  0  0  0  0  0  0  0
   -3.1119    1.5603    0.7552 C   0  0  0  0  0  0  0  0  0  0  0  0
   -4.1045    1.4147   -0.4002 C   0  0  0  0  0  0  0  0  0  0  0  0
   -3.6882    0.4404   -1.5017 C   0  0  0  0  0  0  0  0  0  0  0  0
   -3.3193   -0.9543   -1.0037 C   0  0  0  0  0  0  0  0  0  0  0  0
    1.1536   -0.1816   -0.9300 C   0  0  0  0  0  0  0  0  0  0  0  0
    2.3792    0.3395   -0.5044 C   0  0  0  0  0  0  0  0  0  0  0  0
    6.1292    1.5496    2.1802 H   0  0  0  0  0  0  0  0  0  0  0  0
    6.9244    0.6445    0.8977 H   0  0  0  0  0  0  0  0  0  0  0  0
    6.7147    2.4045    0.7328 H   0  0  0  0  0  0  0  0  0  0  0  0
    5.0574    1.1771   -0.6613 H   0  0  0  0  0  0  0  0  0  0  0  0
    4.2453    2.1010    0.6490 H   0  0  0  0  0  0  0  0  0  0  0  0
    3.2800   -2.1120    1.6734 H   0  0  0  0  0  0  0  0  0  0  0  0
    1.1155   -3.0500    0.9274 H   0  0  0  0  0  0  0  0  0  0  0  0
   -1.0245   -0.4379    1.4598 H   0  0  0  0  0  0  0  0  0  0  0  0
   -2.2485   -1.7104    1.5799 H   0  0  0  0  0  0  0  0  0  0  0  0
   -4.0088   -0.1552    1.7200 H   0  0  0  0  0  0  0  0  0  0  0  0
   -2.7149    0.5846    2.6297 H   0  0  0  0  0  0  0  0  0  0  0  0
   -3.4713    2.3769    1.3939 H   0  0  0  0  0  0  0  0  0  0  0  0
   -2.1250    1.8632    0.3866 H   0  0  0  0  0  0  0  0  0  0  0  0
   -5.0808    1.1102   -0.0023 H   0  0  0  0  0  0  0  0  0  0  0  0
   -4.2560    2.4010   -0.8561 H   0  0  0  0  0  0  0  0  0  0  0  0
   -4.5229    0.3526   -2.2079 H   0  0  0  0  0  0  0  0  0  0  0  0
   -2.8478    0.8686   -2.0629 H   0  0  0  0  0  0  0  0  0  0  0  0
   -3.3035   -1.6278   -1.8676 H   0  0  0  0  0  0  0  0  0  0  0  0
   -4.0733   -1.3580   -0.3197 H   0  0  0  0  0  0  0  0  0  0  0  0
    0.5594    0.3570   -1.6655 H   0  0  0  0  0  0  0  0  0  0  0  0
    2.7058    1.2839   -0.9271 H   0  0  0  0  0  0  0  0  0  0  0  0
  1  2  1  0
  2  3  1  0
  3  4  1  0
  4  5  2  0
  5  6  1  0
  6  7  2  0
  7  8  1  0
  8  9  2  0
  8 10  2  0
  8 11  1  0
 11 12  1  0
 12 13  1  0
 13 14  1  0
 14 15  1  0
 15 16  1  0
 16 17  1  0
  7 18  1  0
 18 19  2  0
 19  4  1  0
 17 11  1  0
  1 20  1  0
  1 21  1  0
  1 22  1  0
  2 23  1  0
  2 24  1  0
  5 25  1  0
  6 26  1  0
 12 27  1  0
 12 28  1  0
 13 29  1  0
 13 30  1  0
 14 31  1  0
 14 32  1  0
 15 33  1  0
 15 34  1  0
 16 35  1  0
 16 36  1  0
 17 37  1  0
 17 38  1  0
 18 39  1  0
 19 40  1  0
M  END
$$$$
