
     RDKit          3D

 56 58  0  0  0  0  0  0  0  0999 V2000
   -7.2475    2.7272    0.7696 C   0  0  0  0  0  0  0  0  0  0  0  0
   -6.8670    1.2669    0.6139 C   0  0  0  0  0  0  0  0  0  0  0  0
   -5.5030    1.0660    1.0100 O   0  0  0  0  0  0  0  0  0  0  0  0
   -4.5681    1.2811    0.0416 C   0  0  0  0  0  0  0  0  0  0  0  0
   -4.8082    1.6164   -1.1119 O   0  0  0  0  0  0  0  0  0  0  0  0
   -3.1826    1.0163    0.5811 C   0  0  0  0  0  0  0  0  0  0  0  0
   -2.3711    2.2904    0.5781 C   0  0  0  0  0  0  0  0  0  0  0  0
   -2.8638    3.3943    0.8065 O   0  0  0  0  0  0  0  0  0  0  0  0
   -0.9010    2.2080    0.3969 C   0  0  0  0  0  0  0  0  0  0  0  0
   -0.2690    1.0349    0.2258 C   0  0  0  0  0  0  0  0  0  0  0  0
    1.1878    1.0227    0.1308 C   0  0  0  0  0  0  0  0  0  0  0  0
    1.9720   -0.0671    0.0792 C   0  0  0  0  0  0  0  0  0  0  0  0
    3.4371   -0.0067   -0.0170 C   0  0  0  0  0  0  0  0  0  0  0  0
    4.2023    0.8842    0.7337 C   0  0  0  0  0  0  0  0  0  0  0  0
    5.6030    0.8883    0.6319 C   0  0  0  0  0  0  0  0  0  0  0  0
    6.3013   -0.0028   -0.2014 C   0  0  0  0  0  0  0  0  0  0  0  0
    7.6964    0.0183   -0.3138 N   0  0  0  0  0  0  0  0  0  0  0  0
    8.4787    0.7542    0.6776 C   0  0  0  0  0  0  0  0  0  0  0  0
    8.3746   -1.1161   -0.9383 C   0  0  0  0  0  0  0  0  0  0  0  0
    5.5040   -0.8895   -0.9458 C   0  0  0  0  0  0  0  0  0  0  0  0
    4.1031   -0.9029   -0.8508 C   0  0  0  0  0  0  0  0  0  0  0  0
   -1.0323   -0.2659    0.1275 C   0  0  0  0  0  0  0  0  0  0  0  0
   -2.5091   -0.0703   -0.2713 C   0  0  0  0  0  0  0  0  0  0  0  0
   -3.2564   -1.3980   -0.2251 C   0  0  0  0  0  0  0  0  0  0  0  0
   -3.4228   -2.1132    0.9710 C   0  0  0  0  0  0  0  0  0  0  0  0
   -4.1230   -3.3211    0.9856 C   0  0  0  0  0  0  0  0  0  0  0  0
   -4.6674   -3.8281   -0.1917 C   0  0  0  0  0  0  0  0  0  0  0  0
   -4.5140   -3.1271   -1.3850 C   0  0  0  0  0  0  0  0  0  0  0  0
   -3.8140   -1.9197   -1.4024 C   0  0  0  0  0  0  0  0  0  0  0  0
   -8.3022    2.8813    0.5252 H   0  0  0  0  0  0  0  0  0  0  0  0
   -6.6410    3.3635    0.1174 H   0  0  0  0  0  0  0  0  0  0  0  0
   -7.0699    3.0631    1.7965 H   0  0  0  0  0  0  0  0  0  0  0  0
   -7.0416    0.9124   -0.4085 H   0  0  0  0  0  0  0  0  0  0  0  0
   -7.4859    0.6527    1.2762 H   0  0  0  0  0  0  0  0  0  0  0  0
   -3.2535    0.6966    1.6289 H   0  0  0  0  0  0  0  0  0  0  0  0
   -0.3800    3.1580    0.4610 H   0  0  0  0  0  0  0  0  0  0  0  0
    1.6654    2.0031    0.1003 H   0  0  0  0  0  0  0  0  0  0  0  0
    1.5587   -1.0714    0.0930 H   0  0  0  0  0  0  0  0  0  0  0  0
    3.7289    1.5862    1.4155 H   0  0  0  0  0  0  0  0  0  0  0  0
    6.1316    1.6196    1.2354 H   0  0  0  0  0  0  0  0  0  0  0  0
    9.5520    0.6871    0.4667 H   0  0  0  0  0  0  0  0  0  0  0  0
    8.2371    1.8224    0.6604 H   0  0  0  0  0  0  0  0  0  0  0  0
    8.3143    0.3548    1.6845 H   0  0  0  0  0  0  0  0  0  0  0  0
    9.4613   -0.9742   -0.9478 H   0  0  0  0  0  0  0  0  0  0  0  0
    8.0784   -1.2269   -1.9869 H   0  0  0  0  0  0  0  0  0  0  0  0
    8.1682   -2.0456   -0.3963 H   0  0  0  0  0  0  0  0  0  0  0  0
    5.9516   -1.6014   -1.6323 H   0  0  0  0  0  0  0  0  0  0  0  0
    3.5453   -1.6169   -1.4524 H   0  0  0  0  0  0  0  0  0  0  0  0
   -0.9445   -0.7869    1.0895 H   0  0  0  0  0  0  0  0  0  0  0  0
   -0.5780   -0.9174   -0.6306 H   0  0  0  0  0  0  0  0  0  0  0  0
   -2.5035    0.2762   -1.3167 H   0  0  0  0  0  0  0  0  0  0  0  0
   -3.0136   -1.7407    1.9073 H   0  0  0  0  0  0  0  0  0  0  0  0
   -4.2459   -3.8664    1.9180 H   0  0  0  0  0  0  0  0  0  0  0  0
   -5.2139   -4.7674   -0.1790 H   0  0  0  0  0  0  0  0  0  0  0  0
   -4.9431   -3.5179   -2.3042 H   0  0  0  0  0  0  0  0  0  0  0  0
   -3.7164   -1.3847   -2.3457 H   0  0  0  0  0  0  0  0  0  0  0  0
  1  2  1  0
  2  3  1  0
  3  4  1  0
  4  5  2  0
  4  6  1  0
  6  7  1  0
  7  8  2  0
  7  9  1  0
  9 10  2  0
 10 11  1  0
 11 12  2  3
 12 13  1  0
 13 14  2  0
 14 15  1  0
 15 16  2  0
 16 17  1  0
 17 18  1  0
 17 19  1  0
 16 20  1  0
 20 21  2  0
 10 22  1  0
 22 23  1  0
 23 24  1  0
 24 25  2  0
 25 26  1  0
 26 27  2  0
 27 28  1  0
 28 29  2  0
 23  6  1  0
 29 24  1  0
 21 13  1  0
  1 30  1  0
  1 31  1  0
  1 32  1  0
  2 33  1  0
  2 34  1  0
  6 35  1  0
  9 36  1  0
 11 37  1  0
 12 38  1  0
 14 39  1  0
 15 40  1  0
 18 41  1  0
 18 42  1  0
 18 43  1  0
 19 44  1  0
 19 45  1  0
 19 46  1  0
 20 47  1  0
 21 48  1  0
 22 49  1  0
 22 50  1  0
 23 51  1  0
 25 52  1  0
 26 53  1  0
 27 54  1  0
 28 55  1  0
 29 56  1  0
M  END
$$$$
