
     RDKit          3D

 44 47  0  0  0  0  0  0  0  0999 V2000
   -7.3920   -2.3369   -1.3028 C   0  0  0  0  0  0  0  0  0  0  0  0
   -6.8758   -0.9511   -1.6583 C   0  0  0  0  0  0  0  0  0  0  0  0
   -5.6100   -0.6163   -0.9127 C   0  0  0  0  0  0  0  0  0  0  0  0
   -5.6620    0.0029    0.3396 C   0  0  0  0  0  0  0  0  0  0  0  0
   -4.4839    0.2974    1.0333 C   0  0  0  0  0  0  0  0  0  0  0  0
   -3.2326   -0.0247    0.4927 C   0  0  0  0  0  0  0  0  0  0  0  0
   -2.0964    0.3066    1.2606 N   0  0  0  0  0  0  0  0  0  0  0  0
   -0.7594    0.1011    0.9319 C   0  0  0  0  0  0  0  0  0  0  0  0
   -0.3444   -0.4183   -0.1002 O   0  0  0  0  0  0  0  0  0  0  0  0
    0.1733    0.5823    2.0519 C   0  0  0  0  0  0  0  0  0  0  0  0
    1.5681    0.5255    1.6475 N   0  0  0  0  0  0  0  0  0  0  0  0
    2.2816   -0.6169    2.0117 N   0  0  0  0  0  0  0  0  0  0  0  0
    3.5044   -0.7411    1.5870 C   0  0  0  0  0  0  0  0  0  0  0  0
    4.1061    0.2354    0.8048 N   0  0  0  0  0  0  0  0  0  0  0  0
    3.4397    1.3742    0.4467 C   0  0  0  0  0  0  0  0  0  0  0  0
    4.2891    2.1501   -0.3109 C   0  0  0  0  0  0  0  0  0  0  0  0
    5.5238    1.4540   -0.4159 C   0  0  0  0  0  0  0  0  0  0  0  0
    6.7475    1.7386   -1.0523 C   0  0  0  0  0  0  0  0  0  0  0  0
    7.7987    0.8203   -0.9648 C   0  0  0  0  0  0  0  0  0  0  0  0
    7.6450   -0.3680   -0.2567 C   0  0  0  0  0  0  0  0  0  0  0  0
    6.4405   -0.6751    0.3838 C   0  0  0  0  0  0  0  0  0  0  0  0
    5.3898    0.2531    0.2909 C   0  0  0  0  0  0  0  0  0  0  0  0
    2.0809    1.5750    0.8671 C   0  0  0  0  0  0  0  0  0  0  0  0
    1.4318    2.5799    0.5867 O   0  0  0  0  0  0  0  0  0  0  0  0
   -3.1821   -0.6484   -0.7534 C   0  0  0  0  0  0  0  0  0  0  0  0
   -4.3605   -0.9438   -1.4494 C   0  0  0  0  0  0  0  0  0  0  0  0
   -8.3104   -2.5525   -1.8580 H   0  0  0  0  0  0  0  0  0  0  0  0
   -6.6567   -3.1103   -1.5497 H   0  0  0  0  0  0  0  0  0  0  0  0
   -7.6156   -2.4154   -0.2334 H   0  0  0  0  0  0  0  0  0  0  0  0
   -6.6954   -0.8885   -2.7384 H   0  0  0  0  0  0  0  0  0  0  0  0
   -7.6444   -0.2009   -1.4357 H   0  0  0  0  0  0  0  0  0  0  0  0
   -6.6205    0.2609    0.7842 H   0  0  0  0  0  0  0  0  0  0  0  0
   -4.5647    0.7821    2.0025 H   0  0  0  0  0  0  0  0  0  0  0  0
   -2.2855    0.7647    2.1429 H   0  0  0  0  0  0  0  0  0  0  0  0
   -0.0861    1.6140    2.3142 H   0  0  0  0  0  0  0  0  0  0  0  0
    0.0290   -0.0532    2.9325 H   0  0  0  0  0  0  0  0  0  0  0  0
    4.0855   -1.6372    1.8529 H   0  0  0  0  0  0  0  0  0  0  0  0
    4.0428    3.1123   -0.7430 H   0  0  0  0  0  0  0  0  0  0  0  0
    6.8760    2.6630   -1.6087 H   0  0  0  0  0  0  0  0  0  0  0  0
    8.7436    1.0387   -1.4569 H   0  0  0  0  0  0  0  0  0  0  0  0
    8.4745   -1.0701   -0.2022 H   0  0  0  0  0  0  0  0  0  0  0  0
    6.3364   -1.6075    0.9298 H   0  0  0  0  0  0  0  0  0  0  0  0
   -2.2406   -0.9220   -1.2189 H   0  0  0  0  0  0  0  0  0  0  0  0
   -4.2891   -1.4337   -2.4183 H   0  0  0  0  0  0  0  0  0  0  0  0
  1  2  1  0
  2  3  1  0
  3  4  2  0
  4  5  1  0
  5  6  2  0
  6  7  1  0
  7  8  1  0
  8  9  2  0
  8 10  1  0
 10 11  1  0
 11 12  1  0
 12 13  2  0
 13 14  1  0
 14 15  1  0
 15 16  2  0
 16 17  1  0
 17 18  2  0
 18 19  1  0
 19 20  2  0
 20 21  1  0
 21 22  2  0
 15 23  1  0
 23 24  2  0
  6 25  1  0
 25 26  2  0
 26  3  1  0
 23 11  1  0
 22 14  1  0
 22 17  1  0
  1 27  1  0
  1 28  1  0
  1 29  1  0
  2 30  1  0
  2 31  1  0
  4 32  1  0
  5 33  1  0
  7 34  1  0
 10 35  1  0
 10 36  1  0
 13 37  1  0
 16 38  1  0
 18 39  1  0
 19 40  1  0
 20 41  1  0
 21 42  1  0
 25 43  1  0
 26 44  1  0
M  END
$$$$
