
     RDKit          3D

 57 61  0  0  0  0  0  0  0  0999 V2000
   -9.0951   -1.5289    2.0949 C   0  0  0  0  0  0  0  0  0  0  0  0
   -7.7997   -1.0680    1.4965 C   0  0  0  0  0  0  0  0  0  0  0  0
   -7.7836   -0.1583    0.4373 C   0  0  0  0  0  0  0  0  0  0  0  0
   -6.5682    0.2883   -0.0949 C   0  0  0  0  0  0  0  0  0  0  0  0
   -5.3305   -0.1451    0.4162 C   0  0  0  0  0  0  0  0  0  0  0  0
   -4.0594    0.3464   -0.1643 C   0  0  0  0  0  0  0  0  0  0  0  0
   -2.8686    0.3895    0.5390 C   0  0  0  0  0  0  0  0  0  0  0  0
   -1.7246    0.8497   -0.1143 C   0  0  0  0  0  0  0  0  0  0  0  0
   -0.4647    0.7964    0.6600 C   0  0  0  0  0  0  0  0  0  0  0  0
   -0.3975    1.4427    1.6958 O   0  0  0  0  0  0  0  0  0  0  0  0
    0.4810   -0.0542    0.1209 N   0  0  0  0  0  0  0  0  0  0  0  0
    1.7661   -0.3363    0.6263 C   0  0  0  0  0  0  0  0  0  0  0  0
    2.3064    0.2707    1.7629 C   0  0  0  0  0  0  0  0  0  0  0  0
    3.5902   -0.0664    2.2057 C   0  0  0  0  0  0  0  0  0  0  0  0
    4.3419   -1.0077    1.4995 C   0  0  0  0  0  0  0  0  0  0  0  0
    5.9488   -1.4698    2.1004 S   0  0  0  0  0  6  0  0  0  0  0  0
    6.3969   -2.6543    1.3990 O   0  0  0  0  0  0  0  0  0  0  0  0
    5.8584   -1.4766    3.5476 O   0  0  0  0  0  0  0  0  0  0  0  0
    6.9070   -0.1715    1.7121 N   0  0  0  0  0  0  0  0  0  0  0  0
    7.4222   -0.1183    0.4235 C   0  0  0  0  0  0  0  0  0  0  0  0
    8.6722    0.3559    0.3713 N   0  0  0  0  0  0  0  0  0  0  0  0
    9.1671    0.5465   -0.8659 C   0  0  0  0  0  0  0  0  0  0  0  0
    8.4449    0.3182   -2.0146 C   0  0  0  0  0  0  0  0  0  0  0  0
    7.1535   -0.1186   -1.8261 C   0  0  0  0  0  0  0  0  0  0  0  0
    6.6081   -0.3265   -0.6136 N   0  0  0  0  0  0  0  0  0  0  0  0
    3.8116   -1.6298    0.3693 C   0  0  0  0  0  0  0  0  0  0  0  0
    2.5293   -1.2865   -0.0674 C   0  0  0  0  0  0  0  0  0  0  0  0
   -1.7725    1.3152   -1.4440 C   0  0  0  0  0  0  0  0  0  0  0  0
   -0.6739    1.8599   -2.1579 C   0  0  0  0  0  0  0  0  0  0  0  0
   -0.8158    2.2848   -3.4768 C   0  0  0  0  0  0  0  0  0  0  0  0
   -2.0518    2.1798   -4.0969 C   0  0  0  0  0  0  0  0  0  0  0  0
   -3.1393    1.6618   -3.3897 C   0  0  0  0  0  0  0  0  0  0  0  0
   -3.0256    1.2341   -2.0735 C   0  0  0  0  0  0  0  0  0  0  0  0
   -4.1217    0.7585   -1.4576 N   0  0  0  0  0  0  0  0  0  0  0  0
   -5.3699   -1.0584    1.4860 C   0  0  0  0  0  0  0  0  0  0  0  0
   -6.5834   -1.5078    2.0231 C   0  0  0  0  0  0  0  0  0  0  0  0
   -9.9252   -1.3951    1.3930 H   0  0  0  0  0  0  0  0  0  0  0  0
   -9.3112   -0.9584    3.0038 H   0  0  0  0  0  0  0  0  0  0  0  0
   -9.0473   -2.5944    2.3435 H   0  0  0  0  0  0  0  0  0  0  0  0
   -8.7137    0.2126    0.0128 H   0  0  0  0  0  0  0  0  0  0  0  0
   -6.5929    0.9948   -0.9242 H   0  0  0  0  0  0  0  0  0  0  0  0
   -2.8066    0.0800    1.5774 H   0  0  0  0  0  0  0  0  0  0  0  0
    0.2114   -0.5650   -0.7120 H   0  0  0  0  0  0  0  0  0  0  0  0
    1.7509    1.0093    2.3330 H   0  0  0  0  0  0  0  0  0  0  0  0
    3.9890    0.4043    3.1018 H   0  0  0  0  0  0  0  0  0  0  0  0
    7.5858    0.0612    2.4276 H   0  0  0  0  0  0  0  0  0  0  0  0
   10.1932    0.9030   -0.9098 H   0  0  0  0  0  0  0  0  0  0  0  0
    8.8590    0.4804   -3.0010 H   0  0  0  0  0  0  0  0  0  0  0  0
    6.4995   -0.3165   -2.6717 H   0  0  0  0  0  0  0  0  0  0  0  0
    4.3905   -2.3715   -0.1773 H   0  0  0  0  0  0  0  0  0  0  0  0
    2.1358   -1.7788   -0.9530 H   0  0  0  0  0  0  0  0  0  0  0  0
    0.2989    1.9750   -1.6830 H   0  0  0  0  0  0  0  0  0  0  0  0
    0.0328    2.7032   -4.0122 H   0  0  0  0  0  0  0  0  0  0  0  0
   -2.1798    2.5074   -5.1247 H   0  0  0  0  0  0  0  0  0  0  0  0
   -4.1082    1.5936   -3.8796 H   0  0  0  0  0  0  0  0  0  0  0  0
   -4.4531   -1.4517    1.9187 H   0  0  0  0  0  0  0  0  0  0  0  0
   -6.5684   -2.2090    2.8554 H   0  0  0  0  0  0  0  0  0  0  0  0
  1  2  1  0
  2  3  2  0
  3  4  1  0
  4  5  2  0
  5  6  1  0
  6  7  2  0
  7  8  1  0
  8  9  1  0
  9 10  2  0
  9 11  1  0
 11 12  1  0
 12 13  2  0
 13 14  1  0
 14 15  2  0
 15 16  1  0
 16 17  2  0
 16 18  2  0
 16 19  1  0
 19 20  1  0
 20 21  2  0
 21 22  1  0
 22 23  2  0
 23 24  1  0
 24 25  2  0
 15 26  1  0
 26 27  2  0
  8 28  2  0
 28 29  1  0
 29 30  2  0
 30 31  1  0
 31 32  2  0
 32 33  1  0
 33 34  2  0
  5 35  1  0
 35 36  2  0
 36  2  1  0
 34  6  1  0
 27 12  1  0
 33 28  1  0
 25 20  1  0
  1 37  1  0
  1 38  1  0
  1 39  1  0
  3 40  1  0
  4 41  1  0
  7 42  1  0
 11 43  1  0
 13 44  1  0
 14 45  1  0
 19 46  1  0
 22 47  1  0
 23 48  1  0
 24 49  1  0
 26 50  1  0
 27 51  1  0
 29 52  1  0
 30 53  1  0
 31 54  1  0
 32 55  1  0
 35 56  1  0
 36 57  1  0
M  END
$$$$
