
     RDKit          3D

 36 38  0  0  0  0  0  0  0  0999 V2000
   -2.3391   -0.2731   -0.8808 C   0  0  0  0  0  0  0  0  0  0  0  0
   -1.9501   -0.5348    0.5639 C   0  0  0  0  0  0  0  0  0  0  0  0
   -0.8503   -0.0755    1.1026 N   0  0  0  0  0  0  0  0  0  0  0  0
   -0.0065    0.6179    0.2780 N   0  0  0  0  0  0  0  0  0  0  0  0
    1.0247   -0.1287   -0.3607 C   0  0  0  0  0  0  0  0  0  0  0  0
    0.9286   -1.4835   -0.4330 N   0  0  0  0  0  0  0  0  0  0  0  0
    1.9132   -2.1827   -1.0054 C   0  0  0  0  0  0  0  0  0  0  0  0
    3.0308   -1.7064   -1.5490 N   0  0  0  0  0  0  0  0  0  0  0  0
    3.0937   -0.3667   -1.4959 C   0  0  0  0  0  0  0  0  0  0  0  0
    4.4392    0.4376   -2.1479 S   0  0  0  0  0  0  0  0  0  0  0  0
    3.8076    1.9720   -1.7488 C   0  0  0  0  0  0  0  0  0  0  0  0
    4.5905    3.1965   -2.0999 C   0  0  0  0  0  0  0  0  0  0  0  0
    2.5677    1.8846   -1.1275 C   0  0  0  0  0  0  0  0  0  0  0  0
    1.7608    3.0753   -0.7101 C   0  0  0  0  0  0  0  0  0  0  0  0
    2.1563    0.4956   -0.9463 C   0  0  0  0  0  0  0  0  0  0  0  0
   -2.8744   -1.3671    1.3994 C   0  0  0  0  0  0  0  0  0  0  0  0
   -2.5111   -1.7242    2.6951 C   0  0  0  0  0  0  0  0  0  0  0  0
   -3.3916   -2.4991    3.4456 C   0  0  0  0  0  0  0  0  0  0  0  0
   -4.6004   -2.8916    2.8835 C   0  0  0  0  0  0  0  0  0  0  0  0
   -4.8812   -2.4921    1.5873 C   0  0  0  0  0  0  0  0  0  0  0  0
   -4.0497   -1.7405    0.8336 N   0  0  0  0  0  0  0  0  0  0  0  0
   -2.2000    0.7865   -1.1165 H   0  0  0  0  0  0  0  0  0  0  0  0
   -3.3822   -0.5146   -1.0923 H   0  0  0  0  0  0  0  0  0  0  0  0
   -1.7077   -0.8748   -1.5405 H   0  0  0  0  0  0  0  0  0  0  0  0
    0.4390    1.4047    0.7453 H   0  0  0  0  0  0  0  0  0  0  0  0
    1.7862   -3.2603   -1.0256 H   0  0  0  0  0  0  0  0  0  0  0  0
    4.0815    3.7535   -2.8934 H   0  0  0  0  0  0  0  0  0  0  0  0
    5.6018    2.9618   -2.4478 H   0  0  0  0  0  0  0  0  0  0  0  0
    4.6862    3.8495   -1.2260 H   0  0  0  0  0  0  0  0  0  0  0  0
    2.1461    4.0032   -1.1439 H   0  0  0  0  0  0  0  0  0  0  0  0
    1.7798    3.1824    0.3790 H   0  0  0  0  0  0  0  0  0  0  0  0
    0.7225    2.9748   -1.0416 H   0  0  0  0  0  0  0  0  0  0  0  0
   -1.5595   -1.4135    3.1143 H   0  0  0  0  0  0  0  0  0  0  0  0
   -3.1327   -2.7945    4.4585 H   0  0  0  0  0  0  0  0  0  0  0  0
   -5.3068   -3.4964    3.4415 H   0  0  0  0  0  0  0  0  0  0  0  0
   -5.8128   -2.7758    1.1053 H   0  0  0  0  0  0  0  0  0  0  0  0
  1  2  1  0
  2  3  2  3
  3  4  1  0
  4  5  1  0
  5  6  2  0
  6  7  1  0
  7  8  2  0
  8  9  1  0
  9 10  1  0
 10 11  1  0
 11 12  1  0
 11 13  2  0
 13 14  1  0
 13 15  1  0
  2 16  1  0
 16 17  2  0
 17 18  1  0
 18 19  2  0
 19 20  1  0
 20 21  2  0
 15  5  1  0
 21 16  1  0
 15  9  2  0
  1 22  1  0
  1 23  1  0
  1 24  1  0
  4 25  1  0
  7 26  1  0
 12 27  1  0
 12 28  1  0
 12 29  1  0
 14 30  1  0
 14 31  1  0
 14 32  1  0
 17 33  1  0
 18 34  1  0
 19 35  1  0
 20 36  1  0
M  END
$$$$
