
     RDKit          3D

 36 37  0  0  0  0  0  0  0  0999 V2000
   -4.6037    1.1080    1.9365 C   0  0  0  0  0  0  0  0  0  0  0  0
   -3.9209    0.9731    0.6631 N   0  0  0  0  0  0  0  0  0  0  0  0
   -4.6870    1.0238   -0.4935 C   0  0  0  0  0  0  0  0  0  0  0  0
   -5.9083    1.1652   -0.4935 O   0  0  0  0  0  0  0  0  0  0  0  0
   -3.9569    0.8815   -1.7718 C   0  0  0  0  0  0  0  0  0  0  0  0
   -4.6537    0.9753   -3.0038 C   0  0  0  0  0  0  0  0  0  0  0  0
   -5.1643    1.0416   -4.0440 N   0  0  0  0  0  0  0  0  0  0  0  0
   -2.6407    0.6533   -1.7303 C   0  0  0  0  0  0  0  0  0  0  0  0
   -1.9448    0.5492   -0.5457 N   0  0  0  0  0  0  0  0  0  0  0  0
   -0.5007    0.2635   -0.5836 C   0  0  0  0  0  0  0  0  0  0  0  0
   -0.1755   -1.1948   -0.2086 C   0  0  0  0  0  0  0  0  0  0  0  0
    1.0565   -1.6742   -0.8438 N   0  0  0  0  0  0  0  0  0  0  0  0
    2.2661   -1.2298   -0.2775 C   0  0  0  0  0  0  0  0  0  0  0  0
    2.2427   -0.2098    0.6084 N   0  0  0  0  0  0  0  0  0  0  0  0
    3.4174    0.2426    1.1101 C   0  0  0  0  0  0  0  0  0  0  0  0
    4.6574   -0.2699    0.7664 C   0  0  0  0  0  0  0  0  0  0  0  0
    5.9035    0.3132    1.3545 C   0  0  0  0  0  0  0  0  0  0  0  0
    5.7471    0.7054    2.6483 F   0  0  0  0  0  0  0  0  0  0  0  0
    6.9511   -0.5562    1.3530 F   0  0  0  0  0  0  0  0  0  0  0  0
    6.3279    1.4134    0.6768 F   0  0  0  0  0  0  0  0  0  0  0  0
    4.6837   -1.3078   -0.1670 C   0  0  0  0  0  0  0  0  0  0  0  0
    3.4852   -1.7902   -0.6941 C   0  0  0  0  0  0  0  0  0  0  0  0
    3.5479   -3.0873   -1.8335 Cl  0  0  0  0  0  0  0  0  0  0  0  0
   -2.5614    0.6707    0.6983 C   0  0  0  0  0  0  0  0  0  0  0  0
   -1.9461    0.5024    1.7505 O   0  0  0  0  0  0  0  0  0  0  0  0
   -5.5238    1.6909    1.8371 H   0  0  0  0  0  0  0  0  0  0  0  0
   -3.9564    1.5972    2.6708 H   0  0  0  0  0  0  0  0  0  0  0  0
   -4.8542    0.1060    2.2994 H   0  0  0  0  0  0  0  0  0  0  0  0
   -2.0642    0.5340   -2.6461 H   0  0  0  0  0  0  0  0  0  0  0  0
   -0.1133    0.5037   -1.5816 H   0  0  0  0  0  0  0  0  0  0  0  0
   -0.0099    0.9501    0.1161 H   0  0  0  0  0  0  0  0  0  0  0  0
   -0.1501   -1.3363    0.8790 H   0  0  0  0  0  0  0  0  0  0  0  0
   -0.9848   -1.8388   -0.5751 H   0  0  0  0  0  0  0  0  0  0  0  0
    1.0847   -2.6913   -0.8977 H   0  0  0  0  0  0  0  0  0  0  0  0
    3.3179    1.0611    1.8216 H   0  0  0  0  0  0  0  0  0  0  0  0
    5.6318   -1.7388   -0.4824 H   0  0  0  0  0  0  0  0  0  0  0  0
  1  2  1  0
  2  3  1  0
  3  4  2  0
  3  5  1  0
  5  6  1  0
  6  7  3  0
  5  8  2  0
  8  9  1  0
  9 10  1  0
 10 11  1  0
 11 12  1  0
 12 13  1  0
 13 14  2  0
 14 15  1  0
 15 16  2  0
 16 17  1  0
 17 18  1  0
 17 19  1  0
 17 20  1  0
 16 21  1  0
 21 22  2  0
 22 23  1  0
  9 24  1  0
 24 25  2  0
 24  2  1  0
 22 13  1  0
  1 26  1  0
  1 27  1  0
  1 28  1  0
  8 29  1  0
 10 30  1  0
 10 31  1  0
 11 32  1  0
 11 33  1  0
 12 34  1  0
 15 35  1  0
 21 36  1  0
M  END
$$$$
