
     RDKit          3D

 43 45  0  0  0  0  0  0  0  0999 V2000
   -1.2849    4.1751   -1.6362 C   0  0  0  0  0  0  0  0  0  0  0  0
   -1.1235    3.5297   -0.3723 O   0  0  0  0  0  0  0  0  0  0  0  0
   -1.2309    2.1675   -0.4292 C   0  0  0  0  0  0  0  0  0  0  0  0
   -1.4636    1.5313   -1.4490 O   0  0  0  0  0  0  0  0  0  0  0  0
   -1.0446    1.5960    0.9550 C   0  0  0  0  0  0  0  0  0  0  0  0
   -0.9364    0.1466    0.9470 N   0  0  0  0  0  0  0  0  0  0  0  0
    0.2292   -0.6019    0.9185 C   0  0  0  0  0  0  0  0  0  0  0  0
    1.6141   -0.0159    0.8897 C   0  0  0  0  0  0  0  0  0  0  0  0
    1.8049    0.9536   -0.2039 N   0  0  0  0  0  0  0  0  0  0  0  0
    1.7417    0.3135   -1.5436 C   0  0  0  0  0  0  0  0  0  0  0  0
    2.9731   -0.5368   -1.8993 C   0  0  0  0  0  0  0  0  0  0  0  0
    4.1812    0.2261   -1.7848 O   0  0  0  0  0  0  0  0  0  0  0  0
    4.3217    0.7633   -0.4659 C   0  0  0  0  0  0  0  0  0  0  0  0
    3.1134    1.6373   -0.0876 C   0  0  0  0  0  0  0  0  0  0  0  0
   -0.0460   -1.8987    0.9123 N   0  0  0  0  0  0  0  0  0  0  0  0
   -1.4029   -1.9736    0.9215 C   0  0  0  0  0  0  0  0  0  0  0  0
   -1.9798   -0.7387    0.9529 C   0  0  0  0  0  0  0  0  0  0  0  0
   -3.3884   -0.5527    0.9615 C   0  0  0  0  0  0  0  0  0  0  0  0
   -3.9548    0.5331    1.0123 O   0  0  0  0  0  0  0  0  0  0  0  0
   -4.0762   -1.7447    0.9248 N   0  0  0  0  0  0  0  0  0  0  0  0
   -3.5424   -3.0206    0.9018 C   0  0  0  0  0  0  0  0  0  0  0  0
   -4.3085   -3.9844    0.8861 O   0  0  0  0  0  0  0  0  0  0  0  0
   -2.1556   -3.1282    0.9025 N   0  0  0  0  0  0  0  0  0  0  0  0
   -1.5127   -4.4266    0.8667 C   0  0  0  0  0  0  0  0  0  0  0  0
   -2.2855    3.9864   -2.0376 H   0  0  0  0  0  0  0  0  0  0  0  0
   -1.1705    5.2518   -1.4836 H   0  0  0  0  0  0  0  0  0  0  0  0
   -0.5145    3.8412   -2.3384 H   0  0  0  0  0  0  0  0  0  0  0  0
   -0.1398    2.0049    1.4131 H   0  0  0  0  0  0  0  0  0  0  0  0
   -1.8956    1.8710    1.5844 H   0  0  0  0  0  0  0  0  0  0  0  0
    2.3437   -0.8327    0.8483 H   0  0  0  0  0  0  0  0  0  0  0  0
    1.7665    0.4867    1.8538 H   0  0  0  0  0  0  0  0  0  0  0  0
    0.8304   -0.2828   -1.6603 H   0  0  0  0  0  0  0  0  0  0  0  0
    1.6621    1.1248   -2.2793 H   0  0  0  0  0  0  0  0  0  0  0  0
    2.8974   -0.8748   -2.9379 H   0  0  0  0  0  0  0  0  0  0  0  0
    3.0485   -1.4297   -1.2689 H   0  0  0  0  0  0  0  0  0  0  0  0
    5.2316    1.3721   -0.4548 H   0  0  0  0  0  0  0  0  0  0  0  0
    4.4686   -0.0573    0.2452 H   0  0  0  0  0  0  0  0  0  0  0  0
    3.2443    2.0463    0.9212 H   0  0  0  0  0  0  0  0  0  0  0  0
    3.0877    2.5016   -0.7640 H   0  0  0  0  0  0  0  0  0  0  0  0
   -5.0821   -1.6877    0.9264 H   0  0  0  0  0  0  0  0  0  0  0  0
   -0.9086   -4.5010   -0.0430 H   0  0  0  0  0  0  0  0  0  0  0  0
   -0.8682   -4.5318    1.7451 H   0  0  0  0  0  0  0  0  0  0  0  0
   -2.2440   -5.2394    0.8692 H   0  0  0  0  0  0  0  0  0  0  0  0
  1  2  1  0
  2  3  1  0
  3  4  2  0
  3  5  1  0
  5  6  1  0
  6  7  1  0
  7  8  1  0
  8  9  1  0
  9 10  1  0
 10 11  1  0
 11 12  1  0
 12 13  1  0
 13 14  1  0
  7 15  2  0
 15 16  1  0
 16 17  2  0
 17 18  1  0
 18 19  2  0
 18 20  1  0
 20 21  1  0
 21 22  2  0
 21 23  1  0
 23 24  1  0
 17  6  1  0
 14  9  1  0
 23 16  1  0
  1 25  1  0
  1 26  1  0
  1 27  1  0
  5 28  1  0
  5 29  1  0
  8 30  1  0
  8 31  1  0
 10 32  1  0
 10 33  1  0
 11 34  1  0
 11 35  1  0
 13 36  1  0
 13 37  1  0
 14 38  1  0
 14 39  1  0
 20 40  1  0
 24 41  1  0
 24 42  1  0
 24 43  1  0
M  END
$$$$
