
     RDKit          3D

 49 51  0  0  0  0  0  0  0  0999 V2000
   -3.9771   -2.1921   -3.6372 C   0  0  0  0  0  0  0  0  0  0  0  0
   -4.8509   -1.5429   -2.7226 O   0  0  0  0  0  0  0  0  0  0  0  0
   -4.2970   -0.9898   -1.5980 C   0  0  0  0  0  0  0  0  0  0  0  0
   -2.9350   -0.9834   -1.2996 C   0  0  0  0  0  0  0  0  0  0  0  0
   -2.4767   -0.4032   -0.1079 C   0  0  0  0  0  0  0  0  0  0  0  0
   -1.0142   -0.4245    0.1579 C   0  0  0  0  0  0  0  0  0  0  0  0
   -0.2161   -0.3827   -0.7742 O   0  0  0  0  0  0  0  0  0  0  0  0
   -0.6328   -0.5422    1.4879 N   0  0  0  0  0  0  0  0  0  0  0  0
    0.6430   -0.5135    2.0384 C   0  0  0  0  0  0  0  0  0  0  0  0
    0.7074   -0.7139    3.6936 S   0  0  0  0  0  0  0  0  0  0  0  0
    1.6533   -0.3254    1.1247 N   0  0  0  0  0  0  0  0  0  0  0  0
    3.0545   -0.1799    1.2244 C   0  0  0  0  0  0  0  0  0  0  0  0
    3.7841   -0.0798    2.4276 C   0  0  0  0  0  0  0  0  0  0  0  0
    5.1813    0.0675    2.4326 C   0  0  0  0  0  0  0  0  0  0  0  0
    5.8202    0.1170    1.2135 C   0  0  0  0  0  0  0  0  0  0  0  0
    5.1192    0.0288    0.0292 C   0  0  0  0  0  0  0  0  0  0  0  0
    3.7446   -0.1172    0.0002 C   0  0  0  0  0  0  0  0  0  0  0  0
    6.0855    0.1151   -1.0639 C   0  0  0  0  0  0  0  0  0  0  0  0
    5.7930    0.0483   -2.2421 O   0  0  0  0  0  0  0  0  0  0  0  0
    7.3140    0.2687   -0.4823 N   0  0  0  0  0  0  0  0  0  0  0  0
    8.5464    0.3638   -1.2244 C   0  0  0  0  0  0  0  0  0  0  0  0
    7.2370    0.2616    0.8829 C   0  0  0  0  0  0  0  0  0  0  0  0
    8.1263    0.3480    1.7072 O   0  0  0  0  0  0  0  0  0  0  0  0
   -3.3741    0.2019    0.7844 C   0  0  0  0  0  0  0  0  0  0  0  0
   -4.7409    0.2015    0.5024 C   0  0  0  0  0  0  0  0  0  0  0  0
   -5.7051    0.7569    1.3027 O   0  0  0  0  0  0  0  0  0  0  0  0
   -5.3157    1.2160    2.5903 C   0  0  0  0  0  0  0  0  0  0  0  0
   -5.1897   -0.3847   -0.6955 C   0  0  0  0  0  0  0  0  0  0  0  0
   -6.5430   -0.4295   -0.9513 O   0  0  0  0  0  0  0  0  0  0  0  0
   -6.9301    0.7052   -1.7247 C   0  0  0  0  0  0  0  0  0  0  0  0
   -3.4652   -3.0370   -3.1641 H   0  0  0  0  0  0  0  0  0  0  0  0
   -3.2603   -1.4843   -4.0668 H   0  0  0  0  0  0  0  0  0  0  0  0
   -4.5852   -2.5878   -4.4561 H   0  0  0  0  0  0  0  0  0  0  0  0
   -2.2068   -1.4268   -1.9727 H   0  0  0  0  0  0  0  0  0  0  0  0
   -1.3515   -0.7058    2.1802 H   0  0  0  0  0  0  0  0  0  0  0  0
    1.3063   -0.3257    0.1619 H   0  0  0  0  0  0  0  0  0  0  0  0
    3.3002   -0.0980    3.3961 H   0  0  0  0  0  0  0  0  0  0  0  0
    5.7374    0.1435    3.3618 H   0  0  0  0  0  0  0  0  0  0  0  0
    3.2322   -0.1835   -0.9559 H   0  0  0  0  0  0  0  0  0  0  0  0
    8.3846    0.9399   -2.1397 H   0  0  0  0  0  0  0  0  0  0  0  0
    9.3248    0.8311   -0.6157 H   0  0  0  0  0  0  0  0  0  0  0  0
    8.8614   -0.6478   -1.4973 H   0  0  0  0  0  0  0  0  0  0  0  0
   -2.9961    0.6946    1.6729 H   0  0  0  0  0  0  0  0  0  0  0  0
   -4.6492    2.0812    2.5119 H   0  0  0  0  0  0  0  0  0  0  0  0
   -6.2181    1.5380    3.1185 H   0  0  0  0  0  0  0  0  0  0  0  0
   -4.8548    0.4132    3.1757 H   0  0  0  0  0  0  0  0  0  0  0  0
   -6.7290    1.6397   -1.1899 H   0  0  0  0  0  0  0  0  0  0  0  0
   -6.4331    0.7135   -2.7006 H   0  0  0  0  0  0  0  0  0  0  0  0
   -8.0087    0.6402   -1.8966 H   0  0  0  0  0  0  0  0  0  0  0  0
  1  2  1  0
  2  3  1  0
  3  4  2  0
  4  5  1  0
  5  6  1  0
  6  7  2  0
  6  8  1  0
  8  9  1  0
  9 10  2  0
  9 11  1  0
 11 12  1  0
 12 13  2  0
 13 14  1  0
 14 15  2  0
 15 16  1  0
 16 17  2  0
 16 18  1  0
 18 19  2  0
 18 20  1  0
 20 21  1  0
 20 22  1  0
 22 23  2  0
  5 24  2  0
 24 25  1  0
 25 26  1  0
 26 27  1  0
 25 28  2  0
 28 29  1  0
 29 30  1  0
 28  3  1  0
 17 12  1  0
 22 15  1  0
  1 31  1  0
  1 32  1  0
  1 33  1  0
  4 34  1  0
  8 35  1  0
 11 36  1  0
 13 37  1  0
 14 38  1  0
 17 39  1  0
 21 40  1  0
 21 41  1  0
 21 42  1  0
 24 43  1  0
 27 44  1  0
 27 45  1  0
 27 46  1  0
 30 47  1  0
 30 48  1  0
 30 49  1  0
M  END
$$$$
