
     RDKit          3D

 33 34  0  0  0  0  0  0  0  0999 V2000
    3.5914   -1.9857   -1.9879 C   0  0  0  0  0  0  0  0  0  0  0  0
    2.6892   -0.8219   -2.3618 C   0  0  0  0  0  0  0  0  0  0  0  0
    1.2211   -1.1091   -2.0677 C   0  0  0  0  0  0  0  0  0  0  0  0
    0.8340   -2.2365   -1.7379 O   0  0  0  0  0  0  0  0  0  0  0  0
    0.2281    0.0367   -2.1214 C   0  0  0  0  0  0  0  0  0  0  0  0
    0.4719    0.9093   -3.2760 C   0  0  0  0  0  0  0  0  0  0  0  0
    0.6470    1.5484   -4.2299 N   0  0  0  0  0  0  0  0  0  0  0  0
    0.3069    0.7630   -0.8230 C   0  0  0  0  0  0  0  0  0  0  0  0
    1.0483    1.8234   -0.5714 N   0  0  0  0  0  0  0  0  0  0  0  0
    0.8751    2.1734    0.7394 N   0  0  0  0  0  0  0  0  0  0  0  0
    0.0369    1.3207    1.2845 C   0  0  0  0  0  0  0  0  0  0  0  0
   -0.3417    0.4045    0.3371 N   0  0  0  0  0  0  0  0  0  0  0  0
   -1.2296   -0.7131    0.5758 C   0  0  0  0  0  0  0  0  0  0  0  0
   -2.6298   -0.2812    1.0057 C   0  0  0  0  0  0  0  0  0  0  0  0
   -2.7190    0.1695    2.4655 C   0  0  0  0  0  0  0  0  0  0  0  0
   -1.9587    1.4569    2.7933 C   0  0  0  0  0  0  0  0  0  0  0  0
   -0.4405    1.3232    2.6913 C   0  0  0  0  0  0  0  0  0  0  0  0
    3.5003   -2.2269   -0.9236 H   0  0  0  0  0  0  0  0  0  0  0  0
    4.6372   -1.7388   -2.1951 H   0  0  0  0  0  0  0  0  0  0  0  0
    3.3334   -2.8836   -2.5591 H   0  0  0  0  0  0  0  0  0  0  0  0
    2.7970   -0.6119   -3.4305 H   0  0  0  0  0  0  0  0  0  0  0  0
    2.9985    0.0614   -1.7943 H   0  0  0  0  0  0  0  0  0  0  0  0
   -0.7714   -0.3939   -2.2548 H   0  0  0  0  0  0  0  0  0  0  0  0
   -1.3076   -1.2982   -0.3434 H   0  0  0  0  0  0  0  0  0  0  0  0
   -0.7559   -1.3552    1.3272 H   0  0  0  0  0  0  0  0  0  0  0  0
   -3.3019   -1.1398    0.8837 H   0  0  0  0  0  0  0  0  0  0  0  0
   -3.0067    0.5112    0.3473 H   0  0  0  0  0  0  0  0  0  0  0  0
   -3.7775    0.3318    2.7047 H   0  0  0  0  0  0  0  0  0  0  0  0
   -2.3755   -0.6390    3.1226 H   0  0  0  0  0  0  0  0  0  0  0  0
   -2.3191    2.2745    2.1564 H   0  0  0  0  0  0  0  0  0  0  0  0
   -2.2054    1.7319    3.8266 H   0  0  0  0  0  0  0  0  0  0  0  0
   -0.0946    0.4204    3.2079 H   0  0  0  0  0  0  0  0  0  0  0  0
    0.0188    2.1747    3.2086 H   0  0  0  0  0  0  0  0  0  0  0  0
  1  2  1  0
  2  3  1  0
  3  4  2  0
  3  5  1  0
  5  6  1  0
  6  7  3  0
  5  8  1  0
  8  9  2  0
  9 10  1  0
 10 11  2  0
 11 12  1  0
 12 13  1  0
 13 14  1  0
 14 15  1  0
 15 16  1  0
 16 17  1  0
 12  8  1  0
 17 11  1  0
  1 18  1  0
  1 19  1  0
  1 20  1  0
  2 21  1  0
  2 22  1  0
  5 23  1  0
 13 24  1  0
 13 25  1  0
 14 26  1  0
 14 27  1  0
 15 28  1  0
 15 29  1  0
 16 30  1  0
 16 31  1  0
 17 32  1  0
 17 33  1  0
M  END
$$$$
