
     RDKit          3D

 80 84  0  0  0  0  0  0  0  0999 V2000
    1.6153    1.9530   -3.6114 C   0  0  0  0  0  0  0  0  0  0  0  0
    1.1606    1.9252   -2.2574 O   0  0  0  0  0  0  0  0  0  0  0  0
    1.7798    0.9803   -1.4817 C   0  0  0  0  0  0  0  0  0  0  0  0
    3.1753    0.8703   -1.4826 C   0  0  0  0  0  0  0  0  0  0  0  0
    3.8272   -0.0522   -0.6552 C   0  0  0  0  0  0  0  0  0  0  0  0
    5.1933   -0.1491   -0.7255 O   0  0  0  0  0  0  0  0  0  0  0  0
    5.8442    1.0572   -0.3242 C   0  0  0  0  0  0  0  0  0  0  0  0
    3.0982   -0.9103    0.1797 C   0  0  0  0  0  0  0  0  0  0  0  0
    3.7043   -1.9313    1.0655 C   0  0  0  0  0  0  0  0  0  0  0  0
    5.1377   -2.2686    1.1896 C   0  0  0  0  0  0  0  0  0  0  0  0
    5.7402   -3.1307    0.2658 C   0  0  0  0  0  0  0  0  0  0  0  0
    7.0891   -3.4648    0.3952 C   0  0  0  0  0  0  0  0  0  0  0  0
    7.8411   -2.9446    1.4470 C   0  0  0  0  0  0  0  0  0  0  0  0
    7.2484   -2.0829    2.3698 C   0  0  0  0  0  0  0  0  0  0  0  0
    5.8994   -1.7464    2.2446 C   0  0  0  0  0  0  0  0  0  0  0  0
    2.8998   -2.6639    1.8529 C   0  0  0  0  0  0  0  0  0  0  0  0
    1.4450   -2.5116    1.8859 C   0  0  0  0  0  0  0  0  0  0  0  0
    0.7547   -3.2008    2.6280 O   0  0  0  0  0  0  0  0  0  0  0  0
    0.9088   -1.5714    1.0329 O   0  0  0  0  0  0  0  0  0  0  0  0
    1.7017   -0.7587    0.1791 C   0  0  0  0  0  0  0  0  0  0  0  0
    1.0047    0.1754   -0.6327 C   0  0  0  0  0  0  0  0  0  0  0  0
   -0.5256    0.2748   -0.5111 C   0  0  0  0  0  0  0  0  0  0  0  0
   -1.2933    0.5887   -1.8211 C   0  0  0  0  0  0  0  0  0  0  0  0
   -2.8003    0.2713   -1.7571 C   0  0  0  0  0  0  0  0  0  0  0  0
   -3.1196   -1.1351   -1.4672 N   0  0  0  0  0  0  0  0  0  0  0  0
   -2.7405   -2.0740   -2.5311 C   0  0  0  0  0  0  0  0  0  0  0  0
   -3.6287   -1.9946   -3.7752 C   0  0  0  0  0  0  0  0  0  0  0  0
   -5.1014   -2.1586   -3.4123 C   0  0  0  0  0  0  0  0  0  0  0  0
   -5.5046   -1.1922   -2.2922 C   0  0  0  0  0  0  0  0  0  0  0  0
   -6.9423   -1.4565   -1.8456 C   0  0  0  0  0  0  0  0  0  0  0  0
   -4.5353   -1.3108   -1.1029 C   0  0  0  0  0  0  0  0  0  0  0  0
   -0.9322    1.2001    0.6332 C   0  0  0  0  0  0  0  0  0  0  0  0
   -0.7511    2.5833    0.5707 C   0  0  0  0  0  0  0  0  0  0  0  0
   -1.1421    3.4059    1.6371 C   0  0  0  0  0  0  0  0  0  0  0  0
   -1.7289    2.8943    2.8070 C   0  0  0  0  0  0  0  0  0  0  0  0
   -2.1045    3.7439    3.8600 N   0  0  0  0  0  0  0  0  0  0  0  0
   -2.7356    5.0073    3.4695 C   0  0  0  0  0  0  0  0  0  0  0  0
   -2.6177    3.1497    5.0926 C   0  0  0  0  0  0  0  0  0  0  0  0
   -1.8680    1.4991    2.8649 C   0  0  0  0  0  0  0  0  0  0  0  0
   -1.4895    0.6677    1.7999 C   0  0  0  0  0  0  0  0  0  0  0  0
    0.8295    2.4078   -4.2200 H   0  0  0  0  0  0  0  0  0  0  0  0
    1.8052    0.9467   -3.9970 H   0  0  0  0  0  0  0  0  0  0  0  0
    2.5159    2.5717   -3.6994 H   0  0  0  0  0  0  0  0  0  0  0  0
    3.7724    1.5124   -2.1233 H   0  0  0  0  0  0  0  0  0  0  0  0
    5.9062    1.7564   -1.1647 H   0  0  0  0  0  0  0  0  0  0  0  0
    6.8628    0.8062   -0.0164 H   0  0  0  0  0  0  0  0  0  0  0  0
    5.3429    1.5303    0.5276 H   0  0  0  0  0  0  0  0  0  0  0  0
    5.1670   -3.5352   -0.5639 H   0  0  0  0  0  0  0  0  0  0  0  0
    7.5522   -4.1355   -0.3252 H   0  0  0  0  0  0  0  0  0  0  0  0
    8.8920   -3.2046    1.5460 H   0  0  0  0  0  0  0  0  0  0  0  0
    7.8366   -1.6687    3.1858 H   0  0  0  0  0  0  0  0  0  0  0  0
    5.4457   -1.0712    2.9676 H   0  0  0  0  0  0  0  0  0  0  0  0
    3.2827   -3.4303    2.5212 H   0  0  0  0  0  0  0  0  0  0  0  0
   -0.8575   -0.7378   -0.2498 H   0  0  0  0  0  0  0  0  0  0  0  0
   -1.2097    1.6508   -2.0785 H   0  0  0  0  0  0  0  0  0  0  0  0
   -0.8411    0.0405   -2.6560 H   0  0  0  0  0  0  0  0  0  0  0  0
   -3.2376    0.9095   -0.9782 H   0  0  0  0  0  0  0  0  0  0  0  0
   -3.2596    0.5949   -2.6990 H   0  0  0  0  0  0  0  0  0  0  0  0
   -2.7981   -3.0919   -2.1226 H   0  0  0  0  0  0  0  0  0  0  0  0
   -1.6911   -1.9453   -2.8162 H   0  0  0  0  0  0  0  0  0  0  0  0
   -3.3394   -2.7809   -4.4824 H   0  0  0  0  0  0  0  0  0  0  0  0
   -3.4793   -1.0384   -4.2905 H   0  0  0  0  0  0  0  0  0  0  0  0
   -5.2783   -3.1935   -3.0932 H   0  0  0  0  0  0  0  0  0  0  0  0
   -5.7216   -1.9880   -4.3006 H   0  0  0  0  0  0  0  0  0  0  0  0
   -5.4657   -0.1685   -2.6849 H   0  0  0  0  0  0  0  0  0  0  0  0
   -7.2393   -0.7597   -1.0552 H   0  0  0  0  0  0  0  0  0  0  0  0
   -7.0594   -2.4738   -1.4606 H   0  0  0  0  0  0  0  0  0  0  0  0
   -7.6369   -1.3305   -2.6831 H   0  0  0  0  0  0  0  0  0  0  0  0
   -4.6474   -2.3001   -0.6401 H   0  0  0  0  0  0  0  0  0  0  0  0
   -4.8138   -0.5946   -0.3190 H   0  0  0  0  0  0  0  0  0  0  0  0
   -0.2964    3.0414   -0.3059 H   0  0  0  0  0  0  0  0  0  0  0  0
   -0.9486    4.4692    1.5396 H   0  0  0  0  0  0  0  0  0  0  0  0
   -3.1063    5.5490    4.3471 H   0  0  0  0  0  0  0  0  0  0  0  0
   -3.5891    4.8321    2.8048 H   0  0  0  0  0  0  0  0  0  0  0  0
   -2.0227    5.6796    2.9815 H   0  0  0  0  0  0  0  0  0  0  0  0
   -2.7596    3.9195    5.8608 H   0  0  0  0  0  0  0  0  0  0  0  0
   -3.5842    2.6588    4.9266 H   0  0  0  0  0  0  0  0  0  0  0  0
   -1.9052    2.4285    5.5108 H   0  0  0  0  0  0  0  0  0  0  0  0
   -2.2930    1.0113    3.7352 H   0  0  0  0  0  0  0  0  0  0  0  0
   -1.6384   -0.4065    1.8970 H   0  0  0  0  0  0  0  0  0  0  0  0
  1  2  1  0
  2  3  1  0
  3  4  2  0
  4  5  1  0
  5  6  1  0
  6  7  1  0
  5  8  2  0
  8  9  1  0
  9 10  1  0
 10 11  2  0
 11 12  1  0
 12 13  2  0
 13 14  1  0
 14 15  2  0
  9 16  2  0
 16 17  1  0
 17 18  2  0
 17 19  1  0
 19 20  1  0
 20 21  2  0
 21 22  1  0
 22 23  1  0
 23 24  1  0
 24 25  1  0
 25 26  1  0
 26 27  1  0
 27 28  1  0
 28 29  1  0
 29 30  1  0
 29 31  1  0
 22 32  1  0
 32 33  2  0
 33 34  1  0
 34 35  2  0
 35 36  1  0
 36 37  1  0
 36 38  1  0
 35 39  1  0
 39 40  2  0
 21  3  1  0
 31 25  1  0
 40 32  1  0
 20  8  1  0
 15 10  1  0
  1 41  1  0
  1 42  1  0
  1 43  1  0
  4 44  1  0
  7 45  1  0
  7 46  1  0
  7 47  1  0
 11 48  1  0
 12 49  1  0
 13 50  1  0
 14 51  1  0
 15 52  1  0
 16 53  1  0
 22 54  1  0
 23 55  1  0
 23 56  1  0
 24 57  1  0
 24 58  1  0
 26 59  1  0
 26 60  1  0
 27 61  1  0
 27 62  1  0
 28 63  1  0
 28 64  1  0
 29 65  1  0
 30 66  1  0
 30 67  1  0
 30 68  1  0
 31 69  1  0
 31 70  1  0
 33 71  1  0
 34 72  1  0
 37 73  1  0
 37 74  1  0
 37 75  1  0
 38 76  1  0
 38 77  1  0
 38 78  1  0
 39 79  1  0
 40 80  1  0
M  END
$$$$
