
     RDKit          3D

 83 84  0  0  0  0  0  0  0  0999 V2000
    0.2627    3.1549    0.1395 C   0  0  0  0  0  0  0  0  0  0  0  0
    0.4119    1.9049   -0.3428 C   0  0  0  0  0  0  0  0  0  0  0  0
    1.7706    1.1938   -0.3182 C   0  0  1  0  0  0  0  0  0  0  0  0
    2.7957    2.1115   -0.7434 O   0  0  0  0  0  0  0  0  0  0  0  0
    3.0988    2.1076   -2.0683 C   0  0  0  0  0  0  0  0  0  0  0  0
    4.1073    3.1743   -2.3650 C   0  0  0  0  0  0  0  0  0  0  0  0
    2.6230    1.3568   -2.9062 O   0  0  0  0  0  0  0  0  0  0  0  0
    2.1289    0.7403    1.1032 C   0  0  0  0  0  0  0  0  0  0  0  0
    3.3754   -0.1674    1.2489 C   0  0  1  0  0  0  0  0  0  0  0  0
    3.5117   -0.3914    2.6841 O   0  0  0  0  0  0  0  0  0  0  0  0
    4.2868    0.4904    3.3739 C   0  0  0  0  0  0  0  0  0  0  0  0
    4.3344    0.1027    4.8200 C   0  0  0  0  0  0  0  0  0  0  0  0
    4.8608    1.4584    2.8981 O   0  0  0  0  0  0  0  0  0  0  0  0
    3.3448   -1.5823    0.5351 C   0  0  0  0  0  0  0  0  0  0  0  0
    4.2510   -2.5856    1.2949 C   0  0  0  0  0  0  0  0  0  0  0  0
    3.9571   -1.4601   -0.8808 C   0  0  0  0  0  0  0  0  0  0  0  0
    1.9341   -2.1791    0.5458 C   0  0  0  0  0  0  0  0  0  0  0  0
    1.2107   -2.5806   -0.5155 C   0  0  0  0  0  0  0  0  0  0  0  0
   -0.2194   -3.0739   -0.4427 C   0  0  0  0  0  0  0  0  0  0  0  0
   -0.3265   -4.5254   -0.8977 C   0  0  0  0  0  0  0  0  0  0  0  0
   -1.0704   -2.1760   -1.3567 C   0  0  0  0  0  0  0  0  0  0  0  0
   -0.8978   -2.1975   -2.5817 O   0  0  0  0  0  0  0  0  0  0  0  0
   -2.0564   -1.1526   -0.7133 C   0  0  1  0  0  0  0  0  0  0  0  0
   -2.9069   -0.5771   -1.7264 O   0  0  0  0  0  0  0  0  0  0  0  0
   -3.7142   -1.4342   -2.4133 C   0  0  0  0  0  0  0  0  0  0  0  0
   -4.3850   -0.7130   -3.5407 C   0  0  0  0  0  0  0  0  0  0  0  0
   -3.8857   -2.6143   -2.1391 O   0  0  0  0  0  0  0  0  0  0  0  0
   -2.9244   -1.7142    0.4433 C   0  0  0  0  0  0  0  0  0  0  0  0
   -2.4666   -0.9840    1.7150 C   0  0  2  0  0  0  0  0  0  0  0  0
   -3.5462   -0.9493    2.7866 C   0  0  0  0  0  0  0  0  0  0  0  0
   -2.0189    0.3884    1.1907 C   0  0  2  0  0  0  0  0  0  0  0  0
   -3.1627    1.1755    0.8362 O   0  0  0  0  0  0  0  0  0  0  0  0
   -3.4704    2.2066    1.6693 C   0  0  0  0  0  0  0  0  0  0  0  0
   -4.6444    2.9645    1.1306 C   0  0  0  0  0  0  0  0  0  0  0  0
   -2.8806    2.4924    2.7009 O   0  0  0  0  0  0  0  0  0  0  0  0
   -1.2094   -0.0230   -0.0534 C   0  0  2  0  0  0  0  0  0  0  0  0
   -0.7283    1.1063   -0.9939 C   0  0  1  0  0  0  0  0  0  0  0  0
   -1.8174    1.9942   -1.3070 O   0  0  0  0  0  0  0  0  0  0  0  0
   -2.0107    2.3084   -2.6144 C   0  0  0  0  0  0  0  0  0  0  0  0
   -3.1904    3.2235   -2.7403 C   0  0  0  0  0  0  0  0  0  0  0  0
   -1.3483    1.9163   -3.5618 O   0  0  0  0  0  0  0  0  0  0  0  0
   -0.6909    3.6729    0.1223 H   0  0  0  0  0  0  0  0  0  0  0  0
    1.0973    3.6968    0.5765 H   0  0  0  0  0  0  0  0  0  0  0  0
    1.7263    0.3289   -0.9818 H   0  0  0  0  0  0  0  0  0  0  0  0
    4.4936    3.0354   -3.3792 H   0  0  0  0  0  0  0  0  0  0  0  0
    3.6352    4.1572   -2.2925 H   0  0  0  0  0  0  0  0  0  0  0  0
    4.9470    3.0989   -1.6684 H   0  0  0  0  0  0  0  0  0  0  0  0
    2.3114    1.6360    1.7149 H   0  0  0  0  0  0  0  0  0  0  0  0
    1.2780    0.2540    1.5938 H   0  0  0  0  0  0  0  0  0  0  0  0
    4.2599    0.3728    0.8879 H   0  0  0  0  0  0  0  0  0  0  0  0
    4.9577    0.8165    5.3663 H   0  0  0  0  0  0  0  0  0  0  0  0
    3.3270    0.1243    5.2429 H   0  0  0  0  0  0  0  0  0  0  0  0
    4.7738   -0.8927    4.9221 H   0  0  0  0  0  0  0  0  0  0  0  0
    4.3197   -3.5416    0.7615 H   0  0  0  0  0  0  0  0  0  0  0  0
    3.8707   -2.8109    2.2980 H   0  0  0  0  0  0  0  0  0  0  0  0
    5.2685   -2.1928    1.4017 H   0  0  0  0  0  0  0  0  0  0  0  0
    3.3690   -0.8306   -1.5484 H   0  0  0  0  0  0  0  0  0  0  0  0
    4.9661   -1.0335   -0.8347 H   0  0  0  0  0  0  0  0  0  0  0  0
    4.0481   -2.4412   -1.3628 H   0  0  0  0  0  0  0  0  0  0  0  0
    1.4882   -2.2634    1.5386 H   0  0  0  0  0  0  0  0  0  0  0  0
    1.6294   -2.5266   -1.5216 H   0  0  0  0  0  0  0  0  0  0  0  0
   -0.5855   -3.0111    0.5851 H   0  0  0  0  0  0  0  0  0  0  0  0
    0.0500   -4.6629   -1.9178 H   0  0  0  0  0  0  0  0  0  0  0  0
    0.2456   -5.1854   -0.2368 H   0  0  0  0  0  0  0  0  0  0  0  0
   -1.3710   -4.8558   -0.8868 H   0  0  0  0  0  0  0  0  0  0  0  0
   -3.6333   -0.3424   -4.2424 H   0  0  0  0  0  0  0  0  0  0  0  0
   -4.9854    0.1115   -3.1480 H   0  0  0  0  0  0  0  0  0  0  0  0
   -5.0463   -1.4047   -4.0705 H   0  0  0  0  0  0  0  0  0  0  0  0
   -2.8293   -2.7981    0.5646 H   0  0  0  0  0  0  0  0  0  0  0  0
   -3.9877   -1.5072    0.2686 H   0  0  0  0  0  0  0  0  0  0  0  0
   -1.5924   -1.5054    2.1273 H   0  0  0  0  0  0  0  0  0  0  0  0
   -3.7857   -1.9650    3.1191 H   0  0  0  0  0  0  0  0  0  0  0  0
   -3.2056   -0.3809    3.6580 H   0  0  0  0  0  0  0  0  0  0  0  0
   -4.4731   -0.4940    2.4236 H   0  0  0  0  0  0  0  0  0  0  0  0
   -1.3723    0.8972    1.9145 H   0  0  0  0  0  0  0  0  0  0  0  0
   -4.9933    3.6748    1.8854 H   0  0  0  0  0  0  0  0  0  0  0  0
   -5.4633    2.2757    0.9064 H   0  0  0  0  0  0  0  0  0  0  0  0
   -4.3484    3.5141    0.2343 H   0  0  0  0  0  0  0  0  0  0  0  0
   -0.3130   -0.5039    0.3427 H   0  0  0  0  0  0  0  0  0  0  0  0
   -0.3342    0.6490   -1.9096 H   0  0  0  0  0  0  0  0  0  0  0  0
   -3.0025    4.1489   -2.1894 H   0  0  0  0  0  0  0  0  0  0  0  0
   -4.0871    2.7245   -2.3640 H   0  0  0  0  0  0  0  0  0  0  0  0
   -3.3465    3.4702   -3.7949 H   0  0  0  0  0  0  0  0  0  0  0  0
  1  2  2  0
  2  3  1  0
  3  4  1  0
  4  5  1  0
  5  6  1  0
  5  7  2  0
  3  8  1  0
  8  9  1  0
  9 10  1  0
 10 11  1  0
 11 12  1  0
 11 13  2  0
  9 14  1  0
 14 15  1  0
 14 16  1  0
 14 17  1  0
 17 18  2  3
 18 19  1  0
 19 20  1  0
 19 21  1  0
 21 22  2  0
 21 23  1  0
 23 24  1  6
 24 25  1  0
 25 26  1  0
 25 27  2  0
 23 28  1  0
 28 29  1  0
 29 30  1  0
 29 31  1  0
 31 32  1  0
 32 33  1  0
 33 34  1  0
 33 35  2  0
 31 36  1  0
 36 37  1  0
 37 38  1  0
 38 39  1  0
 39 40  1  0
 39 41  2  0
 37  2  1  0
 36 23  1  0
  1 42  1  0
  1 43  1  0
  3 44  1  6
  6 45  1  0
  6 46  1  0
  6 47  1  0
  8 48  1  0
  8 49  1  0
  9 50  1  6
 12 51  1  0
 12 52  1  0
 12 53  1  0
 15 54  1  0
 15 55  1  0
 15 56  1  0
 16 57  1  0
 16 58  1  0
 16 59  1  0
 17 60  1  0
 18 61  1  0
 19 62  1  0
 20 63  1  0
 20 64  1  0
 20 65  1  0
 26 66  1  0
 26 67  1  0
 26 68  1  0
 28 69  1  0
 28 70  1  0
 29 71  1  1
 30 72  1  0
 30 73  1  0
 30 74  1  0
 31 75  1  1
 34 76  1  0
 34 77  1  0
 34 78  1  0
 36 79  1  1
 37 80  1  6
 40 81  1  0
 40 82  1  0
 40 83  1  0
M  END
$$$$
