
     RDKit          3D

 39 41  0  0  0  0  0  0  0  0999 V2000
   -3.3611   -0.1772    2.1987 F   0  0  0  0  0  0  0  0  0  0  0  0
   -3.8468   -0.2327    0.9499 C   0  0  0  0  0  0  0  0  0  0  0  0
   -5.0363   -0.9214    0.7268 C   0  0  0  0  0  0  0  0  0  0  0  0
   -5.5603   -0.9958   -0.5624 C   0  0  0  0  0  0  0  0  0  0  0  0
   -4.8907   -0.3804   -1.6200 C   0  0  0  0  0  0  0  0  0  0  0  0
   -3.6979    0.3095   -1.3889 C   0  0  0  0  0  0  0  0  0  0  0  0
   -3.1583    0.3880   -0.0957 C   0  0  0  0  0  0  0  0  0  0  0  0
   -1.8785    1.1460    0.1680 C   0  0  0  0  0  0  0  0  0  0  0  0
   -0.7475    0.6779   -0.6536 N   0  0  0  0  0  0  0  0  0  0  0  0
    0.4012    1.6126   -0.5591 C   0  0  0  0  0  0  0  0  0  0  0  0
    1.1618    1.5986    0.7911 C   0  0  0  0  0  0  0  0  0  0  0  0
    1.5928    0.2260    1.1429 N   0  0  0  0  0  0  0  0  0  0  0  0
    2.8833   -0.1390    0.7554 C   0  0  0  0  0  0  0  0  0  0  0  0
    3.1767   -1.3042    0.0308 C   0  0  0  0  0  0  0  0  0  0  0  0
    4.4897   -1.6392   -0.3282 C   0  0  0  0  0  0  0  0  0  0  0  0
    5.5430   -0.8152    0.0474 C   0  0  0  0  0  0  0  0  0  0  0  0
    7.1545   -1.2251   -0.3901 Cl  0  0  0  0  0  0  0  0  0  0  0  0
    5.2939    0.3348    0.7833 C   0  0  0  0  0  0  0  0  0  0  0  0
    3.9783    0.6603    1.1340 C   0  0  0  0  0  0  0  0  0  0  0  0
    0.4831   -0.7483    1.0891 C   0  0  0  0  0  0  0  0  0  0  0  0
   -0.2827   -0.6753   -0.2553 C   0  0  0  0  0  0  0  0  0  0  0  0
   -5.5460   -1.3948    1.5598 H   0  0  0  0  0  0  0  0  0  0  0  0
   -6.4881   -1.5323   -0.7438 H   0  0  0  0  0  0  0  0  0  0  0  0
   -5.2955   -0.4379   -2.6276 H   0  0  0  0  0  0  0  0  0  0  0  0
   -3.1797    0.7819   -2.2217 H   0  0  0  0  0  0  0  0  0  0  0  0
   -2.0942    2.1956   -0.0749 H   0  0  0  0  0  0  0  0  0  0  0  0
   -1.6367    1.1317    1.2365 H   0  0  0  0  0  0  0  0  0  0  0  0
    1.1066    1.3543   -1.3601 H   0  0  0  0  0  0  0  0  0  0  0  0
    0.0692    2.6346   -0.7800 H   0  0  0  0  0  0  0  0  0  0  0  0
    0.5073    1.9684    1.5896 H   0  0  0  0  0  0  0  0  0  0  0  0
    1.9939    2.3086    0.7342 H   0  0  0  0  0  0  0  0  0  0  0  0
    2.3902   -1.9784   -0.2920 H   0  0  0  0  0  0  0  0  0  0  0  0
    4.6751   -2.5449   -0.8990 H   0  0  0  0  0  0  0  0  0  0  0  0
    6.1099    0.9782    1.0992 H   0  0  0  0  0  0  0  0  0  0  0  0
    3.8174    1.5442    1.7470 H   0  0  0  0  0  0  0  0  0  0  0  0
    0.8264   -1.7710    1.2839 H   0  0  0  0  0  0  0  0  0  0  0  0
   -0.2065   -0.5178    1.9105 H   0  0  0  0  0  0  0  0  0  0  0  0
   -1.1195   -1.3829   -0.2330 H   0  0  0  0  0  0  0  0  0  0  0  0
    0.3722   -1.0375   -1.0576 H   0  0  0  0  0  0  0  0  0  0  0  0
  1  2  1  0
  2  3  2  0
  3  4  1  0
  4  5  2  0
  5  6  1  0
  6  7  2  0
  7  8  1  0
  8  9  1  0
  9 10  1  0
 10 11  1  0
 11 12  1  0
 12 13  1  0
 13 14  2  0
 14 15  1  0
 15 16  2  0
 16 17  1  0
 16 18  1  0
 18 19  2  0
 12 20  1  0
 20 21  1  0
  7  2  1  0
 21  9  1  0
 19 13  1  0
  3 22  1  0
  4 23  1  0
  5 24  1  0
  6 25  1  0
  8 26  1  0
  8 27  1  0
 10 28  1  0
 10 29  1  0
 11 30  1  0
 11 31  1  0
 14 32  1  0
 15 33  1  0
 18 34  1  0
 19 35  1  0
 20 36  1  0
 20 37  1  0
 21 38  1  0
 21 39  1  0
M  END
$$$$
