
     RDKit          3D

 49 51  0  0  0  0  0  0  0  0999 V2000
   -3.7155    3.5998    0.8941 C   0  0  0  0  0  0  0  0  0  0  0  0
   -3.2443    2.1662    1.1019 C   0  0  0  0  0  0  0  0  0  0  0  0
   -2.3866    1.6296   -0.0618 C   0  0  0  0  0  0  0  0  0  0  0  0
   -3.1289    1.5334   -1.3958 C   0  0  0  0  0  0  0  0  0  0  0  0
   -1.6518    0.3874    0.3294 N   0  0  0  0  0  0  0  0  0  0  0  0
   -0.3263    0.5862    0.7962 C   0  0  0  0  0  0  0  0  0  0  0  0
    0.1300    1.7197    0.9577 O   0  0  0  0  0  0  0  0  0  0  0  0
    0.5033   -0.6391    1.1173 C   0  0  0  0  0  0  0  0  0  0  0  0
    1.9154   -0.3288    1.1580 N   0  0  0  0  0  0  0  0  0  0  0  0
    2.5766   -0.2183    2.3224 N   0  0  0  0  0  0  0  0  0  0  0  0
    3.8511   -0.1157    1.9761 N   0  0  0  0  0  0  0  0  0  0  0  0
    3.9057   -0.2276    0.6049 C   0  0  0  0  0  0  0  0  0  0  0  0
    5.1550   -0.1713   -0.1441 C   0  0  0  0  0  0  0  0  0  0  0  0
    5.1601   -0.2850   -1.5448 C   0  0  0  0  0  0  0  0  0  0  0  0
    6.3606   -0.2308   -2.2582 C   0  0  0  0  0  0  0  0  0  0  0  0
    7.5576   -0.0626   -1.5733 C   0  0  0  0  0  0  0  0  0  0  0  0
    8.7078   -0.0113   -2.2574 F   0  0  0  0  0  0  0  0  0  0  0  0
    7.5782    0.0533   -0.1889 C   0  0  0  0  0  0  0  0  0  0  0  0
    6.3782   -0.0005    0.5259 C   0  0  0  0  0  0  0  0  0  0  0  0
    2.6916   -0.4227    0.0572 N   0  0  0  0  0  0  0  0  0  0  0  0
   -2.2907   -0.9523    0.3186 C   0  0  0  0  0  0  0  0  0  0  0  0
   -2.2133   -1.6588   -1.0450 C   0  0  0  0  0  0  0  0  0  0  0  0
   -2.8854   -3.0136   -0.8501 C   0  0  0  0  0  0  0  0  0  0  0  0
   -4.2124   -2.7252    0.3125 S   0  0  0  0  0  6  0  0  0  0  0  0
   -4.0055   -3.5844    1.4591 O   0  0  0  0  0  0  0  0  0  0  0  0
   -5.4657   -2.6744   -0.4084 O   0  0  0  0  0  0  0  0  0  0  0  0
   -3.7475   -1.0617    0.7681 C   0  0  0  0  0  0  0  0  0  0  0  0
   -4.4081    3.6759    0.0509 H   0  0  0  0  0  0  0  0  0  0  0  0
   -2.8699    4.2705    0.7123 H   0  0  0  0  0  0  0  0  0  0  0  0
   -4.2412    3.9541    1.7867 H   0  0  0  0  0  0  0  0  0  0  0  0
   -2.6581    2.1307    2.0288 H   0  0  0  0  0  0  0  0  0  0  0  0
   -4.1225    1.5371    1.2689 H   0  0  0  0  0  0  0  0  0  0  0  0
   -1.6248    2.3976   -0.2475 H   0  0  0  0  0  0  0  0  0  0  0  0
   -2.4632    1.1534   -2.1780 H   0  0  0  0  0  0  0  0  0  0  0  0
   -3.4711    2.5206   -1.7235 H   0  0  0  0  0  0  0  0  0  0  0  0
   -4.0074    0.8881   -1.3518 H   0  0  0  0  0  0  0  0  0  0  0  0
    0.3789   -1.4137    0.3561 H   0  0  0  0  0  0  0  0  0  0  0  0
    0.2123   -1.0307    2.0971 H   0  0  0  0  0  0  0  0  0  0  0  0
    4.2265   -0.4141   -2.0894 H   0  0  0  0  0  0  0  0  0  0  0  0
    6.3670   -0.3172   -3.3400 H   0  0  0  0  0  0  0  0  0  0  0  0
    8.5244    0.1857    0.3262 H   0  0  0  0  0  0  0  0  0  0  0  0
    6.4066    0.0933    1.6103 H   0  0  0  0  0  0  0  0  0  0  0  0
   -1.7292   -1.5742    1.0254 H   0  0  0  0  0  0  0  0  0  0  0  0
   -1.1845   -1.7752   -1.3995 H   0  0  0  0  0  0  0  0  0  0  0  0
   -2.7570   -1.0981   -1.8108 H   0  0  0  0  0  0  0  0  0  0  0  0
   -2.1952   -3.7322   -0.3986 H   0  0  0  0  0  0  0  0  0  0  0  0
   -3.2891   -3.4170   -1.7811 H   0  0  0  0  0  0  0  0  0  0  0  0
   -3.8647   -0.9311    1.8465 H   0  0  0  0  0  0  0  0  0  0  0  0
   -4.4270   -0.3950    0.2394 H   0  0  0  0  0  0  0  0  0  0  0  0
  1  2  1  0
  2  3  1  0
  3  4  1  0
  3  5  1  0
  5  6  1  0
  6  7  2  0
  6  8  1  0
  8  9  1  0
  9 10  1  0
 10 11  2  0
 11 12  1  0
 12 13  1  0
 13 14  2  0
 14 15  1  0
 15 16  2  0
 16 17  1  0
 16 18  1  0
 18 19  2  0
 12 20  2  0
  5 21  1  0
 21 22  1  0
 22 23  1  0
 23 24  1  0
 24 25  2  0
 24 26  2  0
 24 27  1  0
 20  9  1  0
 27 21  1  0
 19 13  1  0
  1 28  1  0
  1 29  1  0
  1 30  1  0
  2 31  1  0
  2 32  1  0
  3 33  1  0
  4 34  1  0
  4 35  1  0
  4 36  1  0
  8 37  1  0
  8 38  1  0
 14 39  1  0
 15 40  1  0
 18 41  1  0
 19 42  1  0
 21 43  1  0
 22 44  1  0
 22 45  1  0
 23 46  1  0
 23 47  1  0
 27 48  1  0
 27 49  1  0
M  END
$$$$
