
     RDKit          3D

 37 38  0  0  0  0  0  0  0  0999 V2000
   -2.6054    1.7266    1.9477 C   0  0  0  0  0  0  0  0  0  0  0  0
   -2.3216    0.3493    2.1922 O   0  0  0  0  0  0  0  0  0  0  0  0
   -2.2543   -0.3553    1.0160 C   0  0  0  0  0  0  0  0  0  0  0  0
   -3.4165   -0.5587    0.2604 C   0  0  0  0  0  0  0  0  0  0  0  0
   -3.3742   -1.2887   -0.9277 C   0  0  0  0  0  0  0  0  0  0  0  0
   -4.5542   -1.5800   -1.6238 N   0  0  0  0  0  0  0  0  0  0  0  0
   -2.1784   -1.9147   -1.2802 C   0  0  0  0  0  0  0  0  0  0  0  0
   -1.0208   -1.7346   -0.5147 C   0  0  0  0  0  0  0  0  0  0  0  0
   -1.0354   -0.9353    0.6387 C   0  0  0  0  0  0  0  0  0  0  0  0
    0.2072   -0.7736    1.4920 C   0  0  0  0  0  0  0  0  0  0  0  0
    1.4915   -0.5131    0.7253 C   0  0  0  0  0  0  0  0  0  0  0  0
    2.4427   -1.5392    0.6095 C   0  0  0  0  0  0  0  0  0  0  0  0
    3.6268   -1.3347   -0.0999 C   0  0  0  0  0  0  0  0  0  0  0  0
    3.8682   -0.1208   -0.7408 C   0  0  0  0  0  0  0  0  0  0  0  0
    5.1071    0.1169   -1.3514 N   0  0  0  0  0  0  0  0  0  0  0  0
    2.9530    0.9246   -0.5719 C   0  0  0  0  0  0  0  0  0  0  0  0
    1.7573    0.7356    0.1348 C   0  0  0  0  0  0  0  0  0  0  0  0
    0.8061    1.7042    0.3271 O   0  0  0  0  0  0  0  0  0  0  0  0
    0.9720    2.9313   -0.3694 C   0  0  0  0  0  0  0  0  0  0  0  0
   -1.9883    2.1334    1.1386 H   0  0  0  0  0  0  0  0  0  0  0  0
   -2.3730    2.2825    2.8609 H   0  0  0  0  0  0  0  0  0  0  0  0
   -3.6680    1.8707    1.7272 H   0  0  0  0  0  0  0  0  0  0  0  0
   -4.3606   -0.1570    0.6147 H   0  0  0  0  0  0  0  0  0  0  0  0
   -4.4036   -1.8292   -2.5961 H   0  0  0  0  0  0  0  0  0  0  0  0
   -5.2795   -0.8791   -1.5114 H   0  0  0  0  0  0  0  0  0  0  0  0
   -2.1350   -2.5601   -2.1533 H   0  0  0  0  0  0  0  0  0  0  0  0
   -0.1082   -2.2372   -0.8257 H   0  0  0  0  0  0  0  0  0  0  0  0
    0.3120   -1.6836    2.0978 H   0  0  0  0  0  0  0  0  0  0  0  0
    0.0906    0.0406    2.2178 H   0  0  0  0  0  0  0  0  0  0  0  0
    2.2695   -2.5040    1.0811 H   0  0  0  0  0  0  0  0  0  0  0  0
    4.3590   -2.1361   -0.1476 H   0  0  0  0  0  0  0  0  0  0  0  0
    5.0884    0.8575   -2.0451 H   0  0  0  0  0  0  0  0  0  0  0  0
    5.5597   -0.7233   -1.6977 H   0  0  0  0  0  0  0  0  0  0  0  0
    3.1990    1.8896   -1.0004 H   0  0  0  0  0  0  0  0  0  0  0  0
    1.0254    2.7711   -1.4514 H   0  0  0  0  0  0  0  0  0  0  0  0
    0.0921    3.5502   -0.1689 H   0  0  0  0  0  0  0  0  0  0  0  0
    1.8495    3.4745   -0.0042 H   0  0  0  0  0  0  0  0  0  0  0  0
  1  2  1  0
  2  3  1  0
  3  4  2  0
  4  5  1  0
  5  6  1  0
  5  7  2  0
  7  8  1  0
  8  9  2  0
  9 10  1  0
 10 11  1  0
 11 12  2  0
 12 13  1  0
 13 14  2  0
 14 15  1  0
 14 16  1  0
 16 17  2  0
 17 18  1  0
 18 19  1  0
  9  3  1  0
 17 11  1  0
  1 20  1  0
  1 21  1  0
  1 22  1  0
  4 23  1  0
  6 24  1  0
  6 25  1  0
  7 26  1  0
  8 27  1  0
 10 28  1  0
 10 29  1  0
 12 30  1  0
 13 31  1  0
 15 32  1  0
 15 33  1  0
 16 34  1  0
 19 35  1  0
 19 36  1  0
 19 37  1  0
M  END
$$$$
