
     RDKit          3D

 57 59  0  0  0  0  0  0  0  0999 V2000
   -7.4209   -2.8447    3.1681 C   0  0  0  0  0  0  0  0  0  0  0  0
   -6.7936   -1.8527    2.2324 C   0  0  0  0  0  0  0  0  0  0  0  0
   -6.1657   -0.7065    2.7387 C   0  0  0  0  0  0  0  0  0  0  0  0
   -5.5611    0.2084    1.8758 C   0  0  0  0  0  0  0  0  0  0  0  0
   -5.5605   -0.0372    0.5002 C   0  0  0  0  0  0  0  0  0  0  0  0
   -4.8153    1.1472   -0.6022 S   0  0  0  0  0  6  0  0  0  0  0  0
   -5.3756    0.9346   -1.9202 O   0  0  0  0  0  0  0  0  0  0  0  0
   -4.8903    2.4419    0.0415 O   0  0  0  0  0  0  0  0  0  0  0  0
   -3.1840    0.6693   -0.6447 N   0  0  0  0  0  0  0  0  0  0  0  0
   -2.8620   -0.5411   -1.4363 C   0  0  0  0  0  0  0  0  0  0  0  0
   -1.5016   -1.1217   -1.0612 C   0  0  0  0  0  0  0  0  0  0  0  0
   -0.4573   -0.0208   -0.8577 C   0  0  0  0  0  0  0  0  0  0  0  0
    0.8911   -0.6128   -0.4700 C   0  0  0  0  0  0  0  0  0  0  0  0
    1.0593   -1.7989   -0.2059 O   0  0  0  0  0  0  0  0  0  0  0  0
    1.9110    0.3056   -0.4377 N   0  0  0  0  0  0  0  0  0  0  0  0
    3.2870   -0.0655   -0.1325 C   0  0  0  0  0  0  0  0  0  0  0  0
    3.4961   -0.1892    1.3730 C   0  0  0  0  0  0  0  0  0  0  0  0
    4.2214    1.0105   -0.7273 C   0  0  0  0  0  0  0  0  0  0  0  0
    3.7647    2.0731   -1.1466 O   0  0  0  0  0  0  0  0  0  0  0  0
    5.5565    0.6387   -0.7118 N   0  0  0  0  0  0  0  0  0  0  0  0
    6.6646    1.3917   -1.1516 C   0  0  0  0  0  0  0  0  0  0  0  0
    6.5746    2.6834   -1.6792 C   0  0  0  0  0  0  0  0  0  0  0  0
    7.7271    3.3629   -2.0891 C   0  0  0  0  0  0  0  0  0  0  0  0
    8.9670    2.7510   -1.9698 C   0  0  0  0  0  0  0  0  0  0  0  0
   10.0687    3.4040   -2.3590 F   0  0  0  0  0  0  0  0  0  0  0  0
    9.0786    1.4700   -1.4478 C   0  0  0  0  0  0  0  0  0  0  0  0
    7.9278    0.7906   -1.0395 C   0  0  0  0  0  0  0  0  0  0  0  0
   -0.9184    1.0084    0.1899 C   0  0  0  0  0  0  0  0  0  0  0  0
   -2.3859    0.8488    0.5797 C   0  0  0  0  0  0  0  0  0  0  0  0
   -6.1934   -1.1693   -0.0188 C   0  0  0  0  0  0  0  0  0  0  0  0
   -6.7959   -2.0809    0.8497 C   0  0  0  0  0  0  0  0  0  0  0  0
   -6.6622   -3.5404    3.5397 H   0  0  0  0  0  0  0  0  0  0  0  0
   -7.8843   -2.3349    4.0194 H   0  0  0  0  0  0  0  0  0  0  0  0
   -8.2073   -3.4174    2.6655 H   0  0  0  0  0  0  0  0  0  0  0  0
   -6.1559   -0.5150    3.8101 H   0  0  0  0  0  0  0  0  0  0  0  0
   -5.1016    1.1070    2.2808 H   0  0  0  0  0  0  0  0  0  0  0  0
   -3.6209   -1.3177   -1.3051 H   0  0  0  0  0  0  0  0  0  0  0  0
   -2.8511   -0.2557   -2.4947 H   0  0  0  0  0  0  0  0  0  0  0  0
   -1.1764   -1.8223   -1.8403 H   0  0  0  0  0  0  0  0  0  0  0  0
   -1.6002   -1.7176   -0.1438 H   0  0  0  0  0  0  0  0  0  0  0  0
   -0.3153    0.4913   -1.8196 H   0  0  0  0  0  0  0  0  0  0  0  0
    1.7637    1.2525   -0.7804 H   0  0  0  0  0  0  0  0  0  0  0  0
    3.5007   -1.0223   -0.6235 H   0  0  0  0  0  0  0  0  0  0  0  0
    4.5218   -0.4884    1.6117 H   0  0  0  0  0  0  0  0  0  0  0  0
    2.8203   -0.9331    1.8076 H   0  0  0  0  0  0  0  0  0  0  0  0
    3.3051    0.7659    1.8754 H   0  0  0  0  0  0  0  0  0  0  0  0
    5.7670   -0.2879   -0.3608 H   0  0  0  0  0  0  0  0  0  0  0  0
    5.6233    3.1949   -1.7869 H   0  0  0  0  0  0  0  0  0  0  0  0
    7.6581    4.3652   -2.4997 H   0  0  0  0  0  0  0  0  0  0  0  0
   10.0573    1.0094   -1.3619 H   0  0  0  0  0  0  0  0  0  0  0  0
    8.0366   -0.2116   -0.6330 H   0  0  0  0  0  0  0  0  0  0  0  0
   -0.3095    0.9639    1.1015 H   0  0  0  0  0  0  0  0  0  0  0  0
   -0.7662    2.0129   -0.2271 H   0  0  0  0  0  0  0  0  0  0  0  0
   -2.6941    1.7452    1.1275 H   0  0  0  0  0  0  0  0  0  0  0  0
   -2.5189   -0.0093    1.2485 H   0  0  0  0  0  0  0  0  0  0  0  0
   -6.2254   -1.3470   -1.0912 H   0  0  0  0  0  0  0  0  0  0  0  0
   -7.2784   -2.9662    0.4401 H   0  0  0  0  0  0  0  0  0  0  0  0
  1  2  1  0
  2  3  2  0
  3  4  1  0
  4  5  2  0
  5  6  1  0
  6  7  2  0
  6  8  2  0
  6  9  1  0
  9 10  1  0
 10 11  1  0
 11 12  1  0
 12 13  1  0
 13 14  2  0
 13 15  1  0
 15 16  1  0
 16 17  1  0
 16 18  1  0
 18 19  2  0
 18 20  1  0
 20 21  1  0
 21 22  2  0
 22 23  1  0
 23 24  2  0
 24 25  1  0
 24 26  1  0
 26 27  2  0
 12 28  1  0
 28 29  1  0
  5 30  1  0
 30 31  2  0
 31  2  1  0
 29  9  1  0
 27 21  1  0
  1 32  1  0
  1 33  1  0
  1 34  1  0
  3 35  1  0
  4 36  1  0
 10 37  1  0
 10 38  1  0
 11 39  1  0
 11 40  1  0
 12 41  1  0
 15 42  1  0
 16 43  1  0
 17 44  1  0
 17 45  1  0
 17 46  1  0
 20 47  1  0
 22 48  1  0
 23 49  1  0
 26 50  1  0
 27 51  1  0
 28 52  1  0
 28 53  1  0
 29 54  1  0
 29 55  1  0
 30 56  1  0
 31 57  1  0
M  END
$$$$
