
     RDKit          3D

 50 53  0  0  0  0  0  0  0  0999 V2000
   -2.1710    0.0400    1.5878 O   0  0  0  0  0  0  0  0  0  0  0  0
   -2.3960    0.0330    0.3762 C   0  0  0  0  0  0  0  0  0  0  0  0
   -3.8307    0.1449   -0.1674 C   0  0  0  0  0  0  0  0  0  0  0  0
   -4.2414   -1.1137   -0.9588 C   0  0  0  0  0  0  0  0  0  0  0  0
   -5.2815   -1.9889   -0.2576 C   0  0  0  0  0  0  0  0  0  0  0  0
   -5.0212   -2.0634    1.2375 C   0  0  0  0  0  0  0  0  0  0  0  0
   -5.1328   -0.6909    1.8952 C   0  0  0  0  0  0  0  0  0  0  0  0
   -4.8383    0.4740    0.9459 C   0  0  0  0  0  0  0  0  0  0  0  0
   -1.3538   -0.0836   -0.5443 N   0  0  0  0  0  0  0  0  0  0  0  0
   -1.4197    0.3945   -1.9244 C   0  0  0  0  0  0  0  0  0  0  0  0
   -0.8302    1.8037   -2.0036 C   0  0  0  0  0  0  0  0  0  0  0  0
    0.5921    1.8441   -1.4300 C   0  0  0  0  0  0  0  0  0  0  0  0
    0.6593    1.2297   -0.0169 C   0  0  0  0  0  0  0  0  0  0  0  0
    2.0653    1.1492    0.4546 C   0  0  0  0  0  0  0  0  0  0  0  0
    3.0609    0.4210    0.0041 N   0  0  0  0  0  0  0  0  0  0  0  0
    4.1011    0.7900    0.8328 C   0  0  0  0  0  0  0  0  0  0  0  0
    5.4393    0.2206    0.7034 C   0  0  0  0  0  0  0  0  0  0  0  0
    5.7058   -0.7389   -0.2882 C   0  0  0  0  0  0  0  0  0  0  0  0
    6.9835   -1.2895   -0.4203 C   0  0  0  0  0  0  0  0  0  0  0  0
    7.9971   -0.8826    0.4381 C   0  0  0  0  0  0  0  0  0  0  0  0
    9.2213   -1.4103    0.3108 F   0  0  0  0  0  0  0  0  0  0  0  0
    7.7586    0.0641    1.4266 C   0  0  0  0  0  0  0  0  0  0  0  0
    6.4811    0.6157    1.5600 C   0  0  0  0  0  0  0  0  0  0  0  0
    3.7614    1.7115    1.7496 N   0  0  0  0  0  0  0  0  0  0  0  0
    2.4125    1.9494    1.5007 O   0  0  0  0  0  0  0  0  0  0  0  0
    0.0128   -0.1626   -0.0191 C   0  0  0  0  0  0  0  0  0  0  0  0
   -3.8350    1.0112   -0.8409 H   0  0  0  0  0  0  0  0  0  0  0  0
   -4.6524   -0.8108   -1.9301 H   0  0  0  0  0  0  0  0  0  0  0  0
   -3.3663   -1.7353   -1.1836 H   0  0  0  0  0  0  0  0  0  0  0  0
   -5.2662   -2.9941   -0.6942 H   0  0  0  0  0  0  0  0  0  0  0  0
   -6.2860   -1.5854   -0.4368 H   0  0  0  0  0  0  0  0  0  0  0  0
   -5.7244   -2.7570    1.7123 H   0  0  0  0  0  0  0  0  0  0  0  0
   -4.0174   -2.4714    1.4102 H   0  0  0  0  0  0  0  0  0  0  0  0
   -6.1443   -0.5592    2.2995 H   0  0  0  0  0  0  0  0  0  0  0  0
   -4.4608   -0.6553    2.7608 H   0  0  0  0  0  0  0  0  0  0  0  0
   -5.7815    0.7772    0.4713 H   0  0  0  0  0  0  0  0  0  0  0  0
   -4.5047    1.3410    1.5293 H   0  0  0  0  0  0  0  0  0  0  0  0
   -2.4392    0.3974   -2.3114 H   0  0  0  0  0  0  0  0  0  0  0  0
   -0.8398   -0.2984   -2.5455 H   0  0  0  0  0  0  0  0  0  0  0  0
   -1.4634    2.4986   -1.4382 H   0  0  0  0  0  0  0  0  0  0  0  0
   -0.8198    2.1459   -3.0441 H   0  0  0  0  0  0  0  0  0  0  0  0
    1.2619    1.2995   -2.1092 H   0  0  0  0  0  0  0  0  0  0  0  0
    0.9491    2.8812   -1.4077 H   0  0  0  0  0  0  0  0  0  0  0  0
    0.0879    1.8783    0.6611 H   0  0  0  0  0  0  0  0  0  0  0  0
    4.9174   -1.0640   -0.9647 H   0  0  0  0  0  0  0  0  0  0  0  0
    7.1913   -2.0309   -1.1853 H   0  0  0  0  0  0  0  0  0  0  0  0
    8.5646    0.3675    2.0872 H   0  0  0  0  0  0  0  0  0  0  0  0
    6.3067    1.3561    2.3389 H   0  0  0  0  0  0  0  0  0  0  0  0
    0.0170   -0.5944    0.9886 H   0  0  0  0  0  0  0  0  0  0  0  0
    0.5698   -0.8584   -0.6602 H   0  0  0  0  0  0  0  0  0  0  0  0
  1  2  2  0
  2  3  1  0
  3  4  1  0
  4  5  1  0
  5  6  1  0
  6  7  1  0
  7  8  1  0
  2  9  1  0
  9 10  1  0
 10 11  1  0
 11 12  1  0
 12 13  1  0
 13 14  1  0
 14 15  2  0
 15 16  1  0
 16 17  1  0
 17 18  2  0
 18 19  1  0
 19 20  2  0
 20 21  1  0
 20 22  1  0
 22 23  2  0
 16 24  2  0
 24 25  1  0
 13 26  1  0
  8  3  1  0
 26  9  1  0
 25 14  1  0
 23 17  1  0
  3 27  1  0
  4 28  1  0
  4 29  1  0
  5 30  1  0
  5 31  1  0
  6 32  1  0
  6 33  1  0
  7 34  1  0
  7 35  1  0
  8 36  1  0
  8 37  1  0
 10 38  1  0
 10 39  1  0
 11 40  1  0
 11 41  1  0
 12 42  1  0
 12 43  1  0
 13 44  1  0
 18 45  1  0
 19 46  1  0
 22 47  1  0
 23 48  1  0
 26 49  1  0
 26 50  1  0
M  END
$$$$
