
     RDKit          3D

 39 41  0  0  0  0  0  0  0  0999 V2000
    3.6852    0.2599   -1.8660 O   0  0  0  0  0  0  0  0  0  0  0  0
    3.9840   -0.0244   -0.7114 C   0  0  0  0  0  0  0  0  0  0  0  0
    3.1218   -0.0242    0.3705 N   0  0  0  0  0  0  0  0  0  0  0  0
    1.7502    0.2885    0.3969 C   0  0  0  0  0  0  0  0  0  0  0  0
    1.1036    0.2139    1.6367 C   0  0  0  0  0  0  0  0  0  0  0  0
   -0.2592    0.5078    1.7537 C   0  0  0  0  0  0  0  0  0  0  0  0
   -1.0049    0.8762    0.6284 C   0  0  0  0  0  0  0  0  0  0  0  0
   -2.4753    1.2187    0.7537 C   0  0  0  0  0  0  0  0  0  0  0  0
   -3.3263    0.5040   -0.2088 N   0  0  0  0  0  0  0  0  0  0  0  0
   -4.6680    1.1224   -0.2682 C   0  0  0  0  0  0  0  0  0  0  0  0
   -5.7237    0.1441   -0.8015 C   0  0  0  0  0  0  0  0  0  0  0  0
   -5.9132   -0.9827    0.0657 O   0  0  0  0  0  0  0  0  0  0  0  0
   -4.7285   -1.3400    0.7909 C   0  0  0  0  0  0  0  0  0  0  0  0
   -3.4294   -0.9451    0.0703 C   0  0  0  0  0  0  0  0  0  0  0  0
   -0.3522    0.9580   -0.6087 C   0  0  0  0  0  0  0  0  0  0  0  0
    1.0115    0.6635   -0.7244 C   0  0  0  0  0  0  0  0  0  0  0  0
    5.3366   -0.4074   -0.3439 C   0  0  0  0  0  0  0  0  0  0  0  0
    6.4842   -0.5343   -1.1039 C   0  0  0  0  0  0  0  0  0  0  0  0
    7.5159   -0.9377   -0.2218 C   0  0  0  0  0  0  0  0  0  0  0  0
    6.9399   -1.0337    1.0235 C   0  0  0  0  0  0  0  0  0  0  0  0
    7.8452   -1.5393    2.6179 Br  0  0  0  0  0  0  0  0  0  0  0  0
    5.6192   -0.7148    0.9633 O   0  0  0  0  0  0  0  0  0  0  0  0
    3.5494   -0.2857    1.2523 H   0  0  0  0  0  0  0  0  0  0  0  0
    1.6503   -0.0723    2.5316 H   0  0  0  0  0  0  0  0  0  0  0  0
   -0.7316    0.4444    2.7312 H   0  0  0  0  0  0  0  0  0  0  0  0
   -2.5528    2.3015    0.5855 H   0  0  0  0  0  0  0  0  0  0  0  0
   -2.8243    1.0359    1.7787 H   0  0  0  0  0  0  0  0  0  0  0  0
   -4.9829    1.4492    0.7319 H   0  0  0  0  0  0  0  0  0  0  0  0
   -4.6247    2.0065   -0.9136 H   0  0  0  0  0  0  0  0  0  0  0  0
   -5.4506   -0.2270   -1.7964 H   0  0  0  0  0  0  0  0  0  0  0  0
   -6.6905    0.6486   -0.8971 H   0  0  0  0  0  0  0  0  0  0  0  0
   -4.7565   -2.4232    0.9468 H   0  0  0  0  0  0  0  0  0  0  0  0
   -4.7802   -0.8687    1.7793 H   0  0  0  0  0  0  0  0  0  0  0  0
   -3.4095   -1.4550   -0.9013 H   0  0  0  0  0  0  0  0  0  0  0  0
   -2.5677   -1.3249    0.6300 H   0  0  0  0  0  0  0  0  0  0  0  0
   -0.9097    1.2463   -1.4983 H   0  0  0  0  0  0  0  0  0  0  0  0
    1.4608    0.7379   -1.7095 H   0  0  0  0  0  0  0  0  0  0  0  0
    6.5530   -0.3536   -2.1688 H   0  0  0  0  0  0  0  0  0  0  0  0
    8.5505   -1.1335   -0.4670 H   0  0  0  0  0  0  0  0  0  0  0  0
  1  2  2  0
  2  3  1  0
  3  4  1  0
  4  5  2  0
  5  6  1  0
  6  7  2  0
  7  8  1  0
  8  9  1  0
  9 10  1  0
 10 11  1  0
 11 12  1  0
 12 13  1  0
 13 14  1  0
  7 15  1  0
 15 16  2  0
  2 17  1  0
 17 18  2  0
 18 19  1  0
 19 20  2  0
 20 21  1  0
 20 22  1  0
 16  4  1  0
 22 17  1  0
 14  9  1  0
  3 23  1  0
  5 24  1  0
  6 25  1  0
  8 26  1  0
  8 27  1  0
 10 28  1  0
 10 29  1  0
 11 30  1  0
 11 31  1  0
 13 32  1  0
 13 33  1  0
 14 34  1  0
 14 35  1  0
 15 36  1  0
 16 37  1  0
 18 38  1  0
 19 39  1  0
M  END
$$$$
