
     RDKit          3D

 44 45  0  0  0  0  0  0  0  0999 V2000
    5.4890   -3.6379    1.3128 C   0  0  0  0  0  0  0  0  0  0  0  0
    4.8951   -2.3124    0.9346 C   0  0  0  0  0  0  0  0  0  0  0  0
    4.1193   -2.1835   -0.2254 C   0  0  0  0  0  0  0  0  0  0  0  0
    3.5780   -0.9449   -0.6066 C   0  0  0  0  0  0  0  0  0  0  0  0
    3.8136    0.1983    0.1596 C   0  0  0  0  0  0  0  0  0  0  0  0
    3.3158    1.4447   -0.1056 O   0  0  0  0  0  0  0  0  0  0  0  0
    2.6589    1.6633   -1.3492 C   0  0  0  0  0  0  0  0  0  0  0  0
    1.1968    1.2109   -1.3702 C   0  0  0  0  0  0  0  0  0  0  0  0
    0.6867    0.7788   -2.4008 O   0  0  0  0  0  0  0  0  0  0  0  0
    0.5754    1.3759   -0.1448 N   0  0  0  0  0  0  0  0  0  0  0  0
   -0.7446    1.0774    0.1297 C   0  0  0  0  0  0  0  0  0  0  0  0
   -1.3991    1.1872    1.3771 C   0  0  0  0  0  0  0  0  0  0  0  0
   -2.6842    0.8290    1.3169 N   0  0  0  0  0  0  0  0  0  0  0  0
   -2.8530    0.4847    0.0255 N   0  0  0  0  0  0  0  0  0  0  0  0
   -4.1544    0.0395   -0.4448 C   0  0  0  0  0  0  0  0  0  0  0  0
   -5.1576    1.1921   -0.5220 C   0  0  0  0  0  0  0  0  0  0  0  0
   -6.4359    0.8207   -1.2709 C   0  0  0  0  0  0  0  0  0  0  0  0
   -7.3129   -0.1424   -0.5162 C   0  0  0  0  0  0  0  0  0  0  0  0
   -7.0402   -0.7556    0.5007 O   0  0  0  0  0  0  0  0  0  0  0  0
   -8.5089   -0.3041   -1.1146 O   0  0  0  0  0  0  0  0  0  0  0  0
   -1.7185    0.6173   -0.7229 C   0  0  0  0  0  0  0  0  0  0  0  0
    4.6019    0.0510    1.3075 C   0  0  0  0  0  0  0  0  0  0  0  0
    4.8699    1.2043    2.1346 N   0  0  0  0  0  4  0  0  0  0  0  0
    4.1606    1.3466    3.1418 O   0  0  0  0  0  0  0  0  0  0  0  0
    5.8024    1.9431    1.7886 O   0  0  0  0  0  1  0  0  0  0  0  0
    5.1485   -1.1759    1.7052 C   0  0  0  0  0  0  0  0  0  0  0  0
    4.8746   -4.4640    0.9404 H   0  0  0  0  0  0  0  0  0  0  0  0
    6.4954   -3.7299    0.8925 H   0  0  0  0  0  0  0  0  0  0  0  0
    5.5459   -3.7411    2.4014 H   0  0  0  0  0  0  0  0  0  0  0  0
    3.9205   -3.0567   -0.8461 H   0  0  0  0  0  0  0  0  0  0  0  0
    2.9707   -0.9276   -1.5075 H   0  0  0  0  0  0  0  0  0  0  0  0
    3.2128    1.2151   -2.1827 H   0  0  0  0  0  0  0  0  0  0  0  0
    2.6546    2.7457   -1.5238 H   0  0  0  0  0  0  0  0  0  0  0  0
    1.1438    1.6972    0.6325 H   0  0  0  0  0  0  0  0  0  0  0  0
   -0.9959    1.5143    2.3267 H   0  0  0  0  0  0  0  0  0  0  0  0
   -4.0057   -0.4121   -1.4324 H   0  0  0  0  0  0  0  0  0  0  0  0
   -4.4853   -0.7496    0.2382 H   0  0  0  0  0  0  0  0  0  0  0  0
   -5.4002    1.5410    0.4896 H   0  0  0  0  0  0  0  0  0  0  0  0
   -4.6916    2.0400   -1.0413 H   0  0  0  0  0  0  0  0  0  0  0  0
   -7.0168    1.7370   -1.4328 H   0  0  0  0  0  0  0  0  0  0  0  0
   -6.1955    0.3857   -2.2467 H   0  0  0  0  0  0  0  0  0  0  0  0
   -8.9826   -0.9399   -0.5370 H   0  0  0  0  0  0  0  0  0  0  0  0
   -1.7055    0.3787   -1.7779 H   0  0  0  0  0  0  0  0  0  0  0  0
    5.7586   -1.2419    2.6039 H   0  0  0  0  0  0  0  0  0  0  0  0
  1  2  1  0
  2  3  2  0
  3  4  1  0
  4  5  2  0
  5  6  1  0
  6  7  1  0
  7  8  1  0
  8  9  2  0
  8 10  1  0
 10 11  1  0
 11 12  1  0
 12 13  2  0
 13 14  1  0
 14 15  1  0
 15 16  1  0
 16 17  1  0
 17 18  1  0
 18 19  2  0
 18 20  1  0
 14 21  1  0
  5 22  1  0
 22 23  1  0
 23 24  2  0
 23 25  1  0
 22 26  2  0
 26  2  1  0
 21 11  2  0
  1 27  1  0
  1 28  1  0
  1 29  1  0
  3 30  1  0
  4 31  1  0
  7 32  1  0
  7 33  1  0
 10 34  1  0
 12 35  1  0
 15 36  1  0
 15 37  1  0
 16 38  1  0
 16 39  1  0
 17 40  1  0
 17 41  1  0
 20 42  1  0
 21 43  1  0
 26 44  1  0
M  CHG  2  23   1  25  -1
M  END
$$$$
