
     RDKit          3D

 52 54  0  0  0  0  0  0  0  0999 V2000
    3.2343    0.6542   -2.5300 C   0  0  0  0  0  0  0  0  0  0  0  0
    3.1004    0.7679   -1.0104 C   0  0  0  0  0  0  0  0  0  0  0  0
    3.5817    2.1292   -0.4770 C   0  0  0  0  0  0  0  0  0  0  0  0
    5.0638    2.4420   -0.7151 C   0  0  0  0  0  0  0  0  0  0  0  0
    6.0085    1.5026   -0.0085 C   0  0  0  0  0  0  0  0  0  0  0  0
    6.1305    1.5330    1.3876 C   0  0  0  0  0  0  0  0  0  0  0  0
    6.9981    0.6578    2.0428 C   0  0  0  0  0  0  0  0  0  0  0  0
    7.7531   -0.2552    1.3099 C   0  0  0  0  0  0  0  0  0  0  0  0
    7.6422   -0.2927   -0.0784 C   0  0  0  0  0  0  0  0  0  0  0  0
    6.7754    0.5823   -0.7354 C   0  0  0  0  0  0  0  0  0  0  0  0
    1.7029    0.5732   -0.6235 N   0  0  0  0  0  0  0  0  0  0  0  0
    1.1499   -0.6882   -0.5207 C   0  0  0  0  0  0  0  0  0  0  0  0
    1.7831   -1.7246   -0.6847 O   0  0  0  0  0  0  0  0  0  0  0  0
   -0.3112   -0.7474   -0.2349 C   0  0  0  0  0  0  0  0  0  0  0  0
   -1.0247   -1.8780   -0.6445 C   0  0  0  0  0  0  0  0  0  0  0  0
   -2.3980   -1.9739   -0.3962 C   0  0  0  0  0  0  0  0  0  0  0  0
   -3.0768   -0.9472    0.2721 C   0  0  0  0  0  0  0  0  0  0  0  0
   -4.4619   -1.1184    0.4767 N   0  0  0  0  0  0  0  0  0  0  0  0
   -5.3208   -0.2709    1.1530 C   0  0  0  0  0  0  0  0  0  0  0  0
   -5.0247    0.7588    1.7461 O   0  0  0  0  0  0  0  0  0  0  0  0
   -6.7451   -0.7065    1.1715 C   0  0  0  0  0  0  0  0  0  0  0  0
   -7.3428   -1.3165    0.0592 C   0  0  0  0  0  0  0  0  0  0  0  0
   -8.6826   -1.7066    0.1142 C   0  0  0  0  0  0  0  0  0  0  0  0
   -9.4284   -1.4820    1.2722 C   0  0  0  0  0  0  0  0  0  0  0  0
   -8.8352   -0.8582    2.3698 C   0  0  0  0  0  0  0  0  0  0  0  0
   -9.8545   -0.5448    3.9308 Br  0  0  0  0  0  0  0  0  0  0  0  0
   -7.4997   -0.4639    2.3255 C   0  0  0  0  0  0  0  0  0  0  0  0
   -2.3577    0.1740    0.6914 C   0  0  0  0  0  0  0  0  0  0  0  0
   -0.9813    0.2733    0.4466 C   0  0  0  0  0  0  0  0  0  0  0  0
    2.8338   -0.2996   -2.8905 H   0  0  0  0  0  0  0  0  0  0  0  0
    2.6790    1.4525   -3.0347 H   0  0  0  0  0  0  0  0  0  0  0  0
    4.2789    0.7088   -2.8485 H   0  0  0  0  0  0  0  0  0  0  0  0
    3.6819   -0.0375   -0.5471 H   0  0  0  0  0  0  0  0  0  0  0  0
    3.3663    2.1845    0.5985 H   0  0  0  0  0  0  0  0  0  0  0  0
    2.9848    2.9269   -0.9396 H   0  0  0  0  0  0  0  0  0  0  0  0
    5.2709    3.4595   -0.3580 H   0  0  0  0  0  0  0  0  0  0  0  0
    5.2816    2.4662   -1.7891 H   0  0  0  0  0  0  0  0  0  0  0  0
    5.5482    2.2391    1.9752 H   0  0  0  0  0  0  0  0  0  0  0  0
    7.0826    0.6868    3.1259 H   0  0  0  0  0  0  0  0  0  0  0  0
    8.4258   -0.9391    1.8204 H   0  0  0  0  0  0  0  0  0  0  0  0
    8.2287   -1.0066   -0.6507 H   0  0  0  0  0  0  0  0  0  0  0  0
    6.7012    0.5352   -1.8193 H   0  0  0  0  0  0  0  0  0  0  0  0
    1.0775    1.3597   -0.7328 H   0  0  0  0  0  0  0  0  0  0  0  0
   -0.5122   -2.6885   -1.1595 H   0  0  0  0  0  0  0  0  0  0  0  0
   -2.9212   -2.8659   -0.7310 H   0  0  0  0  0  0  0  0  0  0  0  0
   -4.8469   -1.9922    0.1424 H   0  0  0  0  0  0  0  0  0  0  0  0
   -6.7899   -1.4651   -0.8648 H   0  0  0  0  0  0  0  0  0  0  0  0
   -9.1507   -2.1752   -0.7486 H   0  0  0  0  0  0  0  0  0  0  0  0
  -10.4719   -1.7860    1.3061 H   0  0  0  0  0  0  0  0  0  0  0  0
   -7.0400    0.0288    3.1798 H   0  0  0  0  0  0  0  0  0  0  0  0
   -2.8363    0.9908    1.2233 H   0  0  0  0  0  0  0  0  0  0  0  0
   -0.4509    1.1434    0.8230 H   0  0  0  0  0  0  0  0  0  0  0  0
  1  2  1  0
  2  3  1  0
  3  4  1  0
  4  5  1  0
  5  6  2  0
  6  7  1  0
  7  8  2  0
  8  9  1  0
  9 10  2  0
  2 11  1  0
 11 12  1  0
 12 13  2  0
 12 14  1  0
 14 15  2  0
 15 16  1  0
 16 17  2  0
 17 18  1  0
 18 19  1  0
 19 20  2  0
 19 21  1  0
 21 22  2  0
 22 23  1  0
 23 24  2  0
 24 25  1  0
 25 26  1  0
 25 27  2  0
 17 28  1  0
 28 29  2  0
 10  5  1  0
 29 14  1  0
 27 21  1  0
  1 30  1  0
  1 31  1  0
  1 32  1  0
  2 33  1  0
  3 34  1  0
  3 35  1  0
  4 36  1  0
  4 37  1  0
  6 38  1  0
  7 39  1  0
  8 40  1  0
  9 41  1  0
 10 42  1  0
 11 43  1  0
 15 44  1  0
 16 45  1  0
 18 46  1  0
 22 47  1  0
 23 48  1  0
 24 49  1  0
 27 50  1  0
 28 51  1  0
 29 52  1  0
M  END
$$$$
