
     RDKit          3D

 37 39  0  0  0  0  0  0  0  0999 V2000
   -0.6739   -0.3079    2.3887 O   0  0  0  0  0  0  0  0  0  0  0  0
   -0.6692   -1.1813    1.5281 C   0  0  0  0  0  0  0  0  0  0  0  0
    0.0462   -2.4973    1.7670 C   0  0  0  0  0  0  0  0  0  0  0  0
    1.4899   -2.5212    1.2601 C   0  0  0  0  0  0  0  0  0  0  0  0
    2.6262   -1.5208    2.2677 S   0  0  0  0  0  0  0  0  0  0  0  0
    2.5295    0.0357    1.4167 C   0  0  0  0  0  0  0  0  0  0  0  0
    2.8726    1.1984    2.1169 C   0  0  0  0  0  0  0  0  0  0  0  0
    2.8815    2.4377    1.4747 C   0  0  0  0  0  0  0  0  0  0  0  0
    2.5627    2.5214    0.1223 C   0  0  0  0  0  0  0  0  0  0  0  0
    2.2275    1.3671   -0.5859 C   0  0  0  0  0  0  0  0  0  0  0  0
    2.1975    0.1264    0.0614 C   0  0  0  0  0  0  0  0  0  0  0  0
    1.8445   -0.9950   -0.6983 N   0  0  0  0  0  0  0  0  0  0  0  0
    1.5660   -2.2444   -0.2310 C   0  0  0  0  0  0  0  0  0  0  0  0
    1.2473   -3.1159   -1.0455 O   0  0  0  0  0  0  0  0  0  0  0  0
   -1.2670   -1.1042    0.2829 N   0  0  0  0  0  0  0  0  0  0  0  0
   -1.8862    0.0236   -0.3211 C   0  0  0  0  0  0  0  0  0  0  0  0
   -1.7821    1.3014    0.2478 C   0  0  0  0  0  0  0  0  0  0  0  0
   -2.3711    2.4200   -0.3542 C   0  0  0  0  0  0  0  0  0  0  0  0
   -3.0758    2.2907   -1.5449 C   0  0  0  0  0  0  0  0  0  0  0  0
   -3.1896    1.0390   -2.1427 C   0  0  0  0  0  0  0  0  0  0  0  0
   -2.5964   -0.0884   -1.5398 C   0  0  0  0  0  0  0  0  0  0  0  0
   -2.7488   -1.3775   -2.2319 N   0  0  0  0  0  4  0  0  0  0  0  0
   -3.1347   -1.3594   -3.4095 O   0  0  0  0  0  0  0  0  0  0  0  0
   -2.4775   -2.4126   -1.6041 O   0  0  0  0  0  1  0  0  0  0  0  0
   -0.5273   -3.2947    1.2759 H   0  0  0  0  0  0  0  0  0  0  0  0
    0.0007   -2.7229    2.8399 H   0  0  0  0  0  0  0  0  0  0  0  0
    1.8598   -3.5465    1.3885 H   0  0  0  0  0  0  0  0  0  0  0  0
    3.1372    1.1470    3.1711 H   0  0  0  0  0  0  0  0  0  0  0  0
    3.1446    3.3340    2.0310 H   0  0  0  0  0  0  0  0  0  0  0  0
    2.5754    3.4852   -0.3805 H   0  0  0  0  0  0  0  0  0  0  0  0
    1.9783    1.4525   -1.6402 H   0  0  0  0  0  0  0  0  0  0  0  0
    1.7526   -0.8951   -1.7016 H   0  0  0  0  0  0  0  0  0  0  0  0
   -1.3604   -1.9841   -0.2302 H   0  0  0  0  0  0  0  0  0  0  0  0
   -1.2300    1.4744    1.1679 H   0  0  0  0  0  0  0  0  0  0  0  0
   -2.2723    3.3958    0.1177 H   0  0  0  0  0  0  0  0  0  0  0  0
   -3.5334    3.1630   -2.0063 H   0  0  0  0  0  0  0  0  0  0  0  0
   -3.7442    0.9558   -3.0761 H   0  0  0  0  0  0  0  0  0  0  0  0
  1  2  2  0
  2  3  1  0
  3  4  1  0
  4  5  1  0
  5  6  1  0
  6  7  2  0
  7  8  1  0
  8  9  2  0
  9 10  1  0
 10 11  2  0
 11 12  1  0
 12 13  1  0
 13 14  2  0
  2 15  1  0
 15 16  1  0
 16 17  2  0
 17 18  1  0
 18 19  2  0
 19 20  1  0
 20 21  2  0
 21 22  1  0
 22 23  2  0
 22 24  1  0
 13  4  1  0
 21 16  1  0
 11  6  1  0
  3 25  1  0
  3 26  1  0
  4 27  1  0
  7 28  1  0
  8 29  1  0
  9 30  1  0
 10 31  1  0
 12 32  1  0
 15 33  1  0
 17 34  1  0
 18 35  1  0
 19 36  1  0
 20 37  1  0
M  CHG  2  22   1  24  -1
M  END
$$$$
