
     RDKit          3D

 42 44  0  0  0  0  0  0  0  0999 V2000
    5.8620    0.6840    0.0084 C   0  0  0  0  0  0  0  0  0  0  0  0
    5.0868   -0.5637    0.4029 C   0  0  0  0  0  0  0  0  0  0  0  0
    3.5984   -0.3258    0.3912 C   0  0  0  0  0  0  0  0  0  0  0  0
    2.8549   -0.5364   -0.7756 C   0  0  0  0  0  0  0  0  0  0  0  0
    1.4788   -0.2989   -0.7921 C   0  0  0  0  0  0  0  0  0  0  0  0
    0.8177    0.1607    0.3581 C   0  0  0  0  0  0  0  0  0  0  0  0
   -0.6919    0.4085    0.3646 C   0  0  0  0  0  0  0  0  0  0  0  0
   -1.4511   -0.9234    0.1474 C   0  0  0  0  0  0  0  0  0  0  0  0
   -1.1387   -1.8149    1.3337 C   0  0  0  0  0  0  0  0  0  0  0  0
   -1.2676   -1.5356    2.5153 O   0  0  0  0  0  0  0  0  0  0  0  0
   -0.6976   -3.0376    0.9705 O   0  0  0  0  0  0  0  0  0  0  0  0
   -2.9377   -0.6961   -0.0330 C   0  0  0  0  0  0  0  0  0  0  0  0
   -3.8716   -1.7220    0.2036 C   0  0  0  0  0  0  0  0  0  0  0  0
   -5.2366   -1.5077    0.0045 C   0  0  0  0  0  0  0  0  0  0  0  0
   -5.6893   -0.2749   -0.4526 C   0  0  0  0  0  0  0  0  0  0  0  0
   -4.7736    0.7406   -0.7219 C   0  0  0  0  0  0  0  0  0  0  0  0
   -3.3994    0.5340   -0.5222 C   0  0  0  0  0  0  0  0  0  0  0  0
   -2.4606    1.6361   -0.8737 C   0  0  0  0  0  0  0  0  0  0  0  0
   -2.9103    2.6532   -1.3963 O   0  0  0  0  0  0  0  0  0  0  0  0
   -1.1009    1.4555   -0.5957 N   0  0  0  0  0  0  0  0  0  0  0  0
   -0.2640    2.6456   -0.7267 C   0  0  0  0  0  0  0  0  0  0  0  0
    1.5683    0.3780    1.5231 C   0  0  0  0  0  0  0  0  0  0  0  0
    2.9443    0.1390    1.5380 C   0  0  0  0  0  0  0  0  0  0  0  0
    5.6609    1.5113    0.6976 H   0  0  0  0  0  0  0  0  0  0  0  0
    6.9377    0.4823    0.0256 H   0  0  0  0  0  0  0  0  0  0  0  0
    5.5949    1.0153   -1.0008 H   0  0  0  0  0  0  0  0  0  0  0  0
    5.3996   -0.8946    1.4007 H   0  0  0  0  0  0  0  0  0  0  0  0
    5.3344   -1.3854   -0.2801 H   0  0  0  0  0  0  0  0  0  0  0  0
    3.3447   -0.8829   -1.6831 H   0  0  0  0  0  0  0  0  0  0  0  0
    0.9280   -0.4593   -1.7171 H   0  0  0  0  0  0  0  0  0  0  0  0
   -0.9720    0.8194    1.3464 H   0  0  0  0  0  0  0  0  0  0  0  0
   -1.0984   -1.4144   -0.7696 H   0  0  0  0  0  0  0  0  0  0  0  0
   -0.5074   -3.4908    1.8192 H   0  0  0  0  0  0  0  0  0  0  0  0
   -3.5509   -2.7051    0.5437 H   0  0  0  0  0  0  0  0  0  0  0  0
   -5.9468   -2.3075    0.2013 H   0  0  0  0  0  0  0  0  0  0  0  0
   -6.7511   -0.1056   -0.6120 H   0  0  0  0  0  0  0  0  0  0  0  0
   -5.1345    1.6962   -1.0987 H   0  0  0  0  0  0  0  0  0  0  0  0
    0.7460    2.3760   -1.0411 H   0  0  0  0  0  0  0  0  0  0  0  0
   -0.6647    3.3347   -1.4760 H   0  0  0  0  0  0  0  0  0  0  0  0
   -0.2323    3.1608    0.2382 H   0  0  0  0  0  0  0  0  0  0  0  0
    1.0871    0.7321    2.4333 H   0  0  0  0  0  0  0  0  0  0  0  0
    3.5044    0.3192    2.4533 H   0  0  0  0  0  0  0  0  0  0  0  0
  1  2  1  0
  2  3  1  0
  3  4  2  0
  4  5  1  0
  5  6  2  0
  6  7  1  0
  7  8  1  0
  8  9  1  0
  9 10  2  0
  9 11  1  0
  8 12  1  0
 12 13  2  0
 13 14  1  0
 14 15  2  0
 15 16  1  0
 16 17  2  0
 17 18  1  0
 18 19  2  0
 18 20  1  0
 20 21  1  0
  6 22  1  0
 22 23  2  0
 23  3  1  0
 20  7  1  0
 17 12  1  0
  1 24  1  0
  1 25  1  0
  1 26  1  0
  2 27  1  0
  2 28  1  0
  4 29  1  0
  5 30  1  0
  7 31  1  0
  8 32  1  0
 11 33  1  0
 13 34  1  0
 14 35  1  0
 15 36  1  0
 16 37  1  0
 21 38  1  0
 21 39  1  0
 21 40  1  0
 22 41  1  0
 23 42  1  0
M  END
$$$$
