
     RDKit          3D

 69 73  0  0  0  0  0  0  0  0999 V2000
   -3.5735    0.9171    5.9087 C   0  0  0  0  0  0  0  0  0  0  0  0
   -2.7930    1.1456    4.6486 C   0  0  0  0  0  0  0  0  0  0  0  0
   -1.6418    0.3927    4.3918 C   0  0  0  0  0  0  0  0  0  0  0  0
   -0.9042    0.6001    3.2234 C   0  0  0  0  0  0  0  0  0  0  0  0
   -1.3009    1.5678    2.2911 C   0  0  0  0  0  0  0  0  0  0  0  0
   -0.5133    1.7819    1.0133 C   0  0  0  0  0  0  0  0  0  0  0  0
   -1.0405    1.0050   -0.1086 N   0  0  0  0  0  0  0  0  0  0  0  0
   -2.0888    1.5771   -0.8495 C   0  0  0  0  0  0  0  0  0  0  0  0
   -2.3901    2.7692   -0.7618 O   0  0  0  0  0  0  0  0  0  0  0  0
   -2.7693    0.6214   -1.8684 C   0  0  0  0  0  0  0  0  0  0  0  0
   -4.1172    1.1759   -2.3708 C   0  0  0  0  0  0  0  0  0  0  0  0
   -4.4429    0.8205   -3.8392 C   0  0  0  0  0  0  0  0  0  0  0  0
   -4.5561   -0.6820   -4.0927 C   0  0  0  0  0  0  0  0  0  0  0  0
   -5.7433    1.5121   -4.2597 C   0  0  0  0  0  0  0  0  0  0  0  0
   -2.9773   -0.6843   -1.2417 N   0  0  0  0  0  0  0  0  0  0  0  0
   -1.7828   -1.2304   -0.7594 C   0  0  0  0  0  0  0  0  0  0  0  0
   -1.6969   -2.5642   -0.8364 N   0  0  0  0  0  0  0  0  0  0  0  0
   -0.5836   -3.0979   -0.3338 C   0  0  0  0  0  0  0  0  0  0  0  0
    0.4599   -2.4248    0.1640 N   0  0  0  0  0  0  0  0  0  0  0  0
    0.3812   -1.0772    0.1910 C   0  0  0  0  0  0  0  0  0  0  0  0
    1.5578   -0.3799    0.5216 N   0  0  0  0  0  0  0  0  0  0  0  0
    2.1581    0.3338   -0.6422 C   0  0  0  0  0  0  0  0  0  0  0  0
    3.5602   -0.1989   -1.0167 C   0  0  0  0  0  0  0  0  0  0  0  0
    4.4969   -0.1413    0.1363 N   0  0  0  0  0  0  0  0  0  0  0  0
    5.6996   -0.8060   -0.1498 C   0  0  0  0  0  0  0  0  0  0  0  0
    6.6368   -0.1722   -0.9809 C   0  0  0  0  0  0  0  0  0  0  0  0
    7.8460   -0.7862   -1.3175 C   0  0  0  0  0  0  0  0  0  0  0  0
    8.1371   -2.0565   -0.8318 C   0  0  0  0  0  0  0  0  0  0  0  0
    7.2185   -2.7085   -0.0141 C   0  0  0  0  0  0  0  0  0  0  0  0
    6.0100   -2.0882    0.3221 C   0  0  0  0  0  0  0  0  0  0  0  0
    3.8609   -0.3745    1.4562 C   0  0  0  0  0  0  0  0  0  0  0  0
    2.5353   -1.1536    1.3256 C   0  0  0  0  0  0  0  0  0  0  0  0
   -0.7902   -0.4119   -0.2058 C   0  0  0  0  0  0  0  0  0  0  0  0
   -2.4553    2.3188    2.5519 C   0  0  0  0  0  0  0  0  0  0  0  0
   -3.1922    2.1120    3.7205 C   0  0  0  0  0  0  0  0  0  0  0  0
   -3.8691   -0.1346    5.9858 H   0  0  0  0  0  0  0  0  0  0  0  0
   -2.9680    1.1866    6.7799 H   0  0  0  0  0  0  0  0  0  0  0  0
   -4.4866    1.5215    5.9308 H   0  0  0  0  0  0  0  0  0  0  0  0
   -1.3145   -0.3648    5.1003 H   0  0  0  0  0  0  0  0  0  0  0  0
   -0.0167   -0.0018    3.0456 H   0  0  0  0  0  0  0  0  0  0  0  0
   -0.5507    2.8498    0.7587 H   0  0  0  0  0  0  0  0  0  0  0  0
    0.5437    1.5953    1.1977 H   0  0  0  0  0  0  0  0  0  0  0  0
   -2.0761    0.5334   -2.7169 H   0  0  0  0  0  0  0  0  0  0  0  0
   -4.1197    2.2704   -2.3054 H   0  0  0  0  0  0  0  0  0  0  0  0
   -4.9323    0.8346   -1.7187 H   0  0  0  0  0  0  0  0  0  0  0  0
   -3.6398    1.2121   -4.4763 H   0  0  0  0  0  0  0  0  0  0  0  0
   -5.2773   -1.1482   -3.4132 H   0  0  0  0  0  0  0  0  0  0  0  0
   -4.8848   -0.8795   -5.1191 H   0  0  0  0  0  0  0  0  0  0  0  0
   -3.5893   -1.1785   -3.9678 H   0  0  0  0  0  0  0  0  0  0  0  0
   -5.6602    2.5978   -4.1472 H   0  0  0  0  0  0  0  0  0  0  0  0
   -6.5887    1.1721   -3.6529 H   0  0  0  0  0  0  0  0  0  0  0  0
   -5.9739    1.3054   -5.3102 H   0  0  0  0  0  0  0  0  0  0  0  0
   -3.4639   -1.3985   -1.7718 H   0  0  0  0  0  0  0  0  0  0  0  0
   -0.5091   -4.1797   -0.3443 H   0  0  0  0  0  0  0  0  0  0  0  0
    2.2503    1.3925   -0.3718 H   0  0  0  0  0  0  0  0  0  0  0  0
    1.5202    0.2877   -1.5332 H   0  0  0  0  0  0  0  0  0  0  0  0
    3.9515    0.4058   -1.8438 H   0  0  0  0  0  0  0  0  0  0  0  0
    3.4611   -1.2330   -1.3746 H   0  0  0  0  0  0  0  0  0  0  0  0
    6.4291    0.8269   -1.3564 H   0  0  0  0  0  0  0  0  0  0  0  0
    8.5578   -0.2689   -1.9545 H   0  0  0  0  0  0  0  0  0  0  0  0
    9.0763   -2.5377   -1.0907 H   0  0  0  0  0  0  0  0  0  0  0  0
    7.4373   -3.7046    0.3612 H   0  0  0  0  0  0  0  0  0  0  0  0
    5.3085   -2.6399    0.9397 H   0  0  0  0  0  0  0  0  0  0  0  0
    4.5309   -0.8749    2.1646 H   0  0  0  0  0  0  0  0  0  0  0  0
    3.6493    0.6112    1.8909 H   0  0  0  0  0  0  0  0  0  0  0  0
    2.1209   -1.3247    2.3258 H   0  0  0  0  0  0  0  0  0  0  0  0
    2.7526   -2.1299    0.8737 H   0  0  0  0  0  0  0  0  0  0  0  0
   -2.7918    3.0721    1.8412 H   0  0  0  0  0  0  0  0  0  0  0  0
   -4.0827    2.7114    3.8951 H   0  0  0  0  0  0  0  0  0  0  0  0
  1  2  1  0
  2  3  2  0
  3  4  1  0
  4  5  2  0
  5  6  1  0
  6  7  1  0
  7  8  1  0
  8  9  2  0
  8 10  1  0
 10 11  1  0
 11 12  1  0
 12 13  1  0
 12 14  1  0
 10 15  1  0
 15 16  1  0
 16 17  2  0
 17 18  1  0
 18 19  2  0
 19 20  1  0
 20 21  1  0
 21 22  1  0
 22 23  1  0
 23 24  1  0
 24 25  1  0
 25 26  2  0
 26 27  1  0
 27 28  2  0
 28 29  1  0
 29 30  2  0
 24 31  1  0
 31 32  1  0
 20 33  2  0
  5 34  1  0
 34 35  2  0
 35  2  1  0
 33  7  1  0
 33 16  1  0
 32 21  1  0
 30 25  1  0
  1 36  1  0
  1 37  1  0
  1 38  1  0
  3 39  1  0
  4 40  1  0
  6 41  1  0
  6 42  1  0
 10 43  1  0
 11 44  1  0
 11 45  1  0
 12 46  1  0
 13 47  1  0
 13 48  1  0
 13 49  1  0
 14 50  1  0
 14 51  1  0
 14 52  1  0
 15 53  1  0
 18 54  1  0
 22 55  1  0
 22 56  1  0
 23 57  1  0
 23 58  1  0
 26 59  1  0
 27 60  1  0
 28 61  1  0
 29 62  1  0
 30 63  1  0
 31 64  1  0
 31 65  1  0
 32 66  1  0
 32 67  1  0
 34 68  1  0
 35 69  1  0
M  END
$$$$
