
     RDKit          3D

 71 74  0  0  0  0  0  0  0  0999 V2000
    8.7080   -0.4021    1.6506 C   0  0  0  0  0  0  0  0  0  0  0  0
    7.8217   -1.5734    1.2453 C   0  0  0  0  0  0  0  0  0  0  0  0
    7.1306   -1.2933   -0.0182 N   0  0  0  0  0  0  0  0  0  0  0  0
    7.7669   -1.8392   -1.2260 C   0  0  0  0  0  0  0  0  0  0  0  0
    7.2337   -3.2296   -1.5586 C   0  0  0  0  0  0  0  0  0  0  0  0
    5.8861   -0.6714   -0.0535 C   0  0  0  0  0  0  0  0  0  0  0  0
    5.1395   -0.5586   -1.2383 C   0  0  0  0  0  0  0  0  0  0  0  0
    3.8666    0.0300   -1.2790 C   0  0  0  0  0  0  0  0  0  0  0  0
    3.2834    0.5355   -0.1203 C   0  0  0  0  0  0  0  0  0  0  0  0
    1.9358    1.1111   -0.2027 C   0  0  0  0  0  0  0  0  0  0  0  0
    0.8802    0.7168    0.5338 C   0  0  0  0  0  0  0  0  0  0  0  0
    0.8687   -0.4098    1.5335 C   0  0  0  0  0  0  0  0  0  0  0  0
   -0.5402   -0.9641    1.4336 C   0  0  0  0  0  0  0  0  0  0  0  0
   -1.3085    0.1725    0.8345 C   0  0  0  0  0  0  0  0  0  0  0  0
   -2.7813    0.0968    0.8469 C   0  0  0  0  0  0  0  0  0  0  0  0
   -3.4027   -0.9442    1.3023 N   0  0  0  0  0  0  0  0  0  0  0  0
   -4.7704   -0.9702    1.1466 N   0  0  0  0  0  0  0  0  0  0  0  0
   -5.3765   -0.7200   -0.0826 C   0  0  0  0  0  0  0  0  0  0  0  0
   -4.8766   -0.1676   -1.0576 O   0  0  0  0  0  0  0  0  0  0  0  0
   -6.7509   -1.2803   -0.1528 C   0  0  0  0  0  0  0  0  0  0  0  0
   -6.9900   -2.5637   -0.7707 C   0  0  0  0  0  0  0  0  0  0  0  0
   -8.2301   -3.0638   -0.8267 C   0  0  0  0  0  0  0  0  0  0  0  0
   -9.3727   -2.3116   -0.2371 C   0  0  0  0  0  0  0  0  0  0  0  0
  -10.4855   -2.8338   -0.2372 O   0  0  0  0  0  0  0  0  0  0  0  0
   -9.0689   -1.0566    0.2957 N   0  0  0  0  0  0  0  0  0  0  0  0
  -10.1369   -0.2699    0.8922 C   0  0  0  0  0  0  0  0  0  0  0  0
   -7.7715   -0.5656    0.3421 C   0  0  0  0  0  0  0  0  0  0  0  0
   -0.5169    1.1498    0.3543 C   0  0  0  0  0  0  0  0  0  0  0  0
   -0.8315    2.3671   -0.2360 N   0  0  0  0  0  0  0  0  0  0  0  0
   -0.0819    3.6113    0.0662 C   0  0  0  0  0  0  0  0  0  0  0  0
   -1.0070    4.8340   -0.0403 C   0  0  0  0  0  0  0  0  0  0  0  0
   -1.5579    5.0174   -1.3568 O   0  0  0  0  0  0  0  0  0  0  0  0
   -1.7432    3.7782   -2.0621 C   0  0  0  0  0  0  0  0  0  0  0  0
   -1.9868    2.5738   -1.1368 C   0  0  0  0  0  0  0  0  0  0  0  0
    4.0189    0.4994    1.0596 C   0  0  0  0  0  0  0  0  0  0  0  0
    5.2907   -0.1015    1.0881 C   0  0  0  0  0  0  0  0  0  0  0  0
    9.4646   -0.1943    0.8869 H   0  0  0  0  0  0  0  0  0  0  0  0
    9.2274   -0.6354    2.5869 H   0  0  0  0  0  0  0  0  0  0  0  0
    8.1333    0.5186    1.7988 H   0  0  0  0  0  0  0  0  0  0  0  0
    8.4614   -2.4569    1.1331 H   0  0  0  0  0  0  0  0  0  0  0  0
    7.1238   -1.8366    2.0467 H   0  0  0  0  0  0  0  0  0  0  0  0
    7.6603   -1.1600   -2.0825 H   0  0  0  0  0  0  0  0  0  0  0  0
    8.8514   -1.9163   -1.0642 H   0  0  0  0  0  0  0  0  0  0  0  0
    6.1490   -3.2128   -1.7272 H   0  0  0  0  0  0  0  0  0  0  0  0
    7.4303   -3.9244   -0.7377 H   0  0  0  0  0  0  0  0  0  0  0  0
    7.7185   -3.6106   -2.4638 H   0  0  0  0  0  0  0  0  0  0  0  0
    5.5253   -0.9354   -2.1838 H   0  0  0  0  0  0  0  0  0  0  0  0
    3.3317    0.0697   -2.2247 H   0  0  0  0  0  0  0  0  0  0  0  0
    1.8075    1.8406   -0.9978 H   0  0  0  0  0  0  0  0  0  0  0  0
    1.0386    0.0044    2.5346 H   0  0  0  0  0  0  0  0  0  0  0  0
    1.6137   -1.1885    1.3596 H   0  0  0  0  0  0  0  0  0  0  0  0
   -0.9120   -1.2533    2.4236 H   0  0  0  0  0  0  0  0  0  0  0  0
   -0.5744   -1.8428    0.7775 H   0  0  0  0  0  0  0  0  0  0  0  0
   -3.3237    0.9698    0.4628 H   0  0  0  0  0  0  0  0  0  0  0  0
   -5.2238   -1.6528    1.7484 H   0  0  0  0  0  0  0  0  0  0  0  0
   -6.1483   -3.0867   -1.2247 H   0  0  0  0  0  0  0  0  0  0  0  0
   -8.4574   -4.0144   -1.2970 H   0  0  0  0  0  0  0  0  0  0  0  0
  -10.0488    0.7737    0.5751 H   0  0  0  0  0  0  0  0  0  0  0  0
  -10.0509   -0.3307    1.9827 H   0  0  0  0  0  0  0  0  0  0  0  0
  -11.1232   -0.6429    0.5955 H   0  0  0  0  0  0  0  0  0  0  0  0
   -7.6303    0.4119    0.7985 H   0  0  0  0  0  0  0  0  0  0  0  0
    0.7376    3.7215   -0.6517 H   0  0  0  0  0  0  0  0  0  0  0  0
    0.3432    3.5716    1.0768 H   0  0  0  0  0  0  0  0  0  0  0  0
   -1.8434    4.7471    0.6639 H   0  0  0  0  0  0  0  0  0  0  0  0
   -0.4554    5.7458    0.2155 H   0  0  0  0  0  0  0  0  0  0  0  0
   -2.5971    3.9107   -2.7359 H   0  0  0  0  0  0  0  0  0  0  0  0
   -0.8569    3.6135   -2.6862 H   0  0  0  0  0  0  0  0  0  0  0  0
   -2.8809    2.7741   -0.5354 H   0  0  0  0  0  0  0  0  0  0  0  0
   -2.1617    1.6819   -1.7510 H   0  0  0  0  0  0  0  0  0  0  0  0
    3.6189    0.9211    1.9767 H   0  0  0  0  0  0  0  0  0  0  0  0
    5.8089   -0.0847    2.0402 H   0  0  0  0  0  0  0  0  0  0  0  0
  1  2  1  0
  2  3  1  0
  3  4  1  0
  4  5  1  0
  3  6  1  0
  6  7  2  0
  7  8  1  0
  8  9  2  0
  9 10  1  0
 10 11  2  3
 11 12  1  0
 12 13  1  0
 13 14  1  0
 14 15  1  0
 15 16  2  3
 16 17  1  0
 17 18  1  0
 18 19  2  0
 18 20  1  0
 20 21  1  0
 21 22  2  0
 22 23  1  0
 23 24  2  0
 23 25  1  0
 25 26  1  0
 25 27  1  0
 14 28  2  0
 28 29  1  0
 29 30  1  0
 30 31  1  0
 31 32  1  0
 32 33  1  0
 33 34  1  0
  9 35  1  0
 35 36  2  0
 36  6  1  0
 28 11  1  0
 34 29  1  0
 27 20  2  0
  1 37  1  0
  1 38  1  0
  1 39  1  0
  2 40  1  0
  2 41  1  0
  4 42  1  0
  4 43  1  0
  5 44  1  0
  5 45  1  0
  5 46  1  0
  7 47  1  0
  8 48  1  0
 10 49  1  0
 12 50  1  0
 12 51  1  0
 13 52  1  0
 13 53  1  0
 15 54  1  0
 17 55  1  0
 21 56  1  0
 22 57  1  0
 26 58  1  0
 26 59  1  0
 26 60  1  0
 27 61  1  0
 30 62  1  0
 30 63  1  0
 31 64  1  0
 31 65  1  0
 33 66  1  0
 33 67  1  0
 34 68  1  0
 34 69  1  0
 35 70  1  0
 36 71  1  0
M  END
$$$$
