
     RDKit          3D

 66 68  0  0  0  0  0  0  0  0999 V2000
   -4.5117   -2.6827    0.2261 C   0  0  0  0  0  0  0  0  0  0  0  0
   -3.6168   -2.5823    1.4575 C   0  0  0  0  0  0  0  0  0  0  0  0
   -2.2328   -3.0524    1.3016 N   0  0  0  0  0  0  0  0  0  0  0  0
   -2.1186   -4.5009    1.0538 C   0  0  0  0  0  0  0  0  0  0  0  0
   -2.6966   -5.3678    2.1679 C   0  0  0  0  0  0  0  0  0  0  0  0
   -1.4514   -2.3126    0.2882 C   0  0  0  0  0  0  0  0  0  0  0  0
   -1.3690   -0.7962    0.5422 C   0  0  0  0  0  0  0  0  0  0  0  0
   -0.4187   -0.0840   -0.4585 C   0  0  0  0  0  0  0  0  0  0  0  0
    1.0670   -0.4208   -0.3481 C   0  0  0  0  0  0  0  0  0  0  0  0
    1.8652   -0.3870   -1.4969 C   0  0  0  0  0  0  0  0  0  0  0  0
    3.2363   -0.6831   -1.4383 C   0  0  0  0  0  0  0  0  0  0  0  0
    3.8837   -1.0132   -0.2369 C   0  0  0  0  0  0  0  0  0  0  0  0
    5.2463   -1.3294   -0.1818 N   0  0  0  0  0  0  0  0  0  0  0  0
    6.0853   -1.0850   -1.3520 C   0  0  0  0  0  0  0  0  0  0  0  0
    5.9287   -1.2907    1.1099 C   0  0  0  0  0  0  0  0  0  0  0  0
    3.0628   -1.0479    0.9025 C   0  0  0  0  0  0  0  0  0  0  0  0
    1.6904   -0.7535    0.8551 C   0  0  0  0  0  0  0  0  0  0  0  0
   -0.6579    1.4320   -0.4985 C   0  0  0  0  0  0  0  0  0  0  0  0
   -0.5024    2.2541    0.6328 C   0  0  0  0  0  0  0  0  0  0  0  0
   -0.1683    1.6429    1.8133 O   0  0  0  0  0  0  0  0  0  0  0  0
    0.6312    2.4029    2.7147 C   0  0  0  0  0  0  0  0  0  0  0  0
   -0.7410    3.6364    0.5507 C   0  0  0  0  0  0  0  0  0  0  0  0
   -1.1021    4.2392   -0.6595 C   0  0  0  0  0  0  0  0  0  0  0  0
   -1.3440    5.5816   -0.8156 O   0  0  0  0  0  0  0  0  0  0  0  0
   -1.1550    6.4256    0.3128 C   0  0  0  0  0  0  0  0  0  0  0  0
   -1.2424    3.4424   -1.8053 C   0  0  0  0  0  0  0  0  0  0  0  0
   -1.6182    3.9965   -3.1050 C   0  0  0  0  0  0  0  0  0  0  0  0
   -1.7401    3.2057   -4.1740 C   0  0  0  0  0  0  0  0  0  0  0  0
   -1.5074    1.7585   -4.1032 C   0  0  0  0  0  0  0  0  0  0  0  0
   -1.6168    1.0510   -5.0969 O   0  0  0  0  0  0  0  0  0  0  0  0
   -1.1614    1.2506   -2.8610 O   0  0  0  0  0  0  0  0  0  0  0  0
   -1.0207    2.0631   -1.7056 C   0  0  0  0  0  0  0  0  0  0  0  0
   -4.6071   -3.7132   -0.1276 H   0  0  0  0  0  0  0  0  0  0  0  0
   -4.1399   -2.0645   -0.5966 H   0  0  0  0  0  0  0  0  0  0  0  0
   -5.5172   -2.3268    0.4728 H   0  0  0  0  0  0  0  0  0  0  0  0
   -4.0967   -3.1187    2.2853 H   0  0  0  0  0  0  0  0  0  0  0  0
   -3.6101   -1.5418    1.8025 H   0  0  0  0  0  0  0  0  0  0  0  0
   -2.5762   -4.7806    0.0971 H   0  0  0  0  0  0  0  0  0  0  0  0
   -1.0562   -4.7640    0.9768 H   0  0  0  0  0  0  0  0  0  0  0  0
   -2.4274   -6.4167    2.0025 H   0  0  0  0  0  0  0  0  0  0  0  0
   -3.7876   -5.3130    2.2022 H   0  0  0  0  0  0  0  0  0  0  0  0
   -2.2994   -5.0726    3.1443 H   0  0  0  0  0  0  0  0  0  0  0  0
   -0.4301   -2.7117    0.2941 H   0  0  0  0  0  0  0  0  0  0  0  0
   -1.8495   -2.4974   -0.7175 H   0  0  0  0  0  0  0  0  0  0  0  0
   -2.3694   -0.3615    0.4231 H   0  0  0  0  0  0  0  0  0  0  0  0
   -1.0757   -0.6202    1.5819 H   0  0  0  0  0  0  0  0  0  0  0  0
   -0.7264   -0.4954   -1.4293 H   0  0  0  0  0  0  0  0  0  0  0  0
    1.4286   -0.1339   -2.4612 H   0  0  0  0  0  0  0  0  0  0  0  0
    3.7824   -0.6444   -2.3756 H   0  0  0  0  0  0  0  0  0  0  0  0
    6.1103   -0.0192   -1.6027 H   0  0  0  0  0  0  0  0  0  0  0  0
    7.1178   -1.4075   -1.1755 H   0  0  0  0  0  0  0  0  0  0  0  0
    5.7371   -1.6595   -2.2171 H   0  0  0  0  0  0  0  0  0  0  0  0
    5.5275   -2.0474    1.7925 H   0  0  0  0  0  0  0  0  0  0  0  0
    6.9951   -1.5177    1.0041 H   0  0  0  0  0  0  0  0  0  0  0  0
    5.8486   -0.2995    1.5694 H   0  0  0  0  0  0  0  0  0  0  0  0
    3.4668   -1.3177    1.8729 H   0  0  0  0  0  0  0  0  0  0  0  0
    1.1269   -0.7952    1.7832 H   0  0  0  0  0  0  0  0  0  0  0  0
    1.0843    1.7062    3.4265 H   0  0  0  0  0  0  0  0  0  0  0  0
    0.0097    3.1023    3.2837 H   0  0  0  0  0  0  0  0  0  0  0  0
    1.4430    2.9287    2.1986 H   0  0  0  0  0  0  0  0  0  0  0  0
   -0.6611    4.2341    1.4500 H   0  0  0  0  0  0  0  0  0  0  0  0
   -1.8649    6.1811    1.1090 H   0  0  0  0  0  0  0  0  0  0  0  0
   -1.3512    7.4546   -0.0036 H   0  0  0  0  0  0  0  0  0  0  0  0
   -0.1227    6.3801    0.6745 H   0  0  0  0  0  0  0  0  0  0  0  0
   -1.7963    5.0638   -3.1868 H   0  0  0  0  0  0  0  0  0  0  0  0
   -2.0165    3.5961   -5.1454 H   0  0  0  0  0  0  0  0  0  0  0  0
  1  2  1  0
  2  3  1  0
  3  4  1  0
  4  5  1  0
  3  6  1  0
  6  7  1  0
  7  8  1  0
  8  9  1  0
  9 10  2  0
 10 11  1  0
 11 12  2  0
 12 13  1  0
 13 14  1  0
 13 15  1  0
 12 16  1  0
 16 17  2  0
  8 18  1  0
 18 19  2  0
 19 20  1  0
 20 21  1  0
 19 22  1  0
 22 23  2  0
 23 24  1  0
 24 25  1  0
 23 26  1  0
 26 27  1  0
 27 28  2  0
 28 29  1  0
 29 30  2  0
 29 31  1  0
 31 32  1  0
 17  9  1  0
 32 18  1  0
 32 26  2  0
  1 33  1  0
  1 34  1  0
  1 35  1  0
  2 36  1  0
  2 37  1  0
  4 38  1  0
  4 39  1  0
  5 40  1  0
  5 41  1  0
  5 42  1  0
  6 43  1  0
  6 44  1  0
  7 45  1  0
  7 46  1  0
  8 47  1  0
 10 48  1  0
 11 49  1  0
 14 50  1  0
 14 51  1  0
 14 52  1  0
 15 53  1  0
 15 54  1  0
 15 55  1  0
 16 56  1  0
 17 57  1  0
 21 58  1  0
 21 59  1  0
 21 60  1  0
 22 61  1  0
 25 62  1  0
 25 63  1  0
 25 64  1  0
 27 65  1  0
 28 66  1  0
M  END
$$$$
