
     RDKit          3D

 42 44  0  0  0  0  0  0  0  0999 V2000
    3.7719    0.6018    1.5135 C   0  0  0  0  0  0  0  0  0  0  0  0
    3.7089   -0.7924    0.8983 C   0  0  0  0  0  0  0  0  0  0  0  0
    5.0647   -1.4866    1.0056 C   0  0  0  0  0  0  0  0  0  0  0  0
    3.2431   -0.7094   -0.8725 S   0  0  0  0  0  0  0  0  0  0  0  0
    1.5071   -0.3437   -0.7094 C   0  0  0  0  0  0  0  0  0  0  0  0
    0.6090   -1.3546   -0.4407 C   0  0  0  0  0  0  0  0  0  0  0  0
   -0.7233   -1.0119   -0.3457 C   0  0  0  0  0  0  0  0  0  0  0  0
   -1.6965   -1.9504   -0.0943 N   0  0  0  0  0  0  0  0  0  0  0  0
   -1.4497   -3.2314    0.5571 C   0  0  0  0  0  0  0  0  0  0  0  0
   -2.7828   -3.5785    1.2213 C   0  0  0  0  0  0  0  0  0  0  0  0
   -3.8068   -2.8332    0.3803 C   0  0  0  0  0  0  0  0  0  0  0  0
   -3.0853   -1.5291    0.0554 C   0  0  0  0  0  0  0  0  0  0  0  0
   -1.1079    0.2612   -0.5391 N   0  0  0  0  0  0  0  0  0  0  0  0
   -0.1619    1.1864   -0.7894 C   0  0  0  0  0  0  0  0  0  0  0  0
   -0.6263    2.5503   -1.0628 C   0  0  0  0  0  0  0  0  0  0  0  0
   -1.6643    2.7440   -2.0011 C   0  0  0  0  0  0  0  0  0  0  0  0
   -2.1386    4.0192   -2.3196 C   0  0  0  0  0  0  0  0  0  0  0  0
   -1.5885    5.1357   -1.7015 C   0  0  0  0  0  0  0  0  0  0  0  0
   -0.5727    4.9736   -0.7612 C   0  0  0  0  0  0  0  0  0  0  0  0
   -0.0962    3.6938   -0.4397 C   0  0  0  0  0  0  0  0  0  0  0  0
    1.1179    3.6101    0.7927 Cl  0  0  0  0  0  0  0  0  0  0  0  0
    1.1474    0.9326   -0.8921 N   0  0  0  0  0  0  0  0  0  0  0  0
    2.7889    1.0811    1.5202 H   0  0  0  0  0  0  0  0  0  0  0  0
    4.1053    0.5438    2.5557 H   0  0  0  0  0  0  0  0  0  0  0  0
    4.4720    1.2537    0.9792 H   0  0  0  0  0  0  0  0  0  0  0  0
    2.9696   -1.3966    1.4357 H   0  0  0  0  0  0  0  0  0  0  0  0
    5.8529   -0.9280    0.4877 H   0  0  0  0  0  0  0  0  0  0  0  0
    5.0288   -2.4995    0.5891 H   0  0  0  0  0  0  0  0  0  0  0  0
    5.3634   -1.5786    2.0559 H   0  0  0  0  0  0  0  0  0  0  0  0
    0.9432   -2.3765   -0.3323 H   0  0  0  0  0  0  0  0  0  0  0  0
   -0.6576   -3.1854    1.3127 H   0  0  0  0  0  0  0  0  0  0  0  0
   -1.1843   -3.9829   -0.1946 H   0  0  0  0  0  0  0  0  0  0  0  0
   -2.9637   -4.6564    1.2573 H   0  0  0  0  0  0  0  0  0  0  0  0
   -2.7975   -3.1963    2.2493 H   0  0  0  0  0  0  0  0  0  0  0  0
   -4.0131   -3.3920   -0.5406 H   0  0  0  0  0  0  0  0  0  0  0  0
   -4.7521   -2.6707    0.9052 H   0  0  0  0  0  0  0  0  0  0  0  0
   -3.1904   -0.8224    0.8879 H   0  0  0  0  0  0  0  0  0  0  0  0
   -3.4856   -1.0769   -0.8582 H   0  0  0  0  0  0  0  0  0  0  0  0
   -2.1055    1.8799   -2.4979 H   0  0  0  0  0  0  0  0  0  0  0  0
   -2.9349    4.1350   -3.0508 H   0  0  0  0  0  0  0  0  0  0  0  0
   -1.9525    6.1306   -1.9449 H   0  0  0  0  0  0  0  0  0  0  0  0
   -0.1560    5.8508   -0.2717 H   0  0  0  0  0  0  0  0  0  0  0  0
  1  2  1  0
  2  3  1  0
  2  4  1  0
  4  5  1  0
  5  6  2  0
  6  7  1  0
  7  8  1  0
  8  9  1  0
  9 10  1  0
 10 11  1  0
 11 12  1  0
  7 13  2  0
 13 14  1  0
 14 15  1  0
 15 16  2  0
 16 17  1  0
 17 18  2  0
 18 19  1  0
 19 20  2  0
 20 21  1  0
 14 22  2  0
 22  5  1  0
 12  8  1  0
 20 15  1  0
  1 23  1  0
  1 24  1  0
  1 25  1  0
  2 26  1  0
  3 27  1  0
  3 28  1  0
  3 29  1  0
  6 30  1  0
  9 31  1  0
  9 32  1  0
 10 33  1  0
 10 34  1  0
 11 35  1  0
 11 36  1  0
 12 37  1  0
 12 38  1  0
 16 39  1  0
 17 40  1  0
 18 41  1  0
 19 42  1  0
M  END
$$$$
