
     RDKit          3D

 55 58  0  0  0  0  0  0  0  0999 V2000
    7.5226    1.3280   -0.8968 C   0  0  0  0  0  0  0  0  0  0  0  0
    6.1194    1.4987   -0.7400 O   0  0  0  0  0  0  0  0  0  0  0  0
    5.3491    0.3682   -0.6659 C   0  0  0  0  0  0  0  0  0  0  0  0
    5.8512   -0.9379   -0.7041 C   0  0  0  0  0  0  0  0  0  0  0  0
    4.9900   -2.0344   -0.6083 C   0  0  0  0  0  0  0  0  0  0  0  0
    3.6205   -1.8380   -0.4698 C   0  0  0  0  0  0  0  0  0  0  0  0
    3.1092   -0.5429   -0.4319 C   0  0  0  0  0  0  0  0  0  0  0  0
    3.9630    0.5715   -0.5369 C   0  0  0  0  0  0  0  0  0  0  0  0
    3.3571    1.9546   -0.4747 C   0  0  0  0  0  0  0  0  0  0  0  0
    2.9667    2.2846    0.8917 N   0  0  0  0  0  0  0  0  0  0  0  0
    1.7157    3.3573    1.1378 S   0  0  0  0  0  6  0  0  0  0  0  0
    1.7459    4.3364    0.0738 O   0  0  0  0  0  0  0  0  0  0  0  0
    1.7566    3.7405    2.5308 O   0  0  0  0  0  0  0  0  0  0  0  0
    0.2987    2.3110    0.9137 C   0  0  0  0  0  0  0  0  0  0  0  0
    0.0635    1.2777    1.8357 C   0  0  0  0  0  0  0  0  0  0  0  0
   -1.0334    0.4245    1.6709 C   0  0  0  0  0  0  0  0  0  0  0  0
   -1.8746    0.6188    0.5855 C   0  0  0  0  0  0  0  0  0  0  0  0
   -1.6369    1.6609   -0.3158 C   0  0  0  0  0  0  0  0  0  0  0  0
   -0.5591    2.5224   -0.1682 C   0  0  0  0  0  0  0  0  0  0  0  0
   -2.7130    1.7375   -1.3502 C   0  0  0  0  0  0  0  0  0  0  0  0
   -3.4637    0.4067   -1.1260 C   0  0  0  0  0  0  0  0  0  0  0  0
   -3.1344   -0.5867   -2.2447 C   0  0  0  0  0  0  0  0  0  0  0  0
   -3.0263   -0.1062    0.2003 N   0  0  0  0  0  0  0  0  0  0  0  0
   -3.6005   -1.1465    0.9327 C   0  0  0  0  0  0  0  0  0  0  0  0
   -3.1146   -1.5579    1.9955 O   0  0  0  0  0  0  0  0  0  0  0  0
   -4.9151   -1.7803    0.3697 C   0  0  0  0  0  0  0  0  0  0  0  0
   -4.8199   -3.2354   -0.1648 C   0  0  0  0  0  0  0  0  0  0  0  0
   -5.3544   -3.7248    1.1914 C   0  0  0  0  0  0  0  0  0  0  0  0
   -5.9414   -2.3198    1.4063 C   0  0  0  0  0  0  0  0  0  0  0  0
    7.9759    2.3219   -0.9553 H   0  0  0  0  0  0  0  0  0  0  0  0
    7.7550    0.8024   -1.8285 H   0  0  0  0  0  0  0  0  0  0  0  0
    7.9564    0.8151   -0.0320 H   0  0  0  0  0  0  0  0  0  0  0  0
    6.9125   -1.1406   -0.8034 H   0  0  0  0  0  0  0  0  0  0  0  0
    5.3928   -3.0440   -0.6359 H   0  0  0  0  0  0  0  0  0  0  0  0
    2.9511   -2.6902   -0.3861 H   0  0  0  0  0  0  0  0  0  0  0  0
    2.0366   -0.4003   -0.3127 H   0  0  0  0  0  0  0  0  0  0  0  0
    4.0537    2.7151   -0.8412 H   0  0  0  0  0  0  0  0  0  0  0  0
    2.4927    1.9741   -1.1491 H   0  0  0  0  0  0  0  0  0  0  0  0
    3.6910    2.2925    1.6063 H   0  0  0  0  0  0  0  0  0  0  0  0
    0.7336    1.1329    2.6810 H   0  0  0  0  0  0  0  0  0  0  0  0
   -1.1948   -0.3707    2.3904 H   0  0  0  0  0  0  0  0  0  0  0  0
   -0.3953    3.3360   -0.8690 H   0  0  0  0  0  0  0  0  0  0  0  0
   -3.3676    2.5882   -1.1292 H   0  0  0  0  0  0  0  0  0  0  0  0
   -2.3116    1.8408   -2.3629 H   0  0  0  0  0  0  0  0  0  0  0  0
   -4.5422    0.5950   -1.1136 H   0  0  0  0  0  0  0  0  0  0  0  0
   -2.0635   -0.8183   -2.2707 H   0  0  0  0  0  0  0  0  0  0  0  0
   -3.4187   -0.1773   -3.2199 H   0  0  0  0  0  0  0  0  0  0  0  0
   -3.6681   -1.5313   -2.1154 H   0  0  0  0  0  0  0  0  0  0  0  0
   -5.4308   -1.1234   -0.3378 H   0  0  0  0  0  0  0  0  0  0  0  0
   -5.4935   -3.4365   -1.0058 H   0  0  0  0  0  0  0  0  0  0  0  0
   -3.8183   -3.5898   -0.4242 H   0  0  0  0  0  0  0  0  0  0  0  0
   -6.0808   -4.5402    1.1482 H   0  0  0  0  0  0  0  0  0  0  0  0
   -4.5670   -3.9888    1.9061 H   0  0  0  0  0  0  0  0  0  0  0  0
   -6.9837   -2.2228    1.0798 H   0  0  0  0  0  0  0  0  0  0  0  0
   -5.8574   -1.9282    2.4236 H   0  0  0  0  0  0  0  0  0  0  0  0
  1  2  1  0
  2  3  1  0
  3  4  2  0
  4  5  1  0
  5  6  2  0
  6  7  1  0
  7  8  2  0
  8  9  1  0
  9 10  1  0
 10 11  1  0
 11 12  2  0
 11 13  2  0
 11 14  1  0
 14 15  2  0
 15 16  1  0
 16 17  2  0
 17 18  1  0
 18 19  2  0
 18 20  1  0
 20 21  1  0
 21 22  1  0
 21 23  1  0
 23 24  1  0
 24 25  2  0
 24 26  1  0
 26 27  1  0
 27 28  1  0
 28 29  1  0
  8  3  1  0
 19 14  1  0
 29 26  1  0
 23 17  1  0
  1 30  1  0
  1 31  1  0
  1 32  1  0
  4 33  1  0
  5 34  1  0
  6 35  1  0
  7 36  1  0
  9 37  1  0
  9 38  1  0
 10 39  1  0
 15 40  1  0
 16 41  1  0
 19 42  1  0
 20 43  1  0
 20 44  1  0
 21 45  1  0
 22 46  1  0
 22 47  1  0
 22 48  1  0
 26 49  1  0
 27 50  1  0
 27 51  1  0
 28 52  1  0
 28 53  1  0
 29 54  1  0
 29 55  1  0
M  END
$$$$
