
     RDKit          3D

 50 51  0  0  0  0  0  0  0  0999 V2000
    8.2280   -2.3098   -1.3477 C   0  0  0  0  0  0  0  0  0  0  0  0
    6.9999   -1.9441   -0.7167 O   0  0  0  0  0  0  0  0  0  0  0  0
    6.9436   -0.6422   -0.3370 C   0  0  0  0  0  0  0  0  0  0  0  0
    7.8251    0.1865   -0.4995 O   0  0  0  0  0  0  0  0  0  0  0  0
    5.6416   -0.3419    0.3186 C   0  0  0  0  0  0  0  0  0  0  0  0
    5.4215    0.9587    0.7886 C   0  0  0  0  0  0  0  0  0  0  0  0
    4.2146    1.2895    1.4104 C   0  0  0  0  0  0  0  0  0  0  0  0
    3.2115    0.3244    1.5777 C   0  0  0  0  0  0  0  0  0  0  0  0
    1.9046    0.6955    2.2305 C   0  0  0  0  0  0  0  0  0  0  0  0
    1.0162    1.3129    1.2755 N   0  0  0  0  0  0  0  0  0  0  0  0
    0.8371    2.6781    1.2150 C   0  0  0  0  0  0  0  0  0  0  0  0
    1.3739    3.4667    1.9884 O   0  0  0  0  0  0  0  0  0  0  0  0
   -0.0406    3.1473    0.0520 C   0  0  0  0  0  0  0  0  0  0  0  0
   -0.8421    2.1139   -0.5286 O   0  0  0  0  0  0  0  0  0  0  0  0
   -2.0104    1.8625    0.1302 C   0  0  0  0  0  0  0  0  0  0  0  0
   -2.3810    2.4312    1.1452 O   0  0  0  0  0  0  0  0  0  0  0  0
   -2.7583    0.7628   -0.5872 C   0  0  0  0  0  0  0  0  0  0  0  0
   -4.0678    0.4069    0.1166 C   0  0  0  0  0  0  0  0  0  0  0  0
   -4.7720   -0.7884   -0.5266 C   0  0  0  0  0  0  0  0  0  0  0  0
   -5.2368   -0.5523   -1.9612 C   0  0  0  0  0  0  0  0  0  0  0  0
   -6.2279   -1.6831   -2.2011 C   0  0  0  0  0  0  0  0  0  0  0  0
   -6.8599   -1.9751   -0.8409 C   0  0  0  0  0  0  0  0  0  0  0  0
   -6.0771   -1.1533    0.1806 C   0  0  0  0  0  0  0  0  0  0  0  0
    3.4305   -0.9740    1.0979 C   0  0  0  0  0  0  0  0  0  0  0  0
    4.6381   -1.3070    0.4759 C   0  0  0  0  0  0  0  0  0  0  0  0
    8.3909   -1.7130   -2.2505 H   0  0  0  0  0  0  0  0  0  0  0  0
    9.0634   -2.1948   -0.6503 H   0  0  0  0  0  0  0  0  0  0  0  0
    8.1604   -3.3622   -1.6368 H   0  0  0  0  0  0  0  0  0  0  0  0
    6.1881    1.7228    0.6723 H   0  0  0  0  0  0  0  0  0  0  0  0
    4.0574    2.3078    1.7651 H   0  0  0  0  0  0  0  0  0  0  0  0
    2.0809    1.3562    3.0865 H   0  0  0  0  0  0  0  0  0  0  0  0
    1.4007   -0.2001    2.6109 H   0  0  0  0  0  0  0  0  0  0  0  0
    0.6927    0.7600    0.4927 H   0  0  0  0  0  0  0  0  0  0  0  0
   -0.6608    3.9896    0.3797 H   0  0  0  0  0  0  0  0  0  0  0  0
    0.6289    3.5146   -0.7330 H   0  0  0  0  0  0  0  0  0  0  0  0
   -2.1087   -0.1189   -0.6241 H   0  0  0  0  0  0  0  0  0  0  0  0
   -2.9593    1.1032   -1.6083 H   0  0  0  0  0  0  0  0  0  0  0  0
   -4.7302    1.2821    0.1189 H   0  0  0  0  0  0  0  0  0  0  0  0
   -3.8643    0.1734    1.1697 H   0  0  0  0  0  0  0  0  0  0  0  0
   -4.1021   -1.6587   -0.5037 H   0  0  0  0  0  0  0  0  0  0  0  0
   -5.7424    0.4161   -2.0548 H   0  0  0  0  0  0  0  0  0  0  0  0
   -4.4137   -0.5779   -2.6813 H   0  0  0  0  0  0  0  0  0  0  0  0
   -6.9748   -1.4188   -2.9555 H   0  0  0  0  0  0  0  0  0  0  0  0
   -5.6985   -2.5737   -2.5590 H   0  0  0  0  0  0  0  0  0  0  0  0
   -6.7953   -3.0450   -0.6149 H   0  0  0  0  0  0  0  0  0  0  0  0
   -7.9205   -1.7021   -0.8252 H   0  0  0  0  0  0  0  0  0  0  0  0
   -5.9037   -1.7121    1.1058 H   0  0  0  0  0  0  0  0  0  0  0  0
   -6.6465   -0.2516    0.4378 H   0  0  0  0  0  0  0  0  0  0  0  0
    2.6641   -1.7386    1.2081 H   0  0  0  0  0  0  0  0  0  0  0  0
    4.7814   -2.3239    0.1188 H   0  0  0  0  0  0  0  0  0  0  0  0
  1  2  1  0
  2  3  1  0
  3  4  2  0
  3  5  1  0
  5  6  2  0
  6  7  1  0
  7  8  2  0
  8  9  1  0
  9 10  1  0
 10 11  1  0
 11 12  2  0
 11 13  1  0
 13 14  1  0
 14 15  1  0
 15 16  2  0
 15 17  1  0
 17 18  1  0
 18 19  1  0
 19 20  1  0
 20 21  1  0
 21 22  1  0
 22 23  1  0
  8 24  1  0
 24 25  2  0
 25  5  1  0
 23 19  1  0
  1 26  1  0
  1 27  1  0
  1 28  1  0
  6 29  1  0
  7 30  1  0
  9 31  1  0
  9 32  1  0
 10 33  1  0
 13 34  1  0
 13 35  1  0
 17 36  1  0
 17 37  1  0
 18 38  1  0
 18 39  1  0
 19 40  1  0
 20 41  1  0
 20 42  1  0
 21 43  1  0
 21 44  1  0
 22 45  1  0
 22 46  1  0
 23 47  1  0
 23 48  1  0
 24 49  1  0
 25 50  1  0
M  END
$$$$
