
     RDKit          3D

 36 37  0  0  0  0  0  0  0  0999 V2000
    1.4300    1.2011    2.0020 C   0  0  0  0  0  0  0  0  0  0  0  0
    1.1719    0.4664    0.6846 C   0  0  0  0  0  0  0  0  0  0  0  0
   -0.1799    0.7798    0.2157 N   0  0  0  0  0  0  0  0  0  0  0  0
   -1.2084    0.1463    0.6492 C   0  0  0  0  0  0  0  0  0  0  0  0
   -2.5484    0.5845    0.0603 C   0  0  0  0  0  0  0  0  0  0  0  0
   -3.1715   -0.4542   -0.8773 C   0  0  0  0  0  0  0  0  0  0  0  0
   -2.6357   -1.8832   -0.7707 C   0  0  0  0  0  0  0  0  0  0  0  0
   -2.7751   -2.5506    0.6011 C   0  0  0  0  0  0  0  0  0  0  0  0
   -2.4082   -1.6964    1.8113 C   0  0  0  0  0  0  0  0  0  0  0  0
   -1.2366   -0.8817    1.5651 N   0  0  0  0  0  0  0  0  0  0  0  0
    2.2241    0.8701   -0.3392 C   0  0  0  0  0  0  0  0  0  0  0  0
    2.0871    2.0397   -1.1028 C   0  0  0  0  0  0  0  0  0  0  0  0
    3.0726    2.4152   -2.0175 C   0  0  0  0  0  0  0  0  0  0  0  0
    4.2117    1.6291   -2.1770 C   0  0  0  0  0  0  0  0  0  0  0  0
    4.3647    0.4667   -1.4242 C   0  0  0  0  0  0  0  0  0  0  0  0
    3.3793    0.0904   -0.5087 C   0  0  0  0  0  0  0  0  0  0  0  0
    1.3263    2.2864    1.8831 H   0  0  0  0  0  0  0  0  0  0  0  0
    0.7190    0.8886    2.7739 H   0  0  0  0  0  0  0  0  0  0  0  0
    2.4402    1.0011    2.3770 H   0  0  0  0  0  0  0  0  0  0  0  0
    1.2780   -0.6142    0.8418 H   0  0  0  0  0  0  0  0  0  0  0  0
   -3.2328    0.8012    0.8889 H   0  0  0  0  0  0  0  0  0  0  0  0
   -2.4229    1.5325   -0.4773 H   0  0  0  0  0  0  0  0  0  0  0  0
   -4.2586   -0.4575   -0.7287 H   0  0  0  0  0  0  0  0  0  0  0  0
   -3.0149   -0.1180   -1.9108 H   0  0  0  0  0  0  0  0  0  0  0  0
   -3.1532   -2.5078   -1.5104 H   0  0  0  0  0  0  0  0  0  0  0  0
   -1.5795   -1.8942   -1.0710 H   0  0  0  0  0  0  0  0  0  0  0  0
   -2.1474   -3.4508    0.5983 H   0  0  0  0  0  0  0  0  0  0  0  0
   -3.8063   -2.9030    0.7289 H   0  0  0  0  0  0  0  0  0  0  0  0
   -2.2153   -2.3500    2.6698 H   0  0  0  0  0  0  0  0  0  0  0  0
   -3.2552   -1.0663    2.1043 H   0  0  0  0  0  0  0  0  0  0  0  0
   -0.3542   -1.3101    1.8106 H   0  0  0  0  0  0  0  0  0  0  0  0
    1.2008    2.6601   -0.9873 H   0  0  0  0  0  0  0  0  0  0  0  0
    2.9479    3.3214   -2.6043 H   0  0  0  0  0  0  0  0  0  0  0  0
    4.9782    1.9216   -2.8892 H   0  0  0  0  0  0  0  0  0  0  0  0
    5.2532   -0.1471   -1.5480 H   0  0  0  0  0  0  0  0  0  0  0  0
    3.5191   -0.8172    0.0738 H   0  0  0  0  0  0  0  0  0  0  0  0
  1  2  1  0
  2  3  1  0
  3  4  2  3
  4  5  1  0
  5  6  1  0
  6  7  1  0
  7  8  1  0
  8  9  1  0
  9 10  1  0
  2 11  1  0
 11 12  2  0
 12 13  1  0
 13 14  2  0
 14 15  1  0
 15 16  2  0
 10  4  1  0
 16 11  1  0
  1 17  1  0
  1 18  1  0
  1 19  1  0
  2 20  1  0
  5 21  1  0
  5 22  1  0
  6 23  1  0
  6 24  1  0
  7 25  1  0
  7 26  1  0
  8 27  1  0
  8 28  1  0
  9 29  1  0
  9 30  1  0
 10 31  1  0
 12 32  1  0
 13 33  1  0
 14 34  1  0
 15 35  1  0
 16 36  1  0
M  END
$$$$
