
     RDKit          3D

 61 63  0  0  0  0  0  0  0  0999 V2000
    8.0649    1.9445    0.3689 C   0  0  0  0  0  0  0  0  0  0  0  0
    7.0090    1.0184   -0.0006 N   0  0  0  0  0  0  0  0  0  0  0  0
    5.7108    1.4995    0.0152 C   0  0  0  0  0  0  0  0  0  0  0  0
    5.3933    2.6318    0.3781 O   0  0  0  0  0  0  0  0  0  0  0  0
    4.6555    0.5698   -0.4135 C   0  0  0  0  0  0  0  0  0  0  0  0
    3.3368    1.0339   -0.5308 C   0  0  0  0  0  0  0  0  0  0  0  0
    2.3296    0.1479   -0.9118 C   0  0  0  0  0  0  0  0  0  0  0  0
    0.6650    0.7410   -1.0404 S   0  0  0  0  0  6  0  0  0  0  0  0
   -0.1989   -0.3687   -1.3809 O   0  0  0  0  0  0  0  0  0  0  0  0
    0.6955    1.9443   -1.8397 O   0  0  0  0  0  0  0  0  0  0  0  0
    0.2932    1.2024    0.5224 N   0  0  0  0  0  0  0  0  0  0  0  0
    0.4580    0.3340    1.6990 C   0  0  0  0  0  0  0  0  0  0  0  0
   -0.2308   -1.0186    1.6298 C   0  0  0  0  0  0  0  0  0  0  0  0
   -1.7323   -0.8780    1.6945 C   0  0  0  0  0  0  0  0  0  0  0  0
   -2.3289   -0.8196    2.7665 O   0  0  0  0  0  0  0  0  0  0  0  0
   -2.3460   -0.8150    0.4649 N   0  0  0  0  0  0  0  0  0  0  0  0
   -3.7774   -0.5477    0.3201 C   0  0  0  0  0  0  0  0  0  0  0  0
   -4.0466    0.9577    0.5070 C   0  0  0  0  0  0  0  0  0  0  0  0
   -5.2574    1.2891    1.3826 C   0  0  0  0  0  0  0  0  0  0  0  0
   -6.5477    0.5130    1.1356 C   0  0  0  0  0  0  0  0  0  0  0  0
   -7.1945    0.7015   -0.2334 C   0  0  0  0  0  0  0  0  0  0  0  0
   -6.4167    0.2237   -1.4604 C   0  0  0  0  0  0  0  0  0  0  0  0
   -5.7354   -1.1370   -1.3132 C   0  0  0  0  0  0  0  0  0  0  0  0
   -4.2269   -1.0799   -1.0515 C   0  0  0  0  0  0  0  0  0  0  0  0
    2.6328   -1.1815   -1.1988 C   0  0  0  0  0  0  0  0  0  0  0  0
    3.9551   -1.6294   -1.0845 C   0  0  0  0  0  0  0  0  0  0  0  0
    4.9842   -0.7596   -0.6827 C   0  0  0  0  0  0  0  0  0  0  0  0
    6.3296   -1.1896   -0.5346 N   0  0  0  0  0  0  0  0  0  0  0  0
    6.6753   -2.5868   -0.7710 C   0  0  0  0  0  0  0  0  0  0  0  0
    7.3625   -0.3083   -0.2128 C   0  0  0  0  0  0  0  0  0  0  0  0
    8.5324   -0.6880   -0.1134 O   0  0  0  0  0  0  0  0  0  0  0  0
    7.8074    2.9681    0.0821 H   0  0  0  0  0  0  0  0  0  0  0  0
    8.1937    1.9030    1.4553 H   0  0  0  0  0  0  0  0  0  0  0  0
    9.0113    1.6770   -0.1096 H   0  0  0  0  0  0  0  0  0  0  0  0
    3.1045    2.0782   -0.3283 H   0  0  0  0  0  0  0  0  0  0  0  0
    0.3772    2.2087    0.6769 H   0  0  0  0  0  0  0  0  0  0  0  0
    0.0786    0.8890    2.5652 H   0  0  0  0  0  0  0  0  0  0  0  0
    1.5296    0.1943    1.8781 H   0  0  0  0  0  0  0  0  0  0  0  0
    0.0689   -1.6164    2.5007 H   0  0  0  0  0  0  0  0  0  0  0  0
    0.0634   -1.6022    0.7540 H   0  0  0  0  0  0  0  0  0  0  0  0
   -1.7508   -0.6796   -0.3541 H   0  0  0  0  0  0  0  0  0  0  0  0
   -4.2704   -1.1241    1.1107 H   0  0  0  0  0  0  0  0  0  0  0  0
   -3.1837    1.4402    0.9864 H   0  0  0  0  0  0  0  0  0  0  0  0
   -4.1278    1.4641   -0.4599 H   0  0  0  0  0  0  0  0  0  0  0  0
   -5.4620    2.3651    1.3059 H   0  0  0  0  0  0  0  0  0  0  0  0
   -4.9692    1.1140    2.4278 H   0  0  0  0  0  0  0  0  0  0  0  0
   -6.4032   -0.5510    1.3481 H   0  0  0  0  0  0  0  0  0  0  0  0
   -7.2750    0.8505    1.8866 H   0  0  0  0  0  0  0  0  0  0  0  0
   -8.1532    0.1648   -0.2165 H   0  0  0  0  0  0  0  0  0  0  0  0
   -7.4502    1.7599   -0.3717 H   0  0  0  0  0  0  0  0  0  0  0  0
   -7.1417    0.1509   -2.2830 H   0  0  0  0  0  0  0  0  0  0  0  0
   -5.7070    0.9895   -1.7876 H   0  0  0  0  0  0  0  0  0  0  0  0
   -5.8639   -1.6692   -2.2660 H   0  0  0  0  0  0  0  0  0  0  0  0
   -6.2358   -1.7585   -0.5628 H   0  0  0  0  0  0  0  0  0  0  0  0
   -3.8456   -2.1049   -1.1592 H   0  0  0  0  0  0  0  0  0  0  0  0
   -3.7393   -0.5044   -1.8501 H   0  0  0  0  0  0  0  0  0  0  0  0
    1.8573   -1.8775   -1.5154 H   0  0  0  0  0  0  0  0  0  0  0  0
    4.1495   -2.6722   -1.3240 H   0  0  0  0  0  0  0  0  0  0  0  0
    6.0083   -3.2388   -0.2013 H   0  0  0  0  0  0  0  0  0  0  0  0
    7.6961   -2.8177   -0.4580 H   0  0  0  0  0  0  0  0  0  0  0  0
    6.5889   -2.7968   -1.8410 H   0  0  0  0  0  0  0  0  0  0  0  0
  1  2  1  0
  2  3  1  0
  3  4  2  0
  3  5  1  0
  5  6  2  0
  6  7  1  0
  7  8  1  0
  8  9  2  0
  8 10  2  0
  8 11  1  0
 11 12  1  0
 12 13  1  0
 13 14  1  0
 14 15  2  0
 14 16  1  0
 16 17  1  0
 17 18  1  0
 18 19  1  0
 19 20  1  0
 20 21  1  0
 21 22  1  0
 22 23  1  0
 23 24  1  0
  7 25  2  0
 25 26  1  0
 26 27  2  0
 27 28  1  0
 28 29  1  0
 28 30  1  0
 30 31  2  0
 30  2  1  0
 27  5  1  0
 24 17  1  0
  1 32  1  0
  1 33  1  0
  1 34  1  0
  6 35  1  0
 11 36  1  0
 12 37  1  0
 12 38  1  0
 13 39  1  0
 13 40  1  0
 16 41  1  0
 17 42  1  0
 18 43  1  0
 18 44  1  0
 19 45  1  0
 19 46  1  0
 20 47  1  0
 20 48  1  0
 21 49  1  0
 21 50  1  0
 22 51  1  0
 22 52  1  0
 23 53  1  0
 23 54  1  0
 24 55  1  0
 24 56  1  0
 25 57  1  0
 26 58  1  0
 29 59  1  0
 29 60  1  0
 29 61  1  0
M  END
$$$$
