
     RDKit          3D

 45 47  0  0  0  0  0  0  0  0999 V2000
   -0.3469    3.3882    0.7003 C   0  0  0  0  0  0  0  0  0  0  0  0
    0.3416    2.1311    0.2814 C   0  0  0  0  0  0  0  0  0  0  0  0
   -0.2614    1.0563   -0.2478 C   0  0  0  0  0  0  0  0  0  0  0  0
   -1.5830    0.7592   -0.5428 N   0  0  0  0  0  0  0  0  0  0  0  0
   -2.2992   -0.1680    0.3612 C   0  0  0  0  0  0  0  0  0  0  0  0
   -3.1373    0.6457    1.3517 C   0  0  0  0  0  0  0  0  0  0  0  0
   -3.1017   -1.1491   -0.4762 C   0  0  0  0  0  0  0  0  0  0  0  0
   -4.3586   -0.7989   -1.0031 C   0  0  0  0  0  0  0  0  0  0  0  0
   -5.1068   -1.7106   -1.7536 C   0  0  0  0  0  0  0  0  0  0  0  0
   -4.6094   -2.9873   -1.9982 C   0  0  0  0  0  0  0  0  0  0  0  0
   -3.3558   -3.3449   -1.5099 C   0  0  0  0  0  0  0  0  0  0  0  0
   -2.6047   -2.4264   -0.7778 C   0  0  0  0  0  0  0  0  0  0  0  0
   -1.3696   -2.8499   -0.3739 O   0  0  0  0  0  0  0  0  0  0  0  0
    0.8455    0.0683   -0.5006 C   0  0  0  0  0  0  0  0  0  0  0  0
    0.6124   -1.0596   -0.9186 O   0  0  0  0  0  0  0  0  0  0  0  0
    2.0319    0.6775   -0.0809 N   0  0  0  0  0  0  0  0  0  0  0  0
    3.1987   -0.0147    0.3369 C   0  0  0  0  0  0  0  0  0  0  0  0
    3.5298   -1.2590   -0.2173 C   0  0  0  0  0  0  0  0  0  0  0  0
    4.6797   -1.9454    0.1873 C   0  0  0  0  0  0  0  0  0  0  0  0
    5.5152   -1.3992    1.1569 C   0  0  0  0  0  0  0  0  0  0  0  0
    5.1999   -0.1685    1.7244 C   0  0  0  0  0  0  0  0  0  0  0  0
    4.0506    0.5167    1.3175 C   0  0  0  0  0  0  0  0  0  0  0  0
    1.7352    1.9939    0.3895 N   0  0  0  0  0  0  0  0  0  0  0  0
    2.5759    3.0408   -0.2167 C   0  0  0  0  0  0  0  0  0  0  0  0
   -0.0428    4.2273    0.0669 H   0  0  0  0  0  0  0  0  0  0  0  0
   -1.4360    3.3018    0.6330 H   0  0  0  0  0  0  0  0  0  0  0  0
   -0.0975    3.6285    1.7389 H   0  0  0  0  0  0  0  0  0  0  0  0
   -1.5684    0.2987   -1.4585 H   0  0  0  0  0  0  0  0  0  0  0  0
   -1.5828   -0.7392    0.9667 H   0  0  0  0  0  0  0  0  0  0  0  0
   -3.7962    1.3614    0.8483 H   0  0  0  0  0  0  0  0  0  0  0  0
   -2.4871    1.2268    2.0154 H   0  0  0  0  0  0  0  0  0  0  0  0
   -3.7548   -0.0087    1.9764 H   0  0  0  0  0  0  0  0  0  0  0  0
   -4.7715    0.1933   -0.8361 H   0  0  0  0  0  0  0  0  0  0  0  0
   -6.0794   -1.4226   -2.1445 H   0  0  0  0  0  0  0  0  0  0  0  0
   -5.1913   -3.7004   -2.5756 H   0  0  0  0  0  0  0  0  0  0  0  0
   -2.9541   -4.3347   -1.7091 H   0  0  0  0  0  0  0  0  0  0  0  0
   -0.7047   -2.1593   -0.5943 H   0  0  0  0  0  0  0  0  0  0  0  0
    2.9116   -1.7127   -0.9878 H   0  0  0  0  0  0  0  0  0  0  0  0
    4.9182   -2.9080   -0.2582 H   0  0  0  0  0  0  0  0  0  0  0  0
    6.4060   -1.9351    1.4737 H   0  0  0  0  0  0  0  0  0  0  0  0
    5.8411    0.2567    2.4922 H   0  0  0  0  0  0  0  0  0  0  0  0
    3.8148    1.4576    1.8066 H   0  0  0  0  0  0  0  0  0  0  0  0
    2.3304    3.1722   -1.2770 H   0  0  0  0  0  0  0  0  0  0  0  0
    2.4211    3.9943    0.2993 H   0  0  0  0  0  0  0  0  0  0  0  0
    3.6416    2.8060   -0.1442 H   0  0  0  0  0  0  0  0  0  0  0  0
  1  2  1  0
  2  3  2  0
  3  4  1  0
  4  5  1  0
  5  6  1  0
  5  7  1  0
  7  8  2  0
  8  9  1  0
  9 10  2  0
 10 11  1  0
 11 12  2  0
 12 13  1  0
  3 14  1  0
 14 15  2  0
 14 16  1  0
 16 17  1  0
 17 18  2  0
 18 19  1  0
 19 20  2  0
 20 21  1  0
 21 22  2  0
 16 23  1  0
 23 24  1  0
 23  2  1  0
 12  7  1  0
 22 17  1  0
  1 25  1  0
  1 26  1  0
  1 27  1  0
  4 28  1  0
  5 29  1  0
  6 30  1  0
  6 31  1  0
  6 32  1  0
  8 33  1  0
  9 34  1  0
 10 35  1  0
 11 36  1  0
 13 37  1  0
 18 38  1  0
 19 39  1  0
 20 40  1  0
 21 41  1  0
 22 42  1  0
 24 43  1  0
 24 44  1  0
 24 45  1  0
M  END
$$$$
