
     RDKit          3D

 59 62  0  0  0  0  0  0  0  0999 V2000
    2.5336   -0.6695   -2.1019 O   0  0  0  0  0  0  0  0  0  0  0  0
    1.5823   -0.5938   -1.3268 C   0  0  0  0  0  0  0  0  0  0  0  0
    0.3410   -0.8925   -1.8008 N   0  0  0  0  0  0  0  0  0  0  0  0
   -0.7897   -0.3450   -1.2781 C   0  0  0  0  0  0  0  0  0  0  0  0
   -1.7142    0.0173   -1.9992 O   0  0  0  0  0  0  0  0  0  0  0  0
   -0.7951   -0.2483    0.2299 C   0  0  0  0  0  0  0  0  0  0  0  0
   -1.9513    0.6645    0.7209 C   0  0  0  0  0  0  0  0  0  0  0  0
   -1.8406    2.1391    0.2914 C   0  0  0  0  0  0  0  0  0  0  0  0
   -3.0389    2.9287    0.7548 C   0  0  0  0  0  0  0  0  0  0  0  0
   -4.1685    3.0532   -0.0573 C   0  0  0  0  0  0  0  0  0  0  0  0
   -5.2536    3.7712    0.4213 C   0  0  0  0  0  0  0  0  0  0  0  0
   -5.2903    4.3592    1.6362 N   0  0  0  0  0  0  0  0  0  0  0  0
   -4.1895    4.2229    2.4062 C   0  0  0  0  0  0  0  0  0  0  0  0
   -3.0561    3.5255    2.0176 C   0  0  0  0  0  0  0  0  0  0  0  0
   -0.9250   -1.6712    0.8693 C   0  0  0  0  0  0  0  0  0  0  0  0
   -2.1621   -2.5078    0.5002 C   0  0  0  0  0  0  0  0  0  0  0  0
   -2.0619   -3.2080   -0.8308 C   0  0  0  0  0  0  0  0  0  0  0  0
   -1.1150   -4.2144   -1.0454 C   0  0  0  0  0  0  0  0  0  0  0  0
   -1.0483   -4.8132   -2.2942 C   0  0  0  0  0  0  0  0  0  0  0  0
   -1.8487   -4.4825   -3.3282 N   0  0  0  0  0  0  0  0  0  0  0  0
   -2.7709   -3.5244   -3.0969 C   0  0  0  0  0  0  0  0  0  0  0  0
   -2.9185   -2.8731   -1.8820 C   0  0  0  0  0  0  0  0  0  0  0  0
    0.5560    0.2722    0.7116 C   0  0  0  0  0  0  0  0  0  0  0  0
    0.6413    0.9578    1.7323 O   0  0  0  0  0  0  0  0  0  0  0  0
    1.6720   -0.1454   -0.0164 N   0  0  0  0  0  0  0  0  0  0  0  0
    2.9997    0.2268    0.5158 C   0  0  0  0  0  0  0  0  0  0  0  0
    3.5627    1.4922   -0.1492 C   0  0  0  0  0  0  0  0  0  0  0  0
    4.8478    1.9698    0.5314 C   0  0  0  0  0  0  0  0  0  0  0  0
    5.7092    0.8350    1.0884 C   0  0  0  0  0  0  0  0  0  0  0  0
    5.4628   -0.4826    0.3664 C   0  0  0  0  0  0  0  0  0  0  0  0
    4.0104   -0.9420    0.5097 C   0  0  0  0  0  0  0  0  0  0  0  0
    0.3252   -1.0132   -2.8063 H   0  0  0  0  0  0  0  0  0  0  0  0
   -2.9090    0.2740    0.3537 H   0  0  0  0  0  0  0  0  0  0  0  0
   -2.0096    0.6223    1.8174 H   0  0  0  0  0  0  0  0  0  0  0  0
   -0.9363    2.6051    0.6977 H   0  0  0  0  0  0  0  0  0  0  0  0
   -1.7562    2.2314   -0.7969 H   0  0  0  0  0  0  0  0  0  0  0  0
   -4.2075    2.6014   -1.0434 H   0  0  0  0  0  0  0  0  0  0  0  0
   -6.1503    3.8944   -0.1793 H   0  0  0  0  0  0  0  0  0  0  0  0
   -4.2431    4.7037    3.3786 H   0  0  0  0  0  0  0  0  0  0  0  0
   -2.2065    3.4511    2.6888 H   0  0  0  0  0  0  0  0  0  0  0  0
   -0.0181   -2.2592    0.6745 H   0  0  0  0  0  0  0  0  0  0  0  0
   -0.9425   -1.5395    1.9613 H   0  0  0  0  0  0  0  0  0  0  0  0
   -3.0747   -1.9053    0.5521 H   0  0  0  0  0  0  0  0  0  0  0  0
   -2.2904   -3.2882    1.2627 H   0  0  0  0  0  0  0  0  0  0  0  0
   -0.4398   -4.5357   -0.2592 H   0  0  0  0  0  0  0  0  0  0  0  0
   -0.3264   -5.5983   -2.5010 H   0  0  0  0  0  0  0  0  0  0  0  0
   -3.4086   -3.2801   -3.9418 H   0  0  0  0  0  0  0  0  0  0  0  0
   -3.6757   -2.1023   -1.7752 H   0  0  0  0  0  0  0  0  0  0  0  0
    2.8675    0.4802    1.5765 H   0  0  0  0  0  0  0  0  0  0  0  0
    2.8211    2.3002   -0.1317 H   0  0  0  0  0  0  0  0  0  0  0  0
    3.7776    1.3030   -1.2075 H   0  0  0  0  0  0  0  0  0  0  0  0
    4.6001    2.6568    1.3498 H   0  0  0  0  0  0  0  0  0  0  0  0
    5.4294    2.5557   -0.1908 H   0  0  0  0  0  0  0  0  0  0  0  0
    5.4889    0.7046    2.1555 H   0  0  0  0  0  0  0  0  0  0  0  0
    6.7676    1.1115    1.0224 H   0  0  0  0  0  0  0  0  0  0  0  0
    6.1314   -1.2579    0.7575 H   0  0  0  0  0  0  0  0  0  0  0  0
    5.7059   -0.3652   -0.6970 H   0  0  0  0  0  0  0  0  0  0  0  0
    3.8015   -1.6820   -0.2695 H   0  0  0  0  0  0  0  0  0  0  0  0
    3.8979   -1.4903    1.4547 H   0  0  0  0  0  0  0  0  0  0  0  0
  1  2  2  0
  2  3  1  0
  3  4  1  0
  4  5  2  0
  4  6  1  0
  6  7  1  0
  7  8  1  0
  8  9  1  0
  9 10  2  0
 10 11  1  0
 11 12  2  0
 12 13  1  0
 13 14  2  0
  6 15  1  0
 15 16  1  0
 16 17  1  0
 17 18  2  0
 18 19  1  0
 19 20  2  0
 20 21  1  0
 21 22  2  0
  6 23  1  0
 23 24  2  0
 23 25  1  0
 25 26  1  0
 26 27  1  0
 27 28  1  0
 28 29  1  0
 29 30  1  0
 30 31  1  0
 25  2  1  0
 31 26  1  0
 14  9  1  0
 22 17  1  0
  3 32  1  0
  7 33  1  0
  7 34  1  0
  8 35  1  0
  8 36  1  0
 10 37  1  0
 11 38  1  0
 13 39  1  0
 14 40  1  0
 15 41  1  0
 15 42  1  0
 16 43  1  0
 16 44  1  0
 18 45  1  0
 19 46  1  0
 21 47  1  0
 22 48  1  0
 26 49  1  0
 27 50  1  0
 27 51  1  0
 28 52  1  0
 28 53  1  0
 29 54  1  0
 29 55  1  0
 30 56  1  0
 30 57  1  0
 31 58  1  0
 31 59  1  0
M  END
$$$$
