
     RDKit          3D

 47 50  0  0  0  0  0  0  0  0999 V2000
    7.3836   -1.7500    0.0037 C   0  0  0  0  0  0  0  0  0  0  0  0
    6.5688   -0.6960   -0.1390 C   0  0  0  0  0  0  0  0  0  0  0  0
    5.9965    0.0984    1.0029 C   0  0  0  0  0  0  0  0  0  0  0  0
    4.5830   -0.2212    1.1391 N   0  0  0  0  0  0  0  0  0  0  0  0
    4.2367   -1.2203    2.0256 C   0  0  0  0  0  0  0  0  0  0  0  0
    5.0359   -1.8214    2.7420 O   0  0  0  0  0  0  0  0  0  0  0  0
    2.9143   -1.5357    2.1101 N   0  0  0  0  0  0  0  0  0  0  0  0
    1.8656   -0.9287    1.4862 C   0  0  0  0  0  0  0  0  0  0  0  0
    0.7198   -1.2765    1.7394 O   0  0  0  0  0  0  0  0  0  0  0  0
    2.2442    0.1407    0.5378 C   0  0  0  0  0  0  0  0  0  0  0  0
    1.3595    0.8343   -0.2077 C   0  0  0  0  0  0  0  0  0  0  0  0
   -0.0961    0.6774   -0.2334 C   0  0  0  0  0  0  0  0  0  0  0  0
   -0.6947   -0.1497   -1.1832 C   0  0  0  0  0  0  0  0  0  0  0  0
   -2.0929   -0.2874   -1.2346 C   0  0  0  0  0  0  0  0  0  0  0  0
   -2.9176    0.4305   -0.3420 C   0  0  0  0  0  0  0  0  0  0  0  0
   -2.2986    1.2459    0.6297 C   0  0  0  0  0  0  0  0  0  0  0  0
   -0.8991    1.3745    0.6686 C   0  0  0  0  0  0  0  0  0  0  0  0
   -3.1202    2.0397    1.6143 C   0  0  0  0  0  0  0  0  0  0  0  0
   -4.5468    1.5220    1.7139 C   0  0  0  0  0  0  0  0  0  0  0  0
   -5.1014    1.3035    0.3160 C   0  0  0  0  0  0  0  0  0  0  0  0
   -4.3131    0.2894   -0.3802 N   0  0  0  0  0  0  0  0  0  0  0  0
   -4.8901   -0.2700   -1.6003 C   0  0  0  0  0  0  0  0  0  0  0  0
   -4.1377   -1.5284   -1.9999 C   0  0  0  0  0  0  0  0  0  0  0  0
   -2.6886   -1.1754   -2.2982 C   0  0  0  0  0  0  0  0  0  0  0  0
    3.6815    0.4958    0.3671 C   0  0  0  0  0  0  0  0  0  0  0  0
    4.0296    1.3789   -0.4175 O   0  0  0  0  0  0  0  0  0  0  0  0
    7.6711   -2.1193    0.9846 H   0  0  0  0  0  0  0  0  0  0  0  0
    7.7733   -2.2748   -0.8634 H   0  0  0  0  0  0  0  0  0  0  0  0
    6.3088   -0.3594   -1.1412 H   0  0  0  0  0  0  0  0  0  0  0  0
    6.1283    1.1676    0.8008 H   0  0  0  0  0  0  0  0  0  0  0  0
    6.5283   -0.1162    1.9371 H   0  0  0  0  0  0  0  0  0  0  0  0
    2.6737   -2.2571    2.7750 H   0  0  0  0  0  0  0  0  0  0  0  0
    1.7054    1.6085   -0.8927 H   0  0  0  0  0  0  0  0  0  0  0  0
   -0.0777   -0.6965   -1.8926 H   0  0  0  0  0  0  0  0  0  0  0  0
   -0.4426    2.0220    1.4135 H   0  0  0  0  0  0  0  0  0  0  0  0
   -2.6580    2.0041    2.6079 H   0  0  0  0  0  0  0  0  0  0  0  0
   -3.1303    3.0870    1.2875 H   0  0  0  0  0  0  0  0  0  0  0  0
   -4.5619    0.5761    2.2711 H   0  0  0  0  0  0  0  0  0  0  0  0
   -5.1667    2.2360    2.2671 H   0  0  0  0  0  0  0  0  0  0  0  0
   -5.1059    2.2405   -0.2557 H   0  0  0  0  0  0  0  0  0  0  0  0
   -6.1420    0.9684    0.3992 H   0  0  0  0  0  0  0  0  0  0  0  0
   -5.9409   -0.5294   -1.4257 H   0  0  0  0  0  0  0  0  0  0  0  0
   -4.8681    0.4738   -2.4071 H   0  0  0  0  0  0  0  0  0  0  0  0
   -4.1822   -2.2620   -1.1845 H   0  0  0  0  0  0  0  0  0  0  0  0
   -4.5994   -1.9902   -2.8794 H   0  0  0  0  0  0  0  0  0  0  0  0
   -2.6281   -0.6485   -3.2587 H   0  0  0  0  0  0  0  0  0  0  0  0
   -2.1074   -2.1008   -2.3874 H   0  0  0  0  0  0  0  0  0  0  0  0
  1  2  2  0
  2  3  1  0
  3  4  1  0
  4  5  1  0
  5  6  2  0
  5  7  1  0
  7  8  1  0
  8  9  2  0
  8 10  1  0
 10 11  2  3
 11 12  1  0
 12 13  2  0
 13 14  1  0
 14 15  2  0
 15 16  1  0
 16 17  2  0
 16 18  1  0
 18 19  1  0
 19 20  1  0
 20 21  1  0
 21 22  1  0
 22 23  1  0
 23 24  1  0
 10 25  1  0
 25 26  2  0
 25  4  1  0
 17 12  1  0
 24 14  1  0
 21 15  1  0
  1 27  1  0
  1 28  1  0
  2 29  1  0
  3 30  1  0
  3 31  1  0
  7 32  1  0
 11 33  1  0
 13 34  1  0
 17 35  1  0
 18 36  1  0
 18 37  1  0
 19 38  1  0
 19 39  1  0
 20 40  1  0
 20 41  1  0
 22 42  1  0
 22 43  1  0
 23 44  1  0
 23 45  1  0
 24 46  1  0
 24 47  1  0
M  END
$$$$
