
     RDKit          3D

 46 48  0  0  0  0  0  0  0  0999 V2000
   -4.1227    4.0405    0.8856 C   0  0  0  0  0  0  0  0  0  0  0  0
   -3.1565    3.2013    1.6986 C   0  0  0  0  0  0  0  0  0  0  0  0
   -1.9481    3.0571    0.9473 O   0  0  0  0  0  0  0  0  0  0  0  0
   -1.0060    2.3182    1.5616 C   0  0  0  0  0  0  0  0  0  0  0  0
   -1.0688    1.7538    2.6392 O   0  0  0  0  0  0  0  0  0  0  0  0
    0.2040    2.1964    0.6799 C   0  0  0  0  0  0  0  0  0  0  0  0
    0.8714    3.2161    0.2301 N   0  0  0  0  0  0  0  0  0  0  0  0
    1.8834    2.7045   -0.5421 N   0  0  0  0  0  0  0  0  0  0  0  0
    1.9463    1.2379   -0.4890 C   0  0  0  0  0  0  0  0  0  0  0  0
    3.2651    0.7922    0.1514 C   0  0  0  0  0  0  0  0  0  0  0  0
    4.1148    1.5946    0.5397 O   0  0  0  0  0  0  0  0  0  0  0  0
    3.5361   -0.6679    0.2974 C   0  0  0  0  0  0  0  0  0  0  0  0
    2.9303   -1.6280   -0.5217 C   0  0  0  0  0  0  0  0  0  0  0  0
    3.2084   -2.9841   -0.3316 C   0  0  0  0  0  0  0  0  0  0  0  0
    4.0953   -3.3852    0.6666 C   0  0  0  0  0  0  0  0  0  0  0  0
    4.7128   -2.4326    1.4748 C   0  0  0  0  0  0  0  0  0  0  0  0
    4.4374   -1.0770    1.2893 C   0  0  0  0  0  0  0  0  0  0  0  0
    0.7173    0.8327    0.3345 C   0  0  0  0  0  0  0  0  0  0  0  0
   -0.2964   -0.0035   -0.4158 C   0  0  0  0  0  0  0  0  0  0  0  0
   -0.8498    0.4241   -1.6302 C   0  0  0  0  0  0  0  0  0  0  0  0
   -1.7831   -0.3698   -2.3004 C   0  0  0  0  0  0  0  0  0  0  0  0
   -2.1865   -1.5976   -1.7736 C   0  0  0  0  0  0  0  0  0  0  0  0
   -3.1035   -2.2716   -2.5310 O   0  0  0  0  0  0  0  0  0  0  0  0
   -3.5802   -3.5083   -2.0159 C   0  0  0  0  0  0  0  0  0  0  0  0
   -1.6459   -2.0272   -0.5630 C   0  0  0  0  0  0  0  0  0  0  0  0
   -0.7097   -1.2351    0.1116 C   0  0  0  0  0  0  0  0  0  0  0  0
   -3.6916    5.0235    0.6689 H   0  0  0  0  0  0  0  0  0  0  0  0
   -5.0659    4.1787    1.4214 H   0  0  0  0  0  0  0  0  0  0  0  0
   -4.3298    3.5641   -0.0784 H   0  0  0  0  0  0  0  0  0  0  0  0
   -2.9429    3.6998    2.6509 H   0  0  0  0  0  0  0  0  0  0  0  0
   -3.5943    2.2149    1.8896 H   0  0  0  0  0  0  0  0  0  0  0  0
    2.7601    3.2325   -0.4915 H   0  0  0  0  0  0  0  0  0  0  0  0
    1.9373    0.8990   -1.5300 H   0  0  0  0  0  0  0  0  0  0  0  0
    2.2526   -1.3555   -1.3256 H   0  0  0  0  0  0  0  0  0  0  0  0
    2.7383   -3.7296   -0.9694 H   0  0  0  0  0  0  0  0  0  0  0  0
    4.3130   -4.4412    0.8092 H   0  0  0  0  0  0  0  0  0  0  0  0
    5.4120   -2.7435    2.2475 H   0  0  0  0  0  0  0  0  0  0  0  0
    4.9283   -0.3409    1.9241 H   0  0  0  0  0  0  0  0  0  0  0  0
    1.0029    0.3374    1.2707 H   0  0  0  0  0  0  0  0  0  0  0  0
   -0.5684    1.3818   -2.0681 H   0  0  0  0  0  0  0  0  0  0  0  0
   -2.2049   -0.0243   -3.2418 H   0  0  0  0  0  0  0  0  0  0  0  0
   -4.3125   -3.9059   -2.7251 H   0  0  0  0  0  0  0  0  0  0  0  0
   -2.7687   -4.2386   -1.9306 H   0  0  0  0  0  0  0  0  0  0  0  0
   -4.0884   -3.3672   -1.0562 H   0  0  0  0  0  0  0  0  0  0  0  0
   -1.9325   -2.9718   -0.1124 H   0  0  0  0  0  0  0  0  0  0  0  0
   -0.3103   -1.5945    1.0592 H   0  0  0  0  0  0  0  0  0  0  0  0
  1  2  1  0
  2  3  1  0
  3  4  1  0
  4  5  2  0
  4  6  1  0
  6  7  2  0
  7  8  1  0
  8  9  1  0
  9 10  1  0
 10 11  2  0
 10 12  1  0
 12 13  2  0
 13 14  1  0
 14 15  2  0
 15 16  1  0
 16 17  2  0
  9 18  1  0
 18 19  1  0
 19 20  2  0
 20 21  1  0
 21 22  2  0
 22 23  1  0
 23 24  1  0
 22 25  1  0
 25 26  2  0
 18  6  1  0
 26 19  1  0
 17 12  1  0
  1 27  1  0
  1 28  1  0
  1 29  1  0
  2 30  1  0
  2 31  1  0
  8 32  1  0
  9 33  1  0
 13 34  1  0
 14 35  1  0
 15 36  1  0
 16 37  1  0
 17 38  1  0
 18 39  1  0
 20 40  1  0
 21 41  1  0
 24 42  1  0
 24 43  1  0
 24 44  1  0
 25 45  1  0
 26 46  1  0
M  END
$$$$
