
     RDKit          3D

 48 48  0  0  0  0  0  0  0  0999 V2000
    3.0807   -1.4129   -1.0295 C   0  0  0  0  0  0  0  0  0  0  0  0
    3.2344   -0.7082    0.3207 C   0  0  0  0  0  0  0  0  0  0  0  0
    2.6458    0.7129    0.2785 C   0  0  0  0  0  0  0  0  0  0  0  0
    1.2076    0.7179    0.0730 N   0  0  0  0  0  0  0  0  0  0  0  0
    0.3306    0.4631    1.1073 C   0  0  0  0  0  0  0  0  0  0  0  0
    0.6870    0.2556    2.2619 O   0  0  0  0  0  0  0  0  0  0  0  0
   -1.1130    0.4053    0.7476 C   0  0  0  0  0  0  0  0  0  0  0  0
   -1.6445    1.1328   -0.3200 C   0  0  0  0  0  0  0  0  0  0  0  0
   -3.0104    1.0481   -0.6225 C   0  0  0  0  0  0  0  0  0  0  0  0
   -3.8799    0.2435    0.1337 C   0  0  0  0  0  0  0  0  0  0  0  0
   -5.3845    0.1294   -0.1720 C   0  0  0  0  0  0  0  0  0  0  0  0
   -5.8384    0.9586   -1.3947 C   0  0  0  0  0  0  0  0  0  0  0  0
   -6.1994    0.6229    1.0429 C   0  0  0  0  0  0  0  0  0  0  0  0
   -5.7456   -1.3438   -0.4616 C   0  0  0  0  0  0  0  0  0  0  0  0
   -3.3244   -0.4672    1.2160 C   0  0  0  0  0  0  0  0  0  0  0  0
   -1.9623   -0.3850    1.5231 C   0  0  0  0  0  0  0  0  0  0  0  0
    4.6966   -0.6796    0.8193 C   0  0  0  0  0  0  0  0  0  0  0  0
    5.5917    0.1175   -0.0403 N   0  0  0  0  0  0  0  0  0  0  0  0
    6.4487    0.9891    0.7686 C   0  0  0  0  0  0  0  0  0  0  0  0
    6.4313   -0.7413   -0.8808 C   0  0  0  0  0  0  0  0  0  0  0  0
    2.0235   -1.5690   -1.2690 H   0  0  0  0  0  0  0  0  0  0  0  0
    3.5595   -2.3975   -1.0107 H   0  0  0  0  0  0  0  0  0  0  0  0
    3.5204   -0.8292   -1.8445 H   0  0  0  0  0  0  0  0  0  0  0  0
    2.6675   -1.2986    1.0533 H   0  0  0  0  0  0  0  0  0  0  0  0
    2.8519    1.2354    1.2201 H   0  0  0  0  0  0  0  0  0  0  0  0
    3.0836    1.3009   -0.5354 H   0  0  0  0  0  0  0  0  0  0  0  0
    0.8746    0.6732   -0.8796 H   0  0  0  0  0  0  0  0  0  0  0  0
   -1.0200    1.7952   -0.9126 H   0  0  0  0  0  0  0  0  0  0  0  0
   -3.3720    1.6383   -1.4605 H   0  0  0  0  0  0  0  0  0  0  0  0
   -5.6533    2.0290   -1.2478 H   0  0  0  0  0  0  0  0  0  0  0  0
   -6.9136    0.8403   -1.5751 H   0  0  0  0  0  0  0  0  0  0  0  0
   -5.3218    0.6446   -2.3092 H   0  0  0  0  0  0  0  0  0  0  0  0
   -6.0209    0.0146    1.9364 H   0  0  0  0  0  0  0  0  0  0  0  0
   -5.9444    1.6593    1.2942 H   0  0  0  0  0  0  0  0  0  0  0  0
   -7.2758    0.5843    0.8388 H   0  0  0  0  0  0  0  0  0  0  0  0
   -6.8064   -1.4476   -0.7181 H   0  0  0  0  0  0  0  0  0  0  0  0
   -5.5603   -1.9936    0.4006 H   0  0  0  0  0  0  0  0  0  0  0  0
   -5.1594   -1.7357   -1.3013 H   0  0  0  0  0  0  0  0  0  0  0  0
   -3.9499   -1.0979    1.8447 H   0  0  0  0  0  0  0  0  0  0  0  0
   -1.5673   -0.9430    2.3699 H   0  0  0  0  0  0  0  0  0  0  0  0
    5.0677   -1.7066    0.9382 H   0  0  0  0  0  0  0  0  0  0  0  0
    4.6756   -0.2663    1.8377 H   0  0  0  0  0  0  0  0  0  0  0  0
    7.0839    0.4208    1.4579 H   0  0  0  0  0  0  0  0  0  0  0  0
    7.0936    1.5998    0.1267 H   0  0  0  0  0  0  0  0  0  0  0  0
    5.8405    1.6890    1.3528 H   0  0  0  0  0  0  0  0  0  0  0  0
    7.1020   -1.3725   -0.2861 H   0  0  0  0  0  0  0  0  0  0  0  0
    7.0433   -0.1325   -1.5560 H   0  0  0  0  0  0  0  0  0  0  0  0
    5.8254   -1.3932   -1.5167 H   0  0  0  0  0  0  0  0  0  0  0  0
  1  2  1  0
  2  3  1  0
  3  4  1  0
  4  5  1  0
  5  6  2  0
  5  7  1  0
  7  8  2  0
  8  9  1  0
  9 10  2  0
 10 11  1  0
 11 12  1  0
 11 13  1  0
 11 14  1  0
 10 15  1  0
 15 16  2  0
  2 17  1  0
 17 18  1  0
 18 19  1  0
 18 20  1  0
 16  7  1  0
  1 21  1  0
  1 22  1  0
  1 23  1  0
  2 24  1  0
  3 25  1  0
  3 26  1  0
  4 27  1  0
  8 28  1  0
  9 29  1  0
 12 30  1  0
 12 31  1  0
 12 32  1  0
 13 33  1  0
 13 34  1  0
 13 35  1  0
 14 36  1  0
 14 37  1  0
 14 38  1  0
 15 39  1  0
 16 40  1  0
 17 41  1  0
 17 42  1  0
 19 43  1  0
 19 44  1  0
 19 45  1  0
 20 46  1  0
 20 47  1  0
 20 48  1  0
M  END
$$$$
