
     RDKit          3D

 45 47  0  0  0  0  0  0  0  0999 V2000
    2.9778   -2.5601   -0.0013 O   0  0  0  0  0  0  0  0  0  0  0  0
    2.0545   -2.1168    0.6858 C   0  0  0  0  0  0  0  0  0  0  0  0
    2.3076   -1.4410    2.0330 C   0  0  0  0  0  0  0  0  0  0  0  0
    3.8117   -0.4100    2.0159 S   0  0  0  0  0  0  0  0  0  0  0  0
    3.2260    0.9408    1.0125 C   0  0  0  0  0  0  0  0  0  0  0  0
    2.7154    2.0913    1.6226 C   0  0  0  0  0  0  0  0  0  0  0  0
    2.2796    3.1668    0.8447 C   0  0  0  0  0  0  0  0  0  0  0  0
    2.3574    3.0895   -0.5443 C   0  0  0  0  0  0  0  0  0  0  0  0
    1.7949    4.5556   -1.5951 Br  0  0  0  0  0  0  0  0  0  0  0  0
    2.8643    1.9478   -1.1623 C   0  0  0  0  0  0  0  0  0  0  0  0
    3.3039    0.8759   -0.3820 C   0  0  0  0  0  0  0  0  0  0  0  0
    0.7338   -2.2396    0.2673 N   0  0  0  0  0  0  0  0  0  0  0  0
   -0.4348   -1.8271    1.0508 C   0  0  0  0  0  0  0  0  0  0  0  0
   -1.7524   -2.4297    0.5432 C   0  0  0  0  0  0  0  0  0  0  0  0
   -1.9615   -2.1871   -0.9068 N   0  0  0  0  0  0  0  0  0  0  0  0
   -3.2551   -1.2038   -1.3825 S   0  0  0  0  0  6  0  0  0  0  0  0
   -3.3225   -1.2277   -2.8285 O   0  0  0  0  0  0  0  0  0  0  0  0
   -4.4023   -1.5509   -0.5711 O   0  0  0  0  0  0  0  0  0  0  0  0
   -2.7306    0.4272   -0.8935 C   0  0  0  0  0  0  0  0  0  0  0  0
   -3.0488    0.9047    0.3822 C   0  0  0  0  0  0  0  0  0  0  0  0
   -2.6477    2.1873    0.7561 C   0  0  0  0  0  0  0  0  0  0  0  0
   -1.9534    2.9927   -0.1474 C   0  0  0  0  0  0  0  0  0  0  0  0
   -1.6684    2.5250   -1.4309 C   0  0  0  0  0  0  0  0  0  0  0  0
   -2.0627    1.2429   -1.8112 C   0  0  0  0  0  0  0  0  0  0  0  0
   -0.7254   -2.1333   -1.7380 C   0  0  0  0  0  0  0  0  0  0  0  0
    0.4550   -2.8270   -1.0484 C   0  0  0  0  0  0  0  0  0  0  0  0
    2.4333   -2.2303    2.7809 H   0  0  0  0  0  0  0  0  0  0  0  0
    1.4774   -0.8048    2.3440 H   0  0  0  0  0  0  0  0  0  0  0  0
    2.6693    2.1668    2.7063 H   0  0  0  0  0  0  0  0  0  0  0  0
    1.8962    4.0603    1.3314 H   0  0  0  0  0  0  0  0  0  0  0  0
    2.9378    1.8859   -2.2448 H   0  0  0  0  0  0  0  0  0  0  0  0
    3.7189   -0.0046   -0.8702 H   0  0  0  0  0  0  0  0  0  0  0  0
   -0.4758   -0.7330    1.0013 H   0  0  0  0  0  0  0  0  0  0  0  0
   -0.2841   -2.1143    2.0967 H   0  0  0  0  0  0  0  0  0  0  0  0
   -1.7434   -3.5162    0.6918 H   0  0  0  0  0  0  0  0  0  0  0  0
   -2.5822   -2.0454    1.1430 H   0  0  0  0  0  0  0  0  0  0  0  0
   -3.6155    0.2934    1.0809 H   0  0  0  0  0  0  0  0  0  0  0  0
   -2.8910    2.5685    1.7453 H   0  0  0  0  0  0  0  0  0  0  0  0
   -1.6516    3.9975    0.1402 H   0  0  0  0  0  0  0  0  0  0  0  0
   -1.1502    3.1660   -2.1404 H   0  0  0  0  0  0  0  0  0  0  0  0
   -1.8535    0.8935   -2.8201 H   0  0  0  0  0  0  0  0  0  0  0  0
   -0.4505   -1.0918   -1.9317 H   0  0  0  0  0  0  0  0  0  0  0  0
   -0.9223   -2.6259   -2.6958 H   0  0  0  0  0  0  0  0  0  0  0  0
    0.2318   -3.8874   -0.8827 H   0  0  0  0  0  0  0  0  0  0  0  0
    1.3391   -2.7718   -1.6919 H   0  0  0  0  0  0  0  0  0  0  0  0
  1  2  2  0
  2  3  1  0
  3  4  1  0
  4  5  1  0
  5  6  2  0
  6  7  1  0
  7  8  2  0
  8  9  1  0
  8 10  1  0
 10 11  2  0
  2 12  1  0
 12 13  1  0
 13 14  1  0
 14 15  1  0
 15 16  1  0
 16 17  2  0
 16 18  2  0
 16 19  1  0
 19 20  2  0
 20 21  1  0
 21 22  2  0
 22 23  1  0
 23 24  2  0
 15 25  1  0
 25 26  1  0
 11  5  1  0
 26 12  1  0
 24 19  1  0
  3 27  1  0
  3 28  1  0
  6 29  1  0
  7 30  1  0
 10 31  1  0
 11 32  1  0
 13 33  1  0
 13 34  1  0
 14 35  1  0
 14 36  1  0
 20 37  1  0
 21 38  1  0
 22 39  1  0
 23 40  1  0
 24 41  1  0
 25 42  1  0
 25 43  1  0
 26 44  1  0
 26 45  1  0
M  END
$$$$
