
     RDKit          3D

 37 39  0  0  0  0  0  0  0  0999 V2000
    3.7614    0.9546   -1.8975 C   0  0  0  0  0  0  0  0  0  0  0  0
    3.5910    0.4691   -0.4873 C   0  0  0  0  0  0  0  0  0  0  0  0
    4.6430   -0.1854    0.1658 C   0  0  0  0  0  0  0  0  0  0  0  0
    4.5099   -0.5881    1.4953 C   0  0  0  0  0  0  0  0  0  0  0  0
    3.3256   -0.3374    2.1810 C   0  0  0  0  0  0  0  0  0  0  0  0
    3.2812   -0.7358    3.4903 O   0  0  0  0  0  0  0  0  0  0  0  0
    2.2522    0.2952    1.5405 C   0  0  0  0  0  0  0  0  0  0  0  0
    0.9931    0.5314    2.2906 C   0  0  0  0  0  0  0  0  0  0  0  0
    1.0447    0.6485    3.5141 O   0  0  0  0  0  0  0  0  0  0  0  0
   -0.3210    0.5977    1.6240 C   0  0  0  0  0  0  0  0  0  0  0  0
   -1.2732    1.4883    2.1007 C   0  0  0  0  0  0  0  0  0  0  0  0
   -2.5117    1.6223    1.5660 N   0  0  0  0  0  0  0  0  0  0  0  0
   -2.8141    0.8204    0.5262 C   0  0  0  0  0  0  0  0  0  0  0  0
   -1.9475   -0.1241    0.0018 C   0  0  0  0  0  0  0  0  0  0  0  0
   -0.6757   -0.2455    0.5695 C   0  0  0  0  0  0  0  0  0  0  0  0
   -2.4463   -1.0347   -1.0688 C   0  0  0  0  0  0  0  0  0  0  0  0
   -3.5820   -0.4957   -1.7939 N   0  0  0  0  0  0  0  0  0  0  0  0
   -4.0110   -1.2211   -2.9750 C   0  0  0  0  0  0  0  0  0  0  0  0
   -4.4861    0.3495   -1.1778 C   0  0  0  0  0  0  0  0  0  0  0  0
   -5.6048    0.5903   -1.6261 O   0  0  0  0  0  0  0  0  0  0  0  0
   -4.0679    0.9580   -0.0353 N   0  0  0  0  0  0  0  0  0  0  0  0
    2.4018    0.7231    0.2127 C   0  0  0  0  0  0  0  0  0  0  0  0
    4.4461    0.3063   -2.4542 H   0  0  0  0  0  0  0  0  0  0  0  0
    2.8043    0.9487   -2.4297 H   0  0  0  0  0  0  0  0  0  0  0  0
    4.1604    1.9736   -1.8965 H   0  0  0  0  0  0  0  0  0  0  0  0
    5.5812   -0.3747   -0.3524 H   0  0  0  0  0  0  0  0  0  0  0  0
    5.3342   -1.0840    2.0015 H   0  0  0  0  0  0  0  0  0  0  0  0
    2.4979   -0.3103    3.9065 H   0  0  0  0  0  0  0  0  0  0  0  0
   -1.0645    2.1411    2.9453 H   0  0  0  0  0  0  0  0  0  0  0  0
    0.0111   -1.0057    0.2065 H   0  0  0  0  0  0  0  0  0  0  0  0
   -2.7527   -1.9882   -0.6229 H   0  0  0  0  0  0  0  0  0  0  0  0
   -1.6456   -1.2218   -1.7937 H   0  0  0  0  0  0  0  0  0  0  0  0
   -4.7644   -0.6584   -3.5334 H   0  0  0  0  0  0  0  0  0  0  0  0
   -3.1492   -1.3957   -3.6254 H   0  0  0  0  0  0  0  0  0  0  0  0
   -4.4403   -2.1782   -2.6640 H   0  0  0  0  0  0  0  0  0  0  0  0
   -4.6880    1.6357    0.3820 H   0  0  0  0  0  0  0  0  0  0  0  0
    1.6072    1.2730   -0.2865 H   0  0  0  0  0  0  0  0  0  0  0  0
  1  2  1  0
  2  3  2  0
  3  4  1  0
  4  5  2  0
  5  6  1  0
  5  7  1  0
  7  8  1  0
  8  9  2  0
  8 10  1  0
 10 11  2  0
 11 12  1  0
 12 13  2  0
 13 14  1  0
 14 15  2  0
 14 16  1  0
 16 17  1  0
 17 18  1  0
 17 19  1  0
 19 20  2  0
 19 21  1  0
  7 22  2  0
 22  2  1  0
 15 10  1  0
 21 13  1  0
  1 23  1  0
  1 24  1  0
  1 25  1  0
  3 26  1  0
  4 27  1  0
  6 28  1  0
 11 29  1  0
 15 30  1  0
 16 31  1  0
 16 32  1  0
 18 33  1  0
 18 34  1  0
 18 35  1  0
 21 36  1  0
 22 37  1  0
M  END
$$$$
