
     RDKit          3D

 68 71  0  0  0  0  0  0  0  0999 V2000
   -3.0959    1.7039   -2.0298 C   0  0  0  0  0  0  0  0  0  0  0  0
   -2.0506    1.7781   -0.9145 C   0  0  0  0  0  0  0  0  0  0  0  0
   -0.7567    1.9001   -1.4841 O   0  0  0  0  0  0  0  0  0  0  0  0
   -0.2564    3.1349   -1.7844 C   0  0  0  0  0  0  0  0  0  0  0  0
    1.0782    3.1319   -2.2003 C   0  0  0  0  0  0  0  0  0  0  0  0
    1.7198    4.3204   -2.5518 C   0  0  0  0  0  0  0  0  0  0  0  0
    1.0298    5.5272   -2.4882 C   0  0  0  0  0  0  0  0  0  0  0  0
   -0.3019    5.5401   -2.0784 C   0  0  0  0  0  0  0  0  0  0  0  0
   -0.9452    4.3473   -1.7299 C   0  0  0  0  0  0  0  0  0  0  0  0
   -2.2824    0.5782    0.0579 C   0  0  0  0  0  0  0  0  0  0  0  0
   -3.4126    0.4132    0.5396 O   0  0  0  0  0  0  0  0  0  0  0  0
   -1.1981   -0.1973    0.4986 N   0  0  0  0  0  0  0  0  0  0  0  0
   -1.5144   -1.2358    1.5015 C   0  0  0  0  0  0  0  0  0  0  0  0
   -2.1980   -2.4788    0.9058 C   0  0  0  0  0  0  0  0  0  0  0  0
   -2.5562   -3.4934    1.9692 C   0  0  0  0  0  0  0  0  0  0  0  0
   -1.8020   -4.5866    2.1891 C   0  0  0  0  0  0  0  0  0  0  0  0
   -2.1455   -5.6480    3.1942 C   0  0  0  0  0  0  0  0  0  0  0  0
   -3.5828   -5.5520    3.7063 C   0  0  0  0  0  0  0  0  0  0  0  0
   -3.9696   -4.1063    3.9943 C   0  0  0  0  0  0  0  0  0  0  0  0
   -3.8292   -3.2345    2.7437 C   0  0  0  0  0  0  0  0  0  0  0  0
   -0.0522   -0.4154   -0.2762 C   0  0  0  0  0  0  0  0  0  0  0  0
    1.2045   -0.2751    0.2175 C   0  0  0  0  0  0  0  0  0  0  0  0
    1.3945    0.2039    1.5136 N   0  0  0  0  0  0  0  0  0  0  0  0
    2.3023   -0.5886   -0.5848 N   0  0  0  0  0  0  0  0  0  0  0  0
    3.6733   -0.3758   -0.1098 C   0  0  0  0  0  0  0  0  0  0  0  0
    4.2384    0.9760   -0.4942 C   0  0  0  0  0  0  0  0  0  0  0  0
    3.9671    2.1148    0.2769 C   0  0  0  0  0  0  0  0  0  0  0  0
    4.4990    3.3567   -0.0755 C   0  0  0  0  0  0  0  0  0  0  0  0
    5.3056    3.4755   -1.2050 C   0  0  0  0  0  0  0  0  0  0  0  0
    5.5723    2.3552   -1.9884 C   0  0  0  0  0  0  0  0  0  0  0  0
    5.0400    1.1134   -1.6373 C   0  0  0  0  0  0  0  0  0  0  0  0
    2.1745   -1.0333   -1.8954 C   0  0  0  0  0  0  0  0  0  0  0  0
    3.1145   -1.3771   -2.6108 O   0  0  0  0  0  0  0  0  0  0  0  0
    0.9086   -1.1004   -2.3901 N   0  0  0  0  0  0  0  0  0  0  0  0
   -0.2283   -0.9194   -1.6718 C   0  0  0  0  0  0  0  0  0  0  0  0
   -1.3300   -1.2057   -2.1324 O   0  0  0  0  0  0  0  0  0  0  0  0
   -4.1137    1.6640   -1.6289 H   0  0  0  0  0  0  0  0  0  0  0  0
   -2.9430    0.8127   -2.6475 H   0  0  0  0  0  0  0  0  0  0  0  0
   -3.0285    2.5640   -2.7029 H   0  0  0  0  0  0  0  0  0  0  0  0
   -2.2558    2.6427   -0.2700 H   0  0  0  0  0  0  0  0  0  0  0  0
    1.6320    2.1974   -2.2487 H   0  0  0  0  0  0  0  0  0  0  0  0
    2.7580    4.2977   -2.8721 H   0  0  0  0  0  0  0  0  0  0  0  0
    1.5271    6.4539   -2.7608 H   0  0  0  0  0  0  0  0  0  0  0  0
   -0.8453    6.4811   -2.0335 H   0  0  0  0  0  0  0  0  0  0  0  0
   -1.9867    4.4082   -1.4334 H   0  0  0  0  0  0  0  0  0  0  0  0
   -2.1554   -0.7778    2.2649 H   0  0  0  0  0  0  0  0  0  0  0  0
   -0.5958   -1.5381    2.0186 H   0  0  0  0  0  0  0  0  0  0  0  0
   -3.1036   -2.2031    0.3520 H   0  0  0  0  0  0  0  0  0  0  0  0
   -1.5304   -2.9380    0.1656 H   0  0  0  0  0  0  0  0  0  0  0  0
   -0.8916   -4.7473    1.6160 H   0  0  0  0  0  0  0  0  0  0  0  0
   -1.4464   -5.5648    4.0350 H   0  0  0  0  0  0  0  0  0  0  0  0
   -1.9919   -6.6362    2.7458 H   0  0  0  0  0  0  0  0  0  0  0  0
   -3.6936   -6.1602    4.6111 H   0  0  0  0  0  0  0  0  0  0  0  0
   -4.2682   -5.9684    2.9568 H   0  0  0  0  0  0  0  0  0  0  0  0
   -3.3291   -3.7096    4.7926 H   0  0  0  0  0  0  0  0  0  0  0  0
   -5.0012   -4.0589    4.3614 H   0  0  0  0  0  0  0  0  0  0  0  0
   -4.6805   -3.4170    2.0761 H   0  0  0  0  0  0  0  0  0  0  0  0
   -3.8826   -2.1842    3.0500 H   0  0  0  0  0  0  0  0  0  0  0  0
    0.5085    0.3941    1.9797 H   0  0  0  0  0  0  0  0  0  0  0  0
    1.9568   -0.4333    2.0713 H   0  0  0  0  0  0  0  0  0  0  0  0
    3.7418   -0.5142    0.9749 H   0  0  0  0  0  0  0  0  0  0  0  0
    4.3186   -1.1628   -0.5229 H   0  0  0  0  0  0  0  0  0  0  0  0
    3.3328    2.0445    1.1574 H   0  0  0  0  0  0  0  0  0  0  0  0
    4.2766    4.2319    0.5294 H   0  0  0  0  0  0  0  0  0  0  0  0
    5.7200    4.4419   -1.4788 H   0  0  0  0  0  0  0  0  0  0  0  0
    6.1944    2.4457   -2.8750 H   0  0  0  0  0  0  0  0  0  0  0  0
    5.2542    0.2497   -2.2649 H   0  0  0  0  0  0  0  0  0  0  0  0
    0.8080   -1.4626   -3.3251 H   0  0  0  0  0  0  0  0  0  0  0  0
  1  2  1  0
  2  3  1  0
  3  4  1  0
  4  5  2  0
  5  6  1  0
  6  7  2  0
  7  8  1  0
  8  9  2  0
  2 10  1  0
 10 11  2  0
 10 12  1  0
 12 13  1  0
 13 14  1  0
 14 15  1  0
 15 16  2  0
 16 17  1  0
 17 18  1  0
 18 19  1  0
 19 20  1  0
 12 21  1  0
 21 22  2  0
 22 23  1  0
 22 24  1  0
 24 25  1  0
 25 26  1  0
 26 27  2  0
 27 28  1  0
 28 29  2  0
 29 30  1  0
 30 31  2  0
 24 32  1  0
 32 33  2  0
 32 34  1  0
 34 35  1  0
 35 36  2  0
  9  4  1  0
 20 15  1  0
 35 21  1  0
 31 26  1  0
  1 37  1  0
  1 38  1  0
  1 39  1  0
  2 40  1  0
  5 41  1  0
  6 42  1  0
  7 43  1  0
  8 44  1  0
  9 45  1  0
 13 46  1  0
 13 47  1  0
 14 48  1  0
 14 49  1  0
 16 50  1  0
 17 51  1  0
 17 52  1  0
 18 53  1  0
 18 54  1  0
 19 55  1  0
 19 56  1  0
 20 57  1  0
 20 58  1  0
 23 59  1  0
 23 60  1  0
 25 61  1  0
 25 62  1  0
 27 63  1  0
 28 64  1  0
 29 65  1  0
 30 66  1  0
 31 67  1  0
 34 68  1  0
M  END
$$$$
