
     RDKit          3D

 49 52  0  0  0  0  0  0  0  0999 V2000
   -1.6274    3.6353    0.9104 C   0  0  0  0  0  0  0  0  0  0  0  0
   -0.4740    3.2919    1.8432 C   0  0  0  0  0  0  0  0  0  0  0  0
   -0.5926    1.8968    2.4596 C   0  0  0  0  0  0  0  0  0  0  0  0
   -0.4312    0.7969    1.4462 C   0  0  0  0  0  0  0  0  0  0  0  0
    0.8208    0.4827    1.0614 N   0  0  0  0  0  0  0  0  0  0  0  0
    0.9833   -0.4666    0.1175 C   0  0  0  0  0  0  0  0  0  0  0  0
    2.2867   -0.7959   -0.3110 N   0  0  0  0  0  0  0  0  0  0  0  0
    3.3234   -0.4827    0.6986 C   0  0  0  0  0  0  0  0  0  0  0  0
    4.7089   -0.9472    0.1910 C   0  0  0  0  0  0  0  0  0  0  0  0
    5.0700   -0.3298   -1.1060 N   0  0  0  0  0  0  0  0  0  0  0  0
    6.3561   -0.8371   -1.5782 C   0  0  0  0  0  0  0  0  0  0  0  0
    4.0035   -0.6084   -2.0938 C   0  0  0  0  0  0  0  0  0  0  0  0
    2.6063   -0.1525   -1.6073 C   0  0  0  0  0  0  0  0  0  0  0  0
   -0.1196   -1.1146   -0.4109 C   0  0  0  0  0  0  0  0  0  0  0  0
   -0.2315   -2.3874   -1.6231 S   0  0  0  0  0  0  0  0  0  0  0  0
   -2.0034   -2.4301   -1.4897 C   0  0  0  0  0  0  0  0  0  0  0  0
   -2.8828   -3.5682   -2.3449 S   0  0  0  0  0  0  0  0  0  0  0  0
   -2.4275   -1.4742   -0.5578 N   0  0  0  0  0  0  0  0  0  0  0  0
   -3.7765   -1.1642   -0.2152 C   0  0  0  0  0  0  0  0  0  0  0  0
   -4.1662   -0.9848    1.1218 C   0  0  0  0  0  0  0  0  0  0  0  0
   -5.4915   -0.6887    1.4556 C   0  0  0  0  0  0  0  0  0  0  0  0
   -6.4512   -0.5641    0.4561 C   0  0  0  0  0  0  0  0  0  0  0  0
   -6.0850   -0.7329   -0.8756 C   0  0  0  0  0  0  0  0  0  0  0  0
   -4.7589   -1.0299   -1.2076 C   0  0  0  0  0  0  0  0  0  0  0  0
   -1.3640   -0.7494    0.0607 C   0  0  0  0  0  0  0  0  0  0  0  0
   -1.5449    0.2196    0.9717 N   0  0  0  0  0  0  0  0  0  0  0  0
   -2.5898    3.5332    1.4219 H   0  0  0  0  0  0  0  0  0  0  0  0
   -1.5360    4.6698    0.5645 H   0  0  0  0  0  0  0  0  0  0  0  0
   -1.6351    2.9893    0.0271 H   0  0  0  0  0  0  0  0  0  0  0  0
   -0.4546    4.0295    2.6544 H   0  0  0  0  0  0  0  0  0  0  0  0
    0.4729    3.3909    1.2991 H   0  0  0  0  0  0  0  0  0  0  0  0
   -1.5570    1.7896    2.9704 H   0  0  0  0  0  0  0  0  0  0  0  0
    0.1831    1.7754    3.2255 H   0  0  0  0  0  0  0  0  0  0  0  0
    3.3644    0.5953    0.9065 H   0  0  0  0  0  0  0  0  0  0  0  0
    3.1039   -1.0068    1.6372 H   0  0  0  0  0  0  0  0  0  0  0  0
    5.4589   -0.6777    0.9439 H   0  0  0  0  0  0  0  0  0  0  0  0
    4.7069   -2.0420    0.1026 H   0  0  0  0  0  0  0  0  0  0  0  0
    7.1479   -0.6038   -0.8578 H   0  0  0  0  0  0  0  0  0  0  0  0
    6.6354   -0.3541   -2.5210 H   0  0  0  0  0  0  0  0  0  0  0  0
    6.3438   -1.9213   -1.7372 H   0  0  0  0  0  0  0  0  0  0  0  0
    4.2288   -0.0835   -3.0298 H   0  0  0  0  0  0  0  0  0  0  0  0
    3.9657   -1.6829   -2.3182 H   0  0  0  0  0  0  0  0  0  0  0  0
    1.8751   -0.4189   -2.3781 H   0  0  0  0  0  0  0  0  0  0  0  0
    2.5931    0.9413   -1.5035 H   0  0  0  0  0  0  0  0  0  0  0  0
   -3.4492   -1.1006    1.9310 H   0  0  0  0  0  0  0  0  0  0  0  0
   -5.7711   -0.5606    2.4981 H   0  0  0  0  0  0  0  0  0  0  0  0
   -7.4815   -0.3343    0.7139 H   0  0  0  0  0  0  0  0  0  0  0  0
   -6.8288   -0.6283   -1.6616 H   0  0  0  0  0  0  0  0  0  0  0  0
   -4.5079   -1.1143   -2.2615 H   0  0  0  0  0  0  0  0  0  0  0  0
  1  2  1  0
  2  3  1  0
  3  4  1  0
  4  5  2  0
  5  6  1  0
  6  7  1  0
  7  8  1  0
  8  9  1  0
  9 10  1  0
 10 11  1  0
 10 12  1  0
 12 13  1  0
  6 14  2  0
 14 15  1  0
 15 16  1  0
 16 17  2  0
 16 18  1  0
 18 19  1  0
 19 20  2  0
 20 21  1  0
 21 22  2  0
 22 23  1  0
 23 24  2  0
 18 25  1  0
 25 26  2  0
 26  4  1  0
 13  7  1  0
 25 14  1  0
 24 19  1  0
  1 27  1  0
  1 28  1  0
  1 29  1  0
  2 30  1  0
  2 31  1  0
  3 32  1  0
  3 33  1  0
  8 34  1  0
  8 35  1  0
  9 36  1  0
  9 37  1  0
 11 38  1  0
 11 39  1  0
 11 40  1  0
 12 41  1  0
 12 42  1  0
 13 43  1  0
 13 44  1  0
 20 45  1  0
 21 46  1  0
 22 47  1  0
 23 48  1  0
 24 49  1  0
M  END
$$$$
