
     RDKit          3D

 71 76  0  0  0  0  0  0  0  0999 V2000
   -3.9676   -4.4400    2.3265 C   0  0  0  0  0  0  0  0  0  0  0  0
   -3.1247   -3.3633    1.9383 O   0  0  0  0  0  0  0  0  0  0  0  0
   -3.0239   -3.0991    0.5994 C   0  0  0  0  0  0  0  0  0  0  0  0
   -3.6790   -3.8067   -0.4272 C   0  0  0  0  0  0  0  0  0  0  0  0
   -3.5030   -3.4543   -1.7711 C   0  0  0  0  0  0  0  0  0  0  0  0
   -2.6706   -2.3920   -2.0478 C   0  0  0  0  0  0  0  0  0  0  0  0
   -2.0168   -1.6728   -1.0450 C   0  0  0  0  0  0  0  0  0  0  0  0
   -2.1836   -2.0235    0.2856 C   0  0  0  0  0  0  0  0  0  0  0  0
   -1.2004   -0.5926   -1.6834 C   0  0  1  0  0  0  0  0  0  0  0  0
   -1.4550   -0.8143   -3.2016 C   0  0  0  0  0  0  0  0  0  0  0  0
   -0.9740   -0.2191   -4.1545 O   0  0  0  0  0  0  0  0  0  0  0  0
   -2.3501   -1.8848   -3.3004 N   0  0  0  0  0  0  0  0  0  0  0  0
   -1.6723    0.7345   -1.2089 C   0  0  0  0  0  0  0  0  0  0  0  0
   -0.5652    1.5833   -0.9859 C   0  0  0  0  0  0  0  0  0  0  0  0
   -1.0253    2.8044   -0.5754 C   0  0  0  0  0  0  0  0  0  0  0  0
   -0.4063    3.9391   -0.2756 O   0  0  0  0  0  0  0  0  0  0  0  0
   -2.4072    2.6944   -0.5022 N   0  0  0  0  0  0  0  0  0  0  0  0
   -3.3060    3.7671   -0.0940 C   0  0  0  0  0  0  0  0  0  0  0  0
   -3.5384    3.7663    1.3979 C   0  0  0  0  0  0  0  0  0  0  0  0
   -4.5678    2.9968    1.9595 C   0  0  0  0  0  0  0  0  0  0  0  0
   -4.7748    2.9882    3.3398 C   0  0  0  0  0  0  0  0  0  0  0  0
   -3.9537    3.7451    4.1733 C   0  0  0  0  0  0  0  0  0  0  0  0
   -2.9219    4.5071    3.6286 C   0  0  0  0  0  0  0  0  0  0  0  0
   -2.7134    4.5166    2.2486 C   0  0  0  0  0  0  0  0  0  0  0  0
   -2.8145    1.4315   -0.9104 C   0  0  0  0  0  0  0  0  0  0  0  0
   -4.0985    1.0962   -0.9412 O   0  0  0  0  0  0  0  0  0  0  0  0
    0.6924    0.8781   -1.3150 C   0  0  1  0  0  0  0  0  0  0  0  0
    1.8525    0.9917   -0.3283 C   0  0  0  0  0  0  0  0  0  0  0  0
    2.8699   -0.0522   -0.5348 N   0  0  0  0  0  0  0  0  0  0  0  0
    4.0507    0.0484    0.1737 C   0  0  0  0  0  0  0  0  0  0  0  0
    4.2533    0.9112    1.0186 O   0  0  0  0  0  0  0  0  0  0  0  0
    4.9488   -0.9025   -0.1876 O   0  0  0  0  0  0  0  0  0  0  0  0
    6.2562   -0.9720    0.4362 C   0  0  0  0  0  0  0  0  0  0  0  0
    7.0790    0.2882    0.1473 C   0  0  0  0  0  0  0  0  0  0  0  0
    6.1453   -1.2543    1.9387 C   0  0  0  0  0  0  0  0  0  0  0  0
    6.9432   -2.1703   -0.2373 C   0  0  0  0  0  0  0  0  0  0  0  0
    2.6612   -1.0107   -1.6332 C   0  0  0  0  0  0  0  0  0  0  0  0
    1.1893   -1.4819   -1.8122 C   0  0  0  0  0  0  0  0  0  0  0  0
    0.2225   -0.5312   -1.3023 N   0  0  0  0  0  0  0  0  0  0  0  0
   -3.9380   -4.5113    3.4182 H   0  0  0  0  0  0  0  0  0  0  0  0
   -5.0060   -4.2540    2.0333 H   0  0  0  0  0  0  0  0  0  0  0  0
   -3.6053   -5.3903    1.9208 H   0  0  0  0  0  0  0  0  0  0  0  0
   -4.3330   -4.6445   -0.2055 H   0  0  0  0  0  0  0  0  0  0  0  0
   -4.0053   -4.0065   -2.5575 H   0  0  0  0  0  0  0  0  0  0  0  0
   -1.6733   -1.4722    1.0715 H   0  0  0  0  0  0  0  0  0  0  0  0
   -2.6758   -2.2405   -4.1869 H   0  0  0  0  0  0  0  0  0  0  0  0
    0.5508    3.7866   -0.3589 H   0  0  0  0  0  0  0  0  0  0  0  0
   -2.8759    4.7198   -0.4249 H   0  0  0  0  0  0  0  0  0  0  0  0
   -4.2511    3.6526   -0.6377 H   0  0  0  0  0  0  0  0  0  0  0  0
   -5.2085    2.3920    1.3205 H   0  0  0  0  0  0  0  0  0  0  0  0
   -5.5732    2.3859    3.7646 H   0  0  0  0  0  0  0  0  0  0  0  0
   -4.1125    3.7347    5.2480 H   0  0  0  0  0  0  0  0  0  0  0  0
   -2.2734    5.0888    4.2781 H   0  0  0  0  0  0  0  0  0  0  0  0
   -1.8954    5.1056    1.8377 H   0  0  0  0  0  0  0  0  0  0  0  0
   -4.1461    0.1411   -1.1265 H   0  0  0  0  0  0  0  0  0  0  0  0
    1.0122    1.1621   -2.3268 H   0  0  0  0  0  0  0  0  0  0  0  0
    2.3340    1.9729   -0.4212 H   0  0  0  0  0  0  0  0  0  0  0  0
    1.5072    0.9050    0.7104 H   0  0  0  0  0  0  0  0  0  0  0  0
    8.1188    0.1675    0.4700 H   0  0  0  0  0  0  0  0  0  0  0  0
    7.0712    0.5207   -0.9237 H   0  0  0  0  0  0  0  0  0  0  0  0
    6.6776    1.1665    0.6621 H   0  0  0  0  0  0  0  0  0  0  0  0
    5.7340   -0.4011    2.4864 H   0  0  0  0  0  0  0  0  0  0  0  0
    7.1241   -1.4804    2.3752 H   0  0  0  0  0  0  0  0  0  0  0  0
    5.4753   -2.1008    2.1266 H   0  0  0  0  0  0  0  0  0  0  0  0
    7.9539   -2.3319    0.1515 H   0  0  0  0  0  0  0  0  0  0  0  0
    7.0088   -2.0228   -1.3218 H   0  0  0  0  0  0  0  0  0  0  0  0
    6.3631   -3.0879   -0.0851 H   0  0  0  0  0  0  0  0  0  0  0  0
    2.9848   -0.4915   -2.5442 H   0  0  0  0  0  0  0  0  0  0  0  0
    3.3076   -1.8862   -1.5149 H   0  0  0  0  0  0  0  0  0  0  0  0
    1.0390   -1.7059   -2.8741 H   0  0  0  0  0  0  0  0  0  0  0  0
    1.0599   -2.4249   -1.2680 H   0  0  0  0  0  0  0  0  0  0  0  0
  1  2  1  0
  2  3  1  0
  3  4  2  0
  4  5  1  0
  5  6  2  0
  6  7  1  0
  7  8  2  0
  7  9  1  0
  9 10  1  0
 10 11  2  0
 10 12  1  0
  9 13  1  0
 13 14  1  0
 14 15  2  0
 15 16  1  0
 15 17  1  0
 17 18  1  0
 18 19  1  0
 19 20  2  0
 20 21  1  0
 21 22  2  0
 22 23  1  0
 23 24  2  0
 17 25  1  0
 25 26  1  0
 14 27  1  0
 27 28  1  0
 28 29  1  0
 29 30  1  0
 30 31  2  0
 30 32  1  0
 32 33  1  0
 33 34  1  0
 33 35  1  0
 33 36  1  0
 29 37  1  0
 37 38  1  0
 38 39  1  0
  8  3  1  0
  9 39  1  6
 12  6  1  0
 25 13  2  0
 39 27  1  0
 24 19  1  0
  1 40  1  0
  1 41  1  0
  1 42  1  0
  4 43  1  0
  5 44  1  0
  8 45  1  0
 12 46  1  0
 16 47  1  0
 18 48  1  0
 18 49  1  0
 20 50  1  0
 21 51  1  0
 22 52  1  0
 23 53  1  0
 24 54  1  0
 26 55  1  0
 27 56  1  6
 28 57  1  0
 28 58  1  0
 34 59  1  0
 34 60  1  0
 34 61  1  0
 35 62  1  0
 35 63  1  0
 35 64  1  0
 36 65  1  0
 36 66  1  0
 36 67  1  0
 37 68  1  0
 37 69  1  0
 38 70  1  0
 38 71  1  0
M  END
$$$$
