
     RDKit          3D

 37 39  0  0  0  0  0  0  0  0999 V2000
    4.3930   -0.8327    2.6478 C   0  0  0  0  0  0  0  0  0  0  0  0
    3.1882   -0.6826    1.7666 C   0  0  0  0  0  0  0  0  0  0  0  0
    2.0714   -1.4982    1.9499 C   0  0  0  0  0  0  0  0  0  0  0  0
    0.9511   -1.3644    1.1148 C   0  0  0  0  0  0  0  0  0  0  0  0
    0.9284   -0.4563    0.0445 C   0  0  0  0  0  0  0  0  0  0  0  0
    2.0741    0.3463   -0.1509 C   0  0  0  0  0  0  0  0  0  0  0  0
    3.1815    0.2387    0.7112 C   0  0  0  0  0  0  0  0  0  0  0  0
    2.1511    1.3654   -1.2592 C   0  0  0  0  0  0  0  0  0  0  0  0
    1.1867    1.0210   -2.3742 C   0  0  0  0  0  0  0  0  0  0  0  0
   -0.1933    0.7937   -1.7804 C   0  0  0  0  0  0  0  0  0  0  0  0
   -0.2291   -0.2959   -0.8034 N   0  0  0  0  0  0  0  0  0  0  0  0
   -1.3580   -1.1269   -0.7070 C   0  0  0  0  0  0  0  0  0  0  0  0
   -1.3148   -2.3091   -0.3346 O   0  0  0  0  0  0  0  0  0  0  0  0
   -2.7548   -0.5391   -1.0998 C   0  0  0  0  0  0  0  0  0  0  0  0
   -3.7633   -0.8440    0.0232 C   0  0  0  0  0  0  0  0  0  0  0  0
   -3.7850    0.4586    0.7952 C   0  0  0  0  0  0  0  0  0  0  0  0
   -3.6906    1.4680   -0.3328 C   0  0  0  0  0  0  0  0  0  0  0  0
   -2.8776    0.8642   -1.3521 O   0  0  0  0  0  0  0  0  0  0  0  0
    4.9468    0.1102    2.7273 H   0  0  0  0  0  0  0  0  0  0  0  0
    5.0603   -1.5997    2.2402 H   0  0  0  0  0  0  0  0  0  0  0  0
    4.1021   -1.1233    3.6580 H   0  0  0  0  0  0  0  0  0  0  0  0
    2.0502   -2.2489    2.7491 H   0  0  0  0  0  0  0  0  0  0  0  0
    0.1044   -2.0092    1.3447 H   0  0  0  0  0  0  0  0  0  0  0  0
    4.0520    0.8776    0.5503 H   0  0  0  0  0  0  0  0  0  0  0  0
    3.1633    1.4006   -1.6748 H   0  0  0  0  0  0  0  0  0  0  0  0
    1.9225    2.3592   -0.8487 H   0  0  0  0  0  0  0  0  0  0  0  0
    1.1596    1.8344   -3.1098 H   0  0  0  0  0  0  0  0  0  0  0  0
    1.5185    0.1160   -2.8991 H   0  0  0  0  0  0  0  0  0  0  0  0
   -0.5443    1.7041   -1.2822 H   0  0  0  0  0  0  0  0  0  0  0  0
   -0.8700    0.5597   -2.6071 H   0  0  0  0  0  0  0  0  0  0  0  0
   -3.0512   -1.0727   -2.0209 H   0  0  0  0  0  0  0  0  0  0  0  0
   -3.5166   -1.7071    0.6576 H   0  0  0  0  0  0  0  0  0  0  0  0
   -4.7560   -1.0285   -0.4142 H   0  0  0  0  0  0  0  0  0  0  0  0
   -4.6823    0.5944    1.4109 H   0  0  0  0  0  0  0  0  0  0  0  0
   -2.8963    0.5415    1.4453 H   0  0  0  0  0  0  0  0  0  0  0  0
   -3.2420    2.4200   -0.0147 H   0  0  0  0  0  0  0  0  0  0  0  0
   -4.6800    1.6651   -0.7707 H   0  0  0  0  0  0  0  0  0  0  0  0
  1  2  1  0
  2  3  2  0
  3  4  1  0
  4  5  2  0
  5  6  1  0
  6  7  2  0
  6  8  1  0
  8  9  1  0
  9 10  1  0
 10 11  1  0
 11 12  1  0
 12 13  2  0
 12 14  1  0
 14 15  1  0
 15 16  1  0
 16 17  1  0
 17 18  1  0
  7  2  1  0
 18 14  1  0
 11  5  1  0
  1 19  1  0
  1 20  1  0
  1 21  1  0
  3 22  1  0
  4 23  1  0
  7 24  1  0
  8 25  1  0
  8 26  1  0
  9 27  1  0
  9 28  1  0
 10 29  1  0
 10 30  1  0
 14 31  1  0
 15 32  1  0
 15 33  1  0
 16 34  1  0
 16 35  1  0
 17 36  1  0
 17 37  1  0
M  END
$$$$
