
     RDKit          3D

 62 65  0  0  0  0  0  0  0  0999 V2000
    1.4864   -0.3359    2.7718 C   0  0  0  0  0  0  0  0  0  0  0  0
    0.0741   -0.4625    2.2548 C   0  0  0  0  0  0  0  0  0  0  0  0
   -0.7438   -1.4319    2.8659 C   0  0  0  0  0  0  0  0  0  0  0  0
   -2.0564   -1.6400    2.4461 C   0  0  0  0  0  0  0  0  0  0  0  0
   -2.8171   -2.5873    3.0691 O   0  0  0  0  0  0  0  0  0  0  0  0
   -2.6004   -0.8962    1.4013 C   0  0  0  0  0  0  0  0  0  0  0  0
   -4.0262   -1.0684    0.8977 C   0  0  0  0  0  0  0  0  0  0  0  0
   -5.0685   -0.7200    1.9637 C   0  0  0  0  0  0  0  0  0  0  0  0
   -4.2724   -2.4597    0.3083 C   0  0  0  0  0  0  0  0  0  0  0  0
   -1.7777    0.0669    0.7834 C   0  0  0  0  0  0  0  0  0  0  0  0
   -0.4356    0.3038    1.1727 C   0  0  0  0  0  0  0  0  0  0  0  0
    0.4301    1.3682    0.4353 C   0  0  0  0  0  0  0  0  0  0  0  0
    1.7064    0.7726   -0.2161 C   0  0  0  0  0  0  0  0  0  0  0  0
    1.5776   -0.4728   -0.8892 C   0  0  0  0  0  0  0  0  0  0  0  0
    2.6478   -1.1133   -1.5380 C   0  0  0  0  0  0  0  0  0  0  0  0
    2.4472   -2.4530   -2.2288 C   0  0  0  0  0  0  0  0  0  0  0  0
    2.0772   -3.5470   -1.2229 C   0  0  0  0  0  0  0  0  0  0  0  0
    1.4019   -2.3629   -3.3456 C   0  0  0  0  0  0  0  0  0  0  0  0
    3.8869   -0.4787   -1.5151 C   0  0  0  0  0  0  0  0  0  0  0  0
    4.9550   -1.0717   -2.1272 O   0  0  0  0  0  0  0  0  0  0  0  0
    4.0508    0.7530   -0.8818 C   0  0  0  0  0  0  0  0  0  0  0  0
    2.9746    1.3993   -0.2402 C   0  0  0  0  0  0  0  0  0  0  0  0
    3.2627    2.7348    0.3923 C   0  0  0  0  0  0  0  0  0  0  0  0
    0.7256    2.3392    1.4808 O   0  0  0  0  0  0  0  0  0  0  0  0
    0.0847    3.5275    1.3097 C   0  0  0  0  0  0  0  0  0  0  0  0
    0.0823    4.4690    2.0768 O   0  0  0  0  0  0  0  0  0  0  0  0
   -0.5301    3.4783   -0.0033 C   0  0  0  0  0  0  0  0  0  0  0  0
   -1.2014    4.4914   -0.6681 C   0  0  0  0  0  0  0  0  0  0  0  0
   -1.6538    4.2276   -1.9604 C   0  0  0  0  0  0  0  0  0  0  0  0
   -1.4170    2.9767   -2.5518 C   0  0  0  0  0  0  0  0  0  0  0  0
   -0.7345    1.9736   -1.8543 C   0  0  0  0  0  0  0  0  0  0  0  0
   -0.3005    2.2356   -0.5582 C   0  0  0  0  0  0  0  0  0  0  0  0
    1.5883   -0.8053    3.7571 H   0  0  0  0  0  0  0  0  0  0  0  0
    2.1851   -0.8387    2.0978 H   0  0  0  0  0  0  0  0  0  0  0  0
    1.7822    0.7061    2.9060 H   0  0  0  0  0  0  0  0  0  0  0  0
   -0.3390   -2.0278    3.6805 H   0  0  0  0  0  0  0  0  0  0  0  0
   -2.3093   -2.9676    3.8040 H   0  0  0  0  0  0  0  0  0  0  0  0
   -4.1836   -0.3574    0.0748 H   0  0  0  0  0  0  0  0  0  0  0  0
   -5.0649   -1.4281    2.7981 H   0  0  0  0  0  0  0  0  0  0  0  0
   -4.8895    0.2804    2.3731 H   0  0  0  0  0  0  0  0  0  0  0  0
   -6.0752   -0.7291    1.5313 H   0  0  0  0  0  0  0  0  0  0  0  0
   -5.2609   -2.5058   -0.1622 H   0  0  0  0  0  0  0  0  0  0  0  0
   -3.5258   -2.6978   -0.4578 H   0  0  0  0  0  0  0  0  0  0  0  0
   -4.2350   -3.2471    1.0674 H   0  0  0  0  0  0  0  0  0  0  0  0
   -2.2200    0.6434   -0.0259 H   0  0  0  0  0  0  0  0  0  0  0  0
    0.6064   -0.9681   -0.9025 H   0  0  0  0  0  0  0  0  0  0  0  0
    3.3847   -2.7641   -2.7053 H   0  0  0  0  0  0  0  0  0  0  0  0
    2.0000   -4.5192   -1.7217 H   0  0  0  0  0  0  0  0  0  0  0  0
    2.8404   -3.6315   -0.4406 H   0  0  0  0  0  0  0  0  0  0  0  0
    1.1177   -3.3486   -0.7321 H   0  0  0  0  0  0  0  0  0  0  0  0
    0.4013   -2.1417   -2.9575 H   0  0  0  0  0  0  0  0  0  0  0  0
    1.3419   -3.3106   -3.8917 H   0  0  0  0  0  0  0  0  0  0  0  0
    1.6640   -1.5780   -4.0641 H   0  0  0  0  0  0  0  0  0  0  0  0
    5.7381   -0.5101   -2.0097 H   0  0  0  0  0  0  0  0  0  0  0  0
    5.0282    1.2301   -0.8867 H   0  0  0  0  0  0  0  0  0  0  0  0
    3.1845    2.6703    1.4813 H   0  0  0  0  0  0  0  0  0  0  0  0
    2.5899    3.5014   -0.0012 H   0  0  0  0  0  0  0  0  0  0  0  0
    4.2799    3.0756    0.1674 H   0  0  0  0  0  0  0  0  0  0  0  0
   -1.3578    5.4584   -0.1997 H   0  0  0  0  0  0  0  0  0  0  0  0
   -2.1836    4.9973   -2.5177 H   0  0  0  0  0  0  0  0  0  0  0  0
   -1.7664    2.7869   -3.5651 H   0  0  0  0  0  0  0  0  0  0  0  0
   -0.5575    1.0106   -2.3258 H   0  0  0  0  0  0  0  0  0  0  0  0
  1  2  1  0
  2  3  2  0
  3  4  1  0
  4  5  1  0
  4  6  2  0
  6  7  1  0
  7  8  1  0
  7  9  1  0
  6 10  1  0
 10 11  2  0
 11 12  1  0
 12 13  1  0
 13 14  2  0
 14 15  1  0
 15 16  1  0
 16 17  1  0
 16 18  1  0
 15 19  2  0
 19 20  1  0
 19 21  1  0
 21 22  2  0
 22 23  1  0
 12 24  1  0
 24 25  1  0
 25 26  2  0
 25 27  1  0
 27 28  2  0
 28 29  1  0
 29 30  2  0
 30 31  1  0
 31 32  2  0
 11  2  1  0
 32 12  1  0
 22 13  1  0
 32 27  1  0
  1 33  1  0
  1 34  1  0
  1 35  1  0
  3 36  1  0
  5 37  1  0
  7 38  1  0
  8 39  1  0
  8 40  1  0
  8 41  1  0
  9 42  1  0
  9 43  1  0
  9 44  1  0
 10 45  1  0
 14 46  1  0
 16 47  1  0
 17 48  1  0
 17 49  1  0
 17 50  1  0
 18 51  1  0
 18 52  1  0
 18 53  1  0
 20 54  1  0
 21 55  1  0
 23 56  1  0
 23 57  1  0
 23 58  1  0
 28 59  1  0
 29 60  1  0
 30 61  1  0
 31 62  1  0
M  END
$$$$
