
     RDKit          3D

 42 43  0  0  0  0  0  0  0  0999 V2000
   -4.8429    0.4918    3.1001 C   0  0  0  0  0  0  0  0  0  0  0  0
   -3.8037   -0.6109    3.3172 C   0  0  0  0  0  0  0  0  0  0  0  0
   -3.1583   -0.4875    4.6997 C   0  0  0  0  0  0  0  0  0  0  0  0
   -2.7610   -0.6201    2.2136 C   0  0  0  0  0  0  0  0  0  0  0  0
   -1.9138    0.4728    1.9896 C   0  0  0  0  0  0  0  0  0  0  0  0
   -0.9625    0.4373    0.9666 C   0  0  0  0  0  0  0  0  0  0  0  0
   -0.8369   -0.6859    0.1479 C   0  0  0  0  0  0  0  0  0  0  0  0
    0.1313   -0.5884   -0.8125 O   0  0  0  0  0  0  0  0  0  0  0  0
    0.2982   -1.7123   -1.6751 C   0  0  0  0  0  0  0  0  0  0  0  0
    1.4097   -1.4527   -2.6926 C   0  0  0  0  0  0  0  0  0  0  0  0
    1.9025   -2.3547   -3.3652 O   0  0  0  0  0  0  0  0  0  0  0  0
    1.7766   -0.1283   -2.8073 N   0  0  0  0  0  0  0  0  0  0  0  0
    2.9038    0.2910   -3.6205 C   0  0  0  0  0  0  0  0  0  0  0  0
    4.2306    0.1157   -2.8855 C   0  0  0  0  0  0  0  0  0  0  0  0
    4.3251    1.3363   -1.9745 C   0  0  0  0  0  0  0  0  0  0  0  0
    3.4912    2.4287   -2.6442 C   0  0  0  0  0  0  0  0  0  0  0  0
    2.8699    1.7925   -3.8867 C   0  0  0  0  0  0  0  0  0  0  0  0
   -1.6746   -1.7788    0.3625 C   0  0  0  0  0  0  0  0  0  0  0  0
   -2.6283   -1.7448    1.3872 C   0  0  0  0  0  0  0  0  0  0  0  0
   -4.3993    1.4914    3.1630 H   0  0  0  0  0  0  0  0  0  0  0  0
   -5.6325    0.4307    3.8569 H   0  0  0  0  0  0  0  0  0  0  0  0
   -5.3143    0.3971    2.1155 H   0  0  0  0  0  0  0  0  0  0  0  0
   -4.3414   -1.5682    3.2973 H   0  0  0  0  0  0  0  0  0  0  0  0
   -3.9162   -0.5669    5.4866 H   0  0  0  0  0  0  0  0  0  0  0  0
   -2.4231   -1.2838    4.8610 H   0  0  0  0  0  0  0  0  0  0  0  0
   -2.6450    0.4716    4.8285 H   0  0  0  0  0  0  0  0  0  0  0  0
   -1.9842    1.3640    2.6088 H   0  0  0  0  0  0  0  0  0  0  0  0
   -0.3146    1.2960    0.8105 H   0  0  0  0  0  0  0  0  0  0  0  0
   -0.6202   -1.9015   -2.2424 H   0  0  0  0  0  0  0  0  0  0  0  0
    0.5941   -2.5916   -1.0915 H   0  0  0  0  0  0  0  0  0  0  0  0
    1.4385    0.4834   -2.0695 H   0  0  0  0  0  0  0  0  0  0  0  0
    2.8888   -0.2835   -4.5528 H   0  0  0  0  0  0  0  0  0  0  0  0
    5.0573    0.1381   -3.6063 H   0  0  0  0  0  0  0  0  0  0  0  0
    4.3006   -0.8196   -2.3216 H   0  0  0  0  0  0  0  0  0  0  0  0
    3.9088    1.1062   -0.9868 H   0  0  0  0  0  0  0  0  0  0  0  0
    5.3642    1.6475   -1.8274 H   0  0  0  0  0  0  0  0  0  0  0  0
    2.7105    2.7758   -1.9577 H   0  0  0  0  0  0  0  0  0  0  0  0
    4.1014    3.2978   -2.9107 H   0  0  0  0  0  0  0  0  0  0  0  0
    3.4938    2.0257   -4.7584 H   0  0  0  0  0  0  0  0  0  0  0  0
    1.8634    2.1760   -4.0824 H   0  0  0  0  0  0  0  0  0  0  0  0
   -1.6175   -2.6763   -0.2445 H   0  0  0  0  0  0  0  0  0  0  0  0
   -3.2698   -2.6116    1.5337 H   0  0  0  0  0  0  0  0  0  0  0  0
  1  2  1  0
  2  3  1  0
  2  4  1  0
  4  5  2  0
  5  6  1  0
  6  7  2  0
  7  8  1  0
  8  9  1  0
  9 10  1  0
 10 11  2  0
 10 12  1  0
 12 13  1  0
 13 14  1  0
 14 15  1  0
 15 16  1  0
 16 17  1  0
  7 18  1  0
 18 19  2  0
 19  4  1  0
 17 13  1  0
  1 20  1  0
  1 21  1  0
  1 22  1  0
  2 23  1  0
  3 24  1  0
  3 25  1  0
  3 26  1  0
  5 27  1  0
  6 28  1  0
  9 29  1  0
  9 30  1  0
 12 31  1  0
 13 32  1  0
 14 33  1  0
 14 34  1  0
 15 35  1  0
 15 36  1  0
 16 37  1  0
 16 38  1  0
 17 39  1  0
 17 40  1  0
 18 41  1  0
 19 42  1  0
M  END
$$$$
