
     RDKit          3D

 50 50  0  0  0  0  0  0  0  0999 V2000
    5.5719    1.0051    2.0383 C   0  0  0  0  0  0  0  0  0  0  0  0
    6.6527    0.5316    1.3933 C   0  0  0  0  0  0  0  0  0  0  0  0
    7.6068   -0.4172    2.0685 C   0  0  0  0  0  0  0  0  0  0  0  0
    7.0015    0.9707   -0.0096 C   0  0  0  0  0  0  0  0  0  0  0  0
    6.7970   -0.3674   -1.2113 S   0  0  0  0  0  0  0  0  0  0  0  0
    5.0685   -0.4475   -1.3468 C   0  0  0  0  0  0  0  0  0  0  0  0
    4.4176   -1.5051   -1.7886 N   0  0  0  0  0  0  0  0  0  0  0  0
    3.0746   -1.1894   -1.7623 N   0  0  0  0  0  0  0  0  0  0  0  0
    2.9980    0.0452   -1.3170 C   0  0  0  0  0  0  0  0  0  0  0  0
    1.8157    0.9046   -1.0663 C   0  0  0  0  0  0  0  0  0  0  0  0
    0.5154    0.2582   -1.5470 C   0  0  0  0  0  0  0  0  0  0  0  0
   -0.7127    1.1565   -1.3732 C   0  0  0  0  0  0  0  0  0  0  0  0
   -1.0372    1.5731    0.0666 C   0  0  0  0  0  0  0  0  0  0  0  0
   -1.2509    0.4145    1.0419 C   0  0  0  0  0  0  0  0  0  0  0  0
   -2.3220   -0.4640    0.6408 N   0  0  0  0  0  0  0  0  0  0  0  0
   -3.6360   -0.1743    0.8496 C   0  0  0  0  0  0  0  0  0  0  0  0
   -4.0516    0.8125    1.4346 O   0  0  0  0  0  0  0  0  0  0  0  0
   -4.3853   -1.1524    0.2937 O   0  0  0  0  0  0  0  0  0  0  0  0
   -5.8336   -1.1032    0.3596 C   0  0  0  0  0  0  0  0  0  0  0  0
   -6.3840    0.1209   -0.3807 C   0  0  0  0  0  0  0  0  0  0  0  0
   -6.3003   -2.3702   -0.3733 C   0  0  0  0  0  0  0  0  0  0  0  0
   -6.3278   -1.1662    1.8092 C   0  0  0  0  0  0  0  0  0  0  0  0
    4.2223    0.5870   -1.0372 O   0  0  0  0  0  0  0  0  0  0  0  0
    4.8890    1.7069    1.5692 H   0  0  0  0  0  0  0  0  0  0  0  0
    5.3372    0.6986    3.0540 H   0  0  0  0  0  0  0  0  0  0  0  0
    7.6266   -1.3836    1.5552 H   0  0  0  0  0  0  0  0  0  0  0  0
    8.6195   -0.0007    2.0690 H   0  0  0  0  0  0  0  0  0  0  0  0
    7.3276   -0.6046    3.1110 H   0  0  0  0  0  0  0  0  0  0  0  0
    6.4125    1.8404   -0.3215 H   0  0  0  0  0  0  0  0  0  0  0  0
    8.0491    1.2918   -0.0326 H   0  0  0  0  0  0  0  0  0  0  0  0
    1.9587    1.8655   -1.5746 H   0  0  0  0  0  0  0  0  0  0  0  0
    1.7628    1.1077    0.0090 H   0  0  0  0  0  0  0  0  0  0  0  0
    0.6068    0.0161   -2.6140 H   0  0  0  0  0  0  0  0  0  0  0  0
    0.3558   -0.6983   -1.0353 H   0  0  0  0  0  0  0  0  0  0  0  0
   -1.5812    0.6423   -1.8030 H   0  0  0  0  0  0  0  0  0  0  0  0
   -0.5737    2.0659   -1.9712 H   0  0  0  0  0  0  0  0  0  0  0  0
   -0.2387    2.2177    0.4523 H   0  0  0  0  0  0  0  0  0  0  0  0
   -1.9420    2.1940    0.0408 H   0  0  0  0  0  0  0  0  0  0  0  0
   -1.4876    0.8194    2.0327 H   0  0  0  0  0  0  0  0  0  0  0  0
   -0.3458   -0.1920    1.1424 H   0  0  0  0  0  0  0  0  0  0  0  0
   -2.1348   -1.2873    0.0854 H   0  0  0  0  0  0  0  0  0  0  0  0
   -6.1448    1.0539    0.1381 H   0  0  0  0  0  0  0  0  0  0  0  0
   -5.9474    0.1978   -1.3828 H   0  0  0  0  0  0  0  0  0  0  0  0
   -7.4740    0.0711   -0.4781 H   0  0  0  0  0  0  0  0  0  0  0  0
   -5.9351   -2.3791   -1.4069 H   0  0  0  0  0  0  0  0  0  0  0  0
   -7.3923   -2.4511   -0.3919 H   0  0  0  0  0  0  0  0  0  0  0  0
   -5.8947   -3.2692    0.1053 H   0  0  0  0  0  0  0  0  0  0  0  0
   -5.8495   -1.9921    2.3483 H   0  0  0  0  0  0  0  0  0  0  0  0
   -7.4138   -1.3026    1.8546 H   0  0  0  0  0  0  0  0  0  0  0  0
   -6.0904   -0.2518    2.3618 H   0  0  0  0  0  0  0  0  0  0  0  0
  1  2  2  0
  2  3  1  0
  2  4  1  0
  4  5  1  0
  5  6  1  0
  6  7  2  0
  7  8  1  0
  8  9  2  0
  9 10  1  0
 10 11  1  0
 11 12  1  0
 12 13  1  0
 13 14  1  0
 14 15  1  0
 15 16  1  0
 16 17  2  0
 16 18  1  0
 18 19  1  0
 19 20  1  0
 19 21  1  0
 19 22  1  0
  9 23  1  0
 23  6  1  0
  1 24  1  0
  1 25  1  0
  3 26  1  0
  3 27  1  0
  3 28  1  0
  4 29  1  0
  4 30  1  0
 10 31  1  0
 10 32  1  0
 11 33  1  0
 11 34  1  0
 12 35  1  0
 12 36  1  0
 13 37  1  0
 13 38  1  0
 14 39  1  0
 14 40  1  0
 15 41  1  0
 20 42  1  0
 20 43  1  0
 20 44  1  0
 21 45  1  0
 21 46  1  0
 21 47  1  0
 22 48  1  0
 22 49  1  0
 22 50  1  0
M  END
$$$$
