
     RDKit          3D

 34 35  0  0  0  0  0  0  0  0999 V2000
   -1.9482   -3.1987    0.3804 O   0  0  0  0  0  0  0  0  0  0  0  0
   -2.8905   -2.5489   -0.1011 N   0  0  0  0  0  4  0  0  0  0  0  0
   -3.9860   -3.0309   -0.4248 O   0  0  0  0  0  1  0  0  0  0  0  0
   -2.7113   -1.1043   -0.2713 C   0  0  0  0  0  0  0  0  0  0  0  0
   -3.8513   -0.2932   -0.0959 C   0  0  0  0  0  0  0  0  0  0  0  0
   -3.7583    1.0956   -0.2408 C   0  0  0  0  0  0  0  0  0  0  0  0
   -4.9765    1.9720   -0.0773 C   0  0  0  0  0  0  0  0  0  0  0  0
   -5.7049    2.0617   -1.2224 F   0  0  0  0  0  0  0  0  0  0  0  0
   -5.8305    1.5124    0.8783 F   0  0  0  0  0  0  0  0  0  0  0  0
   -4.6727    3.2505    0.2786 F   0  0  0  0  0  0  0  0  0  0  0  0
   -2.5189    1.6434   -0.5862 C   0  0  0  0  0  0  0  0  0  0  0  0
   -1.3911    0.8266   -0.7617 C   0  0  0  0  0  0  0  0  0  0  0  0
   -1.4404   -0.5656   -0.5806 C   0  0  0  0  0  0  0  0  0  0  0  0
   -0.3298   -1.3765   -0.8433 N   0  0  0  0  0  0  0  0  0  0  0  0
    1.0443   -0.8620   -0.8280 C   0  0  0  0  0  0  0  0  0  0  0  0
    1.5160   -0.5390    0.5908 C   0  0  0  0  0  0  0  0  0  0  0  0
    2.9495   -0.0800    0.5858 C   0  0  0  0  0  0  0  0  0  0  0  0
    3.9626   -0.9011    1.0741 C   0  0  0  0  0  0  0  0  0  0  0  0
    5.2751   -0.4379    1.0432 C   0  0  0  0  0  0  0  0  0  0  0  0
    5.5405    0.8250    0.5289 C   0  0  0  0  0  0  0  0  0  0  0  0
    4.4761    1.5765    0.0629 C   0  0  0  0  0  0  0  0  0  0  0  0
    3.1927    1.1530    0.0780 N   0  0  0  0  0  0  0  0  0  0  0  0
   -4.8141   -0.7416    0.1524 H   0  0  0  0  0  0  0  0  0  0  0  0
   -2.4164    2.7190   -0.7330 H   0  0  0  0  0  0  0  0  0  0  0  0
   -0.4661    1.3200   -1.0522 H   0  0  0  0  0  0  0  0  0  0  0  0
   -0.3987   -2.2962   -0.3935 H   0  0  0  0  0  0  0  0  0  0  0  0
    1.1564   -0.0082   -1.5056 H   0  0  0  0  0  0  0  0  0  0  0  0
    1.6861   -1.6477   -1.2470 H   0  0  0  0  0  0  0  0  0  0  0  0
    1.3961   -1.4171    1.2376 H   0  0  0  0  0  0  0  0  0  0  0  0
    0.9015    0.2524    1.0360 H   0  0  0  0  0  0  0  0  0  0  0  0
    3.7426   -1.8857    1.4743 H   0  0  0  0  0  0  0  0  0  0  0  0
    6.0840   -1.0580    1.4191 H   0  0  0  0  0  0  0  0  0  0  0  0
    6.5515    1.2145    0.4925 H   0  0  0  0  0  0  0  0  0  0  0  0
    4.6307    2.5701   -0.3481 H   0  0  0  0  0  0  0  0  0  0  0  0
  1  2  2  0
  2  3  1  0
  2  4  1  0
  4  5  2  0
  5  6  1  0
  6  7  1  0
  7  8  1  0
  7  9  1  0
  7 10  1  0
  6 11  2  0
 11 12  1  0
 12 13  2  0
 13 14  1  0
 14 15  1  0
 15 16  1  0
 16 17  1  0
 17 18  2  0
 18 19  1  0
 19 20  2  0
 20 21  1  0
 21 22  2  0
 13  4  1  0
 22 17  1  0
  5 23  1  0
 11 24  1  0
 12 25  1  0
 14 26  1  0
 15 27  1  0
 15 28  1  0
 16 29  1  0
 16 30  1  0
 18 31  1  0
 19 32  1  0
 20 33  1  0
 21 34  1  0
M  CHG  2   2   1   3  -1
M  END
$$$$
