
     RDKit          3D

 41 42  0  0  0  0  0  0  0  0999 V2000
   -6.8539   -2.4562    1.9302 C   0  0  0  0  0  0  0  0  0  0  0  0
   -6.0197   -1.5136    2.5913 O   0  0  0  0  0  0  0  0  0  0  0  0
   -5.2353   -0.7227    1.7973 C   0  0  0  0  0  0  0  0  0  0  0  0
   -5.2253   -0.7111    0.4030 C   0  0  0  0  0  0  0  0  0  0  0  0
   -4.3637    0.1485   -0.2874 C   0  0  0  0  0  0  0  0  0  0  0  0
   -3.5065    1.0130    0.4059 C   0  0  0  0  0  0  0  0  0  0  0  0
   -2.5697    1.9226   -0.3454 C   0  0  0  0  0  0  0  0  0  0  0  0
   -1.3503    1.2049   -0.8765 C   0  0  0  0  0  0  0  0  0  0  0  0
   -1.3794    0.4211   -1.8195 O   0  0  0  0  0  0  0  0  0  0  0  0
   -0.2484    1.5880   -0.1473 O   0  0  0  0  0  0  0  0  0  0  0  0
    0.8921    0.9012   -0.6040 N   0  0  0  0  0  0  0  0  0  0  0  0
    1.9633    1.2679    0.0354 C   0  0  0  0  0  0  0  0  0  0  0  0
    1.9637    2.2361    1.0158 N   0  0  0  0  0  0  0  0  0  0  0  0
    3.2600    0.6103   -0.3376 C   0  0  0  0  0  0  0  0  0  0  0  0
    4.3733    0.6874    0.5056 C   0  0  0  0  0  0  0  0  0  0  0  0
    5.5754    0.0770    0.1338 C   0  0  0  0  0  0  0  0  0  0  0  0
    5.6801   -0.6222   -1.0718 C   0  0  0  0  0  0  0  0  0  0  0  0
    6.9088   -1.1739   -1.3072 O   0  0  0  0  0  0  0  0  0  0  0  0
    7.0555   -1.9240   -2.5071 C   0  0  0  0  0  0  0  0  0  0  0  0
    4.5676   -0.7074   -1.9092 C   0  0  0  0  0  0  0  0  0  0  0  0
    3.3627   -0.0950   -1.5427 C   0  0  0  0  0  0  0  0  0  0  0  0
   -3.5177    0.9953    1.8046 C   0  0  0  0  0  0  0  0  0  0  0  0
   -4.3793    0.1356    2.4911 C   0  0  0  0  0  0  0  0  0  0  0  0
   -7.3737   -3.0387    2.6975 H   0  0  0  0  0  0  0  0  0  0  0  0
   -6.2649   -3.1544    1.3253 H   0  0  0  0  0  0  0  0  0  0  0  0
   -7.6131   -1.9500    1.3245 H   0  0  0  0  0  0  0  0  0  0  0  0
   -5.8660   -1.3633   -0.1798 H   0  0  0  0  0  0  0  0  0  0  0  0
   -4.3584    0.1278   -1.3763 H   0  0  0  0  0  0  0  0  0  0  0  0
   -3.0880    2.3855   -1.1943 H   0  0  0  0  0  0  0  0  0  0  0  0
   -2.2606    2.7613    0.2910 H   0  0  0  0  0  0  0  0  0  0  0  0
    1.1018    2.7699    1.0244 H   0  0  0  0  0  0  0  0  0  0  0  0
    2.7775    2.8414    1.0222 H   0  0  0  0  0  0  0  0  0  0  0  0
    4.3192    1.1946    1.4636 H   0  0  0  0  0  0  0  0  0  0  0  0
    6.4387    0.1404    0.7934 H   0  0  0  0  0  0  0  0  0  0  0  0
    6.3783   -2.7850   -2.5186 H   0  0  0  0  0  0  0  0  0  0  0  0
    6.9100   -1.2911   -3.3883 H   0  0  0  0  0  0  0  0  0  0  0  0
    8.0799   -2.3076   -2.5385 H   0  0  0  0  0  0  0  0  0  0  0  0
    4.5966   -1.2462   -2.8512 H   0  0  0  0  0  0  0  0  0  0  0  0
    2.5044   -0.1743   -2.2076 H   0  0  0  0  0  0  0  0  0  0  0  0
   -2.8562    1.6427    2.3760 H   0  0  0  0  0  0  0  0  0  0  0  0
   -4.3790    0.1285    3.5786 H   0  0  0  0  0  0  0  0  0  0  0  0
  1  2  1  0
  2  3  1  0
  3  4  2  0
  4  5  1  0
  5  6  2  0
  6  7  1  0
  7  8  1  0
  8  9  2  0
  8 10  1  0
 10 11  1  0
 11 12  2  3
 12 13  1  0
 12 14  1  0
 14 15  2  0
 15 16  1  0
 16 17  2  0
 17 18  1  0
 18 19  1  0
 17 20  1  0
 20 21  2  0
  6 22  1  0
 22 23  2  0
 23  3  1  0
 21 14  1  0
  1 24  1  0
  1 25  1  0
  1 26  1  0
  4 27  1  0
  5 28  1  0
  7 29  1  0
  7 30  1  0
 13 31  1  0
 13 32  1  0
 15 33  1  0
 16 34  1  0
 19 35  1  0
 19 36  1  0
 19 37  1  0
 20 38  1  0
 21 39  1  0
 22 40  1  0
 23 41  1  0
M  END
$$$$
