
     RDKit          3D

 49 52  0  0  0  0  0  0  0  0999 V2000
    7.9216   -0.1672   -0.4642 C   0  0  0  0  0  0  0  0  0  0  0  0
    6.9611    0.2584   -1.5640 C   0  0  0  0  0  0  0  0  0  0  0  0
    5.5237    0.0392   -1.1686 C   0  0  0  0  0  0  0  0  0  0  0  0
    4.8060    1.0378   -0.5009 C   0  0  0  0  0  0  0  0  0  0  0  0
    3.4734    0.8303   -0.1172 C   0  0  0  0  0  0  0  0  0  0  0  0
    2.8233   -0.3805   -0.3903 C   0  0  0  0  0  0  0  0  0  0  0  0
    1.4237   -0.6660   -0.0200 C   0  0  0  0  0  0  0  0  0  0  0  0
    0.5970    0.4139    0.6553 C   0  0  0  0  0  0  0  0  0  0  0  0
   -0.8515    0.1545    0.7217 N   0  0  0  0  0  0  0  0  0  0  0  0
   -1.5046    0.4463   -0.5700 C   0  0  0  0  0  0  0  0  0  0  0  0
   -3.0052    0.3999   -0.5021 C   0  0  0  0  0  0  0  0  0  0  0  0
   -3.6920    0.4316    0.6545 C   0  0  0  0  0  0  0  0  0  0  0  0
   -5.1639    0.3635    0.6644 C   0  0  0  0  0  0  0  0  0  0  0  0
   -5.9275    1.3439    1.3111 C   0  0  0  0  0  0  0  0  0  0  0  0
   -7.3231    1.2679    1.3213 C   0  0  0  0  0  0  0  0  0  0  0  0
   -7.9700    0.2095    0.6870 C   0  0  0  0  0  0  0  0  0  0  0  0
   -7.2231   -0.7732    0.0414 C   0  0  0  0  0  0  0  0  0  0  0  0
   -5.8283   -0.6963    0.0301 C   0  0  0  0  0  0  0  0  0  0  0  0
   -2.9630    0.5639    1.9682 C   0  0  0  0  0  0  0  0  0  0  0  0
   -1.4833    0.9505    1.7864 C   0  0  0  0  0  0  0  0  0  0  0  0
    0.9501   -1.8945   -0.2895 C   0  0  0  0  0  0  0  0  0  0  0  0
    1.7220   -2.9482   -0.9603 C   0  0  0  0  0  0  0  0  0  0  0  0
    1.2277   -4.0479   -1.1807 O   0  0  0  0  0  0  0  0  0  0  0  0
    3.0137   -2.6313   -1.3354 O   0  0  0  0  0  0  0  0  0  0  0  0
    3.5633   -1.3694   -1.0419 C   0  0  0  0  0  0  0  0  0  0  0  0
    4.8913   -1.1779   -1.4319 C   0  0  0  0  0  0  0  0  0  0  0  0
    7.7487    0.4009    0.4562 H   0  0  0  0  0  0  0  0  0  0  0  0
    8.9562    0.0032   -0.7785 H   0  0  0  0  0  0  0  0  0  0  0  0
    7.8094   -1.2309   -0.2282 H   0  0  0  0  0  0  0  0  0  0  0  0
    7.1798   -0.2986   -2.4832 H   0  0  0  0  0  0  0  0  0  0  0  0
    7.1196    1.3164   -1.8057 H   0  0  0  0  0  0  0  0  0  0  0  0
    5.2812    1.9896   -0.2698 H   0  0  0  0  0  0  0  0  0  0  0  0
    2.9716    1.6402    0.4046 H   0  0  0  0  0  0  0  0  0  0  0  0
    0.9947    0.4993    1.6763 H   0  0  0  0  0  0  0  0  0  0  0  0
    0.7621    1.3855    0.1724 H   0  0  0  0  0  0  0  0  0  0  0  0
   -1.1846   -0.2900   -1.3154 H   0  0  0  0  0  0  0  0  0  0  0  0
   -1.2185    1.4371   -0.9466 H   0  0  0  0  0  0  0  0  0  0  0  0
   -3.5256    0.3465   -1.4550 H   0  0  0  0  0  0  0  0  0  0  0  0
   -5.4459    2.1864    1.8003 H   0  0  0  0  0  0  0  0  0  0  0  0
   -7.9040    2.0373    1.8230 H   0  0  0  0  0  0  0  0  0  0  0  0
   -9.0551    0.1502    0.6960 H   0  0  0  0  0  0  0  0  0  0  0  0
   -7.7238   -1.6024   -0.4513 H   0  0  0  0  0  0  0  0  0  0  0  0
   -5.2605   -1.4793   -0.4680 H   0  0  0  0  0  0  0  0  0  0  0  0
   -3.0239   -0.3968    2.4960 H   0  0  0  0  0  0  0  0  0  0  0  0
   -3.4311    1.3168    2.6118 H   0  0  0  0  0  0  0  0  0  0  0  0
   -1.4006    2.0241    1.5682 H   0  0  0  0  0  0  0  0  0  0  0  0
   -0.9765    0.7773    2.7439 H   0  0  0  0  0  0  0  0  0  0  0  0
   -0.0593   -2.1894   -0.0225 H   0  0  0  0  0  0  0  0  0  0  0  0
    5.4237   -1.9820   -1.9341 H   0  0  0  0  0  0  0  0  0  0  0  0
  1  2  1  0
  2  3  1  0
  3  4  2  0
  4  5  1  0
  5  6  2  0
  6  7  1  0
  7  8  1  0
  8  9  1  0
  9 10  1  0
 10 11  1  0
 11 12  2  0
 12 13  1  0
 13 14  2  0
 14 15  1  0
 15 16  2  0
 16 17  1  0
 17 18  2  0
 12 19  1  0
 19 20  1  0
  7 21  2  0
 21 22  1  0
 22 23  2  0
 22 24  1  0
 24 25  1  0
 25 26  2  0
 26  3  1  0
 25  6  1  0
 20  9  1  0
 18 13  1  0
  1 27  1  0
  1 28  1  0
  1 29  1  0
  2 30  1  0
  2 31  1  0
  4 32  1  0
  5 33  1  0
  8 34  1  0
  8 35  1  0
 10 36  1  0
 10 37  1  0
 11 38  1  0
 14 39  1  0
 15 40  1  0
 16 41  1  0
 17 42  1  0
 18 43  1  0
 19 44  1  0
 19 45  1  0
 20 46  1  0
 20 47  1  0
 21 48  1  0
 26 49  1  0
M  END
$$$$
