
     RDKit          3D

 33 35  0  0  0  0  0  0  0  0999 V2000
    5.7855   -0.9135   -0.0036 O   0  0  0  0  0  0  0  0  0  0  0  0
    4.4204   -1.3083    0.0894 C   0  0  0  0  0  0  0  0  0  0  0  0
    3.5010   -0.0951   -0.0508 C   0  0  0  0  0  0  0  0  0  0  0  0
    2.1164   -0.5163    0.1432 N   0  0  0  0  0  0  0  0  0  0  0  0
    1.1797    0.3275   -0.1271 C   0  0  0  0  0  0  0  0  0  0  0  0
    1.3561    1.7558   -0.6436 C   0  0  0  0  0  0  0  0  0  0  0  0
    0.1741    2.6680   -0.2670 C   0  0  0  0  0  0  0  0  0  0  0  0
   -1.1870    2.0849   -0.6864 C   0  0  0  0  0  0  0  0  0  0  0  0
   -1.2988    0.6690   -0.2345 C   0  0  0  0  0  0  0  0  0  0  0  0
   -0.1856   -0.1098    0.0124 C   0  0  0  0  0  0  0  0  0  0  0  0
   -0.6142   -1.3469    0.4075 N   0  0  0  0  0  0  0  0  0  0  0  0
   -1.9908   -1.3901    0.4174 C   0  0  0  0  0  0  0  0  0  0  0  0
   -2.8556   -2.4401    0.7483 C   0  0  0  0  0  0  0  0  0  0  0  0
   -4.2300   -2.1960    0.6655 C   0  0  0  0  0  0  0  0  0  0  0  0
   -4.7095   -0.9504    0.2671 C   0  0  0  0  0  0  0  0  0  0  0  0
   -6.4100   -0.6864    0.1765 Cl  0  0  0  0  0  0  0  0  0  0  0  0
   -3.8373    0.0919   -0.0615 C   0  0  0  0  0  0  0  0  0  0  0  0
   -2.4486   -0.1312    0.0153 C   0  0  0  0  0  0  0  0  0  0  0  0
    5.9890   -0.3972    0.7950 H   0  0  0  0  0  0  0  0  0  0  0  0
    4.2678   -1.8145    1.0487 H   0  0  0  0  0  0  0  0  0  0  0  0
    4.2198   -2.0341   -0.7054 H   0  0  0  0  0  0  0  0  0  0  0  0
    3.6574    0.3500   -1.0410 H   0  0  0  0  0  0  0  0  0  0  0  0
    3.7826    0.6541    0.6988 H   0  0  0  0  0  0  0  0  0  0  0  0
    2.2750    2.1932   -0.2426 H   0  0  0  0  0  0  0  0  0  0  0  0
    1.4562    1.7046   -1.7343 H   0  0  0  0  0  0  0  0  0  0  0  0
    0.3077    3.6550   -0.7240 H   0  0  0  0  0  0  0  0  0  0  0  0
    0.1780    2.8150    0.8214 H   0  0  0  0  0  0  0  0  0  0  0  0
   -1.9926    2.6920   -0.2591 H   0  0  0  0  0  0  0  0  0  0  0  0
   -1.2845    2.1220   -1.7779 H   0  0  0  0  0  0  0  0  0  0  0  0
    0.0056   -2.1088    0.6491 H   0  0  0  0  0  0  0  0  0  0  0  0
   -2.4795   -3.4101    1.0578 H   0  0  0  0  0  0  0  0  0  0  0  0
   -4.9261   -2.9929    0.9163 H   0  0  0  0  0  0  0  0  0  0  0  0
   -4.2220    1.0582   -0.3710 H   0  0  0  0  0  0  0  0  0  0  0  0
  1  2  1  0
  2  3  1  0
  3  4  1  0
  4  5  2  3
  5  6  1  0
  6  7  1  0
  7  8  1  0
  8  9  1  0
  9 10  2  0
 10 11  1  0
 11 12  1  0
 12 13  2  0
 13 14  1  0
 14 15  2  0
 15 16  1  0
 15 17  1  0
 17 18  2  0
 10  5  1  0
 18 12  1  0
 18  9  1  0
  1 19  1  0
  2 20  1  0
  2 21  1  0
  3 22  1  0
  3 23  1  0
  6 24  1  0
  6 25  1  0
  7 26  1  0
  7 27  1  0
  8 28  1  0
  8 29  1  0
 11 30  1  0
 13 31  1  0
 14 32  1  0
 17 33  1  0
M  END
$$$$
