
     RDKit          3D

 51 53  0  0  0  0  0  0  0  0999 V2000
   -0.5314    5.9607   -0.5461 C   0  0  0  0  0  0  0  0  0  0  0  0
   -1.3205    4.7568   -1.0400 C   0  0  0  0  0  0  0  0  0  0  0  0
   -0.7178    4.2006   -2.3289 C   0  0  0  0  0  0  0  0  0  0  0  0
   -1.6548    2.7604   -2.9491 S   0  0  0  0  0  0  0  0  0  0  0  0
   -1.1044    1.4693   -1.8396 C   0  0  0  0  0  0  0  0  0  0  0  0
   -1.7716    0.2635   -1.8521 C   0  0  0  0  0  0  0  0  0  0  0  0
   -1.3241   -0.7239   -0.9976 C   0  0  0  0  0  0  0  0  0  0  0  0
   -1.9530   -1.9613   -0.9351 N   0  0  0  0  0  0  0  0  0  0  0  0
   -2.4629   -2.5898   -2.1670 C   0  0  0  0  0  0  0  0  0  0  0  0
   -2.0312   -4.0721   -2.2674 C   0  0  0  0  0  0  0  0  0  0  0  0
   -2.4548   -4.9025   -1.1208 N   0  0  0  0  0  0  0  0  0  0  0  0
   -1.6700   -6.1325   -1.0598 C   0  0  0  0  0  0  0  0  0  0  0  0
   -2.3910   -4.1460    0.1494 C   0  0  0  0  0  0  0  0  0  0  0  0
   -1.5029   -2.8811    0.1215 C   0  0  0  0  0  0  0  0  0  0  0  0
   -0.2907   -0.4847   -0.1723 N   0  0  0  0  0  0  0  0  0  0  0  0
    0.3121    0.7174   -0.2259 C   0  0  0  0  0  0  0  0  0  0  0  0
    1.4537    0.9577    0.6810 C   0  0  0  0  0  0  0  0  0  0  0  0
    2.1313    2.1901    0.7028 C   0  0  0  0  0  0  0  0  0  0  0  0
    3.2134    2.4140    1.5627 C   0  0  0  0  0  0  0  0  0  0  0  0
    3.6539    1.4140    2.4283 C   0  0  0  0  0  0  0  0  0  0  0  0
    4.7186    1.7612    3.2124 O   0  0  0  0  0  0  0  0  0  0  0  0
    5.2134    0.7665    4.1001 C   0  0  0  0  0  0  0  0  0  0  0  0
    2.9993    0.1852    2.4276 C   0  0  0  0  0  0  0  0  0  0  0  0
    1.9154   -0.0362    1.5649 C   0  0  0  0  0  0  0  0  0  0  0  0
   -0.0541    1.7121   -1.0463 N   0  0  0  0  0  0  0  0  0  0  0  0
    0.5066    5.6870   -0.3301 H   0  0  0  0  0  0  0  0  0  0  0  0
   -0.9771    6.3536    0.3732 H   0  0  0  0  0  0  0  0  0  0  0  0
   -0.5295    6.7625   -1.2917 H   0  0  0  0  0  0  0  0  0  0  0  0
   -2.3604    5.0615   -1.2103 H   0  0  0  0  0  0  0  0  0  0  0  0
   -1.3285    3.9996   -0.2483 H   0  0  0  0  0  0  0  0  0  0  0  0
   -0.7650    4.9700   -3.1086 H   0  0  0  0  0  0  0  0  0  0  0  0
    0.3404    3.9470   -2.2059 H   0  0  0  0  0  0  0  0  0  0  0  0
   -2.6303    0.1125   -2.4921 H   0  0  0  0  0  0  0  0  0  0  0  0
   -3.5575   -2.5200   -2.1680 H   0  0  0  0  0  0  0  0  0  0  0  0
   -2.0986   -2.0827   -3.0689 H   0  0  0  0  0  0  0  0  0  0  0  0
   -2.4503   -4.5005   -3.1856 H   0  0  0  0  0  0  0  0  0  0  0  0
   -0.9373   -4.0958   -2.3709 H   0  0  0  0  0  0  0  0  0  0  0  0
   -0.6101   -5.9373   -0.8597 H   0  0  0  0  0  0  0  0  0  0  0  0
   -1.7483   -6.6870   -2.0017 H   0  0  0  0  0  0  0  0  0  0  0  0
   -2.0534   -6.7933   -0.2748 H   0  0  0  0  0  0  0  0  0  0  0  0
   -2.0830   -4.7888    0.9835 H   0  0  0  0  0  0  0  0  0  0  0  0
   -3.4180   -3.8332    0.3796 H   0  0  0  0  0  0  0  0  0  0  0  0
   -1.5738   -2.3936    1.1021 H   0  0  0  0  0  0  0  0  0  0  0  0
   -0.4566   -3.1723   -0.0406 H   0  0  0  0  0  0  0  0  0  0  0  0
    1.8194    2.9970    0.0419 H   0  0  0  0  0  0  0  0  0  0  0  0
    3.7152    3.3785    1.5534 H   0  0  0  0  0  0  0  0  0  0  0  0
    6.0619    1.1949    4.6423 H   0  0  0  0  0  0  0  0  0  0  0  0
    4.4551    0.4837    4.8379 H   0  0  0  0  0  0  0  0  0  0  0  0
    5.5770   -0.1083    3.5505 H   0  0  0  0  0  0  0  0  0  0  0  0
    3.3007   -0.6256    3.0820 H   0  0  0  0  0  0  0  0  0  0  0  0
    1.4253   -1.0087    1.5885 H   0  0  0  0  0  0  0  0  0  0  0  0
  1  2  1  0
  2  3  1  0
  3  4  1  0
  4  5  1  0
  5  6  2  0
  6  7  1  0
  7  8  1  0
  8  9  1  0
  9 10  1  0
 10 11  1  0
 11 12  1  0
 11 13  1  0
 13 14  1  0
  7 15  2  0
 15 16  1  0
 16 17  1  0
 17 18  2  0
 18 19  1  0
 19 20  2  0
 20 21  1  0
 21 22  1  0
 20 23  1  0
 23 24  2  0
 16 25  2  0
 25  5  1  0
 14  8  1  0
 24 17  1  0
  1 26  1  0
  1 27  1  0
  1 28  1  0
  2 29  1  0
  2 30  1  0
  3 31  1  0
  3 32  1  0
  6 33  1  0
  9 34  1  0
  9 35  1  0
 10 36  1  0
 10 37  1  0
 12 38  1  0
 12 39  1  0
 12 40  1  0
 13 41  1  0
 13 42  1  0
 14 43  1  0
 14 44  1  0
 18 45  1  0
 19 46  1  0
 22 47  1  0
 22 48  1  0
 22 49  1  0
 23 50  1  0
 24 51  1  0
M  END
$$$$
