
     RDKit          3D

 54 56  0  0  0  0  0  0  0  0999 V2000
   -4.9076    0.3771    3.1390 C   0  0  0  0  0  0  0  0  0  0  0  0
   -4.8628   -0.4436    1.8749 C   0  0  0  0  0  0  0  0  0  0  0  0
   -6.0056   -1.2170    1.6022 C   0  0  0  0  0  0  0  0  0  0  0  0
   -6.1225   -1.9249    0.4158 C   0  0  0  0  0  0  0  0  0  0  0  0
   -5.0986   -1.8634   -0.5198 C   0  0  0  0  0  0  0  0  0  0  0  0
   -3.9194   -1.1212   -0.2839 C   0  0  0  0  0  0  0  0  0  0  0  0
   -2.8768   -1.1799   -1.4017 C   0  0  0  0  0  0  0  0  0  0  0  0
   -1.5636   -1.8348   -0.9705 C   0  0  0  0  0  0  0  0  0  0  0  0
   -2.6691    0.1622   -2.1099 C   0  0  0  0  0  0  0  0  0  0  0  0
   -3.7841   -0.4372    0.9546 C   0  0  0  0  0  0  0  0  0  0  0  0
   -2.6050    0.3041    1.2078 N   0  0  0  0  0  0  0  0  0  0  0  0
   -1.9103    0.3366    2.4093 C   0  0  0  0  0  0  0  0  0  0  0  0
   -2.1493   -0.3417    3.4047 O   0  0  0  0  0  0  0  0  0  0  0  0
   -0.7486    1.3204    2.3969 C   0  0  0  0  0  0  0  0  0  0  0  0
    0.3952    0.7598    1.6077 C   0  0  0  0  0  0  0  0  0  0  0  0
    1.2313   -0.2874    1.9397 C   0  0  0  0  0  0  0  0  0  0  0  0
    2.1832   -0.5591    0.9160 C   0  0  0  0  0  0  0  0  0  0  0  0
    2.0577    0.2972   -0.1612 C   0  0  0  0  0  0  0  0  0  0  0  0
    2.9421    0.3808   -1.7043 S   0  0  0  0  0  6  0  0  0  0  0  0
    2.7465    1.7036   -2.2553 O   0  0  0  0  0  0  0  0  0  0  0  0
    2.5274   -0.8071   -2.4194 O   0  0  0  0  0  0  0  0  0  0  0  0
    4.6006    0.2182   -1.3358 N   0  0  0  0  0  0  0  0  0  0  0  0
    5.1515    1.2903   -0.4418 C   0  0  0  0  0  0  0  0  0  0  0  0
    6.6778    1.3513   -0.5566 C   0  0  0  0  0  0  0  0  0  0  0  0
    7.1255    1.7021   -1.8727 O   0  0  0  0  0  0  0  0  0  0  0  0
    6.2412    1.2569   -2.9122 C   0  0  0  0  0  0  0  0  0  0  0  0
    5.4683   -0.0120   -2.5408 C   0  0  0  0  0  0  0  0  0  0  0  0
    0.8007    1.4268    0.0830 S   0  0  0  0  0  0  0  0  0  0  0  0
   -4.5611   -0.2117    3.9927 H   0  0  0  0  0  0  0  0  0  0  0  0
   -5.9344    0.6996    3.3495 H   0  0  0  0  0  0  0  0  0  0  0  0
   -4.3241    1.2975    3.0511 H   0  0  0  0  0  0  0  0  0  0  0  0
   -6.8285   -1.2463    2.3143 H   0  0  0  0  0  0  0  0  0  0  0  0
   -7.0154   -2.5094    0.2131 H   0  0  0  0  0  0  0  0  0  0  0  0
   -5.2257   -2.4166   -1.4483 H   0  0  0  0  0  0  0  0  0  0  0  0
   -3.2733   -1.8447   -2.1825 H   0  0  0  0  0  0  0  0  0  0  0  0
   -0.8972   -1.9649   -1.8289 H   0  0  0  0  0  0  0  0  0  0  0  0
   -1.7491   -2.8260   -0.5385 H   0  0  0  0  0  0  0  0  0  0  0  0
   -1.0238   -1.2515   -0.2247 H   0  0  0  0  0  0  0  0  0  0  0  0
   -2.1362    0.8962   -1.5020 H   0  0  0  0  0  0  0  0  0  0  0  0
   -2.0835    0.0202   -3.0258 H   0  0  0  0  0  0  0  0  0  0  0  0
   -3.6308    0.6056   -2.3952 H   0  0  0  0  0  0  0  0  0  0  0  0
   -2.0353    0.5277    0.4058 H   0  0  0  0  0  0  0  0  0  0  0  0
   -1.0990    2.2802    1.9988 H   0  0  0  0  0  0  0  0  0  0  0  0
   -0.4359    1.5023    3.4317 H   0  0  0  0  0  0  0  0  0  0  0  0
    1.1447   -0.8512    2.8634 H   0  0  0  0  0  0  0  0  0  0  0  0
    2.9169   -1.3559    0.9491 H   0  0  0  0  0  0  0  0  0  0  0  0
    4.7343    2.2648   -0.7159 H   0  0  0  0  0  0  0  0  0  0  0  0
    4.8735    1.0617    0.5914 H   0  0  0  0  0  0  0  0  0  0  0  0
    7.1261    0.3862   -0.2940 H   0  0  0  0  0  0  0  0  0  0  0  0
    7.0803    2.0972    0.1357 H   0  0  0  0  0  0  0  0  0  0  0  0
    6.8516    1.0789   -3.8043 H   0  0  0  0  0  0  0  0  0  0  0  0
    5.5538    2.0785   -3.1445 H   0  0  0  0  0  0  0  0  0  0  0  0
    6.1651   -0.8199   -2.2838 H   0  0  0  0  0  0  0  0  0  0  0  0
    4.8811   -0.3566   -3.3980 H   0  0  0  0  0  0  0  0  0  0  0  0
  1  2  1  0
  2  3  2  0
  3  4  1  0
  4  5  2  0
  5  6  1  0
  6  7  1  0
  7  8  1  0
  7  9  1  0
  6 10  2  0
 10 11  1  0
 11 12  1  0
 12 13  2  0
 12 14  1  0
 14 15  1  0
 15 16  2  0
 16 17  1  0
 17 18  2  0
 18 19  1  0
 19 20  2  0
 19 21  2  0
 19 22  1  0
 22 23  1  0
 23 24  1  0
 24 25  1  0
 25 26  1  0
 26 27  1  0
 18 28  1  0
 10  2  1  0
 28 15  1  0
 27 22  1  0
  1 29  1  0
  1 30  1  0
  1 31  1  0
  3 32  1  0
  4 33  1  0
  5 34  1  0
  7 35  1  0
  8 36  1  0
  8 37  1  0
  8 38  1  0
  9 39  1  0
  9 40  1  0
  9 41  1  0
 11 42  1  0
 14 43  1  0
 14 44  1  0
 16 45  1  0
 17 46  1  0
 23 47  1  0
 23 48  1  0
 24 49  1  0
 24 50  1  0
 26 51  1  0
 26 52  1  0
 27 53  1  0
 27 54  1  0
M  END
$$$$
