
     RDKit          3D

 47 50  0  0  0  0  0  0  0  0999 V2000
    6.6189    2.9191    0.8968 C   0  0  0  0  0  0  0  0  0  0  0  0
    5.3354    2.1493    0.7057 C   0  0  0  0  0  0  0  0  0  0  0  0
    4.2668    2.6159    1.0781 O   0  0  0  0  0  0  0  0  0  0  0  0
    5.5469    0.9408    0.0675 N   0  0  0  0  0  0  0  0  0  0  0  0
    4.5894   -0.0372   -0.2793 C   0  0  0  0  0  0  0  0  0  0  0  0
    5.0725   -1.1776   -0.9341 C   0  0  0  0  0  0  0  0  0  0  0  0
    4.2053   -2.2001   -1.3124 C   0  0  0  0  0  0  0  0  0  0  0  0
    2.8442   -2.0899   -1.0383 C   0  0  0  0  0  0  0  0  0  0  0  0
    2.3378   -0.9583   -0.3867 C   0  0  0  0  0  0  0  0  0  0  0  0
    0.9466   -0.9415   -0.1461 N   0  0  0  0  0  0  0  0  0  0  0  0
    0.2045    0.0638    0.4405 C   0  0  0  0  0  0  0  0  0  0  0  0
    0.5775    1.1676    0.8080 O   0  0  0  0  0  0  0  0  0  0  0  0
   -1.2378   -0.2467    0.5661 C   0  0  0  0  0  0  0  0  0  0  0  0
   -2.1102    0.6226   -0.0911 C   0  0  0  0  0  0  0  0  0  0  0  0
   -3.4673    0.3580   -0.0475 C   0  0  0  0  0  0  0  0  0  0  0  0
   -4.4784    1.2041   -0.7055 C   0  0  0  0  0  0  0  0  0  0  0  0
   -4.2939    2.5736   -0.9522 C   0  0  0  0  0  0  0  0  0  0  0  0
   -5.2860    3.3238   -1.5855 C   0  0  0  0  0  0  0  0  0  0  0  0
   -6.4539    2.6861   -1.9618 C   0  0  0  0  0  0  0  0  0  0  0  0
   -6.6883    1.3776   -1.7456 N   0  0  0  0  0  0  0  0  0  0  0  0
   -5.7050    0.6785   -1.1209 C   0  0  0  0  0  0  0  0  0  0  0  0
   -3.9461   -0.7306    0.6056 N   0  0  0  0  0  0  0  0  0  0  0  0
   -3.1103   -1.5445    1.2707 C   0  0  0  0  0  0  0  0  0  0  0  0
   -3.6528   -2.6221    1.9588 C   0  0  0  0  0  0  0  0  0  0  0  0
   -2.8586   -3.5081    2.6916 C   0  0  0  0  0  0  0  0  0  0  0  0
   -1.4878   -3.3078    2.7457 C   0  0  0  0  0  0  0  0  0  0  0  0
   -0.4969   -4.3810    3.6509 Cl  0  0  0  0  0  0  0  0  0  0  0  0
   -0.9140   -2.2377    2.0643 C   0  0  0  0  0  0  0  0  0  0  0  0
   -1.7178   -1.3501    1.3023 C   0  0  0  0  0  0  0  0  0  0  0  0
    3.2182    0.0643   -0.0085 C   0  0  0  0  0  0  0  0  0  0  0  0
    7.4253    2.2538    1.2187 H   0  0  0  0  0  0  0  0  0  0  0  0
    6.4764    3.6795    1.6702 H   0  0  0  0  0  0  0  0  0  0  0  0
    6.8938    3.4063   -0.0424 H   0  0  0  0  0  0  0  0  0  0  0  0
    6.5030    0.7317   -0.1892 H   0  0  0  0  0  0  0  0  0  0  0  0
    6.1305   -1.2864   -1.1580 H   0  0  0  0  0  0  0  0  0  0  0  0
    4.5899   -3.0813   -1.8192 H   0  0  0  0  0  0  0  0  0  0  0  0
    2.1872   -2.9008   -1.3422 H   0  0  0  0  0  0  0  0  0  0  0  0
    0.4361   -1.7540   -0.4702 H   0  0  0  0  0  0  0  0  0  0  0  0
   -1.7115    1.4733   -0.6354 H   0  0  0  0  0  0  0  0  0  0  0  0
   -3.3855    3.0829   -0.6392 H   0  0  0  0  0  0  0  0  0  0  0  0
   -5.1495    4.3830   -1.7740 H   0  0  0  0  0  0  0  0  0  0  0  0
   -7.2551    3.2268   -2.4570 H   0  0  0  0  0  0  0  0  0  0  0  0
   -5.9432   -0.3717   -0.9625 H   0  0  0  0  0  0  0  0  0  0  0  0
   -4.7306   -2.7736    1.9312 H   0  0  0  0  0  0  0  0  0  0  0  0
   -3.3217   -4.3372    3.2201 H   0  0  0  0  0  0  0  0  0  0  0  0
    0.1607   -2.0845    2.1446 H   0  0  0  0  0  0  0  0  0  0  0  0
    2.8354    0.9400    0.5020 H   0  0  0  0  0  0  0  0  0  0  0  0
  1  2  1  0
  2  3  2  0
  2  4  1  0
  4  5  1  0
  5  6  2  0
  6  7  1  0
  7  8  2  0
  8  9  1  0
  9 10  1  0
 10 11  1  0
 11 12  2  0
 11 13  1  0
 13 14  2  0
 14 15  1  0
 15 16  1  0
 16 17  2  0
 17 18  1  0
 18 19  2  0
 19 20  1  0
 20 21  2  0
 15 22  2  0
 22 23  1  0
 23 24  2  0
 24 25  1  0
 25 26  2  0
 26 27  1  0
 26 28  1  0
 28 29  2  0
  9 30  2  0
 30  5  1  0
 29 13  1  0
 21 16  1  0
 29 23  1  0
  1 31  1  0
  1 32  1  0
  1 33  1  0
  4 34  1  0
  6 35  1  0
  7 36  1  0
  8 37  1  0
 10 38  1  0
 14 39  1  0
 17 40  1  0
 18 41  1  0
 19 42  1  0
 21 43  1  0
 24 44  1  0
 25 45  1  0
 28 46  1  0
 30 47  1  0
M  END
$$$$
