
     RDKit          3D

 48 51  0  0  0  0  0  0  0  0999 V2000
    8.9422   -0.3951   -0.6660 C   0  0  0  0  0  0  0  0  0  0  0  0
    8.2700    0.6673   -0.0014 O   0  0  0  0  0  0  0  0  0  0  0  0
    6.9038    0.6262    0.0012 C   0  0  0  0  0  0  0  0  0  0  0  0
    6.2876    1.6799    0.6755 C   0  0  0  0  0  0  0  0  0  0  0  0
    4.8919    1.7625    0.7552 C   0  0  0  0  0  0  0  0  0  0  0  0
    4.0697    0.7930    0.1571 C   0  0  0  0  0  0  0  0  0  0  0  0
    2.5947    0.8589    0.2225 C   0  0  0  0  0  0  0  0  0  0  0  0
    1.8886    2.0570    0.2657 C   0  0  0  0  0  0  0  0  0  0  0  0
    0.4948    2.0262    0.3236 C   0  0  0  0  0  0  0  0  0  0  0  0
   -0.1873    0.8031    0.3340 C   0  0  0  0  0  0  0  0  0  0  0  0
   -1.6421    0.7816    0.3858 C   0  0  0  0  0  0  0  0  0  0  0  0
   -2.3704    1.7887    0.8992 N   0  0  0  0  0  0  0  0  0  0  0  0
   -3.6872    1.3659    0.7295 O   0  0  0  0  0  0  0  0  0  0  0  0
   -3.6376    0.1523    0.1077 C   0  0  0  0  0  0  0  0  0  0  0  0
   -4.8942   -0.5438   -0.1760 C   0  0  0  0  0  0  0  0  0  0  0  0
   -4.8061   -1.8949   -0.5712 C   0  0  0  0  0  0  0  0  0  0  0  0
   -5.9461   -2.6447   -0.8577 C   0  0  0  0  0  0  0  0  0  0  0  0
   -7.1985   -2.0540   -0.7571 C   0  0  0  0  0  0  0  0  0  0  0  0
   -7.3118   -0.7156   -0.3741 C   0  0  0  0  0  0  0  0  0  0  0  0
   -6.1717    0.0500   -0.0827 C   0  0  0  0  0  0  0  0  0  0  0  0
   -6.2256    1.3717    0.2776 O   0  0  0  0  0  0  0  0  0  0  0  0
   -7.5024    1.9769    0.4323 C   0  0  0  0  0  0  0  0  0  0  0  0
   -2.4041   -0.2430   -0.1262 N   0  0  0  0  0  0  0  0  0  0  0  0
    0.5943   -0.3495    0.2906 C   0  0  0  0  0  0  0  0  0  0  0  0
   -0.0316   -1.5788    0.3501 O   0  0  0  0  0  0  0  0  0  0  0  0
    0.8593   -2.6857    0.2838 C   0  0  0  0  0  0  0  0  0  0  0  0
    1.9527   -0.3356    0.2297 N   0  0  0  0  0  0  0  0  0  0  0  0
    4.7123   -0.2661   -0.5104 C   0  0  0  0  0  0  0  0  0  0  0  0
    6.1094   -0.3507   -0.5918 C   0  0  0  0  0  0  0  0  0  0  0  0
    8.6969   -0.4112   -1.7330 H   0  0  0  0  0  0  0  0  0  0  0  0
    8.7218   -1.3584   -0.1942 H   0  0  0  0  0  0  0  0  0  0  0  0
   10.0183   -0.2186   -0.5748 H   0  0  0  0  0  0  0  0  0  0  0  0
    6.8988    2.4435    1.1507 H   0  0  0  0  0  0  0  0  0  0  0  0
    4.4615    2.5913    1.3121 H   0  0  0  0  0  0  0  0  0  0  0  0
    2.3982    3.0146    0.2368 H   0  0  0  0  0  0  0  0  0  0  0  0
   -0.0534    2.9662    0.3509 H   0  0  0  0  0  0  0  0  0  0  0  0
   -3.8299   -2.3732   -0.6541 H   0  0  0  0  0  0  0  0  0  0  0  0
   -5.8521   -3.6851   -1.1582 H   0  0  0  0  0  0  0  0  0  0  0  0
   -8.0917   -2.6326   -0.9802 H   0  0  0  0  0  0  0  0  0  0  0  0
   -8.3115   -0.2969   -0.3176 H   0  0  0  0  0  0  0  0  0  0  0  0
   -8.0439    2.0022   -0.5189 H   0  0  0  0  0  0  0  0  0  0  0  0
   -8.0869    1.4747    1.2101 H   0  0  0  0  0  0  0  0  0  0  0  0
   -7.3446    3.0115    0.7518 H   0  0  0  0  0  0  0  0  0  0  0  0
    1.5392   -2.7005    1.1426 H   0  0  0  0  0  0  0  0  0  0  0  0
    1.4154   -2.6933   -0.6602 H   0  0  0  0  0  0  0  0  0  0  0  0
    0.2581   -3.5993    0.3214 H   0  0  0  0  0  0  0  0  0  0  0  0
    4.1148   -1.0450   -0.9830 H   0  0  0  0  0  0  0  0  0  0  0  0
    6.5362   -1.1935   -1.1245 H   0  0  0  0  0  0  0  0  0  0  0  0
  1  2  1  0
  2  3  1  0
  3  4  2  0
  4  5  1  0
  5  6  2  0
  6  7  1  0
  7  8  2  0
  8  9  1  0
  9 10  2  0
 10 11  1  0
 11 12  2  0
 12 13  1  0
 13 14  1  0
 14 15  1  0
 15 16  2  0
 16 17  1  0
 17 18  2  0
 18 19  1  0
 19 20  2  0
 20 21  1  0
 21 22  1  0
 14 23  2  0
 10 24  1  0
 24 25  1  0
 25 26  1  0
 24 27  2  0
  6 28  1  0
 28 29  2  0
 29  3  1  0
 27  7  1  0
 23 11  1  0
 20 15  1  0
  1 30  1  0
  1 31  1  0
  1 32  1  0
  4 33  1  0
  5 34  1  0
  8 35  1  0
  9 36  1  0
 16 37  1  0
 17 38  1  0
 18 39  1  0
 19 40  1  0
 22 41  1  0
 22 42  1  0
 22 43  1  0
 26 44  1  0
 26 45  1  0
 26 46  1  0
 28 47  1  0
 29 48  1  0
M  END
$$$$
