
     RDKit          3D

 57 60  0  0  0  0  0  0  0  0999 V2000
   -7.2286   -0.6767   -2.7663 C   0  0  0  0  0  0  0  0  0  0  0  0
   -5.9666   -0.4433   -1.9898 C   0  0  0  0  0  0  0  0  0  0  0  0
   -4.9465   -1.4008   -1.9676 C   0  0  0  0  0  0  0  0  0  0  0  0
   -3.7572   -1.1571   -1.2698 C   0  0  0  0  0  0  0  0  0  0  0  0
   -3.5761    0.0462   -0.5849 C   0  0  0  0  0  0  0  0  0  0  0  0
   -2.3590    0.3312    0.1034 N   0  0  0  0  0  0  0  0  0  0  0  0
   -2.2668    0.9070    1.3752 C   0  0  0  0  0  0  0  0  0  0  0  0
   -3.4119    1.0933    2.3045 C   0  0  0  0  0  0  0  0  0  0  0  0
   -0.9448    1.2311    1.6001 C   0  0  0  0  0  0  0  0  0  0  0  0
   -0.1859    0.7331    0.5207 C   0  0  0  0  0  0  0  0  0  0  0  0
    1.2505    0.8464    0.3687 C   0  0  0  0  0  0  0  0  0  0  0  0
    1.5109    1.7817   -0.4384 O   0  0  0  0  0  1  0  0  0  0  0  0
    2.0871    0.0248    1.0636 C   0  0  0  0  0  0  0  0  0  0  0  0
    3.6321    0.0931    0.9205 C   0  0  0  0  0  0  0  0  0  0  0  0
    4.6272   -0.8126    1.9449 S   0  0  0  0  0  0  0  0  0  0  0  0
    4.0458    0.9314   -0.1098 N   0  0  0  0  0  0  0  0  0  0  0  0
    5.2632    1.1866   -0.7758 C   0  0  0  0  0  0  0  0  0  0  0  0
    5.1938    2.1570   -1.7972 C   0  0  0  0  0  0  0  0  0  0  0  0
    6.3027    2.4671   -2.5880 C   0  0  0  0  0  0  0  0  0  0  0  0
    7.5028    1.8091   -2.3581 C   0  0  0  0  0  0  0  0  0  0  0  0
    8.5513    2.0935   -3.1431 F   0  0  0  0  0  0  0  0  0  0  0  0
    7.5970    0.8585   -1.3462 C   0  0  0  0  0  0  0  0  0  0  0  0
    9.0823    0.0176   -1.0760 Cl  0  0  0  0  0  0  0  0  0  0  0  0
    6.4807    0.5472   -0.5567 C   0  0  0  0  0  0  0  0  0  0  0  0
    1.4663   -1.0279    1.9400 N   0  0  0  0  0  4  0  0  0  0  0  0
    1.0689   -2.1928    1.3872 C   0  0  0  0  0  0  0  0  0  0  0  0
    0.4853   -3.1838    2.1737 C   0  0  0  0  0  0  0  0  0  0  0  0
    0.3012   -2.9503    3.5299 C   0  0  0  0  0  0  0  0  0  0  0  0
    0.7105   -1.7405    4.0826 C   0  0  0  0  0  0  0  0  0  0  0  0
    1.2981   -0.7827    3.2576 C   0  0  0  0  0  0  0  0  0  0  0  0
   -1.0641    0.1203   -0.3633 C   0  0  0  0  0  0  0  0  0  0  0  0
   -0.7444   -0.4979   -1.6872 C   0  0  0  0  0  0  0  0  0  0  0  0
   -4.5987    1.0033   -0.5981 C   0  0  0  0  0  0  0  0  0  0  0  0
   -5.7826    0.7616   -1.3012 C   0  0  0  0  0  0  0  0  0  0  0  0
   -7.2642   -1.6905   -3.1773 H   0  0  0  0  0  0  0  0  0  0  0  0
   -8.1021   -0.5502   -2.1201 H   0  0  0  0  0  0  0  0  0  0  0  0
   -7.2935    0.0309   -3.5992 H   0  0  0  0  0  0  0  0  0  0  0  0
   -5.0699   -2.3509   -2.4908 H   0  0  0  0  0  0  0  0  0  0  0  0
   -3.0055   -1.9369   -1.2472 H   0  0  0  0  0  0  0  0  0  0  0  0
   -3.9172    2.0451    2.1269 H   0  0  0  0  0  0  0  0  0  0  0  0
   -3.0520    1.1072    3.3386 H   0  0  0  0  0  0  0  0  0  0  0  0
   -4.1391    0.2730    2.2341 H   0  0  0  0  0  0  0  0  0  0  0  0
   -0.5688    1.7700    2.4609 H   0  0  0  0  0  0  0  0  0  0  0  0
    3.2391    1.4385   -0.5313 H   0  0  0  0  0  0  0  0  0  0  0  0
    4.2578    2.6867   -1.9880 H   0  0  0  0  0  0  0  0  0  0  0  0
    6.2342    3.2084   -3.3830 H   0  0  0  0  0  0  0  0  0  0  0  0
    6.6004   -0.2172    0.2008 H   0  0  0  0  0  0  0  0  0  0  0  0
    1.2176   -2.3070    0.3175 H   0  0  0  0  0  0  0  0  0  0  0  0
    0.1647   -4.1210    1.7233 H   0  0  0  0  0  0  0  0  0  0  0  0
   -0.1595   -3.7107    4.1546 H   0  0  0  0  0  0  0  0  0  0  0  0
    0.5731   -1.5428    5.1393 H   0  0  0  0  0  0  0  0  0  0  0  0
    1.6270    0.1844    3.6284 H   0  0  0  0  0  0  0  0  0  0  0  0
    0.2984   -0.3391   -1.9762 H   0  0  0  0  0  0  0  0  0  0  0  0
   -1.3615   -0.0710   -2.4828 H   0  0  0  0  0  0  0  0  0  0  0  0
   -0.8835   -1.5828   -1.6496 H   0  0  0  0  0  0  0  0  0  0  0  0
   -4.4679    1.9709   -0.1195 H   0  0  0  0  0  0  0  0  0  0  0  0
   -6.5522    1.5303   -1.3250 H   0  0  0  0  0  0  0  0  0  0  0  0
  1  2  1  0
  2  3  2  0
  3  4  1  0
  4  5  2  0
  5  6  1  0
  6  7  1  0
  7  8  1  0
  7  9  2  0
  9 10  1  0
 10 11  1  0
 11 12  1  0
 11 13  2  3
 13 14  1  0
 14 15  2  0
 14 16  1  0
 16 17  1  0
 17 18  2  0
 18 19  1  0
 19 20  2  0
 20 21  1  0
 20 22  1  0
 22 23  1  0
 22 24  2  0
 13 25  1  0
 25 26  2  0
 26 27  1  0
 27 28  2  0
 28 29  1  0
 29 30  2  0
 10 31  2  0
 31 32  1  0
  5 33  1  0
 33 34  2  0
 34  2  1  0
 31  6  1  0
 24 17  1  0
 30 25  1  0
  1 35  1  0
  1 36  1  0
  1 37  1  0
  3 38  1  0
  4 39  1  0
  8 40  1  0
  8 41  1  0
  8 42  1  0
  9 43  1  0
 16 44  1  0
 18 45  1  0
 19 46  1  0
 24 47  1  0
 26 48  1  0
 27 49  1  0
 28 50  1  0
 29 51  1  0
 30 52  1  0
 32 53  1  0
 32 54  1  0
 32 55  1  0
 33 56  1  0
 34 57  1  0
M  CHG  2  12  -1  25   1
M  END
$$$$
