
     RDKit          3D

 38 40  0  0  0  0  0  0  0  0999 V2000
    0.2052    2.5043   -1.6201 C   0  0  0  0  0  0  0  0  0  0  0  0
   -0.4323    1.2430   -2.1390 C   0  0  0  0  0  0  0  0  0  0  0  0
   -0.1935    0.8037   -3.2622 O   0  0  0  0  0  0  0  0  0  0  0  0
   -1.3306    0.4829   -1.2602 C   0  0  0  0  0  0  0  0  0  0  0  0
   -1.2050   -0.8867   -1.0657 C   0  0  0  0  0  0  0  0  0  0  0  0
   -0.0776   -1.6891   -1.6744 C   0  0  0  0  0  0  0  0  0  0  0  0
    1.2036   -1.1077   -1.3810 O   0  0  0  0  0  0  0  0  0  0  0  0
    1.7723   -1.4722   -0.2088 C   0  0  0  0  0  0  0  0  0  0  0  0
    1.2871   -2.2232    0.6199 O   0  0  0  0  0  0  0  0  0  0  0  0
    3.0849   -0.7915   -0.0405 C   0  0  0  0  0  0  0  0  0  0  0  0
    3.6360    0.0355   -1.0299 C   0  0  0  0  0  0  0  0  0  0  0  0
    4.8684    0.6577   -0.8165 C   0  0  0  0  0  0  0  0  0  0  0  0
    5.5551    0.4575    0.3806 C   0  0  0  0  0  0  0  0  0  0  0  0
    5.0142   -0.3652    1.3677 C   0  0  0  0  0  0  0  0  0  0  0  0
    3.7826   -0.9889    1.1590 C   0  0  0  0  0  0  0  0  0  0  0  0
   -2.0787   -1.5777   -0.2912 N   0  0  0  0  0  0  0  0  0  0  0  0
   -3.0762   -0.9287    0.3211 C   0  0  0  0  0  0  0  0  0  0  0  0
   -3.9599   -1.6378    1.1240 C   0  0  0  0  0  0  0  0  0  0  0  0
   -5.0197   -1.0094    1.7858 C   0  0  0  0  0  0  0  0  0  0  0  0
   -5.2093    0.3602    1.6473 C   0  0  0  0  0  0  0  0  0  0  0  0
   -4.3361    1.0924    0.8481 C   0  0  0  0  0  0  0  0  0  0  0  0
   -3.2639    0.4548    0.1812 C   0  0  0  0  0  0  0  0  0  0  0  0
   -2.3609    1.1642   -0.6386 N   0  0  0  0  0  4  0  0  0  0  0  0
   -2.5163    2.4276   -0.8031 O   0  0  0  0  0  1  0  0  0  0  0  0
    1.2646    2.5011   -1.8936 H   0  0  0  0  0  0  0  0  0  0  0  0
   -0.2844    3.3749   -2.0630 H   0  0  0  0  0  0  0  0  0  0  0  0
    0.1498    2.5591   -0.5294 H   0  0  0  0  0  0  0  0  0  0  0  0
   -0.1126   -2.7332   -1.3387 H   0  0  0  0  0  0  0  0  0  0  0  0
   -0.1939   -1.7163   -2.7632 H   0  0  0  0  0  0  0  0  0  0  0  0
    3.1222    0.2037   -1.9739 H   0  0  0  0  0  0  0  0  0  0  0  0
    5.2940    1.2974   -1.5862 H   0  0  0  0  0  0  0  0  0  0  0  0
    6.5150    0.9422    0.5436 H   0  0  0  0  0  0  0  0  0  0  0  0
    5.5514   -0.5223    2.3000 H   0  0  0  0  0  0  0  0  0  0  0  0
    3.3697   -1.6297    1.9362 H   0  0  0  0  0  0  0  0  0  0  0  0
   -3.8204   -2.7110    1.2415 H   0  0  0  0  0  0  0  0  0  0  0  0
   -5.6933   -1.5946    2.4078 H   0  0  0  0  0  0  0  0  0  0  0  0
   -6.0315    0.8564    2.1576 H   0  0  0  0  0  0  0  0  0  0  0  0
   -4.4802    2.1663    0.7345 H   0  0  0  0  0  0  0  0  0  0  0  0
  1  2  1  0
  2  3  2  0
  2  4  1  0
  4  5  2  0
  5  6  1  0
  6  7  1  0
  7  8  1  0
  8  9  2  0
  8 10  1  0
 10 11  2  0
 11 12  1  0
 12 13  2  0
 13 14  1  0
 14 15  2  0
  5 16  1  0
 16 17  2  0
 17 18  1  0
 18 19  2  0
 19 20  1  0
 20 21  2  0
 21 22  1  0
 22 23  2  0
 23 24  1  0
 23  4  1  0
 15 10  1  0
 22 17  1  0
  1 25  1  0
  1 26  1  0
  1 27  1  0
  6 28  1  0
  6 29  1  0
 11 30  1  0
 12 31  1  0
 13 32  1  0
 14 33  1  0
 15 34  1  0
 18 35  1  0
 19 36  1  0
 20 37  1  0
 21 38  1  0
M  CHG  2  23   1  24  -1
M  END
$$$$
