
     RDKit          3D

 48 51  0  0  0  0  0  0  0  0999 V2000
    0.7227    1.7864   -3.0837 C   0  0  0  0  0  0  0  0  0  0  0  0
    1.7205    0.6657   -2.8523 C   0  0  0  0  0  0  0  0  0  0  0  0
    1.7890    0.4218   -1.4493 O   0  0  0  0  0  0  0  0  0  0  0  0
    2.5157   -0.6612   -1.0205 C   0  0  0  0  0  0  0  0  0  0  0  0
    3.4335   -1.3465   -1.8292 C   0  0  0  0  0  0  0  0  0  0  0  0
    4.1829   -2.4063   -1.3145 C   0  0  0  0  0  0  0  0  0  0  0  0
    4.0303   -2.7874    0.0128 C   0  0  0  0  0  0  0  0  0  0  0  0
    3.1224   -2.1096    0.8263 C   0  0  0  0  0  0  0  0  0  0  0  0
    2.3436   -1.0430    0.3294 C   0  0  0  0  0  0  0  0  0  0  0  0
    1.3834   -0.3766    1.2206 C   0  0  0  0  0  0  0  0  0  0  0  0
    1.8277   -0.0259    2.4504 N   0  0  0  0  0  0  0  0  0  0  0  0
    0.9190    0.5668    3.2646 C   0  0  0  0  0  0  0  0  0  0  0  0
    1.3931    0.9771    4.6157 C   0  0  0  0  0  0  0  0  0  0  0  0
    2.7144    0.7329    4.8772 N   0  0  0  0  0  0  0  0  0  0  0  0
    0.6558    1.5006    5.4416 O   0  0  0  0  0  0  0  0  0  0  0  0
   -0.3707    0.7813    2.8771 C   0  0  0  0  0  0  0  0  0  0  0  0
   -1.4593    1.3517    3.5153 N   0  0  0  0  0  0  0  0  0  0  0  0
   -2.5582    1.3143    2.6463 C   0  0  0  0  0  0  0  0  0  0  0  0
   -3.6554    1.7535    2.9497 O   0  0  0  0  0  0  0  0  0  0  0  0
   -2.1042    0.6944    1.4404 N   0  0  0  0  0  0  0  0  0  0  0  0
   -2.8668    0.4435    0.2641 C   0  0  0  0  0  0  0  0  0  0  0  0
   -4.2267    0.7911    0.2099 C   0  0  0  0  0  0  0  0  0  0  0  0
   -5.0055    0.5590   -0.9305 C   0  0  0  0  0  0  0  0  0  0  0  0
   -4.4419   -0.0279   -2.0560 C   0  0  0  0  0  0  0  0  0  0  0  0
   -3.0935   -0.3802   -2.0487 C   0  0  0  0  0  0  0  0  0  0  0  0
   -2.4817   -1.0322   -3.2539 C   0  0  0  0  0  0  0  0  0  0  0  0
   -2.3261   -0.1494   -0.8907 C   0  0  0  0  0  0  0  0  0  0  0  0
   -0.7326    0.3724    1.6168 C   0  0  0  0  0  0  0  0  0  0  0  0
    0.1181   -0.2203    0.7764 N   0  0  0  0  0  0  0  0  0  0  0  0
    0.6279    2.0105   -4.1499 H   0  0  0  0  0  0  0  0  0  0  0  0
   -0.2616    1.5158   -2.6901 H   0  0  0  0  0  0  0  0  0  0  0  0
    1.0354    2.6947   -2.5579 H   0  0  0  0  0  0  0  0  0  0  0  0
    2.7006    0.9799   -3.2285 H   0  0  0  0  0  0  0  0  0  0  0  0
    1.3819   -0.2319   -3.3829 H   0  0  0  0  0  0  0  0  0  0  0  0
    3.6012   -1.0681   -2.8644 H   0  0  0  0  0  0  0  0  0  0  0  0
    4.8925   -2.9287   -1.9518 H   0  0  0  0  0  0  0  0  0  0  0  0
    4.6156   -3.6098    0.4163 H   0  0  0  0  0  0  0  0  0  0  0  0
    3.0103   -2.4247    1.8627 H   0  0  0  0  0  0  0  0  0  0  0  0
    3.3109    0.3290    4.1636 H   0  0  0  0  0  0  0  0  0  0  0  0
    3.1055    1.0100    5.7666 H   0  0  0  0  0  0  0  0  0  0  0  0
   -1.4658    1.7345    4.4534 H   0  0  0  0  0  0  0  0  0  0  0  0
   -4.7330    1.2519    1.0526 H   0  0  0  0  0  0  0  0  0  0  0  0
   -6.0557    0.8405   -0.9306 H   0  0  0  0  0  0  0  0  0  0  0  0
   -5.0570   -0.2069   -2.9344 H   0  0  0  0  0  0  0  0  0  0  0  0
   -2.7486   -0.4817   -4.1623 H   0  0  0  0  0  0  0  0  0  0  0  0
   -2.8359   -2.0641   -3.3415 H   0  0  0  0  0  0  0  0  0  0  0  0
   -1.3884   -1.0487   -3.1902 H   0  0  0  0  0  0  0  0  0  0  0  0
   -1.2853   -0.4483   -0.9361 H   0  0  0  0  0  0  0  0  0  0  0  0
  1  2  1  0
  2  3  1  0
  3  4  1  0
  4  5  2  0
  5  6  1  0
  6  7  2  0
  7  8  1  0
  8  9  2  0
  9 10  1  0
 10 11  2  0
 11 12  1  0
 12 13  1  0
 13 14  1  0
 13 15  2  0
 12 16  2  0
 16 17  1  0
 17 18  1  0
 18 19  2  0
 18 20  1  0
 20 21  1  0
 21 22  2  0
 22 23  1  0
 23 24  2  0
 24 25  1  0
 25 26  1  0
 25 27  2  0
 20 28  1  0
 28 29  2  0
  9  4  1  0
 29 10  1  0
 28 16  1  0
 27 21  1  0
  1 30  1  0
  1 31  1  0
  1 32  1  0
  2 33  1  0
  2 34  1  0
  5 35  1  0
  6 36  1  0
  7 37  1  0
  8 38  1  0
 14 39  1  0
 14 40  1  0
 17 41  1  0
 22 42  1  0
 23 43  1  0
 24 44  1  0
 26 45  1  0
 26 46  1  0
 26 47  1  0
 27 48  1  0
M  END
$$$$
