
     RDKit          3D

 40 43  0  0  0  0  0  0  0  0999 V2000
   -4.8638    1.9081    1.9154 O   0  0  0  0  0  0  0  0  0  0  0  0
   -4.9233    1.1726    0.9444 C   0  0  0  0  0  0  0  0  0  0  0  0
   -6.0674    0.7535    0.3025 N   0  0  0  0  0  0  0  0  0  0  0  0
   -5.6553    0.0252   -0.6786 C   0  0  0  0  0  0  0  0  0  0  0  0
   -6.4768   -0.6715   -1.6881 C   0  0  0  0  0  0  0  0  0  0  0  0
   -5.8544   -1.3930   -2.6346 C   0  0  0  0  0  0  0  0  0  0  0  0
   -4.4077   -1.5169   -2.7074 C   0  0  0  0  0  0  0  0  0  0  0  0
   -3.6041   -0.9084   -1.8198 C   0  0  0  0  0  0  0  0  0  0  0  0
   -4.1981   -0.1179   -0.7826 C   0  0  0  0  0  0  0  0  0  0  0  0
   -3.7442    0.5945    0.2482 C   0  0  0  0  0  0  0  0  0  0  0  0
   -2.3959    0.7850    0.6112 C   0  0  0  0  0  0  0  0  0  0  0  0
   -1.8268    0.3716    2.1899 S   0  0  0  0  0  0  0  0  0  0  0  0
   -0.2548    0.8380    1.7316 C   0  0  0  0  0  0  0  0  0  0  0  0
    0.8629    0.7526    2.6455 N   0  0  0  0  0  0  0  0  0  0  0  0
    2.0999   -0.2460    2.0817 S   0  0  0  0  0  6  0  0  0  0  0  0
    2.8223   -0.6258    3.2820 O   0  0  0  0  0  0  0  0  0  0  0  0
    1.5236   -1.2599    1.2197 O   0  0  0  0  0  0  0  0  0  0  0  0
    3.0957    0.9153    1.1313 C   0  0  0  0  0  0  0  0  0  0  0  0
    4.2863    0.1921    0.5572 C   0  0  0  0  0  0  0  0  0  0  0  0
    4.2151   -0.3935   -0.7174 C   0  0  0  0  0  0  0  0  0  0  0  0
    5.3175   -1.0612   -1.2525 C   0  0  0  0  0  0  0  0  0  0  0  0
    6.4992   -1.1538   -0.5190 C   0  0  0  0  0  0  0  0  0  0  0  0
    6.5792   -0.5827    0.7516 C   0  0  0  0  0  0  0  0  0  0  0  0
    5.4786    0.0859    1.2891 C   0  0  0  0  0  0  0  0  0  0  0  0
   -0.1097    1.3386    0.5309 N   0  0  0  0  0  0  0  0  0  0  0  0
   -1.3221    1.2856   -0.1057 C   0  0  0  0  0  0  0  0  0  0  0  0
   -1.4490    1.7132   -1.3706 O   0  0  0  0  0  0  0  0  0  0  0  0
   -7.5522   -0.5754   -1.6254 H   0  0  0  0  0  0  0  0  0  0  0  0
   -6.4346   -1.9177   -3.3888 H   0  0  0  0  0  0  0  0  0  0  0  0
   -3.9913   -2.1223   -3.5079 H   0  0  0  0  0  0  0  0  0  0  0  0
   -2.5251   -1.0033   -1.8773 H   0  0  0  0  0  0  0  0  0  0  0  0
    0.6038    0.4881    3.5949 H   0  0  0  0  0  0  0  0  0  0  0  0
    2.4829    1.3382    0.3314 H   0  0  0  0  0  0  0  0  0  0  0  0
    3.4111    1.7206    1.8027 H   0  0  0  0  0  0  0  0  0  0  0  0
    3.2968   -0.3425   -1.3006 H   0  0  0  0  0  0  0  0  0  0  0  0
    5.2520   -1.5142   -2.2396 H   0  0  0  0  0  0  0  0  0  0  0  0
    7.3548   -1.6785   -0.9339 H   0  0  0  0  0  0  0  0  0  0  0  0
    7.4979   -0.6643    1.3281 H   0  0  0  0  0  0  0  0  0  0  0  0
    5.5580    0.5154    2.2883 H   0  0  0  0  0  0  0  0  0  0  0  0
   -0.5807    2.0688   -1.6280 H   0  0  0  0  0  0  0  0  0  0  0  0
  1  2  2  0
  2  3  1  0
  3  4  2  0
  4  5  1  0
  5  6  2  0
  6  7  1  0
  7  8  2  0
  8  9  1  0
  9 10  2  0
 10 11  1  0
 11 12  1  0
 12 13  1  0
 13 14  1  0
 14 15  1  0
 15 16  2  0
 15 17  2  0
 15 18  1  0
 18 19  1  0
 19 20  2  0
 20 21  1  0
 21 22  2  0
 22 23  1  0
 23 24  2  0
 13 25  2  0
 25 26  1  0
 26 27  1  0
 10  2  1  0
 26 11  2  0
  9  4  1  0
 24 19  1  0
  5 28  1  0
  6 29  1  0
  7 30  1  0
  8 31  1  0
 14 32  1  0
 18 33  1  0
 18 34  1  0
 20 35  1  0
 21 36  1  0
 22 37  1  0
 23 38  1  0
 24 39  1  0
 27 40  1  0
M  END
$$$$
