
     RDKit          3D

 40 44  0  0  0  0  0  0  0  0999 V2000
    6.2016    0.9355    0.5186 C   0  0  0  0  0  0  0  0  0  0  0  0
    5.7014    0.7282   -0.7644 C   0  0  0  0  0  0  0  0  0  0  0  0
    4.3729    0.3323   -0.9418 C   0  0  0  0  0  0  0  0  0  0  0  0
    3.5219    0.1380    0.1588 C   0  0  0  0  0  0  0  0  0  0  0  0
    2.1219   -0.2785   -0.0289 C   0  0  0  0  0  0  0  0  0  0  0  0
    1.8091   -1.4403   -0.7508 C   0  0  0  0  0  0  0  0  0  0  0  0
    0.4887   -1.8661   -0.9451 C   0  0  0  0  0  0  0  0  0  0  0  0
   -0.5356   -1.0866   -0.3965 C   0  0  0  0  0  0  0  0  0  0  0  0
   -0.2722    0.0853    0.3359 C   0  0  0  0  0  0  0  0  0  0  0  0
    1.0691    0.4815    0.5168 C   0  0  0  0  0  0  0  0  0  0  0  0
   -1.5265    0.6171    0.7585 C   0  0  0  0  0  0  0  0  0  0  0  0
   -2.4888   -0.2229    0.2614 C   0  0  0  0  0  0  0  0  0  0  0  0
   -1.8964   -1.2411   -0.4065 N   0  0  0  0  0  0  0  0  0  0  0  0
   -2.7272   -2.3098   -0.9171 C   0  0  0  0  0  0  0  0  0  0  0  0
   -4.1426   -1.7855   -1.2159 C   0  0  0  0  0  0  0  0  0  0  0  0
   -4.7269   -0.8824   -0.1845 N   0  0  0  0  0  0  0  0  0  0  0  0
   -3.8995   -0.1074    0.4341 C   0  0  0  0  0  0  0  0  0  0  0  0
   -4.3351    0.9572    1.4241 C   0  0  0  0  0  0  0  0  0  0  0  0
   -3.3806    2.1731    1.3850 C   0  0  0  0  0  0  0  0  0  0  0  0
   -1.8902    1.8002    1.5893 C   0  0  0  0  0  0  0  0  0  0  0  0
    4.0463    0.3533    1.4442 C   0  0  0  0  0  0  0  0  0  0  0  0
    5.3749    0.7480    1.6235 C   0  0  0  0  0  0  0  0  0  0  0  0
    7.2346    1.2431    0.6573 H   0  0  0  0  0  0  0  0  0  0  0  0
    6.3425    0.8768   -1.6292 H   0  0  0  0  0  0  0  0  0  0  0  0
    3.9979    0.1865   -1.9529 H   0  0  0  0  0  0  0  0  0  0  0  0
    2.6123   -2.0469   -1.1672 H   0  0  0  0  0  0  0  0  0  0  0  0
    0.2787   -2.7732   -1.5018 H   0  0  0  0  0  0  0  0  0  0  0  0
    1.2837    1.3895    1.0744 H   0  0  0  0  0  0  0  0  0  0  0  0
   -2.2661   -2.7220   -1.8193 H   0  0  0  0  0  0  0  0  0  0  0  0
   -2.7567   -3.0814   -0.1397 H   0  0  0  0  0  0  0  0  0  0  0  0
   -4.8165   -2.6398   -1.3435 H   0  0  0  0  0  0  0  0  0  0  0  0
   -4.1401   -1.2407   -2.1685 H   0  0  0  0  0  0  0  0  0  0  0  0
   -4.3373    0.5116    2.4254 H   0  0  0  0  0  0  0  0  0  0  0  0
   -5.3573    1.2728    1.1905 H   0  0  0  0  0  0  0  0  0  0  0  0
   -3.6809    2.9044    2.1438 H   0  0  0  0  0  0  0  0  0  0  0  0
   -3.4859    2.6641    0.4081 H   0  0  0  0  0  0  0  0  0  0  0  0
   -1.2590    2.6589    1.3359 H   0  0  0  0  0  0  0  0  0  0  0  0
   -1.7182    1.5593    2.6451 H   0  0  0  0  0  0  0  0  0  0  0  0
    3.4195    0.2016    2.3208 H   0  0  0  0  0  0  0  0  0  0  0  0
    5.7625    0.9060    2.6265 H   0  0  0  0  0  0  0  0  0  0  0  0
  1  2  2  0
  2  3  1  0
  3  4  2  0
  4  5  1  0
  5  6  2  0
  6  7  1  0
  7  8  2  0
  8  9  1  0
  9 10  2  0
  9 11  1  0
 11 12  2  0
 12 13  1  0
 13 14  1  0
 14 15  1  0
 15 16  1  0
 16 17  2  0
 17 18  1  0
 18 19  1  0
 19 20  1  0
  4 21  1  0
 21 22  2  0
 22  1  1  0
 10  5  1  0
 20 11  1  0
 13  8  1  0
 17 12  1  0
  1 23  1  0
  2 24  1  0
  3 25  1  0
  6 26  1  0
  7 27  1  0
 10 28  1  0
 14 29  1  0
 14 30  1  0
 15 31  1  0
 15 32  1  0
 18 33  1  0
 18 34  1  0
 19 35  1  0
 19 36  1  0
 20 37  1  0
 20 38  1  0
 21 39  1  0
 22 40  1  0
M  END
$$$$
