
     RDKit          3D

 34 36  0  0  0  0  0  0  0  0999 V2000
   -2.2559    2.0197    3.1642 C   0  0  0  0  0  0  0  0  0  0  0  0
   -2.6745    1.0914    2.1626 O   0  0  0  0  0  0  0  0  0  0  0  0
   -1.8575    1.0430    1.0800 C   0  0  0  0  0  0  0  0  0  0  0  0
   -0.8586    1.7296    0.9129 O   0  0  0  0  0  0  0  0  0  0  0  0
   -2.3212    0.0138    0.1027 C   0  0  0  0  0  0  0  0  0  0  0  0
   -3.6012   -0.5559    0.2244 C   0  0  0  0  0  0  0  0  0  0  0  0
   -4.0388   -1.5214   -0.6835 C   0  0  0  0  0  0  0  0  0  0  0  0
   -3.2061   -1.9268   -1.7214 C   0  0  0  0  0  0  0  0  0  0  0  0
   -1.9339   -1.3688   -1.8541 C   0  0  0  0  0  0  0  0  0  0  0  0
   -1.4729   -0.3918   -0.9556 C   0  0  0  0  0  0  0  0  0  0  0  0
   -0.1525    0.1058   -1.1207 N   0  0  0  0  0  0  0  0  0  0  0  0
    0.8660   -0.8450   -0.6974 C   0  0  0  0  0  0  0  0  0  0  0  0
    0.7821   -1.0987    0.7169 O   0  0  0  0  0  0  0  0  0  0  0  0
    1.9386   -0.7739    1.3624 C   0  0  0  0  0  0  0  0  0  0  0  0
    2.1725   -0.9189    2.5455 O   0  0  0  0  0  0  0  0  0  0  0  0
    2.8467   -0.2333    0.3624 C   0  0  0  0  0  0  0  0  0  0  0  0
    4.1328    0.2489    0.5327 C   0  0  0  0  0  0  0  0  0  0  0  0
    4.7980    0.7234   -0.5986 C   0  0  0  0  0  0  0  0  0  0  0  0
    4.1672    0.7052   -1.8548 C   0  0  0  0  0  0  0  0  0  0  0  0
    2.8663    0.2102   -1.9945 C   0  0  0  0  0  0  0  0  0  0  0  0
    2.2176   -0.2598   -0.8636 C   0  0  0  0  0  0  0  0  0  0  0  0
   -2.9668    1.9667    3.9933 H   0  0  0  0  0  0  0  0  0  0  0  0
   -2.2619    3.0396    2.7670 H   0  0  0  0  0  0  0  0  0  0  0  0
   -1.2630    1.7555    3.5418 H   0  0  0  0  0  0  0  0  0  0  0  0
   -4.2721   -0.2548    1.0256 H   0  0  0  0  0  0  0  0  0  0  0  0
   -5.0307   -1.9551   -0.5797 H   0  0  0  0  0  0  0  0  0  0  0  0
   -3.5465   -2.6759   -2.4321 H   0  0  0  0  0  0  0  0  0  0  0  0
   -1.3016   -1.6875   -2.6796 H   0  0  0  0  0  0  0  0  0  0  0  0
   -0.0528    0.9503   -0.5406 H   0  0  0  0  0  0  0  0  0  0  0  0
    0.8002   -1.8004   -1.2319 H   0  0  0  0  0  0  0  0  0  0  0  0
    4.6007    0.2598    1.5120 H   0  0  0  0  0  0  0  0  0  0  0  0
    5.8089    1.1151   -0.5084 H   0  0  0  0  0  0  0  0  0  0  0  0
    4.6963    1.0853   -2.7266 H   0  0  0  0  0  0  0  0  0  0  0  0
    2.3746    0.2049   -2.9633 H   0  0  0  0  0  0  0  0  0  0  0  0
  1  2  1  0
  2  3  1  0
  3  4  2  0
  3  5  1  0
  5  6  2  0
  6  7  1  0
  7  8  2  0
  8  9  1  0
  9 10  2  0
 10 11  1  0
 11 12  1  0
 12 13  1  0
 13 14  1  0
 14 15  2  0
 14 16  1  0
 16 17  2  0
 17 18  1  0
 18 19  2  0
 19 20  1  0
 20 21  2  0
 10  5  1  0
 21 12  1  0
 21 16  1  0
  1 22  1  0
  1 23  1  0
  1 24  1  0
  6 25  1  0
  7 26  1  0
  8 27  1  0
  9 28  1  0
 11 29  1  0
 12 30  1  0
 17 31  1  0
 18 32  1  0
 19 33  1  0
 20 34  1  0
M  END
$$$$
