
     RDKit          3D

 43 45  0  0  0  0  0  0  0  0999 V2000
   -1.0313   -2.8379    1.1869 N   0  0  0  0  0  0  0  0  0  0  0  0
   -0.0082   -2.0232    1.5069 C   0  0  0  0  0  0  0  0  0  0  0  0
    0.9995   -2.4227    2.2243 N   0  0  0  0  0  0  0  0  0  0  0  0
    1.8896   -1.2314    2.2935 C   0  0  0  0  0  0  0  0  0  0  0  0
    1.0772   -0.0485    1.7335 C   0  0  0  0  0  0  0  0  0  0  0  0
    1.8501    0.9145    0.8186 C   0  0  0  0  0  0  0  0  0  0  0  0
    2.7233    0.3252   -0.2686 C   0  0  0  0  0  0  0  0  0  0  0  0
    2.1872   -0.4778   -1.2841 C   0  0  0  0  0  0  0  0  0  0  0  0
    3.0050   -0.9961   -2.2900 C   0  0  0  0  0  0  0  0  0  0  0  0
    4.3631   -0.7096   -2.2903 C   0  0  0  0  0  0  0  0  0  0  0  0
    5.1245   -1.2356   -3.2914 O   0  0  0  0  0  0  0  0  0  0  0  0
    4.9195    0.0900   -1.2990 C   0  0  0  0  0  0  0  0  0  0  0  0
    4.0991    0.6081   -0.2931 C   0  0  0  0  0  0  0  0  0  0  0  0
   -0.0437   -0.7304    1.0708 N   0  0  0  0  0  0  0  0  0  0  0  0
   -1.2956    0.0216    0.9430 C   0  0  0  0  0  0  0  0  0  0  0  0
   -1.8079   -0.0122   -0.5002 C   0  0  0  0  0  0  0  0  0  0  0  0
   -3.0849    0.7754   -0.6637 C   0  0  0  0  0  0  0  0  0  0  0  0
   -3.0569    2.0855   -1.1654 C   0  0  0  0  0  0  0  0  0  0  0  0
   -4.2384    2.8195   -1.3022 C   0  0  0  0  0  0  0  0  0  0  0  0
   -5.4573    2.2518   -0.9365 C   0  0  0  0  0  0  0  0  0  0  0  0
   -5.4849    0.9557   -0.4366 C   0  0  0  0  0  0  0  0  0  0  0  0
   -6.6560    0.4110   -0.0817 F   0  0  0  0  0  0  0  0  0  0  0  0
   -4.3155    0.2151   -0.2959 C   0  0  0  0  0  0  0  0  0  0  0  0
   -0.8051   -3.7851    1.4762 H   0  0  0  0  0  0  0  0  0  0  0  0
   -1.2356   -2.8232    0.1970 H   0  0  0  0  0  0  0  0  0  0  0  0
    2.1764   -1.0441    3.3338 H   0  0  0  0  0  0  0  0  0  0  0  0
    2.8009   -1.4449    1.7278 H   0  0  0  0  0  0  0  0  0  0  0  0
    0.6817    0.5245    2.5840 H   0  0  0  0  0  0  0  0  0  0  0  0
    2.4817    1.5359    1.4679 H   0  0  0  0  0  0  0  0  0  0  0  0
    1.1504    1.6108    0.3378 H   0  0  0  0  0  0  0  0  0  0  0  0
    1.1276   -0.7156   -1.3021 H   0  0  0  0  0  0  0  0  0  0  0  0
    2.5819   -1.6233   -3.0692 H   0  0  0  0  0  0  0  0  0  0  0  0
    6.0490   -0.9793   -3.1425 H   0  0  0  0  0  0  0  0  0  0  0  0
    5.9794    0.3223   -1.2917 H   0  0  0  0  0  0  0  0  0  0  0  0
    4.5466    1.2363    0.4744 H   0  0  0  0  0  0  0  0  0  0  0  0
   -2.0490   -0.3696    1.6387 H   0  0  0  0  0  0  0  0  0  0  0  0
   -1.1387    1.0687    1.2341 H   0  0  0  0  0  0  0  0  0  0  0  0
   -1.9814   -1.0416   -0.8342 H   0  0  0  0  0  0  0  0  0  0  0  0
   -1.0424    0.3894   -1.1760 H   0  0  0  0  0  0  0  0  0  0  0  0
   -2.1134    2.5438   -1.4562 H   0  0  0  0  0  0  0  0  0  0  0  0
   -4.2069    3.8329   -1.6945 H   0  0  0  0  0  0  0  0  0  0  0  0
   -6.3829    2.8089   -1.0370 H   0  0  0  0  0  0  0  0  0  0  0  0
   -4.3777   -0.7944    0.1006 H   0  0  0  0  0  0  0  0  0  0  0  0
  1  2  1  0
  2  3  2  0
  3  4  1  0
  4  5  1  0
  5  6  1  0
  6  7  1  0
  7  8  2  0
  8  9  1  0
  9 10  2  0
 10 11  1  0
 10 12  1  0
 12 13  2  0
  5 14  1  0
 14 15  1  0
 15 16  1  0
 16 17  1  0
 17 18  2  0
 18 19  1  0
 19 20  2  0
 20 21  1  0
 21 22  1  0
 21 23  2  0
 14  2  1  0
 23 17  1  0
 13  7  1  0
  1 24  1  0
  1 25  1  0
  4 26  1  0
  4 27  1  0
  5 28  1  0
  6 29  1  0
  6 30  1  0
  8 31  1  0
  9 32  1  0
 11 33  1  0
 12 34  1  0
 13 35  1  0
 15 36  1  0
 15 37  1  0
 16 38  1  0
 16 39  1  0
 18 40  1  0
 19 41  1  0
 20 42  1  0
 23 43  1  0
M  END
$$$$
