
     RDKit          3D

 44 45  0  0  0  0  0  0  0  0999 V2000
    4.8760   -0.1042   -2.4268 C   0  0  0  0  0  0  0  0  0  0  0  0
    4.3210   -0.3205   -1.0494 C   0  0  0  0  0  0  0  0  0  0  0  0
    4.6140    0.5753   -0.0129 C   0  0  0  0  0  0  0  0  0  0  0  0
    4.0799    0.3961    1.2704 C   0  0  0  0  0  0  0  0  0  0  0  0
    3.2199   -0.6716    1.5350 C   0  0  0  0  0  0  0  0  0  0  0  0
    2.7095   -0.9296    2.7789 O   0  0  0  0  0  0  0  0  0  0  0  0
    2.2966    0.1952    3.5473 C   0  0  0  0  0  0  0  0  0  0  0  0
    1.1719    1.0451    2.9444 C   0  0  0  0  0  0  0  0  0  0  0  0
    1.1679    2.2678    3.0682 O   0  0  0  0  0  0  0  0  0  0  0  0
    0.2014    0.2895    2.3138 N   0  0  0  0  0  0  0  0  0  0  0  0
   -0.9076    0.8189    1.6868 C   0  0  0  0  0  0  0  0  0  0  0  0
   -1.3691    2.1463    1.5527 C   0  0  0  0  0  0  0  0  0  0  0  0
   -2.5043    2.2227    0.8485 N   0  0  0  0  0  0  0  0  0  0  0  0
   -2.7672    0.9396    0.5383 N   0  0  0  0  0  0  0  0  0  0  0  0
   -3.9484    0.6158   -0.2421 C   0  0  0  0  0  0  0  0  0  0  0  0
   -3.6991    0.7872   -1.7410 C   0  0  0  0  0  0  0  0  0  0  0  0
   -4.9490    0.5212   -2.5777 C   0  0  0  0  0  0  0  0  0  0  0  0
   -5.3086   -0.9388   -2.6354 C   0  0  0  0  0  0  0  0  0  0  0  0
   -4.7644   -1.8558   -2.0458 O   0  0  0  0  0  0  0  0  0  0  0  0
   -6.3625   -1.1661   -3.4412 O   0  0  0  0  0  0  0  0  0  0  0  0
   -1.8389    0.0609    1.0178 C   0  0  0  0  0  0  0  0  0  0  0  0
    2.9221   -1.5570    0.4898 C   0  0  0  0  0  0  0  0  0  0  0  0
    1.9890   -2.6534    0.7041 N   0  0  0  0  0  4  0  0  0  0  0  0
    2.2929   -3.7580    0.2333 O   0  0  0  0  0  0  0  0  0  0  0  0
    0.9329   -2.4002    1.3071 O   0  0  0  0  0  1  0  0  0  0  0  0
    3.4593   -1.3917   -0.7953 C   0  0  0  0  0  0  0  0  0  0  0  0
    4.1415    0.4172   -3.0483 H   0  0  0  0  0  0  0  0  0  0  0  0
    5.7938    0.4921   -2.3935 H   0  0  0  0  0  0  0  0  0  0  0  0
    5.1268   -1.0611   -2.8965 H   0  0  0  0  0  0  0  0  0  0  0  0
    5.2741    1.4230   -0.1941 H   0  0  0  0  0  0  0  0  0  0  0  0
    4.3719    1.1011    2.0435 H   0  0  0  0  0  0  0  0  0  0  0  0
    1.9132   -0.1947    4.4978 H   0  0  0  0  0  0  0  0  0  0  0  0
    3.1503    0.8319    3.8030 H   0  0  0  0  0  0  0  0  0  0  0  0
    0.3299   -0.7197    2.2426 H   0  0  0  0  0  0  0  0  0  0  0  0
   -0.9294    3.0590    1.9344 H   0  0  0  0  0  0  0  0  0  0  0  0
   -4.7542    1.2751    0.1013 H   0  0  0  0  0  0  0  0  0  0  0  0
   -4.2305   -0.4113    0.0101 H   0  0  0  0  0  0  0  0  0  0  0  0
   -3.3643    1.8140   -1.9357 H   0  0  0  0  0  0  0  0  0  0  0  0
   -2.8812    0.1288   -2.0601 H   0  0  0  0  0  0  0  0  0  0  0  0
   -4.7588    0.8535   -3.6047 H   0  0  0  0  0  0  0  0  0  0  0  0
   -5.8019    1.0806   -2.1792 H   0  0  0  0  0  0  0  0  0  0  0  0
   -6.4992   -2.1360   -3.3995 H   0  0  0  0  0  0  0  0  0  0  0  0
   -1.9199   -1.0028    0.8417 H   0  0  0  0  0  0  0  0  0  0  0  0
    3.2026   -2.0854   -1.5942 H   0  0  0  0  0  0  0  0  0  0  0  0
  1  2  1  0
  2  3  2  0
  3  4  1  0
  4  5  2  0
  5  6  1  0
  6  7  1  0
  7  8  1  0
  8  9  2  0
  8 10  1  0
 10 11  1  0
 11 12  1  0
 12 13  2  0
 13 14  1  0
 14 15  1  0
 15 16  1  0
 16 17  1  0
 17 18  1  0
 18 19  2  0
 18 20  1  0
 14 21  1  0
  5 22  1  0
 22 23  1  0
 23 24  2  0
 23 25  1  0
 22 26  2  0
 26  2  1  0
 21 11  2  0
  1 27  1  0
  1 28  1  0
  1 29  1  0
  3 30  1  0
  4 31  1  0
  7 32  1  0
  7 33  1  0
 10 34  1  0
 12 35  1  0
 15 36  1  0
 15 37  1  0
 16 38  1  0
 16 39  1  0
 17 40  1  0
 17 41  1  0
 20 42  1  0
 21 43  1  0
 26 44  1  0
M  CHG  2  23   1  25  -1
M  END
$$$$
