
     RDKit          3D

 41 42  0  0  0  0  0  0  0  0999 V2000
   -7.6062    0.0165    1.6855 C   0  0  0  0  0  0  0  0  0  0  0  0
   -6.1852   -0.3636    1.3332 C   0  0  0  0  0  0  0  0  0  0  0  0
   -5.8970   -1.5615    1.3281 O   0  0  0  0  0  0  0  0  0  0  0  0
   -5.2964    0.6931    1.0657 N   0  0  0  0  0  0  0  0  0  0  0  0
   -5.6967    2.0888    1.2612 C   0  0  0  0  0  0  0  0  0  0  0  0
   -3.9170    0.4526    0.7067 C   0  0  0  0  0  0  0  0  0  0  0  0
   -2.9322    1.4271    0.9215 C   0  0  0  0  0  0  0  0  0  0  0  0
   -1.5939    1.2070    0.5616 C   0  0  0  0  0  0  0  0  0  0  0  0
   -1.1878    0.0105   -0.0385 C   0  0  0  0  0  0  0  0  0  0  0  0
    0.1847   -0.0928   -0.3514 N   0  0  0  0  0  0  0  0  0  0  0  0
    0.9454   -1.0374   -0.9992 C   0  0  0  0  0  0  0  0  0  0  0  0
    0.4921   -2.4520   -1.7607 S   0  0  0  0  0  0  0  0  0  0  0  0
    2.3070   -0.7617   -1.0284 N   0  0  0  0  0  0  0  0  0  0  0  0
    2.9857    0.3207   -0.5054 C   0  0  0  0  0  0  0  0  0  0  0  0
    2.4446    1.3071   -0.0141 O   0  0  0  0  0  0  0  0  0  0  0  0
    4.4603    0.2842   -0.6521 C   0  0  0  0  0  0  0  0  0  0  0  0
    5.1808   -0.8391   -0.5271 C   0  0  0  0  0  0  0  0  0  0  0  0
    6.5991   -0.8561   -0.6375 C   0  0  0  0  0  0  0  0  0  0  0  0
    7.5266    0.1579   -0.8596 C   0  0  0  0  0  0  0  0  0  0  0  0
    8.8176   -0.4233   -0.8789 C   0  0  0  0  0  0  0  0  0  0  0  0
    8.6262   -1.7634   -0.6690 C   0  0  0  0  0  0  0  0  0  0  0  0
    7.3075   -2.0336   -0.5244 O   0  0  0  0  0  0  0  0  0  0  0  0
   -2.1554   -0.9614   -0.2562 C   0  0  0  0  0  0  0  0  0  0  0  0
   -3.4969   -0.7409    0.1083 C   0  0  0  0  0  0  0  0  0  0  0  0
   -8.1729   -0.8893    1.9250 H   0  0  0  0  0  0  0  0  0  0  0  0
   -8.0916    0.4974    0.8324 H   0  0  0  0  0  0  0  0  0  0  0  0
   -7.6255    0.6622    2.5673 H   0  0  0  0  0  0  0  0  0  0  0  0
   -5.2234    2.7323    0.5124 H   0  0  0  0  0  0  0  0  0  0  0  0
   -5.4131    2.3992    2.2716 H   0  0  0  0  0  0  0  0  0  0  0  0
   -6.7725    2.2312    1.1464 H   0  0  0  0  0  0  0  0  0  0  0  0
   -3.1616    2.3729    1.4025 H   0  0  0  0  0  0  0  0  0  0  0  0
   -0.8716    1.9958    0.7635 H   0  0  0  0  0  0  0  0  0  0  0  0
    0.7326    0.7172   -0.0564 H   0  0  0  0  0  0  0  0  0  0  0  0
    2.8375   -1.4709   -1.5162 H   0  0  0  0  0  0  0  0  0  0  0  0
    4.9104    1.2604   -0.7953 H   0  0  0  0  0  0  0  0  0  0  0  0
    4.7122   -1.7956   -0.3138 H   0  0  0  0  0  0  0  0  0  0  0  0
    7.3010    1.2070   -0.9921 H   0  0  0  0  0  0  0  0  0  0  0  0
    9.7659    0.0739   -1.0261 H   0  0  0  0  0  0  0  0  0  0  0  0
    9.2891   -2.6145   -0.5980 H   0  0  0  0  0  0  0  0  0  0  0  0
   -1.9299   -1.9218   -0.6997 H   0  0  0  0  0  0  0  0  0  0  0  0
   -4.1998   -1.5361   -0.1251 H   0  0  0  0  0  0  0  0  0  0  0  0
  1  2  1  0
  2  3  2  0
  2  4  1  0
  4  5  1  0
  4  6  1  0
  6  7  2  0
  7  8  1  0
  8  9  2  0
  9 10  1  0
 10 11  1  0
 11 12  2  0
 11 13  1  0
 13 14  1  0
 14 15  2  0
 14 16  1  0
 16 17  2  3
 17 18  1  0
 18 19  2  0
 19 20  1  0
 20 21  2  0
 21 22  1  0
  9 23  1  0
 23 24  2  0
 24  6  1  0
 22 18  1  0
  1 25  1  0
  1 26  1  0
  1 27  1  0
  5 28  1  0
  5 29  1  0
  5 30  1  0
  7 31  1  0
  8 32  1  0
 10 33  1  0
 13 34  1  0
 16 35  1  0
 17 36  1  0
 19 37  1  0
 20 38  1  0
 21 39  1  0
 23 40  1  0
 24 41  1  0
M  END
$$$$
