
     RDKit          3D

 49 52  0  0  0  0  0  0  0  0999 V2000
    1.6662    2.6713   -1.3874 C   0  0  0  0  0  0  0  0  0  0  0  0
    1.3171    1.2851   -0.8515 C   0  0  0  0  0  0  0  0  0  0  0  0
    2.2748    0.2969   -1.3085 N   0  0  0  0  0  0  0  0  0  0  0  0
    3.4883    0.1246   -0.7094 C   0  0  0  0  0  0  0  0  0  0  0  0
    3.9079    0.7925    0.2245 O   0  0  0  0  0  0  0  0  0  0  0  0
    4.2715   -0.9604   -1.3298 C   0  0  0  0  0  0  0  0  0  0  0  0
    4.7138   -2.0735   -0.7297 C   0  0  0  0  0  0  0  0  0  0  0  0
    4.4781   -2.4904    0.6104 C   0  0  0  0  0  0  0  0  0  0  0  0
    3.6261   -2.0367    1.6130 C   0  0  0  0  0  0  0  0  0  0  0  0
    3.8042   -2.8546    2.7556 C   0  0  0  0  0  0  0  0  0  0  0  0
    4.7497   -3.7804    2.4057 C   0  0  0  0  0  0  0  0  0  0  0  0
    5.1535   -3.5804    1.1298 O   0  0  0  0  0  0  0  0  0  0  0  0
   -0.0343    0.8458   -1.3525 C   0  0  0  0  0  0  0  0  0  0  0  0
   -0.2190    0.1081   -2.4352 N   0  0  0  0  0  0  0  0  0  0  0  0
   -1.5734   -0.0193   -2.5766 C   0  0  0  0  0  0  0  0  0  0  0  0
   -2.2973   -0.6840   -3.5780 C   0  0  0  0  0  0  0  0  0  0  0  0
   -3.6946   -0.6557   -3.5347 C   0  0  0  0  0  0  0  0  0  0  0  0
   -4.3572    0.0255   -2.5152 C   0  0  0  0  0  0  0  0  0  0  0  0
   -3.6499    0.6909   -1.5061 C   0  0  0  0  0  0  0  0  0  0  0  0
   -2.2498    0.6435   -1.5561 C   0  0  0  0  0  0  0  0  0  0  0  0
   -1.2454    1.1482   -0.7518 N   0  0  0  0  0  0  0  0  0  0  0  0
   -1.4323    1.9555    0.4541 C   0  0  0  0  0  0  0  0  0  0  0  0
   -2.2628    1.2908    1.5327 C   0  0  0  0  0  0  0  0  0  0  0  0
   -1.8578    0.0882    2.1479 C   0  0  0  0  0  0  0  0  0  0  0  0
   -0.3632   -0.6929    1.7686 Cl  0  0  0  0  0  0  0  0  0  0  0  0
   -2.6377   -0.5230    3.1385 C   0  0  0  0  0  0  0  0  0  0  0  0
   -3.8289    0.0585    3.5560 C   0  0  0  0  0  0  0  0  0  0  0  0
   -4.2336    1.2623    2.9924 C   0  0  0  0  0  0  0  0  0  0  0  0
   -3.4580    1.8767    2.0003 C   0  0  0  0  0  0  0  0  0  0  0  0
   -4.0484    3.3907    1.4017 Cl  0  0  0  0  0  0  0  0  0  0  0  0
    2.6536    2.9914   -1.0381 H   0  0  0  0  0  0  0  0  0  0  0  0
    0.9349    3.4180   -1.0595 H   0  0  0  0  0  0  0  0  0  0  0  0
    1.6864    2.6830   -2.4837 H   0  0  0  0  0  0  0  0  0  0  0  0
    1.3542    1.2952    0.2416 H   0  0  0  0  0  0  0  0  0  0  0  0
    1.9613   -0.3143   -2.0565 H   0  0  0  0  0  0  0  0  0  0  0  0
    4.5091   -0.7916   -2.3751 H   0  0  0  0  0  0  0  0  0  0  0  0
    5.3169   -2.7567   -1.3232 H   0  0  0  0  0  0  0  0  0  0  0  0
    2.9424   -1.2033    1.5400 H   0  0  0  0  0  0  0  0  0  0  0  0
    3.3026   -2.7739    3.7089 H   0  0  0  0  0  0  0  0  0  0  0  0
    5.2188   -4.6067    2.9210 H   0  0  0  0  0  0  0  0  0  0  0  0
   -1.7722   -1.2021   -4.3726 H   0  0  0  0  0  0  0  0  0  0  0  0
   -4.2657   -1.1650   -4.3071 H   0  0  0  0  0  0  0  0  0  0  0  0
   -5.4454    0.0418   -2.5026 H   0  0  0  0  0  0  0  0  0  0  0  0
   -4.1871    1.2173   -0.7275 H   0  0  0  0  0  0  0  0  0  0  0  0
   -0.4587    2.2159    0.8775 H   0  0  0  0  0  0  0  0  0  0  0  0
   -1.8578    2.8959    0.0927 H   0  0  0  0  0  0  0  0  0  0  0  0
   -2.3122   -1.4556    3.5957 H   0  0  0  0  0  0  0  0  0  0  0  0
   -4.4310   -0.4175    4.3260 H   0  0  0  0  0  0  0  0  0  0  0  0
   -5.1577    1.7248    3.3340 H   0  0  0  0  0  0  0  0  0  0  0  0
  1  2  1  0
  2  3  1  0
  3  4  1  0
  4  5  2  0
  4  6  1  0
  6  7  2  3
  7  8  1  0
  8  9  2  0
  9 10  1  0
 10 11  2  0
 11 12  1  0
  2 13  1  0
 13 14  2  0
 14 15  1  0
 15 16  2  0
 16 17  1  0
 17 18  2  0
 18 19  1  0
 19 20  2  0
 20 21  1  0
 21 22  1  0
 22 23  1  0
 23 24  2  0
 24 25  1  0
 24 26  1  0
 26 27  2  0
 27 28  1  0
 28 29  2  0
 29 30  1  0
 12  8  1  0
 21 13  1  0
 29 23  1  0
 20 15  1  0
  1 31  1  0
  1 32  1  0
  1 33  1  0
  2 34  1  0
  3 35  1  0
  6 36  1  0
  7 37  1  0
  9 38  1  0
 10 39  1  0
 11 40  1  0
 16 41  1  0
 17 42  1  0
 18 43  1  0
 19 44  1  0
 22 45  1  0
 22 46  1  0
 26 47  1  0
 27 48  1  0
 28 49  1  0
M  END
$$$$
