
     RDKit          3D

 49 51  0  0  0  0  0  0  0  0999 V2000
   -4.2450   -0.7024   -3.9747 C   0  0  0  0  0  0  0  0  0  0  0  0
   -5.0726   -0.6387   -2.8215 O   0  0  0  0  0  0  0  0  0  0  0  0
   -4.4740   -0.3827   -1.6157 C   0  0  0  0  0  0  0  0  0  0  0  0
   -3.0953   -0.3230   -1.4071 C   0  0  0  0  0  0  0  0  0  0  0  0
   -2.5940   -0.0477   -0.1261 C   0  0  0  0  0  0  0  0  0  0  0  0
   -1.1324    0.0254    0.1350 C   0  0  0  0  0  0  0  0  0  0  0  0
   -0.6801   -0.3294    1.2202 O   0  0  0  0  0  0  0  0  0  0  0  0
   -0.3523    0.5519   -0.8861 N   0  0  0  0  0  0  0  0  0  0  0  0
    1.0298    0.6772   -0.9566 C   0  0  0  0  0  0  0  0  0  0  0  0
    1.6091    1.3908   -2.3483 S   0  0  0  0  0  0  0  0  0  0  0  0
    1.7024    0.1925    0.1404 N   0  0  0  0  0  0  0  0  0  0  0  0
    3.0681    0.0667    0.4762 C   0  0  0  0  0  0  0  0  0  0  0  0
    3.3295   -0.4120    1.7893 C   0  0  0  0  0  0  0  0  0  0  0  0
    4.6324   -0.5940    2.2698 C   0  0  0  0  0  0  0  0  0  0  0  0
    5.6617   -0.2922    1.4077 C   0  0  0  0  0  0  0  0  0  0  0  0
    5.4228    0.1671    0.1272 C   0  0  0  0  0  0  0  0  0  0  0  0
    4.1425    0.3558   -0.3685 C   0  0  0  0  0  0  0  0  0  0  0  0
    6.7217    0.3798   -0.5122 C   0  0  0  0  0  0  0  0  0  0  0  0
    6.8671    0.7925   -1.6464 O   0  0  0  0  0  0  0  0  0  0  0  0
    7.6692    0.0312    0.4104 N   0  0  0  0  0  0  0  0  0  0  0  0
    9.0916    0.1141    0.1905 C   0  0  0  0  0  0  0  0  0  0  0  0
    7.1094   -0.3712    1.5910 C   0  0  0  0  0  0  0  0  0  0  0  0
    7.6511   -0.7288    2.6191 O   0  0  0  0  0  0  0  0  0  0  0  0
   -3.4642    0.1395    0.9577 C   0  0  0  0  0  0  0  0  0  0  0  0
   -4.8441    0.0818    0.7666 C   0  0  0  0  0  0  0  0  0  0  0  0
   -5.7802    0.2647    1.7502 O   0  0  0  0  0  0  0  0  0  0  0  0
   -5.3140    0.6069    3.0486 C   0  0  0  0  0  0  0  0  0  0  0  0
   -5.3378   -0.1913   -0.5216 C   0  0  0  0  0  0  0  0  0  0  0  0
   -6.6993   -0.1989   -0.7342 O   0  0  0  0  0  0  0  0  0  0  0  0
   -7.2160   -1.5136   -0.5336 C   0  0  0  0  0  0  0  0  0  0  0  0
   -3.6825    0.2271   -4.1120 H   0  0  0  0  0  0  0  0  0  0  0  0
   -3.5748   -1.5668   -3.9279 H   0  0  0  0  0  0  0  0  0  0  0  0
   -4.8940   -0.8313   -4.8462 H   0  0  0  0  0  0  0  0  0  0  0  0
   -2.4069   -0.5190   -2.2211 H   0  0  0  0  0  0  0  0  0  0  0  0
   -0.8184    0.9402   -1.6954 H   0  0  0  0  0  0  0  0  0  0  0  0
    1.0646   -0.1140    0.8789 H   0  0  0  0  0  0  0  0  0  0  0  0
    2.5012   -0.6467    2.4582 H   0  0  0  0  0  0  0  0  0  0  0  0
    4.8246   -0.9572    3.2741 H   0  0  0  0  0  0  0  0  0  0  0  0
    4.0393    0.7048   -1.3855 H   0  0  0  0  0  0  0  0  0  0  0  0
    9.4825    0.9553    0.7708 H   0  0  0  0  0  0  0  0  0  0  0  0
    9.3142    0.2655   -0.8688 H   0  0  0  0  0  0  0  0  0  0  0  0
    9.5672   -0.8038    0.5481 H   0  0  0  0  0  0  0  0  0  0  0  0
   -3.0366    0.3339    1.9371 H   0  0  0  0  0  0  0  0  0  0  0  0
   -4.7130   -0.2020    3.4763 H   0  0  0  0  0  0  0  0  0  0  0  0
   -4.7569    1.5495    3.0335 H   0  0  0  0  0  0  0  0  0  0  0  0
   -6.1882    0.7471    3.6915 H   0  0  0  0  0  0  0  0  0  0  0  0
   -7.0619   -1.8514    0.4969 H   0  0  0  0  0  0  0  0  0  0  0  0
   -6.7735   -2.2283   -1.2361 H   0  0  0  0  0  0  0  0  0  0  0  0
   -8.2937   -1.4812   -0.7199 H   0  0  0  0  0  0  0  0  0  0  0  0
  1  2  1  0
  2  3  1  0
  3  4  2  0
  4  5  1  0
  5  6  1  0
  6  7  2  0
  6  8  1  0
  8  9  1  0
  9 10  2  0
  9 11  1  0
 11 12  1  0
 12 13  2  0
 13 14  1  0
 14 15  2  0
 15 16  1  0
 16 17  2  0
 16 18  1  0
 18 19  2  0
 18 20  1  0
 20 21  1  0
 20 22  1  0
 22 23  2  0
  5 24  2  0
 24 25  1  0
 25 26  1  0
 26 27  1  0
 25 28  2  0
 28 29  1  0
 29 30  1  0
 28  3  1  0
 17 12  1  0
 22 15  1  0
  1 31  1  0
  1 32  1  0
  1 33  1  0
  4 34  1  0
  8 35  1  0
 11 36  1  0
 13 37  1  0
 14 38  1  0
 17 39  1  0
 21 40  1  0
 21 41  1  0
 21 42  1  0
 24 43  1  0
 27 44  1  0
 27 45  1  0
 27 46  1  0
 30 47  1  0
 30 48  1  0
 30 49  1  0
M  END
$$$$
