
     RDKit          3D

 50 53  0  0  0  0  0  0  0  0999 V2000
   -1.5646   -1.2816    1.0777 O   0  0  0  0  0  0  0  0  0  0  0  0
   -2.1154   -0.5272    0.2738 C   0  0  0  0  0  0  0  0  0  0  0  0
   -3.4861   -0.8744   -0.3262 C   0  0  0  0  0  0  0  0  0  0  0  0
   -4.5658    0.1302    0.1287 C   0  0  0  0  0  0  0  0  0  0  0  0
   -5.4841   -0.4388    1.2057 C   0  0  0  0  0  0  0  0  0  0  0  0
   -6.2087   -1.6987    0.7332 C   0  0  0  0  0  0  0  0  0  0  0  0
   -5.3727   -2.5591   -0.2139 C   0  0  0  0  0  0  0  0  0  0  0  0
   -3.8801   -2.3323   -0.0111 C   0  0  0  0  0  0  0  0  0  0  0  0
   -1.5187    0.6758   -0.1052 N   0  0  0  0  0  0  0  0  0  0  0  0
   -1.8317    1.4041   -1.3341 C   0  0  0  0  0  0  0  0  0  0  0  0
   -0.8175    1.0351   -2.4174 C   0  0  0  0  0  0  0  0  0  0  0  0
    0.6191    1.2798   -1.9386 C   0  0  0  0  0  0  0  0  0  0  0  0
    0.8953    0.5986   -0.5829 C   0  0  0  0  0  0  0  0  0  0  0  0
    2.2522    0.9385   -0.0795 C   0  0  0  0  0  0  0  0  0  0  0  0
    3.3101    0.1722    0.0463 N   0  0  0  0  0  0  0  0  0  0  0  0
    4.2564    1.0420    0.5473 C   0  0  0  0  0  0  0  0  0  0  0  0
    5.6182    0.6169    0.8571 C   0  0  0  0  0  0  0  0  0  0  0  0
    6.5691    1.5287    1.3464 C   0  0  0  0  0  0  0  0  0  0  0  0
    7.8703    1.1098    1.6387 C   0  0  0  0  0  0  0  0  0  0  0  0
    8.2233   -0.2197    1.4432 C   0  0  0  0  0  0  0  0  0  0  0  0
    9.4704   -0.6195    1.7231 F   0  0  0  0  0  0  0  0  0  0  0  0
    7.3007   -1.1400    0.9617 C   0  0  0  0  0  0  0  0  0  0  0  0
    5.9995   -0.7226    0.6689 C   0  0  0  0  0  0  0  0  0  0  0  0
    3.8031    2.2963    0.7125 N   0  0  0  0  0  0  0  0  0  0  0  0
    2.4771    2.2297    0.2968 O   0  0  0  0  0  0  0  0  0  0  0  0
   -0.1900    0.9799    0.4346 C   0  0  0  0  0  0  0  0  0  0  0  0
   -3.3846   -0.8129   -1.4170 H   0  0  0  0  0  0  0  0  0  0  0  0
   -5.1788    0.4048   -0.7398 H   0  0  0  0  0  0  0  0  0  0  0  0
   -4.1232    1.0614    0.4996 H   0  0  0  0  0  0  0  0  0  0  0  0
   -6.2205    0.3135    1.5104 H   0  0  0  0  0  0  0  0  0  0  0  0
   -4.8900   -0.6713    2.0986 H   0  0  0  0  0  0  0  0  0  0  0  0
   -6.4988   -2.2872    1.6120 H   0  0  0  0  0  0  0  0  0  0  0  0
   -7.1429   -1.4241    0.2283 H   0  0  0  0  0  0  0  0  0  0  0  0
   -5.6358   -2.3192   -1.2519 H   0  0  0  0  0  0  0  0  0  0  0  0
   -5.6207   -3.6163   -0.0668 H   0  0  0  0  0  0  0  0  0  0  0  0
   -3.6197   -2.6037    1.0197 H   0  0  0  0  0  0  0  0  0  0  0  0
   -3.3089   -3.0090   -0.6585 H   0  0  0  0  0  0  0  0  0  0  0  0
   -2.8432    1.2018   -1.6879 H   0  0  0  0  0  0  0  0  0  0  0  0
   -1.7772    2.4757   -1.1087 H   0  0  0  0  0  0  0  0  0  0  0  0
   -0.9313   -0.0236   -2.6817 H   0  0  0  0  0  0  0  0  0  0  0  0
   -1.0103    1.6196   -3.3236 H   0  0  0  0  0  0  0  0  0  0  0  0
    0.7838    2.3626   -1.8573 H   0  0  0  0  0  0  0  0  0  0  0  0
    1.3245    0.9146   -2.6952 H   0  0  0  0  0  0  0  0  0  0  0  0
    0.8532   -0.4879   -0.7400 H   0  0  0  0  0  0  0  0  0  0  0  0
    6.3048    2.5727    1.5046 H   0  0  0  0  0  0  0  0  0  0  0  0
    8.6068    1.8121    2.0162 H   0  0  0  0  0  0  0  0  0  0  0  0
    7.5965   -2.1742    0.8170 H   0  0  0  0  0  0  0  0  0  0  0  0
    5.2824   -1.4506    0.2930 H   0  0  0  0  0  0  0  0  0  0  0  0
   -0.1689    2.0550    0.6553 H   0  0  0  0  0  0  0  0  0  0  0  0
   -0.0266    0.4625    1.3870 H   0  0  0  0  0  0  0  0  0  0  0  0
  1  2  2  0
  2  3  1  0
  3  4  1  0
  4  5  1  0
  5  6  1  0
  6  7  1  0
  7  8  1  0
  2  9  1  0
  9 10  1  0
 10 11  1  0
 11 12  1  0
 12 13  1  0
 13 14  1  0
 14 15  2  0
 15 16  1  0
 16 17  1  0
 17 18  2  0
 18 19  1  0
 19 20  2  0
 20 21  1  0
 20 22  1  0
 22 23  2  0
 16 24  2  0
 24 25  1  0
 13 26  1  0
  8  3  1  0
 26  9  1  0
 25 14  1  0
 23 17  1  0
  3 27  1  0
  4 28  1  0
  4 29  1  0
  5 30  1  0
  5 31  1  0
  6 32  1  0
  6 33  1  0
  7 34  1  0
  7 35  1  0
  8 36  1  0
  8 37  1  0
 10 38  1  0
 10 39  1  0
 11 40  1  0
 11 41  1  0
 12 42  1  0
 12 43  1  0
 13 44  1  0
 18 45  1  0
 19 46  1  0
 22 47  1  0
 23 48  1  0
 26 49  1  0
 26 50  1  0
M  END
$$$$
