
     RDKit          3D

 45 47  0  0  0  0  0  0  0  0999 V2000
    6.0509   -0.1218   -2.7944 C   0  0  0  0  0  0  0  0  0  0  0  0
    5.2646   -0.7958   -1.6914 C   0  0  0  0  0  0  0  0  0  0  0  0
    5.7636   -0.7645   -0.4962 N   0  0  0  0  0  0  0  0  0  0  0  0
    3.9570   -1.4703   -2.0713 C   0  0  0  0  0  0  0  0  0  0  0  0
    4.2338   -2.6330   -2.9191 C   0  0  0  0  0  0  0  0  0  0  0  0
    4.3965   -3.5564   -3.6023 N   0  0  0  0  0  0  0  0  0  0  0  0
    3.0651   -1.9161   -0.9314 C   0  0  0  0  0  0  0  0  0  0  0  0
    3.4210   -1.8739    0.2503 O   0  0  0  0  0  0  0  0  0  0  0  0
    1.6656   -2.4110   -1.3066 C   0  0  0  0  0  0  0  0  0  0  0  0
    0.6620   -1.9029   -0.4288 O   0  0  0  0  0  0  0  0  0  0  0  0
    0.4926   -0.5611   -0.5272 C   0  0  0  0  0  0  0  0  0  0  0  0
    1.0668    0.1691   -1.3198 O   0  0  0  0  0  0  0  0  0  0  0  0
   -0.5726   -0.1141    0.3890 C   0  0  0  0  0  0  0  0  0  0  0  0
   -1.5939    0.6402   -0.1931 C   0  0  0  0  0  0  0  0  0  0  0  0
   -2.6379    1.0700    0.6063 C   0  0  0  0  0  0  0  0  0  0  0  0
   -3.7736    1.8645    0.0945 C   0  0  0  0  0  0  0  0  0  0  0  0
   -3.6257    2.7926   -0.9545 C   0  0  0  0  0  0  0  0  0  0  0  0
   -4.7123    3.5350   -1.4299 C   0  0  0  0  0  0  0  0  0  0  0  0
   -5.9729    3.3682   -0.8633 C   0  0  0  0  0  0  0  0  0  0  0  0
   -6.1392    2.4638    0.1806 C   0  0  0  0  0  0  0  0  0  0  0  0
   -7.8473    2.2367    0.9594 Br  0  0  0  0  0  0  0  0  0  0  0  0
   -5.0565    1.7224    0.6573 C   0  0  0  0  0  0  0  0  0  0  0  0
   -2.6826    0.7653    1.9255 N   0  0  0  0  0  0  0  0  0  0  0  0
   -1.6844    0.0669    2.4927 C   0  0  0  0  0  0  0  0  0  0  0  0
   -1.7586   -0.1889    3.8554 C   0  0  0  0  0  0  0  0  0  0  0  0
   -0.7576   -0.8866    4.5337 C   0  0  0  0  0  0  0  0  0  0  0  0
    0.3531   -1.3395    3.8385 C   0  0  0  0  0  0  0  0  0  0  0  0
    0.4496   -1.0992    2.4689 C   0  0  0  0  0  0  0  0  0  0  0  0
   -0.5727   -0.4039    1.7711 C   0  0  0  0  0  0  0  0  0  0  0  0
    6.4603   -0.8779   -3.4692 H   0  0  0  0  0  0  0  0  0  0  0  0
    5.3930    0.5463   -3.3564 H   0  0  0  0  0  0  0  0  0  0  0  0
    6.8754    0.4628   -2.3766 H   0  0  0  0  0  0  0  0  0  0  0  0
    5.1436   -1.2326    0.1910 H   0  0  0  0  0  0  0  0  0  0  0  0
    3.3885   -0.7243   -2.6408 H   0  0  0  0  0  0  0  0  0  0  0  0
    1.6653   -3.5030   -1.2292 H   0  0  0  0  0  0  0  0  0  0  0  0
    1.4162   -2.1528   -2.3420 H   0  0  0  0  0  0  0  0  0  0  0  0
   -1.5728    0.8594   -1.2558 H   0  0  0  0  0  0  0  0  0  0  0  0
   -2.6514    2.9686   -1.4061 H   0  0  0  0  0  0  0  0  0  0  0  0
   -4.5705    4.2487   -2.2379 H   0  0  0  0  0  0  0  0  0  0  0  0
   -6.8127    3.9490   -1.2352 H   0  0  0  0  0  0  0  0  0  0  0  0
   -5.2061    1.0215    1.4774 H   0  0  0  0  0  0  0  0  0  0  0  0
   -2.6217    0.1735    4.4104 H   0  0  0  0  0  0  0  0  0  0  0  0
   -0.8474   -1.0649    5.6022 H   0  0  0  0  0  0  0  0  0  0  0  0
    1.1455   -1.8745    4.3564 H   0  0  0  0  0  0  0  0  0  0  0  0
    1.3404   -1.4555    1.9553 H   0  0  0  0  0  0  0  0  0  0  0  0
  1  2  1  0
  2  3  2  3
  2  4  1  0
  4  5  1  0
  5  6  3  0
  4  7  1  0
  7  8  2  0
  7  9  1  0
  9 10  1  0
 10 11  1  0
 11 12  2  0
 11 13  1  0
 13 14  2  0
 14 15  1  0
 15 16  1  0
 16 17  2  0
 17 18  1  0
 18 19  2  0
 19 20  1  0
 20 21  1  0
 20 22  2  0
 15 23  2  0
 23 24  1  0
 24 25  2  0
 25 26  1  0
 26 27  2  0
 27 28  1  0
 28 29  2  0
 29 13  1  0
 22 16  1  0
 29 24  1  0
  1 30  1  0
  1 31  1  0
  1 32  1  0
  3 33  1  0
  4 34  1  0
  9 35  1  0
  9 36  1  0
 14 37  1  0
 17 38  1  0
 18 39  1  0
 19 40  1  0
 22 41  1  0
 25 42  1  0
 26 43  1  0
 27 44  1  0
 28 45  1  0
M  END
$$$$
