
     RDKit          3D

 35 37  0  0  0  0  0  0  0  0999 V2000
   -6.8709    0.0847   -0.7348 O   0  0  0  0  0  0  0  0  0  0  0  0
   -5.5425    0.3780   -0.6437 C   0  0  0  0  0  0  0  0  0  0  0  0
   -4.7738    0.2632   -1.7953 C   0  0  0  0  0  0  0  0  0  0  0  0
   -3.4094    0.5526   -1.7488 C   0  0  0  0  0  0  0  0  0  0  0  0
   -2.8129    0.9620   -0.5481 C   0  0  0  0  0  0  0  0  0  0  0  0
   -1.3344    1.2558   -0.4892 C   0  0  0  0  0  0  0  0  0  0  0  0
   -0.5154    0.0191   -0.1003 C   0  0  0  0  0  0  0  0  0  0  0  0
    0.9089    0.3675   -0.0692 N   0  0  0  0  0  0  0  0  0  0  0  0
    1.7655   -0.6781    0.3484 C   0  0  0  0  0  0  0  0  0  0  0  0
    1.2290   -1.8637    0.6810 N   0  0  0  0  0  0  0  0  0  0  0  0
    2.0768   -2.8245    1.0620 C   0  0  0  0  0  0  0  0  0  0  0  0
    3.4074   -2.7204    1.1440 N   0  0  0  0  0  0  0  0  0  0  0  0
    3.9324   -1.5342    0.8315 C   0  0  0  0  0  0  0  0  0  0  0  0
    5.3107   -1.3749    0.9179 C   0  0  0  0  0  0  0  0  0  0  0  0
    5.9346   -0.1601    0.6184 C   0  0  0  0  0  0  0  0  0  0  0  0
    5.1630    0.9247    0.2276 C   0  0  0  0  0  0  0  0  0  0  0  0
    5.9134    2.4278   -0.1348 Cl  0  0  0  0  0  0  0  0  0  0  0  0
    3.7816    0.7948    0.1298 C   0  0  0  0  0  0  0  0  0  0  0  0
    3.1519   -0.4417    0.4230 C   0  0  0  0  0  0  0  0  0  0  0  0
   -3.6036    1.0673    0.6055 C   0  0  0  0  0  0  0  0  0  0  0  0
   -4.9691    0.7775    0.5587 C   0  0  0  0  0  0  0  0  0  0  0  0
   -7.2746    0.2090    0.1396 H   0  0  0  0  0  0  0  0  0  0  0  0
   -5.2354   -0.0520   -2.7267 H   0  0  0  0  0  0  0  0  0  0  0  0
   -2.8177    0.4561   -2.6562 H   0  0  0  0  0  0  0  0  0  0  0  0
   -1.1512    2.0692    0.2253 H   0  0  0  0  0  0  0  0  0  0  0  0
   -0.9986    1.6402   -1.4613 H   0  0  0  0  0  0  0  0  0  0  0  0
   -0.6932   -0.7846   -0.8266 H   0  0  0  0  0  0  0  0  0  0  0  0
   -0.8437   -0.3310    0.8870 H   0  0  0  0  0  0  0  0  0  0  0  0
    1.2300    0.6937   -0.9777 H   0  0  0  0  0  0  0  0  0  0  0  0
    1.6430   -3.7824    1.3278 H   0  0  0  0  0  0  0  0  0  0  0  0
    5.9186   -2.2214    1.2319 H   0  0  0  0  0  0  0  0  0  0  0  0
    7.0148   -0.0739    0.6999 H   0  0  0  0  0  0  0  0  0  0  0  0
    3.1846    1.6563   -0.1590 H   0  0  0  0  0  0  0  0  0  0  0  0
   -3.1581    1.3760    1.5492 H   0  0  0  0  0  0  0  0  0  0  0  0
   -5.5618    0.8674    1.4633 H   0  0  0  0  0  0  0  0  0  0  0  0
  1  2  1  0
  2  3  2  0
  3  4  1  0
  4  5  2  0
  5  6  1  0
  6  7  1  0
  7  8  1  0
  8  9  1  0
  9 10  2  0
 10 11  1  0
 11 12  2  0
 12 13  1  0
 13 14  2  0
 14 15  1  0
 15 16  2  0
 16 17  1  0
 16 18  1  0
 18 19  2  0
  5 20  1  0
 20 21  2  0
 21  2  1  0
 19  9  1  0
 19 13  1  0
  1 22  1  0
  3 23  1  0
  4 24  1  0
  6 25  1  0
  6 26  1  0
  7 27  1  0
  7 28  1  0
  8 29  1  0
 11 30  1  0
 14 31  1  0
 15 32  1  0
 18 33  1  0
 20 34  1  0
 21 35  1  0
M  END
$$$$
