
     RDKit          3D

 45 48  0  0  0  0  0  0  0  0999 V2000
   -4.1019    1.3931   -2.4442 C   0  0  0  0  0  0  0  0  0  0  0  0
   -4.4758    1.5031   -1.0690 O   0  0  0  0  0  0  0  0  0  0  0  0
   -4.7795    0.2527   -0.5757 C   0  0  0  0  0  0  0  0  0  0  0  0
   -6.1394   -0.0848   -0.5607 C   0  0  0  0  0  0  0  0  0  0  0  0
   -6.5380   -1.3419   -0.1241 C   0  0  0  0  0  0  0  0  0  0  0  0
   -5.5773   -2.2521    0.2998 C   0  0  0  0  0  0  0  0  0  0  0  0
   -4.2206   -1.8981    0.3065 C   0  0  0  0  0  0  0  0  0  0  0  0
   -3.7766   -0.6280   -0.1041 C   0  0  0  0  0  0  0  0  0  0  0  0
   -2.4244   -0.2757   -0.0581 N   0  0  0  0  0  0  0  0  0  0  0  0
   -1.3819   -1.3015    0.0845 C   0  0  0  0  0  0  0  0  0  0  0  0
    0.0158   -0.7144   -0.1946 C   0  0  0  0  0  0  0  0  0  0  0  0
    0.3290    0.4583    0.6339 N   0  0  0  0  0  0  0  0  0  0  0  0
    1.6110    0.9477    0.8978 C   0  0  0  0  0  0  0  0  0  0  0  0
    1.7837    1.8083    1.7648 O   0  0  0  0  0  0  0  0  0  0  0  0
    2.7775    0.4463    0.1498 C   0  0  0  0  0  0  0  0  0  0  0  0
    4.1367    0.7092    0.4777 C   0  0  0  0  0  0  0  0  0  0  0  0
    4.8925    0.0805   -0.4886 C   0  0  0  0  0  0  0  0  0  0  0  0
    6.3214    0.0208   -0.6322 C   0  0  0  0  0  0  0  0  0  0  0  0
    7.2790    0.6054    0.1764 C   0  0  0  0  0  0  0  0  0  0  0  0
    8.6088    0.3368   -0.2653 C   0  0  0  0  0  0  0  0  0  0  0  0
    8.6259   -0.4448   -1.3976 C   0  0  0  0  0  0  0  0  0  0  0  0
    7.0496   -0.8487   -1.9197 S   0  0  0  0  0  0  0  0  0  0  0  0
    4.0197   -0.5200   -1.3559 O   0  0  0  0  0  0  0  0  0  0  0  0
    2.7169   -0.2853   -0.9720 N   0  0  0  0  0  0  0  0  0  0  0  0
   -0.8141    1.0881    1.3008 C   0  0  0  0  0  0  0  0  0  0  0  0
   -2.0908    1.0787    0.4388 C   0  0  0  0  0  0  0  0  0  0  0  0
   -3.8758    2.3998   -2.8085 H   0  0  0  0  0  0  0  0  0  0  0  0
   -3.2044    0.7792   -2.5743 H   0  0  0  0  0  0  0  0  0  0  0  0
   -4.9257    0.9936   -3.0461 H   0  0  0  0  0  0  0  0  0  0  0  0
   -6.8782    0.6332   -0.9046 H   0  0  0  0  0  0  0  0  0  0  0  0
   -7.5902   -1.6114   -0.1192 H   0  0  0  0  0  0  0  0  0  0  0  0
   -5.8781   -3.2400    0.6397 H   0  0  0  0  0  0  0  0  0  0  0  0
   -3.5188   -2.6405    0.6742 H   0  0  0  0  0  0  0  0  0  0  0  0
   -1.4022   -1.7122    1.1019 H   0  0  0  0  0  0  0  0  0  0  0  0
   -1.5529   -2.1225   -0.6222 H   0  0  0  0  0  0  0  0  0  0  0  0
    0.7619   -1.4946   -0.0163 H   0  0  0  0  0  0  0  0  0  0  0  0
    0.0736   -0.3930   -1.2410 H   0  0  0  0  0  0  0  0  0  0  0  0
    4.4942    1.2880    1.3167 H   0  0  0  0  0  0  0  0  0  0  0  0
    7.0479    1.2034    1.0496 H   0  0  0  0  0  0  0  0  0  0  0  0
    9.5053    0.6994    0.2230 H   0  0  0  0  0  0  0  0  0  0  0  0
    9.4878   -0.7996   -1.9462 H   0  0  0  0  0  0  0  0  0  0  0  0
   -0.5735    2.1200    1.5784 H   0  0  0  0  0  0  0  0  0  0  0  0
   -0.9842    0.5307    2.2302 H   0  0  0  0  0  0  0  0  0  0  0  0
   -2.9015    1.4980    1.0472 H   0  0  0  0  0  0  0  0  0  0  0  0
   -1.9321    1.7348   -0.4249 H   0  0  0  0  0  0  0  0  0  0  0  0
  1  2  1  0
  2  3  1  0
  3  4  2  0
  4  5  1  0
  5  6  2  0
  6  7  1  0
  7  8  2  0
  8  9  1  0
  9 10  1  0
 10 11  1  0
 11 12  1  0
 12 13  1  0
 13 14  2  0
 13 15  1  0
 15 16  1  0
 16 17  2  0
 17 18  1  0
 18 19  2  0
 19 20  1  0
 20 21  2  0
 21 22  1  0
 17 23  1  0
 23 24  1  0
 12 25  1  0
 25 26  1  0
  8  3  1  0
 26  9  1  0
 24 15  2  0
 22 18  1  0
  1 27  1  0
  1 28  1  0
  1 29  1  0
  4 30  1  0
  5 31  1  0
  6 32  1  0
  7 33  1  0
 10 34  1  0
 10 35  1  0
 11 36  1  0
 11 37  1  0
 16 38  1  0
 19 39  1  0
 20 40  1  0
 21 41  1  0
 25 42  1  0
 25 43  1  0
 26 44  1  0
 26 45  1  0
M  END
$$$$
