
     RDKit          3D

 56 59  0  0  0  0  0  0  0  0999 V2000
    7.6504    2.0504   -1.2057 C   0  0  0  0  0  0  0  0  0  0  0  0
    6.8838    1.3220   -2.1596 O   0  0  0  0  0  0  0  0  0  0  0  0
    5.7285    0.7832   -1.6317 C   0  0  0  0  0  0  0  0  0  0  0  0
    4.9379    0.0582   -2.5031 C   0  0  0  0  0  0  0  0  0  0  0  0
    3.7629   -0.5045   -2.0121 C   0  0  0  0  0  0  0  0  0  0  0  0
    3.4049   -0.3313   -0.6670 C   0  0  0  0  0  0  0  0  0  0  0  0
    2.1305   -0.9618   -0.2057 C   0  0  0  0  0  0  0  0  0  0  0  0
    1.4357   -1.5537   -1.0243 O   0  0  0  0  0  0  0  0  0  0  0  0
    1.8039   -0.8459    1.1234 N   0  0  0  0  0  0  0  0  0  0  0  0
    0.5741   -1.2985    1.7516 C   0  0  0  0  0  0  0  0  0  0  0  0
    0.3062   -2.8192    1.6527 C   0  0  0  0  0  0  0  0  0  0  0  0
   -0.6641   -3.2551    0.5365 C   0  0  0  0  0  0  0  0  0  0  0  0
   -1.9791   -2.4569    0.5170 C   0  0  0  0  0  0  0  0  0  0  0  0
   -1.6993   -1.0011    0.6661 C   0  0  0  0  0  0  0  0  0  0  0  0
   -0.5745   -0.4831    1.2781 C   0  0  0  0  0  0  0  0  0  0  0  0
   -0.8326    0.8893    1.3819 C   0  0  0  0  0  0  0  0  0  0  0  0
   -2.0260    1.2224    0.8919 N   0  0  0  0  0  0  0  0  0  0  0  0
   -2.5247    0.0695    0.3618 N   0  0  0  0  0  0  0  0  0  0  0  0
   -3.7080    0.0965   -0.4328 C   0  0  0  0  0  0  0  0  0  0  0  0
   -3.7321   -0.6831   -1.6009 C   0  0  0  0  0  0  0  0  0  0  0  0
   -4.8343   -0.6544   -2.4496 C   0  0  0  0  0  0  0  0  0  0  0  0
   -5.9128    0.1720   -2.1554 C   0  0  0  0  0  0  0  0  0  0  0  0
   -5.9077    0.9838   -1.0092 C   0  0  0  0  0  0  0  0  0  0  0  0
   -7.1014    1.8696   -0.7623 C   0  0  0  0  0  0  0  0  0  0  0  0
   -4.8084    0.9348   -0.1138 C   0  0  0  0  0  0  0  0  0  0  0  0
   -4.8347    1.7625    1.1500 C   0  0  0  0  0  0  0  0  0  0  0  0
    4.2728    0.4224    0.1265 C   0  0  0  0  0  0  0  0  0  0  0  0
    3.9530    0.6252    1.4575 O   0  0  0  0  0  0  0  0  0  0  0  0
    4.9041    1.4226    2.1614 C   0  0  0  0  0  0  0  0  0  0  0  0
    5.4244    0.9770   -0.3321 N   0  0  0  0  0  0  0  0  0  0  0  0
    7.9887    1.4016   -0.3899 H   0  0  0  0  0  0  0  0  0  0  0  0
    7.0906    2.9096   -0.8195 H   0  0  0  0  0  0  0  0  0  0  0  0
    8.5394    2.4346   -1.7154 H   0  0  0  0  0  0  0  0  0  0  0  0
    5.2267   -0.0668   -3.5408 H   0  0  0  0  0  0  0  0  0  0  0  0
    3.1265   -1.0782   -2.6835 H   0  0  0  0  0  0  0  0  0  0  0  0
    2.4193   -0.2865    1.7032 H   0  0  0  0  0  0  0  0  0  0  0  0
    0.7243   -1.0768    2.8171 H   0  0  0  0  0  0  0  0  0  0  0  0
   -0.1473   -3.1371    2.6022 H   0  0  0  0  0  0  0  0  0  0  0  0
    1.2482   -3.3738    1.5656 H   0  0  0  0  0  0  0  0  0  0  0  0
   -0.1758   -3.1669   -0.4381 H   0  0  0  0  0  0  0  0  0  0  0  0
   -0.8953   -4.3204    0.6581 H   0  0  0  0  0  0  0  0  0  0  0  0
   -2.6025   -2.7756    1.3619 H   0  0  0  0  0  0  0  0  0  0  0  0
   -2.5250   -2.7109   -0.3918 H   0  0  0  0  0  0  0  0  0  0  0  0
   -0.2131    1.6626    1.8169 H   0  0  0  0  0  0  0  0  0  0  0  0
   -2.8683   -1.2681   -1.9072 H   0  0  0  0  0  0  0  0  0  0  0  0
   -4.8387   -1.2534   -3.3564 H   0  0  0  0  0  0  0  0  0  0  0  0
   -6.7586    0.1932   -2.8397 H   0  0  0  0  0  0  0  0  0  0  0  0
   -6.7825    2.8948   -0.5480 H   0  0  0  0  0  0  0  0  0  0  0  0
   -7.6926    1.4829    0.0736 H   0  0  0  0  0  0  0  0  0  0  0  0
   -7.7544    1.9172   -1.6408 H   0  0  0  0  0  0  0  0  0  0  0  0
   -5.8555    1.9801    1.4775 H   0  0  0  0  0  0  0  0  0  0  0  0
   -4.3811    1.2233    1.9879 H   0  0  0  0  0  0  0  0  0  0  0  0
   -4.3172    2.7134    0.9911 H   0  0  0  0  0  0  0  0  0  0  0  0
    4.5547    1.5204    3.1939 H   0  0  0  0  0  0  0  0  0  0  0  0
    4.9694    2.4302    1.7361 H   0  0  0  0  0  0  0  0  0  0  0  0
    5.8867    0.9377    2.1876 H   0  0  0  0  0  0  0  0  0  0  0  0
  1  2  1  0
  2  3  1  0
  3  4  2  0
  4  5  1  0
  5  6  2  0
  6  7  1  0
  7  8  2  0
  7  9  1  0
  9 10  1  0
 10 11  1  0
 11 12  1  0
 12 13  1  0
 13 14  1  0
 14 15  2  0
 15 16  1  0
 16 17  2  0
 17 18  1  0
 18 19  1  0
 19 20  2  0
 20 21  1  0
 21 22  2  0
 22 23  1  0
 23 24  1  0
 23 25  2  0
 25 26  1  0
  6 27  1  0
 27 28  1  0
 28 29  1  0
 27 30  2  0
 30  3  1  0
 15 10  1  0
 25 19  1  0
 18 14  1  0
  1 31  1  0
  1 32  1  0
  1 33  1  0
  4 34  1  0
  5 35  1  0
  9 36  1  0
 10 37  1  0
 11 38  1  0
 11 39  1  0
 12 40  1  0
 12 41  1  0
 13 42  1  0
 13 43  1  0
 16 44  1  0
 20 45  1  0
 21 46  1  0
 22 47  1  0
 24 48  1  0
 24 49  1  0
 24 50  1  0
 26 51  1  0
 26 52  1  0
 26 53  1  0
 29 54  1  0
 29 55  1  0
 29 56  1  0
M  END
$$$$
