
     RDKit          3D

 37 39  0  0  0  0  0  0  0  0999 V2000
   -0.1006    1.4411    2.0721 C   0  0  0  0  0  0  0  0  0  0  0  0
   -0.7230    0.6541    0.9405 C   0  0  0  0  0  0  0  0  0  0  0  0
   -0.1194    0.2747   -0.1514 N   0  0  0  0  0  0  0  0  0  0  0  0
    1.2353    0.4441   -0.2615 N   0  0  0  0  0  0  0  0  0  0  0  0
    2.1142   -0.2057    0.6061 C   0  0  0  0  0  0  0  0  0  0  0  0
    1.7952   -0.7876    1.6378 O   0  0  0  0  0  0  0  0  0  0  0  0
    3.5458   -0.1895    0.1937 C   0  0  0  0  0  0  0  0  0  0  0  0
    4.3738   -1.2380    0.6194 C   0  0  0  0  0  0  0  0  0  0  0  0
    5.7223   -1.2617    0.2597 C   0  0  0  0  0  0  0  0  0  0  0  0
    6.2510   -0.2330   -0.5194 C   0  0  0  0  0  0  0  0  0  0  0  0
    5.4309    0.8181   -0.9286 C   0  0  0  0  0  0  0  0  0  0  0  0
    6.0914    2.0934   -1.8770 Cl  0  0  0  0  0  0  0  0  0  0  0  0
    4.0818    0.8508   -0.5753 C   0  0  0  0  0  0  0  0  0  0  0  0
   -2.1965    0.3536    1.0679 C   0  0  0  0  0  0  0  0  0  0  0  0
   -3.0246    1.2490    0.1733 C   0  0  0  0  0  0  0  0  0  0  0  0
   -3.0684    2.4662    0.1876 O   0  0  0  0  0  0  0  0  0  0  0  0
   -3.7960    0.4118   -0.7437 C   0  0  0  0  0  0  0  0  0  0  0  0
   -4.6695    0.8029   -1.7416 C   0  0  0  0  0  0  0  0  0  0  0  0
   -5.2915   -0.2047   -2.4850 C   0  0  0  0  0  0  0  0  0  0  0  0
   -5.0318   -1.5636   -2.2179 C   0  0  0  0  0  0  0  0  0  0  0  0
   -4.1457   -1.9374   -1.2030 C   0  0  0  0  0  0  0  0  0  0  0  0
   -3.5392   -0.9260   -0.4813 C   0  0  0  0  0  0  0  0  0  0  0  0
   -2.5922   -1.0386    0.6275 C   0  0  0  0  0  0  0  0  0  0  0  0
   -2.2416   -2.1006    1.1084 O   0  0  0  0  0  0  0  0  0  0  0  0
   -0.7932    2.2294    2.3832 H   0  0  0  0  0  0  0  0  0  0  0  0
    0.0704    0.7765    2.9228 H   0  0  0  0  0  0  0  0  0  0  0  0
    0.8347    1.9215    1.7798 H   0  0  0  0  0  0  0  0  0  0  0  0
    1.5405    0.4851   -1.2304 H   0  0  0  0  0  0  0  0  0  0  0  0
    3.9662   -2.0412    1.2324 H   0  0  0  0  0  0  0  0  0  0  0  0
    6.3584   -2.0795    0.5902 H   0  0  0  0  0  0  0  0  0  0  0  0
    7.3021   -0.2524   -0.7964 H   0  0  0  0  0  0  0  0  0  0  0  0
    3.4723    1.6969   -0.8795 H   0  0  0  0  0  0  0  0  0  0  0  0
   -2.5393    0.4876    2.0997 H   0  0  0  0  0  0  0  0  0  0  0  0
   -4.8624    1.8530   -1.9390 H   0  0  0  0  0  0  0  0  0  0  0  0
   -5.9853    0.0620   -3.2806 H   0  0  0  0  0  0  0  0  0  0  0  0
   -5.5278   -2.3311   -2.8098 H   0  0  0  0  0  0  0  0  0  0  0  0
   -3.9382   -2.9812   -0.9874 H   0  0  0  0  0  0  0  0  0  0  0  0
  1  2  1  0
  2  3  2  3
  3  4  1  0
  4  5  1  0
  5  6  2  0
  5  7  1  0
  7  8  2  0
  8  9  1  0
  9 10  2  0
 10 11  1  0
 11 12  1  0
 11 13  2  0
  2 14  1  0
 14 15  1  0
 15 16  2  0
 15 17  1  0
 17 18  2  0
 18 19  1  0
 19 20  2  0
 20 21  1  0
 21 22  2  0
 22 23  1  0
 23 24  2  0
 13  7  1  0
 23 14  1  0
 22 17  1  0
  1 25  1  0
  1 26  1  0
  1 27  1  0
  4 28  1  0
  8 29  1  0
  9 30  1  0
 10 31  1  0
 13 32  1  0
 14 33  1  0
 18 34  1  0
 19 35  1  0
 20 36  1  0
 21 37  1  0
M  END
$$$$
