
     RDKit          3D

 58 60  0  0  0  0  0  0  0  0999 V2000
    7.5220    0.9404    0.3789 C   0  0  0  0  0  0  0  0  0  0  0  0
    6.0380    0.6828    0.3701 C   0  0  0  0  0  0  0  0  0  0  0  0
    5.1646    1.7344    0.0383 C   0  0  0  0  0  0  0  0  0  0  0  0
    3.7743    1.5584    0.0331 C   0  0  0  0  0  0  0  0  0  0  0  0
    2.8842    2.7131   -0.3274 C   0  0  0  0  0  0  0  0  0  0  0  0
    3.2642    0.2934    0.3586 C   0  0  0  0  0  0  0  0  0  0  0  0
    1.8017    0.0519    0.3735 C   0  0  0  0  0  0  0  0  0  0  0  0
    1.1469    0.2614   -0.6467 O   0  0  0  0  0  0  0  0  0  0  0  0
    1.1930   -0.4259    1.6787 C   0  0  0  0  0  0  0  0  0  0  0  0
   -0.1426    0.7015    2.1746 S   0  0  0  0  0  0  0  0  0  0  0  0
   -1.5197   -0.1928    1.5455 C   0  0  0  0  0  0  0  0  0  0  0  0
   -2.0226   -1.0770    2.3467 N   0  0  0  0  0  0  0  0  0  0  0  0
   -3.0477   -1.8583    1.9089 C   0  0  0  0  0  0  0  0  0  0  0  0
   -3.7420   -2.4402    2.8237 N   0  0  0  0  0  0  0  0  0  0  0  0
   -3.3461   -2.0281    0.4412 C   0  0  0  0  0  0  0  0  0  0  0  0
   -2.3413   -2.9488   -0.1153 C   0  0  0  0  0  0  0  0  0  0  0  0
   -1.5172   -3.6286   -0.5691 N   0  0  0  0  0  0  0  0  0  0  0  0
   -3.3451   -0.6057   -0.2104 C   0  0  0  0  0  0  0  0  0  0  0  0
   -3.5371   -0.7036   -1.7581 C   0  0  0  0  0  0  0  0  0  0  0  0
   -4.9904   -0.9614   -2.1500 C   0  0  0  0  0  0  0  0  0  0  0  0
   -5.9182    0.1672   -1.6997 C   0  0  0  0  0  0  0  0  0  0  0  0
   -5.3201    1.0351   -0.5933 C   0  0  0  0  0  0  0  0  0  0  0  0
   -4.5410    0.1962    0.4172 C   0  0  0  0  0  0  0  0  0  0  0  0
   -1.9503    0.0486    0.1048 C   0  0  0  0  0  0  0  0  0  0  0  0
   -1.8729    1.5156   -0.3037 C   0  0  0  0  0  0  0  0  0  0  0  0
   -1.0551    1.7818   -1.3658 N   0  0  0  0  0  0  0  0  0  0  0  0
   -2.4895    2.4194    0.2488 O   0  0  0  0  0  0  0  0  0  0  0  0
    4.1218   -0.7690    0.6756 C   0  0  0  0  0  0  0  0  0  0  0  0
    5.5122   -0.5837    0.6898 C   0  0  0  0  0  0  0  0  0  0  0  0
    6.4079   -1.7467    1.0141 C   0  0  0  0  0  0  0  0  0  0  0  0
    8.0290    0.2828   -0.3349 H   0  0  0  0  0  0  0  0  0  0  0  0
    7.7542    1.9734    0.0998 H   0  0  0  0  0  0  0  0  0  0  0  0
    7.9292    0.7707    1.3817 H   0  0  0  0  0  0  0  0  0  0  0  0
    5.5783    2.7101   -0.2156 H   0  0  0  0  0  0  0  0  0  0  0  0
    3.4432    3.6542   -0.3492 H   0  0  0  0  0  0  0  0  0  0  0  0
    2.0859    2.8343    0.4138 H   0  0  0  0  0  0  0  0  0  0  0  0
    2.4452    2.5604   -1.3177 H   0  0  0  0  0  0  0  0  0  0  0  0
    0.8465   -1.4570    1.5623 H   0  0  0  0  0  0  0  0  0  0  0  0
    1.9401   -0.4084    2.4781 H   0  0  0  0  0  0  0  0  0  0  0  0
   -3.3211   -2.1513    3.7170 H   0  0  0  0  0  0  0  0  0  0  0  0
   -4.3342   -2.4932    0.3398 H   0  0  0  0  0  0  0  0  0  0  0  0
   -3.2223    0.2273   -2.2433 H   0  0  0  0  0  0  0  0  0  0  0  0
   -2.9012   -1.4836   -2.1888 H   0  0  0  0  0  0  0  0  0  0  0  0
   -5.0670   -1.0803   -3.2374 H   0  0  0  0  0  0  0  0  0  0  0  0
   -5.3301   -1.9096   -1.7161 H   0  0  0  0  0  0  0  0  0  0  0  0
   -6.8676   -0.2675   -1.3607 H   0  0  0  0  0  0  0  0  0  0  0  0
   -6.1665    0.8071   -2.5559 H   0  0  0  0  0  0  0  0  0  0  0  0
   -6.1237    1.5798   -0.0852 H   0  0  0  0  0  0  0  0  0  0  0  0
   -4.6699    1.7953   -1.0397 H   0  0  0  0  0  0  0  0  0  0  0  0
   -5.2642   -0.4952    0.8690 H   0  0  0  0  0  0  0  0  0  0  0  0
   -4.2017    0.8314    1.2428 H   0  0  0  0  0  0  0  0  0  0  0  0
   -1.2100   -0.4958   -0.4974 H   0  0  0  0  0  0  0  0  0  0  0  0
   -0.2091    1.2123   -1.4568 H   0  0  0  0  0  0  0  0  0  0  0  0
   -0.9128    2.7698   -1.5441 H   0  0  0  0  0  0  0  0  0  0  0  0
    3.7095   -1.7518    0.8989 H   0  0  0  0  0  0  0  0  0  0  0  0
    6.9788   -2.0415    0.1274 H   0  0  0  0  0  0  0  0  0  0  0  0
    5.8309   -2.6175    1.3468 H   0  0  0  0  0  0  0  0  0  0  0  0
    7.0989   -1.4879    1.8229 H   0  0  0  0  0  0  0  0  0  0  0  0
  1  2  1  0
  2  3  2  0
  3  4  1  0
  4  5  1  0
  4  6  2  0
  6  7  1  0
  7  8  2  0
  7  9  1  0
  9 10  1  0
 10 11  1  0
 11 12  2  0
 12 13  1  0
 13 14  2  3
 13 15  1  0
 15 16  1  0
 16 17  3  0
 15 18  1  0
 18 19  1  0
 19 20  1  0
 20 21  1  0
 21 22  1  0
 22 23  1  0
 18 24  1  0
 24 25  1  0
 25 26  1  0
 25 27  2  0
  6 28  1  0
 28 29  2  0
 29 30  1  0
 29  2  1  0
 24 11  1  0
 23 18  1  0
  1 31  1  0
  1 32  1  0
  1 33  1  0
  3 34  1  0
  5 35  1  0
  5 36  1  0
  5 37  1  0
  9 38  1  0
  9 39  1  0
 14 40  1  0
 15 41  1  0
 19 42  1  0
 19 43  1  0
 20 44  1  0
 20 45  1  0
 21 46  1  0
 21 47  1  0
 22 48  1  0
 22 49  1  0
 23 50  1  0
 23 51  1  0
 24 52  1  0
 26 53  1  0
 26 54  1  0
 28 55  1  0
 30 56  1  0
 30 57  1  0
 30 58  1  0
M  END
$$$$
