
     RDKit          3D

 95 98  0  0  0  0  0  0  0  0999 V2000
   -5.2677   -1.1802    6.3970 C   0  0  0  0  0  0  0  0  0  0  0  0
   -5.5505   -0.4449    5.3141 C   0  0  0  0  0  0  0  0  0  0  0  0
   -4.6608   -0.3581    4.1066 C   0  0  0  0  0  0  0  0  0  0  0  0
   -5.3675   -0.8964    2.8544 C   0  0  0  0  0  0  0  0  0  0  0  0
   -4.4354   -0.9732    1.6301 C   0  0  0  0  0  0  0  0  0  0  0  0
   -5.0751   -1.7499    0.4553 C   0  0  0  0  0  0  0  0  0  0  0  0
   -5.1287   -3.2446    0.6761 C   0  0  0  0  0  0  0  0  0  0  0  0
   -3.9720   -4.0221    0.5127 C   0  0  0  0  0  0  0  0  0  0  0  0
   -4.0107   -5.4013    0.7303 C   0  0  0  0  0  0  0  0  0  0  0  0
   -5.2056   -5.9995    1.1149 C   0  0  0  0  0  0  0  0  0  0  0  0
   -5.2466   -7.3229    1.3270 F   0  0  0  0  0  0  0  0  0  0  0  0
   -6.3624   -5.2450    1.2827 C   0  0  0  0  0  0  0  0  0  0  0  0
   -6.3253   -3.8685    1.0585 C   0  0  0  0  0  0  0  0  0  0  0  0
   -4.0999    0.4202    1.1339 C   0  0  0  0  0  0  0  0  0  0  0  0
   -4.7064    1.0174    0.2527 O   0  0  0  0  0  0  0  0  0  0  0  0
   -3.0250    0.9207    1.8058 O   0  0  0  0  0  0  0  0  0  0  0  0
   -2.4955    2.1492    1.2756 C   0  0  0  0  0  0  0  0  0  0  0  0
   -1.5840    1.8440    0.0714 C   0  0  0  0  0  0  0  0  0  0  0  0
   -1.1349    3.1360   -0.6323 C   0  0  0  0  0  0  0  0  0  0  0  0
   -0.3457    2.9101   -1.8944 C   0  0  0  0  0  0  0  0  0  0  0  0
   -0.5020    1.8700   -2.7920 C   0  0  0  0  0  0  0  0  0  0  0  0
    0.3918    2.0350   -3.8137 N   0  0  0  0  0  0  0  0  0  0  0  0
    1.1323    3.1774   -3.6131 C   0  0  0  0  0  0  0  0  0  0  0  0
    2.1390    3.7457   -4.4018 C   0  0  0  0  0  0  0  0  0  0  0  0
    2.7232    4.9362   -3.9597 C   0  0  0  0  0  0  0  0  0  0  0  0
    2.3083    5.5339   -2.7738 C   0  0  0  0  0  0  0  0  0  0  0  0
    1.2978    4.9547   -1.9941 C   0  0  0  0  0  0  0  0  0  0  0  0
    0.6923    3.7509   -2.4202 C   0  0  0  0  0  0  0  0  0  0  0  0
   -0.4170    1.0695    0.5186 N   0  0  0  0  0  0  0  0  0  0  0  0
   -0.2830   -0.2795    0.2693 C   0  0  0  0  0  0  0  0  0  0  0  0
   -1.1337   -0.9416   -0.3215 O   0  0  0  0  0  0  0  0  0  0  0  0
    1.0237   -0.8972    0.7562 C   0  0  0  0  0  0  0  0  0  0  0  0
    1.1032   -0.9347    2.2955 C   0  0  0  0  0  0  0  0  0  0  0  0
    0.1476   -1.8275    3.0448 C   0  0  0  0  0  0  0  0  0  0  0  0
   -0.7044   -2.7274    2.5335 C   0  0  0  0  0  0  0  0  0  0  0  0
    2.2135   -0.1042    0.1681 C   0  0  0  0  0  0  0  0  0  0  0  0
    3.4823   -0.9337    0.0614 C   0  0  0  0  0  0  0  0  0  0  0  0
    3.4683   -2.1489    0.2731 O   0  0  0  0  0  0  0  0  0  0  0  0
    4.6554   -0.2793   -0.2890 N   0  0  0  0  0  0  0  0  0  0  0  0
    5.9107   -1.0527   -0.2806 C   0  0  0  0  0  0  0  0  0  0  0  0
    6.0817   -1.9688   -1.5010 C   0  0  0  0  0  0  0  0  0  0  0  0
    5.3495   -3.1882   -1.3818 O   0  0  0  0  0  0  0  0  0  0  0  0
    4.7517    1.1479   -0.6313 C   0  0  0  0  0  0  0  0  0  0  0  0
    5.2882    1.3967   -2.0240 C   0  0  0  0  0  0  0  0  0  0  0  0
    6.5570    1.9674   -2.2094 C   0  0  0  0  0  0  0  0  0  0  0  0
    7.0459    2.1991   -3.4960 C   0  0  0  0  0  0  0  0  0  0  0  0
    6.2774    1.8629   -4.6102 C   0  0  0  0  0  0  0  0  0  0  0  0
    5.0139    1.2946   -4.4398 C   0  0  0  0  0  0  0  0  0  0  0  0
    4.5210    1.0685   -3.1539 C   0  0  0  0  0  0  0  0  0  0  0  0
   -4.3608   -1.7746    6.4635 H   0  0  0  0  0  0  0  0  0  0  0  0
   -5.9465   -1.2036    7.2454 H   0  0  0  0  0  0  0  0  0  0  0  0
   -6.4704    0.1371    5.2924 H   0  0  0  0  0  0  0  0  0  0  0  0
   -4.3882    0.6950    3.9720 H   0  0  0  0  0  0  0  0  0  0  0  0
   -3.7256   -0.9086    4.2706 H   0  0  0  0  0  0  0  0  0  0  0  0
   -6.2370   -0.2625    2.6237 H   0  0  0  0  0  0  0  0  0  0  0  0
   -5.7533   -1.8986    3.0832 H   0  0  0  0  0  0  0  0  0  0  0  0
   -3.4933   -1.4689    1.9010 H   0  0  0  0  0  0  0  0  0  0  0  0
   -4.5083   -1.5716   -0.4713 H   0  0  0  0  0  0  0  0  0  0  0  0
   -6.0846   -1.3674    0.2529 H   0  0  0  0  0  0  0  0  0  0  0  0
   -3.0354   -3.5588    0.2039 H   0  0  0  0  0  0  0  0  0  0  0  0
   -3.1211   -6.0097    0.5976 H   0  0  0  0  0  0  0  0  0  0  0  0
   -7.2826   -5.7319    1.5904 H   0  0  0  0  0  0  0  0  0  0  0  0
   -7.2300   -3.2819    1.1922 H   0  0  0  0  0  0  0  0  0  0  0  0
   -3.3093    2.8339    1.0094 H   0  0  0  0  0  0  0  0  0  0  0  0
   -1.9165    2.6208    2.0781 H   0  0  0  0  0  0  0  0  0  0  0  0
   -2.1461    1.2274   -0.6370 H   0  0  0  0  0  0  0  0  0  0  0  0
   -2.0138    3.7400   -0.8940 H   0  0  0  0  0  0  0  0  0  0  0  0
   -0.5323    3.7308    0.0658 H   0  0  0  0  0  0  0  0  0  0  0  0
   -1.1721    1.0162   -2.7867 H   0  0  0  0  0  0  0  0  0  0  0  0
    0.4842    1.4176   -4.6079 H   0  0  0  0  0  0  0  0  0  0  0  0
    2.4618    3.2809   -5.3240 H   0  0  0  0  0  0  0  0  0  0  0  0
    3.5099    5.4025   -4.5512 H   0  0  0  0  0  0  0  0  0  0  0  0
    2.7688    6.4628   -2.4425 H   0  0  0  0  0  0  0  0  0  0  0  0
    0.9820    5.4403   -1.0753 H   0  0  0  0  0  0  0  0  0  0  0  0
    0.2707    1.5527    1.0827 H   0  0  0  0  0  0  0  0  0  0  0  0
    1.0473   -1.9193    0.3610 H   0  0  0  0  0  0  0  0  0  0  0  0
    2.1153   -1.2445    2.5918 H   0  0  0  0  0  0  0  0  0  0  0  0
    0.9677    0.0818    2.6941 H   0  0  0  0  0  0  0  0  0  0  0  0
    0.1810   -1.7271    4.1316 H   0  0  0  0  0  0  0  0  0  0  0  0
   -0.7961   -2.9180    1.4666 H   0  0  0  0  0  0  0  0  0  0  0  0
   -1.3346   -3.3233    3.1921 H   0  0  0  0  0  0  0  0  0  0  0  0
    1.9710    0.2398   -0.8458 H   0  0  0  0  0  0  0  0  0  0  0  0
    2.4111    0.7690    0.8004 H   0  0  0  0  0  0  0  0  0  0  0  0
    5.9203   -1.6577    0.6351 H   0  0  0  0  0  0  0  0  0  0  0  0
    6.7513   -0.3536   -0.2156 H   0  0  0  0  0  0  0  0  0  0  0  0
    5.7754   -1.4777   -2.4313 H   0  0  0  0  0  0  0  0  0  0  0  0
    7.1423   -2.2408   -1.5976 H   0  0  0  0  0  0  0  0  0  0  0  0
    4.5523   -3.0044   -0.8379 H   0  0  0  0  0  0  0  0  0  0  0  0
    3.7870    1.6580   -0.5460 H   0  0  0  0  0  0  0  0  0  0  0  0
    5.4031    1.6081    0.1214 H   0  0  0  0  0  0  0  0  0  0  0  0
    7.1771    2.2441   -1.3529 H   0  0  0  0  0  0  0  0  0  0  0  0
    8.0337    2.6433   -3.6268 H   0  0  0  0  0  0  0  0  0  0  0  0
    6.6615    2.0410   -5.6114 H   0  0  0  0  0  0  0  0  0  0  0  0
    4.4147    1.0189   -5.3122 H   0  0  0  0  0  0  0  0  0  0  0  0
    3.5326    0.6252   -3.0371 H   0  0  0  0  0  0  0  0  0  0  0  0
  1  2  2  0
  2  3  1  0
  3  4  1  0
  4  5  1  0
  5  6  1  0
  6  7  1  0
  7  8  2  0
  8  9  1  0
  9 10  2  0
 10 11  1  0
 10 12  1  0
 12 13  2  0
  5 14  1  0
 14 15  2  0
 14 16  1  0
 16 17  1  0
 17 18  1  0
 18 19  1  0
 19 20  1  0
 20 21  2  0
 21 22  1  0
 22 23  1  0
 23 24  2  0
 24 25  1  0
 25 26  2  0
 26 27  1  0
 27 28  2  0
 18 29  1  0
 29 30  1  0
 30 31  2  0
 30 32  1  0
 32 33  1  0
 33 34  1  0
 34 35  2  0
 32 36  1  0
 36 37  1  0
 37 38  2  0
 37 39  1  0
 39 40  1  0
 40 41  1  0
 41 42  1  0
 39 43  1  0
 43 44  1  0
 44 45  2  0
 45 46  1  0
 46 47  2  0
 47 48  1  0
 48 49  2  0
 13  7  1  0
 28 20  1  0
 49 44  1  0
 28 23  1  0
  1 50  1  0
  1 51  1  0
  2 52  1  0
  3 53  1  0
  3 54  1  0
  4 55  1  0
  4 56  1  0
  5 57  1  0
  6 58  1  0
  6 59  1  0
  8 60  1  0
  9 61  1  0
 12 62  1  0
 13 63  1  0
 17 64  1  0
 17 65  1  0
 18 66  1  0
 19 67  1  0
 19 68  1  0
 21 69  1  0
 22 70  1  0
 24 71  1  0
 25 72  1  0
 26 73  1  0
 27 74  1  0
 29 75  1  0
 32 76  1  0
 33 77  1  0
 33 78  1  0
 34 79  1  0
 35 80  1  0
 35 81  1  0
 36 82  1  0
 36 83  1  0
 40 84  1  0
 40 85  1  0
 41 86  1  0
 41 87  1  0
 42 88  1  0
 43 89  1  0
 43 90  1  0
 45 91  1  0
 46 92  1  0
 47 93  1  0
 48 94  1  0
 49 95  1  0
M  END
$$$$
