
     RDKit          3D

 62 65  0  0  0  0  0  0  0  0999 V2000
   -3.1857   -1.8362    3.8248 C   0  0  0  0  0  0  0  0  0  0  0  0
   -3.8824   -2.0844    2.5011 C   0  0  0  0  0  0  0  0  0  0  0  0
   -2.8826   -2.1994    1.4837 O   0  0  0  0  0  0  0  0  0  0  0  0
   -3.3686   -2.5485    0.2634 C   0  0  0  0  0  0  0  0  0  0  0  0
   -4.5329   -2.7913   -0.0120 O   0  0  0  0  0  0  0  0  0  0  0  0
   -2.2408   -2.5853   -0.7008 C   0  0  0  0  0  0  0  0  0  0  0  0
   -1.8865   -3.7742   -1.2589 C   0  0  0  0  0  0  0  0  0  0  0  0
   -2.6610   -5.0631   -1.1016 C   0  0  0  0  0  0  0  0  0  0  0  0
   -0.6976   -3.9648   -1.9692 N   0  0  0  0  0  0  0  0  0  0  0  0
    0.1998   -3.0460   -1.8271 C   0  0  0  0  0  0  0  0  0  0  0  0
    1.8426   -3.2400   -2.3573 S   0  0  0  0  0  0  0  0  0  0  0  0
    2.3820   -1.9254   -1.3084 C   0  0  0  0  0  0  0  0  0  0  0  0
    3.7062   -1.6782   -1.1969 C   0  0  0  0  0  0  0  0  0  0  0  0
    4.6596   -2.4339   -1.8665 O   0  0  0  0  0  0  0  0  0  0  0  0
    4.3188   -0.5898   -0.4244 C   0  0  0  0  0  0  0  0  0  0  0  0
    4.7323    0.5749   -1.0821 C   0  0  0  0  0  0  0  0  0  0  0  0
    5.2907    1.6304   -0.3570 C   0  0  0  0  0  0  0  0  0  0  0  0
    5.4562    1.5350    1.0269 C   0  0  0  0  0  0  0  0  0  0  0  0
    6.0101    2.6414    1.6100 O   0  0  0  0  0  0  0  0  0  0  0  0
    6.2135    2.5923    3.0162 C   0  0  0  0  0  0  0  0  0  0  0  0
    5.0597    0.3675    1.6835 C   0  0  0  0  0  0  0  0  0  0  0  0
    4.4949   -0.6921    0.9602 C   0  0  0  0  0  0  0  0  0  0  0  0
    1.2118   -1.2430   -0.7166 C   0  0  0  0  0  0  0  0  0  0  0  0
    1.3515   -0.1986    0.1743 N   0  0  0  0  0  0  0  0  0  0  0  0
    0.0292   -1.7569   -1.1191 C   0  0  0  0  0  0  0  0  0  0  0  0
   -1.3777   -1.3927   -0.9214 C   0  0  0  0  0  0  0  0  0  0  0  0
   -1.8674   -0.1272   -1.1077 C   0  0  0  0  0  0  0  0  0  0  0  0
   -3.3111    0.1897   -1.0429 C   0  0  0  0  0  0  0  0  0  0  0  0
   -3.7394    1.4623   -0.9474 C   0  0  0  0  0  0  0  0  0  0  0  0
   -2.7824    2.5683   -0.9731 C   0  0  0  0  0  0  0  0  0  0  0  0
   -3.1714    3.8318   -0.6918 C   0  0  0  0  0  0  0  0  0  0  0  0
   -4.4510    4.1047   -0.2570 O   0  0  0  0  0  0  0  0  0  0  0  0
   -2.2807    4.8854   -0.7225 O   0  0  0  0  0  0  0  0  0  0  0  0
   -2.6582    5.8322   -1.7247 C   0  0  0  0  0  0  0  0  0  0  0  0
   -1.4216    2.2747   -1.4296 C   0  0  0  0  0  0  0  0  0  0  0  0
   -1.0003    1.0003   -1.5264 C   0  0  0  0  0  0  0  0  0  0  0  0
   -2.5651   -0.9346    3.7729 H   0  0  0  0  0  0  0  0  0  0  0  0
   -2.5176   -2.6689    4.0684 H   0  0  0  0  0  0  0  0  0  0  0  0
   -3.9128   -1.7205    4.6330 H   0  0  0  0  0  0  0  0  0  0  0  0
   -4.4699   -3.0077    2.5615 H   0  0  0  0  0  0  0  0  0  0  0  0
   -4.5432   -1.2407    2.2670 H   0  0  0  0  0  0  0  0  0  0  0  0
   -2.8162   -5.5226   -2.0830 H   0  0  0  0  0  0  0  0  0  0  0  0
   -3.6470   -4.9459   -0.6490 H   0  0  0  0  0  0  0  0  0  0  0  0
   -2.0930   -5.7652   -0.4811 H   0  0  0  0  0  0  0  0  0  0  0  0
    4.1812   -3.1405   -2.3404 H   0  0  0  0  0  0  0  0  0  0  0  0
    4.6273    0.6640   -2.1615 H   0  0  0  0  0  0  0  0  0  0  0  0
    5.6080    2.5333   -0.8761 H   0  0  0  0  0  0  0  0  0  0  0  0
    5.2608    2.4902    3.5483 H   0  0  0  0  0  0  0  0  0  0  0  0
    6.9092    1.7902    3.2885 H   0  0  0  0  0  0  0  0  0  0  0  0
    6.6653    3.5401    3.3206 H   0  0  0  0  0  0  0  0  0  0  0  0
    5.1734    0.2465    2.7554 H   0  0  0  0  0  0  0  0  0  0  0  0
    4.1850   -1.5936    1.4856 H   0  0  0  0  0  0  0  0  0  0  0  0
    2.1370    0.4242    0.0030 H   0  0  0  0  0  0  0  0  0  0  0  0
    0.4972    0.3010    0.4081 H   0  0  0  0  0  0  0  0  0  0  0  0
   -4.0588   -0.5867   -1.1194 H   0  0  0  0  0  0  0  0  0  0  0  0
   -4.8003    1.6861   -0.9048 H   0  0  0  0  0  0  0  0  0  0  0  0
   -4.3730    4.9494    0.2203 H   0  0  0  0  0  0  0  0  0  0  0  0
   -1.8616    6.5783   -1.7963 H   0  0  0  0  0  0  0  0  0  0  0  0
   -2.7681    5.3521   -2.7044 H   0  0  0  0  0  0  0  0  0  0  0  0
   -3.5833    6.3476   -1.4468 H   0  0  0  0  0  0  0  0  0  0  0  0
   -0.7768    3.0937   -1.7303 H   0  0  0  0  0  0  0  0  0  0  0  0
   -0.0171    0.8102   -1.9413 H   0  0  0  0  0  0  0  0  0  0  0  0
  1  2  1  0
  2  3  1  0
  3  4  1  0
  4  5  2  0
  4  6  1  0
  6  7  2  0
  7  8  1  0
  7  9  1  0
  9 10  2  0
 10 11  1  0
 11 12  1  0
 12 13  2  3
 13 14  1  0
 13 15  1  0
 15 16  2  0
 16 17  1  0
 17 18  2  0
 18 19  1  0
 19 20  1  0
 18 21  1  0
 21 22  2  0
 12 23  1  0
 23 24  1  0
 23 25  2  0
 25 26  1  0
 26 27  2  3
 27 28  1  0
 28 29  2  0
 29 30  1  0
 30 31  2  3
 31 32  1  0
 31 33  1  0
 33 34  1  0
 30 35  1  0
 35 36  2  0
 26  6  1  0
 36 27  1  0
 25 10  1  0
 22 15  1  0
  1 37  1  0
  1 38  1  0
  1 39  1  0
  2 40  1  0
  2 41  1  0
  8 42  1  0
  8 43  1  0
  8 44  1  0
 14 45  1  0
 16 46  1  0
 17 47  1  0
 20 48  1  0
 20 49  1  0
 20 50  1  0
 21 51  1  0
 22 52  1  0
 24 53  1  0
 24 54  1  0
 28 55  1  0
 29 56  1  0
 32 57  1  0
 34 58  1  0
 34 59  1  0
 34 60  1  0
 35 61  1  0
 36 62  1  0
M  END
$$$$
