
     RDKit          3D

 58 62  0  0  0  0  0  0  0  0999 V2000
   -4.8950    1.5951    0.6071 C   0  0  0  0  0  0  0  0  0  0  0  0
   -3.6686    0.9069    0.0116 C   0  0  0  0  0  0  0  0  0  0  0  0
   -2.9517    0.0046    1.0439 C   0  0  0  0  0  0  0  0  0  0  0  0
   -3.3602   -1.3698    0.6220 C   0  0  0  0  0  0  0  0  0  0  0  0
   -3.1324   -2.5655    1.2842 C   0  0  0  0  0  0  0  0  0  0  0  0
   -3.5861   -3.7464    0.6926 C   0  0  0  0  0  0  0  0  0  0  0  0
   -4.2584   -3.7162   -0.5387 C   0  0  0  0  0  0  0  0  0  0  0  0
   -4.4756   -2.5052   -1.2000 C   0  0  0  0  0  0  0  0  0  0  0  0
   -3.9989   -1.3469   -0.6145 C   0  0  0  0  0  0  0  0  0  0  0  0
   -4.1316   -0.0060   -1.0895 N   0  0  0  0  0  0  0  0  0  0  0  0
   -3.6036    0.3455   -2.6697 S   0  0  0  0  0  6  0  0  0  0  0  0
   -4.2280   -0.5670   -3.6060 O   0  0  0  0  0  0  0  0  0  0  0  0
   -3.7071    1.7784   -2.8624 O   0  0  0  0  0  0  0  0  0  0  0  0
   -1.8647   -0.0569   -2.6212 C   0  0  0  0  0  0  0  0  0  0  0  0
   -1.4444   -1.3477   -2.9687 C   0  0  0  0  0  0  0  0  0  0  0  0
   -0.0852   -1.6664   -2.9491 C   0  0  0  0  0  0  0  0  0  0  0  0
    0.8510   -0.6984   -2.5859 C   0  0  0  0  0  0  0  0  0  0  0  0
    0.4193    0.5886   -2.2448 C   0  0  0  0  0  0  0  0  0  0  0  0
    1.4020    1.6206   -1.8659 C   0  0  0  0  0  0  0  0  0  0  0  0
    1.6046    2.5274   -2.6678 O   0  0  0  0  0  0  0  0  0  0  0  0
    2.0199    1.5254   -0.6225 N   0  0  0  0  0  0  0  0  0  0  0  0
    1.8588    0.3888    0.3067 C   0  0  0  0  0  0  0  0  0  0  0  0
    2.0616    0.7932    1.7813 C   0  0  0  0  0  0  0  0  0  0  0  0
    3.3061    1.5526    1.9562 N   0  0  0  0  0  0  0  0  0  0  0  0
    4.4703    0.7839    1.9585 C   0  0  0  0  0  0  0  0  0  0  0  0
    5.6397    1.3731    1.6560 N   0  0  0  0  0  0  0  0  0  0  0  0
    6.7549    0.6190    1.6860 C   0  0  0  0  0  0  0  0  0  0  0  0
    6.7581   -0.7131    2.0023 C   0  0  0  0  0  0  0  0  0  0  0  0
    5.5269   -1.2383    2.2923 C   0  0  0  0  0  0  0  0  0  0  0  0
    4.3866   -0.5212    2.2721 N   0  0  0  0  0  0  0  0  0  0  0  0
    3.3596    2.7565    1.1099 C   0  0  0  0  0  0  0  0  0  0  0  0
    3.1844    2.3946   -0.3770 C   0  0  0  0  0  0  0  0  0  0  0  0
   -0.9336    0.9294   -2.2887 C   0  0  0  0  0  0  0  0  0  0  0  0
   -5.4087    2.1934   -0.1534 H   0  0  0  0  0  0  0  0  0  0  0  0
   -5.6168    0.8697    0.9987 H   0  0  0  0  0  0  0  0  0  0  0  0
   -4.6047    2.2619    1.4251 H   0  0  0  0  0  0  0  0  0  0  0  0
   -2.9796    1.6800   -0.3408 H   0  0  0  0  0  0  0  0  0  0  0  0
   -1.8647    0.1052    0.9479 H   0  0  0  0  0  0  0  0  0  0  0  0
   -3.2466    0.2263    2.0744 H   0  0  0  0  0  0  0  0  0  0  0  0
   -2.6219   -2.5903    2.2422 H   0  0  0  0  0  0  0  0  0  0  0  0
   -3.4286   -4.6986    1.1951 H   0  0  0  0  0  0  0  0  0  0  0  0
   -4.6232   -4.6423   -0.9775 H   0  0  0  0  0  0  0  0  0  0  0  0
   -5.0208   -2.4837   -2.1379 H   0  0  0  0  0  0  0  0  0  0  0  0
   -2.1680   -2.1058   -3.2635 H   0  0  0  0  0  0  0  0  0  0  0  0
    0.2424   -2.6657   -3.2268 H   0  0  0  0  0  0  0  0  0  0  0  0
    1.9114   -0.9397   -2.5833 H   0  0  0  0  0  0  0  0  0  0  0  0
    0.8621   -0.0484    0.2001 H   0  0  0  0  0  0  0  0  0  0  0  0
    2.5910   -0.3703    0.0090 H   0  0  0  0  0  0  0  0  0  0  0  0
    1.2277    1.4430    2.0798 H   0  0  0  0  0  0  0  0  0  0  0  0
    2.0014   -0.0815    2.4399 H   0  0  0  0  0  0  0  0  0  0  0  0
    7.6741    1.1425    1.4406 H   0  0  0  0  0  0  0  0  0  0  0  0
    7.6629   -1.3029    2.0246 H   0  0  0  0  0  0  0  0  0  0  0  0
    5.4108   -2.2839    2.5604 H   0  0  0  0  0  0  0  0  0  0  0  0
    2.5308    3.4121    1.4081 H   0  0  0  0  0  0  0  0  0  0  0  0
    4.2708    3.3456    1.2669 H   0  0  0  0  0  0  0  0  0  0  0  0
    3.1012    3.3146   -0.9649 H   0  0  0  0  0  0  0  0  0  0  0  0
    4.0621    1.8522   -0.7476 H   0  0  0  0  0  0  0  0  0  0  0  0
   -1.2437    1.9483   -2.0696 H   0  0  0  0  0  0  0  0  0  0  0  0
  1  2  1  0
  2  3  1  0
  3  4  1  0
  4  5  2  0
  5  6  1  0
  6  7  2  0
  7  8  1  0
  8  9  2  0
  9 10  1  0
 10 11  1  0
 11 12  2  0
 11 13  2  0
 11 14  1  0
 14 15  2  0
 15 16  1  0
 16 17  2  0
 17 18  1  0
 18 19  1  0
 19 20  2  0
 19 21  1  0
 21 22  1  0
 22 23  1  0
 23 24  1  0
 24 25  1  0
 25 26  2  0
 26 27  1  0
 27 28  2  0
 28 29  1  0
 29 30  2  0
 24 31  1  0
 31 32  1  0
 18 33  2  0
 10  2  1  0
 33 14  1  0
  9  4  1  0
 32 21  1  0
 30 25  1  0
  1 34  1  0
  1 35  1  0
  1 36  1  0
  2 37  1  0
  3 38  1  0
  3 39  1  0
  5 40  1  0
  6 41  1  0
  7 42  1  0
  8 43  1  0
 15 44  1  0
 16 45  1  0
 17 46  1  0
 22 47  1  0
 22 48  1  0
 23 49  1  0
 23 50  1  0
 27 51  1  0
 28 52  1  0
 29 53  1  0
 31 54  1  0
 31 55  1  0
 32 56  1  0
 32 57  1  0
 33 58  1  0
M  END
$$$$
