
     RDKit          3D

 37 40  0  0  0  0  0  0  0  0999 V2000
    0.9682   -1.0597    1.0022 O   0  0  0  0  0  0  0  0  0  0  0  0
    2.0197   -0.5482    0.6821 C   0  0  0  0  0  0  0  0  0  0  0  0
    3.2256   -1.1812    0.6567 O   0  0  0  0  0  0  0  0  0  0  0  0
    4.1391   -0.2440    0.3158 C   0  0  0  0  0  0  0  0  0  0  0  0
    5.4909   -0.7018    0.2484 C   0  0  0  0  0  0  0  0  0  0  0  0
    6.6644   -0.0385   -0.0605 C   0  0  0  0  0  0  0  0  0  0  0  0
    7.7083   -0.9907    0.0286 C   0  0  0  0  0  0  0  0  0  0  0  0
    7.1128   -2.1766    0.3857 C   0  0  0  0  0  0  0  0  0  0  0  0
    5.7721   -2.0135    0.5213 O   0  0  0  0  0  0  0  0  0  0  0  0
    3.7235    0.9589    0.0889 N   0  0  0  0  0  0  0  0  0  0  0  0
    2.3622    0.8547    0.2770 C   0  0  0  0  0  0  0  0  0  0  0  0
    1.5609    1.9151    0.1093 C   0  0  0  0  0  0  0  0  0  0  0  0
    0.1472    1.9293    0.2224 C   0  0  0  0  0  0  0  0  0  0  0  0
   -0.6784    3.0243    0.4493 C   0  0  0  0  0  0  0  0  0  0  0  0
   -2.0191    2.5695    0.4498 C   0  0  0  0  0  0  0  0  0  0  0  0
   -1.9681    1.2137    0.2141 C   0  0  0  0  0  0  0  0  0  0  0  0
   -2.9670    0.1553    0.0888 C   0  0  0  0  0  0  0  0  0  0  0  0
   -2.5952   -1.1967    0.0824 C   0  0  0  0  0  0  0  0  0  0  0  0
   -3.5527   -2.2072   -0.0300 C   0  0  0  0  0  0  0  0  0  0  0  0
   -4.9023   -1.8807   -0.1409 C   0  0  0  0  0  0  0  0  0  0  0  0
   -5.3065   -0.5389   -0.1456 C   0  0  0  0  0  0  0  0  0  0  0  0
   -6.7670   -0.1767   -0.2420 C   0  0  0  0  0  0  0  0  0  0  0  0
   -7.3508   -0.0481    0.9812 F   0  0  0  0  0  0  0  0  0  0  0  0
   -7.5079   -1.1010   -0.9151 F   0  0  0  0  0  0  0  0  0  0  0  0
   -6.9814    1.0068   -0.8832 F   0  0  0  0  0  0  0  0  0  0  0  0
   -4.3309    0.4684   -0.0213 C   0  0  0  0  0  0  0  0  0  0  0  0
   -0.6668    0.8375    0.0616 O   0  0  0  0  0  0  0  0  0  0  0  0
    6.7472    1.0089   -0.3185 H   0  0  0  0  0  0  0  0  0  0  0  0
    8.7637   -0.8334   -0.1456 H   0  0  0  0  0  0  0  0  0  0  0  0
    7.4833   -3.1753    0.5732 H   0  0  0  0  0  0  0  0  0  0  0  0
    2.0324    2.8610   -0.1454 H   0  0  0  0  0  0  0  0  0  0  0  0
   -0.3434    4.0413    0.6026 H   0  0  0  0  0  0  0  0  0  0  0  0
   -2.9081    3.1627    0.6078 H   0  0  0  0  0  0  0  0  0  0  0  0
   -1.5468   -1.4777    0.1774 H   0  0  0  0  0  0  0  0  0  0  0  0
   -3.2390   -3.2485   -0.0258 H   0  0  0  0  0  0  0  0  0  0  0  0
   -5.6391   -2.6783   -0.2239 H   0  0  0  0  0  0  0  0  0  0  0  0
   -4.6511    1.5093   -0.0188 H   0  0  0  0  0  0  0  0  0  0  0  0
  1  2  2  0
  2  3  1  0
  3  4  1  0
  4  5  1  0
  5  6  2  0
  6  7  1  0
  7  8  2  0
  8  9  1  0
  4 10  2  0
 10 11  1  0
 11 12  2  3
 12 13  1  0
 13 14  2  0
 14 15  1  0
 15 16  2  0
 16 17  1  0
 17 18  2  0
 18 19  1  0
 19 20  2  0
 20 21  1  0
 21 22  1  0
 22 23  1  0
 22 24  1  0
 22 25  1  0
 21 26  2  0
 16 27  1  0
 11  2  1  0
 27 13  1  0
  9  5  1  0
 26 17  1  0
  6 28  1  0
  7 29  1  0
  8 30  1  0
 12 31  1  0
 14 32  1  0
 15 33  1  0
 18 34  1  0
 19 35  1  0
 20 36  1  0
 26 37  1  0
M  END
$$$$
