
     RDKit          3D

 54 57  0  0  0  0  0  0  0  0999 V2000
   -4.7980   -4.9068   -1.3660 C   0  0  0  0  0  0  0  0  0  0  0  0
   -4.0384   -4.4539   -0.2527 O   0  0  0  0  0  0  0  0  0  0  0  0
   -3.8852   -3.1017   -0.1182 C   0  0  0  0  0  0  0  0  0  0  0  0
   -4.4021   -2.1276   -0.9718 C   0  0  0  0  0  0  0  0  0  0  0  0
   -4.1675   -0.7709   -0.7155 C   0  0  0  0  0  0  0  0  0  0  0  0
   -3.4156   -0.3706    0.3973 C   0  0  0  0  0  0  0  0  0  0  0  0
   -3.1568    1.0509    0.6593 C   0  0  0  0  0  0  0  0  0  0  0  0
   -4.4891    2.0687    1.0044 S   0  0  0  0  0  0  0  0  0  0  0  0
   -3.4969    3.4543    1.2119 C   0  0  0  0  0  0  0  0  0  0  0  0
   -3.9255    4.7584    1.5320 C   0  0  0  0  0  0  0  0  0  0  0  0
   -2.9758    5.7740    1.6565 C   0  0  0  0  0  0  0  0  0  0  0  0
   -1.6292    5.5042    1.4656 C   0  0  0  0  0  0  0  0  0  0  0  0
   -1.2094    4.2088    1.1493 C   0  0  0  0  0  0  0  0  0  0  0  0
   -2.1478    3.1507    1.0210 C   0  0  0  0  0  0  0  0  0  0  0  0
   -1.9597    1.7500    0.7068 C   0  0  0  0  0  0  0  0  0  0  0  0
   -0.6765    1.1007    0.4556 C   0  0  0  0  0  0  0  0  0  0  0  0
   -0.3560    0.6266   -0.8192 C   0  0  0  0  0  0  0  0  0  0  0  0
    0.8773    0.0106   -1.0446 C   0  0  0  0  0  0  0  0  0  0  0  0
    1.8024   -0.1365   -0.0077 C   0  0  0  0  0  0  0  0  0  0  0  0
    2.9664   -0.7567   -0.3674 O   0  0  0  0  0  0  0  0  0  0  0  0
    3.9450   -0.9548    0.6569 C   0  0  0  0  0  0  0  0  0  0  0  0
    5.1719   -1.6722    0.0610 C   0  0  0  0  0  0  0  0  0  0  0  0
    6.1789   -0.7759   -0.5510 N   0  0  0  0  0  0  0  0  0  0  0  0
    5.6330   -0.0424   -1.6957 C   0  0  0  0  0  0  0  0  0  0  0  0
    7.3457   -1.5552   -0.9737 C   0  0  0  0  0  0  0  0  0  0  0  0
    1.4848    0.3413    1.2639 C   0  0  0  0  0  0  0  0  0  0  0  0
    0.2502    0.9591    1.4945 C   0  0  0  0  0  0  0  0  0  0  0  0
   -2.8992   -1.3533    1.2488 C   0  0  0  0  0  0  0  0  0  0  0  0
   -3.1338   -2.7068    0.9906 C   0  0  0  0  0  0  0  0  0  0  0  0
   -4.3248   -4.6184   -2.3105 H   0  0  0  0  0  0  0  0  0  0  0  0
   -4.8266   -6.0001   -1.3287 H   0  0  0  0  0  0  0  0  0  0  0  0
   -5.8302   -4.5449   -1.3134 H   0  0  0  0  0  0  0  0  0  0  0  0
   -4.9901   -2.3854   -1.8461 H   0  0  0  0  0  0  0  0  0  0  0  0
   -4.5734   -0.0271   -1.3980 H   0  0  0  0  0  0  0  0  0  0  0  0
   -4.9805    4.9725    1.6786 H   0  0  0  0  0  0  0  0  0  0  0  0
   -3.2974    6.7834    1.9020 H   0  0  0  0  0  0  0  0  0  0  0  0
   -0.8952    6.3008    1.5593 H   0  0  0  0  0  0  0  0  0  0  0  0
   -0.1501    4.0148    0.9962 H   0  0  0  0  0  0  0  0  0  0  0  0
   -1.0588    0.7306   -1.6420 H   0  0  0  0  0  0  0  0  0  0  0  0
    1.1185   -0.3595   -2.0380 H   0  0  0  0  0  0  0  0  0  0  0  0
    3.5186   -1.6001    1.4350 H   0  0  0  0  0  0  0  0  0  0  0  0
    4.2475    0.0006    1.1031 H   0  0  0  0  0  0  0  0  0  0  0  0
    4.8440   -2.4299   -0.6625 H   0  0  0  0  0  0  0  0  0  0  0  0
    5.6624   -2.1955    0.8917 H   0  0  0  0  0  0  0  0  0  0  0  0
    5.2109   -0.7118   -2.4538 H   0  0  0  0  0  0  0  0  0  0  0  0
    4.8608    0.6652   -1.3787 H   0  0  0  0  0  0  0  0  0  0  0  0
    6.4132    0.5630   -2.1717 H   0  0  0  0  0  0  0  0  0  0  0  0
    7.7941   -2.0734   -0.1186 H   0  0  0  0  0  0  0  0  0  0  0  0
    8.1219   -0.8971   -1.3801 H   0  0  0  0  0  0  0  0  0  0  0  0
    7.0914   -2.3011   -1.7356 H   0  0  0  0  0  0  0  0  0  0  0  0
    2.1719    0.2512    2.0984 H   0  0  0  0  0  0  0  0  0  0  0  0
    0.0157    1.3243    2.4920 H   0  0  0  0  0  0  0  0  0  0  0  0
   -2.3114   -1.0748    2.1200 H   0  0  0  0  0  0  0  0  0  0  0  0
   -2.7256   -3.4596    1.6603 H   0  0  0  0  0  0  0  0  0  0  0  0
  1  2  1  0
  2  3  1  0
  3  4  2  0
  4  5  1  0
  5  6  2  0
  6  7  1  0
  7  8  1  0
  8  9  1  0
  9 10  2  0
 10 11  1  0
 11 12  2  0
 12 13  1  0
 13 14  2  0
 14 15  1  0
 15 16  1  0
 16 17  2  0
 17 18  1  0
 18 19  2  0
 19 20  1  0
 20 21  1  0
 21 22  1  0
 22 23  1  0
 23 24  1  0
 23 25  1  0
 19 26  1  0
 26 27  2  0
  6 28  1  0
 28 29  2  0
 29  3  1  0
 15  7  2  0
 27 16  1  0
 14  9  1  0
  1 30  1  0
  1 31  1  0
  1 32  1  0
  4 33  1  0
  5 34  1  0
 10 35  1  0
 11 36  1  0
 12 37  1  0
 13 38  1  0
 17 39  1  0
 18 40  1  0
 21 41  1  0
 21 42  1  0
 22 43  1  0
 22 44  1  0
 24 45  1  0
 24 46  1  0
 24 47  1  0
 25 48  1  0
 25 49  1  0
 25 50  1  0
 26 51  1  0
 27 52  1  0
 28 53  1  0
 29 54  1  0
M  END
$$$$
