
     RDKit          3D

 46 48  0  0  0  0  0  0  0  0999 V2000
   -3.9348    1.7276    2.9099 C   0  0  0  0  0  0  0  0  0  0  0  0
   -2.9795    1.2384    1.9755 O   0  0  0  0  0  0  0  0  0  0  0  0
   -3.4309    0.3335    1.0402 C   0  0  0  0  0  0  0  0  0  0  0  0
   -4.7304   -0.1751    0.9812 C   0  0  0  0  0  0  0  0  0  0  0  0
   -5.0803   -1.0911   -0.0139 C   0  0  0  0  0  0  0  0  0  0  0  0
   -4.1404   -1.5035   -0.9628 C   0  0  0  0  0  0  0  0  0  0  0  0
   -4.5086   -2.5123   -2.0117 C   0  0  0  0  0  0  0  0  0  0  0  0
   -2.8308   -1.0074   -0.8919 C   0  0  0  0  0  0  0  0  0  0  0  0
   -2.4693   -0.0903    0.0975 C   0  0  0  0  0  0  0  0  0  0  0  0
   -1.1707    0.4545    0.2298 N   0  0  0  0  0  0  0  0  0  0  0  0
   -0.0528    0.2030   -0.5419 C   0  0  0  0  0  0  0  0  0  0  0  0
   -0.0112   -0.5145   -1.5334 O   0  0  0  0  0  0  0  0  0  0  0  0
    1.1585    1.0154   -0.0859 C   0  0  0  0  0  0  0  0  0  0  0  0
    1.2318    2.2500   -0.9681 C   0  0  0  0  0  0  0  0  0  0  0  0
    2.2293    1.8443   -2.0133 C   0  0  0  0  0  0  0  0  0  0  0  0
    2.4403    2.4496   -3.0516 O   0  0  0  0  0  0  0  0  0  0  0  0
    2.9188    0.7362   -1.6179 O   0  0  0  0  0  0  0  0  0  0  0  0
    2.5353    0.3710   -0.2831 C   0  0  0  0  0  0  0  0  0  0  0  0
    2.5755   -1.1604   -0.1297 C   0  0  0  0  0  0  0  0  0  0  0  0
    3.9881   -1.7352   -0.2658 C   0  0  0  0  0  0  0  0  0  0  0  0
    4.9658   -1.0814    0.7001 C   0  0  0  0  0  0  0  0  0  0  0  0
    4.9666    0.4323    0.5412 C   0  0  0  0  0  0  0  0  0  0  0  0
    3.5591    1.0088    0.6945 C   0  0  0  0  0  0  0  0  0  0  0  0
   -4.3014    0.9215    3.5536 H   0  0  0  0  0  0  0  0  0  0  0  0
   -4.7591    2.2410    2.4043 H   0  0  0  0  0  0  0  0  0  0  0  0
   -3.4307    2.4597    3.5482 H   0  0  0  0  0  0  0  0  0  0  0  0
   -5.4945    0.1114    1.6949 H   0  0  0  0  0  0  0  0  0  0  0  0
   -6.0953   -1.4824   -0.0438 H   0  0  0  0  0  0  0  0  0  0  0  0
   -5.5749   -2.4536   -2.2540 H   0  0  0  0  0  0  0  0  0  0  0  0
   -3.9562   -2.3297   -2.9390 H   0  0  0  0  0  0  0  0  0  0  0  0
   -4.2825   -3.5217   -1.6561 H   0  0  0  0  0  0  0  0  0  0  0  0
   -2.1094   -1.3545   -1.6253 H   0  0  0  0  0  0  0  0  0  0  0  0
   -1.0984    1.1025    1.0084 H   0  0  0  0  0  0  0  0  0  0  0  0
    1.0062    1.2879    0.9659 H   0  0  0  0  0  0  0  0  0  0  0  0
    1.6295    3.1106   -0.4220 H   0  0  0  0  0  0  0  0  0  0  0  0
    0.2789    2.5103   -1.4368 H   0  0  0  0  0  0  0  0  0  0  0  0
    2.1615   -1.4445    0.8456 H   0  0  0  0  0  0  0  0  0  0  0  0
    1.9728   -1.6500   -0.9003 H   0  0  0  0  0  0  0  0  0  0  0  0
    3.9612   -2.8162   -0.0852 H   0  0  0  0  0  0  0  0  0  0  0  0
    4.3427   -1.5961   -1.2950 H   0  0  0  0  0  0  0  0  0  0  0  0
    4.6936   -1.3429    1.7300 H   0  0  0  0  0  0  0  0  0  0  0  0
    5.9747   -1.4725    0.5271 H   0  0  0  0  0  0  0  0  0  0  0  0
    5.6289    0.8788    1.2914 H   0  0  0  0  0  0  0  0  0  0  0  0
    5.3734    0.7008   -0.4411 H   0  0  0  0  0  0  0  0  0  0  0  0
    3.2243    0.8542    1.7283 H   0  0  0  0  0  0  0  0  0  0  0  0
    3.6255    2.0919    0.5360 H   0  0  0  0  0  0  0  0  0  0  0  0
  1  2  1  0
  2  3  1  0
  3  4  2  0
  4  5  1  0
  5  6  2  0
  6  7  1  0
  6  8  1  0
  8  9  2  0
  9 10  1  0
 10 11  1  0
 11 12  2  0
 11 13  1  0
 13 14  1  0
 14 15  1  0
 15 16  2  0
 15 17  1  0
 17 18  1  0
 18 19  1  0
 19 20  1  0
 20 21  1  0
 21 22  1  0
 22 23  1  0
  9  3  1  0
 18 13  1  0
 23 18  1  0
  1 24  1  0
  1 25  1  0
  1 26  1  0
  4 27  1  0
  5 28  1  0
  7 29  1  0
  7 30  1  0
  7 31  1  0
  8 32  1  0
 10 33  1  0
 13 34  1  0
 14 35  1  0
 14 36  1  0
 19 37  1  0
 19 38  1  0
 20 39  1  0
 20 40  1  0
 21 41  1  0
 21 42  1  0
 22 43  1  0
 22 44  1  0
 23 45  1  0
 23 46  1  0
M  END
$$$$
