
     RDKit          3D

 44 47  0  0  0  0  0  0  0  0999 V2000
    1.4108   -3.0413    2.0321 O   0  0  0  0  0  0  0  0  0  0  0  0
    0.9656   -1.8956    2.1376 C   0  0  0  0  0  0  0  0  0  0  0  0
    1.5678   -0.9309    3.1566 C   0  0  0  0  0  0  0  0  0  0  0  0
    3.3749   -0.8254    2.9445 S   0  0  0  0  0  0  0  0  0  0  0  0
    3.4521   -0.2058    1.3405 C   0  0  0  0  0  0  0  0  0  0  0  0
    2.7058    0.7338    0.8142 N   0  0  0  0  0  0  0  0  0  0  0  0
    3.1607    0.8510   -0.4806 C   0  0  0  0  0  0  0  0  0  0  0  0
    2.7304    1.7059   -1.5043 C   0  0  0  0  0  0  0  0  0  0  0  0
    3.3672    1.6172   -2.7481 C   0  0  0  0  0  0  0  0  0  0  0  0
    2.8625    2.6506   -4.0293 Cl  0  0  0  0  0  0  0  0  0  0  0  0
    4.3986    0.7032   -2.9788 C   0  0  0  0  0  0  0  0  0  0  0  0
    4.8379   -0.1615   -1.9681 C   0  0  0  0  0  0  0  0  0  0  0  0
    4.1941   -0.0507   -0.7339 C   0  0  0  0  0  0  0  0  0  0  0  0
    4.3598   -0.7123    0.4576 N   0  0  0  0  0  0  0  0  0  0  0  0
   -0.1049   -1.4691    1.3654 N   0  0  0  0  0  0  0  0  0  0  0  0
   -0.6364   -0.1022    1.3543 C   0  0  0  0  0  0  0  0  0  0  0  0
   -1.5307    0.2029    0.1433 C   0  0  0  0  0  0  0  0  0  0  0  0
   -2.5837   -0.8008   -0.0470 N   0  0  0  0  0  0  0  0  0  0  0  0
   -3.9281   -0.5061   -0.3162 C   0  0  0  0  0  0  0  0  0  0  0  0
   -4.7951   -1.3624   -0.1338 O   0  0  0  0  0  0  0  0  0  0  0  0
   -4.2496    0.8154   -0.8229 C   0  0  0  0  0  0  0  0  0  0  0  0
   -3.6701    1.6232   -1.7869 C   0  0  0  0  0  0  0  0  0  0  0  0
   -4.4406    2.8127   -1.8417 C   0  0  0  0  0  0  0  0  0  0  0  0
   -5.4500    2.6568   -0.9230 C   0  0  0  0  0  0  0  0  0  0  0  0
   -5.3518    1.4502   -0.3109 O   0  0  0  0  0  0  0  0  0  0  0  0
   -2.2601   -2.1726    0.3483 C   0  0  0  0  0  0  0  0  0  0  0  0
   -0.7526   -2.4277    0.4626 C   0  0  0  0  0  0  0  0  0  0  0  0
    1.3618   -1.3436    4.1502 H   0  0  0  0  0  0  0  0  0  0  0  0
    1.1405    0.0710    3.1372 H   0  0  0  0  0  0  0  0  0  0  0  0
    1.9296    2.4132   -1.3247 H   0  0  0  0  0  0  0  0  0  0  0  0
    4.8737    0.6560   -3.9582 H   0  0  0  0  0  0  0  0  0  0  0  0
    5.6366   -0.8744   -2.1435 H   0  0  0  0  0  0  0  0  0  0  0  0
    5.0108   -1.4592    0.6526 H   0  0  0  0  0  0  0  0  0  0  0  0
    0.1834    0.6173    1.3744 H   0  0  0  0  0  0  0  0  0  0  0  0
   -1.2129    0.0146    2.2801 H   0  0  0  0  0  0  0  0  0  0  0  0
   -1.9547    1.2007    0.2680 H   0  0  0  0  0  0  0  0  0  0  0  0
   -0.9286    0.2014   -0.7728 H   0  0  0  0  0  0  0  0  0  0  0  0
   -2.8036    1.3747   -2.3838 H   0  0  0  0  0  0  0  0  0  0  0  0
   -4.2880    3.6719   -2.4805 H   0  0  0  0  0  0  0  0  0  0  0  0
   -6.2797    3.2749   -0.6032 H   0  0  0  0  0  0  0  0  0  0  0  0
   -2.7133   -2.8640   -0.3721 H   0  0  0  0  0  0  0  0  0  0  0  0
   -2.7392   -2.3450    1.3223 H   0  0  0  0  0  0  0  0  0  0  0  0
   -0.5788   -3.4534    0.8035 H   0  0  0  0  0  0  0  0  0  0  0  0
   -0.2724   -2.3147   -0.5165 H   0  0  0  0  0  0  0  0  0  0  0  0
  1  2  2  0
  2  3  1  0
  3  4  1  0
  4  5  1  0
  5  6  2  0
  6  7  1  0
  7  8  2  0
  8  9  1  0
  9 10  1  0
  9 11  2  0
 11 12  1  0
 12 13  2  0
 13 14  1  0
  2 15  1  0
 15 16  1  0
 16 17  1  0
 17 18  1  0
 18 19  1  0
 19 20  2  0
 19 21  1  0
 21 22  2  0
 22 23  1  0
 23 24  2  0
 24 25  1  0
 18 26  1  0
 26 27  1  0
 14  5  1  0
 27 15  1  0
 13  7  1  0
 25 21  1  0
  3 28  1  0
  3 29  1  0
  8 30  1  0
 11 31  1  0
 12 32  1  0
 14 33  1  0
 16 34  1  0
 16 35  1  0
 17 36  1  0
 17 37  1  0
 22 38  1  0
 23 39  1  0
 24 40  1  0
 26 41  1  0
 26 42  1  0
 27 43  1  0
 27 44  1  0
M  END
$$$$
