
     RDKit          3D

 33 35  0  0  0  0  0  0  0  0999 V2000
   -3.2581    1.2574    2.6513 C   0  0  0  0  0  0  0  0  0  0  0  0
   -2.9036   -0.2016    2.8890 C   0  0  0  0  0  0  0  0  0  0  0  0
   -3.2564   -1.0486    1.7205 C   0  0  0  0  0  0  0  0  0  0  0  0
   -4.3676   -1.7427    1.5539 N   0  0  0  0  0  0  0  0  0  0  0  0
   -4.2816   -2.4017    0.3473 N   0  0  0  0  0  0  0  0  0  0  0  0
   -3.1308   -2.0768   -0.1862 C   0  0  0  0  0  0  0  0  0  0  0  0
   -2.4395   -1.2103    0.6207 N   0  0  0  0  0  0  0  0  0  0  0  0
   -1.2016   -0.6575    0.4526 N   0  0  0  0  0  0  0  0  0  0  0  0
   -0.6774   -0.7229   -0.7408 C   0  0  0  0  0  0  0  0  0  0  0  0
    0.7023   -0.1638   -0.9137 C   0  0  0  0  0  0  0  0  0  0  0  0
    1.5894   -0.2020    0.1696 C   0  0  0  0  0  0  0  0  0  0  0  0
    2.8856    0.3125    0.0471 C   0  0  0  0  0  0  0  0  0  0  0  0
    3.3035    0.8760   -1.1577 C   0  0  0  0  0  0  0  0  0  0  0  0
    4.5347    1.4120   -1.4123 O   0  0  0  0  0  0  0  0  0  0  0  0
    5.4789    1.3920   -0.3487 C   0  0  0  0  0  0  0  0  0  0  0  0
    2.4134    0.9238   -2.2339 C   0  0  0  0  0  0  0  0  0  0  0  0
    1.1174    0.4113   -2.1179 C   0  0  0  0  0  0  0  0  0  0  0  0
   -1.3725   -1.2441   -1.9946 C   0  0  0  0  0  0  0  0  0  0  0  0
   -2.4511   -2.6488   -1.6570 S   0  0  0  0  0  0  0  0  0  0  0  0
   -4.3282    1.3767    2.4496 H   0  0  0  0  0  0  0  0  0  0  0  0
   -2.7085    1.6672    1.7971 H   0  0  0  0  0  0  0  0  0  0  0  0
   -3.0095    1.8565    3.5330 H   0  0  0  0  0  0  0  0  0  0  0  0
   -3.4461   -0.5640    3.7700 H   0  0  0  0  0  0  0  0  0  0  0  0
   -1.8360   -0.2913    3.1199 H   0  0  0  0  0  0  0  0  0  0  0  0
    1.2819   -0.6366    1.1189 H   0  0  0  0  0  0  0  0  0  0  0  0
    3.5392    0.2578    0.9116 H   0  0  0  0  0  0  0  0  0  0  0  0
    5.1258    1.9823    0.5034 H   0  0  0  0  0  0  0  0  0  0  0  0
    5.7140    0.3654   -0.0490 H   0  0  0  0  0  0  0  0  0  0  0  0
    6.4024    1.8524   -0.7129 H   0  0  0  0  0  0  0  0  0  0  0  0
    2.7337    1.3721   -3.1723 H   0  0  0  0  0  0  0  0  0  0  0  0
    0.4547    0.4933   -2.9742 H   0  0  0  0  0  0  0  0  0  0  0  0
   -1.9669   -0.4281   -2.4194 H   0  0  0  0  0  0  0  0  0  0  0  0
   -0.6417   -1.5678   -2.7404 H   0  0  0  0  0  0  0  0  0  0  0  0
  1  2  1  0
  2  3  1  0
  3  4  2  0
  4  5  1  0
  5  6  2  0
  6  7  1  0
  7  8  1  0
  8  9  2  0
  9 10  1  0
 10 11  2  0
 11 12  1  0
 12 13  2  0
 13 14  1  0
 14 15  1  0
 13 16  1  0
 16 17  2  0
  9 18  1  0
 18 19  1  0
  7  3  1  0
 17 10  1  0
 19  6  1  0
  1 20  1  0
  1 21  1  0
  1 22  1  0
  2 23  1  0
  2 24  1  0
 11 25  1  0
 12 26  1  0
 15 27  1  0
 15 28  1  0
 15 29  1  0
 16 30  1  0
 17 31  1  0
 18 32  1  0
 18 33  1  0
M  END
$$$$
