
     RDKit          3D

 57 60  0  0  0  0  0  0  0  0999 V2000
   -3.7283    2.6033   -1.8378 C   0  0  0  0  0  0  0  0  0  0  0  0
   -4.8745    2.0323   -1.0894 C   0  0  0  0  0  0  0  0  0  0  0  0
   -6.1240    2.2768   -1.5034 N   0  0  0  0  0  0  0  0  0  0  0  0
   -6.9520    1.6143   -0.6227 O   0  0  0  0  0  0  0  0  0  0  0  0
   -6.2037    0.9798    0.3151 C   0  0  0  0  0  0  0  0  0  0  0  0
   -6.9527    0.2253    1.3371 C   0  0  0  0  0  0  0  0  0  0  0  0
   -4.8646    1.2010    0.0668 C   0  0  0  0  0  0  0  0  0  0  0  0
   -3.7016    0.6990    0.8468 C   0  0  0  0  0  0  0  0  0  0  0  0
   -2.5550    0.3689    0.0566 O   0  0  0  0  0  0  0  0  0  0  0  0
   -2.5801   -0.7482   -0.7321 C   0  0  0  0  0  0  0  0  0  0  0  0
   -3.5369   -1.7635   -0.6614 C   0  0  0  0  0  0  0  0  0  0  0  0
   -3.4662   -2.8654   -1.5235 C   0  0  0  0  0  0  0  0  0  0  0  0
   -2.4427   -2.9658   -2.4651 C   0  0  0  0  0  0  0  0  0  0  0  0
   -1.4789   -1.9651   -2.5457 C   0  0  0  0  0  0  0  0  0  0  0  0
   -1.5454   -0.8727   -1.6729 C   0  0  0  0  0  0  0  0  0  0  0  0
   -0.5164    0.1758   -1.8085 C   0  0  0  0  0  0  0  0  0  0  0  0
   -0.6760    1.0189   -2.6877 O   0  0  0  0  0  0  0  0  0  0  0  0
    0.5958    0.1266   -0.9709 N   0  0  0  0  0  0  0  0  0  0  0  0
    1.4800    1.2952   -0.9548 C   0  0  0  0  0  0  0  0  0  0  0  0
    2.9275    0.9397   -0.5764 C   0  0  0  0  0  0  0  0  0  0  0  0
    2.9624    0.1673    0.6866 N   0  0  0  0  0  0  0  0  0  0  0  0
    4.2079   -0.0337    1.3027 C   0  0  0  0  0  0  0  0  0  0  0  0
    4.2513   -0.4168    2.6536 C   0  0  0  0  0  0  0  0  0  0  0  0
    5.4599   -0.6201    3.3246 C   0  0  0  0  0  0  0  0  0  0  0  0
    6.6646   -0.4394    2.6540 C   0  0  0  0  0  0  0  0  0  0  0  0
    6.6657   -0.0547    1.3083 C   0  0  0  0  0  0  0  0  0  0  0  0
    7.9619    0.1724    0.5730 C   0  0  0  0  0  0  0  0  0  0  0  0
    9.0088   -0.5239    1.0989 F   0  0  0  0  0  0  0  0  0  0  0  0
    7.9002   -0.1902   -0.7394 F   0  0  0  0  0  0  0  0  0  0  0  0
    8.3413    1.4799    0.5812 F   0  0  0  0  0  0  0  0  0  0  0  0
    5.4359    0.1551    0.6527 C   0  0  0  0  0  0  0  0  0  0  0  0
    2.1388   -1.0645    0.6098 C   0  0  0  0  0  0  0  0  0  0  0  0
    0.6860   -0.7311    0.2187 C   0  0  0  0  0  0  0  0  0  0  0  0
   -4.0077    3.5382   -2.3350 H   0  0  0  0  0  0  0  0  0  0  0  0
   -3.3895    1.8990   -2.6034 H   0  0  0  0  0  0  0  0  0  0  0  0
   -2.8902    2.8239   -1.1698 H   0  0  0  0  0  0  0  0  0  0  0  0
   -6.4382    0.2602    2.3024 H   0  0  0  0  0  0  0  0  0  0  0  0
   -7.0511   -0.8225    1.0376 H   0  0  0  0  0  0  0  0  0  0  0  0
   -7.9565    0.6385    1.4772 H   0  0  0  0  0  0  0  0  0  0  0  0
   -3.9654   -0.1379    1.5039 H   0  0  0  0  0  0  0  0  0  0  0  0
   -3.3816    1.5054    1.5183 H   0  0  0  0  0  0  0  0  0  0  0  0
   -4.3590   -1.7334    0.0451 H   0  0  0  0  0  0  0  0  0  0  0  0
   -4.2238   -3.6444   -1.4662 H   0  0  0  0  0  0  0  0  0  0  0  0
   -2.4041   -3.8166   -3.1411 H   0  0  0  0  0  0  0  0  0  0  0  0
   -0.6868   -2.0249   -3.2878 H   0  0  0  0  0  0  0  0  0  0  0  0
    1.4719    1.7940   -1.9298 H   0  0  0  0  0  0  0  0  0  0  0  0
    1.0621    1.9980   -0.2231 H   0  0  0  0  0  0  0  0  0  0  0  0
    3.3727    0.3500   -1.3881 H   0  0  0  0  0  0  0  0  0  0  0  0
    3.4926    1.8737   -0.4719 H   0  0  0  0  0  0  0  0  0  0  0  0
    3.3244   -0.5321    3.2108 H   0  0  0  0  0  0  0  0  0  0  0  0
    5.4553   -0.9079    4.3728 H   0  0  0  0  0  0  0  0  0  0  0  0
    7.6025   -0.5939    3.1849 H   0  0  0  0  0  0  0  0  0  0  0  0
    5.4647    0.4548   -0.3924 H   0  0  0  0  0  0  0  0  0  0  0  0
    2.1132   -1.6027    1.5640 H   0  0  0  0  0  0  0  0  0  0  0  0
    2.5710   -1.7404   -0.1401 H   0  0  0  0  0  0  0  0  0  0  0  0
    0.1952   -0.1900    1.0369 H   0  0  0  0  0  0  0  0  0  0  0  0
    0.1395   -1.6655    0.0638 H   0  0  0  0  0  0  0  0  0  0  0  0
  1  2  1  0
  2  3  2  0
  3  4  1  0
  4  5  1  0
  5  6  1  0
  5  7  2  0
  7  8  1  0
  8  9  1  0
  9 10  1  0
 10 11  2  0
 11 12  1  0
 12 13  2  0
 13 14  1  0
 14 15  2  0
 15 16  1  0
 16 17  2  0
 16 18  1  0
 18 19  1  0
 19 20  1  0
 20 21  1  0
 21 22  1  0
 22 23  2  0
 23 24  1  0
 24 25  2  0
 25 26  1  0
 26 27  1  0
 27 28  1  0
 27 29  1  0
 27 30  1  0
 26 31  2  0
 21 32  1  0
 32 33  1  0
  7  2  1  0
 15 10  1  0
 33 18  1  0
 31 22  1  0
  1 34  1  0
  1 35  1  0
  1 36  1  0
  6 37  1  0
  6 38  1  0
  6 39  1  0
  8 40  1  0
  8 41  1  0
 11 42  1  0
 12 43  1  0
 13 44  1  0
 14 45  1  0
 19 46  1  0
 19 47  1  0
 20 48  1  0
 20 49  1  0
 23 50  1  0
 24 51  1  0
 25 52  1  0
 31 53  1  0
 32 54  1  0
 32 55  1  0
 33 56  1  0
 33 57  1  0
M  END
$$$$
