
     RDKit          3D

 35 37  0  0  0  0  0  0  0  0999 V2000
   -5.6921    0.4946    0.0140 C   0  0  0  0  0  0  0  0  0  0  0  0
   -4.2591    0.0418    0.0587 C   0  0  0  0  0  0  0  0  0  0  0  0
   -3.2358    0.9993   -0.0436 C   0  0  0  0  0  0  0  0  0  0  0  0
   -1.8937    0.6443   -0.0472 C   0  0  0  0  0  0  0  0  0  0  0  0
   -0.9514    1.5992   -0.1470 N   0  0  0  0  0  0  0  0  0  0  0  0
    0.3337    1.1996   -0.1639 C   0  0  0  0  0  0  0  0  0  0  0  0
    1.3441    2.1375   -0.2706 C   0  0  0  0  0  0  0  0  0  0  0  0
    2.6919    1.7566   -0.2900 C   0  0  0  0  0  0  0  0  0  0  0  0
    3.0823    0.4145   -0.1934 C   0  0  0  0  0  0  0  0  0  0  0  0
    4.4260    0.0276   -0.2303 N   0  0  0  0  0  0  0  0  0  0  0  0
    5.4606    1.0272    0.0338 C   0  0  0  0  0  0  0  0  0  0  0  0
    4.7824   -1.3521    0.0998 C   0  0  0  0  0  0  0  0  0  0  0  0
    2.0322   -0.5173   -0.1021 C   0  0  0  0  0  0  0  0  0  0  0  0
    0.6839   -0.1592   -0.0798 C   0  0  0  0  0  0  0  0  0  0  0  0
   -0.2618   -1.1135    0.0227 N   0  0  0  0  0  0  0  0  0  0  0  0
   -1.5490   -0.7174    0.0406 C   0  0  0  0  0  0  0  0  0  0  0  0
   -2.5615   -1.6636    0.1454 C   0  0  0  0  0  0  0  0  0  0  0  0
   -3.9145   -1.3074    0.2099 C   0  0  0  0  0  0  0  0  0  0  0  0
   -4.8852   -2.3186    0.2039 N   0  0  0  0  0  0  0  0  0  0  0  0
   -6.2255   -0.0066   -0.8002 H   0  0  0  0  0  0  0  0  0  0  0  0
   -5.7691    1.5732   -0.1601 H   0  0  0  0  0  0  0  0  0  0  0  0
   -6.1876    0.2757    0.9652 H   0  0  0  0  0  0  0  0  0  0  0  0
   -3.4843    2.0546   -0.1372 H   0  0  0  0  0  0  0  0  0  0  0  0
    1.0831    3.1900   -0.3457 H   0  0  0  0  0  0  0  0  0  0  0  0
    3.4248    2.5513   -0.3913 H   0  0  0  0  0  0  0  0  0  0  0  0
    5.4574    1.8118   -0.7303 H   0  0  0  0  0  0  0  0  0  0  0  0
    5.3294    1.4769    1.0243 H   0  0  0  0  0  0  0  0  0  0  0  0
    6.4618    0.5828    0.0036 H   0  0  0  0  0  0  0  0  0  0  0  0
    4.4978   -1.5960    1.1293 H   0  0  0  0  0  0  0  0  0  0  0  0
    5.8619   -1.5164    0.0065 H   0  0  0  0  0  0  0  0  0  0  0  0
    4.3113   -2.0595   -0.5911 H   0  0  0  0  0  0  0  0  0  0  0  0
    2.2389   -1.5816   -0.0431 H   0  0  0  0  0  0  0  0  0  0  0  0
   -2.2755   -2.7118    0.1831 H   0  0  0  0  0  0  0  0  0  0  0  0
   -4.5696   -3.1991    0.6002 H   0  0  0  0  0  0  0  0  0  0  0  0
   -5.7878   -2.0384    0.5730 H   0  0  0  0  0  0  0  0  0  0  0  0
  1  2  1  0
  2  3  2  0
  3  4  1  0
  4  5  2  0
  5  6  1  0
  6  7  2  0
  7  8  1  0
  8  9  2  0
  9 10  1  0
 10 11  1  0
 10 12  1  0
  9 13  1  0
 13 14  2  0
 14 15  1  0
 15 16  2  0
 16 17  1  0
 17 18  2  0
 18 19  1  0
 18  2  1  0
 16  4  1  0
 14  6  1  0
  1 20  1  0
  1 21  1  0
  1 22  1  0
  3 23  1  0
  7 24  1  0
  8 25  1  0
 11 26  1  0
 11 27  1  0
 11 28  1  0
 12 29  1  0
 12 30  1  0
 12 31  1  0
 13 32  1  0
 17 33  1  0
 19 34  1  0
 19 35  1  0
M  END
$$$$
