
     RDKit          3D

 57 61  0  0  0  0  0  0  0  0999 V2000
    6.4302    0.8143   -0.5483 C   0  0  0  0  0  0  0  0  0  0  0  0
    4.9635    0.9570   -0.9589 C   0  0  0  0  0  0  0  0  0  0  0  0
    4.7517    2.2876   -1.6793 C   0  0  0  0  0  0  0  0  0  0  0  0
    4.0527    0.8852    0.2692 C   0  0  0  0  0  0  0  0  0  0  0  0
    4.4591    1.2588    1.3718 O   0  0  0  0  0  0  0  0  0  0  0  0
    2.7459    0.4352    0.0912 N   0  0  0  0  0  0  0  0  0  0  0  0
    2.2071   -0.0744   -1.1701 C   0  0  0  0  0  0  0  0  0  0  0  0
    0.6819   -0.0732   -1.1748 C   0  0  0  0  0  0  0  0  0  0  0  0
    0.1151   -0.9793   -0.0498 C   0  0  0  0  0  0  0  0  0  0  0  0
    0.9925   -0.8894    1.2291 C   0  0  0  0  0  0  0  0  0  0  0  0
    1.8805    0.3500    1.2645 C   0  0  0  0  0  0  0  0  0  0  0  0
    0.2871   -2.3177   -0.6006 O   0  0  0  0  0  0  0  0  0  0  0  0
   -0.4637   -3.3260   -0.0761 C   0  0  0  0  0  0  0  0  0  0  0  0
   -0.0792   -4.6208   -0.4259 C   0  0  0  0  0  0  0  0  0  0  0  0
   -0.7763   -5.7210    0.0795 C   0  0  0  0  0  0  0  0  0  0  0  0
   -1.8611   -5.5223    0.9329 C   0  0  0  0  0  0  0  0  0  0  0  0
   -2.7134   -6.8786    1.5584 Cl  0  0  0  0  0  0  0  0  0  0  0  0
   -2.2595   -4.2340    1.2782 C   0  0  0  0  0  0  0  0  0  0  0  0
   -1.5593   -3.1401    0.7584 C   0  0  0  0  0  0  0  0  0  0  0  0
   -1.9703   -1.7696    1.0867 C   0  0  0  0  0  0  0  0  0  0  0  0
   -2.7353   -1.5736    2.0278 O   0  0  0  0  0  0  0  0  0  0  0  0
   -1.3848   -0.6639    0.2137 C   0  0  0  0  0  0  0  0  0  0  0  0
   -1.6687    0.7061    0.8152 C   0  0  0  0  0  0  0  0  0  0  0  0
   -2.9142    1.0313    0.0617 C   0  0  0  0  0  0  0  0  0  0  0  0
   -3.8036    2.1510    0.4520 C   0  0  0  0  0  0  0  0  0  0  0  0
   -3.4755    3.0178    1.5014 C   0  0  0  0  0  0  0  0  0  0  0  0
   -4.3380    4.0665    1.8391 C   0  0  0  0  0  0  0  0  0  0  0  0
   -5.5242    4.2495    1.1298 C   0  0  0  0  0  0  0  0  0  0  0  0
   -6.5794    5.5413    1.5488 Cl  0  0  0  0  0  0  0  0  0  0  0  0
   -5.8580    3.3932    0.0835 C   0  0  0  0  0  0  0  0  0  0  0  0
   -4.9980    2.3450   -0.2557 C   0  0  0  0  0  0  0  0  0  0  0  0
   -3.1323    0.2842   -0.9734 N   0  0  0  0  0  0  0  0  0  0  0  0
   -2.1020   -0.6786   -1.0319 O   0  0  0  0  0  0  0  0  0  0  0  0
    7.0801    0.8030   -1.4297 H   0  0  0  0  0  0  0  0  0  0  0  0
    6.5890   -0.1198    0.0015 H   0  0  0  0  0  0  0  0  0  0  0  0
    6.7525    1.6382    0.0982 H   0  0  0  0  0  0  0  0  0  0  0  0
    4.7373    0.1257   -1.6340 H   0  0  0  0  0  0  0  0  0  0  0  0
    5.0333    3.1310   -1.0385 H   0  0  0  0  0  0  0  0  0  0  0  0
    3.7059    2.4381   -1.9626 H   0  0  0  0  0  0  0  0  0  0  0  0
    5.3585    2.3365   -2.5895 H   0  0  0  0  0  0  0  0  0  0  0  0
    2.5669    0.5327   -2.0037 H   0  0  0  0  0  0  0  0  0  0  0  0
    2.6004   -1.0881   -1.3093 H   0  0  0  0  0  0  0  0  0  0  0  0
    0.3381   -0.4255   -2.1557 H   0  0  0  0  0  0  0  0  0  0  0  0
    0.3410    0.9620   -1.0705 H   0  0  0  0  0  0  0  0  0  0  0  0
    1.6406   -1.7737    1.2980 H   0  0  0  0  0  0  0  0  0  0  0  0
    0.3740   -0.9034    2.1339 H   0  0  0  0  0  0  0  0  0  0  0  0
    2.4735    0.3379    2.1851 H   0  0  0  0  0  0  0  0  0  0  0  0
    1.2772    1.2638    1.2879 H   0  0  0  0  0  0  0  0  0  0  0  0
    0.7693   -4.7767   -1.0882 H   0  0  0  0  0  0  0  0  0  0  0  0
   -0.4678   -6.7270   -0.1945 H   0  0  0  0  0  0  0  0  0  0  0  0
   -3.1118   -4.0789    1.9358 H   0  0  0  0  0  0  0  0  0  0  0  0
   -0.9234    1.4635    0.5635 H   0  0  0  0  0  0  0  0  0  0  0  0
   -1.8160    0.6979    1.8975 H   0  0  0  0  0  0  0  0  0  0  0  0
   -2.5582    2.9029    2.0710 H   0  0  0  0  0  0  0  0  0  0  0  0
   -4.0794    4.7361    2.6558 H   0  0  0  0  0  0  0  0  0  0  0  0
   -6.7823    3.5321   -0.4714 H   0  0  0  0  0  0  0  0  0  0  0  0
   -5.2694    1.6801   -1.0741 H   0  0  0  0  0  0  0  0  0  0  0  0
  1  2  1  0
  2  3  1  0
  2  4  1  0
  4  5  2  0
  4  6  1  0
  6  7  1  0
  7  8  1  0
  8  9  1  0
  9 10  1  0
 10 11  1  0
  9 12  1  0
 12 13  1  0
 13 14  2  0
 14 15  1  0
 15 16  2  0
 16 17  1  0
 16 18  1  0
 18 19  2  0
 19 20  1  0
 20 21  2  0
 20 22  1  0
 22 23  1  0
 23 24  1  0
 24 25  1  0
 25 26  2  0
 26 27  1  0
 27 28  2  0
 28 29  1  0
 28 30  1  0
 30 31  2  0
 24 32  2  0
 32 33  1  0
 11  6  1  0
 19 13  1  0
 33 22  1  0
 22  9  1  0
 31 25  1  0
  1 34  1  0
  1 35  1  0
  1 36  1  0
  2 37  1  0
  3 38  1  0
  3 39  1  0
  3 40  1  0
  7 41  1  0
  7 42  1  0
  8 43  1  0
  8 44  1  0
 10 45  1  0
 10 46  1  0
 11 47  1  0
 11 48  1  0
 14 49  1  0
 15 50  1  0
 18 51  1  0
 23 52  1  0
 23 53  1  0
 26 54  1  0
 27 55  1  0
 30 56  1  0
 31 57  1  0
M  END
$$$$
