
     RDKit          3D

 55 58  0  0  0  0  0  0  0  0999 V2000
   -8.0539    1.8391    0.9839 C   0  0  0  0  0  0  0  0  0  0  0  0
   -7.5587    1.7077   -0.4478 C   0  0  0  0  0  0  0  0  0  0  0  0
   -7.4617    0.2577   -0.9322 C   0  0  0  0  0  0  0  0  0  0  0  0
   -6.4842   -0.6183   -0.1471 C   0  0  0  0  0  0  0  0  0  0  0  0
   -5.1257   -0.1170   -0.1843 N   0  0  0  0  0  0  0  0  0  0  0  0
   -4.3072   -0.3384   -1.2738 C   0  0  0  0  0  0  0  0  0  0  0  0
   -4.6407   -1.0048   -2.2468 O   0  0  0  0  0  0  0  0  0  0  0  0
   -2.9722    0.3209   -1.2400 C   0  0  0  0  0  0  0  0  0  0  0  0
   -2.3105    0.6000   -0.0398 C   0  0  0  0  0  0  0  0  0  0  0  0
   -1.0578    1.2224   -0.0579 C   0  0  0  0  0  0  0  0  0  0  0  0
   -0.4402    1.5646   -1.2710 C   0  0  0  0  0  0  0  0  0  0  0  0
    0.9210    2.2381   -1.2891 C   0  0  0  0  0  0  0  0  0  0  0  0
    2.0165    1.3344   -0.9156 N   0  0  0  0  0  0  0  0  0  0  0  0
    2.6765    0.5372   -1.8746 C   0  0  0  0  0  0  0  0  0  0  0  0
    2.3964    0.5062   -3.5313 S   0  0  0  0  0  0  0  0  0  0  0  0
    3.6715   -0.3053   -1.4247 N   0  0  0  0  0  0  0  0  0  0  0  0
    4.0382   -0.3643   -0.1081 C   0  0  0  0  0  0  0  0  0  0  0  0
    3.4060    0.4368    0.7935 C   0  0  0  0  0  0  0  0  0  0  0  0
    3.9539    0.1993    2.0230 N   0  0  0  0  0  0  0  0  0  0  0  0
    4.9408   -0.7605    1.9131 C   0  0  0  0  0  0  0  0  0  0  0  0
    5.7682   -1.3214    2.8908 C   0  0  0  0  0  0  0  0  0  0  0  0
    6.6955   -2.2907    2.4831 C   0  0  0  0  0  0  0  0  0  0  0  0
    6.7926   -2.6849    1.1483 C   0  0  0  0  0  0  0  0  0  0  0  0
    7.6613   -3.6188    0.6491 O   0  0  0  0  0  0  0  0  0  0  0  0
    8.5366   -4.2474    1.5767 C   0  0  0  0  0  0  0  0  0  0  0  0
    5.9532   -2.1091    0.1846 C   0  0  0  0  0  0  0  0  0  0  0  0
    5.0125   -1.1338    0.5665 C   0  0  0  0  0  0  0  0  0  0  0  0
    2.3615    1.3485    0.4527 C   0  0  0  0  0  0  0  0  0  0  0  0
    1.8390    2.0702    1.2981 O   0  0  0  0  0  0  0  0  0  0  0  0
   -1.1101    1.2737   -2.4684 C   0  0  0  0  0  0  0  0  0  0  0  0
   -2.3612    0.6501   -2.4538 C   0  0  0  0  0  0  0  0  0  0  0  0
   -7.3331    1.4284    1.6969 H   0  0  0  0  0  0  0  0  0  0  0  0
   -8.2015    2.8946    1.2344 H   0  0  0  0  0  0  0  0  0  0  0  0
   -9.0092    1.3223    1.1187 H   0  0  0  0  0  0  0  0  0  0  0  0
   -6.5876    2.2064   -0.5449 H   0  0  0  0  0  0  0  0  0  0  0  0
   -8.2518    2.2449   -1.1064 H   0  0  0  0  0  0  0  0  0  0  0  0
   -8.4566   -0.2021   -0.8889 H   0  0  0  0  0  0  0  0  0  0  0  0
   -7.1697    0.2699   -1.9895 H   0  0  0  0  0  0  0  0  0  0  0  0
   -6.7764   -0.6940    0.9046 H   0  0  0  0  0  0  0  0  0  0  0  0
   -6.4932   -1.6318   -0.5641 H   0  0  0  0  0  0  0  0  0  0  0  0
   -4.8757    0.6050    0.4768 H   0  0  0  0  0  0  0  0  0  0  0  0
   -2.7393    0.3180    0.9174 H   0  0  0  0  0  0  0  0  0  0  0  0
   -0.5684    1.4365    0.8904 H   0  0  0  0  0  0  0  0  0  0  0  0
    0.8868    3.0969   -0.6068 H   0  0  0  0  0  0  0  0  0  0  0  0
    1.1137    2.6729   -2.2759 H   0  0  0  0  0  0  0  0  0  0  0  0
    4.1500   -0.8929   -2.0979 H   0  0  0  0  0  0  0  0  0  0  0  0
    3.6739    0.6610    2.8788 H   0  0  0  0  0  0  0  0  0  0  0  0
    5.7016   -1.0221    3.9321 H   0  0  0  0  0  0  0  0  0  0  0  0
    7.3346   -2.7216    3.2478 H   0  0  0  0  0  0  0  0  0  0  0  0
    9.2072   -3.5181    2.0430 H   0  0  0  0  0  0  0  0  0  0  0  0
    9.1546   -4.9605    1.0227 H   0  0  0  0  0  0  0  0  0  0  0  0
    7.9755   -4.8090    2.3309 H   0  0  0  0  0  0  0  0  0  0  0  0
    6.0329   -2.4201   -0.8528 H   0  0  0  0  0  0  0  0  0  0  0  0
   -0.6658    1.5248   -3.4297 H   0  0  0  0  0  0  0  0  0  0  0  0
   -2.8597    0.4233   -3.3946 H   0  0  0  0  0  0  0  0  0  0  0  0
  1  2  1  0
  2  3  1  0
  3  4  1  0
  4  5  1  0
  5  6  1  0
  6  7  2  0
  6  8  1  0
  8  9  2  0
  9 10  1  0
 10 11  2  0
 11 12  1  0
 12 13  1  0
 13 14  1  0
 14 15  2  0
 14 16  1  0
 16 17  1  0
 17 18  2  0
 18 19  1  0
 19 20  1  0
 20 21  2  0
 21 22  1  0
 22 23  2  0
 23 24  1  0
 24 25  1  0
 23 26  1  0
 26 27  2  0
 18 28  1  0
 28 29  2  0
 11 30  1  0
 30 31  2  0
 31  8  1  0
 28 13  1  0
 27 17  1  0
 27 20  1  0
  1 32  1  0
  1 33  1  0
  1 34  1  0
  2 35  1  0
  2 36  1  0
  3 37  1  0
  3 38  1  0
  4 39  1  0
  4 40  1  0
  5 41  1  0
  9 42  1  0
 10 43  1  0
 12 44  1  0
 12 45  1  0
 16 46  1  0
 19 47  1  0
 21 48  1  0
 22 49  1  0
 25 50  1  0
 25 51  1  0
 25 52  1  0
 26 53  1  0
 30 54  1  0
 31 55  1  0
M  END
$$$$
