
     RDKit          3D

 48 50  0  0  0  0  0  0  0  0999 V2000
    5.0395    1.0320   -2.8036 C   0  0  0  0  0  0  0  0  0  0  0  0
    4.5603    1.8669   -1.7560 O   0  0  0  0  0  0  0  0  0  0  0  0
    3.9060    1.2529   -0.7231 C   0  0  0  0  0  0  0  0  0  0  0  0
    3.4866    2.1100    0.2973 C   0  0  0  0  0  0  0  0  0  0  0  0
    2.8064    1.6155    1.4126 C   0  0  0  0  0  0  0  0  0  0  0  0
    2.5354    0.2476    1.5225 C   0  0  0  0  0  0  0  0  0  0  0  0
    1.7850   -0.2955    2.7166 C   0  0  0  0  0  0  0  0  0  0  0  0
    0.4602   -0.9752    2.3845 C   0  0  0  0  0  0  0  0  0  0  0  0
    0.1076   -1.9695    3.0129 O   0  0  0  0  0  0  0  0  0  0  0  0
   -0.2770   -0.3211    1.4112 N   0  0  0  0  0  0  0  0  0  0  0  0
   -1.4930   -0.7546    0.9063 C   0  0  0  0  0  0  0  0  0  0  0  0
   -2.2204   -1.9060    1.1194 C   0  0  0  0  0  0  0  0  0  0  0  0
   -3.3662   -1.7827    0.3395 C   0  0  0  0  0  0  0  0  0  0  0  0
   -3.4232   -0.6435   -0.3338 N   0  0  0  0  0  0  0  0  0  0  0  0
   -2.2546   -0.0200   -0.0141 N   0  0  0  0  0  0  0  0  0  0  0  0
   -1.9748    1.2967   -0.6302 C   0  0  0  0  0  0  0  0  0  0  0  0
   -1.8484    2.3881    0.4509 C   0  0  0  0  0  0  0  0  0  0  0  0
   -3.1267    1.7428   -1.5729 C   0  0  0  0  0  0  0  0  0  0  0  0
   -0.7010    1.2297   -1.4951 C   0  0  0  0  0  0  0  0  0  0  0  0
   -4.3551   -2.8663    0.3539 C   0  0  0  0  0  0  0  0  0  0  0  0
   -3.5981   -4.1804    1.4338 S   0  0  0  0  0  3  0  0  0  0  0  0
   -3.0732   -5.4013    0.4317 O   0  0  0  0  0  1  0  0  0  0  0  0
   -2.0997   -3.1497    1.8948 C   0  0  0  0  0  0  0  0  0  0  0  0
    2.9652   -0.6123    0.5020 C   0  0  0  0  0  0  0  0  0  0  0  0
    3.6401   -0.1121   -0.6170 C   0  0  0  0  0  0  0  0  0  0  0  0
    4.2117    0.5421   -3.3237 H   0  0  0  0  0  0  0  0  0  0  0  0
    5.7612    0.2985   -2.4280 H   0  0  0  0  0  0  0  0  0  0  0  0
    5.5591    1.6692   -3.5288 H   0  0  0  0  0  0  0  0  0  0  0  0
    3.6996    3.1733    0.2235 H   0  0  0  0  0  0  0  0  0  0  0  0
    2.5015    2.3109    2.1912 H   0  0  0  0  0  0  0  0  0  0  0  0
    2.4307   -1.0237    3.2239 H   0  0  0  0  0  0  0  0  0  0  0  0
    1.5714    0.5024    3.4382 H   0  0  0  0  0  0  0  0  0  0  0  0
    0.1194    0.5349    1.0476 H   0  0  0  0  0  0  0  0  0  0  0  0
   -1.7417    3.3808   -0.0026 H   0  0  0  0  0  0  0  0  0  0  0  0
   -0.9821    2.2461    1.1002 H   0  0  0  0  0  0  0  0  0  0  0  0
   -2.7371    2.4087    1.0924 H   0  0  0  0  0  0  0  0  0  0  0  0
   -2.9184    2.7241   -2.0165 H   0  0  0  0  0  0  0  0  0  0  0  0
   -3.2693    1.0353   -2.3982 H   0  0  0  0  0  0  0  0  0  0  0  0
   -4.0763    1.8262   -1.0322 H   0  0  0  0  0  0  0  0  0  0  0  0
   -0.5329    2.1779   -2.0192 H   0  0  0  0  0  0  0  0  0  0  0  0
   -0.7826    0.4409   -2.2518 H   0  0  0  0  0  0  0  0  0  0  0  0
    0.2015    1.0277   -0.9136 H   0  0  0  0  0  0  0  0  0  0  0  0
   -4.5389   -3.2936   -0.6343 H   0  0  0  0  0  0  0  0  0  0  0  0
   -5.2942   -2.5598    0.8223 H   0  0  0  0  0  0  0  0  0  0  0  0
   -1.2140   -3.7353    1.6384 H   0  0  0  0  0  0  0  0  0  0  0  0
   -2.1717   -2.9807    2.9729 H   0  0  0  0  0  0  0  0  0  0  0  0
    2.7748   -1.6822    0.5662 H   0  0  0  0  0  0  0  0  0  0  0  0
    3.9476   -0.8162   -1.3832 H   0  0  0  0  0  0  0  0  0  0  0  0
  1  2  1  0
  2  3  1  0
  3  4  2  0
  4  5  1  0
  5  6  2  0
  6  7  1  0
  7  8  1  0
  8  9  2  0
  8 10  1  0
 10 11  1  0
 11 12  2  0
 12 13  1  0
 13 14  2  0
 14 15  1  0
 15 16  1  0
 16 17  1  0
 16 18  1  0
 16 19  1  0
 13 20  1  0
 20 21  1  0
 21 22  1  0
 21 23  1  0
  6 24  1  0
 24 25  2  0
 25  3  1  0
 15 11  1  0
 23 12  1  0
  1 26  1  0
  1 27  1  0
  1 28  1  0
  4 29  1  0
  5 30  1  0
  7 31  1  0
  7 32  1  0
 10 33  1  0
 17 34  1  0
 17 35  1  0
 17 36  1  0
 18 37  1  0
 18 38  1  0
 18 39  1  0
 19 40  1  0
 19 41  1  0
 19 42  1  0
 20 43  1  0
 20 44  1  0
 23 45  1  0
 23 46  1  0
 24 47  1  0
 25 48  1  0
M  CHG  2  21   1  22  -1
M  END
$$$$
