
     RDKit          3D

 71 76  0  0  0  0  0  0  0  0999 V2000
   -2.0436   -4.5327    2.4247 C   0  0  0  0  0  0  0  0  0  0  0  0
   -2.9027   -4.8702    1.3415 O   0  0  0  0  0  0  0  0  0  0  0  0
   -2.9419   -4.0046    0.2813 C   0  0  0  0  0  0  0  0  0  0  0  0
   -3.9031   -4.3322   -0.6977 C   0  0  0  0  0  0  0  0  0  0  0  0
   -4.0861   -3.5400   -1.8323 C   0  0  0  0  0  0  0  0  0  0  0  0
   -3.2715   -2.4350   -1.9594 C   0  0  0  0  0  0  0  0  0  0  0  0
   -2.2873   -2.1004   -1.0219 C   0  0  0  0  0  0  0  0  0  0  0  0
   -2.1257   -2.8772    0.1204 C   0  0  0  0  0  0  0  0  0  0  0  0
   -1.5788   -0.8521   -1.4863 C   0  0  1  0  0  0  0  0  0  0  0  0
   -2.3719   -0.4892   -2.7897 C   0  0  0  0  0  0  0  0  0  0  0  0
   -2.2396    0.4691   -3.5360 O   0  0  0  0  0  0  0  0  0  0  0  0
   -3.3147   -1.5010   -2.9804 N   0  0  0  0  0  0  0  0  0  0  0  0
   -1.7000    0.1858   -0.4429 C   0  0  0  0  0  0  0  0  0  0  0  0
   -0.4758    0.8338   -0.2634 C   0  0  0  0  0  0  0  0  0  0  0  0
   -0.6396    1.8539    0.6313 C   0  0  0  0  0  0  0  0  0  0  0  0
    0.2338    2.7632    1.0434 O   0  0  0  0  0  0  0  0  0  0  0  0
   -1.9534    1.7800    1.0728 N   0  0  0  0  0  0  0  0  0  0  0  0
   -2.5400    2.5802    2.1442 C   0  0  0  0  0  0  0  0  0  0  0  0
   -2.9779    3.9434    1.6624 C   0  0  0  0  0  0  0  0  0  0  0  0
   -4.0452    4.0677    0.7576 C   0  0  0  0  0  0  0  0  0  0  0  0
   -4.4614    5.3251    0.3171 C   0  0  0  0  0  0  0  0  0  0  0  0
   -3.8173    6.4735    0.7786 C   0  0  0  0  0  0  0  0  0  0  0  0
   -2.7585    6.3658    1.6806 C   0  0  0  0  0  0  0  0  0  0  0  0
   -2.3428    5.1082    2.1244 C   0  0  0  0  0  0  0  0  0  0  0  0
   -2.6101    0.7464    0.4174 C   0  0  0  0  0  0  0  0  0  0  0  0
   -3.8789    0.4658    0.6783 O   0  0  0  0  0  0  0  0  0  0  0  0
    0.5892    0.2709   -1.1228 C   0  0  1  0  0  0  0  0  0  0  0  0
    1.8628   -0.1068   -0.3322 C   0  0  0  0  0  0  0  0  0  0  0  0
    2.7281   -1.0646   -1.0315 N   0  0  0  0  0  0  0  0  0  0  0  0
    4.0726   -1.2059   -0.7593 C   0  0  0  0  0  0  0  0  0  0  0  0
    4.7914   -2.0245   -1.3195 O   0  0  0  0  0  0  0  0  0  0  0  0
    4.4907   -0.3438    0.2016 O   0  0  0  0  0  0  0  0  0  0  0  0
    5.8832   -0.2943    0.6103 C   0  0  0  0  0  0  0  0  0  0  0  0
    5.9342    0.8083    1.6797 C   0  0  0  0  0  0  0  0  0  0  0  0
    6.3280   -1.6145    1.2510 C   0  0  0  0  0  0  0  0  0  0  0  0
    6.7892    0.1155   -0.5558 C   0  0  0  0  0  0  0  0  0  0  0  0
    2.0859   -1.9942   -1.9577 C   0  0  0  0  0  0  0  0  0  0  0  0
    0.5825   -2.1520   -1.6784 C   0  0  0  0  0  0  0  0  0  0  0  0
   -0.1169   -0.8790   -1.8033 N   0  0  0  0  0  0  0  0  0  0  0  0
   -0.9918   -4.5623    2.1184 H   0  0  0  0  0  0  0  0  0  0  0  0
   -2.3068   -3.5608    2.8510 H   0  0  0  0  0  0  0  0  0  0  0  0
   -2.1896   -5.2872    3.2078 H   0  0  0  0  0  0  0  0  0  0  0  0
   -4.5229   -5.2155   -0.5569 H   0  0  0  0  0  0  0  0  0  0  0  0
   -4.8394   -3.7887   -2.5714 H   0  0  0  0  0  0  0  0  0  0  0  0
   -1.3783   -2.5950    0.8550 H   0  0  0  0  0  0  0  0  0  0  0  0
   -3.9503   -1.5042   -3.7647 H   0  0  0  0  0  0  0  0  0  0  0  0
   -0.2524    3.5829    1.2398 H   0  0  0  0  0  0  0  0  0  0  0  0
   -1.7864    2.6584    2.9384 H   0  0  0  0  0  0  0  0  0  0  0  0
   -3.3918    2.0375    2.5714 H   0  0  0  0  0  0  0  0  0  0  0  0
   -4.5632    3.1790    0.3945 H   0  0  0  0  0  0  0  0  0  0  0  0
   -5.2879    5.4109   -0.3858 H   0  0  0  0  0  0  0  0  0  0  0  0
   -4.1459    7.4523    0.4376 H   0  0  0  0  0  0  0  0  0  0  0  0
   -2.2569    7.2637    2.0407 H   0  0  0  0  0  0  0  0  0  0  0  0
   -1.5238    5.0511    2.8391 H   0  0  0  0  0  0  0  0  0  0  0  0
   -4.1213   -0.3211    0.1592 H   0  0  0  0  0  0  0  0  0  0  0  0
    0.8550    0.9908   -1.9066 H   0  0  0  0  0  0  0  0  0  0  0  0
    1.5979   -0.5813    0.6216 H   0  0  0  0  0  0  0  0  0  0  0  0
    2.4290    0.7996   -0.0875 H   0  0  0  0  0  0  0  0  0  0  0  0
    6.9500    0.9531    2.0695 H   0  0  0  0  0  0  0  0  0  0  0  0
    5.5820    1.7628    1.2687 H   0  0  0  0  0  0  0  0  0  0  0  0
    5.2701    0.5671    2.5177 H   0  0  0  0  0  0  0  0  0  0  0  0
    6.3949   -2.4242    0.5188 H   0  0  0  0  0  0  0  0  0  0  0  0
    7.3135   -1.5176    1.7228 H   0  0  0  0  0  0  0  0  0  0  0  0
    5.6073   -1.9404    2.0107 H   0  0  0  0  0  0  0  0  0  0  0  0
    6.8519   -0.6650   -1.3221 H   0  0  0  0  0  0  0  0  0  0  0  0
    7.8100    0.3283   -0.2189 H   0  0  0  0  0  0  0  0  0  0  0  0
    6.3911    1.0070   -1.0583 H   0  0  0  0  0  0  0  0  0  0  0  0
    2.5744   -2.9730   -1.8932 H   0  0  0  0  0  0  0  0  0  0  0  0
    2.2502   -1.6094   -2.9716 H   0  0  0  0  0  0  0  0  0  0  0  0
    0.1673   -2.8755   -2.3891 H   0  0  0  0  0  0  0  0  0  0  0  0
    0.4773   -2.5659   -0.6707 H   0  0  0  0  0  0  0  0  0  0  0  0
  1  2  1  0
  2  3  1  0
  3  4  2  0
  4  5  1  0
  5  6  2  0
  6  7  1  0
  7  8  2  0
  7  9  1  0
  9 10  1  0
 10 11  2  0
 10 12  1  0
  9 13  1  0
 13 14  1  0
 14 15  2  0
 15 16  1  0
 15 17  1  0
 17 18  1  0
 18 19  1  0
 19 20  2  0
 20 21  1  0
 21 22  2  0
 22 23  1  0
 23 24  2  0
 17 25  1  0
 25 26  1  0
 14 27  1  0
 27 28  1  0
 28 29  1  0
 29 30  1  0
 30 31  2  0
 30 32  1  0
 32 33  1  0
 33 34  1  0
 33 35  1  0
 33 36  1  0
 29 37  1  0
 37 38  1  0
 38 39  1  0
  8  3  1  0
  9 39  1  6
 12  6  1  0
 25 13  2  0
 39 27  1  0
 24 19  1  0
  1 40  1  0
  1 41  1  0
  1 42  1  0
  4 43  1  0
  5 44  1  0
  8 45  1  0
 12 46  1  0
 16 47  1  0
 18 48  1  0
 18 49  1  0
 20 50  1  0
 21 51  1  0
 22 52  1  0
 23 53  1  0
 24 54  1  0
 26 55  1  0
 27 56  1  6
 28 57  1  0
 28 58  1  0
 34 59  1  0
 34 60  1  0
 34 61  1  0
 35 62  1  0
 35 63  1  0
 35 64  1  0
 36 65  1  0
 36 66  1  0
 36 67  1  0
 37 68  1  0
 37 69  1  0
 38 70  1  0
 38 71  1  0
M  END
$$$$
