
     RDKit          3D

 37 40  0  0  0  0  0  0  0  0999 V2000
    5.2281   -1.0465    0.0292 C   0  0  0  0  0  0  0  0  0  0  0  0
    5.0113    0.3029   -0.3625 O   0  0  0  0  0  0  0  0  0  0  0  0
    3.7133    0.7390   -0.3978 C   0  0  0  0  0  0  0  0  0  0  0  0
    3.5644    2.0726   -0.7714 C   0  0  0  0  0  0  0  0  0  0  0  0
    2.3038    2.6645   -0.8685 C   0  0  0  0  0  0  0  0  0  0  0  0
    1.1929    1.8698   -0.5685 C   0  0  0  0  0  0  0  0  0  0  0  0
   -0.1390    2.1840   -0.6002 N   0  0  0  0  0  0  0  0  0  0  0  0
   -0.9266    1.1058   -0.2585 C   0  0  0  0  0  0  0  0  0  0  0  0
   -2.3325    1.0127   -0.2153 C   0  0  0  0  0  0  0  0  0  0  0  0
   -3.2171    2.1835   -0.5652 C   0  0  0  0  0  0  0  0  0  0  0  0
   -2.8882   -0.2457    0.1461 C   0  0  0  0  0  0  0  0  0  0  0  0
   -4.2833   -0.4579    0.1706 C   0  0  0  0  0  0  0  0  0  0  0  0
   -4.7986   -1.6955    0.5143 C   0  0  0  0  0  0  0  0  0  0  0  0
   -4.0348   -2.7468    0.8342 N   0  0  0  0  0  0  0  0  0  0  0  0
   -2.6972   -2.5354    0.8127 C   0  0  0  0  0  0  0  0  0  0  0  0
   -2.0454   -1.3269    0.4935 C   0  0  0  0  0  0  0  0  0  0  0  0
   -0.6187   -1.1735    0.5079 C   0  0  0  0  0  0  0  0  0  0  0  0
    0.2558   -2.3180    0.9621 C   0  0  0  0  0  0  0  0  0  0  0  0
   -0.0615    0.0591    0.0617 C   0  0  0  0  0  0  0  0  0  0  0  0
    1.2857    0.5388   -0.1723 C   0  0  0  0  0  0  0  0  0  0  0  0
    2.5816   -0.0330   -0.1026 C   0  0  0  0  0  0  0  0  0  0  0  0
    4.7675   -1.7419   -0.6801 H   0  0  0  0  0  0  0  0  0  0  0  0
    4.8703   -1.2249    1.0487 H   0  0  0  0  0  0  0  0  0  0  0  0
    6.3072   -1.2281    0.0193 H   0  0  0  0  0  0  0  0  0  0  0  0
    4.4483    2.6643   -0.9999 H   0  0  0  0  0  0  0  0  0  0  0  0
    2.2001    3.7013   -1.1712 H   0  0  0  0  0  0  0  0  0  0  0  0
   -0.4938    3.0888   -0.8688 H   0  0  0  0  0  0  0  0  0  0  0  0
   -3.8135    1.9549   -1.4545 H   0  0  0  0  0  0  0  0  0  0  0  0
   -3.8820    2.4209    0.2717 H   0  0  0  0  0  0  0  0  0  0  0  0
   -2.6431    3.0883   -0.7825 H   0  0  0  0  0  0  0  0  0  0  0  0
   -4.9860    0.3292   -0.0805 H   0  0  0  0  0  0  0  0  0  0  0  0
   -5.8700   -1.8710    0.5353 H   0  0  0  0  0  0  0  0  0  0  0  0
   -2.1372   -3.4315    1.0651 H   0  0  0  0  0  0  0  0  0  0  0  0
    0.4617   -2.9914    0.1252 H   0  0  0  0  0  0  0  0  0  0  0  0
    1.1983   -1.9564    1.3771 H   0  0  0  0  0  0  0  0  0  0  0  0
   -0.2027   -2.8812    1.7803 H   0  0  0  0  0  0  0  0  0  0  0  0
    2.6808   -1.0751    0.1652 H   0  0  0  0  0  0  0  0  0  0  0  0
  1  2  1  0
  2  3  1  0
  3  4  2  0
  4  5  1  0
  5  6  2  0
  6  7  1  0
  7  8  1  0
  8  9  2  0
  9 10  1  0
  9 11  1  0
 11 12  2  0
 12 13  1  0
 13 14  2  0
 14 15  1  0
 15 16  2  0
 16 17  1  0
 17 18  1  0
 17 19  2  0
 19 20  1  0
 20 21  2  0
 21  3  1  0
 20  6  1  0
 19  8  1  0
 16 11  1  0
  1 22  1  0
  1 23  1  0
  1 24  1  0
  4 25  1  0
  5 26  1  0
  7 27  1  0
 10 28  1  0
 10 29  1  0
 10 30  1  0
 12 31  1  0
 13 32  1  0
 15 33  1  0
 18 34  1  0
 18 35  1  0
 18 36  1  0
 21 37  1  0
M  END
$$$$
