
     RDKit          3D

 54 59  0  0  0  0  0  0  0  0999 V2000
    5.4274    1.5275   -1.0764 C   0  0  0  0  0  0  0  0  0  0  0  0
    5.9402    0.2195   -0.5390 C   0  0  0  0  0  0  0  0  0  0  0  0
    7.2558   -0.1797   -0.8194 C   0  0  0  0  0  0  0  0  0  0  0  0
    7.7482   -1.3878   -0.3299 C   0  0  0  0  0  0  0  0  0  0  0  0
    6.9309   -2.2062    0.4436 C   0  0  0  0  0  0  0  0  0  0  0  0
    5.6188   -1.8201    0.7303 C   0  0  0  0  0  0  0  0  0  0  0  0
    5.1148   -0.6097    0.2434 C   0  0  0  0  0  0  0  0  0  0  0  0
    3.8476   -0.1386    0.4657 O   0  0  0  0  0  0  0  0  0  0  0  0
    2.9642   -0.9507    1.2451 C   0  0  0  0  0  0  0  0  0  0  0  0
    1.6207   -0.3050    1.3784 C   0  0  0  0  0  0  0  0  0  0  0  0
    0.5879   -0.5709    0.5045 N   0  0  0  0  0  0  0  0  0  0  0  0
   -0.3916    0.1980    0.9326 C   0  0  0  0  0  0  0  0  0  0  0  0
   -1.7400    0.4393    0.5061 C   0  0  0  0  0  0  0  0  0  0  0  0
   -2.4604    1.2944    1.2958 C   0  0  0  0  0  0  0  0  0  0  0  0
   -1.9691    1.9495    2.4241 N   0  0  0  0  0  0  0  0  0  0  0  0
   -0.7388    1.7291    2.7727 C   0  0  0  0  0  0  0  0  0  0  0  0
    0.0424    0.8639    2.0420 N   0  0  0  0  0  0  0  0  0  0  0  0
    1.3139    0.5591    2.3600 N   0  0  0  0  0  0  0  0  0  0  0  0
   -3.8943    1.5529    0.9828 C   0  0  0  0  0  0  0  0  0  0  0  0
   -4.7590    2.1157    1.9363 C   0  0  0  0  0  0  0  0  0  0  0  0
   -6.0994    2.3686    1.6350 C   0  0  0  0  0  0  0  0  0  0  0  0
   -6.5952    2.0696    0.3704 C   0  0  0  0  0  0  0  0  0  0  0  0
   -5.7521    1.5165   -0.5905 C   0  0  0  0  0  0  0  0  0  0  0  0
   -4.4090    1.2479   -0.2848 C   0  0  0  0  0  0  0  0  0  0  0  0
   -3.4884    0.6890   -1.3313 C   0  0  0  0  0  0  0  0  0  0  0  0
   -2.3871   -0.2288   -0.7283 C   0  0  0  0  0  0  0  0  0  0  0  0
   -2.9465   -1.6205   -0.3568 C   0  0  0  0  0  0  0  0  0  0  0  0
   -3.0812   -2.3829   -1.6760 C   0  0  0  0  0  0  0  0  0  0  0  0
   -2.1582   -1.6863   -2.6737 C   0  0  0  0  0  0  0  0  0  0  0  0
   -1.4189   -0.6145   -1.8744 C   0  0  0  0  0  0  0  0  0  0  0  0
    6.1901    2.0463   -1.6667 H   0  0  0  0  0  0  0  0  0  0  0  0
    5.1388    2.1886   -0.2528 H   0  0  0  0  0  0  0  0  0  0  0  0
    4.5636    1.3576   -1.7273 H   0  0  0  0  0  0  0  0  0  0  0  0
    7.9047    0.4512   -1.4227 H   0  0  0  0  0  0  0  0  0  0  0  0
    8.7686   -1.6891   -0.5522 H   0  0  0  0  0  0  0  0  0  0  0  0
    7.3147   -3.1487    0.8259 H   0  0  0  0  0  0  0  0  0  0  0  0
    5.0210   -2.4910    1.3375 H   0  0  0  0  0  0  0  0  0  0  0  0
    2.8292   -1.9248    0.7589 H   0  0  0  0  0  0  0  0  0  0  0  0
    3.3831   -1.1012    2.2479 H   0  0  0  0  0  0  0  0  0  0  0  0
   -0.2990    2.2201    3.6545 H   0  0  0  0  0  0  0  0  0  0  0  0
   -4.3921    2.3644    2.9300 H   0  0  0  0  0  0  0  0  0  0  0  0
   -6.7505    2.8042    2.3881 H   0  0  0  0  0  0  0  0  0  0  0  0
   -7.6357    2.2725    0.1312 H   0  0  0  0  0  0  0  0  0  0  0  0
   -6.1462    1.2968   -1.5801 H   0  0  0  0  0  0  0  0  0  0  0  0
   -4.0811    0.1524   -2.0813 H   0  0  0  0  0  0  0  0  0  0  0  0
   -3.0237    1.5407   -1.8472 H   0  0  0  0  0  0  0  0  0  0  0  0
   -3.9026   -1.5759    0.1754 H   0  0  0  0  0  0  0  0  0  0  0  0
   -2.2434   -2.1601    0.2915 H   0  0  0  0  0  0  0  0  0  0  0  0
   -2.8111   -3.4361   -1.5462 H   0  0  0  0  0  0  0  0  0  0  0  0
   -4.1154   -2.3552   -2.0371 H   0  0  0  0  0  0  0  0  0  0  0  0
   -1.4610   -2.3893   -3.1411 H   0  0  0  0  0  0  0  0  0  0  0  0
   -2.7462   -1.2311   -3.4787 H   0  0  0  0  0  0  0  0  0  0  0  0
   -0.4950   -1.0685   -1.5093 H   0  0  0  0  0  0  0  0  0  0  0  0
   -1.1349    0.2374   -2.5014 H   0  0  0  0  0  0  0  0  0  0  0  0
  1  2  1  0
  2  3  2  0
  3  4  1  0
  4  5  2  0
  5  6  1  0
  6  7  2  0
  7  8  1  0
  8  9  1  0
  9 10  1  0
 10 11  1  0
 11 12  2  0
 12 13  1  0
 13 14  2  0
 14 15  1  0
 15 16  2  0
 16 17  1  0
 17 18  1  0
 14 19  1  0
 19 20  2  0
 20 21  1  0
 21 22  2  0
 22 23  1  0
 23 24  2  0
 24 25  1  0
 25 26  1  0
 26 27  1  0
 27 28  1  0
 28 29  1  0
 29 30  1  0
  7  2  1  0
 18 10  2  0
 24 19  1  0
 30 26  1  0
 17 12  1  0
 26 13  1  0
  1 31  1  0
  1 32  1  0
  1 33  1  0
  3 34  1  0
  4 35  1  0
  5 36  1  0
  6 37  1  0
  9 38  1  0
  9 39  1  0
 16 40  1  0
 20 41  1  0
 21 42  1  0
 22 43  1  0
 23 44  1  0
 25 45  1  0
 25 46  1  0
 27 47  1  0
 27 48  1  0
 28 49  1  0
 28 50  1  0
 29 51  1  0
 29 52  1  0
 30 53  1  0
 30 54  1  0
M  END
$$$$
