
     RDKit          3D

 43 44  0  0  0  0  0  0  0  0999 V2000
   -5.2521    2.6804    1.0298 C   0  0  0  0  0  0  0  0  0  0  0  0
   -5.2236    1.2218    1.4455 C   0  0  0  0  0  0  0  0  0  0  0  0
   -4.1943    0.5251    0.7245 O   0  0  0  0  0  0  0  0  0  0  0  0
   -2.9507    0.5377    1.2909 C   0  0  0  0  0  0  0  0  0  0  0  0
   -2.7004    1.0819    2.3609 O   0  0  0  0  0  0  0  0  0  0  0  0
   -1.9494   -0.1519    0.4588 C   0  0  0  0  0  0  0  0  0  0  0  0
   -0.6419   -0.0151    0.7210 N   0  0  0  0  0  0  0  0  0  0  0  0
    0.0296   -0.6224   -0.2902 N   0  0  0  0  0  0  0  0  0  0  0  0
    1.4578   -0.4892   -0.3229 C   0  0  0  0  0  0  0  0  0  0  0  0
    2.2446   -0.9107   -1.3941 C   0  0  0  0  0  0  0  0  0  0  0  0
    3.6367   -0.7445   -1.3596 C   0  0  0  0  0  0  0  0  0  0  0  0
    4.2698   -0.1425   -0.2718 C   0  0  0  0  0  0  0  0  0  0  0  0
    5.6262   -0.0459   -0.3886 O   0  0  0  0  0  0  0  0  0  0  0  0
    6.3655    0.6211    0.6347 C   0  0  0  0  0  0  0  0  0  0  0  0
    6.3994    2.1207    0.3866 C   0  0  0  0  0  0  0  0  0  0  0  0
    3.4932    0.2956    0.7934 C   0  0  0  0  0  0  0  0  0  0  0  0
    2.1026    0.1239    0.7682 C   0  0  0  0  0  0  0  0  0  0  0  0
   -0.8561   -1.2956   -1.1254 C   0  0  0  0  0  0  0  0  0  0  0  0
   -0.4849   -2.1969   -2.2499 C   0  0  0  0  0  0  0  0  0  0  0  0
   -2.1369   -0.9933   -0.6673 C   0  0  0  0  0  0  0  0  0  0  0  0
   -3.3727   -1.4885   -1.2615 C   0  0  0  0  0  0  0  0  0  0  0  0
   -4.3644   -2.2067   -0.3807 C   0  0  0  0  0  0  0  0  0  0  0  0
   -3.5859   -1.3742   -2.4669 O   0  0  0  0  0  0  0  0  0  0  0  0
   -4.3107    3.1779    1.2817 H   0  0  0  0  0  0  0  0  0  0  0  0
   -5.3788    2.7681   -0.0532 H   0  0  0  0  0  0  0  0  0  0  0  0
   -6.0730    3.2082    1.5265 H   0  0  0  0  0  0  0  0  0  0  0  0
   -6.1733    0.7464    1.1834 H   0  0  0  0  0  0  0  0  0  0  0  0
   -5.1020    1.1136    2.5291 H   0  0  0  0  0  0  0  0  0  0  0  0
    1.8384   -1.3424   -2.2962 H   0  0  0  0  0  0  0  0  0  0  0  0
    4.2345   -1.0772   -2.2053 H   0  0  0  0  0  0  0  0  0  0  0  0
    6.0136    0.3699    1.6417 H   0  0  0  0  0  0  0  0  0  0  0  0
    7.3919    0.2383    0.5751 H   0  0  0  0  0  0  0  0  0  0  0  0
    7.0226    2.6207    1.1324 H   0  0  0  0  0  0  0  0  0  0  0  0
    5.3950    2.5550    0.4212 H   0  0  0  0  0  0  0  0  0  0  0  0
    6.8037    2.3315   -0.6104 H   0  0  0  0  0  0  0  0  0  0  0  0
    3.9237    0.7860    1.6607 H   0  0  0  0  0  0  0  0  0  0  0  0
    1.5328    0.4842    1.6248 H   0  0  0  0  0  0  0  0  0  0  0  0
    0.2774   -2.9212   -1.9411 H   0  0  0  0  0  0  0  0  0  0  0  0
   -0.1321   -1.6181   -3.1136 H   0  0  0  0  0  0  0  0  0  0  0  0
   -1.3434   -2.7889   -2.5905 H   0  0  0  0  0  0  0  0  0  0  0  0
   -3.9314   -2.4409    0.5938 H   0  0  0  0  0  0  0  0  0  0  0  0
   -5.2576   -1.5929   -0.2491 H   0  0  0  0  0  0  0  0  0  0  0  0
   -4.6437   -3.1490   -0.8589 H   0  0  0  0  0  0  0  0  0  0  0  0
  1  2  1  0
  2  3  1  0
  3  4  1  0
  4  5  2  0
  4  6  1  0
  6  7  2  0
  7  8  1  0
  8  9  1  0
  9 10  2  0
 10 11  1  0
 11 12  2  0
 12 13  1  0
 13 14  1  0
 14 15  1  0
 12 16  1  0
 16 17  2  0
  8 18  1  0
 18 19  1  0
 18 20  2  0
 20 21  1  0
 21 22  1  0
 21 23  2  0
 20  6  1  0
 17  9  1  0
  1 24  1  0
  1 25  1  0
  1 26  1  0
  2 27  1  0
  2 28  1  0
 10 29  1  0
 11 30  1  0
 14 31  1  0
 14 32  1  0
 15 33  1  0
 15 34  1  0
 15 35  1  0
 16 36  1  0
 17 37  1  0
 19 38  1  0
 19 39  1  0
 19 40  1  0
 22 41  1  0
 22 42  1  0
 22 43  1  0
M  END
$$$$
