
     RDKit          3D

 44 46  0  0  0  0  0  0  0  0999 V2000
    1.2059    1.0970    1.9036 O   0  0  0  0  0  0  0  0  0  0  0  0
    0.9580   -0.0269    1.4646 C   0  0  0  0  0  0  0  0  0  0  0  0
   -0.0602   -0.9632    2.1131 C   0  0  0  0  0  0  0  0  0  0  0  0
   -1.1994   -1.2478    1.3003 O   0  0  0  0  0  0  0  0  0  0  0  0
   -1.0330   -2.2277    0.3733 C   0  0  0  0  0  0  0  0  0  0  0  0
    0.0106   -2.8557    0.2257 O   0  0  0  0  0  0  0  0  0  0  0  0
   -2.2902   -2.4971   -0.4455 C   0  0  0  0  0  0  0  0  0  0  0  0
   -3.3938   -1.5976   -0.1361 N   0  0  0  0  0  0  0  0  0  0  0  0
   -4.3323   -1.9484    0.8024 C   0  0  0  0  0  0  0  0  0  0  0  0
   -5.3268   -1.2119    1.1647 N   0  0  0  0  0  0  0  0  0  0  0  0
   -5.4572    0.0472    0.5594 C   0  0  0  0  0  0  0  0  0  0  0  0
   -6.5303    0.8632    0.9235 C   0  0  0  0  0  0  0  0  0  0  0  0
   -6.6918    2.1266    0.3467 C   0  0  0  0  0  0  0  0  0  0  0  0
   -5.7774    2.5860   -0.6016 C   0  0  0  0  0  0  0  0  0  0  0  0
   -4.7011    1.7821   -0.9747 C   0  0  0  0  0  0  0  0  0  0  0  0
   -4.5506    0.5187   -0.3920 C   0  0  0  0  0  0  0  0  0  0  0  0
   -3.4250   -0.3597   -0.7605 C   0  0  0  0  0  0  0  0  0  0  0  0
   -2.5762    0.0151   -1.5645 O   0  0  0  0  0  0  0  0  0  0  0  0
    1.6006   -0.5489    0.3592 N   0  0  0  0  0  0  0  0  0  0  0  0
    2.7191    0.1531   -0.1248 N   0  0  0  0  0  0  0  0  0  0  0  0
    3.8684   -0.5806   -0.3569 C   0  0  0  0  0  0  0  0  0  0  0  0
    3.8947   -1.8080   -0.3191 O   0  0  0  0  0  0  0  0  0  0  0  0
    5.1100    0.1982   -0.6246 C   0  0  0  0  0  0  0  0  0  0  0  0
    5.0781    1.5111   -1.1154 C   0  0  0  0  0  0  0  0  0  0  0  0
    6.2725    2.1990   -1.3537 C   0  0  0  0  0  0  0  0  0  0  0  0
    7.4950    1.5741   -1.1091 C   0  0  0  0  0  0  0  0  0  0  0  0
    9.1062    2.5075   -1.4337 Br  0  0  0  0  0  0  0  0  0  0  0  0
    7.5379    0.2647   -0.6344 C   0  0  0  0  0  0  0  0  0  0  0  0
    6.3457   -0.4240   -0.3965 C   0  0  0  0  0  0  0  0  0  0  0  0
    0.4401   -1.8820    2.4423 H   0  0  0  0  0  0  0  0  0  0  0  0
   -0.4318   -0.4719    3.0193 H   0  0  0  0  0  0  0  0  0  0  0  0
   -2.6021   -3.5267   -0.2403 H   0  0  0  0  0  0  0  0  0  0  0  0
   -2.0293   -2.4002   -1.5046 H   0  0  0  0  0  0  0  0  0  0  0  0
   -4.1888   -2.9434    1.2535 H   0  0  0  0  0  0  0  0  0  0  0  0
   -7.2440    0.5102    1.6638 H   0  0  0  0  0  0  0  0  0  0  0  0
   -7.5317    2.7517    0.6406 H   0  0  0  0  0  0  0  0  0  0  0  0
   -5.9028    3.5696   -1.0481 H   0  0  0  0  0  0  0  0  0  0  0  0
   -3.9852    2.1372   -1.7123 H   0  0  0  0  0  0  0  0  0  0  0  0
    1.5944   -1.5598    0.1807 H   0  0  0  0  0  0  0  0  0  0  0  0
    2.7751    1.1230    0.1842 H   0  0  0  0  0  0  0  0  0  0  0  0
    4.1390    2.0084   -1.3427 H   0  0  0  0  0  0  0  0  0  0  0  0
    6.2385    3.2162   -1.7366 H   0  0  0  0  0  0  0  0  0  0  0  0
    8.4882   -0.2297   -0.4494 H   0  0  0  0  0  0  0  0  0  0  0  0
    6.3829   -1.4488   -0.0303 H   0  0  0  0  0  0  0  0  0  0  0  0
  1  2  2  0
  2  3  1  0
  3  4  1  0
  4  5  1  0
  5  6  2  0
  5  7  1  0
  7  8  1  0
  8  9  1  0
  9 10  2  0
 10 11  1  0
 11 12  2  0
 12 13  1  0
 13 14  2  0
 14 15  1  0
 15 16  2  0
 16 17  1  0
 17 18  2  0
  2 19  1  0
 19 20  1  0
 20 21  1  0
 21 22  2  0
 21 23  1  0
 23 24  2  0
 24 25  1  0
 25 26  2  0
 26 27  1  0
 26 28  1  0
 28 29  2  0
 17  8  1  0
 29 23  1  0
 16 11  1  0
  3 30  1  0
  3 31  1  0
  7 32  1  0
  7 33  1  0
  9 34  1  0
 12 35  1  0
 13 36  1  0
 14 37  1  0
 15 38  1  0
 19 39  1  0
 20 40  1  0
 24 41  1  0
 25 42  1  0
 28 43  1  0
 29 44  1  0
M  END
$$$$
