
     RDKit          3D

 44 45  0  0  0  0  0  0  0  0999 V2000
    4.1484   -0.6843   -4.4036 C   0  0  0  0  0  0  0  0  0  0  0  0
    4.1400    0.0118   -3.0515 C   0  0  0  0  0  0  0  0  0  0  0  0
    2.7841    0.6192   -2.6870 C   0  0  0  0  0  0  0  0  0  0  0  0
    1.6828   -0.4290   -2.5020 C   0  0  0  0  0  0  0  0  0  0  0  0
    0.4533    0.2024   -1.9895 N   0  0  0  0  0  0  0  0  0  0  0  0
   -0.4272    0.7327   -3.0380 C   0  0  0  0  0  0  0  0  0  0  0  0
    0.0759    0.1822   -0.6333 C   0  0  0  0  0  0  0  0  0  0  0  0
   -1.1674    0.4717   -0.1943 C   0  0  0  0  0  0  0  0  0  0  0  0
   -1.5520    0.3864    1.2019 C   0  0  0  0  0  0  0  0  0  0  0  0
   -2.8007    0.0173    1.5454 C   0  0  0  0  0  0  0  0  0  0  0  0
   -3.2289   -0.2193    2.9290 C   0  0  0  0  0  0  0  0  0  0  0  0
   -4.4993   -0.5697    3.2579 C   0  0  0  0  0  0  0  0  0  0  0  0
   -4.8820   -0.7781    4.6164 C   0  0  0  0  0  0  0  0  0  0  0  0
   -5.1778   -0.9429    5.7265 N   0  0  0  0  0  0  0  0  0  0  0  0
   -5.5265   -0.7291    2.2813 C   0  0  0  0  0  0  0  0  0  0  0  0
   -6.3553   -0.8566    1.4788 N   0  0  0  0  0  0  0  0  0  0  0  0
   -2.1377   -0.0658    3.9856 C   0  0  0  0  0  0  0  0  0  0  0  0
   -0.7177   -0.2689    3.4446 C   0  0  0  0  0  0  0  0  0  0  0  0
   -0.4850    0.6476    2.2396 C   0  0  0  0  0  0  0  0  0  0  0  0
    0.9545    0.5633    1.7133 C   0  0  0  0  0  0  0  0  0  0  0  0
    1.1013   -0.2276    0.4152 C   0  0  0  0  0  0  0  0  0  0  0  0
    5.1626   -1.0154   -4.6491 H   0  0  0  0  0  0  0  0  0  0  0  0
    3.8119   -0.0082   -5.1958 H   0  0  0  0  0  0  0  0  0  0  0  0
    3.5029   -1.5675   -4.4042 H   0  0  0  0  0  0  0  0  0  0  0  0
    4.8871    0.8144   -3.0680 H   0  0  0  0  0  0  0  0  0  0  0  0
    4.4525   -0.6956   -2.2746 H   0  0  0  0  0  0  0  0  0  0  0  0
    2.9039    1.1966   -1.7623 H   0  0  0  0  0  0  0  0  0  0  0  0
    2.4864    1.3408   -3.4578 H   0  0  0  0  0  0  0  0  0  0  0  0
    1.4652   -0.9204   -3.4583 H   0  0  0  0  0  0  0  0  0  0  0  0
    2.0189   -1.2322   -1.8362 H   0  0  0  0  0  0  0  0  0  0  0  0
   -1.2621    0.0465   -3.2140 H   0  0  0  0  0  0  0  0  0  0  0  0
    0.1032    0.8661   -3.9874 H   0  0  0  0  0  0  0  0  0  0  0  0
   -0.8211    1.7150   -2.7552 H   0  0  0  0  0  0  0  0  0  0  0  0
   -1.9593    0.6962   -0.9021 H   0  0  0  0  0  0  0  0  0  0  0  0
   -3.5189   -0.1657    0.7464 H   0  0  0  0  0  0  0  0  0  0  0  0
   -2.2790   -0.7769    4.8078 H   0  0  0  0  0  0  0  0  0  0  0  0
   -2.2131    0.9430    4.4133 H   0  0  0  0  0  0  0  0  0  0  0  0
   -0.5690   -1.3201    3.1638 H   0  0  0  0  0  0  0  0  0  0  0  0
    0.0037   -0.0432    4.2393 H   0  0  0  0  0  0  0  0  0  0  0  0
   -0.6216    1.6824    2.5892 H   0  0  0  0  0  0  0  0  0  0  0  0
    1.6333    0.1583    2.4735 H   0  0  0  0  0  0  0  0  0  0  0  0
    1.3051    1.5876    1.5213 H   0  0  0  0  0  0  0  0  0  0  0  0
    2.1242   -0.0627    0.0633 H   0  0  0  0  0  0  0  0  0  0  0  0
    1.0000   -1.3024    0.6110 H   0  0  0  0  0  0  0  0  0  0  0  0
  1  2  1  0
  2  3  1  0
  3  4  1  0
  4  5  1  0
  5  6  1  0
  5  7  1  0
  7  8  2  0
  8  9  1  0
  9 10  2  0
 10 11  1  0
 11 12  2  3
 12 13  1  0
 13 14  3  0
 12 15  1  0
 15 16  3  0
 11 17  1  0
 17 18  1  0
 18 19  1  0
 19 20  1  0
 20 21  1  0
 21  7  1  0
 19  9  1  0
  1 22  1  0
  1 23  1  0
  1 24  1  0
  2 25  1  0
  2 26  1  0
  3 27  1  0
  3 28  1  0
  4 29  1  0
  4 30  1  0
  6 31  1  0
  6 32  1  0
  6 33  1  0
  8 34  1  0
 10 35  1  0
 17 36  1  0
 17 37  1  0
 18 38  1  0
 18 39  1  0
 19 40  1  0
 20 41  1  0
 20 42  1  0
 21 43  1  0
 21 44  1  0
M  END
$$$$
