
     RDKit          3D

 46 49  0  0  0  0  0  0  0  0999 V2000
   -3.3366   -0.4016   -0.4877 C   0  0  0  0  0  0  0  0  0  0  0  0
   -2.4472   -1.2735   -1.2485 N   0  0  0  0  0  0  0  0  0  0  0  0
   -2.9306   -1.5404   -2.6000 C   0  0  0  0  0  0  0  0  0  0  0  0
   -1.0980   -0.8120   -1.2406 N   0  0  0  0  0  0  0  0  0  0  0  0
   -0.7640    0.3990   -1.8838 C   0  0  0  0  0  0  0  0  0  0  0  0
   -1.6142    1.2317   -2.4137 N   0  0  0  0  0  0  0  0  0  0  0  0
    0.7306    0.7335   -1.9712 C   0  0  0  0  0  0  0  0  0  0  0  0
    1.2719    0.0676   -3.1701 C   0  0  0  0  0  0  0  0  0  0  0  0
    1.7168   -0.4496   -4.1090 N   0  0  0  0  0  0  0  0  0  0  0  0
    1.4985    0.2854   -0.7096 C   0  0  0  0  0  0  0  0  0  0  0  0
    1.4477    1.3444    0.3971 C   0  0  0  0  0  0  0  0  0  0  0  0
    2.6646    1.8734    0.8970 C   0  0  0  0  0  0  0  0  0  0  0  0
    2.6795    2.8414    1.9069 C   0  0  0  0  0  0  0  0  0  0  0  0
    1.4695    3.2626    2.4076 C   0  0  0  0  0  0  0  0  0  0  0  0
    0.2821    2.7528    1.9430 C   0  0  0  0  0  0  0  0  0  0  0  0
    0.2345    1.7971    0.9479 C   0  0  0  0  0  0  0  0  0  0  0  0
   -0.7961    3.2921    2.5730 O   0  0  0  0  0  0  0  0  0  0  0  0
   -0.1482    4.1991    3.4898 C   0  0  0  0  0  0  0  0  0  0  0  0
    1.2905    4.1881    3.3868 O   0  0  0  0  0  0  0  0  0  0  0  0
    1.0497   -1.0702   -0.2094 C   0  0  0  0  0  0  0  0  0  0  0  0
   -0.1734   -1.5677   -0.4936 C   0  0  0  0  0  0  0  0  0  0  0  0
   -0.5940   -2.9486   -0.0143 C   0  0  0  0  0  0  0  0  0  0  0  0
    0.5811   -3.8475    0.3562 C   0  0  0  0  0  0  0  0  0  0  0  0
    1.5526   -3.1233    1.2653 C   0  0  0  0  0  0  0  0  0  0  0  0
    2.0258   -1.8517    0.6074 C   0  0  0  0  0  0  0  0  0  0  0  0
    3.1721   -1.4381    0.7695 O   0  0  0  0  0  0  0  0  0  0  0  0
   -2.9325   -0.2120    0.5133 H   0  0  0  0  0  0  0  0  0  0  0  0
   -4.3039   -0.8961   -0.3436 H   0  0  0  0  0  0  0  0  0  0  0  0
   -3.5298    0.5615   -0.9688 H   0  0  0  0  0  0  0  0  0  0  0  0
   -2.2273   -2.1812   -3.1441 H   0  0  0  0  0  0  0  0  0  0  0  0
   -3.8783   -2.0885   -2.5520 H   0  0  0  0  0  0  0  0  0  0  0  0
   -3.1034   -0.6376   -3.1931 H   0  0  0  0  0  0  0  0  0  0  0  0
   -1.1568    2.0421   -2.8423 H   0  0  0  0  0  0  0  0  0  0  0  0
    0.8438    1.8172   -2.1075 H   0  0  0  0  0  0  0  0  0  0  0  0
    2.5521    0.1931   -1.0139 H   0  0  0  0  0  0  0  0  0  0  0  0
    3.6184    1.5151    0.5090 H   0  0  0  0  0  0  0  0  0  0  0  0
    3.6128    3.2394    2.2895 H   0  0  0  0  0  0  0  0  0  0  0  0
   -0.7314    1.4202    0.6310 H   0  0  0  0  0  0  0  0  0  0  0  0
   -0.4290    3.9233    4.5128 H   0  0  0  0  0  0  0  0  0  0  0  0
   -0.5064    5.2154    3.2887 H   0  0  0  0  0  0  0  0  0  0  0  0
   -1.2564   -2.8343    0.8532 H   0  0  0  0  0  0  0  0  0  0  0  0
   -1.1610   -3.4694   -0.7953 H   0  0  0  0  0  0  0  0  0  0  0  0
    1.0991   -4.1618   -0.5596 H   0  0  0  0  0  0  0  0  0  0  0  0
    0.2142   -4.7573    0.8444 H   0  0  0  0  0  0  0  0  0  0  0  0
    2.4196   -3.7645    1.4572 H   0  0  0  0  0  0  0  0  0  0  0  0
    1.0910   -2.8687    2.2254 H   0  0  0  0  0  0  0  0  0  0  0  0
  1  2  1  0
  2  3  1  0
  2  4  1  0
  4  5  1  0
  5  6  2  3
  5  7  1  0
  7  8  1  0
  8  9  3  0
  7 10  1  0
 10 11  1  0
 11 12  2  0
 12 13  1  0
 13 14  2  0
 14 15  1  0
 15 16  2  0
 15 17  1  0
 17 18  1  0
 18 19  1  0
 10 20  1  0
 20 21  2  0
 21 22  1  0
 22 23  1  0
 23 24  1  0
 24 25  1  0
 25 26  2  0
 21  4  1  0
 16 11  1  0
 25 20  1  0
 19 14  1  0
  1 27  1  0
  1 28  1  0
  1 29  1  0
  3 30  1  0
  3 31  1  0
  3 32  1  0
  6 33  1  0
  7 34  1  0
 10 35  1  0
 12 36  1  0
 13 37  1  0
 16 38  1  0
 18 39  1  0
 18 40  1  0
 22 41  1  0
 22 42  1  0
 23 43  1  0
 23 44  1  0
 24 45  1  0
 24 46  1  0
M  END
$$$$
