
     RDKit          3D

 36 37  0  0  0  0  0  0  0  0999 V2000
    4.0251    2.0623   -0.3353 C   0  0  0  0  0  0  0  0  0  0  0  0
    3.4312    1.6351    0.8851 O   0  0  0  0  0  0  0  0  0  0  0  0
    2.6161    0.5387    0.8198 C   0  0  0  0  0  0  0  0  0  0  0  0
    2.4347   -0.2822   -0.2964 C   0  0  0  0  0  0  0  0  0  0  0  0
    1.5495   -1.3632   -0.2385 C   0  0  0  0  0  0  0  0  0  0  0  0
    0.8382   -1.6110    0.9381 C   0  0  0  0  0  0  0  0  0  0  0  0
   -0.3238   -2.9510    0.9896 S   0  0  0  0  0  6  0  0  0  0  0  0
    0.3189   -4.1025    0.3904 O   0  0  0  0  0  0  0  0  0  0  0  0
   -0.9041   -3.0056    2.3143 O   0  0  0  0  0  0  0  0  0  0  0  0
   -1.5063   -2.4128   -0.1401 N   0  0  0  0  0  0  0  0  0  0  0  0
   -2.7553   -1.8028    0.3953 N   0  0  0  0  0  0  0  0  0  0  0  0
   -2.8720   -0.5141    0.2652 C   0  0  0  0  0  0  0  0  0  0  0  0
   -4.0749    0.1484    0.8932 C   0  0  0  0  0  0  0  0  0  0  0  0
   -1.9271    0.3688   -0.4547 C   0  0  0  0  0  0  0  0  0  0  0  0
   -1.6913    0.1636   -1.8116 C   0  0  0  0  0  0  0  0  0  0  0  0
   -0.8133    1.0224   -2.4448 C   0  0  0  0  0  0  0  0  0  0  0  0
   -0.1797    2.0397   -1.8215 N   0  0  0  0  0  0  0  0  0  0  0  0
   -0.4349    2.2102   -0.5045 C   0  0  0  0  0  0  0  0  0  0  0  0
   -1.3020    1.4130    0.2200 C   0  0  0  0  0  0  0  0  0  0  0  0
    1.0315   -0.8139    2.0675 C   0  0  0  0  0  0  0  0  0  0  0  0
    1.9240    0.2572    2.0025 C   0  0  0  0  0  0  0  0  0  0  0  0
    4.7393    1.3194   -0.7050 H   0  0  0  0  0  0  0  0  0  0  0  0
    3.2641    2.2906   -1.0892 H   0  0  0  0  0  0  0  0  0  0  0  0
    4.5791    2.9838   -0.1321 H   0  0  0  0  0  0  0  0  0  0  0  0
    2.9609   -0.1027   -1.2283 H   0  0  0  0  0  0  0  0  0  0  0  0
    1.4119   -1.9941   -1.1130 H   0  0  0  0  0  0  0  0  0  0  0  0
   -1.6550   -3.1812   -0.8020 H   0  0  0  0  0  0  0  0  0  0  0  0
   -4.9777   -0.4078    0.6233 H   0  0  0  0  0  0  0  0  0  0  0  0
   -3.9626    0.1372    1.9812 H   0  0  0  0  0  0  0  0  0  0  0  0
   -4.1905    1.1815    0.5546 H   0  0  0  0  0  0  0  0  0  0  0  0
   -2.1772   -0.6362   -2.3579 H   0  0  0  0  0  0  0  0  0  0  0  0
   -0.5881    0.9158   -3.5022 H   0  0  0  0  0  0  0  0  0  0  0  0
    0.1012    3.0288   -0.0316 H   0  0  0  0  0  0  0  0  0  0  0  0
   -1.4600    1.5906    1.2772 H   0  0  0  0  0  0  0  0  0  0  0  0
    0.4931   -1.0117    2.9917 H   0  0  0  0  0  0  0  0  0  0  0  0
    2.0768    0.8855    2.8771 H   0  0  0  0  0  0  0  0  0  0  0  0
  1  2  1  0
  2  3  1  0
  3  4  2  0
  4  5  1  0
  5  6  2  0
  6  7  1  0
  7  8  2  0
  7  9  2  0
  7 10  1  0
 10 11  1  0
 11 12  2  3
 12 13  1  0
 12 14  1  0
 14 15  2  0
 15 16  1  0
 16 17  2  0
 17 18  1  0
 18 19  2  0
  6 20  1  0
 20 21  2  0
 21  3  1  0
 19 14  1  0
  1 22  1  0
  1 23  1  0
  1 24  1  0
  4 25  1  0
  5 26  1  0
 10 27  1  0
 13 28  1  0
 13 29  1  0
 13 30  1  0
 15 31  1  0
 16 32  1  0
 18 33  1  0
 19 34  1  0
 20 35  1  0
 21 36  1  0
M  END
$$$$
