
     RDKit          3D

 52 54  0  0  0  0  0  0  0  0999 V2000
    2.6544    0.2880    2.0743 O   0  0  0  0  0  0  0  0  0  0  0  0
    1.8376   -0.1471    1.2760 C   0  0  0  0  0  0  0  0  0  0  0  0
    1.8447   -1.3742    0.6470 N   0  0  0  0  0  0  0  0  0  0  0  0
    2.8221   -2.3833    0.7427 C   0  0  0  0  0  0  0  0  0  0  0  0
    3.8562   -2.3692    1.6781 C   0  0  0  0  0  0  0  0  0  0  0  0
    4.8189   -3.3841    1.6849 C   0  0  0  0  0  0  0  0  0  0  0  0
    4.7544   -4.4262    0.7573 C   0  0  0  0  0  0  0  0  0  0  0  0
    3.7149   -4.4643   -0.1665 C   0  0  0  0  0  0  0  0  0  0  0  0
    2.7498   -3.4496   -0.1675 C   0  0  0  0  0  0  0  0  0  0  0  0
    0.6839    0.6974    0.7964 C   0  0  0  0  0  0  0  0  0  0  0  0
    0.7762    2.0327    0.9098 C   0  0  0  0  0  0  0  0  0  0  0  0
   -0.2694    2.9651    0.3554 C   0  0  0  0  0  0  0  0  0  0  0  0
    0.3411    4.0880   -0.4704 C   0  0  0  0  0  0  0  0  0  0  0  0
    0.1008    5.4276   -0.1304 C   0  0  0  0  0  0  0  0  0  0  0  0
    0.6595    6.4683   -0.8810 C   0  0  0  0  0  0  0  0  0  0  0  0
    1.4635    6.1838   -1.9787 C   0  0  0  0  0  0  0  0  0  0  0  0
    1.7198    4.8552   -2.3304 C   0  0  0  0  0  0  0  0  0  0  0  0
    1.1633    3.8133   -1.5819 C   0  0  0  0  0  0  0  0  0  0  0  0
   -1.3324    2.1948   -0.4406 C   0  0  0  0  0  0  0  0  0  0  0  0
   -1.5934    0.8543    0.2360 C   0  0  0  0  0  0  0  0  0  0  0  0
   -2.6442    0.2121   -0.4918 O   0  0  0  0  0  0  0  0  0  0  0  0
   -3.3532   -0.7718    0.2570 C   0  0  0  0  0  0  0  0  0  0  0  0
   -2.6715   -2.1388    0.2024 C   0  0  0  0  0  0  0  0  0  0  0  0
   -3.3311   -3.1952    1.0927 C   0  0  0  0  0  0  0  0  0  0  0  0
   -4.8375   -3.3515    0.9108 C   0  0  0  0  0  0  0  0  0  0  0  0
   -5.1550   -3.5701   -0.4577 O   0  0  0  0  0  0  0  0  0  0  0  0
   -0.4003    0.0594    0.2184 O   0  0  0  0  0  0  0  0  0  0  0  0
    1.1235   -1.4992   -0.0574 H   0  0  0  0  0  0  0  0  0  0  0  0
    3.9400   -1.5791    2.4201 H   0  0  0  0  0  0  0  0  0  0  0  0
    5.6245   -3.3494    2.4144 H   0  0  0  0  0  0  0  0  0  0  0  0
    5.5115   -5.2058    0.7558 H   0  0  0  0  0  0  0  0  0  0  0  0
    3.6592   -5.2785   -0.8928 H   0  0  0  0  0  0  0  0  0  0  0  0
    1.9535   -3.4955   -0.9017 H   0  0  0  0  0  0  0  0  0  0  0  0
    1.6485    2.4840    1.3854 H   0  0  0  0  0  0  0  0  0  0  0  0
   -0.7671    3.4105    1.2328 H   0  0  0  0  0  0  0  0  0  0  0  0
   -0.5198    5.6784    0.7241 H   0  0  0  0  0  0  0  0  0  0  0  0
    0.4660    7.5066   -0.6075 H   0  0  0  0  0  0  0  0  0  0  0  0
    1.8968    6.9938   -2.5621 H   0  0  0  0  0  0  0  0  0  0  0  0
    2.3590    4.6313   -3.1843 H   0  0  0  0  0  0  0  0  0  0  0  0
    1.3786    2.7821   -1.8742 H   0  0  0  0  0  0  0  0  0  0  0  0
   -2.2571    2.7817   -0.5149 H   0  0  0  0  0  0  0  0  0  0  0  0
   -1.0094    2.0117   -1.4747 H   0  0  0  0  0  0  0  0  0  0  0  0
   -1.9149    1.0218    1.2735 H   0  0  0  0  0  0  0  0  0  0  0  0
   -3.5113   -0.4327    1.2883 H   0  0  0  0  0  0  0  0  0  0  0  0
   -4.3438   -0.8469   -0.2110 H   0  0  0  0  0  0  0  0  0  0  0  0
   -1.6232   -2.0548    0.5004 H   0  0  0  0  0  0  0  0  0  0  0  0
   -2.6479   -2.4854   -0.8375 H   0  0  0  0  0  0  0  0  0  0  0  0
   -2.8522   -4.1515    0.8731 H   0  0  0  0  0  0  0  0  0  0  0  0
   -3.1297   -2.9620    2.1431 H   0  0  0  0  0  0  0  0  0  0  0  0
   -5.3753   -2.4565    1.2501 H   0  0  0  0  0  0  0  0  0  0  0  0
   -5.2108   -4.1933    1.5064 H   0  0  0  0  0  0  0  0  0  0  0  0
   -4.7720   -4.4259   -0.7198 H   0  0  0  0  0  0  0  0  0  0  0  0
  1  2  2  0
  2  3  1  0
  3  4  1  0
  4  5  2  0
  5  6  1  0
  6  7  2  0
  7  8  1  0
  8  9  2  0
  2 10  1  0
 10 11  2  0
 11 12  1  0
 12 13  1  0
 13 14  2  0
 14 15  1  0
 15 16  2  0
 16 17  1  0
 17 18  2  0
 12 19  1  0
 19 20  1  0
 20 21  1  0
 21 22  1  0
 22 23  1  0
 23 24  1  0
 24 25  1  0
 25 26  1  0
 20 27  1  0
  9  4  1  0
 27 10  1  0
 18 13  1  0
  3 28  1  0
  5 29  1  0
  6 30  1  0
  7 31  1  0
  8 32  1  0
  9 33  1  0
 11 34  1  0
 12 35  1  0
 14 36  1  0
 15 37  1  0
 16 38  1  0
 17 39  1  0
 18 40  1  0
 19 41  1  0
 19 42  1  0
 20 43  1  0
 22 44  1  0
 22 45  1  0
 23 46  1  0
 23 47  1  0
 24 48  1  0
 24 49  1  0
 25 50  1  0
 25 51  1  0
 26 52  1  0
M  END
$$$$
