
     RDKit          3D

 35 36  0  0  0  0  0  0  0  0999 V2000
   -5.8693    0.3511   -0.0619 C   0  0  0  0  0  0  0  0  0  0  0  0
   -4.3883    0.1257    0.0074 C   0  0  0  0  0  0  0  0  0  0  0  0
   -3.8639   -0.9042    0.7930 C   0  0  0  0  0  0  0  0  0  0  0  0
   -2.4814   -1.0925    0.8840 C   0  0  0  0  0  0  0  0  0  0  0  0
   -1.5964   -0.2560    0.1844 C   0  0  0  0  0  0  0  0  0  0  0  0
   -0.1894   -0.4759    0.3087 N   0  0  0  0  0  0  0  0  0  0  0  0
    0.2636   -1.2482    1.3328 N   0  0  0  0  0  0  0  0  0  0  0  0
    1.5834   -1.0711    1.3428 C   0  0  0  0  0  0  0  0  0  0  0  0
    2.4003   -1.6930    2.4149 C   0  0  0  0  0  0  0  0  0  0  0  0
    2.0196   -0.2750    0.2543 C   0  0  0  0  0  0  0  0  0  0  0  0
    3.3422    0.0559    0.0010 N   0  0  0  0  0  0  0  0  0  0  0  0
    3.8141    1.0692   -0.8111 C   0  0  0  0  0  0  0  0  0  0  0  0
    3.1301    1.8712   -1.4428 O   0  0  0  0  0  0  0  0  0  0  0  0
    5.3297    1.1139   -0.9319 C   0  0  0  0  0  0  0  0  0  0  0  0
    6.1359    0.5361    0.5470 Cl  0  0  0  0  0  0  0  0  0  0  0  0
    0.8717   -0.0260   -0.4780 C   0  0  0  0  0  0  0  0  0  0  0  0
    0.7071    0.4898   -1.8640 C   0  0  0  0  0  0  0  0  0  0  0  0
   -2.1221    0.7990   -0.5690 C   0  0  0  0  0  0  0  0  0  0  0  0
   -3.5072    0.9855   -0.6564 C   0  0  0  0  0  0  0  0  0  0  0  0
   -6.4134   -0.5939    0.0394 H   0  0  0  0  0  0  0  0  0  0  0  0
   -6.1531    0.7870   -1.0256 H   0  0  0  0  0  0  0  0  0  0  0  0
   -6.1829    1.0278    0.7389 H   0  0  0  0  0  0  0  0  0  0  0  0
   -4.5256   -1.5693    1.3435 H   0  0  0  0  0  0  0  0  0  0  0  0
   -2.1080   -1.9081    1.5012 H   0  0  0  0  0  0  0  0  0  0  0  0
    1.7773   -2.2250    3.1416 H   0  0  0  0  0  0  0  0  0  0  0  0
    2.9678   -0.9278    2.9542 H   0  0  0  0  0  0  0  0  0  0  0  0
    3.1074   -2.4105    1.9865 H   0  0  0  0  0  0  0  0  0  0  0  0
    4.0272   -0.3535    0.6295 H   0  0  0  0  0  0  0  0  0  0  0  0
    5.6498    2.1456   -1.0997 H   0  0  0  0  0  0  0  0  0  0  0  0
    5.6438    0.4856   -1.7694 H   0  0  0  0  0  0  0  0  0  0  0  0
    1.5655    0.2114   -2.4844 H   0  0  0  0  0  0  0  0  0  0  0  0
   -0.1630    0.0490   -2.3606 H   0  0  0  0  0  0  0  0  0  0  0  0
    0.6094    1.5789   -1.8726 H   0  0  0  0  0  0  0  0  0  0  0  0
   -1.4892    1.5276   -1.0624 H   0  0  0  0  0  0  0  0  0  0  0  0
   -3.8929    1.8194   -1.2394 H   0  0  0  0  0  0  0  0  0  0  0  0
  1  2  1  0
  2  3  2  0
  3  4  1  0
  4  5  2  0
  5  6  1  0
  6  7  1  0
  7  8  2  0
  8  9  1  0
  8 10  1  0
 10 11  1  0
 11 12  1  0
 12 13  2  0
 12 14  1  0
 14 15  1  0
 10 16  2  0
 16 17  1  0
  5 18  1  0
 18 19  2  0
 19  2  1  0
 16  6  1  0
  1 20  1  0
  1 21  1  0
  1 22  1  0
  3 23  1  0
  4 24  1  0
  9 25  1  0
  9 26  1  0
  9 27  1  0
 11 28  1  0
 14 29  1  0
 14 30  1  0
 17 31  1  0
 17 32  1  0
 17 33  1  0
 18 34  1  0
 19 35  1  0
M  END
$$$$
