
     RDKit          3D

 55 58  0  0  0  0  0  0  0  0999 V2000
   -4.1082   -4.3220    2.2626 C   0  0  0  0  0  0  0  0  0  0  0  0
   -4.3987   -3.3665    1.1944 N   0  0  0  0  0  0  0  0  0  0  0  0
   -5.2433   -3.8745    0.1129 C   0  0  0  0  0  0  0  0  0  0  0  0
   -3.4592   -2.3709    0.8975 C   0  0  0  0  0  0  0  0  0  0  0  0
   -3.5769   -1.5515   -0.2392 C   0  0  0  0  0  0  0  0  0  0  0  0
   -2.6550   -0.5352   -0.5329 C   0  0  0  0  0  0  0  0  0  0  0  0
   -1.5757   -0.2861    0.3147 C   0  0  0  0  0  0  0  0  0  0  0  0
   -0.6460    0.7446    0.0646 N   0  0  0  0  0  0  0  0  0  0  0  0
    0.1098    0.7161   -1.1112 C   0  0  0  0  0  0  0  0  0  0  0  0
    0.4375   -0.3558   -1.7551 N   0  0  0  0  0  0  0  0  0  0  0  0
    1.1912   -0.2772   -2.8936 C   0  0  0  0  0  0  0  0  0  0  0  0
    0.8826    0.3551   -3.9001 O   0  0  0  0  0  0  0  0  0  0  0  0
    2.4329   -1.1428   -2.8538 C   0  0  0  0  0  0  0  0  0  0  0  0
    3.7037   -0.3136   -3.0055 C   0  0  0  0  0  0  0  0  0  0  0  0
    4.0400    0.5539   -1.8135 C   0  0  0  0  0  0  0  0  0  0  0  0
    4.2371    1.9318   -1.9811 C   0  0  0  0  0  0  0  0  0  0  0  0
    4.5852    2.7398   -0.8961 C   0  0  0  0  0  0  0  0  0  0  0  0
    4.7465    2.1789    0.3685 C   0  0  0  0  0  0  0  0  0  0  0  0
    4.5583    0.8103    0.5489 C   0  0  0  0  0  0  0  0  0  0  0  0
    4.2108    0.0012   -0.5359 C   0  0  0  0  0  0  0  0  0  0  0  0
    0.5942    2.3676   -1.5552 S   0  0  0  0  0  0  0  0  0  0  0  0
    0.0021    3.0492    0.0132 C   0  0  0  0  0  0  0  0  0  0  0  0
    1.0810    2.9692    1.0828 C   0  0  0  0  0  0  0  0  0  0  0  0
    0.1697    2.8464    2.6009 S   0  0  0  0  0  6  0  0  0  0  0  0
    0.7188    1.7691    3.3961 O   0  0  0  0  0  0  0  0  0  0  0  0
   -0.0047    4.1838    3.1295 O   0  0  0  0  0  0  0  0  0  0  0  0
   -1.3803    2.3247    1.9061 C   0  0  0  0  0  0  0  0  0  0  0  0
   -1.1273    2.0953    0.4227 C   0  0  0  0  0  0  0  0  0  0  0  0
   -1.4354   -1.0843    1.4492 C   0  0  0  0  0  0  0  0  0  0  0  0
   -2.3644   -2.0963    1.7354 C   0  0  0  0  0  0  0  0  0  0  0  0
   -4.9396   -5.0221    2.4034 H   0  0  0  0  0  0  0  0  0  0  0  0
   -3.2132   -4.9108    2.0325 H   0  0  0  0  0  0  0  0  0  0  0  0
   -3.9791   -3.8145    3.2248 H   0  0  0  0  0  0  0  0  0  0  0  0
   -5.9121   -3.0948   -0.2672 H   0  0  0  0  0  0  0  0  0  0  0  0
   -4.6360   -4.2728   -0.7077 H   0  0  0  0  0  0  0  0  0  0  0  0
   -5.8950   -4.6834    0.4632 H   0  0  0  0  0  0  0  0  0  0  0  0
   -4.3990   -1.6794   -0.9367 H   0  0  0  0  0  0  0  0  0  0  0  0
   -2.7934    0.0519   -1.4377 H   0  0  0  0  0  0  0  0  0  0  0  0
    2.3527   -1.8508   -3.6877 H   0  0  0  0  0  0  0  0  0  0  0  0
    2.4449   -1.7424   -1.9370 H   0  0  0  0  0  0  0  0  0  0  0  0
    4.5530   -0.9881   -3.1722 H   0  0  0  0  0  0  0  0  0  0  0  0
    3.6279    0.3077   -3.9071 H   0  0  0  0  0  0  0  0  0  0  0  0
    4.1232    2.3880   -2.9627 H   0  0  0  0  0  0  0  0  0  0  0  0
    4.7394    3.8055   -1.0433 H   0  0  0  0  0  0  0  0  0  0  0  0
    5.0284    2.8049    1.2116 H   0  0  0  0  0  0  0  0  0  0  0  0
    4.6920    0.3688    1.5339 H   0  0  0  0  0  0  0  0  0  0  0  0
    4.0895   -1.0677   -0.3735 H   0  0  0  0  0  0  0  0  0  0  0  0
   -0.3645    4.0746   -0.1053 H   0  0  0  0  0  0  0  0  0  0  0  0
    1.7035    2.0717    1.0141 H   0  0  0  0  0  0  0  0  0  0  0  0
    1.7169    3.8574    1.1070 H   0  0  0  0  0  0  0  0  0  0  0  0
   -2.0795    3.1573    2.0410 H   0  0  0  0  0  0  0  0  0  0  0  0
   -1.7527    1.4609    2.4567 H   0  0  0  0  0  0  0  0  0  0  0  0
   -2.0414    2.3165   -0.1459 H   0  0  0  0  0  0  0  0  0  0  0  0
   -0.5985   -0.9289    2.1274 H   0  0  0  0  0  0  0  0  0  0  0  0
   -2.1937   -2.6697    2.6416 H   0  0  0  0  0  0  0  0  0  0  0  0
  1  2  1  0
  2  3  1  0
  2  4  1  0
  4  5  2  0
  5  6  1  0
  6  7  2  0
  7  8  1  0
  8  9  1  0
  9 10  2  3
 10 11  1  0
 11 12  2  0
 11 13  1  0
 13 14  1  0
 14 15  1  0
 15 16  2  0
 16 17  1  0
 17 18  2  0
 18 19  1  0
 19 20  2  0
  9 21  1  0
 21 22  1  0
 22 23  1  0
 23 24  1  0
 24 25  2  0
 24 26  2  0
 24 27  1  0
 27 28  1  0
  7 29  1  0
 29 30  2  0
 30  4  1  0
 28  8  1  0
 20 15  1  0
 28 22  1  0
  1 31  1  0
  1 32  1  0
  1 33  1  0
  3 34  1  0
  3 35  1  0
  3 36  1  0
  5 37  1  0
  6 38  1  0
 13 39  1  0
 13 40  1  0
 14 41  1  0
 14 42  1  0
 16 43  1  0
 17 44  1  0
 18 45  1  0
 19 46  1  0
 20 47  1  0
 22 48  1  0
 23 49  1  0
 23 50  1  0
 27 51  1  0
 27 52  1  0
 28 53  1  0
 29 54  1  0
 30 55  1  0
M  END
$$$$
