
     RDKit          3D

 52 57  0  0  0  0  0  0  0  0999 V2000
    0.1343    3.2497   -1.8287 C   0  0  0  0  0  0  0  0  0  0  0  0
    0.7257    1.9973   -1.2982 C   0  0  0  0  0  0  0  0  0  0  0  0
    2.0539    1.8562   -1.2568 N   0  0  0  0  0  0  0  0  0  0  0  0
    2.2794    0.6145   -0.7232 N   0  0  0  0  0  0  0  0  0  0  0  0
    3.6232    0.1627   -0.5324 C   0  0  0  0  0  0  0  0  0  0  0  0
    3.9160   -1.0934    0.0181 C   0  0  0  0  0  0  0  0  0  0  0  0
    5.2450   -1.5018    0.1909 C   0  0  0  0  0  0  0  0  0  0  0  0
    6.2896   -0.6508   -0.1874 C   0  0  0  0  0  0  0  0  0  0  0  0
    7.6820   -1.0788   -0.0063 N   0  0  0  0  0  4  0  0  0  0  0  0
    8.5767   -0.2958   -0.3573 O   0  0  0  0  0  0  0  0  0  0  0  0
    7.8835   -2.1979    0.4868 O   0  0  0  0  0  1  0  0  0  0  0  0
    6.0150    0.6057   -0.7366 C   0  0  0  0  0  0  0  0  0  0  0  0
    4.6859    1.0075   -0.9065 C   0  0  0  0  0  0  0  0  0  0  0  0
    1.0726   -0.0250   -0.4538 C   0  0  0  0  0  0  0  0  0  0  0  0
    0.0749    0.8593   -0.7927 C   0  0  0  0  0  0  0  0  0  0  0  0
   -1.3475    0.4589   -0.6173 C   0  0  0  0  0  0  0  0  0  0  0  0
   -1.8773    1.3964    0.4687 C   0  0  0  0  0  0  0  0  0  0  0  0
   -1.5200    1.2459    1.8226 C   0  0  0  0  0  0  0  0  0  0  0  0
   -2.0145    2.1163    2.7966 C   0  0  0  0  0  0  0  0  0  0  0  0
   -2.8737    3.1525    2.4374 C   0  0  0  0  0  0  0  0  0  0  0  0
   -3.2339    3.3150    1.1029 C   0  0  0  0  0  0  0  0  0  0  0  0
   -4.3967    4.7210    0.6085 Br  0  0  0  0  0  0  0  0  0  0  0  0
   -2.7441    2.4502    0.1230 C   0  0  0  0  0  0  0  0  0  0  0  0
   -1.5021   -0.9628   -0.2384 N   0  0  0  0  0  0  0  0  0  0  0  0
   -0.3464   -1.6860    0.1147 C   0  0  0  0  0  0  0  0  0  0  0  0
    0.8959   -1.2765    0.0385 N   0  0  0  0  0  0  0  0  0  0  0  0
   -0.5072   -3.1268    0.6572 C   0  0  0  0  0  0  0  0  0  0  0  0
    0.4444   -3.7768    1.0673 O   0  0  0  0  0  0  0  0  0  0  0  0
   -1.7805   -3.6296    0.6484 N   0  0  0  0  0  0  0  0  0  0  0  0
   -2.8976   -2.9160    0.2063 C   0  0  0  0  0  0  0  0  0  0  0  0
   -4.1345   -3.5716    0.2308 C   0  0  0  0  0  0  0  0  0  0  0  0
   -5.2794   -2.9119   -0.2009 C   0  0  0  0  0  0  0  0  0  0  0  0
   -5.1840   -1.6033   -0.6567 C   0  0  0  0  0  0  0  0  0  0  0  0
   -3.9448   -0.9506   -0.6780 C   0  0  0  0  0  0  0  0  0  0  0  0
   -2.7683   -1.5830   -0.2411 C   0  0  0  0  0  0  0  0  0  0  0  0
    0.8286    3.7641   -2.5014 H   0  0  0  0  0  0  0  0  0  0  0  0
   -0.1124    3.9303   -1.0078 H   0  0  0  0  0  0  0  0  0  0  0  0
   -0.7796    3.0400   -2.3933 H   0  0  0  0  0  0  0  0  0  0  0  0
    3.1391   -1.7866    0.3286 H   0  0  0  0  0  0  0  0  0  0  0  0
    5.4403   -2.4827    0.6207 H   0  0  0  0  0  0  0  0  0  0  0  0
    6.8133    1.2816   -1.0361 H   0  0  0  0  0  0  0  0  0  0  0  0
    4.4932    1.9903   -1.3357 H   0  0  0  0  0  0  0  0  0  0  0  0
   -1.8560    0.6391   -1.5734 H   0  0  0  0  0  0  0  0  0  0  0  0
   -0.8440    0.4493    2.1304 H   0  0  0  0  0  0  0  0  0  0  0  0
   -1.7250    1.9857    3.8369 H   0  0  0  0  0  0  0  0  0  0  0  0
   -3.2520    3.8255    3.2024 H   0  0  0  0  0  0  0  0  0  0  0  0
   -3.0378    2.5991   -0.9138 H   0  0  0  0  0  0  0  0  0  0  0  0
   -1.8747   -4.5773    0.9868 H   0  0  0  0  0  0  0  0  0  0  0  0
   -4.2162   -4.5966    0.5830 H   0  0  0  0  0  0  0  0  0  0  0  0
   -6.2420   -3.4169   -0.1837 H   0  0  0  0  0  0  0  0  0  0  0  0
   -6.0760   -1.0824   -0.9981 H   0  0  0  0  0  0  0  0  0  0  0  0
   -3.9443    0.0673   -1.0520 H   0  0  0  0  0  0  0  0  0  0  0  0
  1  2  1  0
  2  3  2  0
  3  4  1  0
  4  5  1  0
  5  6  2  0
  6  7  1  0
  7  8  2  0
  8  9  1  0
  9 10  2  0
  9 11  1  0
  8 12  1  0
 12 13  2  0
  4 14  1  0
 14 15  2  0
 15 16  1  0
 16 17  1  0
 17 18  2  0
 18 19  1  0
 19 20  2  0
 20 21  1  0
 21 22  1  0
 21 23  2  0
 16 24  1  0
 24 25  1  0
 25 26  2  0
 25 27  1  0
 27 28  2  0
 27 29  1  0
 29 30  1  0
 30 31  2  0
 31 32  1  0
 32 33  2  0
 33 34  1  0
 34 35  2  0
 15  2  1  0
 23 17  1  0
 35 24  1  0
 13  5  1  0
 26 14  1  0
 35 30  1  0
  1 36  1  0
  1 37  1  0
  1 38  1  0
  6 39  1  0
  7 40  1  0
 12 41  1  0
 13 42  1  0
 16 43  1  0
 18 44  1  0
 19 45  1  0
 20 46  1  0
 23 47  1  0
 29 48  1  0
 31 49  1  0
 32 50  1  0
 33 51  1  0
 34 52  1  0
M  CHG  2   9   1  11  -1
M  END
$$$$
