
     RDKit          3D

 32 35  0  0  0  0  0  0  0  0999 V2000
   -2.5133    2.5516   -0.3757 C   0  0  0  0  0  0  0  0  0  0  0  0
   -3.6626    2.1879    0.3941 O   0  0  0  0  0  0  0  0  0  0  0  0
   -3.9703    0.8291    0.3331 C   0  0  0  0  0  0  0  0  0  0  0  0
   -5.3337    0.5335    0.4604 C   0  0  0  0  0  0  0  0  0  0  0  0
   -5.7923   -0.7749    0.3979 C   0  0  0  0  0  0  0  0  0  0  0  0
   -4.8976   -1.8305    0.2356 C   0  0  0  0  0  0  0  0  0  0  0  0
   -3.5257   -1.5366    0.1601 C   0  0  0  0  0  0  0  0  0  0  0  0
   -2.2048   -2.6264    0.0043 S   0  0  0  0  0  0  0  0  0  0  0  0
   -1.0927   -1.3128    0.0411 C   0  0  0  0  0  0  0  0  0  0  0  0
    0.2307   -1.5663   -0.0063 N   0  0  0  0  0  0  0  0  0  0  0  0
    1.2241   -0.6623   -0.0102 C   0  0  0  0  0  0  0  0  0  0  0  0
    1.2414    0.6529    0.0028 N   0  0  0  0  0  0  0  0  0  0  0  0
    2.5670    1.0342    0.0039 N   0  0  0  0  0  0  0  0  0  0  0  0
    3.2829   -0.0741   -0.0156 C   0  0  0  0  0  0  0  0  0  0  0  0
    4.7199   -0.1052   -0.0199 C   0  0  0  0  0  0  0  0  0  0  0  0
    5.5726    0.9825    0.0449 C   0  0  0  0  0  0  0  0  0  0  0  0
    6.9479    0.6024    0.0435 C   0  0  0  0  0  0  0  0  0  0  0  0
    7.1031   -0.7628   -0.0496 C   0  0  0  0  0  0  0  0  0  0  0  0
    5.5952   -1.5704   -0.1124 S   0  0  0  0  0  0  0  0  0  0  0  0
    2.4844   -1.1979   -0.0345 O   0  0  0  0  0  0  0  0  0  0  0  0
   -1.6531   -0.1382    0.1256 N   0  0  0  0  0  0  0  0  0  0  0  0
   -3.0372   -0.2302    0.2064 C   0  0  0  0  0  0  0  0  0  0  0  0
   -2.5369    2.0848   -1.3640 H   0  0  0  0  0  0  0  0  0  0  0  0
   -2.5465    3.6387   -0.5310 H   0  0  0  0  0  0  0  0  0  0  0  0
   -1.5925    2.3395    0.1639 H   0  0  0  0  0  0  0  0  0  0  0  0
   -6.0376    1.3429    0.6009 H   0  0  0  0  0  0  0  0  0  0  0  0
   -6.8574   -0.9809    0.4762 H   0  0  0  0  0  0  0  0  0  0  0  0
   -5.2543   -2.8539    0.1783 H   0  0  0  0  0  0  0  0  0  0  0  0
    0.5099   -2.5384   -0.0199 H   0  0  0  0  0  0  0  0  0  0  0  0
    5.2216    2.0093    0.1044 H   0  0  0  0  0  0  0  0  0  0  0  0
    7.7784    1.2959    0.0956 H   0  0  0  0  0  0  0  0  0  0  0  0
    8.0294   -1.3235   -0.0751 H   0  0  0  0  0  0  0  0  0  0  0  0
  1  2  1  0
  2  3  1  0
  3  4  2  0
  4  5  1  0
  5  6  2  0
  6  7  1  0
  7  8  1  0
  8  9  1  0
  9 10  1  0
 10 11  1  0
 11 12  2  0
 12 13  1  0
 13 14  2  0
 14 15  1  0
 15 16  2  0
 16 17  1  0
 17 18  2  0
 18 19  1  0
 14 20  1  0
  9 21  2  0
 21 22  1  0
 22  3  1  0
 22  7  2  0
 20 11  1  0
 19 15  1  0
  1 23  1  0
  1 24  1  0
  1 25  1  0
  4 26  1  0
  5 27  1  0
  6 28  1  0
 10 29  1  0
 16 30  1  0
 17 31  1  0
 18 32  1  0
M  END
$$$$
