
     RDKit          3D

 35 37  0  0  0  0  0  0  0  0999 V2000
   -1.2830   -1.5859   -1.3598 C   0  0  0  0  0  0  0  0  0  0  0  0
   -1.1928   -1.1319    0.0922 C   0  0  0  0  0  0  0  0  0  0  0  0
   -1.3904    0.3126    0.2089 N   0  0  0  0  0  0  0  0  0  0  0  0
   -0.4260    1.3023    0.5164 C   0  0  0  0  0  0  0  0  0  0  0  0
    0.9312    1.2938    0.4571 C   0  0  0  0  0  0  0  0  0  0  0  0
    1.9730    2.5995    1.0178 S   0  0  0  0  0  0  0  0  0  0  0  0
    3.4600    1.7084    0.7828 C   0  0  0  0  0  0  0  0  0  0  0  0
    4.9696    2.3163    1.1440 S   0  0  0  0  0  0  0  0  0  0  0  0
    3.1431    0.4912    0.2338 N   0  0  0  0  0  0  0  0  0  0  0  0
    4.1268   -0.4576   -0.1152 N   0  0  0  0  0  0  0  0  0  0  0  0
    4.3508   -1.4593    0.8116 C   0  0  0  0  0  0  0  0  0  0  0  0
    5.1861   -2.5949    0.2872 C   0  0  0  0  0  0  0  0  0  0  0  0
    3.9057   -1.4444    1.9558 O   0  0  0  0  0  0  0  0  0  0  0  0
    1.8224    0.2190   -0.0834 C   0  0  0  0  0  0  0  0  0  0  0  0
    1.4895   -0.7222   -0.7912 O   0  0  0  0  0  0  0  0  0  0  0  0
   -1.2255    2.8525    1.0637 S   0  0  0  0  0  0  0  0  0  0  0  0
   -2.8180    2.1141    0.8098 C   0  0  0  0  0  0  0  0  0  0  0  0
   -4.0383    2.7440    1.0244 C   0  0  0  0  0  0  0  0  0  0  0  0
   -5.2093    2.0246    0.8015 C   0  0  0  0  0  0  0  0  0  0  0  0
   -5.1419    0.6959    0.3731 C   0  0  0  0  0  0  0  0  0  0  0  0
   -3.9037    0.0738    0.1624 C   0  0  0  0  0  0  0  0  0  0  0  0
   -2.7208    0.7795    0.3789 C   0  0  0  0  0  0  0  0  0  0  0  0
   -0.9998   -2.6398   -1.4432 H   0  0  0  0  0  0  0  0  0  0  0  0
   -0.6320   -0.9994   -2.0145 H   0  0  0  0  0  0  0  0  0  0  0  0
   -2.2994   -1.4842   -1.7514 H   0  0  0  0  0  0  0  0  0  0  0  0
   -1.9295   -1.6823    0.6919 H   0  0  0  0  0  0  0  0  0  0  0  0
   -0.2405   -1.4333    0.5362 H   0  0  0  0  0  0  0  0  0  0  0  0
    4.1294   -0.7118   -1.0987 H   0  0  0  0  0  0  0  0  0  0  0  0
    5.9635   -2.8343    1.0179 H   0  0  0  0  0  0  0  0  0  0  0  0
    4.5459   -3.4665    0.1285 H   0  0  0  0  0  0  0  0  0  0  0  0
    5.6723   -2.3330   -0.6568 H   0  0  0  0  0  0  0  0  0  0  0  0
   -4.0803    3.7748    1.3618 H   0  0  0  0  0  0  0  0  0  0  0  0
   -6.1758    2.4957    0.9621 H   0  0  0  0  0  0  0  0  0  0  0  0
   -6.0602    0.1391    0.1999 H   0  0  0  0  0  0  0  0  0  0  0  0
   -3.9019   -0.9564   -0.1751 H   0  0  0  0  0  0  0  0  0  0  0  0
  1  2  1  0
  2  3  1  0
  3  4  1  0
  4  5  2  3
  5  6  1  0
  6  7  1  0
  7  8  2  0
  7  9  1  0
  9 10  1  0
 10 11  1  0
 11 12  1  0
 11 13  2  0
  9 14  1  0
 14 15  2  0
  4 16  1  0
 16 17  1  0
 17 18  2  0
 18 19  1  0
 19 20  2  0
 20 21  1  0
 21 22  2  0
 22  3  1  0
 14  5  1  0
 22 17  1  0
  1 23  1  0
  1 24  1  0
  1 25  1  0
  2 26  1  0
  2 27  1  0
 10 28  1  0
 12 29  1  0
 12 30  1  0
 12 31  1  0
 18 32  1  0
 19 33  1  0
 20 34  1  0
 21 35  1  0
M  END
$$$$
