
     RDKit          3D

 45 47  0  0  0  0  0  0  0  0999 V2000
    0.5282   -1.1718   -3.5658 C   0  0  0  0  0  0  0  0  0  0  0  0
    0.6289   -0.9772   -2.0976 C   0  0  0  0  0  0  0  0  0  0  0  0
    1.7674   -0.9035   -1.4350 N   0  0  0  0  0  0  0  0  0  0  0  0
    1.3948   -0.4469   -0.1860 C   0  0  0  0  0  0  0  0  0  0  0  0
    2.3848   -0.2012    0.8874 C   0  0  0  0  0  0  0  0  0  0  0  0
    2.0735    0.2205    1.9956 O   0  0  0  0  0  0  0  0  0  0  0  0
    3.6685   -0.5042    0.4665 N   0  0  0  0  0  0  0  0  0  0  0  0
    4.8800   -0.4215    1.1847 C   0  0  0  0  0  0  0  0  0  0  0  0
    4.9516   -0.0080    2.5187 C   0  0  0  0  0  0  0  0  0  0  0  0
    6.1843    0.0496    3.1802 C   0  0  0  0  0  0  0  0  0  0  0  0
    7.3532   -0.3052    2.5120 C   0  0  0  0  0  0  0  0  0  0  0  0
    8.8621   -0.2359    3.3337 Cl  0  0  0  0  0  0  0  0  0  0  0  0
    7.3071   -0.7192    1.1851 C   0  0  0  0  0  0  0  0  0  0  0  0
    6.0757   -0.7752    0.5276 C   0  0  0  0  0  0  0  0  0  0  0  0
    6.0633   -1.2933   -1.1256 Cl  0  0  0  0  0  0  0  0  0  0  0  0
    0.0791   -0.2252   -0.0666 N   0  0  0  0  0  0  0  0  0  0  0  0
   -0.4210   -0.6856   -1.2390 N   0  0  0  0  0  0  0  0  0  0  0  0
   -1.8256   -0.7130   -1.4259 C   0  0  0  0  0  0  0  0  0  0  0  0
   -2.5695    0.3333   -0.8438 C   0  0  0  0  0  0  0  0  0  0  0  0
   -3.9579    0.3871   -0.9903 C   0  0  0  0  0  0  0  0  0  0  0  0
   -4.6762    1.4368   -0.4849 O   0  0  0  0  0  0  0  0  0  0  0  0
   -4.5554    1.5996    0.9389 C   0  0  0  0  0  0  0  0  0  0  0  0
   -5.9419    1.4070    1.5460 C   0  0  0  0  0  0  0  0  0  0  0  0
   -4.0373    3.0050    1.2143 C   0  0  0  0  0  0  0  0  0  0  0  0
   -4.6109   -0.5940   -1.7392 C   0  0  0  0  0  0  0  0  0  0  0  0
   -6.3190   -0.5559   -1.9794 Cl  0  0  0  0  0  0  0  0  0  0  0  0
   -3.8867   -1.6564   -2.2832 C   0  0  0  0  0  0  0  0  0  0  0  0
   -2.4980   -1.7316   -2.1135 C   0  0  0  0  0  0  0  0  0  0  0  0
   -1.7532   -3.2031   -2.6300 Cl  0  0  0  0  0  0  0  0  0  0  0  0
    0.6807   -2.2226   -3.8289 H   0  0  0  0  0  0  0  0  0  0  0  0
    1.3152   -0.5940   -4.0648 H   0  0  0  0  0  0  0  0  0  0  0  0
   -0.4256   -0.8267   -3.9731 H   0  0  0  0  0  0  0  0  0  0  0  0
    3.7337   -0.8296   -0.4986 H   0  0  0  0  0  0  0  0  0  0  0  0
    4.0662    0.2765    3.0804 H   0  0  0  0  0  0  0  0  0  0  0  0
    6.2187    0.3725    4.2186 H   0  0  0  0  0  0  0  0  0  0  0  0
    8.2201   -0.9986    0.6670 H   0  0  0  0  0  0  0  0  0  0  0  0
   -2.0609    1.1321   -0.3056 H   0  0  0  0  0  0  0  0  0  0  0  0
   -3.8751    0.8673    1.3914 H   0  0  0  0  0  0  0  0  0  0  0  0
   -6.3178    0.4018    1.3283 H   0  0  0  0  0  0  0  0  0  0  0  0
   -5.9231    1.5412    2.6328 H   0  0  0  0  0  0  0  0  0  0  0  0
   -6.6613    2.1120    1.1166 H   0  0  0  0  0  0  0  0  0  0  0  0
   -3.0600    3.1567    0.7436 H   0  0  0  0  0  0  0  0  0  0  0  0
   -3.9373    3.1877    2.2872 H   0  0  0  0  0  0  0  0  0  0  0  0
   -4.7088    3.7591    0.7916 H   0  0  0  0  0  0  0  0  0  0  0  0
   -4.4146   -2.4464   -2.8154 H   0  0  0  0  0  0  0  0  0  0  0  0
  1  2  1  0
  2  3  2  0
  3  4  1  0
  4  5  1  0
  5  6  2  0
  5  7  1  0
  7  8  1  0
  8  9  2  0
  9 10  1  0
 10 11  2  0
 11 12  1  0
 11 13  1  0
 13 14  2  0
 14 15  1  0
  4 16  2  0
 16 17  1  0
 17 18  1  0
 18 19  2  0
 19 20  1  0
 20 21  1  0
 21 22  1  0
 22 23  1  0
 22 24  1  0
 20 25  2  0
 25 26  1  0
 25 27  1  0
 27 28  2  0
 28 29  1  0
 17  2  1  0
 28 18  1  0
 14  8  1  0
  1 30  1  0
  1 31  1  0
  1 32  1  0
  7 33  1  0
  9 34  1  0
 10 35  1  0
 13 36  1  0
 19 37  1  0
 22 38  1  0
 23 39  1  0
 23 40  1  0
 23 41  1  0
 24 42  1  0
 24 43  1  0
 24 44  1  0
 27 45  1  0
M  END
$$$$
