
     RDKit          3D

 47 49  0  0  0  0  0  0  0  0999 V2000
    3.2885    3.7947   -3.9056 C   0  0  0  0  0  0  0  0  0  0  0  0
    2.6551    3.1043   -2.7288 C   0  0  0  0  0  0  0  0  0  0  0  0
    1.5821    3.7186   -2.0691 C   0  0  0  0  0  0  0  0  0  0  0  0
    0.9744    3.1101   -0.9697 C   0  0  0  0  0  0  0  0  0  0  0  0
    1.4299    1.8748   -0.4925 C   0  0  0  0  0  0  0  0  0  0  0  0
    0.7220    1.2217    0.6812 C   0  0  0  0  0  0  0  0  0  0  0  0
    1.6827    0.6289    1.7165 C   0  0  0  0  0  0  0  0  0  0  0  0
   -0.1927    0.2148    0.1737 N   0  0  0  0  0  0  0  0  0  0  0  0
   -1.2806   -0.2180    0.8959 C   0  0  0  0  0  0  0  0  0  0  0  0
   -1.5550    0.2220    2.0060 O   0  0  0  0  0  0  0  0  0  0  0  0
   -2.0570   -1.2563    0.2522 C   0  0  0  0  0  0  0  0  0  0  0  0
   -2.7413   -2.3675    0.8411 C   0  0  0  0  0  0  0  0  0  0  0  0
   -2.7995   -2.8007    2.2388 C   0  0  0  0  0  0  0  0  0  0  0  0
   -1.6743   -2.7363    3.0719 C   0  0  0  0  0  0  0  0  0  0  0  0
   -1.7475   -3.1660    4.4003 C   0  0  0  0  0  0  0  0  0  0  0  0
   -2.9426   -3.6719    4.9075 C   0  0  0  0  0  0  0  0  0  0  0  0
   -4.0660   -3.7517    4.0880 C   0  0  0  0  0  0  0  0  0  0  0  0
   -3.9942   -3.3211    2.7609 C   0  0  0  0  0  0  0  0  0  0  0  0
   -3.3797   -3.0754   -0.1075 N   0  0  0  0  0  0  0  0  0  0  0  0
   -3.1354   -2.4439   -1.3024 O   0  0  0  0  0  0  0  0  0  0  0  0
   -2.3598   -1.3523   -1.0929 C   0  0  0  0  0  0  0  0  0  0  0  0
   -2.0667   -0.5399   -2.2909 C   0  0  0  0  0  0  0  0  0  0  0  0
    2.4978    1.2549   -1.1615 C   0  0  0  0  0  0  0  0  0  0  0  0
    3.1208    1.8581   -2.2684 C   0  0  0  0  0  0  0  0  0  0  0  0
    4.2667    1.1531   -2.9426 C   0  0  0  0  0  0  0  0  0  0  0  0
    4.3282    4.0517   -3.6794 H   0  0  0  0  0  0  0  0  0  0  0  0
    2.7641    4.7228   -4.1572 H   0  0  0  0  0  0  0  0  0  0  0  0
    3.2549    3.1509   -4.7903 H   0  0  0  0  0  0  0  0  0  0  0  0
    1.2069    4.6819   -2.4091 H   0  0  0  0  0  0  0  0  0  0  0  0
    0.1369    3.6114   -0.4877 H   0  0  0  0  0  0  0  0  0  0  0  0
    0.1252    1.9822    1.2019 H   0  0  0  0  0  0  0  0  0  0  0  0
    2.4120    1.3754    2.0491 H   0  0  0  0  0  0  0  0  0  0  0  0
    2.2317   -0.2333    1.3223 H   0  0  0  0  0  0  0  0  0  0  0  0
    1.1358    0.2783    2.5987 H   0  0  0  0  0  0  0  0  0  0  0  0
    0.0800   -0.2850   -0.6602 H   0  0  0  0  0  0  0  0  0  0  0  0
   -0.7260   -2.3551    2.7033 H   0  0  0  0  0  0  0  0  0  0  0  0
   -0.8700   -3.1038    5.0386 H   0  0  0  0  0  0  0  0  0  0  0  0
   -2.9982   -4.0043    5.9407 H   0  0  0  0  0  0  0  0  0  0  0  0
   -4.9994   -4.1481    4.4790 H   0  0  0  0  0  0  0  0  0  0  0  0
   -4.8812   -3.3918    2.1340 H   0  0  0  0  0  0  0  0  0  0  0  0
   -2.8128   -0.7086   -3.0741 H   0  0  0  0  0  0  0  0  0  0  0  0
   -2.0733    0.5279   -2.0516 H   0  0  0  0  0  0  0  0  0  0  0  0
   -1.0843   -0.7994   -2.6966 H   0  0  0  0  0  0  0  0  0  0  0  0
    2.8559    0.2848   -0.8224 H   0  0  0  0  0  0  0  0  0  0  0  0
    4.0012    0.8988   -3.9736 H   0  0  0  0  0  0  0  0  0  0  0  0
    5.1593    1.7865   -2.9397 H   0  0  0  0  0  0  0  0  0  0  0  0
    4.5252    0.2216   -2.4279 H   0  0  0  0  0  0  0  0  0  0  0  0
  1  2  1  0
  2  3  2  0
  3  4  1  0
  4  5  2  0
  5  6  1  0
  6  7  1  0
  6  8  1  0
  8  9  1  0
  9 10  2  0
  9 11  1  0
 11 12  1  0
 12 13  1  0
 13 14  2  0
 14 15  1  0
 15 16  2  0
 16 17  1  0
 17 18  2  0
 12 19  2  0
 19 20  1  0
 20 21  1  0
 21 22  1  0
  5 23  1  0
 23 24  2  0
 24 25  1  0
 24  2  1  0
 21 11  2  0
 18 13  1  0
  1 26  1  0
  1 27  1  0
  1 28  1  0
  3 29  1  0
  4 30  1  0
  6 31  1  0
  7 32  1  0
  7 33  1  0
  7 34  1  0
  8 35  1  0
 14 36  1  0
 15 37  1  0
 16 38  1  0
 17 39  1  0
 18 40  1  0
 22 41  1  0
 22 42  1  0
 22 43  1  0
 23 44  1  0
 25 45  1  0
 25 46  1  0
 25 47  1  0
M  END
$$$$
