
     RDKit          3D

 53 56  0  0  0  0  0  0  0  0999 V2000
    5.6758    3.5136    3.2593 C   0  0  0  0  0  0  0  0  0  0  0  0
    4.5867    2.8779    2.6038 O   0  0  0  0  0  0  0  0  0  0  0  0
    4.8388    2.3124    1.3852 C   0  0  0  0  0  0  0  0  0  0  0  0
    6.0389    2.3798    0.6848 C   0  0  0  0  0  0  0  0  0  0  0  0
    6.1649    1.7509   -0.5598 C   0  0  0  0  0  0  0  0  0  0  0  0
    5.0926    1.0456   -1.1228 C   0  0  0  0  0  0  0  0  0  0  0  0
    5.1754    0.4003   -2.3314 O   0  0  0  0  0  0  0  0  0  0  0  0
    6.4761    0.0555   -2.7926 C   0  0  0  0  0  0  0  0  0  0  0  0
    3.8635    0.9990   -0.4352 C   0  0  0  0  0  0  0  0  0  0  0  0
    2.6771    0.3125   -0.9446 C   0  0  0  0  0  0  0  0  0  0  0  0
    2.2841    0.2964   -2.2708 C   0  0  0  0  0  0  0  0  0  0  0  0
    0.8273   -0.5942   -2.4415 S   0  0  0  0  0  0  0  0  0  0  0  0
    0.8148   -0.8526   -0.7542 C   0  0  0  0  0  0  0  0  0  0  0  0
   -0.2533   -1.5792   -0.3176 N   0  0  0  0  0  0  0  0  0  0  0  0
   -0.4975   -1.8402    1.0142 C   0  0  0  0  0  0  0  0  0  0  0  0
    0.2037   -1.5003    1.9639 O   0  0  0  0  0  0  0  0  0  0  0  0
   -1.7325   -2.6940    1.2299 C   0  0  0  0  0  0  0  0  0  0  0  0
   -2.9544   -2.0361    0.7917 N   0  0  0  0  0  0  0  0  0  0  0  0
   -3.8442   -1.3887    1.6150 C   0  0  0  0  0  0  0  0  0  0  0  0
   -3.6188   -1.2963    2.9185 O   0  0  0  0  0  0  0  0  0  0  0  0
   -4.8830   -0.9301    0.8329 C   0  0  0  0  0  0  0  0  0  0  0  0
   -4.6140   -1.3278   -0.5117 C   0  0  0  0  0  0  0  0  0  0  0  0
   -3.4103   -2.0000   -0.5081 C   0  0  0  0  0  0  0  0  0  0  0  0
   -2.6999   -2.5370   -1.4954 O   0  0  0  0  0  0  0  0  0  0  0  0
   -5.5140   -0.9864   -1.6528 C   0  0  0  0  0  0  0  0  0  0  0  0
   -6.9020   -0.5427   -1.1642 C   0  0  0  0  0  0  0  0  0  0  0  0
   -6.8069    0.4450    0.0085 C   0  0  0  0  0  0  0  0  0  0  0  0
   -6.1118   -0.1803    1.2283 C   0  0  0  0  0  0  0  0  0  0  0  0
    1.8071   -0.3381   -0.0794 N   0  0  0  0  0  0  0  0  0  0  0  0
    3.7627    1.6236    0.8221 C   0  0  0  0  0  0  0  0  0  0  0  0
    5.3198    3.8700    4.2307 H   0  0  0  0  0  0  0  0  0  0  0  0
    6.0223    4.3837    2.6923 H   0  0  0  0  0  0  0  0  0  0  0  0
    6.4941    2.8093    3.4423 H   0  0  0  0  0  0  0  0  0  0  0  0
    6.8987    2.9134    1.0758 H   0  0  0  0  0  0  0  0  0  0  0  0
    7.1181    1.8374   -1.0714 H   0  0  0  0  0  0  0  0  0  0  0  0
    7.0537   -0.4636   -2.0203 H   0  0  0  0  0  0  0  0  0  0  0  0
    6.3587   -0.6302   -3.6373 H   0  0  0  0  0  0  0  0  0  0  0  0
    7.0066    0.9410   -3.1562 H   0  0  0  0  0  0  0  0  0  0  0  0
    2.7630    0.7497   -3.1262 H   0  0  0  0  0  0  0  0  0  0  0  0
   -0.9269   -1.8722   -1.0169 H   0  0  0  0  0  0  0  0  0  0  0  0
   -1.6334   -3.6372    0.6811 H   0  0  0  0  0  0  0  0  0  0  0  0
   -1.8269   -2.9422    2.2920 H   0  0  0  0  0  0  0  0  0  0  0  0
   -4.3353   -0.7630    3.3039 H   0  0  0  0  0  0  0  0  0  0  0  0
   -3.2533   -2.4790   -2.2977 H   0  0  0  0  0  0  0  0  0  0  0  0
   -5.6217   -1.8443   -2.3259 H   0  0  0  0  0  0  0  0  0  0  0  0
   -5.0552   -0.1734   -2.2286 H   0  0  0  0  0  0  0  0  0  0  0  0
   -7.4511   -0.0851   -1.9948 H   0  0  0  0  0  0  0  0  0  0  0  0
   -7.4770   -1.4216   -0.8456 H   0  0  0  0  0  0  0  0  0  0  0  0
   -6.2496    1.3331   -0.3162 H   0  0  0  0  0  0  0  0  0  0  0  0
   -7.8093    0.7833    0.2946 H   0  0  0  0  0  0  0  0  0  0  0  0
   -6.8018   -0.8750    1.7226 H   0  0  0  0  0  0  0  0  0  0  0  0
   -5.8655    0.6069    1.9498 H   0  0  0  0  0  0  0  0  0  0  0  0
    2.8250    1.5705    1.3756 H   0  0  0  0  0  0  0  0  0  0  0  0
  1  2  1  0
  2  3  1  0
  3  4  2  0
  4  5  1  0
  5  6  2  0
  6  7  1  0
  7  8  1  0
  6  9  1  0
  9 10  1  0
 10 11  2  0
 11 12  1  0
 12 13  1  0
 13 14  1  0
 14 15  1  0
 15 16  2  0
 15 17  1  0
 17 18  1  0
 18 19  1  0
 19 20  1  0
 19 21  2  0
 21 22  1  0
 22 23  2  0
 23 24  1  0
 22 25  1  0
 25 26  1  0
 26 27  1  0
 27 28  1  0
 13 29  2  0
  9 30  2  0
 30  3  1  0
 29 10  1  0
 23 18  1  0
 28 21  1  0
  1 31  1  0
  1 32  1  0
  1 33  1  0
  4 34  1  0
  5 35  1  0
  8 36  1  0
  8 37  1  0
  8 38  1  0
 11 39  1  0
 14 40  1  0
 17 41  1  0
 17 42  1  0
 20 43  1  0
 24 44  1  0
 25 45  1  0
 25 46  1  0
 26 47  1  0
 26 48  1  0
 27 49  1  0
 27 50  1  0
 28 51  1  0
 28 52  1  0
 30 53  1  0
M  END
$$$$
