
     RDKit          3D

 42 43  0  0  0  0  0  0  0  0999 V2000
   -4.1510    0.5240    1.0159 C   0  0  0  0  0  0  0  0  0  0  0  0
   -2.7539    0.7346    0.3948 C   0  0  0  0  0  0  0  0  0  0  0  0
   -2.8389    1.8979   -0.6074 C   0  0  0  0  0  0  0  0  0  0  0  0
   -1.7873    1.1033    1.5306 C   0  0  0  0  0  0  0  0  0  0  0  0
   -2.3405   -0.5849   -0.3067 C   0  0  0  0  0  0  0  0  0  0  0  0
   -1.1397   -0.4539   -1.1517 N   0  0  0  0  0  0  0  0  0  0  0  0
   -1.1335   -1.0917   -2.3644 C   0  0  0  0  0  0  0  0  0  0  0  0
   -2.0791   -0.7166   -3.2454 N   0  0  0  0  0  0  0  0  0  0  0  0
   -0.2088   -1.9665   -2.6242 N   0  0  0  0  0  0  0  0  0  0  0  0
    0.5356   -2.0636   -1.3377 C   0  0  0  0  0  0  0  0  0  0  0  0
    0.1503   -0.8090   -0.5267 C   0  0  0  0  0  0  0  0  0  0  0  0
    1.1588    0.3376   -0.7469 C   0  0  0  0  0  0  0  0  0  0  0  0
    2.4366    0.1621    0.0418 C   0  0  0  0  0  0  0  0  0  0  0  0
    2.4528    0.3788    1.4272 C   0  0  0  0  0  0  0  0  0  0  0  0
    3.6304    0.2052    2.1556 C   0  0  0  0  0  0  0  0  0  0  0  0
    4.7935   -0.1827    1.5029 C   0  0  0  0  0  0  0  0  0  0  0  0
    5.9206   -0.3414    2.2535 O   0  0  0  0  0  0  0  0  0  0  0  0
    4.8009   -0.3990    0.1293 C   0  0  0  0  0  0  0  0  0  0  0  0
    3.6223   -0.2250   -0.5998 C   0  0  0  0  0  0  0  0  0  0  0  0
   -4.8951    0.2835    0.2481 H   0  0  0  0  0  0  0  0  0  0  0  0
   -4.4950    1.4245    1.5375 H   0  0  0  0  0  0  0  0  0  0  0  0
   -4.1408   -0.2977    1.7410 H   0  0  0  0  0  0  0  0  0  0  0  0
   -1.8595    2.1344   -1.0370 H   0  0  0  0  0  0  0  0  0  0  0  0
   -3.2102    2.8086   -0.1235 H   0  0  0  0  0  0  0  0  0  0  0  0
   -3.5198    1.6593   -1.4320 H   0  0  0  0  0  0  0  0  0  0  0  0
   -2.1616    1.9594    2.1039 H   0  0  0  0  0  0  0  0  0  0  0  0
   -1.6586    0.2688    2.2287 H   0  0  0  0  0  0  0  0  0  0  0  0
   -0.8024    1.3823    1.1528 H   0  0  0  0  0  0  0  0  0  0  0  0
   -2.1963   -1.3829    0.4340 H   0  0  0  0  0  0  0  0  0  0  0  0
   -3.1847   -0.9189   -0.9252 H   0  0  0  0  0  0  0  0  0  0  0  0
   -1.8545   -1.0478   -4.1770 H   0  0  0  0  0  0  0  0  0  0  0  0
   -2.2484    0.2803   -3.2267 H   0  0  0  0  0  0  0  0  0  0  0  0
    1.6089   -2.1476   -1.5264 H   0  0  0  0  0  0  0  0  0  0  0  0
    0.2081   -2.9729   -0.8196 H   0  0  0  0  0  0  0  0  0  0  0  0
    0.0550   -1.0500    0.5381 H   0  0  0  0  0  0  0  0  0  0  0  0
    1.3918    0.4450   -1.8150 H   0  0  0  0  0  0  0  0  0  0  0  0
    0.7141    1.2988   -0.4615 H   0  0  0  0  0  0  0  0  0  0  0  0
    1.5511    0.6891    1.9496 H   0  0  0  0  0  0  0  0  0  0  0  0
    3.6411    0.3745    3.2285 H   0  0  0  0  0  0  0  0  0  0  0  0
    6.6480   -0.6031    1.6657 H   0  0  0  0  0  0  0  0  0  0  0  0
    5.7053   -0.7006   -0.3892 H   0  0  0  0  0  0  0  0  0  0  0  0
    3.6345   -0.3960   -1.6748 H   0  0  0  0  0  0  0  0  0  0  0  0
  1  2  1  0
  2  3  1  0
  2  4  1  0
  2  5  1  0
  5  6  1  0
  6  7  1  0
  7  8  1  0
  7  9  2  0
  9 10  1  0
 10 11  1  0
 11 12  1  0
 12 13  1  0
 13 14  2  0
 14 15  1  0
 15 16  2  0
 16 17  1  0
 16 18  1  0
 18 19  2  0
 11  6  1  0
 19 13  1  0
  1 20  1  0
  1 21  1  0
  1 22  1  0
  3 23  1  0
  3 24  1  0
  3 25  1  0
  4 26  1  0
  4 27  1  0
  4 28  1  0
  5 29  1  0
  5 30  1  0
  8 31  1  0
  8 32  1  0
 10 33  1  0
 10 34  1  0
 11 35  1  0
 12 36  1  0
 12 37  1  0
 14 38  1  0
 15 39  1  0
 17 40  1  0
 18 41  1  0
 19 42  1  0
M  END
$$$$
