
     RDKit          3D

 46 49  0  0  0  0  0  0  0  0999 V2000
   -1.0019   -0.7243    4.9196 C   0  0  0  0  0  0  0  0  0  0  0  0
   -1.5956   -0.4675    3.6484 O   0  0  0  0  0  0  0  0  0  0  0  0
   -0.7023   -0.3723    2.6176 C   0  0  0  0  0  0  0  0  0  0  0  0
    0.5121   -0.4840    2.7560 O   0  0  0  0  0  0  0  0  0  0  0  0
   -1.3391   -0.1182    1.3279 C   0  0  0  0  0  0  0  0  0  0  0  0
   -2.6707    0.0219    1.1670 N   0  0  0  0  0  0  0  0  0  0  0  0
   -2.7923    0.2536   -0.1654 N   0  0  0  0  0  0  0  0  0  0  0  0
   -4.0558    0.4606   -0.7789 C   0  0  0  0  0  0  0  0  0  0  0  0
   -5.2273    0.4210   -0.0085 C   0  0  0  0  0  0  0  0  0  0  0  0
   -6.4678    0.6249   -0.6162 C   0  0  0  0  0  0  0  0  0  0  0  0
   -6.5440    0.8681   -1.9875 C   0  0  0  0  0  0  0  0  0  0  0  0
   -5.3815    0.9085   -2.7571 C   0  0  0  0  0  0  0  0  0  0  0  0
   -4.1368    0.7055   -2.1576 C   0  0  0  0  0  0  0  0  0  0  0  0
   -1.6376    0.2791   -0.8749 N   0  0  0  0  0  0  0  0  0  0  0  0
   -0.7197    0.0380    0.0685 C   0  0  0  0  0  0  0  0  0  0  0  0
    0.7138   -0.0044   -0.2127 C   0  0  0  0  0  0  0  0  0  0  0  0
    1.3981    1.0566   -0.6561 N   0  0  0  0  0  0  0  0  0  0  0  0
    2.6478    0.5523   -0.8014 N   0  0  0  0  0  0  0  0  0  0  0  0
    3.7312    1.3488   -1.2569 C   0  0  0  0  0  0  0  0  0  0  0  0
    3.5260    2.6989   -1.5770 C   0  0  0  0  0  0  0  0  0  0  0  0
    4.5944    3.4788   -2.0246 C   0  0  0  0  0  0  0  0  0  0  0  0
    5.8647    2.9177   -2.1538 C   0  0  0  0  0  0  0  0  0  0  0  0
    6.0730    1.5755   -1.8366 C   0  0  0  0  0  0  0  0  0  0  0  0
    5.0103    0.7883   -1.3885 C   0  0  0  0  0  0  0  0  0  0  0  0
    2.8032   -0.7601   -0.4893 N   0  0  0  0  0  0  0  0  0  0  0  0
    1.5628   -1.1280   -0.1091 C   0  0  0  0  0  0  0  0  0  0  0  0
    1.2145   -2.4819    0.3138 C   0  0  0  0  0  0  0  0  0  0  0  0
    0.0790   -2.8106    0.6445 O   0  0  0  0  0  0  0  0  0  0  0  0
    2.2788   -3.3402    0.2984 O   0  0  0  0  0  0  0  0  0  0  0  0
    1.9694   -4.6687    0.7155 C   0  0  0  0  0  0  0  0  0  0  0  0
   -1.8027   -0.7876    5.6615 H   0  0  0  0  0  0  0  0  0  0  0  0
   -0.4657   -1.6784    4.9074 H   0  0  0  0  0  0  0  0  0  0  0  0
   -0.3323    0.0940    5.2025 H   0  0  0  0  0  0  0  0  0  0  0  0
   -5.1902    0.2324    1.0628 H   0  0  0  0  0  0  0  0  0  0  0  0
   -7.3757    0.5939   -0.0188 H   0  0  0  0  0  0  0  0  0  0  0  0
   -7.5115    1.0266   -2.4576 H   0  0  0  0  0  0  0  0  0  0  0  0
   -5.4436    1.0989   -3.8258 H   0  0  0  0  0  0  0  0  0  0  0  0
   -3.2418    0.7425   -2.7761 H   0  0  0  0  0  0  0  0  0  0  0  0
    2.5425    3.1559   -1.4844 H   0  0  0  0  0  0  0  0  0  0  0  0
    4.4346    4.5252   -2.2730 H   0  0  0  0  0  0  0  0  0  0  0  0
    6.6943    3.5278   -2.5026 H   0  0  0  0  0  0  0  0  0  0  0  0
    7.0643    1.1408   -1.9383 H   0  0  0  0  0  0  0  0  0  0  0  0
    5.1945   -0.2567   -1.1460 H   0  0  0  0  0  0  0  0  0  0  0  0
    1.6050   -4.6721    1.7475 H   0  0  0  0  0  0  0  0  0  0  0  0
    2.8878   -5.2606    0.6714 H   0  0  0  0  0  0  0  0  0  0  0  0
    1.2341   -5.1205    0.0424 H   0  0  0  0  0  0  0  0  0  0  0  0
  1  2  1  0
  2  3  1  0
  3  4  2  0
  3  5  1  0
  5  6  2  0
  6  7  1  0
  7  8  1  0
  8  9  2  0
  9 10  1  0
 10 11  2  0
 11 12  1  0
 12 13  2  0
  7 14  1  0
 14 15  2  0
 15 16  1  0
 16 17  2  0
 17 18  1  0
 18 19  1  0
 19 20  2  0
 20 21  1  0
 21 22  2  0
 22 23  1  0
 23 24  2  0
 18 25  1  0
 25 26  2  0
 26 27  1  0
 27 28  2  0
 27 29  1  0
 29 30  1  0
 15  5  1  0
 26 16  1  0
 13  8  1  0
 24 19  1  0
  1 31  1  0
  1 32  1  0
  1 33  1  0
  9 34  1  0
 10 35  1  0
 11 36  1  0
 12 37  1  0
 13 38  1  0
 20 39  1  0
 21 40  1  0
 22 41  1  0
 23 42  1  0
 24 43  1  0
 30 44  1  0
 30 45  1  0
 30 46  1  0
M  END
$$$$
