
     RDKit          3D

 49 51  0  0  0  0  0  0  0  0999 V2000
    6.2233    1.9953   -2.4194 C   0  0  0  0  0  0  0  0  0  0  0  0
    6.1626    1.4318   -1.1177 O   0  0  0  0  0  0  0  0  0  0  0  0
    4.9209    1.2093   -0.5746 C   0  0  0  0  0  0  0  0  0  0  0  0
    3.7129    1.4717   -1.2300 C   0  0  0  0  0  0  0  0  0  0  0  0
    2.4911    1.2022   -0.6005 C   0  0  0  0  0  0  0  0  0  0  0  0
    2.4661    0.6851    0.6998 C   0  0  0  0  0  0  0  0  0  0  0  0
    3.6774    0.4338    1.3617 C   0  0  0  0  0  0  0  0  0  0  0  0
    4.9032    0.6821    0.7322 C   0  0  0  0  0  0  0  0  0  0  0  0
    6.1299    0.4565    1.3072 O   0  0  0  0  0  0  0  0  0  0  0  0
    6.1556   -0.0943    2.6158 C   0  0  0  0  0  0  0  0  0  0  0  0
    1.1513    0.4807    1.4166 C   0  0  0  0  0  0  0  0  0  0  0  0
   -0.0227    0.2478    0.5513 N   0  0  0  0  0  0  0  0  0  0  0  0
   -1.2682   -0.1206    1.1138 C   0  0  0  0  0  0  0  0  0  0  0  0
   -1.6100    0.0053    2.7587 S   0  0  0  0  0  0  0  0  0  0  0  0
   -2.1339   -0.6585    0.1689 N   0  0  0  0  0  0  0  0  0  0  0  0
   -3.5450   -0.7801    0.1717 C   0  0  0  0  0  0  0  0  0  0  0  0
   -4.3614    0.1255    0.8574 C   0  0  0  0  0  0  0  0  0  0  0  0
   -5.7545    0.0200    0.8106 C   0  0  0  0  0  0  0  0  0  0  0  0
   -6.3630   -0.9781    0.0502 C   0  0  0  0  0  0  0  0  0  0  0  0
   -7.8562   -1.1153    0.0267 C   0  0  0  0  0  0  0  0  0  0  0  0
   -5.5544   -1.8794   -0.6500 C   0  0  0  0  0  0  0  0  0  0  0  0
   -4.1500   -1.7869   -0.6094 C   0  0  0  0  0  0  0  0  0  0  0  0
   -3.3464   -2.7884   -1.3948 C   0  0  0  0  0  0  0  0  0  0  0  0
    0.1678    0.4018   -0.9018 C   0  0  0  0  0  0  0  0  0  0  0  0
    1.1796    1.4837   -1.2755 C   0  0  0  0  0  0  0  0  0  0  0  0
    5.7700    1.3283   -3.1599 H   0  0  0  0  0  0  0  0  0  0  0  0
    7.2786    2.1150   -2.6832 H   0  0  0  0  0  0  0  0  0  0  0  0
    5.7608    2.9875   -2.4432 H   0  0  0  0  0  0  0  0  0  0  0  0
    3.6962    1.8839   -2.2334 H   0  0  0  0  0  0  0  0  0  0  0  0
    3.6371    0.0494    2.3761 H   0  0  0  0  0  0  0  0  0  0  0  0
    7.2033   -0.2220    2.9044 H   0  0  0  0  0  0  0  0  0  0  0  0
    5.6823   -1.0815    2.6393 H   0  0  0  0  0  0  0  0  0  0  0  0
    5.6928    0.5851    3.3390 H   0  0  0  0  0  0  0  0  0  0  0  0
    0.9519    1.3755    2.0186 H   0  0  0  0  0  0  0  0  0  0  0  0
    1.2415   -0.3815    2.0882 H   0  0  0  0  0  0  0  0  0  0  0  0
   -1.6556   -1.2364   -0.5063 H   0  0  0  0  0  0  0  0  0  0  0  0
   -3.9383    0.9539    1.4170 H   0  0  0  0  0  0  0  0  0  0  0  0
   -6.3569    0.7342    1.3674 H   0  0  0  0  0  0  0  0  0  0  0  0
   -8.1964   -1.5129   -0.9352 H   0  0  0  0  0  0  0  0  0  0  0  0
   -8.3410   -0.1432    0.1652 H   0  0  0  0  0  0  0  0  0  0  0  0
   -8.1824   -1.7897    0.8244 H   0  0  0  0  0  0  0  0  0  0  0  0
   -6.0258   -2.6672   -1.2356 H   0  0  0  0  0  0  0  0  0  0  0  0
   -2.6572   -3.3257   -0.7352 H   0  0  0  0  0  0  0  0  0  0  0  0
   -3.9874   -3.5367   -1.8732 H   0  0  0  0  0  0  0  0  0  0  0  0
   -2.7816   -2.2842   -2.1856 H   0  0  0  0  0  0  0  0  0  0  0  0
   -0.7865    0.6408   -1.3830 H   0  0  0  0  0  0  0  0  0  0  0  0
    0.4962   -0.5749   -1.2798 H   0  0  0  0  0  0  0  0  0  0  0  0
    0.8224    2.4706   -0.9579 H   0  0  0  0  0  0  0  0  0  0  0  0
    1.3002    1.5008   -2.3646 H   0  0  0  0  0  0  0  0  0  0  0  0
  1  2  1  0
  2  3  1  0
  3  4  2  0
  4  5  1  0
  5  6  2  0
  6  7  1  0
  7  8  2  0
  8  9  1  0
  9 10  1  0
  6 11  1  0
 11 12  1  0
 12 13  1  0
 13 14  2  0
 13 15  1  0
 15 16  1  0
 16 17  2  0
 17 18  1  0
 18 19  2  0
 19 20  1  0
 19 21  1  0
 21 22  2  0
 22 23  1  0
 12 24  1  0
 24 25  1  0
  8  3  1  0
 22 16  1  0
 25  5  1  0
  1 26  1  0
  1 27  1  0
  1 28  1  0
  4 29  1  0
  7 30  1  0
 10 31  1  0
 10 32  1  0
 10 33  1  0
 11 34  1  0
 11 35  1  0
 15 36  1  0
 17 37  1  0
 18 38  1  0
 20 39  1  0
 20 40  1  0
 20 41  1  0
 21 42  1  0
 23 43  1  0
 23 44  1  0
 23 45  1  0
 24 46  1  0
 24 47  1  0
 25 48  1  0
 25 49  1  0
M  END
$$$$
