
     RDKit          3D

 66 70  0  0  0  0  0  0  0  0999 V2000
   -1.5998   -2.8130   -2.7432 C   0  0  0  0  0  0  0  0  0  0  0  0
   -1.2627   -1.7448   -3.7705 C   0  0  0  0  0  0  0  0  0  0  0  0
   -1.2562   -0.4384   -3.1931 O   0  0  0  0  0  0  0  0  0  0  0  0
   -0.2288   -0.0964   -2.3550 C   0  0  0  0  0  0  0  0  0  0  0  0
    1.0542   -0.6492   -2.4209 C   0  0  0  0  0  0  0  0  0  0  0  0
    2.0585   -0.2169   -1.5509 C   0  0  0  0  0  0  0  0  0  0  0  0
    1.7869    0.7797   -0.6142 C   0  0  0  0  0  0  0  0  0  0  0  0
    2.8361    1.2529    0.3104 C   0  0  0  0  0  0  0  0  0  0  0  0
    4.0346    0.7655    0.2841 N   0  0  0  0  0  0  0  0  0  0  0  0
    4.9115    1.2897    1.1865 N   0  0  0  0  0  0  0  0  0  0  0  0
    6.2332    0.8712    1.1716 C   0  0  0  0  0  0  0  0  0  0  0  0
    6.7152    0.0641    0.3776 O   0  0  0  0  0  0  0  0  0  0  0  0
    7.1414    1.5009    2.1706 C   0  0  0  0  0  0  0  0  0  0  0  0
    6.6607    2.0199    3.3829 C   0  0  0  0  0  0  0  0  0  0  0  0
    7.5400    2.6211    4.2892 C   0  0  0  0  0  0  0  0  0  0  0  0
    8.9016    2.7009    3.9975 C   0  0  0  0  0  0  0  0  0  0  0  0
    9.3918    2.1659    2.8074 C   0  0  0  0  0  0  0  0  0  0  0  0
    8.5189    1.5598    1.9059 C   0  0  0  0  0  0  0  0  0  0  0  0
    9.0875    1.0374    0.7738 O   0  0  0  0  0  0  0  0  0  0  0  0
    0.5131    1.3477   -0.5442 C   0  0  0  0  0  0  0  0  0  0  0  0
   -0.5063    0.9167   -1.4145 C   0  0  0  0  0  0  0  0  0  0  0  0
   -1.8874    1.5366   -1.3113 C   0  0  0  0  0  0  0  0  0  0  0  0
   -2.8536    0.7061   -0.5722 N   0  0  0  0  0  0  0  0  0  0  0  0
   -2.5793    0.6463    0.8664 C   0  0  0  0  0  0  0  0  0  0  0  0
   -3.6403   -0.1445    1.6607 C   0  0  0  0  0  0  0  0  0  0  0  0
   -5.0212    0.4535    1.4266 C   0  0  0  0  0  0  0  0  0  0  0  0
   -5.3007    0.3457   -0.0701 C   0  0  0  0  0  0  0  0  0  0  0  0
   -4.2310    1.1455   -0.8512 C   0  0  0  0  0  0  0  0  0  0  0  0
   -5.3295   -1.1120   -0.4949 C   0  0  0  0  0  0  0  0  0  0  0  0
   -6.1378   -1.5290   -1.4857 C   0  0  0  0  0  0  0  0  0  0  0  0
   -6.1586   -2.9083   -1.8926 C   0  0  0  0  0  0  0  0  0  0  0  0
   -5.3872   -3.8089   -1.2750 C   0  0  0  0  0  0  0  0  0  0  0  0
   -4.5029   -3.3915   -0.1571 C   0  0  0  0  0  0  0  0  0  0  0  0
   -3.8300   -4.2456    0.4179 O   0  0  0  0  0  0  0  0  0  0  0  0
   -4.5132   -2.0313    0.1694 N   0  0  0  0  0  0  0  0  0  0  0  0
   -3.6596   -1.6352    1.2903 C   0  0  0  0  0  0  0  0  0  0  0  0
   -0.8176   -2.9010   -1.9828 H   0  0  0  0  0  0  0  0  0  0  0  0
   -1.7212   -3.7877   -3.2253 H   0  0  0  0  0  0  0  0  0  0  0  0
   -2.5263   -2.5578   -2.2207 H   0  0  0  0  0  0  0  0  0  0  0  0
   -2.0562   -1.7377   -4.5266 H   0  0  0  0  0  0  0  0  0  0  0  0
   -0.3380   -1.9636   -4.3146 H   0  0  0  0  0  0  0  0  0  0  0  0
    1.3130   -1.4117   -3.1477 H   0  0  0  0  0  0  0  0  0  0  0  0
    3.0511   -0.6593   -1.6154 H   0  0  0  0  0  0  0  0  0  0  0  0
    2.5467    2.0442    1.0250 H   0  0  0  0  0  0  0  0  0  0  0  0
    4.6124    2.0651    1.7644 H   0  0  0  0  0  0  0  0  0  0  0  0
    5.6138    1.9412    3.6593 H   0  0  0  0  0  0  0  0  0  0  0  0
    7.1658    3.0198    5.2294 H   0  0  0  0  0  0  0  0  0  0  0  0
    9.5859    3.1663    4.7029 H   0  0  0  0  0  0  0  0  0  0  0  0
   10.4547    2.2107    2.5832 H   0  0  0  0  0  0  0  0  0  0  0  0
    8.4001    0.5044    0.3105 H   0  0  0  0  0  0  0  0  0  0  0  0
    0.2988    2.1232    0.1864 H   0  0  0  0  0  0  0  0  0  0  0  0
   -1.8173    2.5373   -0.8628 H   0  0  0  0  0  0  0  0  0  0  0  0
   -2.2416    1.7124   -2.3363 H   0  0  0  0  0  0  0  0  0  0  0  0
   -1.6053    0.1767    1.0461 H   0  0  0  0  0  0  0  0  0  0  0  0
   -2.5243    1.6627    1.2795 H   0  0  0  0  0  0  0  0  0  0  0  0
   -3.3811   -0.0589    2.7237 H   0  0  0  0  0  0  0  0  0  0  0  0
   -5.0470    1.5014    1.7485 H   0  0  0  0  0  0  0  0  0  0  0  0
   -5.7813   -0.0812    2.0097 H   0  0  0  0  0  0  0  0  0  0  0  0
   -6.2798    0.8017   -0.2671 H   0  0  0  0  0  0  0  0  0  0  0  0
   -4.3401    2.2099   -0.6015 H   0  0  0  0  0  0  0  0  0  0  0  0
   -4.4330    1.0479   -1.9258 H   0  0  0  0  0  0  0  0  0  0  0  0
   -6.7845   -0.8384   -2.0178 H   0  0  0  0  0  0  0  0  0  0  0  0
   -6.8082   -3.1978   -2.7111 H   0  0  0  0  0  0  0  0  0  0  0  0
   -5.3674   -4.8550   -1.5467 H   0  0  0  0  0  0  0  0  0  0  0  0
   -4.0283   -2.1970    2.1597 H   0  0  0  0  0  0  0  0  0  0  0  0
   -2.6429   -2.0030    1.1019 H   0  0  0  0  0  0  0  0  0  0  0  0
  1  2  1  0
  2  3  1  0
  3  4  1  0
  4  5  2  0
  5  6  1  0
  6  7  2  0
  7  8  1  0
  8  9  2  3
  9 10  1  0
 10 11  1  0
 11 12  2  0
 11 13  1  0
 13 14  2  0
 14 15  1  0
 15 16  2  0
 16 17  1  0
 17 18  2  0
 18 19  1  0
  7 20  1  0
 20 21  2  0
 21 22  1  0
 22 23  1  0
 23 24  1  0
 24 25  1  0
 25 26  1  0
 26 27  1  0
 27 28  1  0
 27 29  1  0
 29 30  2  0
 30 31  1  0
 31 32  2  0
 32 33  1  0
 33 34  2  0
 33 35  1  0
 35 36  1  0
 21  4  1  0
 28 23  1  0
 35 29  1  0
 18 13  1  0
 36 25  1  0
  1 37  1  0
  1 38  1  0
  1 39  1  0
  2 40  1  0
  2 41  1  0
  5 42  1  0
  6 43  1  0
  8 44  1  0
 10 45  1  0
 14 46  1  0
 15 47  1  0
 16 48  1  0
 17 49  1  0
 19 50  1  0
 20 51  1  0
 22 52  1  0
 22 53  1  0
 24 54  1  0
 24 55  1  0
 25 56  1  0
 26 57  1  0
 26 58  1  0
 27 59  1  0
 28 60  1  0
 28 61  1  0
 30 62  1  0
 31 63  1  0
 32 64  1  0
 36 65  1  0
 36 66  1  0
M  END
$$$$
