
     RDKit          3D

 48 50  0  0  0  0  0  0  0  0999 V2000
    5.0740   -0.5223    1.1017 C   0  0  0  0  0  0  0  0  0  0  0  0
    4.4723   -0.4614   -0.2563 C   0  0  0  0  0  0  0  0  0  0  0  0
    5.0760   -0.0009   -1.4249 C   0  0  0  0  0  0  0  0  0  0  0  0
    6.3795    0.5369   -1.7259 C   0  0  0  0  0  0  0  0  0  0  0  0
    6.8116    0.9193   -2.8040 O   0  0  0  0  0  0  0  0  0  0  0  0
    7.1739    0.6005   -0.6324 O   0  0  0  0  0  0  0  0  0  0  0  0
    4.1945   -0.1094   -2.4683 O   0  0  0  0  0  0  0  0  0  0  0  0
    3.0404   -0.6325   -1.9868 C   0  0  0  0  0  0  0  0  0  0  0  0
    1.9029   -0.8998   -2.7471 C   0  0  0  0  0  0  0  0  0  0  0  0
    0.8078   -1.4390   -2.0661 C   0  0  0  0  0  0  0  0  0  0  0  0
    0.8773   -1.6802   -0.6885 C   0  0  0  0  0  0  0  0  0  0  0  0
   -0.5424   -2.3628    0.1345 S   0  0  0  0  0  6  0  0  0  0  0  0
   -1.1153   -3.3605   -0.7409 O   0  0  0  0  0  0  0  0  0  0  0  0
   -0.1894   -2.6586    1.5047 O   0  0  0  0  0  0  0  0  0  0  0  0
   -1.5952   -1.0681    0.1303 N   0  0  0  0  0  0  0  0  0  0  0  0
   -1.4182    0.0688    1.0325 C   0  0  0  0  0  0  0  0  0  0  0  0
   -1.4949    1.3896    0.2596 C   0  0  0  0  0  0  0  0  0  0  0  0
   -2.5798    1.5741   -0.8047 C   0  0  0  0  0  0  0  0  0  0  0  0
   -4.0362    1.3578   -0.4018 C   0  0  0  0  0  0  0  0  0  0  0  0
   -4.4056    1.9251    0.9649 C   0  0  0  0  0  0  0  0  0  0  0  0
   -4.7261    0.8612    2.0114 C   0  0  0  0  0  0  0  0  0  0  0  0
   -3.7975   -0.3507    2.0859 C   0  0  0  0  0  0  0  0  0  0  0  0
   -2.3136   -0.0403    2.2783 C   0  0  0  0  0  0  0  0  0  0  0  0
    2.0409   -1.4122    0.0523 C   0  0  0  0  0  0  0  0  0  0  0  0
    3.1502   -0.8686   -0.6235 C   0  0  0  0  0  0  0  0  0  0  0  0
    5.9606   -1.1644    1.1008 H   0  0  0  0  0  0  0  0  0  0  0  0
    5.3634    0.4780    1.4391 H   0  0  0  0  0  0  0  0  0  0  0  0
    4.3718   -0.9288    1.8359 H   0  0  0  0  0  0  0  0  0  0  0  0
    8.0036    0.9746   -0.9948 H   0  0  0  0  0  0  0  0  0  0  0  0
    1.8788   -0.7009   -3.8122 H   0  0  0  0  0  0  0  0  0  0  0  0
   -0.1013   -1.6711   -2.6184 H   0  0  0  0  0  0  0  0  0  0  0  0
   -2.4732   -1.2201   -0.3606 H   0  0  0  0  0  0  0  0  0  0  0  0
   -0.3913    0.0424    1.4239 H   0  0  0  0  0  0  0  0  0  0  0  0
   -1.5203    2.2237    0.9709 H   0  0  0  0  0  0  0  0  0  0  0  0
   -0.5379    1.5093   -0.2698 H   0  0  0  0  0  0  0  0  0  0  0  0
   -2.4848    2.6007   -1.1839 H   0  0  0  0  0  0  0  0  0  0  0  0
   -2.3597    0.9291   -1.6649 H   0  0  0  0  0  0  0  0  0  0  0  0
   -4.2938    0.2973   -0.4832 H   0  0  0  0  0  0  0  0  0  0  0  0
   -4.6574    1.8524   -1.1607 H   0  0  0  0  0  0  0  0  0  0  0  0
   -5.3016    2.5500    0.8522 H   0  0  0  0  0  0  0  0  0  0  0  0
   -3.6363    2.6036    1.3462 H   0  0  0  0  0  0  0  0  0  0  0  0
   -5.7422    0.4885    1.8264 H   0  0  0  0  0  0  0  0  0  0  0  0
   -4.7629    1.3466    2.9950 H   0  0  0  0  0  0  0  0  0  0  0  0
   -4.1255   -0.9314    2.9595 H   0  0  0  0  0  0  0  0  0  0  0  0
   -3.9620   -1.0183    1.2354 H   0  0  0  0  0  0  0  0  0  0  0  0
   -2.1946    0.8555    2.9005 H   0  0  0  0  0  0  0  0  0  0  0  0
   -1.9064   -0.8657    2.8795 H   0  0  0  0  0  0  0  0  0  0  0  0
    2.0857   -1.6171    1.1183 H   0  0  0  0  0  0  0  0  0  0  0  0
  1  2  1  0
  2  3  2  0
  3  4  1  0
  4  5  2  0
  4  6  1  0
  3  7  1  0
  7  8  1  0
  8  9  2  0
  9 10  1  0
 10 11  2  0
 11 12  1  0
 12 13  2  0
 12 14  2  0
 12 15  1  0
 15 16  1  0
 16 17  1  0
 17 18  1  0
 18 19  1  0
 19 20  1  0
 20 21  1  0
 21 22  1  0
 22 23  1  0
 11 24  1  0
 24 25  2  0
 25  2  1  0
 25  8  1  0
 23 16  1  0
  1 26  1  0
  1 27  1  0
  1 28  1  0
  6 29  1  0
  9 30  1  0
 10 31  1  0
 15 32  1  0
 16 33  1  0
 17 34  1  0
 17 35  1  0
 18 36  1  0
 18 37  1  0
 19 38  1  0
 19 39  1  0
 20 40  1  0
 20 41  1  0
 21 42  1  0
 21 43  1  0
 22 44  1  0
 22 45  1  0
 23 46  1  0
 23 47  1  0
 24 48  1  0
M  END
$$$$
