
     RDKit          3D

 53 58  0  0  0  0  0  0  0  0999 V2000
    7.6978    0.9946    2.5604 C   0  0  0  0  0  0  0  0  0  0  0  0
    6.2096    1.0140    2.2606 C   0  0  0  0  0  0  0  0  0  0  0  0
    6.0158    0.4615    0.9602 O   0  0  0  0  0  0  0  0  0  0  0  0
    4.7270    0.3621    0.5131 C   0  0  0  0  0  0  0  0  0  0  0  0
    3.5877    0.7972    1.1879 C   0  0  0  0  0  0  0  0  0  0  0  0
    2.3235    0.6342    0.6102 C   0  0  0  0  0  0  0  0  0  0  0  0
    2.1758    0.0323   -0.6523 C   0  0  0  0  0  0  0  0  0  0  0  0
    0.7977   -0.1360   -1.2937 C   0  0  0  0  0  0  0  0  0  0  0  0
    0.2748    1.2408   -1.4139 N   0  0  0  0  0  0  0  0  0  0  0  0
   -1.0929    1.3510   -1.6921 C   0  0  0  0  0  0  0  0  0  0  0  0
   -1.5617    2.4865   -2.3525 C   0  0  0  0  0  0  0  0  0  0  0  0
   -2.9075    2.6049   -2.6825 C   0  0  0  0  0  0  0  0  0  0  0  0
   -3.8048    1.5727   -2.3942 C   0  0  0  0  0  0  0  0  0  0  0  0
   -5.1386    1.6775   -2.8243 C   0  0  0  0  0  0  0  0  0  0  0  0
   -6.0465    0.6439   -2.6103 C   0  0  0  0  0  0  0  0  0  0  0  0
   -5.6255   -0.5147   -1.9769 C   0  0  0  0  0  0  0  0  0  0  0  0
   -4.3046   -0.6245   -1.5336 C   0  0  0  0  0  0  0  0  0  0  0  0
   -3.3617    0.4242   -1.6885 C   0  0  0  0  0  0  0  0  0  0  0  0
   -2.0061    0.3815   -1.2279 C   0  0  0  0  0  0  0  0  0  0  0  0
   -1.4570   -0.6730   -0.3126 C   0  0  0  0  0  0  0  0  0  0  0  0
   -0.1603   -0.9988   -0.5066 C   0  0  0  0  0  0  0  0  0  0  0  0
    0.3701   -2.3009   -0.0403 C   0  0  0  0  0  0  0  0  0  0  0  0
    1.3955   -2.7869   -0.5060 O   0  0  0  0  0  0  0  0  0  0  0  0
   -0.3815   -3.0081    0.8826 O   0  0  0  0  0  0  0  0  0  0  0  0
   -1.5729   -2.4722    1.3843 C   0  0  0  0  0  0  0  0  0  0  0  0
   -2.1446   -3.1302    2.4744 C   0  0  0  0  0  0  0  0  0  0  0  0
   -3.2865   -2.6011    3.0669 C   0  0  0  0  0  0  0  0  0  0  0  0
   -3.8290   -1.4150    2.5775 C   0  0  0  0  0  0  0  0  0  0  0  0
   -3.2432   -0.7726    1.4802 C   0  0  0  0  0  0  0  0  0  0  0  0
   -2.1246   -1.3197    0.8355 C   0  0  0  0  0  0  0  0  0  0  0  0
    3.3290   -0.3973   -1.3235 C   0  0  0  0  0  0  0  0  0  0  0  0
    4.5895   -0.2333   -0.7424 C   0  0  0  0  0  0  0  0  0  0  0  0
    8.0859   -0.0285    2.5198 H   0  0  0  0  0  0  0  0  0  0  0  0
    8.2492    1.5746    1.8129 H   0  0  0  0  0  0  0  0  0  0  0  0
    7.9014    1.4107    3.5510 H   0  0  0  0  0  0  0  0  0  0  0  0
    5.6856    0.4128    3.0128 H   0  0  0  0  0  0  0  0  0  0  0  0
    5.8527    2.0499    2.2902 H   0  0  0  0  0  0  0  0  0  0  0  0
    3.6437    1.2709    2.1618 H   0  0  0  0  0  0  0  0  0  0  0  0
    1.4458    0.9930    1.1459 H   0  0  0  0  0  0  0  0  0  0  0  0
    0.9085   -0.5578   -2.3019 H   0  0  0  0  0  0  0  0  0  0  0  0
    0.8559    1.8084   -2.0241 H   0  0  0  0  0  0  0  0  0  0  0  0
   -0.8768    3.2828   -2.6318 H   0  0  0  0  0  0  0  0  0  0  0  0
   -3.2387    3.4970   -3.2100 H   0  0  0  0  0  0  0  0  0  0  0  0
   -5.4795    2.5677   -3.3497 H   0  0  0  0  0  0  0  0  0  0  0  0
   -7.0720    0.7371   -2.9572 H   0  0  0  0  0  0  0  0  0  0  0  0
   -6.3170   -1.3406   -1.8305 H   0  0  0  0  0  0  0  0  0  0  0  0
   -4.0130   -1.5683   -1.0792 H   0  0  0  0  0  0  0  0  0  0  0  0
   -1.6908   -4.0356    2.8673 H   0  0  0  0  0  0  0  0  0  0  0  0
   -3.7392   -3.0980    3.9211 H   0  0  0  0  0  0  0  0  0  0  0  0
   -4.7044   -0.9797    3.0539 H   0  0  0  0  0  0  0  0  0  0  0  0
   -3.6727    0.1701    1.1475 H   0  0  0  0  0  0  0  0  0  0  0  0
    3.2570   -0.8799   -2.2955 H   0  0  0  0  0  0  0  0  0  0  0  0
    5.4737   -0.5810   -1.2713 H   0  0  0  0  0  0  0  0  0  0  0  0
  1  2  1  0
  2  3  1  0
  3  4  1  0
  4  5  2  0
  5  6  1  0
  6  7  2  0
  7  8  1  0
  8  9  1  0
  9 10  1  0
 10 11  2  0
 11 12  1  0
 12 13  2  0
 13 14  1  0
 14 15  2  0
 15 16  1  0
 16 17  2  0
 17 18  1  0
 18 19  2  0
 19 20  1  0
 20 21  2  0
 21 22  1  0
 22 23  2  0
 22 24  1  0
 24 25  1  0
 25 26  2  0
 26 27  1  0
 27 28  2  0
 28 29  1  0
 29 30  2  0
  7 31  1  0
 31 32  2  0
 32  4  1  0
 21  8  1  0
 30 25  1  0
 19 10  1  0
 30 20  1  0
 18 13  1  0
  1 33  1  0
  1 34  1  0
  1 35  1  0
  2 36  1  0
  2 37  1  0
  5 38  1  0
  6 39  1  0
  8 40  1  0
  9 41  1  0
 11 42  1  0
 12 43  1  0
 14 44  1  0
 15 45  1  0
 16 46  1  0
 17 47  1  0
 26 48  1  0
 27 49  1  0
 28 50  1  0
 29 51  1  0
 31 52  1  0
 32 53  1  0
M  END
$$$$
