
     RDKit          3D

 57 60  0  0  0  0  0  0  0  0999 V2000
   -1.6500    6.3310   -0.3404 C   0  0  0  0  0  0  0  0  0  0  0  0
   -1.3673    4.8846    0.0557 C   0  0  0  0  0  0  0  0  0  0  0  0
   -0.3973    4.2197   -0.9420 C   0  0  0  0  0  0  0  0  0  0  0  0
   -0.0025    2.8009   -0.4964 C   0  0  0  0  0  0  0  0  0  0  0  0
   -1.1828    2.0086   -0.0128 C   0  0  0  0  0  0  0  0  0  0  0  0
   -2.3866    2.6176    0.2946 C   0  0  0  0  0  0  0  0  0  0  0  0
   -3.5568    1.5157    0.8443 S   0  0  0  0  0  0  0  0  0  0  0  0
   -2.4682    0.2102    0.7191 C   0  0  0  0  0  0  0  0  0  0  0  0
   -2.8567   -1.0247    1.0694 N   0  0  0  0  0  0  0  0  0  0  0  0
   -1.9009   -1.9483    0.9221 C   0  0  0  0  0  0  0  0  0  0  0  0
   -2.2245   -3.3767    1.3619 C   0  0  0  0  0  0  0  0  0  0  0  0
   -1.8998   -3.5051    2.8589 C   0  0  0  0  0  0  0  0  0  0  0  0
   -3.7127   -3.7041    1.1331 C   0  0  0  0  0  0  0  0  0  0  0  0
   -1.3881   -4.4030    0.5719 C   0  0  0  0  0  0  0  0  0  0  0  0
   -0.6469   -1.7041    0.4916 N   0  0  0  0  0  0  0  0  0  0  0  0
   -0.2751   -0.4511    0.1389 C   0  0  0  0  0  0  0  0  0  0  0  0
    1.0301   -0.2290   -0.3384 N   0  0  0  0  0  0  0  0  0  0  0  0
    1.1192   -0.6093   -1.7730 C   0  0  0  0  0  0  0  0  0  0  0  0
    2.1694   -1.7027   -2.0441 C   0  0  0  0  0  0  0  0  0  0  0  0
    3.4748   -1.3704   -1.4577 N   0  0  0  0  0  0  0  0  0  0  0  0
    4.6236   -1.5191   -2.2221 C   0  0  0  0  0  0  0  0  0  0  0  0
    4.5873   -1.9804   -3.3665 O   0  0  0  0  0  0  0  0  0  0  0  0
    5.9540   -1.1077   -1.6173 C   0  0  0  0  0  0  0  0  0  0  0  0
    6.1716    0.6438   -1.7934 Cl  0  0  0  0  0  0  0  0  0  0  0  0
    3.4324   -0.7784   -0.1119 C   0  0  0  0  0  0  0  0  0  0  0  0
    2.0371   -0.8684    0.5332 C   0  0  0  0  0  0  0  0  0  0  0  0
   -1.2214    0.5871    0.2465 C   0  0  0  0  0  0  0  0  0  0  0  0
   -2.6813    4.0800    0.1563 C   0  0  0  0  0  0  0  0  0  0  0  0
   -0.7228    6.9133   -0.3716 H   0  0  0  0  0  0  0  0  0  0  0  0
   -2.3203    6.8061    0.3831 H   0  0  0  0  0  0  0  0  0  0  0  0
   -2.1192    6.3886   -1.3291 H   0  0  0  0  0  0  0  0  0  0  0  0
   -0.8857    4.8943    1.0437 H   0  0  0  0  0  0  0  0  0  0  0  0
   -0.8708    4.1696   -1.9316 H   0  0  0  0  0  0  0  0  0  0  0  0
    0.5109    4.8236   -1.0555 H   0  0  0  0  0  0  0  0  0  0  0  0
    0.7287    2.8692    0.3190 H   0  0  0  0  0  0  0  0  0  0  0  0
    0.4828    2.2968   -1.3378 H   0  0  0  0  0  0  0  0  0  0  0  0
   -2.1149   -4.5154    3.2256 H   0  0  0  0  0  0  0  0  0  0  0  0
   -2.4890   -2.8005    3.4582 H   0  0  0  0  0  0  0  0  0  0  0  0
   -0.8412   -3.2971    3.0578 H   0  0  0  0  0  0  0  0  0  0  0  0
   -3.9380   -4.7371    1.4224 H   0  0  0  0  0  0  0  0  0  0  0  0
   -4.3695   -3.0530    1.7221 H   0  0  0  0  0  0  0  0  0  0  0  0
   -3.9872   -3.5844    0.0785 H   0  0  0  0  0  0  0  0  0  0  0  0
   -1.5583   -4.3075   -0.5065 H   0  0  0  0  0  0  0  0  0  0  0  0
   -1.6447   -5.4276    0.8610 H   0  0  0  0  0  0  0  0  0  0  0  0
   -0.3144   -4.2768    0.7493 H   0  0  0  0  0  0  0  0  0  0  0  0
    0.1541   -0.9300   -2.1874 H   0  0  0  0  0  0  0  0  0  0  0  0
    1.4121    0.2922   -2.3249 H   0  0  0  0  0  0  0  0  0  0  0  0
    2.2524   -1.8669   -3.1236 H   0  0  0  0  0  0  0  0  0  0  0  0
    1.8525   -2.6522   -1.5954 H   0  0  0  0  0  0  0  0  0  0  0  0
    6.7630   -1.6081   -2.1577 H   0  0  0  0  0  0  0  0  0  0  0  0
    6.0333   -1.3854   -0.5651 H   0  0  0  0  0  0  0  0  0  0  0  0
    3.7277    0.2721   -0.2045 H   0  0  0  0  0  0  0  0  0  0  0  0
    4.1649   -1.2857    0.5227 H   0  0  0  0  0  0  0  0  0  0  0  0
    1.8096   -1.9275    0.7142 H   0  0  0  0  0  0  0  0  0  0  0  0
    2.0582   -0.3607    1.5055 H   0  0  0  0  0  0  0  0  0  0  0  0
   -3.2865    4.2321   -0.7465 H   0  0  0  0  0  0  0  0  0  0  0  0
   -3.2684    4.4414    1.0095 H   0  0  0  0  0  0  0  0  0  0  0  0
  1  2  1  0
  2  3  1  0
  3  4  1  0
  4  5  1  0
  5  6  2  0
  6  7  1  0
  7  8  1  0
  8  9  2  0
  9 10  1  0
 10 11  1  0
 11 12  1  0
 11 13  1  0
 11 14  1  0
 10 15  2  0
 15 16  1  0
 16 17  1  0
 17 18  1  0
 18 19  1  0
 19 20  1  0
 20 21  1  0
 21 22  2  0
 21 23  1  0
 23 24  1  0
 20 25  1  0
 25 26  1  0
 16 27  2  0
  6 28  1  0
 28  2  1  0
 27  5  1  0
 27  8  1  0
 26 17  1  0
  1 29  1  0
  1 30  1  0
  1 31  1  0
  2 32  1  0
  3 33  1  0
  3 34  1  0
  4 35  1  0
  4 36  1  0
 12 37  1  0
 12 38  1  0
 12 39  1  0
 13 40  1  0
 13 41  1  0
 13 42  1  0
 14 43  1  0
 14 44  1  0
 14 45  1  0
 18 46  1  0
 18 47  1  0
 19 48  1  0
 19 49  1  0
 23 50  1  0
 23 51  1  0
 25 52  1  0
 25 53  1  0
 26 54  1  0
 26 55  1  0
 28 56  1  0
 28 57  1  0
M  END
$$$$
