
     RDKit          3D

 46 49  0  0  0  0  0  0  0  0999 V2000
    3.6795   -4.9243   -0.0992 O   0  0  0  0  0  0  0  0  0  0  0  0
    3.9536   -4.3713   -1.1740 N   0  0  0  0  0  4  0  0  0  0  0  0
    4.2759   -4.9715   -2.2098 O   0  0  0  0  0  1  0  0  0  0  0  0
    3.8986   -2.9052   -1.2233 C   0  0  0  0  0  0  0  0  0  0  0  0
    4.3186   -2.2355   -2.3796 C   0  0  0  0  0  0  0  0  0  0  0  0
    4.2632   -0.8426   -2.4231 C   0  0  0  0  0  0  0  0  0  0  0  0
    3.7933   -0.1251   -1.3207 C   0  0  0  0  0  0  0  0  0  0  0  0
    3.3755   -0.7886   -0.1560 C   0  0  0  0  0  0  0  0  0  0  0  0
    2.8452    0.0014    1.0215 C   0  0  0  0  0  0  0  0  0  0  0  0
    1.4016    0.3705    0.8806 C   0  0  0  0  0  0  0  0  0  0  0  0
    0.1251   -0.8014    1.1275 S   0  0  0  0  0  0  0  0  0  0  0  0
   -1.1416    0.4246    0.7520 C   0  0  0  0  0  0  0  0  0  0  0  0
   -2.4161    0.1757    0.7506 N   0  0  0  0  0  0  0  0  0  0  0  0
   -2.9019   -1.1044    1.0393 C   0  0  0  0  0  0  0  0  0  0  0  0
   -3.2677   -1.4398    2.3456 C   0  0  0  0  0  0  0  0  0  0  0  0
   -3.7775   -2.7072    2.6342 C   0  0  0  0  0  0  0  0  0  0  0  0
   -3.9375   -3.6422    1.6122 C   0  0  0  0  0  0  0  0  0  0  0  0
   -3.5957   -3.3079    0.3024 C   0  0  0  0  0  0  0  0  0  0  0  0
   -3.0867   -2.0394    0.0170 C   0  0  0  0  0  0  0  0  0  0  0  0
   -0.5010    1.6483    0.4955 N   0  0  0  0  0  0  0  0  0  0  0  0
   -1.2371    2.8593    0.3467 C   0  0  0  0  0  0  0  0  0  0  0  0
   -2.3492    2.9313   -0.5074 C   0  0  0  0  0  0  0  0  0  0  0  0
   -3.0619    4.1231   -0.6681 C   0  0  0  0  0  0  0  0  0  0  0  0
   -2.6777    5.2658    0.0279 C   0  0  0  0  0  0  0  0  0  0  0  0
   -1.5859    5.2165    0.8896 C   0  0  0  0  0  0  0  0  0  0  0  0
   -0.8746    4.0240    1.0488 C   0  0  0  0  0  0  0  0  0  0  0  0
    0.8946    1.5758    0.5668 C   0  0  0  0  0  0  0  0  0  0  0  0
    1.7055    2.6381    0.2443 O   0  0  0  0  0  0  0  0  0  0  0  0
    3.4265   -2.1902   -0.1133 C   0  0  0  0  0  0  0  0  0  0  0  0
    4.6865   -2.7795   -3.2470 H   0  0  0  0  0  0  0  0  0  0  0  0
    4.5840   -0.3133   -3.3176 H   0  0  0  0  0  0  0  0  0  0  0  0
    3.7510    0.9622   -1.3739 H   0  0  0  0  0  0  0  0  0  0  0  0
    3.4652    0.8993    1.1449 H   0  0  0  0  0  0  0  0  0  0  0  0
    2.9955   -0.5678    1.9483 H   0  0  0  0  0  0  0  0  0  0  0  0
   -3.1537   -0.7081    3.1403 H   0  0  0  0  0  0  0  0  0  0  0  0
   -4.0524   -2.9618    3.6541 H   0  0  0  0  0  0  0  0  0  0  0  0
   -4.3344   -4.6291    1.8355 H   0  0  0  0  0  0  0  0  0  0  0  0
   -3.7281   -4.0319   -0.4970 H   0  0  0  0  0  0  0  0  0  0  0  0
   -2.8305   -1.7774   -1.0053 H   0  0  0  0  0  0  0  0  0  0  0  0
   -2.6715    2.0544   -1.0656 H   0  0  0  0  0  0  0  0  0  0  0  0
   -3.9214    4.1528   -1.3333 H   0  0  0  0  0  0  0  0  0  0  0  0
   -3.2373    6.1900   -0.0923 H   0  0  0  0  0  0  0  0  0  0  0  0
   -1.2949    6.1021    1.4492 H   0  0  0  0  0  0  0  0  0  0  0  0
   -0.0469    4.0051    1.7555 H   0  0  0  0  0  0  0  0  0  0  0  0
    1.1536    3.2582   -0.2644 H   0  0  0  0  0  0  0  0  0  0  0  0
    3.0905   -2.7129    0.7811 H   0  0  0  0  0  0  0  0  0  0  0  0
  1  2  2  0
  2  3  1  0
  2  4  1  0
  4  5  2  0
  5  6  1  0
  6  7  2  0
  7  8  1  0
  8  9  1  0
  9 10  1  0
 10 11  1  0
 11 12  1  0
 12 13  2  3
 13 14  1  0
 14 15  2  0
 15 16  1  0
 16 17  2  0
 17 18  1  0
 18 19  2  0
 12 20  1  0
 20 21  1  0
 21 22  2  0
 22 23  1  0
 23 24  2  0
 24 25  1  0
 25 26  2  0
 20 27  1  0
 27 28  1  0
  8 29  2  0
 29  4  1  0
 27 10  2  0
 19 14  1  0
 26 21  1  0
  5 30  1  0
  6 31  1  0
  7 32  1  0
  9 33  1  0
  9 34  1  0
 15 35  1  0
 16 36  1  0
 17 37  1  0
 18 38  1  0
 19 39  1  0
 22 40  1  0
 23 41  1  0
 24 42  1  0
 25 43  1  0
 26 44  1  0
 28 45  1  0
 29 46  1  0
M  CHG  2   2   1   3  -1
M  END
$$$$
