
     RDKit          3D

 56 58  0  0  0  0  0  0  0  0999 V2000
   -8.6573    1.3905    2.2115 C   0  0  0  0  0  0  0  0  0  0  0  0
   -8.0232    1.2266    0.9518 O   0  0  0  0  0  0  0  0  0  0  0  0
   -6.6631    1.0363    0.9428 C   0  0  0  0  0  0  0  0  0  0  0  0
   -5.8674    0.9653    2.0913 C   0  0  0  0  0  0  0  0  0  0  0  0
   -4.4882    0.7671    1.9874 C   0  0  0  0  0  0  0  0  0  0  0  0
   -3.8837    0.6404    0.7342 C   0  0  0  0  0  0  0  0  0  0  0  0
   -2.3982    0.4055    0.6155 C   0  0  0  0  0  0  0  0  0  0  0  0
   -2.0709   -1.0814    0.4555 C   0  0  0  0  0  0  0  0  0  0  0  0
   -0.6435   -1.3205    0.3518 N   0  0  0  0  0  0  0  0  0  0  0  0
    0.0318   -1.0887   -0.8201 C   0  0  0  0  0  0  0  0  0  0  0  0
   -0.5094   -0.7261   -1.8584 O   0  0  0  0  0  0  0  0  0  0  0  0
    1.5027   -1.3019   -0.7361 C   0  0  0  0  0  0  0  0  0  0  0  0
    2.2906   -0.5931   -1.5658 C   0  0  0  0  0  0  0  0  0  0  0  0
    3.7848   -0.6884   -1.6033 C   0  0  0  0  0  0  0  0  0  0  0  0
    4.3217   -1.5162   -0.4952 N   0  0  0  0  0  0  0  0  0  0  0  0
    4.8691   -0.6853    0.8849 S   0  0  0  0  0  6  0  0  0  0  0  0
    5.3916   -1.6574    1.8213 O   0  0  0  0  0  0  0  0  0  0  0  0
    3.8392    0.2516    1.2810 O   0  0  0  0  0  0  0  0  0  0  0  0
    6.2584    0.2318    0.2623 C   0  0  0  0  0  0  0  0  0  0  0  0
    7.3739   -0.4701   -0.2113 C   0  0  0  0  0  0  0  0  0  0  0  0
    8.4710    0.2389   -0.7005 C   0  0  0  0  0  0  0  0  0  0  0  0
    8.4422    1.6309   -0.7058 C   0  0  0  0  0  0  0  0  0  0  0  0
    9.4966    2.3085   -1.1772 F   0  0  0  0  0  0  0  0  0  0  0  0
    7.3374    2.3316   -0.2282 C   0  0  0  0  0  0  0  0  0  0  0  0
    6.2352    1.6311    0.2633 C   0  0  0  0  0  0  0  0  0  0  0  0
    3.4901   -2.7198   -0.2272 C   0  0  0  0  0  0  0  0  0  0  0  0
    2.0738   -2.3300    0.1960 C   0  0  0  0  0  0  0  0  0  0  0  0
   -4.6806    0.7072   -0.4190 C   0  0  0  0  0  0  0  0  0  0  0  0
   -6.0639    0.9051   -0.3257 C   0  0  0  0  0  0  0  0  0  0  0  0
   -6.9109    0.9814   -1.4044 O   0  0  0  0  0  0  0  0  0  0  0  0
   -6.3379    0.8766   -2.6998 C   0  0  0  0  0  0  0  0  0  0  0  0
   -8.5505    0.4914    2.8274 H   0  0  0  0  0  0  0  0  0  0  0  0
   -9.7257    1.5434    2.0309 H   0  0  0  0  0  0  0  0  0  0  0  0
   -8.2790    2.2759    2.7331 H   0  0  0  0  0  0  0  0  0  0  0  0
   -6.2907    1.0597    3.0854 H   0  0  0  0  0  0  0  0  0  0  0  0
   -3.8914    0.7147    2.8955 H   0  0  0  0  0  0  0  0  0  0  0  0
   -1.8859    0.8069    1.4995 H   0  0  0  0  0  0  0  0  0  0  0  0
   -2.0087    0.9820   -0.2332 H   0  0  0  0  0  0  0  0  0  0  0  0
   -2.5574   -1.4903   -0.4380 H   0  0  0  0  0  0  0  0  0  0  0  0
   -2.4288   -1.6520    1.3198 H   0  0  0  0  0  0  0  0  0  0  0  0
   -0.1230   -1.4452    1.2091 H   0  0  0  0  0  0  0  0  0  0  0  0
    1.8448    0.1191   -2.2584 H   0  0  0  0  0  0  0  0  0  0  0  0
    4.0969   -1.1408   -2.5515 H   0  0  0  0  0  0  0  0  0  0  0  0
    4.2109    0.3190   -1.5868 H   0  0  0  0  0  0  0  0  0  0  0  0
    7.3899   -1.5580   -0.1956 H   0  0  0  0  0  0  0  0  0  0  0  0
    9.3482   -0.2812   -1.0729 H   0  0  0  0  0  0  0  0  0  0  0  0
    7.3457    3.4175   -0.2394 H   0  0  0  0  0  0  0  0  0  0  0  0
    5.3739    2.1768    0.6428 H   0  0  0  0  0  0  0  0  0  0  0  0
    3.9600   -3.3543    0.5316 H   0  0  0  0  0  0  0  0  0  0  0  0
    3.4604   -3.3253   -1.1430 H   0  0  0  0  0  0  0  0  0  0  0  0
    1.4509   -3.2320    0.2006 H   0  0  0  0  0  0  0  0  0  0  0  0
    2.0839   -1.9321    1.2173 H   0  0  0  0  0  0  0  0  0  0  0  0
   -4.1927    0.6001   -1.3836 H   0  0  0  0  0  0  0  0  0  0  0  0
   -5.8700   -0.1024   -2.8467 H   0  0  0  0  0  0  0  0  0  0  0  0
   -7.1463    0.9704   -3.4315 H   0  0  0  0  0  0  0  0  0  0  0  0
   -5.6272    1.6888   -2.8852 H   0  0  0  0  0  0  0  0  0  0  0  0
  1  2  1  0
  2  3  1  0
  3  4  2  0
  4  5  1  0
  5  6  2  0
  6  7  1  0
  7  8  1  0
  8  9  1  0
  9 10  1  0
 10 11  2  0
 10 12  1  0
 12 13  2  0
 13 14  1  0
 14 15  1  0
 15 16  1  0
 16 17  2  0
 16 18  2  0
 16 19  1  0
 19 20  2  0
 20 21  1  0
 21 22  2  0
 22 23  1  0
 22 24  1  0
 24 25  2  0
 15 26  1  0
 26 27  1  0
  6 28  1  0
 28 29  2  0
 29 30  1  0
 30 31  1  0
 29  3  1  0
 27 12  1  0
 25 19  1  0
  1 32  1  0
  1 33  1  0
  1 34  1  0
  4 35  1  0
  5 36  1  0
  7 37  1  0
  7 38  1  0
  8 39  1  0
  8 40  1  0
  9 41  1  0
 13 42  1  0
 14 43  1  0
 14 44  1  0
 20 45  1  0
 21 46  1  0
 24 47  1  0
 25 48  1  0
 26 49  1  0
 26 50  1  0
 27 51  1  0
 27 52  1  0
 28 53  1  0
 31 54  1  0
 31 55  1  0
 31 56  1  0
M  END
$$$$
