
     RDKit          3D

 56 60  0  0  0  0  0  0  0  0999 V2000
   -0.8643   -1.6552   -2.1904 C   0  0  0  0  0  0  0  0  0  0  0  0
   -0.6987   -1.1230   -0.9736 C   0  0  0  0  0  0  0  0  0  0  0  0
    0.5804   -1.0099   -0.2428 C   0  0  0  0  0  0  0  0  0  0  0  0
    1.8077   -1.3141   -0.7029 C   0  0  0  0  0  0  0  0  0  0  0  0
    3.0519   -1.1797    0.0389 C   0  0  0  0  0  0  0  0  0  0  0  0
    3.4105   -2.0155    1.0181 C   0  0  0  0  0  0  0  0  0  0  0  0
    2.6486   -3.0929    1.3938 O   0  0  0  0  0  0  0  0  0  0  0  0
    4.5655   -1.8546    1.6953 N   0  0  0  0  0  0  0  0  0  0  0  0
    5.4826   -0.8723    1.4510 C   0  0  0  0  0  0  0  0  0  0  0  0
    6.5264   -0.9308    2.1036 O   0  0  0  0  0  0  0  0  0  0  0  0
    5.1555    0.0647    0.4644 N   0  0  0  0  0  0  0  0  0  0  0  0
    6.0566    1.1770    0.2194 C   0  0  0  0  0  0  0  0  0  0  0  0
    6.8456    1.7229    1.2494 C   0  0  0  0  0  0  0  0  0  0  0  0
    7.7028    2.8104    1.0242 C   0  0  0  0  0  0  0  0  0  0  0  0
    7.7891    3.3761   -0.2421 C   0  0  0  0  0  0  0  0  0  0  0  0
    8.8392    4.7150   -0.5232 Cl  0  0  0  0  0  0  0  0  0  0  0  0
    7.0271    2.8595   -1.2817 C   0  0  0  0  0  0  0  0  0  0  0  0
    6.1716    1.7699   -1.0503 C   0  0  0  0  0  0  0  0  0  0  0  0
    3.9639   -0.0290   -0.2709 C   0  0  0  0  0  0  0  0  0  0  0  0
    3.5790    0.7900   -1.1118 O   0  0  0  0  0  0  0  0  0  0  0  0
    0.2805   -0.4482    1.0706 C   0  0  0  0  0  0  0  0  0  0  0  0
   -1.0474   -0.2178    1.1116 C   0  0  0  0  0  0  0  0  0  0  0  0
   -1.7707    0.4275    2.2498 C   0  0  0  0  0  0  0  0  0  0  0  0
   -1.6744   -0.6081   -0.0947 N   0  0  0  0  0  0  0  0  0  0  0  0
   -3.0082   -0.4722   -0.3724 C   0  0  0  0  0  0  0  0  0  0  0  0
   -3.5716    0.7170   -1.4907 S   0  0  0  0  0  0  0  0  0  0  0  0
   -5.1936    0.2810   -1.2527 C   0  0  0  0  0  0  0  0  0  0  0  0
   -5.3426   -0.7600   -0.3573 C   0  0  0  0  0  0  0  0  0  0  0  0
   -4.0726   -1.1870    0.1554 C   0  0  0  0  0  0  0  0  0  0  0  0
   -3.9031   -2.2490    1.1036 C   0  0  0  0  0  0  0  0  0  0  0  0
   -3.8064   -3.1078    1.8820 N   0  0  0  0  0  0  0  0  0  0  0  0
   -6.6954   -1.3038    0.0099 C   0  0  0  0  0  0  0  0  0  0  0  0
   -7.7866   -0.8412   -0.9701 C   0  0  0  0  0  0  0  0  0  0  0  0
   -7.6540    0.6523   -1.3105 C   0  0  0  0  0  0  0  0  0  0  0  0
   -6.3106    0.9566   -1.9876 C   0  0  0  0  0  0  0  0  0  0  0  0
   -0.0376   -2.0456   -2.7715 H   0  0  0  0  0  0  0  0  0  0  0  0
   -1.8462   -1.7234   -2.6429 H   0  0  0  0  0  0  0  0  0  0  0  0
    1.9439   -1.6534   -1.7286 H   0  0  0  0  0  0  0  0  0  0  0  0
    2.8996   -3.3489    2.2967 H   0  0  0  0  0  0  0  0  0  0  0  0
    4.8665   -2.5278    2.3876 H   0  0  0  0  0  0  0  0  0  0  0  0
    6.7928    1.3428    2.2674 H   0  0  0  0  0  0  0  0  0  0  0  0
    8.2904    3.2096    1.8467 H   0  0  0  0  0  0  0  0  0  0  0  0
    7.0871    3.2933   -2.2770 H   0  0  0  0  0  0  0  0  0  0  0  0
    5.6204    1.3880   -1.9066 H   0  0  0  0  0  0  0  0  0  0  0  0
    0.9939   -0.2169    1.8439 H   0  0  0  0  0  0  0  0  0  0  0  0
   -2.3211    1.3107    1.9067 H   0  0  0  0  0  0  0  0  0  0  0  0
   -1.0745    0.7607    3.0334 H   0  0  0  0  0  0  0  0  0  0  0  0
   -2.4759   -0.2738    2.7162 H   0  0  0  0  0  0  0  0  0  0  0  0
   -6.6733   -2.4009    0.0317 H   0  0  0  0  0  0  0  0  0  0  0  0
   -6.9461   -0.9587    1.0224 H   0  0  0  0  0  0  0  0  0  0  0  0
   -7.7210   -1.4254   -1.8978 H   0  0  0  0  0  0  0  0  0  0  0  0
   -8.7726   -1.0357   -0.5331 H   0  0  0  0  0  0  0  0  0  0  0  0
   -7.7457    1.2379   -0.3860 H   0  0  0  0  0  0  0  0  0  0  0  0
   -8.4732    0.9615   -1.9700 H   0  0  0  0  0  0  0  0  0  0  0  0
   -6.3321    0.5799   -3.0173 H   0  0  0  0  0  0  0  0  0  0  0  0
   -6.1596    2.0405   -2.0370 H   0  0  0  0  0  0  0  0  0  0  0  0
  1  2  2  0
  2  3  1  0
  3  4  2  3
  4  5  1  0
  5  6  2  0
  6  7  1  0
  6  8  1  0
  8  9  1  0
  9 10  2  0
  9 11  1  0
 11 12  1  0
 12 13  2  0
 13 14  1  0
 14 15  2  0
 15 16  1  0
 15 17  1  0
 17 18  2  0
 11 19  1  0
 19 20  2  0
  3 21  1  0
 21 22  2  0
 22 23  1  0
 22 24  1  0
 24 25  1  0
 25 26  1  0
 26 27  1  0
 27 28  2  0
 28 29  1  0
 29 30  1  0
 30 31  3  0
 28 32  1  0
 32 33  1  0
 33 34  1  0
 34 35  1  0
 24  2  1  0
 29 25  2  0
 19  5  1  0
 35 27  1  0
 18 12  1  0
  1 36  1  0
  1 37  1  0
  4 38  1  0
  7 39  1  0
  8 40  1  0
 13 41  1  0
 14 42  1  0
 17 43  1  0
 18 44  1  0
 21 45  1  0
 23 46  1  0
 23 47  1  0
 23 48  1  0
 32 49  1  0
 32 50  1  0
 33 51  1  0
 33 52  1  0
 34 53  1  0
 34 54  1  0
 35 55  1  0
 35 56  1  0
M  END
$$$$
