
     RDKit          3D

 44 46  0  0  0  0  0  0  0  0999 V2000
    5.1577   -0.5281   -1.0487 C   0  0  0  0  0  0  0  0  0  0  0  0
    4.7589    0.6086   -0.0977 C   0  0  0  0  0  0  0  0  0  0  0  0
    4.1831    1.7891   -0.8901 C   0  0  0  0  0  0  0  0  0  0  0  0
    6.0168    1.0945    0.6460 C   0  0  0  0  0  0  0  0  0  0  0  0
    3.7377    0.0643    0.9259 C   0  0  0  0  0  0  0  0  0  0  0  0
    4.0540   -0.1306    2.1046 O   0  0  0  0  0  0  0  0  0  0  0  0
    2.3357   -0.2756    0.4518 C   0  0  0  0  0  0  0  0  0  0  0  0
    1.1834    1.0337    0.9702 S   0  0  0  0  0  0  0  0  0  0  0  0
   -0.3768    0.3220    0.4430 C   0  0  0  0  0  0  0  0  0  0  0  0
   -0.2745   -0.7345   -0.4073 N   0  0  0  0  0  0  0  0  0  0  0  0
   -1.4256   -1.2850   -0.8157 C   0  0  0  0  0  0  0  0  0  0  0  0
   -2.6859   -0.8471   -0.4423 C   0  0  0  0  0  0  0  0  0  0  0  0
   -2.7997    0.2474    0.4050 C   0  0  0  0  0  0  0  0  0  0  0  0
   -4.1218    0.7360    0.7982 C   0  0  0  0  0  0  0  0  0  0  0  0
   -4.8260    0.4890    1.9600 C   0  0  0  0  0  0  0  0  0  0  0  0
   -6.0859    1.1562    1.9777 C   0  0  0  0  0  0  0  0  0  0  0  0
   -6.2992    1.8870    0.8302 C   0  0  0  0  0  0  0  0  0  0  0  0
   -4.9868    1.7687   -0.2602 S   0  0  0  0  0  0  0  0  0  0  0  0
   -1.6105    0.8469    0.8687 C   0  0  0  0  0  0  0  0  0  0  0  0
   -1.6667    1.9746    1.7537 C   0  0  0  0  0  0  0  0  0  0  0  0
   -1.7336    2.8833    2.4734 N   0  0  0  0  0  0  0  0  0  0  0  0
   -3.7479   -1.6666   -1.1070 C   0  0  0  0  0  0  0  0  0  0  0  0
   -2.9492   -2.9067   -1.5366 C   0  0  0  0  0  0  0  0  0  0  0  0
   -1.5118   -2.4340   -1.7801 C   0  0  0  0  0  0  0  0  0  0  0  0
    4.3120   -0.8649   -1.6579 H   0  0  0  0  0  0  0  0  0  0  0  0
    5.5208   -1.3988   -0.4895 H   0  0  0  0  0  0  0  0  0  0  0  0
    5.9520   -0.2121   -1.7349 H   0  0  0  0  0  0  0  0  0  0  0  0
    4.9354    2.2181   -1.5619 H   0  0  0  0  0  0  0  0  0  0  0  0
    3.8415    2.5852   -0.2190 H   0  0  0  0  0  0  0  0  0  0  0  0
    3.3310    1.4912   -1.5099 H   0  0  0  0  0  0  0  0  0  0  0  0
    6.7604    1.4987   -0.0502 H   0  0  0  0  0  0  0  0  0  0  0  0
    5.7696    1.8825    1.3672 H   0  0  0  0  0  0  0  0  0  0  0  0
    6.4931    0.2787    1.2023 H   0  0  0  0  0  0  0  0  0  0  0  0
    2.0571   -1.2332    0.9051 H   0  0  0  0  0  0  0  0  0  0  0  0
    2.3198   -0.4001   -0.6332 H   0  0  0  0  0  0  0  0  0  0  0  0
   -4.4571   -0.1345    2.7657 H   0  0  0  0  0  0  0  0  0  0  0  0
   -6.7968    1.1073    2.7941 H   0  0  0  0  0  0  0  0  0  0  0  0
   -7.1611    2.4909    0.5800 H   0  0  0  0  0  0  0  0  0  0  0  0
   -4.1462   -1.1359   -1.9778 H   0  0  0  0  0  0  0  0  0  0  0  0
   -4.5611   -1.9409   -0.4288 H   0  0  0  0  0  0  0  0  0  0  0  0
   -2.9534   -3.6392   -0.7172 H   0  0  0  0  0  0  0  0  0  0  0  0
   -3.3820   -3.4003   -2.4123 H   0  0  0  0  0  0  0  0  0  0  0  0
   -1.3800   -2.0698   -2.8039 H   0  0  0  0  0  0  0  0  0  0  0  0
   -0.7800   -3.2158   -1.5610 H   0  0  0  0  0  0  0  0  0  0  0  0
  1  2  1  0
  2  3  1  0
  2  4  1  0
  2  5  1  0
  5  6  2  0
  5  7  1  0
  7  8  1  0
  8  9  1  0
  9 10  2  0
 10 11  1  0
 11 12  2  0
 12 13  1  0
 13 14  1  0
 14 15  2  0
 15 16  1  0
 16 17  2  0
 17 18  1  0
 13 19  2  0
 19 20  1  0
 20 21  3  0
 12 22  1  0
 22 23  1  0
 23 24  1  0
 19  9  1  0
 24 11  1  0
 18 14  1  0
  1 25  1  0
  1 26  1  0
  1 27  1  0
  3 28  1  0
  3 29  1  0
  3 30  1  0
  4 31  1  0
  4 32  1  0
  4 33  1  0
  7 34  1  0
  7 35  1  0
 15 36  1  0
 16 37  1  0
 17 38  1  0
 22 39  1  0
 22 40  1  0
 23 41  1  0
 23 42  1  0
 24 43  1  0
 24 44  1  0
M  END
$$$$
