
     RDKit          3D

 45 47  0  0  0  0  0  0  0  0999 V2000
   -1.8203    3.6387   -0.8904 C   0  0  0  0  0  0  0  0  0  0  0  0
   -0.7124    2.6825   -0.6200 C   0  0  0  0  0  0  0  0  0  0  0  0
    0.9184    3.2110   -0.7135 S   0  0  0  0  0  0  0  0  0  0  0  0
    1.4619    1.6738   -0.2456 C   0  0  0  0  0  0  0  0  0  0  0  0
    2.7804    1.3253   -0.0813 N   0  0  0  0  0  0  0  0  0  0  0  0
    3.9611    2.0052   -0.2327 C   0  0  0  0  0  0  0  0  0  0  0  0
    4.2638    3.5817   -0.7010 S   0  0  0  0  0  0  0  0  0  0  0  0
    5.0992    1.2597    0.0493 N   0  0  0  0  0  0  0  0  0  0  0  0
    5.2247   -0.0628    0.4614 C   0  0  0  0  0  0  0  0  0  0  0  0
    4.2372   -0.7768    0.6353 O   0  0  0  0  0  0  0  0  0  0  0  0
    6.5867   -0.5373    0.6703 C   0  0  0  0  0  0  0  0  0  0  0  0
    6.9659   -1.8048    1.0757 C   0  0  0  0  0  0  0  0  0  0  0  0
    8.3792   -1.9475    1.1855 C   0  0  0  0  0  0  0  0  0  0  0  0
    9.0388   -0.7843    0.8606 C   0  0  0  0  0  0  0  0  0  0  0  0
    7.9569    0.4658    0.4277 S   0  0  0  0  0  0  0  0  0  0  0  0
    0.5190    0.7878   -0.0305 N   0  0  0  0  0  0  0  0  0  0  0  0
   -0.7291    1.3422   -0.2707 C   0  0  0  0  0  0  0  0  0  0  0  0
   -1.9291    0.5341   -0.1063 C   0  0  0  0  0  0  0  0  0  0  0  0
   -2.0594   -0.2784    1.0250 C   0  0  0  0  0  0  0  0  0  0  0  0
   -3.1991   -1.0677    1.2074 C   0  0  0  0  0  0  0  0  0  0  0  0
   -4.2290   -1.0691    0.2561 C   0  0  0  0  0  0  0  0  0  0  0  0
   -5.4556   -1.9373    0.4738 C   0  0  0  0  0  0  0  0  0  0  0  0
   -6.7325   -1.0974    0.5597 C   0  0  0  0  0  0  0  0  0  0  0  0
   -5.5816   -3.0123   -0.6085 C   0  0  0  0  0  0  0  0  0  0  0  0
   -4.0853   -0.2677   -0.8859 C   0  0  0  0  0  0  0  0  0  0  0  0
   -2.9450    0.5222   -1.0679 C   0  0  0  0  0  0  0  0  0  0  0  0
   -2.1413    3.5631   -1.9342 H   0  0  0  0  0  0  0  0  0  0  0  0
   -1.5194    4.6750   -0.7028 H   0  0  0  0  0  0  0  0  0  0  0  0
   -2.6819    3.4330   -0.2471 H   0  0  0  0  0  0  0  0  0  0  0  0
    2.8575    0.3509    0.2098 H   0  0  0  0  0  0  0  0  0  0  0  0
    5.9633    1.7742   -0.0679 H   0  0  0  0  0  0  0  0  0  0  0  0
    6.2522   -2.5950    1.2837 H   0  0  0  0  0  0  0  0  0  0  0  0
    8.8846   -2.8573    1.4872 H   0  0  0  0  0  0  0  0  0  0  0  0
   10.1063   -0.6080    0.8566 H   0  0  0  0  0  0  0  0  0  0  0  0
   -1.2686   -0.3014    1.7724 H   0  0  0  0  0  0  0  0  0  0  0  0
   -3.2698   -1.6860    2.0996 H   0  0  0  0  0  0  0  0  0  0  0  0
   -5.3487   -2.4578    1.4348 H   0  0  0  0  0  0  0  0  0  0  0  0
   -6.9515   -0.5859   -0.3839 H   0  0  0  0  0  0  0  0  0  0  0  0
   -6.6471   -0.3341    1.3412 H   0  0  0  0  0  0  0  0  0  0  0  0
   -7.5934   -1.7301    0.8019 H   0  0  0  0  0  0  0  0  0  0  0  0
   -5.7495   -2.5778   -1.6000 H   0  0  0  0  0  0  0  0  0  0  0  0
   -6.4223   -3.6801   -0.3916 H   0  0  0  0  0  0  0  0  0  0  0  0
   -4.6734   -3.6230   -0.6612 H   0  0  0  0  0  0  0  0  0  0  0  0
   -4.8570   -0.2567   -1.6523 H   0  0  0  0  0  0  0  0  0  0  0  0
   -2.8549    1.1104   -1.9773 H   0  0  0  0  0  0  0  0  0  0  0  0
  1  2  1  0
  2  3  1  0
  3  4  1  0
  4  5  1  0
  5  6  1  0
  6  7  2  0
  6  8  1  0
  8  9  1  0
  9 10  2  0
  9 11  1  0
 11 12  2  0
 12 13  1  0
 13 14  2  0
 14 15  1  0
  4 16  2  0
 16 17  1  0
 17 18  1  0
 18 19  2  0
 19 20  1  0
 20 21  2  0
 21 22  1  0
 22 23  1  0
 22 24  1  0
 21 25  1  0
 25 26  2  0
 17  2  2  0
 26 18  1  0
 15 11  1  0
  1 27  1  0
  1 28  1  0
  1 29  1  0
  5 30  1  0
  8 31  1  0
 12 32  1  0
 13 33  1  0
 14 34  1  0
 19 35  1  0
 20 36  1  0
 22 37  1  0
 23 38  1  0
 23 39  1  0
 23 40  1  0
 24 41  1  0
 24 42  1  0
 24 43  1  0
 25 44  1  0
 26 45  1  0
M  END
$$$$
