
     RDKit          3D

 68 73  0  0  0  0  0  0  0  0999 V2000
   -3.3482    4.8791   -1.9248 C   0  0  0  0  0  0  0  0  0  0  0  0
   -2.5904    3.7234   -1.5924 O   0  0  0  0  0  0  0  0  0  0  0  0
   -2.6595    3.2830   -0.2986 C   0  0  0  0  0  0  0  0  0  0  0  0
   -3.3611    3.9123    0.7461 C   0  0  0  0  0  0  0  0  0  0  0  0
   -3.3662    3.3703    2.0369 C   0  0  0  0  0  0  0  0  0  0  0  0
   -2.6561    2.2074    2.2446 C   0  0  0  0  0  0  0  0  0  0  0  0
   -1.9397    1.5717    1.2287 C   0  0  0  0  0  0  0  0  0  0  0  0
   -1.9465    2.1023   -0.0544 C   0  0  0  0  0  0  0  0  0  0  0  0
   -1.2857    0.3363    1.7936 C   0  0  1  0  0  0  0  0  0  0  0  0
   -1.7719    0.3490    3.2753 C   0  0  0  0  0  0  0  0  0  0  0  0
   -1.5462   -0.4527    4.1690 O   0  0  0  0  0  0  0  0  0  0  0  0
   -2.5579    1.4947    3.4299 N   0  0  0  0  0  0  0  0  0  0  0  0
   -1.7807   -0.8167    1.0081 C   0  0  0  0  0  0  0  0  0  0  0  0
   -0.7200   -1.5485    0.4778 C   0  0  0  0  0  0  0  0  0  0  0  0
   -1.2202   -2.6081   -0.2319 C   0  0  0  0  0  0  0  0  0  0  0  0
   -0.5734   -3.5403   -0.9272 O   0  0  0  0  0  0  0  0  0  0  0  0
   -2.6311   -2.5378   -0.1635 N   0  0  0  0  0  0  0  0  0  0  0  0
   -3.5625   -3.4427   -0.7851 C   0  0  0  0  0  0  0  0  0  0  0  0
   -4.8704   -3.0338   -1.0860 C   0  0  0  0  0  0  0  0  0  0  0  0
   -5.7743   -3.9122   -1.6938 C   0  0  0  0  0  0  0  0  0  0  0  0
   -5.3859   -5.2105   -2.0086 C   0  0  0  0  0  0  0  0  0  0  0  0
   -4.0925   -5.6313   -1.7158 C   0  0  0  0  0  0  0  0  0  0  0  0
   -3.1862   -4.7546   -1.1092 C   0  0  0  0  0  0  0  0  0  0  0  0
   -2.9576   -1.4114    0.6269 C   0  0  0  0  0  0  0  0  0  0  0  0
   -4.2104   -1.0839    0.9368 O   0  0  0  0  0  0  0  0  0  0  0  0
    0.5868   -0.9709    0.8574 C   0  0  1  0  0  0  0  0  0  0  0  0
    1.4778   -0.5680   -0.3313 C   0  0  0  0  0  0  0  0  0  0  0  0
    2.6569    0.1761    0.1152 N   0  0  0  0  0  0  0  0  0  0  0  0
    3.8824   -0.0535   -0.4737 C   0  0  0  0  0  0  0  0  0  0  0  0
    4.0471   -0.8251   -1.4090 O   0  0  0  0  0  0  0  0  0  0  0  0
    4.8684    0.6696    0.1155 O   0  0  0  0  0  0  0  0  0  0  0  0
    6.2423    0.5721   -0.3391 C   0  0  0  0  0  0  0  0  0  0  0  0
    6.3866    1.0482   -1.7886 C   0  0  0  0  0  0  0  0  0  0  0  0
    7.0211    1.5339    0.5714 C   0  0  0  0  0  0  0  0  0  0  0  0
    6.7955   -0.8435   -0.1414 C   0  0  0  0  0  0  0  0  0  0  0  0
    2.4819    1.0714    1.2632 C   0  0  0  0  0  0  0  0  0  0  0  0
    0.9990    1.3945    1.5338 C   0  0  0  0  0  0  0  0  0  0  0  0
    0.1984    0.1878    1.7313 N   0  0  0  0  0  0  0  0  0  0  0  0
   -2.9895    5.7557   -1.3760 H   0  0  0  0  0  0  0  0  0  0  0  0
   -3.2090    5.0745   -2.9924 H   0  0  0  0  0  0  0  0  0  0  0  0
   -4.4168    4.7146   -1.7527 H   0  0  0  0  0  0  0  0  0  0  0  0
   -3.9181    4.8295    0.5799 H   0  0  0  0  0  0  0  0  0  0  0  0
   -3.9159    3.8542    2.8367 H   0  0  0  0  0  0  0  0  0  0  0  0
   -1.4123    1.6117   -0.8636 H   0  0  0  0  0  0  0  0  0  0  0  0
   -2.9862    1.7390    4.3107 H   0  0  0  0  0  0  0  0  0  0  0  0
    0.3830   -3.4097   -0.8108 H   0  0  0  0  0  0  0  0  0  0  0  0
   -5.2110   -2.0215   -0.8934 H   0  0  0  0  0  0  0  0  0  0  0  0
   -6.7811   -3.5743   -1.9250 H   0  0  0  0  0  0  0  0  0  0  0  0
   -6.0884   -5.8919   -2.4800 H   0  0  0  0  0  0  0  0  0  0  0  0
   -3.7840   -6.6464   -1.9521 H   0  0  0  0  0  0  0  0  0  0  0  0
   -2.2014   -5.1427   -0.8688 H   0  0  0  0  0  0  0  0  0  0  0  0
   -4.1912   -0.2946    1.5042 H   0  0  0  0  0  0  0  0  0  0  0  0
    1.1327   -1.6836    1.4887 H   0  0  0  0  0  0  0  0  0  0  0  0
    0.9337    0.0847   -1.0262 H   0  0  0  0  0  0  0  0  0  0  0  0
    1.7770   -1.4553   -0.9000 H   0  0  0  0  0  0  0  0  0  0  0  0
    5.9054    2.0228   -1.9273 H   0  0  0  0  0  0  0  0  0  0  0  0
    5.9119    0.3607   -2.4950 H   0  0  0  0  0  0  0  0  0  0  0  0
    7.4401    1.1355   -2.0757 H   0  0  0  0  0  0  0  0  0  0  0  0
    6.9110    1.2493    1.6241 H   0  0  0  0  0  0  0  0  0  0  0  0
    6.6297    2.5541    0.4851 H   0  0  0  0  0  0  0  0  0  0  0  0
    8.0885    1.5512    0.3277 H   0  0  0  0  0  0  0  0  0  0  0  0
    6.6066   -1.1953    0.8791 H   0  0  0  0  0  0  0  0  0  0  0  0
    7.8742   -0.8796   -0.3283 H   0  0  0  0  0  0  0  0  0  0  0  0
    6.3232   -1.5655   -0.8141 H   0  0  0  0  0  0  0  0  0  0  0  0
    2.9306    0.5777    2.1340 H   0  0  0  0  0  0  0  0  0  0  0  0
    3.0374    1.9986    1.0830 H   0  0  0  0  0  0  0  0  0  0  0  0
    0.6436    1.9738    0.6755 H   0  0  0  0  0  0  0  0  0  0  0  0
    0.9269    2.0350    2.4199 H   0  0  0  0  0  0  0  0  0  0  0  0
  1  2  1  0
  2  3  1  0
  3  4  2  0
  4  5  1  0
  5  6  2  0
  6  7  1  0
  7  8  2  0
  7  9  1  0
  9 10  1  0
 10 11  2  0
 10 12  1  0
  9 13  1  0
 13 14  1  0
 14 15  2  0
 15 16  1  0
 15 17  1  0
 17 18  1  0
 18 19  2  0
 19 20  1  0
 20 21  2  0
 21 22  1  0
 22 23  2  0
 17 24  1  0
 24 25  1  0
 14 26  1  0
 26 27  1  0
 27 28  1  0
 28 29  1  0
 29 30  2  0
 29 31  1  0
 31 32  1  0
 32 33  1  0
 32 34  1  0
 32 35  1  0
 28 36  1  0
 36 37  1  0
 37 38  1  0
  8  3  1  0
  9 38  1  1
 12  6  1  0
 24 13  2  0
 38 26  1  0
 23 18  1  0
  1 39  1  0
  1 40  1  0
  1 41  1  0
  4 42  1  0
  5 43  1  0
  8 44  1  0
 12 45  1  0
 16 46  1  0
 19 47  1  0
 20 48  1  0
 21 49  1  0
 22 50  1  0
 23 51  1  0
 25 52  1  0
 26 53  1  1
 27 54  1  0
 27 55  1  0
 33 56  1  0
 33 57  1  0
 33 58  1  0
 34 59  1  0
 34 60  1  0
 34 61  1  0
 35 62  1  0
 35 63  1  0
 35 64  1  0
 36 65  1  0
 36 66  1  0
 37 67  1  0
 37 68  1  0
M  END
$$$$
