
     RDKit          3D

 42 44  0  0  0  0  0  0  0  0999 V2000
    5.5376   -0.4265   -0.8254 C   0  0  0  0  0  0  0  0  0  0  0  0
    4.4994    0.3091    0.0125 C   0  0  0  0  0  0  0  0  0  0  0  0
    3.7678   -0.5863    1.0177 C   0  0  0  0  0  0  0  0  0  0  0  0
    2.7734   -1.9051    0.2238 S   0  0  0  0  0  0  0  0  0  0  0  0
    1.1803   -1.1052    0.0927 C   0  0  0  0  0  0  0  0  0  0  0  0
    0.0533   -1.8956    0.0425 C   0  0  0  0  0  0  0  0  0  0  0  0
   -1.1686   -1.2611   -0.0229 C   0  0  0  0  0  0  0  0  0  0  0  0
   -2.3509   -1.9693   -0.0497 N   0  0  0  0  0  0  0  0  0  0  0  0
   -2.5004   -3.3117    0.5220 C   0  0  0  0  0  0  0  0  0  0  0  0
   -3.9606   -3.3730    0.9644 C   0  0  0  0  0  0  0  0  0  0  0  0
   -4.6519   -2.3622    0.0591 C   0  0  0  0  0  0  0  0  0  0  0  0
   -3.6179   -1.2432   -0.0393 C   0  0  0  0  0  0  0  0  0  0  0  0
   -1.2291    0.0798   -0.0883 N   0  0  0  0  0  0  0  0  0  0  0  0
   -0.0775    0.7824   -0.0785 C   0  0  0  0  0  0  0  0  0  0  0  0
   -0.1650    2.2560   -0.1998 C   0  0  0  0  0  0  0  0  0  0  0  0
   -1.4057    2.9241   -0.1706 C   0  0  0  0  0  0  0  0  0  0  0  0
   -1.4940    4.3147   -0.2995 C   0  0  0  0  0  0  0  0  0  0  0  0
   -0.3383    5.0754   -0.4645 C   0  0  0  0  0  0  0  0  0  0  0  0
    0.9027    4.4466   -0.4958 C   0  0  0  0  0  0  0  0  0  0  0  0
    0.9863    3.0552   -0.3630 C   0  0  0  0  0  0  0  0  0  0  0  0
    1.1421    0.2339    0.0261 N   0  0  0  0  0  0  0  0  0  0  0  0
    6.1350    0.3017   -1.3898 H   0  0  0  0  0  0  0  0  0  0  0  0
    5.0684   -1.0987   -1.5546 H   0  0  0  0  0  0  0  0  0  0  0  0
    6.2218   -1.0084   -0.1996 H   0  0  0  0  0  0  0  0  0  0  0  0
    5.0075    1.1101    0.5658 H   0  0  0  0  0  0  0  0  0  0  0  0
    3.7877    0.8084   -0.6583 H   0  0  0  0  0  0  0  0  0  0  0  0
    3.1395    0.0150    1.6816 H   0  0  0  0  0  0  0  0  0  0  0  0
    4.4999   -1.0777    1.6660 H   0  0  0  0  0  0  0  0  0  0  0  0
    0.1326   -2.9751    0.0580 H   0  0  0  0  0  0  0  0  0  0  0  0
   -2.2975   -4.0664   -0.2480 H   0  0  0  0  0  0  0  0  0  0  0  0
   -1.8444   -3.4929    1.3856 H   0  0  0  0  0  0  0  0  0  0  0  0
   -4.0447   -3.0546    2.0108 H   0  0  0  0  0  0  0  0  0  0  0  0
   -4.3807   -4.3796    0.8809 H   0  0  0  0  0  0  0  0  0  0  0  0
   -5.6073   -2.0129    0.4601 H   0  0  0  0  0  0  0  0  0  0  0  0
   -4.8270   -2.8024   -0.9286 H   0  0  0  0  0  0  0  0  0  0  0  0
   -3.7687   -0.6527   -0.9514 H   0  0  0  0  0  0  0  0  0  0  0  0
   -3.6883   -0.5880    0.8400 H   0  0  0  0  0  0  0  0  0  0  0  0
   -2.3239    2.3557   -0.0495 H   0  0  0  0  0  0  0  0  0  0  0  0
   -2.4666    4.8003   -0.2769 H   0  0  0  0  0  0  0  0  0  0  0  0
   -0.4053    6.1559   -0.5775 H   0  0  0  0  0  0  0  0  0  0  0  0
    1.8095    5.0347   -0.6315 H   0  0  0  0  0  0  0  0  0  0  0  0
    1.9696    2.5897   -0.3982 H   0  0  0  0  0  0  0  0  0  0  0  0
  1  2  1  0
  2  3  1  0
  3  4  1  0
  4  5  1  0
  5  6  2  0
  6  7  1  0
  7  8  1  0
  8  9  1  0
  9 10  1  0
 10 11  1  0
 11 12  1  0
  7 13  2  0
 13 14  1  0
 14 15  1  0
 15 16  2  0
 16 17  1  0
 17 18  2  0
 18 19  1  0
 19 20  2  0
 14 21  2  0
 21  5  1  0
 12  8  1  0
 20 15  1  0
  1 22  1  0
  1 23  1  0
  1 24  1  0
  2 25  1  0
  2 26  1  0
  3 27  1  0
  3 28  1  0
  6 29  1  0
  9 30  1  0
  9 31  1  0
 10 32  1  0
 10 33  1  0
 11 34  1  0
 11 35  1  0
 12 36  1  0
 12 37  1  0
 16 38  1  0
 17 39  1  0
 18 40  1  0
 19 41  1  0
 20 42  1  0
M  END
$$$$
