
     RDKit          3D

 43 45  0  0  0  0  0  0  0  0999 V2000
    7.3812    0.9968    0.7414 C   0  0  0  0  0  0  0  0  0  0  0  0
    5.9722    1.1821    0.7092 O   0  0  0  0  0  0  0  0  0  0  0  0
    5.2473    0.3042   -0.0507 C   0  0  0  0  0  0  0  0  0  0  0  0
    5.7562   -0.8075   -0.7207 C   0  0  0  0  0  0  0  0  0  0  0  0
    4.8972   -1.6404   -1.4384 C   0  0  0  0  0  0  0  0  0  0  0  0
    3.5313   -1.3580   -1.4956 C   0  0  0  0  0  0  0  0  0  0  0  0
    3.0109   -0.2290   -0.8538 C   0  0  0  0  0  0  0  0  0  0  0  0
    1.6147   -0.0302   -0.9278 N   0  0  0  0  0  0  0  0  0  0  0  0
    0.8499    1.1203   -0.7815 C   0  0  0  0  0  0  0  0  0  0  0  0
    1.4144    2.6872   -1.0144 S   0  0  0  0  0  0  0  0  0  0  0  0
   -0.4950    0.8239   -0.4842 N   0  0  0  0  0  0  0  0  0  0  0  0
   -1.5678    1.8383   -0.5811 C   0  0  0  0  0  0  0  0  0  0  0  0
   -2.9755    1.2176   -0.5952 C   0  0  0  0  0  0  0  0  0  0  0  0
   -3.2024    0.4239    0.6229 N   0  0  0  0  0  0  0  0  0  0  0  0
   -4.4679   -0.1420    0.7478 C   0  0  0  0  0  0  0  0  0  0  0  0
   -4.8654   -0.7519    1.9397 C   0  0  0  0  0  0  0  0  0  0  0  0
   -6.1430   -1.2996    2.0575 C   0  0  0  0  0  0  0  0  0  0  0  0
   -7.0127   -1.2222    0.9828 C   0  0  0  0  0  0  0  0  0  0  0  0
   -6.5630   -0.5909   -0.1599 C   0  0  0  0  0  0  0  0  0  0  0  0
   -5.3282   -0.0552   -0.2914 N   0  0  0  0  0  0  0  0  0  0  0  0
   -2.0446   -0.3106    1.1564 C   0  0  0  0  0  0  0  0  0  0  0  0
   -0.9135   -0.4575    0.1177 C   0  0  0  0  0  0  0  0  0  0  0  0
    3.8754    0.5819   -0.1153 C   0  0  0  0  0  0  0  0  0  0  0  0
    7.6420    0.0438    1.2133 H   0  0  0  0  0  0  0  0  0  0  0  0
    7.8142    1.0736   -0.2616 H   0  0  0  0  0  0  0  0  0  0  0  0
    7.8100    1.7979    1.3511 H   0  0  0  0  0  0  0  0  0  0  0  0
    6.8109   -1.0591   -0.6951 H   0  0  0  0  0  0  0  0  0  0  0  0
    5.2929   -2.5117   -1.9540 H   0  0  0  0  0  0  0  0  0  0  0  0
    2.8858   -2.0229   -2.0633 H   0  0  0  0  0  0  0  0  0  0  0  0
    1.0994   -0.7858   -1.3590 H   0  0  0  0  0  0  0  0  0  0  0  0
   -1.4263    2.4294   -1.4918 H   0  0  0  0  0  0  0  0  0  0  0  0
   -1.4632    2.5047    0.2840 H   0  0  0  0  0  0  0  0  0  0  0  0
   -3.0767    0.5848   -1.4870 H   0  0  0  0  0  0  0  0  0  0  0  0
   -3.7109    2.0289   -0.6612 H   0  0  0  0  0  0  0  0  0  0  0  0
   -4.1982   -0.7809    2.7942 H   0  0  0  0  0  0  0  0  0  0  0  0
   -6.4530   -1.7696    2.9859 H   0  0  0  0  0  0  0  0  0  0  0  0
   -8.0146   -1.6312    1.0361 H   0  0  0  0  0  0  0  0  0  0  0  0
   -7.2021   -0.4905   -1.0322 H   0  0  0  0  0  0  0  0  0  0  0  0
   -2.3099   -1.3178    1.4991 H   0  0  0  0  0  0  0  0  0  0  0  0
   -1.6661    0.2422    2.0246 H   0  0  0  0  0  0  0  0  0  0  0  0
   -1.2492   -1.0953   -0.7090 H   0  0  0  0  0  0  0  0  0  0  0  0
   -0.0610   -0.9496    0.5972 H   0  0  0  0  0  0  0  0  0  0  0  0
    3.5039    1.4278    0.4541 H   0  0  0  0  0  0  0  0  0  0  0  0
  1  2  1  0
  2  3  1  0
  3  4  2  0
  4  5  1  0
  5  6  2  0
  6  7  1  0
  7  8  1  0
  8  9  1  0
  9 10  2  0
  9 11  1  0
 11 12  1  0
 12 13  1  0
 13 14  1  0
 14 15  1  0
 15 16  2  0
 16 17  1  0
 17 18  2  0
 18 19  1  0
 19 20  2  0
 14 21  1  0
 21 22  1  0
  7 23  2  0
 23  3  1  0
 22 11  1  0
 20 15  1  0
  1 24  1  0
  1 25  1  0
  1 26  1  0
  4 27  1  0
  5 28  1  0
  6 29  1  0
  8 30  1  0
 12 31  1  0
 12 32  1  0
 13 33  1  0
 13 34  1  0
 16 35  1  0
 17 36  1  0
 18 37  1  0
 19 38  1  0
 21 39  1  0
 21 40  1  0
 22 41  1  0
 22 42  1  0
 23 43  1  0
M  END
$$$$
