
     RDKit          3D

 51 53  0  0  0  0  0  0  0  0999 V2000
   -5.3671   -2.0921   -1.9371 C   0  0  0  0  0  0  0  0  0  0  0  0
   -4.5205   -0.9974   -2.2547 O   0  0  0  0  0  0  0  0  0  0  0  0
   -3.5953   -0.6109   -1.3162 C   0  0  0  0  0  0  0  0  0  0  0  0
   -3.4196   -1.2342   -0.0758 C   0  0  0  0  0  0  0  0  0  0  0  0
   -2.4424   -0.7816    0.8240 C   0  0  0  0  0  0  0  0  0  0  0  0
   -1.6410    0.3233    0.4887 C   0  0  0  0  0  0  0  0  0  0  0  0
   -1.8239    0.9499   -0.7580 C   0  0  0  0  0  0  0  0  0  0  0  0
   -2.7870    0.4889   -1.6622 C   0  0  0  0  0  0  0  0  0  0  0  0
   -3.0177    1.0423   -2.8977 O   0  0  0  0  0  0  0  0  0  0  0  0
   -2.1656    2.0975   -3.3188 C   0  0  0  0  0  0  0  0  0  0  0  0
   -0.5556    0.8253    1.4373 C   0  0  0  0  0  0  0  0  0  0  0  0
    0.8847    0.5421    1.0014 C   0  0  0  0  0  0  0  0  0  0  0  0
    1.2199   -0.4736    0.0856 C   0  0  0  0  0  0  0  0  0  0  0  0
    2.5474   -0.6977   -0.2909 C   0  0  0  0  0  0  0  0  0  0  0  0
    2.9576   -1.6534   -1.1852 O   0  0  0  0  0  0  0  0  0  0  0  0
    1.9663   -2.5179   -1.7225 C   0  0  0  0  0  0  0  0  0  0  0  0
    3.5554    0.1067    0.2651 C   0  0  0  0  0  0  0  0  0  0  0  0
    4.8711   -0.1363   -0.0667 O   0  0  0  0  0  0  0  0  0  0  0  0
    5.2429    0.6724   -1.1810 C   0  0  0  0  0  0  0  0  0  0  0  0
    3.2567    1.0958    1.2149 C   0  0  0  0  0  0  0  0  0  0  0  0
    4.3178    1.8057    1.7154 O   0  0  0  0  0  0  0  0  0  0  0  0
    4.0881    2.5518    2.9032 C   0  0  0  0  0  0  0  0  0  0  0  0
    1.9220    1.3122    1.5652 C   0  0  0  0  0  0  0  0  0  0  0  0
   -0.7794    0.3984    2.8341 N   0  0  0  0  0  0  0  0  0  0  0  0
   -1.0152   -1.0480    2.9004 C   0  0  0  0  0  0  0  0  0  0  0  0
   -2.3027   -1.4467    2.1718 C   0  0  0  0  0  0  0  0  0  0  0  0
   -5.9877   -1.8715   -1.0624 H   0  0  0  0  0  0  0  0  0  0  0  0
   -6.0375   -2.2542   -2.7868 H   0  0  0  0  0  0  0  0  0  0  0  0
   -4.7882   -3.0101   -1.7917 H   0  0  0  0  0  0  0  0  0  0  0  0
   -4.0344   -2.0788    0.2188 H   0  0  0  0  0  0  0  0  0  0  0  0
   -1.1890    1.7965   -1.0019 H   0  0  0  0  0  0  0  0  0  0  0  0
   -2.4643    2.3845   -4.3317 H   0  0  0  0  0  0  0  0  0  0  0  0
   -1.1211    1.7713   -3.3606 H   0  0  0  0  0  0  0  0  0  0  0  0
   -2.2813    2.9771   -2.6771 H   0  0  0  0  0  0  0  0  0  0  0  0
   -0.6592    1.9204    1.4445 H   0  0  0  0  0  0  0  0  0  0  0  0
    0.4260   -1.0875   -0.3264 H   0  0  0  0  0  0  0  0  0  0  0  0
    2.4670   -3.2270   -2.3887 H   0  0  0  0  0  0  0  0  0  0  0  0
    1.2378   -1.9595   -2.3197 H   0  0  0  0  0  0  0  0  0  0  0  0
    1.4737   -3.0952   -0.9330 H   0  0  0  0  0  0  0  0  0  0  0  0
    4.6265    0.4530   -2.0598 H   0  0  0  0  0  0  0  0  0  0  0  0
    5.1876    1.7388   -0.9364 H   0  0  0  0  0  0  0  0  0  0  0  0
    6.2819    0.4382   -1.4320 H   0  0  0  0  0  0  0  0  0  0  0  0
    3.4588    3.4242    2.6999 H   0  0  0  0  0  0  0  0  0  0  0  0
    5.0558    2.9174    3.2601 H   0  0  0  0  0  0  0  0  0  0  0  0
    3.6563    1.9276    3.6929 H   0  0  0  0  0  0  0  0  0  0  0  0
    1.6523    2.0773    2.2875 H   0  0  0  0  0  0  0  0  0  0  0  0
   -1.6178    0.8744    3.1658 H   0  0  0  0  0  0  0  0  0  0  0  0
   -0.1581   -1.5974    2.4932 H   0  0  0  0  0  0  0  0  0  0  0  0
   -1.0921   -1.3472    3.9519 H   0  0  0  0  0  0  0  0  0  0  0  0
   -3.1682   -1.1583    2.7817 H   0  0  0  0  0  0  0  0  0  0  0  0
   -2.3219   -2.5365    2.0542 H   0  0  0  0  0  0  0  0  0  0  0  0
  1  2  1  0
  2  3  1  0
  3  4  2  0
  4  5  1  0
  5  6  2  0
  6  7  1  0
  7  8  2  0
  8  9  1  0
  9 10  1  0
  6 11  1  0
 11 12  1  0
 12 13  2  0
 13 14  1  0
 14 15  1  0
 15 16  1  0
 14 17  2  0
 17 18  1  0
 18 19  1  0
 17 20  1  0
 20 21  1  0
 21 22  1  0
 20 23  2  0
 11 24  1  0
 24 25  1  0
 25 26  1  0
  8  3  1  0
 23 12  1  0
 26  5  1  0
  1 27  1  0
  1 28  1  0
  1 29  1  0
  4 30  1  0
  7 31  1  0
 10 32  1  0
 10 33  1  0
 10 34  1  0
 11 35  1  0
 13 36  1  0
 16 37  1  0
 16 38  1  0
 16 39  1  0
 19 40  1  0
 19 41  1  0
 19 42  1  0
 22 43  1  0
 22 44  1  0
 22 45  1  0
 23 46  1  0
 24 47  1  0
 25 48  1  0
 25 49  1  0
 26 50  1  0
 26 51  1  0
M  END
$$$$
