
     RDKit          3D

 43 46  0  0  0  0  0  0  0  0999 V2000
   -2.5081    6.2298   -4.8106 N   0  0  0  0  0  0  0  0  0  0  0  0
   -2.0016    5.2904   -4.3563 C   0  0  0  0  0  0  0  0  0  0  0  0
   -1.3786    4.1050   -3.7629 C   0  0  0  0  0  0  0  0  0  0  0  0
   -2.3376    3.4481   -2.7825 C   0  0  0  0  0  0  0  0  0  0  0  0
   -1.7347    2.2968   -2.1390 N   0  0  0  0  0  0  0  0  0  0  0  0
   -1.3645    2.1899   -0.8325 C   0  0  0  0  0  0  0  0  0  0  0  0
   -0.8120    0.9359   -0.6955 C   0  0  0  0  0  0  0  0  0  0  0  0
   -0.2534    0.3698    0.4957 C   0  0  0  0  0  0  0  0  0  0  0  0
    0.4471    0.9817    1.4786 C   0  0  0  0  0  0  0  0  0  0  0  0
    0.7523    2.3764    1.4194 C   0  0  0  0  0  0  0  0  0  0  0  0
    0.9909    3.5122    1.3715 N   0  0  0  0  0  0  0  0  0  0  0  0
    0.9043    0.1705    2.5803 C   0  0  0  0  0  0  0  0  0  0  0  0
    0.6569   -1.1196    2.7408 N   0  0  0  0  0  0  0  0  0  0  0  0
    1.2372   -1.6107    3.8976 C   0  0  0  0  0  0  0  0  0  0  0  0
    1.1669   -2.9411    4.3576 C   0  0  0  0  0  0  0  0  0  0  0  0
    1.8042   -3.2984    5.5503 C   0  0  0  0  0  0  0  0  0  0  0  0
    2.5065   -2.3485    6.2849 C   0  0  0  0  0  0  0  0  0  0  0  0
    2.5898   -1.0228    5.8480 C   0  0  0  0  0  0  0  0  0  0  0  0
    1.9456   -0.6770    4.6485 C   0  0  0  0  0  0  0  0  0  0  0  0
    1.8668    0.8455    3.8612 S   0  0  0  0  0  0  0  0  0  0  0  0
   -0.9439    0.3318   -1.9861 C   0  0  0  0  0  0  0  0  0  0  0  0
   -0.5523   -1.0056   -2.4226 C   0  0  0  0  0  0  0  0  0  0  0  0
   -1.0618   -2.1469   -1.7862 C   0  0  0  0  0  0  0  0  0  0  0  0
   -0.6767   -3.4199   -2.2131 C   0  0  0  0  0  0  0  0  0  0  0  0
    0.2080   -3.5486   -3.2780 C   0  0  0  0  0  0  0  0  0  0  0  0
    0.5750   -4.7705   -3.6856 F   0  0  0  0  0  0  0  0  0  0  0  0
    0.7119   -2.4293   -3.9299 C   0  0  0  0  0  0  0  0  0  0  0  0
    0.3285   -1.1558   -3.5048 C   0  0  0  0  0  0  0  0  0  0  0  0
   -1.4784    1.1980   -2.8629 N   0  0  0  0  0  0  0  0  0  0  0  0
   -0.4516    4.3907   -3.2513 H   0  0  0  0  0  0  0  0  0  0  0  0
   -1.0964    3.4023   -4.5557 H   0  0  0  0  0  0  0  0  0  0  0  0
   -3.2489    3.0977   -3.2826 H   0  0  0  0  0  0  0  0  0  0  0  0
   -2.6427    4.1494   -1.9963 H   0  0  0  0  0  0  0  0  0  0  0  0
   -1.5232    3.0035   -0.1372 H   0  0  0  0  0  0  0  0  0  0  0  0
   -0.3986   -0.7067    0.5885 H   0  0  0  0  0  0  0  0  0  0  0  0
    0.6185   -3.6801    3.7817 H   0  0  0  0  0  0  0  0  0  0  0  0
    1.7489   -4.3259    5.9029 H   0  0  0  0  0  0  0  0  0  0  0  0
    2.9983   -2.6391    7.2113 H   0  0  0  0  0  0  0  0  0  0  0  0
    3.1388   -0.2825    6.4224 H   0  0  0  0  0  0  0  0  0  0  0  0
   -1.7731   -2.0550   -0.9690 H   0  0  0  0  0  0  0  0  0  0  0  0
   -1.0660   -4.3095   -1.7282 H   0  0  0  0  0  0  0  0  0  0  0  0
    1.3936   -2.5533   -4.7651 H   0  0  0  0  0  0  0  0  0  0  0  0
    0.7141   -0.2786   -4.0202 H   0  0  0  0  0  0  0  0  0  0  0  0
  1  2  3  0
  2  3  1  0
  3  4  1  0
  4  5  1  0
  5  6  1  0
  6  7  2  0
  7  8  1  0
  8  9  2  3
  9 10  1  0
 10 11  3  0
  9 12  1  0
 12 13  2  0
 13 14  1  0
 14 15  2  0
 15 16  1  0
 16 17  2  0
 17 18  1  0
 18 19  2  0
 19 20  1  0
  7 21  1  0
 21 22  1  0
 22 23  2  0
 23 24  1  0
 24 25  2  0
 25 26  1  0
 25 27  1  0
 27 28  2  0
 21 29  2  0
 29  5  1  0
 20 12  1  0
 28 22  1  0
 19 14  1  0
  3 30  1  0
  3 31  1  0
  4 32  1  0
  4 33  1  0
  6 34  1  0
  8 35  1  0
 15 36  1  0
 16 37  1  0
 17 38  1  0
 18 39  1  0
 23 40  1  0
 24 41  1  0
 27 42  1  0
 28 43  1  0
M  END
$$$$
