
     RDKit          3D

 41 44  0  0  0  0  0  0  0  0999 V2000
    1.5008    1.6089   -3.0535 O   0  0  0  0  0  0  0  0  0  0  0  0
    1.4237    0.9844   -1.9966 C   0  0  0  0  0  0  0  0  0  0  0  0
    2.6049    0.4978   -1.3212 C   0  0  0  0  0  0  0  0  0  0  0  0
    3.2711    1.4056   -0.0442 S   0  0  0  0  0  0  0  0  0  0  0  0
    4.5555    0.2816    0.1841 C   0  0  0  0  0  0  0  0  0  0  0  0
    5.5816    0.3601    1.1468 C   0  0  0  0  0  0  0  0  0  0  0  0
    6.5505   -0.6440    1.1888 C   0  0  0  0  0  0  0  0  0  0  0  0
    6.5056   -1.7034    0.2951 C   0  0  0  0  0  0  0  0  0  0  0  0
    5.4866   -1.7773   -0.6593 C   0  0  0  0  0  0  0  0  0  0  0  0
    4.4834   -0.7751   -0.7300 C   0  0  0  0  0  0  0  0  0  0  0  0
    3.3486   -0.6242   -1.6031 C   0  0  0  0  0  0  0  0  0  0  0  0
    2.9720   -1.7580   -2.8376 Cl  0  0  0  0  0  0  0  0  0  0  0  0
    0.1914    0.7138   -1.4026 N   0  0  0  0  0  0  0  0  0  0  0  0
   -1.0258    1.2338   -2.0260 C   0  0  0  0  0  0  0  0  0  0  0  0
   -2.1366    1.5474   -1.0073 C   0  0  0  0  0  0  0  0  0  0  0  0
   -2.4271    0.4005   -0.1245 N   0  0  0  0  0  0  0  0  0  0  0  0
   -3.7244    0.1949    0.3425 C   0  0  0  0  0  0  0  0  0  0  0  0
   -4.5775    1.2884    0.5858 C   0  0  0  0  0  0  0  0  0  0  0  0
   -5.8838    1.1249    1.0677 C   0  0  0  0  0  0  0  0  0  0  0  0
   -6.3799   -0.1471    1.3272 C   0  0  0  0  0  0  0  0  0  0  0  0
   -5.5658   -1.2511    1.1073 C   0  0  0  0  0  0  0  0  0  0  0  0
   -4.2646   -1.0770    0.6277 C   0  0  0  0  0  0  0  0  0  0  0  0
   -3.5453   -2.1921    0.4174 F   0  0  0  0  0  0  0  0  0  0  0  0
   -1.4263   -0.6771   -0.0730 C   0  0  0  0  0  0  0  0  0  0  0  0
    0.0023   -0.1150   -0.2046 C   0  0  0  0  0  0  0  0  0  0  0  0
    5.6223    1.1907    1.8464 H   0  0  0  0  0  0  0  0  0  0  0  0
    7.3475   -0.5913    1.9272 H   0  0  0  0  0  0  0  0  0  0  0  0
    7.2661   -2.4800    0.3329 H   0  0  0  0  0  0  0  0  0  0  0  0
    5.4694   -2.6144   -1.3541 H   0  0  0  0  0  0  0  0  0  0  0  0
   -1.3706    0.4650   -2.7286 H   0  0  0  0  0  0  0  0  0  0  0  0
   -0.8011    2.1329   -2.6098 H   0  0  0  0  0  0  0  0  0  0  0  0
   -3.0258    1.8492   -1.5740 H   0  0  0  0  0  0  0  0  0  0  0  0
   -1.8269    2.3941   -0.3829 H   0  0  0  0  0  0  0  0  0  0  0  0
   -4.2251    2.3046    0.4274 H   0  0  0  0  0  0  0  0  0  0  0  0
   -6.5063    1.9986    1.2452 H   0  0  0  0  0  0  0  0  0  0  0  0
   -7.3918   -0.2768    1.7009 H   0  0  0  0  0  0  0  0  0  0  0  0
   -5.9300   -2.2550    1.3008 H   0  0  0  0  0  0  0  0  0  0  0  0
   -1.6139   -1.3902   -0.8850 H   0  0  0  0  0  0  0  0  0  0  0  0
   -1.4787   -1.2109    0.8831 H   0  0  0  0  0  0  0  0  0  0  0  0
    0.2246    0.5246    0.6579 H   0  0  0  0  0  0  0  0  0  0  0  0
    0.7192   -0.9417   -0.2058 H   0  0  0  0  0  0  0  0  0  0  0  0
  1  2  2  0
  2  3  1  0
  3  4  1  0
  4  5  1  0
  5  6  2  0
  6  7  1  0
  7  8  2  0
  8  9  1  0
  9 10  2  0
 10 11  1  0
 11 12  1  0
  2 13  1  0
 13 14  1  0
 14 15  1  0
 15 16  1  0
 16 17  1  0
 17 18  2  0
 18 19  1  0
 19 20  2  0
 20 21  1  0
 21 22  2  0
 22 23  1  0
 16 24  1  0
 24 25  1  0
 11  3  2  0
 25 13  1  0
 10  5  1  0
 22 17  1  0
  6 26  1  0
  7 27  1  0
  8 28  1  0
  9 29  1  0
 14 30  1  0
 14 31  1  0
 15 32  1  0
 15 33  1  0
 18 34  1  0
 19 35  1  0
 20 36  1  0
 21 37  1  0
 24 38  1  0
 24 39  1  0
 25 40  1  0
 25 41  1  0
M  END
$$$$
