
     RDKit          3D

 45 47  0  0  0  0  0  0  0  0999 V2000
    7.8333    0.3854   -1.4538 C   0  0  0  0  0  0  0  0  0  0  0  0
    6.8774   -0.2309   -0.4752 C   0  0  0  0  0  0  0  0  0  0  0  0
    7.3412   -1.0981    0.5209 C   0  0  0  0  0  0  0  0  0  0  0  0
    6.4551   -1.6578    1.4431 C   0  0  0  0  0  0  0  0  0  0  0  0
    5.0968   -1.3410    1.3931 C   0  0  0  0  0  0  0  0  0  0  0  0
    4.6255   -0.4488    0.4222 C   0  0  0  0  0  0  0  0  0  0  0  0
    3.1896   -0.0716    0.3306 C   0  0  0  0  0  0  0  0  0  0  0  0
    2.6924    0.2187   -0.7544 O   0  0  0  0  0  0  0  0  0  0  0  0
    2.4907   -0.0263    1.5306 N   0  0  0  0  0  0  0  0  0  0  0  0
    1.1425    0.2273    1.7532 C   0  0  0  0  0  0  0  0  0  0  0  0
    0.6750    0.2276    3.3559 S   0  0  0  0  0  0  0  0  0  0  0  0
    0.4085    0.4423    0.6115 N   0  0  0  0  0  0  0  0  0  0  0  0
   -0.9593    0.6798    0.3546 C   0  0  0  0  0  0  0  0  0  0  0  0
   -1.2947    0.9458   -0.9816 C   0  0  0  0  0  0  0  0  0  0  0  0
   -2.6170    1.1938   -1.3649 C   0  0  0  0  0  0  0  0  0  0  0  0
   -3.6422    1.1758   -0.4160 C   0  0  0  0  0  0  0  0  0  0  0  0
   -5.0739    1.4442   -0.8185 C   0  0  0  0  0  0  0  0  0  0  0  0
   -5.9922    0.2543   -0.6690 C   0  0  0  0  0  0  0  0  0  0  0  0
   -7.0756    0.2931    0.2135 C   0  0  0  0  0  0  0  0  0  0  0  0
   -7.8969   -0.8203    0.3095 C   0  0  0  0  0  0  0  0  0  0  0  0
   -7.7173   -1.9520   -0.4036 N   0  0  0  0  0  0  0  0  0  0  0  0
   -6.6651   -1.9713   -1.2489 C   0  0  0  0  0  0  0  0  0  0  0  0
   -5.7897   -0.9095   -1.4175 C   0  0  0  0  0  0  0  0  0  0  0  0
   -3.3117    0.9051    0.9168 C   0  0  0  0  0  0  0  0  0  0  0  0
   -1.9848    0.6572    1.2961 C   0  0  0  0  0  0  0  0  0  0  0  0
    5.5154    0.0958   -0.5136 C   0  0  0  0  0  0  0  0  0  0  0  0
    7.3418    0.5729   -2.4142 H   0  0  0  0  0  0  0  0  0  0  0  0
    8.2134    1.3326   -1.0591 H   0  0  0  0  0  0  0  0  0  0  0  0
    8.6793   -0.2825   -1.6473 H   0  0  0  0  0  0  0  0  0  0  0  0
    8.3980   -1.3527    0.5772 H   0  0  0  0  0  0  0  0  0  0  0  0
    6.8261   -2.3487    2.1970 H   0  0  0  0  0  0  0  0  0  0  0  0
    4.4255   -1.8199    2.1002 H   0  0  0  0  0  0  0  0  0  0  0  0
    3.0075   -0.1602    2.3888 H   0  0  0  0  0  0  0  0  0  0  0  0
    0.9920    0.4577   -0.2274 H   0  0  0  0  0  0  0  0  0  0  0  0
   -0.5234    0.9679   -1.7492 H   0  0  0  0  0  0  0  0  0  0  0  0
   -2.8334    1.3996   -2.4106 H   0  0  0  0  0  0  0  0  0  0  0  0
   -5.1211    1.7833   -1.8617 H   0  0  0  0  0  0  0  0  0  0  0  0
   -5.4424    2.2896   -0.2225 H   0  0  0  0  0  0  0  0  0  0  0  0
   -7.2824    1.1690    0.8192 H   0  0  0  0  0  0  0  0  0  0  0  0
   -8.7479   -0.8300    0.9844 H   0  0  0  0  0  0  0  0  0  0  0  0
   -6.5375   -2.8938   -1.8078 H   0  0  0  0  0  0  0  0  0  0  0  0
   -4.9626   -0.9958   -2.1143 H   0  0  0  0  0  0  0  0  0  0  0  0
   -4.0883    0.8752    1.6788 H   0  0  0  0  0  0  0  0  0  0  0  0
   -1.8112    0.4374    2.3405 H   0  0  0  0  0  0  0  0  0  0  0  0
    5.1434    0.7800   -1.2752 H   0  0  0  0  0  0  0  0  0  0  0  0
  1  2  1  0
  2  3  2  0
  3  4  1  0
  4  5  2  0
  5  6  1  0
  6  7  1  0
  7  8  2  0
  7  9  1  0
  9 10  1  0
 10 11  2  0
 10 12  1  0
 12 13  1  0
 13 14  2  0
 14 15  1  0
 15 16  2  0
 16 17  1  0
 17 18  1  0
 18 19  2  0
 19 20  1  0
 20 21  2  0
 21 22  1  0
 22 23  2  0
 16 24  1  0
 24 25  2  0
  6 26  2  0
 26  2  1  0
 25 13  1  0
 23 18  1  0
  1 27  1  0
  1 28  1  0
  1 29  1  0
  3 30  1  0
  4 31  1  0
  5 32  1  0
  9 33  1  0
 12 34  1  0
 14 35  1  0
 15 36  1  0
 17 37  1  0
 17 38  1  0
 19 39  1  0
 20 40  1  0
 22 41  1  0
 23 42  1  0
 24 43  1  0
 25 44  1  0
 26 45  1  0
M  END
$$$$
