
     RDKit          3D

 50 50  0  0  0  0  0  0  0  0999 V2000
    8.5993    1.4916    1.5161 C   0  0  0  0  0  0  0  0  0  0  0  0
    7.5729    0.6313    1.6345 C   0  0  0  0  0  0  0  0  0  0  0  0
    7.7807   -0.7691    2.1439 C   0  0  0  0  0  0  0  0  0  0  0  0
    6.1513    1.0356    1.3203 C   0  0  0  0  0  0  0  0  0  0  0  0
    5.6498    0.3560   -0.2856 S   0  0  0  0  0  0  0  0  0  0  0  0
    4.0210    0.9475   -0.3715 C   0  0  0  0  0  0  0  0  0  0  0  0
    3.4300    1.6885    0.5445 N   0  0  0  0  0  0  0  0  0  0  0  0
    2.1501    1.9368    0.0942 N   0  0  0  0  0  0  0  0  0  0  0  0
    2.0481    1.3284   -1.0668 C   0  0  0  0  0  0  0  0  0  0  0  0
    0.9008    1.2590   -2.0000 C   0  0  0  0  0  0  0  0  0  0  0  0
    0.1892   -0.0924   -1.9137 C   0  0  0  0  0  0  0  0  0  0  0  0
   -0.9986   -0.1535   -2.8768 C   0  0  0  0  0  0  0  0  0  0  0  0
   -1.6736   -1.5291   -2.9315 C   0  0  0  0  0  0  0  0  0  0  0  0
   -2.2702   -2.0024   -1.6085 C   0  0  0  0  0  0  0  0  0  0  0  0
   -3.2966   -1.1105   -1.1247 N   0  0  0  0  0  0  0  0  0  0  0  0
   -3.6479   -1.0612    0.1912 C   0  0  0  0  0  0  0  0  0  0  0  0
   -3.0547   -1.6215    1.0977 O   0  0  0  0  0  0  0  0  0  0  0  0
   -4.7619   -0.3041    0.3092 O   0  0  0  0  0  0  0  0  0  0  0  0
   -5.3613   -0.0685    1.6094 C   0  0  0  0  0  0  0  0  0  0  0  0
   -6.5765    0.8266    1.3215 C   0  0  0  0  0  0  0  0  0  0  0  0
   -4.4041    0.6899    2.5358 C   0  0  0  0  0  0  0  0  0  0  0  0
   -5.8554   -1.3750    2.2406 C   0  0  0  0  0  0  0  0  0  0  0  0
    3.1954    0.6813   -1.4336 O   0  0  0  0  0  0  0  0  0  0  0  0
    8.4520    2.5086    1.1640 H   0  0  0  0  0  0  0  0  0  0  0  0
    9.6169    1.2011    1.7606 H   0  0  0  0  0  0  0  0  0  0  0  0
    7.4930   -1.5059    1.3877 H   0  0  0  0  0  0  0  0  0  0  0  0
    7.1786   -0.9390    3.0425 H   0  0  0  0  0  0  0  0  0  0  0  0
    8.8270   -0.9581    2.4071 H   0  0  0  0  0  0  0  0  0  0  0  0
    5.4826    0.6774    2.1111 H   0  0  0  0  0  0  0  0  0  0  0  0
    6.0630    2.1277    1.2864 H   0  0  0  0  0  0  0  0  0  0  0  0
    1.2551    1.4333   -3.0229 H   0  0  0  0  0  0  0  0  0  0  0  0
    0.1965    2.0654   -1.7639 H   0  0  0  0  0  0  0  0  0  0  0  0
    0.8941   -0.9002   -2.1479 H   0  0  0  0  0  0  0  0  0  0  0  0
   -0.1515   -0.2558   -0.8843 H   0  0  0  0  0  0  0  0  0  0  0  0
   -0.6533    0.0940   -3.8885 H   0  0  0  0  0  0  0  0  0  0  0  0
   -1.7342    0.6127   -2.6039 H   0  0  0  0  0  0  0  0  0  0  0  0
   -2.4672   -1.4904   -3.6885 H   0  0  0  0  0  0  0  0  0  0  0  0
   -0.9463   -2.2735   -3.2774 H   0  0  0  0  0  0  0  0  0  0  0  0
   -2.7410   -2.9821   -1.7487 H   0  0  0  0  0  0  0  0  0  0  0  0
   -1.4955   -2.1273   -0.8450 H   0  0  0  0  0  0  0  0  0  0  0  0
   -3.9989   -0.7525   -1.7568 H   0  0  0  0  0  0  0  0  0  0  0  0
   -7.1221    1.0793    2.2367 H   0  0  0  0  0  0  0  0  0  0  0  0
   -7.2695    0.3325    0.6305 H   0  0  0  0  0  0  0  0  0  0  0  0
   -6.2670    1.7588    0.8344 H   0  0  0  0  0  0  0  0  0  0  0  0
   -3.9957    1.5739    2.0332 H   0  0  0  0  0  0  0  0  0  0  0  0
   -3.5492    0.0750    2.8328 H   0  0  0  0  0  0  0  0  0  0  0  0
   -4.9092    1.0126    3.4526 H   0  0  0  0  0  0  0  0  0  0  0  0
   -5.0270   -2.0273    2.5328 H   0  0  0  0  0  0  0  0  0  0  0  0
   -6.4669   -1.9429    1.5305 H   0  0  0  0  0  0  0  0  0  0  0  0
   -6.4524   -1.1827    3.1386 H   0  0  0  0  0  0  0  0  0  0  0  0
  1  2  2  0
  2  3  1  0
  2  4  1  0
  4  5  1  0
  5  6  1  0
  6  7  2  0
  7  8  1  0
  8  9  2  0
  9 10  1  0
 10 11  1  0
 11 12  1  0
 12 13  1  0
 13 14  1  0
 14 15  1  0
 15 16  1  0
 16 17  2  0
 16 18  1  0
 18 19  1  0
 19 20  1  0
 19 21  1  0
 19 22  1  0
  9 23  1  0
 23  6  1  0
  1 24  1  0
  1 25  1  0
  3 26  1  0
  3 27  1  0
  3 28  1  0
  4 29  1  0
  4 30  1  0
 10 31  1  0
 10 32  1  0
 11 33  1  0
 11 34  1  0
 12 35  1  0
 12 36  1  0
 13 37  1  0
 13 38  1  0
 14 39  1  0
 14 40  1  0
 15 41  1  0
 20 42  1  0
 20 43  1  0
 20 44  1  0
 21 45  1  0
 21 46  1  0
 21 47  1  0
 22 48  1  0
 22 49  1  0
 22 50  1  0
M  END
$$$$
