
     RDKit          3D

 39 40  0  0  0  0  0  0  0  0999 V2000
    1.1356   -2.9194    1.1235 C   0  0  0  0  0  0  0  0  0  0  0  0
    1.5513   -1.5797    0.5238 C   0  0  0  0  0  0  0  0  0  0  0  0
    0.9574   -0.3889    1.2936 C   0  0  0  0  0  0  0  0  0  0  0  0
    1.5924    1.2084    0.6317 S   0  0  0  0  0  0  0  0  0  0  0  0
    3.1170    1.3080    1.4381 C   0  0  0  0  0  0  0  0  0  0  0  0
    3.7752    0.3183    1.9972 N   0  0  0  0  0  0  0  0  0  0  0  0
    4.9442    0.8311    2.5122 N   0  0  0  0  0  0  0  0  0  0  0  0
    4.9585    2.1205    2.2591 C   0  0  0  0  0  0  0  0  0  0  0  0
    3.8300    2.4646    1.5760 N   0  0  0  0  0  0  0  0  0  0  0  0
    3.4873    3.7882    1.1254 C   0  0  0  0  0  0  0  0  0  0  0  0
   -0.5791   -0.3460    1.2282 C   0  0  0  0  0  0  0  0  0  0  0  0
   -1.2431   -0.3552    2.2640 O   0  0  0  0  0  0  0  0  0  0  0  0
   -1.0908   -0.3231   -0.0563 N   0  0  0  0  0  0  0  0  0  0  0  0
   -2.4381   -0.3558   -0.4756 C   0  0  0  0  0  0  0  0  0  0  0  0
   -3.5228   -0.3952    0.4018 C   0  0  0  0  0  0  0  0  0  0  0  0
   -4.8280   -0.4315   -0.0972 C   0  0  0  0  0  0  0  0  0  0  0  0
   -5.0541   -0.4239   -1.4725 C   0  0  0  0  0  0  0  0  0  0  0  0
   -3.9767   -0.3894   -2.3600 C   0  0  0  0  0  0  0  0  0  0  0  0
   -2.6674   -0.3642   -1.8687 C   0  0  0  0  0  0  0  0  0  0  0  0
   -1.5395   -0.3217   -2.6594 O   0  0  0  0  0  0  0  0  0  0  0  0
   -1.7015   -0.7521   -4.0099 C   0  0  0  0  0  0  0  0  0  0  0  0
    0.0523   -3.0680    1.0673 H   0  0  0  0  0  0  0  0  0  0  0  0
    1.6187   -3.7365    0.5749 H   0  0  0  0  0  0  0  0  0  0  0  0
    1.4412   -2.9914    2.1734 H   0  0  0  0  0  0  0  0  0  0  0  0
    1.2550   -1.5633   -0.5326 H   0  0  0  0  0  0  0  0  0  0  0  0
    2.6461   -1.5356    0.5392 H   0  0  0  0  0  0  0  0  0  0  0  0
    1.2278   -0.4573    2.3549 H   0  0  0  0  0  0  0  0  0  0  0  0
    5.7387    2.8157    2.5379 H   0  0  0  0  0  0  0  0  0  0  0  0
    2.5477    4.0888    1.5979 H   0  0  0  0  0  0  0  0  0  0  0  0
    4.2759    4.4885    1.4128 H   0  0  0  0  0  0  0  0  0  0  0  0
    3.3876    3.7768    0.0358 H   0  0  0  0  0  0  0  0  0  0  0  0
   -0.4330   -0.2600   -0.8276 H   0  0  0  0  0  0  0  0  0  0  0  0
   -3.3865   -0.3893    1.4800 H   0  0  0  0  0  0  0  0  0  0  0  0
   -5.6704   -0.4523    0.5944 H   0  0  0  0  0  0  0  0  0  0  0  0
   -6.0740   -0.4460   -1.8531 H   0  0  0  0  0  0  0  0  0  0  0  0
   -4.1893   -0.3708   -3.4259 H   0  0  0  0  0  0  0  0  0  0  0  0
   -0.7039   -0.8883   -4.4363 H   0  0  0  0  0  0  0  0  0  0  0  0
   -2.2173    0.0110   -4.6020 H   0  0  0  0  0  0  0  0  0  0  0  0
   -2.2242   -1.7149   -4.0659 H   0  0  0  0  0  0  0  0  0  0  0  0
  1  2  1  0
  2  3  1  0
  3  4  1  0
  4  5  1  0
  5  6  2  0
  6  7  1  0
  7  8  2  0
  8  9  1  0
  9 10  1  0
  3 11  1  0
 11 12  2  0
 11 13  1  0
 13 14  1  0
 14 15  2  0
 15 16  1  0
 16 17  2  0
 17 18  1  0
 18 19  2  0
 19 20  1  0
 20 21  1  0
  9  5  1  0
 19 14  1  0
  1 22  1  0
  1 23  1  0
  1 24  1  0
  2 25  1  0
  2 26  1  0
  3 27  1  0
  8 28  1  0
 10 29  1  0
 10 30  1  0
 10 31  1  0
 13 32  1  0
 15 33  1  0
 16 34  1  0
 17 35  1  0
 18 36  1  0
 21 37  1  0
 21 38  1  0
 21 39  1  0
M  END
$$$$
