
     RDKit          3D

 31 32  0  0  0  0  0  0  0  0999 V2000
    6.7389    1.9956   -4.7031 N   0  0  0  0  0  0  0  0  0  0  0  0
    5.6366    1.5821   -4.0492 C   0  0  0  0  0  0  0  0  0  0  0  0
    5.5711    1.3788   -2.7523 N   0  0  0  0  0  0  0  0  0  0  0  0
    4.3175    0.9645   -2.3462 N   0  0  0  0  0  0  0  0  0  0  0  0
    3.4832    0.8679   -3.3572 C   0  0  0  0  0  0  0  0  0  0  0  0
    1.8202    0.3694   -3.1632 S   0  0  0  0  0  0  0  0  0  0  0  0
    1.8397   -0.1317   -1.4197 C   0  0  0  0  0  0  0  0  0  0  0  0
    0.4674   -0.6412   -1.0346 C   0  0  0  0  0  0  0  0  0  0  0  0
    0.0849   -1.7908   -1.2565 O   0  0  0  0  0  0  0  0  0  0  0  0
   -0.3453    0.3008   -0.4281 N   0  0  0  0  0  0  0  0  0  0  0  0
   -1.5377   -0.1725    0.1548 N   0  0  0  0  0  0  0  0  0  0  0  0
   -1.8383    0.3013    1.4189 C   0  0  0  0  0  0  0  0  0  0  0  0
   -1.2067    1.2156    1.9441 O   0  0  0  0  0  0  0  0  0  0  0  0
   -2.9505   -0.3760    2.1419 C   0  0  0  0  0  0  0  0  0  0  0  0
   -3.0013   -0.2590    3.5386 C   0  0  0  0  0  0  0  0  0  0  0  0
   -4.0267   -0.8743    4.2620 C   0  0  0  0  0  0  0  0  0  0  0  0
   -5.0072   -1.6007    3.5896 C   0  0  0  0  0  0  0  0  0  0  0  0
   -6.2709   -2.3573    4.4776 Cl  0  0  0  0  0  0  0  0  0  0  0  0
   -4.9744   -1.7125    2.2000 C   0  0  0  0  0  0  0  0  0  0  0  0
   -3.9490   -1.0981    1.4730 C   0  0  0  0  0  0  0  0  0  0  0  0
    4.1570    1.2909   -4.8728 S   0  0  0  0  0  0  0  0  0  0  0  0
    7.4624    2.4086   -4.1233 H   0  0  0  0  0  0  0  0  0  0  0  0
    6.6117    2.4651   -5.5918 H   0  0  0  0  0  0  0  0  0  0  0  0
    2.1168    0.7142   -0.7822 H   0  0  0  0  0  0  0  0  0  0  0  0
    2.5624   -0.9375   -1.2543 H   0  0  0  0  0  0  0  0  0  0  0  0
    0.0513    1.1250    0.0262 H   0  0  0  0  0  0  0  0  0  0  0  0
   -1.8070   -1.1131   -0.1342 H   0  0  0  0  0  0  0  0  0  0  0  0
   -2.2402    0.3111    4.0690 H   0  0  0  0  0  0  0  0  0  0  0  0
   -4.0540   -0.7800    5.3446 H   0  0  0  0  0  0  0  0  0  0  0  0
   -5.7478   -2.2698    1.6766 H   0  0  0  0  0  0  0  0  0  0  0  0
   -3.9640   -1.1765    0.3893 H   0  0  0  0  0  0  0  0  0  0  0  0
  1  2  1  0
  2  3  2  0
  3  4  1  0
  4  5  2  0
  5  6  1  0
  6  7  1  0
  7  8  1  0
  8  9  2  0
  8 10  1  0
 10 11  1  0
 11 12  1  0
 12 13  2  0
 12 14  1  0
 14 15  2  0
 15 16  1  0
 16 17  2  0
 17 18  1  0
 17 19  1  0
 19 20  2  0
  5 21  1  0
 21  2  1  0
 20 14  1  0
  1 22  1  0
  1 23  1  0
  7 24  1  0
  7 25  1  0
 10 26  1  0
 11 27  1  0
 15 28  1  0
 16 29  1  0
 19 30  1  0
 20 31  1  0
M  END
$$$$
