
     RDKit          3D

 52 55  0  0  0  0  0  0  0  0999 V2000
    7.2597    1.6407   -0.6756 C   0  0  0  0  0  0  0  0  0  0  0  0
    6.2472    2.5415   -1.3661 C   0  0  0  0  0  0  0  0  0  0  0  0
    4.8489    1.9850   -1.2761 C   0  0  0  0  0  0  0  0  0  0  0  0
    4.0233    2.3129   -0.1940 C   0  0  0  0  0  0  0  0  0  0  0  0
    2.7336    1.7840   -0.1021 C   0  0  0  0  0  0  0  0  0  0  0  0
    2.2538    0.9151   -1.0884 C   0  0  0  0  0  0  0  0  0  0  0  0
    0.8820    0.3705   -0.9592 C   0  0  0  0  0  0  0  0  0  0  0  0
    0.0616    0.7277   -0.0180 N   0  0  0  0  0  0  0  0  0  0  0  0
   -1.0900    0.0138   -0.1910 N   0  0  0  0  0  0  0  0  0  0  0  0
   -2.2298    0.3053    0.5564 C   0  0  0  0  0  0  0  0  0  0  0  0
   -2.2035    1.3104    1.5421 C   0  0  0  0  0  0  0  0  0  0  0  0
   -3.3286    1.6276    2.3110 C   0  0  0  0  0  0  0  0  0  0  0  0
   -4.5189    0.9383    2.0957 C   0  0  0  0  0  0  0  0  0  0  0  0
   -5.9369    1.3090    3.0813 S   0  0  0  0  0  6  0  0  0  0  0  0
   -6.6416    2.5658    2.2187 N   0  0  0  0  0  0  0  0  0  0  0  0
   -5.5120    1.8802    4.3379 O   0  0  0  0  0  0  0  0  0  0  0  0
   -6.8725    0.2107    3.0076 O   0  0  0  0  0  0  0  0  0  0  0  0
   -4.5811   -0.0730    1.1390 C   0  0  0  0  0  0  0  0  0  0  0  0
   -3.4450   -0.3777    0.3779 C   0  0  0  0  0  0  0  0  0  0  0  0
   -0.9887   -0.9879   -1.2541 C   0  0  0  0  0  0  0  0  0  0  0  0
   -0.9511   -2.4199   -0.7351 C   0  0  0  0  0  0  0  0  0  0  0  0
   -0.3423   -2.7534    0.4887 C   0  0  0  0  0  0  0  0  0  0  0  0
   -0.3026   -4.0780    0.9269 C   0  0  0  0  0  0  0  0  0  0  0  0
   -0.8638   -5.0761    0.1418 C   0  0  0  0  0  0  0  0  0  0  0  0
   -0.8238   -6.3477    0.5604 F   0  0  0  0  0  0  0  0  0  0  0  0
   -1.4638   -4.7755   -1.0747 C   0  0  0  0  0  0  0  0  0  0  0  0
   -1.5057   -3.4513   -1.5151 C   0  0  0  0  0  0  0  0  0  0  0  0
    0.3271   -0.6218   -1.9436 C   0  0  0  0  0  0  0  0  0  0  0  0
    3.0757    0.5805   -2.1691 C   0  0  0  0  0  0  0  0  0  0  0  0
    4.3665    1.1112   -2.2589 C   0  0  0  0  0  0  0  0  0  0  0  0
    7.0260    1.5224    0.3879 H   0  0  0  0  0  0  0  0  0  0  0  0
    8.2640    2.0685   -0.7566 H   0  0  0  0  0  0  0  0  0  0  0  0
    7.2782    0.6435   -1.1283 H   0  0  0  0  0  0  0  0  0  0  0  0
    6.5249    2.6725   -2.4191 H   0  0  0  0  0  0  0  0  0  0  0  0
    6.2755    3.5425   -0.9185 H   0  0  0  0  0  0  0  0  0  0  0  0
    4.3783    2.9824    0.5867 H   0  0  0  0  0  0  0  0  0  0  0  0
    2.1081    2.0538    0.7466 H   0  0  0  0  0  0  0  0  0  0  0  0
   -1.2811    1.8599    1.7215 H   0  0  0  0  0  0  0  0  0  0  0  0
   -3.2596    2.4056    3.0671 H   0  0  0  0  0  0  0  0  0  0  0  0
   -7.5664    2.2845    1.8934 H   0  0  0  0  0  0  0  0  0  0  0  0
   -6.6414    3.4145    2.7846 H   0  0  0  0  0  0  0  0  0  0  0  0
   -5.5001   -0.6318    0.9780 H   0  0  0  0  0  0  0  0  0  0  0  0
   -3.5330   -1.1740   -0.3550 H   0  0  0  0  0  0  0  0  0  0  0  0
   -1.8150   -0.8722   -1.9672 H   0  0  0  0  0  0  0  0  0  0  0  0
    0.0966   -1.9767    1.1143 H   0  0  0  0  0  0  0  0  0  0  0  0
    0.1595   -4.3329    1.8752 H   0  0  0  0  0  0  0  0  0  0  0  0
   -1.8942   -5.5740   -1.6706 H   0  0  0  0  0  0  0  0  0  0  0  0
   -1.9768   -3.2301   -2.4707 H   0  0  0  0  0  0  0  0  0  0  0  0
    0.1427   -0.1083   -2.8932 H   0  0  0  0  0  0  0  0  0  0  0  0
    1.0016   -1.4679   -2.1008 H   0  0  0  0  0  0  0  0  0  0  0  0
    2.7382   -0.0879   -2.9549 H   0  0  0  0  0  0  0  0  0  0  0  0
    4.9963    0.8380   -3.1033 H   0  0  0  0  0  0  0  0  0  0  0  0
  1  2  1  0
  2  3  1  0
  3  4  2  0
  4  5  1  0
  5  6  2  0
  6  7  1  0
  7  8  2  0
  8  9  1  0
  9 10  1  0
 10 11  2  0
 11 12  1  0
 12 13  2  0
 13 14  1  0
 14 15  1  0
 14 16  2  0
 14 17  2  0
 13 18  1  0
 18 19  2  0
  9 20  1  0
 20 21  1  0
 21 22  2  0
 22 23  1  0
 23 24  2  0
 24 25  1  0
 24 26  1  0
 26 27  2  0
 20 28  1  0
  6 29  1  0
 29 30  2  0
 30  3  1  0
 28  7  1  0
 19 10  1  0
 27 21  1  0
  1 31  1  0
  1 32  1  0
  1 33  1  0
  2 34  1  0
  2 35  1  0
  4 36  1  0
  5 37  1  0
 11 38  1  0
 12 39  1  0
 15 40  1  0
 15 41  1  0
 18 42  1  0
 19 43  1  0
 20 44  1  0
 22 45  1  0
 23 46  1  0
 26 47  1  0
 27 48  1  0
 28 49  1  0
 28 50  1  0
 29 51  1  0
 30 52  1  0
M  END
$$$$
