
     RDKit          3D

 43 45  0  0  0  0  0  0  0  0999 V2000
    2.4588    2.6214   -1.1413 O   0  0  0  0  0  0  0  0  0  0  0  0
    1.9101    1.9706   -0.2530 C   0  0  0  0  0  0  0  0  0  0  0  0
    1.3175    2.6685    0.9773 C   0  0  0  0  0  0  0  0  0  0  0  0
   -0.0624    2.2934    1.2593 N   0  0  0  0  0  0  0  0  0  0  0  0
   -0.3629    1.1452    1.9659 C   0  0  0  0  0  0  0  0  0  0  0  0
    0.5285    0.3930    2.3540 O   0  0  0  0  0  0  0  0  0  0  0  0
   -1.8575    0.8984    2.1869 C   0  0  0  0  0  0  0  0  0  0  0  0
   -2.3645    1.8419    3.2701 C   0  0  0  0  0  0  0  0  0  0  0  0
   -3.7896    1.7423    3.3934 O   0  0  0  0  0  0  0  0  0  0  0  0
   -4.1909    0.4306    3.4313 C   0  0  0  0  0  0  0  0  0  0  0  0
   -5.4886    0.1828    3.8736 C   0  0  0  0  0  0  0  0  0  0  0  0
   -5.9542   -1.1305    3.9580 C   0  0  0  0  0  0  0  0  0  0  0  0
   -5.1226   -2.1926    3.5978 C   0  0  0  0  0  0  0  0  0  0  0  0
   -3.8272   -1.9435    3.1414 C   0  0  0  0  0  0  0  0  0  0  0  0
   -3.3673   -0.6321    3.0434 C   0  0  0  0  0  0  0  0  0  0  0  0
   -2.0939   -0.4588    2.5648 O   0  0  0  0  0  0  0  0  0  0  0  0
    1.8240    0.5822   -0.1871 N   0  0  0  0  0  0  0  0  0  0  0  0
    2.4309   -0.2980   -1.0469 N   0  0  0  0  0  0  0  0  0  0  0  0
    2.5435    0.0342   -2.2935 C   0  0  0  0  0  0  0  0  0  0  0  0
    3.2254   -0.8415   -3.2696 C   0  0  0  0  0  0  0  0  0  0  0  0
    3.7425   -2.0829   -2.8828 C   0  0  0  0  0  0  0  0  0  0  0  0
    4.3785   -2.8933   -3.8245 C   0  0  0  0  0  0  0  0  0  0  0  0
    4.4978   -2.4622   -5.1457 C   0  0  0  0  0  0  0  0  0  0  0  0
    3.9834   -1.2241   -5.5189 C   0  0  0  0  0  0  0  0  0  0  0  0
    4.1295   -0.8463   -6.8214 O   0  0  0  0  0  0  0  0  0  0  0  0
    3.3448   -0.4046   -4.5929 C   0  0  0  0  0  0  0  0  0  0  0  0
    1.3226    3.7491    0.8031 H   0  0  0  0  0  0  0  0  0  0  0  0
    1.9493    2.4495    1.8446 H   0  0  0  0  0  0  0  0  0  0  0  0
   -0.7887    2.7502    0.7199 H   0  0  0  0  0  0  0  0  0  0  0  0
   -2.3761    1.0740    1.2341 H   0  0  0  0  0  0  0  0  0  0  0  0
   -1.9125    1.6215    4.2464 H   0  0  0  0  0  0  0  0  0  0  0  0
   -2.1336    2.8852    3.0301 H   0  0  0  0  0  0  0  0  0  0  0  0
   -6.1319    1.0086    4.1639 H   0  0  0  0  0  0  0  0  0  0  0  0
   -6.9638   -1.3265    4.3105 H   0  0  0  0  0  0  0  0  0  0  0  0
   -5.4842   -3.2154    3.6699 H   0  0  0  0  0  0  0  0  0  0  0  0
   -3.1813   -2.7689    2.8546 H   0  0  0  0  0  0  0  0  0  0  0  0
    1.6156    0.1780    0.7319 H   0  0  0  0  0  0  0  0  0  0  0  0
    2.1176    0.9648   -2.7043 H   0  0  0  0  0  0  0  0  0  0  0  0
    3.6526   -2.4224   -1.8534 H   0  0  0  0  0  0  0  0  0  0  0  0
    4.7813   -3.8584   -3.5284 H   0  0  0  0  0  0  0  0  0  0  0  0
    4.9932   -3.0889   -5.8824 H   0  0  0  0  0  0  0  0  0  0  0  0
    3.7590    0.0442   -6.9360 H   0  0  0  0  0  0  0  0  0  0  0  0
    2.9474    0.5611   -4.8875 H   0  0  0  0  0  0  0  0  0  0  0  0
  1  2  2  0
  2  3  1  0
  3  4  1  0
  4  5  1  0
  5  6  2  0
  5  7  1  0
  7  8  1  0
  8  9  1  0
  9 10  1  0
 10 11  2  0
 11 12  1  0
 12 13  2  0
 13 14  1  0
 14 15  2  0
 15 16  1  0
  2 17  1  0
 17 18  1  0
 18 19  2  3
 19 20  1  0
 20 21  2  0
 21 22  1  0
 22 23  2  0
 23 24  1  0
 24 25  1  0
 24 26  2  0
 16  7  1  0
 26 20  1  0
 15 10  1  0
  3 27  1  0
  3 28  1  0
  4 29  1  0
  7 30  1  0
  8 31  1  0
  8 32  1  0
 11 33  1  0
 12 34  1  0
 13 35  1  0
 14 36  1  0
 17 37  1  0
 19 38  1  0
 21 39  1  0
 22 40  1  0
 23 41  1  0
 25 42  1  0
 26 43  1  0
M  END
$$$$
