
     RDKit          3D

 47 50  0  0  0  0  0  0  0  0999 V2000
   -0.2140    4.8043   -2.0527 N   0  0  0  0  0  0  0  0  0  0  0  0
    0.6085    3.7436   -1.6954 C   0  0  0  0  0  0  0  0  0  0  0  0
    1.9338    3.8513   -1.9421 N   0  0  0  0  0  0  0  0  0  0  0  0
    2.7391    2.8301   -1.5784 C   0  0  0  0  0  0  0  0  0  0  0  0
    2.4007    1.6609   -0.9931 N   0  0  0  0  0  0  0  0  0  0  0  0
    1.0685    1.5916   -0.8087 C   0  0  0  0  0  0  0  0  0  0  0  0
    0.1293    2.5623   -1.1068 C   0  0  0  0  0  0  0  0  0  0  0  0
   -1.1345    2.1478   -0.7491 N   0  0  0  0  0  0  0  0  0  0  0  0
   -0.9667    0.9632   -0.2011 C   0  0  0  0  0  0  0  0  0  0  0  0
   -1.9205    0.1684    0.3629 N   0  0  0  0  0  0  0  0  0  0  0  0
   -2.0413    0.3371    1.8278 C   0  0  0  0  0  0  0  0  0  0  0  0
   -2.9238   -0.7706    2.4002 C   0  0  0  0  0  0  0  0  0  0  0  0
   -4.2947   -0.7851    1.7290 C   0  0  0  0  0  0  0  0  0  0  0  0
   -4.1524   -0.8473    0.2105 C   0  0  0  0  0  0  0  0  0  0  0  0
   -3.2371    0.2627   -0.3046 C   0  0  0  0  0  0  0  0  0  0  0  0
    0.3486    0.5556   -0.2767 N   0  0  0  0  0  0  0  0  0  0  0  0
    0.8596   -0.7447    0.0843 C   0  0  0  0  0  0  0  0  0  0  0  0
    1.6288   -1.3001   -1.0203 O   0  0  0  0  0  0  0  0  0  0  0  0
    2.8873   -1.7737   -0.4798 C   0  0  0  0  0  0  0  0  0  0  0  0
    3.3394   -2.9996   -1.2651 C   0  0  0  0  0  0  0  0  0  0  0  0
    3.5984   -2.6281   -2.6198 O   0  0  0  0  0  0  0  0  0  0  0  0
    2.6334   -2.0049    1.0079 C   0  0  0  0  0  0  0  0  0  0  0  0
    1.9444   -3.2321    1.2633 O   0  0  0  0  0  0  0  0  0  0  0  0
    1.7428   -0.8138    1.3441 C   0  0  0  0  0  0  0  0  0  0  0  0
    2.5628    0.3341    1.5861 O   0  0  0  0  0  0  0  0  0  0  0  0
   -1.1861    4.5402   -2.1657 H   0  0  0  0  0  0  0  0  0  0  0  0
    0.2036    5.3859   -2.7669 H   0  0  0  0  0  0  0  0  0  0  0  0
    3.7969    2.9700   -1.7845 H   0  0  0  0  0  0  0  0  0  0  0  0
   -2.4646    1.3220    2.0659 H   0  0  0  0  0  0  0  0  0  0  0  0
   -1.0560    0.2791    2.3057 H   0  0  0  0  0  0  0  0  0  0  0  0
   -2.4363   -1.7419    2.2482 H   0  0  0  0  0  0  0  0  0  0  0  0
   -3.0408   -0.6324    3.4807 H   0  0  0  0  0  0  0  0  0  0  0  0
   -4.8765   -1.6421    2.0856 H   0  0  0  0  0  0  0  0  0  0  0  0
   -4.8484    0.1197    2.0080 H   0  0  0  0  0  0  0  0  0  0  0  0
   -3.7395   -1.8235   -0.0736 H   0  0  0  0  0  0  0  0  0  0  0  0
   -5.1389   -0.7640   -0.2588 H   0  0  0  0  0  0  0  0  0  0  0  0
   -3.1204    0.1417   -1.3892 H   0  0  0  0  0  0  0  0  0  0  0  0
   -3.6953    1.2442   -0.1237 H   0  0  0  0  0  0  0  0  0  0  0  0
    0.0136   -1.4317    0.1985 H   0  0  0  0  0  0  0  0  0  0  0  0
    3.6080   -0.9602   -0.6288 H   0  0  0  0  0  0  0  0  0  0  0  0
    4.2569   -3.4225   -0.8463 H   0  0  0  0  0  0  0  0  0  0  0  0
    2.5666   -3.7738   -1.2896 H   0  0  0  0  0  0  0  0  0  0  0  0
    2.8318   -2.0956   -2.9078 H   0  0  0  0  0  0  0  0  0  0  0  0
    3.5689   -2.0165    1.5753 H   0  0  0  0  0  0  0  0  0  0  0  0
    1.2734   -3.3826    0.5735 H   0  0  0  0  0  0  0  0  0  0  0  0
    1.1345   -0.9774    2.2389 H   0  0  0  0  0  0  0  0  0  0  0  0
    2.8082    0.7485    0.7319 H   0  0  0  0  0  0  0  0  0  0  0  0
  1  2  1  0
  2  3  2  0
  3  4  1  0
  4  5  2  0
  5  6  1  0
  6  7  2  0
  7  8  1  0
  8  9  2  0
  9 10  1  0
 10 11  1  0
 11 12  1  0
 12 13  1  0
 13 14  1  0
 14 15  1  0
  9 16  1  0
 16 17  1  0
 17 18  1  0
 18 19  1  0
 19 20  1  0
 20 21  1  0
 19 22  1  0
 22 23  1  0
 22 24  1  0
 24 25  1  0
  7  2  1  0
 15 10  1  0
 24 17  1  0
 16  6  1  0
  1 26  1  0
  1 27  1  0
  4 28  1  0
 11 29  1  0
 11 30  1  0
 12 31  1  0
 12 32  1  0
 13 33  1  0
 13 34  1  0
 14 35  1  0
 14 36  1  0
 15 37  1  0
 15 38  1  0
 17 39  1  0
 19 40  1  0
 20 41  1  0
 20 42  1  0
 21 43  1  0
 22 44  1  0
 23 45  1  0
 24 46  1  0
 25 47  1  0
M  END
$$$$
