
     RDKit          3D

 41 44  0  0  0  0  0  0  0  0999 V2000
   -0.2213   -4.3439    0.2473 O   0  0  0  0  0  0  0  0  0  0  0  0
    0.0810   -3.2612    0.7321 C   0  0  0  0  0  0  0  0  0  0  0  0
    0.5677   -3.1835    1.9838 O   0  0  0  0  0  0  0  0  0  0  0  0
   -0.0242   -1.9205    0.0188 C   0  0  0  0  0  0  0  0  0  0  0  0
    1.2487   -1.6724   -0.8014 C   0  0  0  0  0  0  0  0  0  0  0  0
    2.3186   -0.9743   -0.0197 C   0  0  0  0  0  0  0  0  0  0  0  0
    3.3736   -1.5659    0.6462 C   0  0  0  0  0  0  0  0  0  0  0  0
    4.1105   -0.5794    1.2453 N   0  0  0  0  0  0  0  0  0  0  0  0
    3.5625    0.6534    0.9790 C   0  0  0  0  0  0  0  0  0  0  0  0
    3.9737    1.9300    1.3811 C   0  0  0  0  0  0  0  0  0  0  0  0
    3.2113    3.0214    0.9538 C   0  0  0  0  0  0  0  0  0  0  0  0
    2.0853    2.8407    0.1547 C   0  0  0  0  0  0  0  0  0  0  0  0
    1.6889    1.5572   -0.2381 C   0  0  0  0  0  0  0  0  0  0  0  0
    2.4385    0.4389    0.1820 C   0  0  0  0  0  0  0  0  0  0  0  0
   -1.1888   -1.9865   -0.9212 N   0  0  0  0  0  0  0  0  0  0  0  0
   -2.7213   -1.8109   -0.2431 S   0  0  0  0  0  6  0  0  0  0  0  0
   -2.6675   -2.0929    1.1708 O   0  0  0  0  0  0  0  0  0  0  0  0
   -3.5976   -2.5618   -1.1182 O   0  0  0  0  0  0  0  0  0  0  0  0
   -3.0695   -0.1096   -0.5053 C   0  0  0  0  0  0  0  0  0  0  0  0
   -3.9266    0.2871   -1.5589 C   0  0  0  0  0  0  0  0  0  0  0  0
   -4.2557    1.6369   -1.8228 C   0  0  0  0  0  0  0  0  0  0  0  0
   -3.7628    2.7053   -1.0571 C   0  0  0  0  0  0  0  0  0  0  0  0
   -2.9070    2.3644    0.0178 C   0  0  0  0  0  0  0  0  0  0  0  0
   -2.3362    3.2375    0.8610 N   0  0  0  0  0  0  0  0  0  0  0  0
   -1.4478    2.3408    1.9381 S   0  0  0  0  0  0  0  0  0  0  0  0
   -1.7303    0.8125    1.3656 N   0  0  0  0  0  0  0  0  0  0  0  0
   -2.5505    0.9224    0.3092 C   0  0  0  0  0  0  0  0  0  0  0  0
    0.4946   -4.0960    2.3323 H   0  0  0  0  0  0  0  0  0  0  0  0
   -0.1840   -1.1247    0.7485 H   0  0  0  0  0  0  0  0  0  0  0  0
    1.0147   -1.0546   -1.6790 H   0  0  0  0  0  0  0  0  0  0  0  0
    1.6453   -2.6159   -1.1997 H   0  0  0  0  0  0  0  0  0  0  0  0
    3.6591   -2.6041    0.7532 H   0  0  0  0  0  0  0  0  0  0  0  0
    4.9376   -0.7284    1.8063 H   0  0  0  0  0  0  0  0  0  0  0  0
    4.8512    2.0746    2.0028 H   0  0  0  0  0  0  0  0  0  0  0  0
    3.5040    4.0263    1.2495 H   0  0  0  0  0  0  0  0  0  0  0  0
    1.5062    3.7030   -0.1670 H   0  0  0  0  0  0  0  0  0  0  0  0
    0.8078    1.4300   -0.8596 H   0  0  0  0  0  0  0  0  0  0  0  0
   -1.1839   -2.8132   -1.5272 H   0  0  0  0  0  0  0  0  0  0  0  0
   -4.3605   -0.4760   -2.2086 H   0  0  0  0  0  0  0  0  0  0  0  0
   -4.9231    1.8571   -2.6573 H   0  0  0  0  0  0  0  0  0  0  0  0
   -4.0221    3.7361   -1.2688 H   0  0  0  0  0  0  0  0  0  0  0  0
  1  2  2  0
  2  3  1  0
  2  4  1  0
  4  5  1  0
  5  6  1  0
  6  7  2  0
  7  8  1  0
  8  9  1  0
  9 10  2  0
 10 11  1  0
 11 12  2  0
 12 13  1  0
 13 14  2  0
  4 15  1  0
 15 16  1  0
 16 17  2  0
 16 18  2  0
 16 19  1  0
 19 20  2  0
 20 21  1  0
 21 22  2  0
 22 23  1  0
 23 24  2  0
 24 25  1  0
 25 26  1  0
 26 27  2  0
 14  6  1  0
 27 19  1  0
 14  9  1  0
 27 23  1  0
  3 28  1  0
  4 29  1  0
  5 30  1  0
  5 31  1  0
  7 32  1  0
  8 33  1  0
 10 34  1  0
 11 35  1  0
 12 36  1  0
 13 37  1  0
 15 38  1  0
 20 39  1  0
 21 40  1  0
 22 41  1  0
M  END
$$$$
