
     RDKit          3D

 56 59  0  0  0  0  0  0  0  0999 V2000
   -3.8361   -4.9880    0.2275 C   0  0  0  0  0  0  0  0  0  0  0  0
   -2.7024   -4.4102    1.0517 C   0  0  0  0  0  0  0  0  0  0  0  0
   -2.6063   -3.0138    0.7564 O   0  0  0  0  0  0  0  0  0  0  0  0
   -1.5939   -2.3787    1.4185 C   0  0  0  0  0  0  0  0  0  0  0  0
   -0.8882   -2.9008    2.2758 O   0  0  0  0  0  0  0  0  0  0  0  0
   -1.4958   -0.9709    1.0498 C   0  0  0  0  0  0  0  0  0  0  0  0
   -0.3098   -0.3155    0.7791 C   0  0  0  0  0  0  0  0  0  0  0  0
    0.9946   -0.7086    0.6008 N   0  0  0  0  0  0  0  0  0  0  0  0
    1.3782   -1.9511    0.1303 C   0  0  0  0  0  0  0  0  0  0  0  0
    0.6225   -2.8748   -0.1588 O   0  0  0  0  0  0  0  0  0  0  0  0
    2.8972   -2.1229    0.0946 C   0  0  0  0  0  0  0  0  0  0  0  0
    3.5701   -0.9070   -0.3773 N   0  0  0  0  0  0  0  0  0  0  0  0
    3.7602    0.0963    0.5491 N   0  0  0  0  0  0  0  0  0  0  0  0
    4.3533    1.1920    0.1719 C   0  0  0  0  0  0  0  0  0  0  0  0
    4.5324    2.2684    1.2298 C   0  0  0  0  0  0  0  0  0  0  0  0
    5.6054    2.6342    1.6612 O   0  0  0  0  0  0  0  0  0  0  0  0
    3.3597    2.7895    1.6031 O   0  0  0  0  0  0  0  0  0  0  0  0
    4.8303    1.4408   -1.1941 C   0  0  0  0  0  0  0  0  0  0  0  0
    5.4811    2.6212   -1.5757 C   0  0  0  0  0  0  0  0  0  0  0  0
    5.8917    2.7911   -2.9008 C   0  0  0  0  0  0  0  0  0  0  0  0
    5.6526    1.7916   -3.8433 C   0  0  0  0  0  0  0  0  0  0  0  0
    5.0045    0.6164   -3.4621 C   0  0  0  0  0  0  0  0  0  0  0  0
    4.5952    0.4423   -2.1335 C   0  0  0  0  0  0  0  0  0  0  0  0
    3.9157   -0.8014   -1.7231 C   0  0  0  0  0  0  0  0  0  0  0  0
    3.6914   -1.6703   -2.5605 O   0  0  0  0  0  0  0  0  0  0  0  0
   -0.4941    1.3719    0.6310 S   0  0  0  0  0  0  0  0  0  0  0  0
   -2.1834    1.2517    0.7446 C   0  0  0  0  0  0  0  0  0  0  0  0
   -2.6065   -0.0424    0.9861 C   0  0  0  0  0  0  0  0  0  0  0  0
   -4.0611   -0.3707    1.1759 C   0  0  0  0  0  0  0  0  0  0  0  0
   -4.9030    0.8845    1.4574 C   0  0  0  0  0  0  0  0  0  0  0  0
   -4.5471    2.0359    0.4933 C   0  0  0  0  0  0  0  0  0  0  0  0
   -5.4706    3.2323    0.7105 C   0  0  0  0  0  0  0  0  0  0  0  0
   -3.0696    2.4563    0.6577 C   0  0  0  0  0  0  0  0  0  0  0  0
   -3.9695   -6.0532    0.4382 H   0  0  0  0  0  0  0  0  0  0  0  0
   -4.7743   -4.4639    0.4382 H   0  0  0  0  0  0  0  0  0  0  0  0
   -3.6360   -4.8632   -0.8416 H   0  0  0  0  0  0  0  0  0  0  0  0
   -2.9132   -4.5507    2.1180 H   0  0  0  0  0  0  0  0  0  0  0  0
   -1.7632   -4.9129    0.7908 H   0  0  0  0  0  0  0  0  0  0  0  0
    1.7064    0.0173    0.5790 H   0  0  0  0  0  0  0  0  0  0  0  0
    3.2519   -2.3568    1.1042 H   0  0  0  0  0  0  0  0  0  0  0  0
    3.1389   -2.9625   -0.5650 H   0  0  0  0  0  0  0  0  0  0  0  0
    3.5758    3.4317    2.3109 H   0  0  0  0  0  0  0  0  0  0  0  0
    5.6875    3.4189   -0.8660 H   0  0  0  0  0  0  0  0  0  0  0  0
    6.4013    3.7058   -3.1998 H   0  0  0  0  0  0  0  0  0  0  0  0
    5.9726    1.9255   -4.8750 H   0  0  0  0  0  0  0  0  0  0  0  0
    4.8207   -0.1625   -4.2007 H   0  0  0  0  0  0  0  0  0  0  0  0
   -4.4311   -0.8556    0.2633 H   0  0  0  0  0  0  0  0  0  0  0  0
   -4.1894   -1.0787    2.0029 H   0  0  0  0  0  0  0  0  0  0  0  0
   -5.9664    0.6284    1.3729 H   0  0  0  0  0  0  0  0  0  0  0  0
   -4.7344    1.2115    2.4929 H   0  0  0  0  0  0  0  0  0  0  0  0
   -4.6948    1.6765   -0.5352 H   0  0  0  0  0  0  0  0  0  0  0  0
   -6.5149    2.9510    0.5377 H   0  0  0  0  0  0  0  0  0  0  0  0
   -5.3893    3.6195    1.7316 H   0  0  0  0  0  0  0  0  0  0  0  0
   -5.2239    4.0438    0.0177 H   0  0  0  0  0  0  0  0  0  0  0  0
   -2.7763    3.0914   -0.1876 H   0  0  0  0  0  0  0  0  0  0  0  0
   -2.9464    3.0496    1.5744 H   0  0  0  0  0  0  0  0  0  0  0  0
  1  2  1  0
  2  3  1  0
  3  4  1  0
  4  5  2  0
  4  6  1  0
  6  7  2  0
  7  8  1  0
  8  9  1  0
  9 10  2  0
  9 11  1  0
 11 12  1  0
 12 13  1  0
 13 14  2  0
 14 15  1  0
 15 16  2  0
 15 17  1  0
 14 18  1  0
 18 19  2  0
 19 20  1  0
 20 21  2  0
 21 22  1  0
 22 23  2  0
 23 24  1  0
 24 25  2  0
  7 26  1  0
 26 27  1  0
 27 28  2  0
 28 29  1  0
 29 30  1  0
 30 31  1  0
 31 32  1  0
 31 33  1  0
 28  6  1  0
 24 12  1  0
 33 27  1  0
 23 18  1  0
  1 34  1  0
  1 35  1  0
  1 36  1  0
  2 37  1  0
  2 38  1  0
  8 39  1  0
 11 40  1  0
 11 41  1  0
 17 42  1  0
 19 43  1  0
 20 44  1  0
 21 45  1  0
 22 46  1  0
 29 47  1  0
 29 48  1  0
 30 49  1  0
 30 50  1  0
 31 51  1  0
 32 52  1  0
 32 53  1  0
 32 54  1  0
 33 55  1  0
 33 56  1  0
M  END
$$$$
