
     RDKit          3D

 39 41  0  0  0  0  0  0  0  0999 V2000
    2.5591    2.6868   -1.6410 C   0  0  0  0  0  0  0  0  0  0  0  0
    1.7985    2.6779   -0.3410 C   0  0  0  0  0  0  0  0  0  0  0  0
    2.2057    3.2788    0.6528 O   0  0  0  0  0  0  0  0  0  0  0  0
    0.5363    1.9000   -0.2995 C   0  0  0  0  0  0  0  0  0  0  0  0
    0.5801    0.5818    0.0145 C   0  0  0  0  0  0  0  0  0  0  0  0
    1.7381   -0.1177    0.3775 N   0  0  0  0  0  0  0  0  0  0  0  0
    2.6575    0.3667    1.4435 C   0  0  0  0  0  0  0  0  0  0  0  0
    3.1706   -0.8038    2.2972 C   0  0  0  0  0  0  0  0  0  0  0  0
    3.8795   -1.8018    1.5471 O   0  0  0  0  0  0  0  0  0  0  0  0
    3.4568   -1.8894    0.1797 C   0  0  0  0  0  0  0  0  0  0  0  0
    1.9799   -1.5227   -0.0176 C   0  0  0  0  0  0  0  0  0  0  0  0
   -0.6078   -0.1081   -0.0558 N   0  0  0  0  0  0  0  0  0  0  0  0
   -1.8077    0.4751   -0.3584 C   0  0  0  0  0  0  0  0  0  0  0  0
   -3.0622   -0.3409   -0.3242 C   0  0  0  0  0  0  0  0  0  0  0  0
   -4.1494    0.0428   -1.1201 C   0  0  0  0  0  0  0  0  0  0  0  0
   -5.3265   -0.7077   -1.1125 C   0  0  0  0  0  0  0  0  0  0  0  0
   -5.4260   -1.8398   -0.3055 C   0  0  0  0  0  0  0  0  0  0  0  0
   -4.3527   -2.2196    0.5000 C   0  0  0  0  0  0  0  0  0  0  0  0
   -3.1719   -1.4721    0.4948 C   0  0  0  0  0  0  0  0  0  0  0  0
   -1.9016    1.7271   -0.6877 N   0  0  0  0  0  0  0  0  0  0  0  0
   -0.7684    2.5190   -0.7272 C   0  0  0  0  0  0  0  0  0  0  0  0
   -0.9033    4.1211   -1.2676 S   0  0  0  0  0  0  0  0  0  0  0  0
    2.7012    3.7199   -1.9687 H   0  0  0  0  0  0  0  0  0  0  0  0
    3.5281    2.2031   -1.4929 H   0  0  0  0  0  0  0  0  0  0  0  0
    2.0152    2.1467   -2.4211 H   0  0  0  0  0  0  0  0  0  0  0  0
    3.5084    0.8672    0.9683 H   0  0  0  0  0  0  0  0  0  0  0  0
    2.1456    1.0771    2.1019 H   0  0  0  0  0  0  0  0  0  0  0  0
    2.3337   -1.3014    2.8012 H   0  0  0  0  0  0  0  0  0  0  0  0
    3.8473   -0.4354    3.0749 H   0  0  0  0  0  0  0  0  0  0  0  0
    3.6393   -2.9155   -0.1548 H   0  0  0  0  0  0  0  0  0  0  0  0
    4.1007   -1.2302   -0.4144 H   0  0  0  0  0  0  0  0  0  0  0  0
    1.7092   -1.6632   -1.0701 H   0  0  0  0  0  0  0  0  0  0  0  0
    1.3534   -2.1813    0.5955 H   0  0  0  0  0  0  0  0  0  0  0  0
   -0.5604   -1.0781    0.2118 H   0  0  0  0  0  0  0  0  0  0  0  0
   -4.0848    0.9271   -1.7511 H   0  0  0  0  0  0  0  0  0  0  0  0
   -6.1660   -0.4044   -1.7333 H   0  0  0  0  0  0  0  0  0  0  0  0
   -6.3455   -2.4202   -0.2967 H   0  0  0  0  0  0  0  0  0  0  0  0
   -4.4417   -3.0933    1.1413 H   0  0  0  0  0  0  0  0  0  0  0  0
   -2.3682   -1.7717    1.1592 H   0  0  0  0  0  0  0  0  0  0  0  0
  1  2  1  0
  2  3  2  0
  2  4  1  0
  4  5  2  0
  5  6  1  0
  6  7  1  0
  7  8  1  0
  8  9  1  0
  9 10  1  0
 10 11  1  0
  5 12  1  0
 12 13  1  0
 13 14  1  0
 14 15  2  0
 15 16  1  0
 16 17  2  0
 17 18  1  0
 18 19  2  0
 13 20  2  0
 20 21  1  0
 21 22  2  0
 21  4  1  0
 11  6  1  0
 19 14  1  0
  1 23  1  0
  1 24  1  0
  1 25  1  0
  7 26  1  0
  7 27  1  0
  8 28  1  0
  8 29  1  0
 10 30  1  0
 10 31  1  0
 11 32  1  0
 11 33  1  0
 12 34  1  0
 15 35  1  0
 16 36  1  0
 17 37  1  0
 18 38  1  0
 19 39  1  0
M  END
$$$$
