
     RDKit          3D

 55 57  0  0  0  0  0  0  0  0999 V2000
    3.1968   -0.0716   -2.7297 C   0  0  0  0  0  0  0  0  0  0  0  0
    2.0705   -0.0635   -1.7000 C   0  0  0  0  0  0  0  0  0  0  0  0
    0.7320    0.3570   -2.3324 C   0  0  0  0  0  0  0  0  0  0  0  0
    0.5749    0.3732   -3.5519 O   0  0  0  0  0  0  0  0  0  0  0  0
   -0.2685    0.5578   -1.3942 N   0  0  0  0  0  0  0  0  0  0  0  0
   -1.5989    0.9863   -1.6222 C   0  0  0  0  0  0  0  0  0  0  0  0
   -2.0169    1.5178   -2.8474 C   0  0  0  0  0  0  0  0  0  0  0  0
   -3.3223    1.9957   -3.0156 C   0  0  0  0  0  0  0  0  0  0  0  0
   -4.2299    1.9584   -1.9608 C   0  0  0  0  0  0  0  0  0  0  0  0
   -3.8400    1.4214   -0.7372 C   0  0  0  0  0  0  0  0  0  0  0  0
   -2.5408    0.9124   -0.5759 C   0  0  0  0  0  0  0  0  0  0  0  0
   -2.1699    0.3102    0.7254 C   0  0  0  0  0  0  0  0  0  0  0  0
   -1.1698    0.7504    1.2895 O   0  0  0  0  0  0  0  0  0  0  0  0
   -2.9223   -0.7405    1.2351 N   0  0  0  0  0  0  0  0  0  0  0  0
   -3.9828   -1.4728    0.5300 C   0  0  0  0  0  0  0  0  0  0  0  0
   -3.8507   -2.9856    0.7524 C   0  0  0  0  0  0  0  0  0  0  0  0
   -3.7770   -3.3067    2.1490 O   0  0  0  0  0  0  0  0  0  0  0  0
   -2.6330   -2.6766    2.7480 C   0  0  0  0  0  0  0  0  0  0  0  0
   -2.7220   -1.1538    2.6266 C   0  0  0  0  0  0  0  0  0  0  0  0
    2.4036    0.7443   -0.4895 N   0  0  0  0  0  0  0  0  0  0  0  0
    2.7386    0.0717    0.7340 C   0  0  0  0  0  0  0  0  0  0  0  0
    3.7626   -0.8807    0.7675 C   0  0  0  0  0  0  0  0  0  0  0  0
    4.0858   -1.5270    1.9652 C   0  0  0  0  0  0  0  0  0  0  0  0
    3.3857   -1.2200    3.1305 C   0  0  0  0  0  0  0  0  0  0  0  0
    3.7823   -2.0175    4.6009 Cl  0  0  0  0  0  0  0  0  0  0  0  0
    2.3697   -0.2692    3.1084 C   0  0  0  0  0  0  0  0  0  0  0  0
    2.0491    0.3753    1.9102 C   0  0  0  0  0  0  0  0  0  0  0  0
    2.7189    2.4061   -0.6209 S   0  0  0  0  0  6  0  0  0  0  0  0
    4.4941    2.4474   -0.7779 C   0  0  0  0  0  0  0  0  0  0  0  0
    2.3938    3.0611    0.6281 O   0  0  0  0  0  0  0  0  0  0  0  0
    2.1629    2.8831   -1.8689 O   0  0  0  0  0  0  0  0  0  0  0  0
    4.1573   -0.3370   -2.2796 H   0  0  0  0  0  0  0  0  0  0  0  0
    2.9886   -0.8035   -3.5189 H   0  0  0  0  0  0  0  0  0  0  0  0
    3.3083    0.8991   -3.2227 H   0  0  0  0  0  0  0  0  0  0  0  0
    1.9100   -1.1063   -1.3887 H   0  0  0  0  0  0  0  0  0  0  0  0
   -0.0044    0.4476   -0.4138 H   0  0  0  0  0  0  0  0  0  0  0  0
   -1.3339    1.6141   -3.6869 H   0  0  0  0  0  0  0  0  0  0  0  0
   -3.6160    2.4233   -3.9713 H   0  0  0  0  0  0  0  0  0  0  0  0
   -5.2346    2.3537   -2.0920 H   0  0  0  0  0  0  0  0  0  0  0  0
   -4.5441    1.4059    0.0906 H   0  0  0  0  0  0  0  0  0  0  0  0
   -4.9336   -1.1171    0.9432 H   0  0  0  0  0  0  0  0  0  0  0  0
   -3.9651   -1.2684   -0.5428 H   0  0  0  0  0  0  0  0  0  0  0  0
   -4.7210   -3.5015    0.3348 H   0  0  0  0  0  0  0  0  0  0  0  0
   -2.9574   -3.3776    0.2507 H   0  0  0  0  0  0  0  0  0  0  0  0
   -1.7234   -3.0590    2.2695 H   0  0  0  0  0  0  0  0  0  0  0  0
   -2.6060   -2.9679    3.8027 H   0  0  0  0  0  0  0  0  0  0  0  0
   -1.8331   -0.6861    3.0606 H   0  0  0  0  0  0  0  0  0  0  0  0
   -3.5967   -0.7916    3.1803 H   0  0  0  0  0  0  0  0  0  0  0  0
    4.3256   -1.1311   -0.1248 H   0  0  0  0  0  0  0  0  0  0  0  0
    4.8834   -2.2658    1.9824 H   0  0  0  0  0  0  0  0  0  0  0  0
    1.8228   -0.0174    4.0124 H   0  0  0  0  0  0  0  0  0  0  0  0
    1.2541    1.1193    1.9111 H   0  0  0  0  0  0  0  0  0  0  0  0
    4.8024    1.9321   -1.6862 H   0  0  0  0  0  0  0  0  0  0  0  0
    4.7948    3.4969   -0.8388 H   0  0  0  0  0  0  0  0  0  0  0  0
    4.9456    1.9943    0.1063 H   0  0  0  0  0  0  0  0  0  0  0  0
  1  2  1  0
  2  3  1  0
  3  4  2  0
  3  5  1  0
  5  6  1  0
  6  7  2  0
  7  8  1  0
  8  9  2  0
  9 10  1  0
 10 11  2  0
 11 12  1  0
 12 13  2  0
 12 14  1  0
 14 15  1  0
 15 16  1  0
 16 17  1  0
 17 18  1  0
 18 19  1  0
  2 20  1  0
 20 21  1  0
 21 22  2  0
 22 23  1  0
 23 24  2  0
 24 25  1  0
 24 26  1  0
 26 27  2  0
 20 28  1  0
 28 29  1  0
 28 30  2  0
 28 31  2  0
 11  6  1  0
 19 14  1  0
 27 21  1  0
  1 32  1  0
  1 33  1  0
  1 34  1  0
  2 35  1  0
  5 36  1  0
  7 37  1  0
  8 38  1  0
  9 39  1  0
 10 40  1  0
 15 41  1  0
 15 42  1  0
 16 43  1  0
 16 44  1  0
 18 45  1  0
 18 46  1  0
 19 47  1  0
 19 48  1  0
 22 49  1  0
 23 50  1  0
 26 51  1  0
 27 52  1  0
 29 53  1  0
 29 54  1  0
 29 55  1  0
M  END
$$$$
