
     RDKit          3D

 73 75  0  0  0  0  0  0  0  0999 V2000
    8.6662    0.6631   -0.7079 C   0  0  0  0  0  0  0  0  0  0  0  0
    7.2951    0.3837   -1.3047 C   0  0  0  0  0  0  0  0  0  0  0  0
    6.9522   -1.1066   -1.2535 C   0  0  0  0  0  0  0  0  0  0  0  0
    5.5361   -1.3649   -1.7703 C   0  0  0  0  0  0  0  0  0  0  0  0
    5.1953   -2.8546   -1.8980 C   0  0  0  0  0  0  0  0  0  0  0  0
    5.2682   -3.6679   -0.6015 C   0  0  0  0  0  0  0  0  0  0  0  0
    4.3434   -3.2164    0.5356 C   0  0  0  0  0  0  0  0  0  0  0  0
    2.8461   -3.3747    0.2424 C   0  0  0  0  0  0  0  0  0  0  0  0
    2.1759   -2.0792   -0.2251 C   0  0  0  0  0  0  0  0  0  0  0  0
    0.6641   -2.2763   -0.4058 C   0  0  0  0  0  0  0  0  0  0  0  0
   -0.0642   -0.9813   -0.7873 C   0  0  0  0  0  0  0  0  0  0  0  0
   -0.7757   -0.2540    0.3921 N   0  0  0  0  0  4  0  0  0  0  0  0
   -1.9217   -1.1257    0.9199 C   0  0  0  0  0  0  0  0  0  0  0  0
    0.2052    0.0691    1.5069 C   0  0  0  0  0  0  0  0  0  0  0  0
   -1.3700    1.0579   -0.2078 C   0  0  0  0  0  0  0  0  0  0  0  0
   -2.0177    2.0032    0.8248 C   0  0  0  0  0  0  0  0  0  0  0  0
   -3.1978    2.7235    0.2204 C   0  0  0  0  0  0  0  0  0  0  0  0
   -4.5143    2.5516    0.4858 C   0  0  0  0  0  0  0  0  0  0  0  0
   -5.4873    3.1764   -0.4515 C   0  0  0  0  0  0  0  0  0  0  0  0
   -5.4386    4.5371   -0.7855 C   0  0  0  0  0  0  0  0  0  0  0  0
   -6.3773    5.0794   -1.6656 C   0  0  0  0  0  0  0  0  0  0  0  0
   -7.3772    4.2734   -2.2096 C   0  0  0  0  0  0  0  0  0  0  0  0
   -7.4433    2.9198   -1.8760 C   0  0  0  0  0  0  0  0  0  0  0  0
   -6.5121    2.3673   -0.9890 C   0  0  0  0  0  0  0  0  0  0  0  0
   -6.6511    0.6244   -0.5713 S   0  0  0  0  0  0  0  0  0  0  0  0
   -5.9855    0.6363    1.0929 C   0  0  0  0  0  0  0  0  0  0  0  0
   -6.4675   -0.3013    2.0171 C   0  0  0  0  0  0  0  0  0  0  0  0
   -6.0045   -0.2887    3.3361 C   0  0  0  0  0  0  0  0  0  0  0  0
   -5.0796    0.6741    3.7364 C   0  0  0  0  0  0  0  0  0  0  0  0
   -4.5089    0.6960    5.3588 Cl  0  0  0  0  0  0  0  0  0  0  0  0
   -4.5992    1.6162    2.8271 C   0  0  0  0  0  0  0  0  0  0  0  0
   -5.0131    1.5762    1.4888 C   0  0  0  0  0  0  0  0  0  0  0  0
    8.6791    0.4224    0.3610 H   0  0  0  0  0  0  0  0  0  0  0  0
    8.9194    1.7215   -0.8219 H   0  0  0  0  0  0  0  0  0  0  0  0
    9.4446    0.0670   -1.2014 H   0  0  0  0  0  0  0  0  0  0  0  0
    6.5415    0.9623   -0.7576 H   0  0  0  0  0  0  0  0  0  0  0  0
    7.2760    0.7317   -2.3444 H   0  0  0  0  0  0  0  0  0  0  0  0
    7.6742   -1.6636   -1.8613 H   0  0  0  0  0  0  0  0  0  0  0  0
    7.0468   -1.4659   -0.2228 H   0  0  0  0  0  0  0  0  0  0  0  0
    5.4316   -0.9081   -2.7635 H   0  0  0  0  0  0  0  0  0  0  0  0
    4.8130   -0.8628   -1.1192 H   0  0  0  0  0  0  0  0  0  0  0  0
    4.1963   -2.9562   -2.3402 H   0  0  0  0  0  0  0  0  0  0  0  0
    5.8876   -3.3076   -2.6221 H   0  0  0  0  0  0  0  0  0  0  0  0
    5.0441   -4.7148   -0.8429 H   0  0  0  0  0  0  0  0  0  0  0  0
    6.3006   -3.6685   -0.2275 H   0  0  0  0  0  0  0  0  0  0  0  0
    4.5747   -2.1920    0.8473 H   0  0  0  0  0  0  0  0  0  0  0  0
    4.5757   -3.8509    1.4027 H   0  0  0  0  0  0  0  0  0  0  0  0
    2.3537   -3.6829    1.1762 H   0  0  0  0  0  0  0  0  0  0  0  0
    2.6738   -4.1808   -0.4825 H   0  0  0  0  0  0  0  0  0  0  0  0
    2.3724   -1.2926    0.5091 H   0  0  0  0  0  0  0  0  0  0  0  0
    2.6054   -1.7456   -1.1749 H   0  0  0  0  0  0  0  0  0  0  0  0
    0.5280   -2.9901   -1.2323 H   0  0  0  0  0  0  0  0  0  0  0  0
    0.2423   -2.7534    0.4822 H   0  0  0  0  0  0  0  0  0  0  0  0
   -0.8525   -1.2039   -1.5168 H   0  0  0  0  0  0  0  0  0  0  0  0
    0.6266   -0.2591   -1.2408 H   0  0  0  0  0  0  0  0  0  0  0  0
   -2.6192   -1.3158    0.0989 H   0  0  0  0  0  0  0  0  0  0  0  0
   -2.4232   -0.6112    1.7409 H   0  0  0  0  0  0  0  0  0  0  0  0
   -1.5165   -2.0643    1.3002 H   0  0  0  0  0  0  0  0  0  0  0  0
   -0.3138    0.6154    2.2972 H   0  0  0  0  0  0  0  0  0  0  0  0
    1.0079    0.6859    1.0898 H   0  0  0  0  0  0  0  0  0  0  0  0
    0.5936   -0.8663    1.9186 H   0  0  0  0  0  0  0  0  0  0  0  0
   -2.0889    0.7393   -0.9744 H   0  0  0  0  0  0  0  0  0  0  0  0
   -0.5427    1.5815   -0.7079 H   0  0  0  0  0  0  0  0  0  0  0  0
   -2.3031    1.4601    1.7254 H   0  0  0  0  0  0  0  0  0  0  0  0
   -1.2823    2.7532    1.1480 H   0  0  0  0  0  0  0  0  0  0  0  0
   -2.9188    3.4067   -0.5848 H   0  0  0  0  0  0  0  0  0  0  0  0
   -4.6855    5.1905   -0.3533 H   0  0  0  0  0  0  0  0  0  0  0  0
   -6.3363    6.1364   -1.9179 H   0  0  0  0  0  0  0  0  0  0  0  0
   -8.1118    4.7013   -2.8897 H   0  0  0  0  0  0  0  0  0  0  0  0
   -8.2350    2.3074   -2.3036 H   0  0  0  0  0  0  0  0  0  0  0  0
   -7.2154   -1.0364    1.7222 H   0  0  0  0  0  0  0  0  0  0  0  0
   -6.3906   -1.0153    4.0491 H   0  0  0  0  0  0  0  0  0  0  0  0
   -3.9143    2.3886    3.1675 H   0  0  0  0  0  0  0  0  0  0  0  0
  1  2  1  0
  2  3  1  0
  3  4  1  0
  4  5  1  0
  5  6  1  0
  6  7  1  0
  7  8  1  0
  8  9  1  0
  9 10  1  0
 10 11  1  0
 11 12  1  0
 12 13  1  0
 12 14  1  0
 12 15  1  0
 15 16  1  0
 16 17  1  0
 17 18  2  3
 18 19  1  0
 19 20  2  0
 20 21  1  0
 21 22  2  0
 22 23  1  0
 23 24  2  0
 24 25  1  0
 25 26  1  0
 26 27  2  0
 27 28  1  0
 28 29  2  0
 29 30  1  0
 29 31  1  0
 31 32  2  0
 32 18  1  0
 24 19  1  0
 32 26  1  0
  1 33  1  0
  1 34  1  0
  1 35  1  0
  2 36  1  0
  2 37  1  0
  3 38  1  0
  3 39  1  0
  4 40  1  0
  4 41  1  0
  5 42  1  0
  5 43  1  0
  6 44  1  0
  6 45  1  0
  7 46  1  0
  7 47  1  0
  8 48  1  0
  8 49  1  0
  9 50  1  0
  9 51  1  0
 10 52  1  0
 10 53  1  0
 11 54  1  0
 11 55  1  0
 13 56  1  0
 13 57  1  0
 13 58  1  0
 14 59  1  0
 14 60  1  0
 14 61  1  0
 15 62  1  0
 15 63  1  0
 16 64  1  0
 16 65  1  0
 17 66  1  0
 20 67  1  0
 21 68  1  0
 22 69  1  0
 23 70  1  0
 27 71  1  0
 28 72  1  0
 31 73  1  0
M  CHG  1  12   1
M  END
$$$$
