
     RDKit          3D

 37 38  0  0  0  0  0  0  0  0999 V2000
   -4.8720   -0.4196   -1.1227 C   0  0  0  0  0  0  0  0  0  0  0  0
   -4.1966   -0.5568    0.1658 N   0  0  0  0  0  0  0  0  0  0  0  0
   -4.0885    0.7384    0.8681 C   0  0  0  0  0  0  0  0  0  0  0  0
   -3.0623    1.7195    0.2716 C   0  0  0  0  0  0  0  0  0  0  0  0
   -1.7515    1.1046    0.0498 N   0  0  0  0  0  0  0  0  0  0  0  0
   -0.6776    1.9733   -0.0791 C   0  0  0  0  0  0  0  0  0  0  0  0
   -0.7656    3.1947    0.0170 O   0  0  0  0  0  0  0  0  0  0  0  0
    0.6521    1.3873   -0.3606 C   0  0  0  0  0  0  0  0  0  0  0  0
    1.2415    0.5984    0.5511 C   0  0  0  0  0  0  0  0  0  0  0  0
    2.5788    0.0144    0.3905 C   0  0  0  0  0  0  0  0  0  0  0  0
    3.6299    0.7087   -0.2266 C   0  0  0  0  0  0  0  0  0  0  0  0
    4.8994    0.1314   -0.3388 C   0  0  0  0  0  0  0  0  0  0  0  0
    5.1239   -1.1487    0.1807 C   0  0  0  0  0  0  0  0  0  0  0  0
    6.4537   -1.7602    0.0650 N   0  0  0  0  0  4  0  0  0  0  0  0
    7.3398   -1.1096   -0.5071 O   0  0  0  0  0  0  0  0  0  0  0  0
    6.6109   -2.8923    0.5441 O   0  0  0  0  0  1  0  0  0  0  0  0
    4.0902   -1.8479    0.8146 C   0  0  0  0  0  0  0  0  0  0  0  0
    2.8253   -1.2603    0.9214 C   0  0  0  0  0  0  0  0  0  0  0  0
   -1.7898   -0.2158   -0.5937 C   0  0  0  0  0  0  0  0  0  0  0  0
   -2.8520   -1.1466    0.0235 C   0  0  0  0  0  0  0  0  0  0  0  0
   -5.8848   -0.0262   -0.9811 H   0  0  0  0  0  0  0  0  0  0  0  0
   -4.9835   -1.4000   -1.5992 H   0  0  0  0  0  0  0  0  0  0  0  0
   -4.3466    0.2392   -1.8213 H   0  0  0  0  0  0  0  0  0  0  0  0
   -3.8000    0.5275    1.9065 H   0  0  0  0  0  0  0  0  0  0  0  0
   -5.0715    1.2212    0.9275 H   0  0  0  0  0  0  0  0  0  0  0  0
   -2.9545    2.5780    0.9447 H   0  0  0  0  0  0  0  0  0  0  0  0
   -3.4114    2.1064   -0.6933 H   0  0  0  0  0  0  0  0  0  0  0  0
    1.1217    1.7121   -1.2796 H   0  0  0  0  0  0  0  0  0  0  0  0
    0.7164    0.3480    1.4714 H   0  0  0  0  0  0  0  0  0  0  0  0
    3.4791    1.7144   -0.6151 H   0  0  0  0  0  0  0  0  0  0  0  0
    5.6952    0.6935   -0.8237 H   0  0  0  0  0  0  0  0  0  0  0  0
    4.2499   -2.8409    1.2303 H   0  0  0  0  0  0  0  0  0  0  0  0
    2.0306   -1.8129    1.4201 H   0  0  0  0  0  0  0  0  0  0  0  0
   -1.9966   -0.0476   -1.6576 H   0  0  0  0  0  0  0  0  0  0  0  0
   -0.8164   -0.7083   -0.5371 H   0  0  0  0  0  0  0  0  0  0  0  0
   -2.5111   -1.4389    1.0257 H   0  0  0  0  0  0  0  0  0  0  0  0
   -2.9060   -2.0784   -0.5527 H   0  0  0  0  0  0  0  0  0  0  0  0
  1  2  1  0
  2  3  1  0
  3  4  1  0
  4  5  1  0
  5  6  1  0
  6  7  2  0
  6  8  1  0
  8  9  2  3
  9 10  1  0
 10 11  2  0
 11 12  1  0
 12 13  2  0
 13 14  1  0
 14 15  2  0
 14 16  1  0
 13 17  1  0
 17 18  2  0
  5 19  1  0
 19 20  1  0
 20  2  1  0
 18 10  1  0
  1 21  1  0
  1 22  1  0
  1 23  1  0
  3 24  1  0
  3 25  1  0
  4 26  1  0
  4 27  1  0
  8 28  1  0
  9 29  1  0
 11 30  1  0
 12 31  1  0
 17 32  1  0
 18 33  1  0
 19 34  1  0
 19 35  1  0
 20 36  1  0
 20 37  1  0
M  CHG  2  14   1  16  -1
M  END
$$$$
