
     RDKit          3D

 56 58  0  0  0  0  0  0  0  0999 V2000
   -4.9689    3.6420    1.0112 C   0  0  0  0  0  0  0  0  0  0  0  0
   -5.3674    3.2702   -0.4048 C   0  0  0  0  0  0  0  0  0  0  0  0
   -5.0107    1.9058   -0.6743 O   0  0  0  0  0  0  0  0  0  0  0  0
   -3.7378    1.7006   -1.1230 C   0  0  0  0  0  0  0  0  0  0  0  0
   -2.8991    2.5779   -1.2711 O   0  0  0  0  0  0  0  0  0  0  0  0
   -3.5019    0.2279   -1.3397 C   0  0  0  0  0  0  0  0  0  0  0  0
   -2.4061   -0.0023   -2.3514 C   0  0  0  0  0  0  0  0  0  0  0  0
   -2.6347   -0.0445   -3.5602 O   0  0  0  0  0  0  0  0  0  0  0  0
   -1.0050   -0.1229   -1.8861 C   0  0  0  0  0  0  0  0  0  0  0  0
   -0.7092   -0.1474   -0.5773 C   0  0  0  0  0  0  0  0  0  0  0  0
    0.6621   -0.2500   -0.1030 C   0  0  0  0  0  0  0  0  0  0  0  0
    1.6761    0.5047   -0.5565 C   0  0  0  0  0  0  0  0  0  0  0  0
    3.0585    0.3966   -0.0724 C   0  0  0  0  0  0  0  0  0  0  0  0
    4.1092    0.5550   -0.9745 C   0  0  0  0  0  0  0  0  0  0  0  0
    5.4436    0.4814   -0.5437 C   0  0  0  0  0  0  0  0  0  0  0  0
    5.7905    0.2710    0.8021 C   0  0  0  0  0  0  0  0  0  0  0  0
    7.1228    0.1797    1.2230 N   0  0  0  0  0  0  0  0  0  0  0  0
    8.1790    0.6624    0.3345 C   0  0  0  0  0  0  0  0  0  0  0  0
    7.4220    0.2474    2.6522 C   0  0  0  0  0  0  0  0  0  0  0  0
    4.7116    0.1170    1.6900 C   0  0  0  0  0  0  0  0  0  0  0  0
    3.3733    0.1878    1.2694 C   0  0  0  0  0  0  0  0  0  0  0  0
   -1.7670   -0.1405    0.5015 C   0  0  0  0  0  0  0  0  0  0  0  0
   -3.1984   -0.4503    0.0073 C   0  0  0  0  0  0  0  0  0  0  0  0
   -3.5669   -1.9327   -0.0353 C   0  0  0  0  0  0  0  0  0  0  0  0
   -4.9068   -2.2952    0.1959 C   0  0  0  0  0  0  0  0  0  0  0  0
   -5.3093   -3.6312    0.1537 C   0  0  0  0  0  0  0  0  0  0  0  0
   -4.3805   -4.6286   -0.1245 C   0  0  0  0  0  0  0  0  0  0  0  0
   -3.0516   -4.2886   -0.3623 C   0  0  0  0  0  0  0  0  0  0  0  0
   -2.6469   -2.9513   -0.3200 C   0  0  0  0  0  0  0  0  0  0  0  0
   -5.4210    2.9520    1.7316 H   0  0  0  0  0  0  0  0  0  0  0  0
   -3.8846    3.5751    1.1455 H   0  0  0  0  0  0  0  0  0  0  0  0
   -5.2882    4.6605    1.2494 H   0  0  0  0  0  0  0  0  0  0  0  0
   -6.4545    3.3441   -0.5130 H   0  0  0  0  0  0  0  0  0  0  0  0
   -4.9229    3.9507   -1.1400 H   0  0  0  0  0  0  0  0  0  0  0  0
   -4.4167   -0.1889   -1.7839 H   0  0  0  0  0  0  0  0  0  0  0  0
   -0.2546   -0.1720   -2.6673 H   0  0  0  0  0  0  0  0  0  0  0  0
    0.8367   -0.9879    0.6785 H   0  0  0  0  0  0  0  0  0  0  0  0
    1.5111    1.2435   -1.3381 H   0  0  0  0  0  0  0  0  0  0  0  0
    3.9099    0.7244   -2.0304 H   0  0  0  0  0  0  0  0  0  0  0  0
    6.2073    0.5923   -1.3073 H   0  0  0  0  0  0  0  0  0  0  0  0
    9.1679    0.5451    0.7920 H   0  0  0  0  0  0  0  0  0  0  0  0
    8.0457    1.7257    0.1052 H   0  0  0  0  0  0  0  0  0  0  0  0
    8.2100    0.0851   -0.5960 H   0  0  0  0  0  0  0  0  0  0  0  0
    6.9566   -0.5820    3.1954 H   0  0  0  0  0  0  0  0  0  0  0  0
    8.4985    0.1585    2.8371 H   0  0  0  0  0  0  0  0  0  0  0  0
    7.0913    1.2006    3.0792 H   0  0  0  0  0  0  0  0  0  0  0  0
    4.8792   -0.0620    2.7475 H   0  0  0  0  0  0  0  0  0  0  0  0
    2.5894    0.0839    2.0150 H   0  0  0  0  0  0  0  0  0  0  0  0
   -1.5024   -0.8372    1.3079 H   0  0  0  0  0  0  0  0  0  0  0  0
   -1.7631    0.8624    0.9515 H   0  0  0  0  0  0  0  0  0  0  0  0
   -3.8552   -0.0181    0.7780 H   0  0  0  0  0  0  0  0  0  0  0  0
   -5.6544   -1.5332    0.4112 H   0  0  0  0  0  0  0  0  0  0  0  0
   -6.3488   -3.8921    0.3355 H   0  0  0  0  0  0  0  0  0  0  0  0
   -4.6914   -5.6693   -0.1606 H   0  0  0  0  0  0  0  0  0  0  0  0
   -2.3254   -5.0666   -0.5856 H   0  0  0  0  0  0  0  0  0  0  0  0
   -1.6008   -2.7367   -0.5171 H   0  0  0  0  0  0  0  0  0  0  0  0
  1  2  1  0
  2  3  1  0
  3  4  1  0
  4  5  2  0
  4  6  1  0
  6  7  1  0
  7  8  2  0
  7  9  1  0
  9 10  2  0
 10 11  1  0
 11 12  2  3
 12 13  1  0
 13 14  2  0
 14 15  1  0
 15 16  2  0
 16 17  1  0
 17 18  1  0
 17 19  1  0
 16 20  1  0
 20 21  2  0
 10 22  1  0
 22 23  1  0
 23 24  1  0
 24 25  2  0
 25 26  1  0
 26 27  2  0
 27 28  1  0
 28 29  2  0
 23  6  1  0
 29 24  1  0
 21 13  1  0
  1 30  1  0
  1 31  1  0
  1 32  1  0
  2 33  1  0
  2 34  1  0
  6 35  1  0
  9 36  1  0
 11 37  1  0
 12 38  1  0
 14 39  1  0
 15 40  1  0
 18 41  1  0
 18 42  1  0
 18 43  1  0
 19 44  1  0
 19 45  1  0
 19 46  1  0
 20 47  1  0
 21 48  1  0
 22 49  1  0
 22 50  1  0
 23 51  1  0
 25 52  1  0
 26 53  1  0
 27 54  1  0
 28 55  1  0
 29 56  1  0
M  END
$$$$
