
     RDKit          3D

 49 51  0  0  0  0  0  0  0  0999 V2000
   -5.9711   -0.2013   -2.5047 C   0  0  0  0  0  0  0  0  0  0  0  0
   -4.9750    0.1426   -1.4371 C   0  0  0  0  0  0  0  0  0  0  0  0
   -5.4001    0.7693   -0.2610 C   0  0  0  0  0  0  0  0  0  0  0  0
   -4.4796    1.1190    0.7328 C   0  0  0  0  0  0  0  0  0  0  0  0
   -4.9427    1.7574    2.0099 C   0  0  0  0  0  0  0  0  0  0  0  0
   -3.1204    0.8206    0.5491 C   0  0  0  0  0  0  0  0  0  0  0  0
   -2.6753    0.2038   -0.6215 C   0  0  0  0  0  0  0  0  0  0  0  0
   -1.3261   -0.1125   -0.8851 N   0  0  0  0  0  0  0  0  0  0  0  0
   -0.2311    0.0610   -0.0455 C   0  0  0  0  0  0  0  0  0  0  0  0
   -0.2632    0.5045    1.1010 O   0  0  0  0  0  0  0  0  0  0  0  0
    1.1041   -0.3842   -0.7051 C   0  0  0  0  0  0  0  0  0  0  0  0
    2.2462   -0.0020    0.0652 O   0  0  0  0  0  0  0  0  0  0  0  0
    2.5606    1.3113   -0.0281 C   0  0  0  0  0  0  0  0  0  0  0  0
    2.0290    2.1182   -0.7748 O   0  0  0  0  0  0  0  0  0  0  0  0
    3.6795    1.6475    0.8935 C   0  0  0  0  0  0  0  0  0  0  0  0
    4.1696    2.9609    0.8895 C   0  0  0  0  0  0  0  0  0  0  0  0
    5.2200    3.3216    1.7361 C   0  0  0  0  0  0  0  0  0  0  0  0
    5.7778    2.3724    2.5849 C   0  0  0  0  0  0  0  0  0  0  0  0
    6.8012    2.7683    3.3931 O   0  0  0  0  0  0  0  0  0  0  0  0
    5.3027    1.0643    2.6051 C   0  0  0  0  0  0  0  0  0  0  0  0
    4.2513    0.7012    1.7579 C   0  0  0  0  0  0  0  0  0  0  0  0
    1.1706   -1.8958   -0.8619 C   0  0  0  0  0  0  0  0  0  0  0  0
    1.4716   -2.4659   -2.1088 C   0  0  0  0  0  0  0  0  0  0  0  0
    1.5360   -3.8527   -2.2558 C   0  0  0  0  0  0  0  0  0  0  0  0
    1.3058   -4.6838   -1.1612 C   0  0  0  0  0  0  0  0  0  0  0  0
    1.0202   -4.1303    0.0848 C   0  0  0  0  0  0  0  0  0  0  0  0
    0.9574   -2.7447    0.2364 C   0  0  0  0  0  0  0  0  0  0  0  0
   -3.6106   -0.1235   -1.6133 C   0  0  0  0  0  0  0  0  0  0  0  0
   -6.2894    0.7055   -3.0284 H   0  0  0  0  0  0  0  0  0  0  0  0
   -5.5465   -0.8942   -3.2391 H   0  0  0  0  0  0  0  0  0  0  0  0
   -6.8473   -0.6881   -2.0632 H   0  0  0  0  0  0  0  0  0  0  0  0
   -6.4569    0.9869   -0.1179 H   0  0  0  0  0  0  0  0  0  0  0  0
   -5.1250    0.9893    2.7675 H   0  0  0  0  0  0  0  0  0  0  0  0
   -4.1932    2.4600    2.3884 H   0  0  0  0  0  0  0  0  0  0  0  0
   -5.8666    2.3238    1.8528 H   0  0  0  0  0  0  0  0  0  0  0  0
   -2.4274    1.0886    1.3404 H   0  0  0  0  0  0  0  0  0  0  0  0
   -1.1465   -0.5578   -1.7766 H   0  0  0  0  0  0  0  0  0  0  0  0
    1.1553    0.0749   -1.7022 H   0  0  0  0  0  0  0  0  0  0  0  0
    3.7353    3.7095    0.2295 H   0  0  0  0  0  0  0  0  0  0  0  0
    5.5992    4.3399    1.7342 H   0  0  0  0  0  0  0  0  0  0  0  0
    7.0877    2.0112    3.9298 H   0  0  0  0  0  0  0  0  0  0  0  0
    5.7317    0.3190    3.2677 H   0  0  0  0  0  0  0  0  0  0  0  0
    3.8847   -0.3225    1.7856 H   0  0  0  0  0  0  0  0  0  0  0  0
    1.6655   -1.8377   -2.9758 H   0  0  0  0  0  0  0  0  0  0  0  0
    1.7695   -4.2866   -3.2249 H   0  0  0  0  0  0  0  0  0  0  0  0
    1.3568   -5.7632   -1.2772 H   0  0  0  0  0  0  0  0  0  0  0  0
    0.8481   -4.7773    0.9416 H   0  0  0  0  0  0  0  0  0  0  0  0
    0.7400   -2.3296    1.2204 H   0  0  0  0  0  0  0  0  0  0  0  0
   -3.2834   -0.5990   -2.5347 H   0  0  0  0  0  0  0  0  0  0  0  0
  1  2  1  0
  2  3  2  0
  3  4  1  0
  4  5  1  0
  4  6  2  0
  6  7  1  0
  7  8  1  0
  8  9  1  0
  9 10  2  0
  9 11  1  0
 11 12  1  0
 12 13  1  0
 13 14  2  0
 13 15  1  0
 15 16  2  0
 16 17  1  0
 17 18  2  0
 18 19  1  0
 18 20  1  0
 20 21  2  0
 11 22  1  0
 22 23  2  0
 23 24  1  0
 24 25  2  0
 25 26  1  0
 26 27  2  0
  7 28  2  0
 28  2  1  0
 21 15  1  0
 27 22  1  0
  1 29  1  0
  1 30  1  0
  1 31  1  0
  3 32  1  0
  5 33  1  0
  5 34  1  0
  5 35  1  0
  6 36  1  0
  8 37  1  0
 11 38  1  0
 16 39  1  0
 17 40  1  0
 19 41  1  0
 20 42  1  0
 21 43  1  0
 23 44  1  0
 24 45  1  0
 25 46  1  0
 26 47  1  0
 27 48  1  0
 28 49  1  0
M  END
$$$$
