
     RDKit          3D

 50 52  0  0  0  0  0  0  0  0999 V2000
    1.1607   -0.5285   -2.7145 O   0  0  0  0  0  0  0  0  0  0  0  0
    2.3374   -0.5948   -2.4104 C   0  0  0  0  0  0  0  0  0  0  0  0
    3.1603   -1.5049   -2.9548 O   0  0  0  0  0  0  0  0  0  0  0  0
    3.0224    0.2791   -1.4288 C   0  0  0  0  0  0  0  0  0  0  0  0
    2.2595    1.2560   -0.7805 C   0  0  0  0  0  0  0  0  0  0  0  0
    2.8476    2.0817    0.1763 C   0  0  0  0  0  0  0  0  0  0  0  0
    2.0322    3.0024    0.8923 N   0  0  0  0  0  0  0  0  0  0  0  0
    1.3005    2.4555    2.3220 S   0  0  0  0  0  6  0  0  0  0  0  0
    0.6992    3.6162    2.9416 O   0  0  0  0  0  0  0  0  0  0  0  0
    2.2370    1.6197    3.0401 O   0  0  0  0  0  0  0  0  0  0  0  0
   -0.0129    1.4349    1.7074 C   0  0  0  0  0  0  0  0  0  0  0  0
   -1.1785    2.0234    1.2200 C   0  0  0  0  0  0  0  0  0  0  0  0
   -2.1862    1.2189    0.6684 C   0  0  0  0  0  0  0  0  0  0  0  0
   -2.0635   -0.1819    0.5791 C   0  0  0  0  0  0  0  0  0  0  0  0
   -3.0484   -0.9454   -0.0471 N   0  0  0  0  0  0  0  0  0  0  0  0
   -2.6317   -1.7779   -1.1938 C   0  0  0  0  0  0  0  0  0  0  0  0
   -3.6429   -1.6961   -2.3348 C   0  0  0  0  0  0  0  0  0  0  0  0
   -5.0482   -2.0917   -1.8839 C   0  0  0  0  0  0  0  0  0  0  0  0
   -5.3505   -1.6635   -0.4472 C   0  0  0  0  0  0  0  0  0  0  0  0
   -4.4510   -0.5154    0.0020 C   0  0  0  0  0  0  0  0  0  0  0  0
   -0.8867   -0.7280    1.1363 C   0  0  0  0  0  0  0  0  0  0  0  0
   -0.6913   -2.1623    1.1882 N   0  0  0  0  0  4  0  0  0  0  0  0
   -1.3655   -2.8052    2.0037 O   0  0  0  0  0  0  0  0  0  0  0  0
    0.1858   -2.6303    0.4463 O   0  0  0  0  0  1  0  0  0  0  0  0
    0.1340    0.0511    1.7009 C   0  0  0  0  0  0  0  0  0  0  0  0
    4.1990    1.9509    0.4877 C   0  0  0  0  0  0  0  0  0  0  0  0
    4.9720    0.9856   -0.1709 C   0  0  0  0  0  0  0  0  0  0  0  0
    6.4140    0.8074    0.1224 C   0  0  0  0  0  0  0  0  0  0  0  0
    7.1420   -0.0310   -0.3737 O   0  0  0  0  0  0  0  0  0  0  0  0
    6.8760    1.6990    1.0152 O   0  0  0  0  0  0  0  0  0  0  0  0
    4.3822    0.1462   -1.1263 C   0  0  0  0  0  0  0  0  0  0  0  0
    2.5854   -2.0343   -3.5467 H   0  0  0  0  0  0  0  0  0  0  0  0
    1.2051    1.3667   -1.0258 H   0  0  0  0  0  0  0  0  0  0  0  0
    2.3848    3.9523    1.0169 H   0  0  0  0  0  0  0  0  0  0  0  0
   -1.3058    3.1044    1.2409 H   0  0  0  0  0  0  0  0  0  0  0  0
   -3.0619    1.7223    0.2651 H   0  0  0  0  0  0  0  0  0  0  0  0
   -2.5429   -2.8193   -0.8631 H   0  0  0  0  0  0  0  0  0  0  0  0
   -1.6537   -1.4647   -1.5804 H   0  0  0  0  0  0  0  0  0  0  0  0
   -3.3279   -2.3352   -3.1674 H   0  0  0  0  0  0  0  0  0  0  0  0
   -3.6663   -0.6689   -2.7214 H   0  0  0  0  0  0  0  0  0  0  0  0
   -5.1761   -3.1778   -1.9653 H   0  0  0  0  0  0  0  0  0  0  0  0
   -5.7786   -1.6444   -2.5687 H   0  0  0  0  0  0  0  0  0  0  0  0
   -5.1992   -2.5220    0.2200 H   0  0  0  0  0  0  0  0  0  0  0  0
   -6.4051   -1.3794   -0.3589 H   0  0  0  0  0  0  0  0  0  0  0  0
   -4.7229   -0.2373    1.0275 H   0  0  0  0  0  0  0  0  0  0  0  0
   -4.6176    0.3564   -0.6424 H   0  0  0  0  0  0  0  0  0  0  0  0
    1.0275   -0.4189    2.1078 H   0  0  0  0  0  0  0  0  0  0  0  0
    4.6434    2.5800    1.2551 H   0  0  0  0  0  0  0  0  0  0  0  0
    7.8214    1.4605    1.1229 H   0  0  0  0  0  0  0  0  0  0  0  0
    4.9856   -0.6118   -1.6242 H   0  0  0  0  0  0  0  0  0  0  0  0
  1  2  2  0
  2  3  1  0
  2  4  1  0
  4  5  2  0
  5  6  1  0
  6  7  1  0
  7  8  1  0
  8  9  2  0
  8 10  2  0
  8 11  1  0
 11 12  2  0
 12 13  1  0
 13 14  2  0
 14 15  1  0
 15 16  1  0
 16 17  1  0
 17 18  1  0
 18 19  1  0
 19 20  1  0
 14 21  1  0
 21 22  1  0
 22 23  2  0
 22 24  1  0
 21 25  2  0
  6 26  2  0
 26 27  1  0
 27 28  1  0
 28 29  2  0
 28 30  1  0
 27 31  2  0
 31  4  1  0
 25 11  1  0
 20 15  1  0
  3 32  1  0
  5 33  1  0
  7 34  1  0
 12 35  1  0
 13 36  1  0
 16 37  1  0
 16 38  1  0
 17 39  1  0
 17 40  1  0
 18 41  1  0
 18 42  1  0
 19 43  1  0
 19 44  1  0
 20 45  1  0
 20 46  1  0
 25 47  1  0
 26 48  1  0
 30 49  1  0
 31 50  1  0
M  CHG  2  22   1  24  -1
M  END
$$$$
