
     RDKit          3D

 65 69  0  0  0  0  0  0  0  0999 V2000
    5.6276    0.7489    2.3460 C   0  0  0  0  0  0  0  0  0  0  0  0
    4.4773   -0.0847    2.2301 O   0  0  0  0  0  0  0  0  0  0  0  0
    3.3417    0.5288    1.7691 C   0  0  0  0  0  0  0  0  0  0  0  0
    3.0583    1.8826    1.9724 C   0  0  0  0  0  0  0  0  0  0  0  0
    1.8705    2.4428    1.4939 C   0  0  0  0  0  0  0  0  0  0  0  0
    0.9371    1.6612    0.8020 C   0  0  0  0  0  0  0  0  0  0  0  0
   -0.3685    2.2948    0.3118 C   0  0  0  0  0  0  0  0  0  0  0  0
   -0.5578    2.1119   -1.2102 C   0  0  0  0  0  0  0  0  0  0  0  0
   -1.3024    3.2498   -1.7853 C   0  0  0  0  0  0  0  0  0  0  0  0
   -1.9142    4.1448   -2.2037 N   0  0  0  0  0  0  0  0  0  0  0  0
   -1.3410    0.8359   -1.5208 C   0  0  0  0  0  0  0  0  0  0  0  0
   -0.8501    0.0713   -2.4466 N   0  0  0  0  0  0  0  0  0  0  0  0
   -2.5169    0.6208   -0.7853 N   0  0  0  0  0  0  0  0  0  0  0  0
   -3.4696   -0.3546   -1.2409 C   0  0  0  0  0  0  0  0  0  0  0  0
   -3.9798   -0.2621   -2.5508 C   0  0  0  0  0  0  0  0  0  0  0  0
   -4.9008   -1.1949   -3.0314 C   0  0  0  0  0  0  0  0  0  0  0  0
   -5.3300   -2.2373   -2.2141 C   0  0  0  0  0  0  0  0  0  0  0  0
   -4.8384   -2.3513   -0.9146 C   0  0  0  0  0  0  0  0  0  0  0  0
   -3.9111   -1.4198   -0.4234 C   0  0  0  0  0  0  0  0  0  0  0  0
   -3.4014   -1.6081    0.9043 C   0  0  0  0  0  0  0  0  0  0  0  0
   -2.9933   -1.7480    1.9822 N   0  0  0  0  0  0  0  0  0  0  0  0
   -2.7904    1.3954    0.3612 C   0  0  0  0  0  0  0  0  0  0  0  0
   -4.0263    1.7858    0.7365 C   0  0  0  0  0  0  0  0  0  0  0  0
   -4.3443    2.5781    1.9684 C   0  0  0  0  0  0  0  0  0  0  0  0
   -3.2223    2.5759    2.9872 C   0  0  0  0  0  0  0  0  0  0  0  0
   -1.9075    2.7876    2.2838 C   0  0  0  0  0  0  0  0  0  0  0  0
   -1.1308    3.6648    2.6651 O   0  0  0  0  0  0  0  0  0  0  0  0
   -1.5580    1.7816    1.1773 C   0  0  0  0  0  0  0  0  0  0  0  0
    1.2178    0.2991    0.6200 C   0  0  0  0  0  0  0  0  0  0  0  0
    2.4078   -0.2804    1.1041 C   0  0  0  0  0  0  0  0  0  0  0  0
    2.6285   -1.7698    0.9021 C   0  0  0  0  0  0  0  0  0  0  0  0
    2.6194   -2.1598   -0.5237 N   0  0  0  0  0  0  0  0  0  0  0  0
    2.6424   -3.6222   -0.6743 C   0  0  0  0  0  0  0  0  0  0  0  0
    4.1054   -4.0374   -0.5916 C   0  0  0  0  0  0  0  0  0  0  0  0
    4.8951   -2.7760   -0.9174 C   0  0  0  0  0  0  0  0  0  0  0  0
    3.8411   -1.7207   -1.2186 C   0  0  0  0  0  0  0  0  0  0  0  0
    5.5648    1.3788    3.2399 H   0  0  0  0  0  0  0  0  0  0  0  0
    5.7763    1.3552    1.4430 H   0  0  0  0  0  0  0  0  0  0  0  0
    6.5020    0.0989    2.4566 H   0  0  0  0  0  0  0  0  0  0  0  0
    3.7337    2.5233    2.5287 H   0  0  0  0  0  0  0  0  0  0  0  0
    1.6729    3.4961    1.6900 H   0  0  0  0  0  0  0  0  0  0  0  0
   -0.2516    3.3775    0.4676 H   0  0  0  0  0  0  0  0  0  0  0  0
    0.4177    2.0633   -1.7130 H   0  0  0  0  0  0  0  0  0  0  0  0
   -1.4187   -0.7715   -2.5698 H   0  0  0  0  0  0  0  0  0  0  0  0
   -3.6629    0.5478   -3.2064 H   0  0  0  0  0  0  0  0  0  0  0  0
   -5.2801   -1.1112   -4.0479 H   0  0  0  0  0  0  0  0  0  0  0  0
   -6.0462   -2.9643   -2.5912 H   0  0  0  0  0  0  0  0  0  0  0  0
   -5.1737   -3.1798   -0.2910 H   0  0  0  0  0  0  0  0  0  0  0  0
   -4.8885    1.5482    0.1123 H   0  0  0  0  0  0  0  0  0  0  0  0
   -4.5806    3.6047    1.6654 H   0  0  0  0  0  0  0  0  0  0  0  0
   -5.2441    2.1636    2.4337 H   0  0  0  0  0  0  0  0  0  0  0  0
   -3.3795    3.3697    3.7227 H   0  0  0  0  0  0  0  0  0  0  0  0
   -3.1713    1.6229    3.5242 H   0  0  0  0  0  0  0  0  0  0  0  0
   -1.2616    0.8728    1.7217 H   0  0  0  0  0  0  0  0  0  0  0  0
    0.5149   -0.3546    0.1067 H   0  0  0  0  0  0  0  0  0  0  0  0
    1.7945   -2.2700    1.4127 H   0  0  0  0  0  0  0  0  0  0  0  0
    3.5334   -2.1177    1.4114 H   0  0  0  0  0  0  0  0  0  0  0  0
    2.2532   -3.8740   -1.6703 H   0  0  0  0  0  0  0  0  0  0  0  0
    2.0120   -4.1492    0.0511 H   0  0  0  0  0  0  0  0  0  0  0  0
    4.3558   -4.3847    0.4179 H   0  0  0  0  0  0  0  0  0  0  0  0
    4.3291   -4.8487   -1.2925 H   0  0  0  0  0  0  0  0  0  0  0  0
    5.5019   -2.4837   -0.0504 H   0  0  0  0  0  0  0  0  0  0  0  0
    5.5707   -2.9265   -1.7662 H   0  0  0  0  0  0  0  0  0  0  0  0
    3.6380   -1.7088   -2.2973 H   0  0  0  0  0  0  0  0  0  0  0  0
    4.1725   -0.7129   -0.9542 H   0  0  0  0  0  0  0  0  0  0  0  0
  1  2  1  0
  2  3  1  0
  3  4  2  0
  4  5  1  0
  5  6  2  0
  6  7  1  0
  7  8  1  0
  8  9  1  0
  9 10  3  0
  8 11  1  0
 11 12  2  3
 11 13  1  0
 13 14  1  0
 14 15  2  0
 15 16  1  0
 16 17  2  0
 17 18  1  0
 18 19  2  0
 19 20  1  0
 20 21  3  0
 13 22  1  0
 22 23  2  0
 23 24  1  0
 24 25  1  0
 25 26  1  0
 26 27  2  0
 26 28  1  0
  6 29  1  0
 29 30  2  0
 30 31  1  0
 31 32  1  0
 32 33  1  0
 33 34  1  0
 34 35  1  0
 35 36  1  0
 30  3  1  0
 36 32  1  0
 28  7  1  0
 19 14  1  0
 28 22  1  0
  1 37  1  0
  1 38  1  0
  1 39  1  0
  4 40  1  0
  5 41  1  0
  7 42  1  0
  8 43  1  0
 12 44  1  0
 15 45  1  0
 16 46  1  0
 17 47  1  0
 18 48  1  0
 23 49  1  0
 24 50  1  0
 24 51  1  0
 25 52  1  0
 25 53  1  0
 28 54  1  0
 29 55  1  0
 31 56  1  0
 31 57  1  0
 33 58  1  0
 33 59  1  0
 34 60  1  0
 34 61  1  0
 35 62  1  0
 35 63  1  0
 36 64  1  0
 36 65  1  0
M  END
$$$$
