
     RDKit          3D

 74 77  0  0  0  0  0  0  0  0999 V2000
    2.4527    2.3558    1.5672 C   0  0  0  0  0  0  0  0  0  0  0  0
    1.0940    2.5287    0.8764 C   0  0  0  0  0  0  0  0  0  0  0  0
    1.2727    3.2660   -0.4614 C   0  0  0  0  0  0  0  0  0  0  0  0
    0.2770    4.3190   -0.6506 N   0  0  0  0  0  0  0  0  0  0  0  0
    0.5492    5.7011   -0.1698 C   0  0  0  0  0  0  0  0  0  0  0  0
    1.9498    6.2109   -0.5154 C   0  0  0  0  0  0  0  0  0  0  0  0
    0.2630    5.8999    1.3351 C   0  0  0  0  0  0  0  0  0  0  0  0
   -1.0527    5.5096    1.7167 O   0  0  0  0  0  0  0  0  0  0  0  0
   -1.0506    4.0188   -0.9695 C   0  0  0  0  0  0  0  0  0  0  0  0
   -1.9540    4.8509   -0.8644 O   0  0  0  0  0  0  0  0  0  0  0  0
   -1.4014    2.7116   -1.5588 C   0  0  0  0  0  0  0  0  0  0  0  0
   -1.8616    2.7526   -2.8831 C   0  0  0  0  0  0  0  0  0  0  0  0
   -2.3990    1.6139   -3.4745 C   0  0  0  0  0  0  0  0  0  0  0  0
   -2.5340    0.4419   -2.7293 C   0  0  0  0  0  0  0  0  0  0  0  0
   -2.1051    0.3933   -1.3998 C   0  0  0  0  0  0  0  0  0  0  0  0
   -2.2796   -0.7386   -0.5712 N   0  0  0  0  0  0  0  0  0  0  0  0
   -2.9376   -1.9226   -0.8492 C   0  0  0  0  0  0  0  0  0  0  0  0
   -3.5773   -2.1393   -1.8707 O   0  0  0  0  0  0  0  0  0  0  0  0
   -2.7435   -2.8353    0.1772 N   0  0  0  0  0  0  0  0  0  0  0  0
   -3.3551   -4.0974    0.3263 C   0  0  0  0  0  0  0  0  0  0  0  0
   -2.8609   -4.9350    1.3348 C   0  0  0  0  0  0  0  0  0  0  0  0
   -3.4233   -6.1950    1.5564 C   0  0  0  0  0  0  0  0  0  0  0  0
   -4.4902   -6.6282    0.7745 C   0  0  0  0  0  0  0  0  0  0  0  0
   -4.9937   -5.8003   -0.2250 C   0  0  0  0  0  0  0  0  0  0  0  0
   -4.4308   -4.5385   -0.4468 C   0  0  0  0  0  0  0  0  0  0  0  0
   -1.4637    1.5175   -0.8332 C   0  0  0  0  0  0  0  0  0  0  0  0
   -1.0697    1.4265    0.4735 O   0  0  0  0  0  0  0  0  0  0  0  0
    0.3333    1.1863    0.7443 C   0  0  0  0  0  0  0  0  0  0  0  0
    1.0640    0.1284   -0.1370 C   0  0  0  0  0  0  0  0  0  0  0  0
    0.5798   -1.2678    0.0934 N   0  0  0  0  0  0  0  0  0  0  0  0
    0.5874   -2.0815   -1.1522 C   0  0  0  0  0  0  0  0  0  0  0  0
    1.1095   -2.0945    1.4936 S   0  0  0  0  0  6  0  0  0  0  0  0
    1.1833   -1.1524    2.5876 O   0  0  0  0  0  0  0  0  0  0  0  0
    0.2922   -3.2849    1.6040 O   0  0  0  0  0  0  0  0  0  0  0  0
    2.7723   -2.5899    1.1052 C   0  0  0  0  0  0  0  0  0  0  0  0
    3.0041   -3.8425    0.5269 C   0  0  0  0  0  0  0  0  0  0  0  0
    4.3117   -4.2366    0.2443 C   0  0  0  0  0  0  0  0  0  0  0  0
    5.3789   -3.3927    0.5571 C   0  0  0  0  0  0  0  0  0  0  0  0
    5.1457   -2.1566    1.1617 C   0  0  0  0  0  0  0  0  0  0  0  0
    3.8410   -1.7543    1.4465 C   0  0  0  0  0  0  0  0  0  0  0  0
    3.1788    1.8326    0.9378 H   0  0  0  0  0  0  0  0  0  0  0  0
    2.8793    3.3347    1.8125 H   0  0  0  0  0  0  0  0  0  0  0  0
    2.3455    1.7989    2.5043 H   0  0  0  0  0  0  0  0  0  0  0  0
    0.4906    3.1516    1.5471 H   0  0  0  0  0  0  0  0  0  0  0  0
    2.2700    3.7069   -0.5390 H   0  0  0  0  0  0  0  0  0  0  0  0
    1.2090    2.5790   -1.3108 H   0  0  0  0  0  0  0  0  0  0  0  0
   -0.1519    6.3512   -0.7102 H   0  0  0  0  0  0  0  0  0  0  0  0
    2.1824    6.0307   -1.5705 H   0  0  0  0  0  0  0  0  0  0  0  0
    2.0167    7.2894   -0.3347 H   0  0  0  0  0  0  0  0  0  0  0  0
    2.7220    5.7323    0.0953 H   0  0  0  0  0  0  0  0  0  0  0  0
    0.3776    6.9564    1.5997 H   0  0  0  0  0  0  0  0  0  0  0  0
    0.9699    5.3341    1.9500 H   0  0  0  0  0  0  0  0  0  0  0  0
   -1.6112    5.4992    0.9110 H   0  0  0  0  0  0  0  0  0  0  0  0
   -1.8422    3.6884   -3.4396 H   0  0  0  0  0  0  0  0  0  0  0  0
   -2.7695    1.6502   -4.4973 H   0  0  0  0  0  0  0  0  0  0  0  0
   -3.0069   -0.4107   -3.2083 H   0  0  0  0  0  0  0  0  0  0  0  0
   -1.9311   -0.6243    0.3727 H   0  0  0  0  0  0  0  0  0  0  0  0
   -1.9663   -2.6526    0.7996 H   0  0  0  0  0  0  0  0  0  0  0  0
   -2.0285   -4.6207    1.9604 H   0  0  0  0  0  0  0  0  0  0  0  0
   -3.0278   -6.8337    2.3411 H   0  0  0  0  0  0  0  0  0  0  0  0
   -4.9313   -7.6065    0.9457 H   0  0  0  0  0  0  0  0  0  0  0  0
   -5.8319   -6.1289   -0.8342 H   0  0  0  0  0  0  0  0  0  0  0  0
   -4.8647   -3.9182   -1.2249 H   0  0  0  0  0  0  0  0  0  0  0  0
    0.2938    0.7930    1.7618 H   0  0  0  0  0  0  0  0  0  0  0  0
    0.9305    0.3758   -1.1959 H   0  0  0  0  0  0  0  0  0  0  0  0
    2.1431    0.1420    0.0353 H   0  0  0  0  0  0  0  0  0  0  0  0
   -0.0154   -1.5985   -1.9263 H   0  0  0  0  0  0  0  0  0  0  0  0
    0.1543   -3.0711   -0.9822 H   0  0  0  0  0  0  0  0  0  0  0  0
    1.6050   -2.1859   -1.5412 H   0  0  0  0  0  0  0  0  0  0  0  0
    2.1788   -4.5142    0.2988 H   0  0  0  0  0  0  0  0  0  0  0  0
    4.5025   -5.2066   -0.2097 H   0  0  0  0  0  0  0  0  0  0  0  0
    6.3982   -3.7070    0.3438 H   0  0  0  0  0  0  0  0  0  0  0  0
    5.9838   -1.5146    1.4239 H   0  0  0  0  0  0  0  0  0  0  0  0
    3.6696   -0.8019    1.9431 H   0  0  0  0  0  0  0  0  0  0  0  0
  1  2  1  0
  2  3  1  0
  3  4  1  0
  4  5  1  0
  5  6  1  0
  5  7  1  0
  7  8  1  0
  4  9  1  0
  9 10  2  0
  9 11  1  0
 11 12  2  0
 12 13  1  0
 13 14  2  0
 14 15  1  0
 15 16  1  0
 16 17  1  0
 17 18  2  0
 17 19  1  0
 19 20  1  0
 20 21  2  0
 21 22  1  0
 22 23  2  0
 23 24  1  0
 24 25  2  0
 15 26  2  0
 26 27  1  0
 27 28  1  0
 28 29  1  0
 29 30  1  0
 30 31  1  0
 30 32  1  0
 32 33  2  0
 32 34  2  0
 32 35  1  0
 35 36  2  0
 36 37  1  0
 37 38  2  0
 38 39  1  0
 39 40  2  0
 28  2  1  0
 40 35  1  0
 26 11  1  0
 25 20  1  0
  1 41  1  0
  1 42  1  0
  1 43  1  0
  2 44  1  0
  3 45  1  0
  3 46  1  0
  5 47  1  0
  6 48  1  0
  6 49  1  0
  6 50  1  0
  7 51  1  0
  7 52  1  0
  8 53  1  0
 12 54  1  0
 13 55  1  0
 14 56  1  0
 16 57  1  0
 19 58  1  0
 21 59  1  0
 22 60  1  0
 23 61  1  0
 24 62  1  0
 25 63  1  0
 28 64  1  0
 29 65  1  0
 29 66  1  0
 31 67  1  0
 31 68  1  0
 31 69  1  0
 36 70  1  0
 37 71  1  0
 38 72  1  0
 39 73  1  0
 40 74  1  0
M  END
$$$$
