
     RDKit          3D

 53 56  0  0  0  0  0  0  0  0999 V2000
   -6.8449   -2.4463   -1.0864 C   0  0  0  0  0  0  0  0  0  0  0  0
   -5.5950   -1.6938   -0.7311 C   0  0  0  0  0  0  0  0  0  0  0  0
   -4.3485   -2.3261   -0.7304 C   0  0  0  0  0  0  0  0  0  0  0  0
   -3.1959   -1.6148   -0.3792 C   0  0  0  0  0  0  0  0  0  0  0  0
   -3.2665   -0.2672   -0.0014 C   0  0  0  0  0  0  0  0  0  0  0  0
   -2.0482    0.3686    0.3203 N   0  0  0  0  0  0  0  0  0  0  0  0
   -1.7593    1.5106    1.0687 C   0  0  0  0  0  0  0  0  0  0  0  0
   -2.8135    2.2886    2.1205 S   0  0  0  0  0  0  0  0  0  0  0  0
   -0.4077    1.9065    0.8556 N   0  0  0  0  0  0  0  0  0  0  0  0
    0.3179    2.7832    1.8025 C   0  0  0  0  0  0  0  0  0  0  0  0
    0.7383    2.0373    3.0415 C   0  0  0  0  0  0  0  0  0  0  0  0
    0.1194    2.0036    4.2797 C   0  0  0  0  0  0  0  0  0  0  0  0
    0.8262    1.2092    5.2275 C   0  0  0  0  0  0  0  0  0  0  0  0
    1.9753    0.6718    4.6939 C   0  0  0  0  0  0  0  0  0  0  0  0
    2.2166    1.1566    3.0722 S   0  0  0  0  0  0  0  0  0  0  0  0
    0.0279    2.0382   -0.5511 C   0  0  0  0  0  0  0  0  0  0  0  0
    1.1673    1.1235   -0.9043 C   0  0  0  0  0  0  0  0  0  0  0  0
    1.5571    0.0235   -0.2364 C   0  0  0  0  0  0  0  0  0  0  0  0
    2.7173   -0.7589   -0.6633 C   0  0  0  0  0  0  0  0  0  0  0  0
    3.1324   -1.8779    0.0621 C   0  0  0  0  0  0  0  0  0  0  0  0
    4.2550   -2.5969   -0.3487 C   0  0  0  0  0  0  0  0  0  0  0  0
    4.9662   -2.2015   -1.4831 C   0  0  0  0  0  0  0  0  0  0  0  0
    4.5641   -1.0829   -2.2301 C   0  0  0  0  0  0  0  0  0  0  0  0
    5.3597   -0.6794   -3.4403 C   0  0  0  0  0  0  0  0  0  0  0  0
    3.4313   -0.3664   -1.8060 C   0  0  0  0  0  0  0  0  0  0  0  0
    2.9890    0.7644   -2.5078 N   0  0  0  0  0  0  0  0  0  0  0  0
    1.9150    1.5268   -2.1362 C   0  0  0  0  0  0  0  0  0  0  0  0
    1.5844    2.5086   -2.7921 O   0  0  0  0  0  0  0  0  0  0  0  0
   -4.5080    0.3682   -0.0302 C   0  0  0  0  0  0  0  0  0  0  0  0
   -5.6638   -0.3413   -0.3835 C   0  0  0  0  0  0  0  0  0  0  0  0
   -7.4973   -2.5273   -0.2093 H   0  0  0  0  0  0  0  0  0  0  0  0
   -6.6172   -3.4610   -1.4345 H   0  0  0  0  0  0  0  0  0  0  0  0
   -7.3831   -1.9306   -1.8890 H   0  0  0  0  0  0  0  0  0  0  0  0
   -4.2611   -3.3748   -1.0013 H   0  0  0  0  0  0  0  0  0  0  0  0
   -2.2454   -2.1406   -0.3872 H   0  0  0  0  0  0  0  0  0  0  0  0
   -1.2239   -0.1874    0.1344 H   0  0  0  0  0  0  0  0  0  0  0  0
   -0.2980    3.6546    2.0553 H   0  0  0  0  0  0  0  0  0  0  0  0
    1.2191    3.1747    1.3108 H   0  0  0  0  0  0  0  0  0  0  0  0
   -0.8063    2.5242    4.5013 H   0  0  0  0  0  0  0  0  0  0  0  0
    0.5064    1.0442    6.2472 H   0  0  0  0  0  0  0  0  0  0  0  0
    2.6995    0.0331    5.1832 H   0  0  0  0  0  0  0  0  0  0  0  0
    0.3040    3.0920   -0.7017 H   0  0  0  0  0  0  0  0  0  0  0  0
   -0.8108    1.8494   -1.2377 H   0  0  0  0  0  0  0  0  0  0  0  0
    1.0404   -0.3047    0.6583 H   0  0  0  0  0  0  0  0  0  0  0  0
    2.5957   -2.1930    0.9522 H   0  0  0  0  0  0  0  0  0  0  0  0
    4.5819   -3.4644    0.2186 H   0  0  0  0  0  0  0  0  0  0  0  0
    5.8450   -2.7720   -1.7771 H   0  0  0  0  0  0  0  0  0  0  0  0
    6.1985   -1.3620   -3.6168 H   0  0  0  0  0  0  0  0  0  0  0  0
    5.7725    0.3270   -3.3026 H   0  0  0  0  0  0  0  0  0  0  0  0
    4.7302   -0.6958   -4.3342 H   0  0  0  0  0  0  0  0  0  0  0  0
    3.4747    1.0747   -3.3367 H   0  0  0  0  0  0  0  0  0  0  0  0
   -4.6143    1.4248    0.1834 H   0  0  0  0  0  0  0  0  0  0  0  0
   -6.6196    0.1786   -0.3886 H   0  0  0  0  0  0  0  0  0  0  0  0
  1  2  1  0
  2  3  2  0
  3  4  1  0
  4  5  2  0
  5  6  1  0
  6  7  1  0
  7  8  2  0
  7  9  1  0
  9 10  1  0
 10 11  1  0
 11 12  2  0
 12 13  1  0
 13 14  2  0
 14 15  1  0
  9 16  1  0
 16 17  1  0
 17 18  2  0
 18 19  1  0
 19 20  2  0
 20 21  1  0
 21 22  2  0
 22 23  1  0
 23 24  1  0
 23 25  2  0
 25 26  1  0
 26 27  1  0
 27 28  2  0
  5 29  1  0
 29 30  2  0
 30  2  1  0
 15 11  1  0
 27 17  1  0
 25 19  1  0
  1 31  1  0
  1 32  1  0
  1 33  1  0
  3 34  1  0
  4 35  1  0
  6 36  1  0
 10 37  1  0
 10 38  1  0
 12 39  1  0
 13 40  1  0
 14 41  1  0
 16 42  1  0
 16 43  1  0
 18 44  1  0
 20 45  1  0
 21 46  1  0
 22 47  1  0
 24 48  1  0
 24 49  1  0
 24 50  1  0
 26 51  1  0
 29 52  1  0
 30 53  1  0
M  END
$$$$
