
     RDKit          3D

 55 57  0  0  0  0  0  0  0  0999 V2000
    0.4646    4.1278   -0.3801 C   0  0  0  0  0  0  0  0  0  0  0  0
    0.5155    2.7973   -1.1048 C   0  0  0  0  0  0  0  0  0  0  0  0
   -0.5104    1.9639   -0.5757 O   0  0  0  0  0  0  0  0  0  0  0  0
   -0.5503    0.6736   -1.1880 C   0  0  0  0  0  0  0  0  0  0  0  0
    0.6249   -0.0956   -0.9006 O   0  0  0  0  0  0  0  0  0  0  0  0
    0.6735   -0.6222    0.3788 C   0  0  0  0  0  0  0  0  0  0  0  0
    2.0200   -1.0606    0.9050 C   0  0  0  0  0  0  0  0  0  0  0  0
    2.1411   -1.5650    2.0142 O   0  0  0  0  0  0  0  0  0  0  0  0
    3.0184   -0.8155   -0.0161 N   0  0  0  0  0  0  0  0  0  0  0  0
    4.3947   -1.0817    0.1039 C   0  0  0  0  0  0  0  0  0  0  0  0
    5.2116   -0.7284   -0.9782 C   0  0  0  0  0  0  0  0  0  0  0  0
    6.5892   -0.9594   -0.9376 C   0  0  0  0  0  0  0  0  0  0  0  0
    7.1630   -1.5463    0.1867 C   0  0  0  0  0  0  0  0  0  0  0  0
    6.3587   -1.9010    1.2672 C   0  0  0  0  0  0  0  0  0  0  0  0
    4.9797   -1.6700    1.2263 C   0  0  0  0  0  0  0  0  0  0  0  0
   -0.4066   -0.7755    1.1617 C   0  0  0  0  0  0  0  0  0  0  0  0
   -1.8014   -0.4376    0.7157 C   0  0  0  0  0  0  0  0  0  0  0  0
   -2.5022    0.5938    1.5960 C   0  0  0  0  0  0  0  0  0  0  0  0
   -3.8938    0.5022    1.7794 C   0  0  0  0  0  0  0  0  0  0  0  0
   -4.5781    1.4355    2.5624 C   0  0  0  0  0  0  0  0  0  0  0  0
   -3.8772    2.4752    3.1671 C   0  0  0  0  0  0  0  0  0  0  0  0
   -4.8009    3.7425    4.2224 Br  0  0  0  0  0  0  0  0  0  0  0  0
   -2.5008    2.5895    2.9954 C   0  0  0  0  0  0  0  0  0  0  0  0
   -1.8185    1.6533    2.2135 C   0  0  0  0  0  0  0  0  0  0  0  0
   -1.8489   -0.0601   -0.7890 C   0  0  0  0  0  0  0  0  0  0  0  0
   -2.0340   -1.3129   -1.6859 C   0  0  0  0  0  0  0  0  0  0  0  0
   -3.4661   -1.8649   -1.6493 C   0  0  0  0  0  0  0  0  0  0  0  0
   -3.6389   -3.1047   -2.5216 C   0  0  0  0  0  0  0  0  0  0  0  0
   -3.4077   -2.7958   -3.8879 O   0  0  0  0  0  0  0  0  0  0  0  0
    0.6202    3.9872    0.6948 H   0  0  0  0  0  0  0  0  0  0  0  0
   -0.5179    4.5960   -0.5011 H   0  0  0  0  0  0  0  0  0  0  0  0
    1.2301    4.8092   -0.7615 H   0  0  0  0  0  0  0  0  0  0  0  0
    1.4958    2.3332   -0.9538 H   0  0  0  0  0  0  0  0  0  0  0  0
    0.3518    2.9522   -2.1768 H   0  0  0  0  0  0  0  0  0  0  0  0
   -0.5663    0.8274   -2.2743 H   0  0  0  0  0  0  0  0  0  0  0  0
    2.7070   -0.3899   -0.8812 H   0  0  0  0  0  0  0  0  0  0  0  0
    4.7885   -0.2691   -1.8674 H   0  0  0  0  0  0  0  0  0  0  0  0
    7.2127   -0.6814   -1.7833 H   0  0  0  0  0  0  0  0  0  0  0  0
    8.2339   -1.7281    0.2227 H   0  0  0  0  0  0  0  0  0  0  0  0
    6.8006   -2.3603    2.1480 H   0  0  0  0  0  0  0  0  0  0  0  0
    4.3901   -1.9629    2.0895 H   0  0  0  0  0  0  0  0  0  0  0  0
   -0.3005   -1.1932    2.1618 H   0  0  0  0  0  0  0  0  0  0  0  0
   -2.3633   -1.3692    0.8644 H   0  0  0  0  0  0  0  0  0  0  0  0
   -4.4584   -0.3011    1.3105 H   0  0  0  0  0  0  0  0  0  0  0  0
   -5.6530    1.3432    2.6912 H   0  0  0  0  0  0  0  0  0  0  0  0
   -1.9479    3.4021    3.4590 H   0  0  0  0  0  0  0  0  0  0  0  0
   -0.7445    1.7721    2.0837 H   0  0  0  0  0  0  0  0  0  0  0  0
   -2.6930    0.6177   -0.9769 H   0  0  0  0  0  0  0  0  0  0  0  0
   -1.7960   -1.0433   -2.7222 H   0  0  0  0  0  0  0  0  0  0  0  0
   -1.3283   -2.1012   -1.3965 H   0  0  0  0  0  0  0  0  0  0  0  0
   -4.1502   -1.0826   -2.0001 H   0  0  0  0  0  0  0  0  0  0  0  0
   -3.7560   -2.1205   -0.6257 H   0  0  0  0  0  0  0  0  0  0  0  0
   -2.9628   -3.9105   -2.2165 H   0  0  0  0  0  0  0  0  0  0  0  0
   -4.6649   -3.4754   -2.4349 H   0  0  0  0  0  0  0  0  0  0  0  0
   -2.4469   -2.8090   -4.0345 H   0  0  0  0  0  0  0  0  0  0  0  0
  1  2  1  0
  2  3  1  0
  3  4  1  0
  4  5  1  0
  5  6  1  0
  6  7  1  0
  7  8  2  0
  7  9  1  0
  9 10  1  0
 10 11  2  0
 11 12  1  0
 12 13  2  0
 13 14  1  0
 14 15  2  0
  6 16  2  0
 16 17  1  0
 17 18  1  0
 18 19  2  0
 19 20  1  0
 20 21  2  0
 21 22  1  0
 21 23  1  0
 23 24  2  0
 17 25  1  0
 25 26  1  0
 26 27  1  0
 27 28  1  0
 28 29  1  0
 25  4  1  0
 15 10  1  0
 24 18  1  0
  1 30  1  0
  1 31  1  0
  1 32  1  0
  2 33  1  0
  2 34  1  0
  4 35  1  0
  9 36  1  0
 11 37  1  0
 12 38  1  0
 13 39  1  0
 14 40  1  0
 15 41  1  0
 16 42  1  0
 17 43  1  0
 19 44  1  0
 20 45  1  0
 23 46  1  0
 24 47  1  0
 25 48  1  0
 26 49  1  0
 26 50  1  0
 27 51  1  0
 27 52  1  0
 28 53  1  0
 28 54  1  0
 29 55  1  0
M  END
$$$$
