
     RDKit          3D

 54 57  0  0  0  0  0  0  0  0999 V2000
   -2.1953    5.6124   -1.8533 C   0  0  0  0  0  0  0  0  0  0  0  0
   -2.2011    5.2438   -0.4798 O   0  0  0  0  0  0  0  0  0  0  0  0
   -1.7125    4.0041   -0.1729 C   0  0  0  0  0  0  0  0  0  0  0  0
   -1.7980    3.6605    1.1774 C   0  0  0  0  0  0  0  0  0  0  0  0
   -1.3371    2.4217    1.6306 C   0  0  0  0  0  0  0  0  0  0  0  0
   -0.7811    1.4965    0.7347 C   0  0  0  0  0  0  0  0  0  0  0  0
   -0.2622    0.1658    1.2596 C   0  0  0  0  0  0  0  0  0  0  0  0
    1.2417    0.2375    1.5322 C   0  0  0  0  0  0  0  0  0  0  0  0
    1.7588   -0.6536    0.4364 C   0  0  0  0  0  0  0  0  0  0  0  0
    3.2081   -0.7864    0.1523 C   0  0  0  0  0  0  0  0  0  0  0  0
    3.6112   -1.5847   -0.9251 C   0  0  0  0  0  0  0  0  0  0  0  0
    4.9651   -1.7312   -1.2189 C   0  0  0  0  0  0  0  0  0  0  0  0
    5.9174   -1.0800   -0.4363 C   0  0  0  0  0  0  0  0  0  0  0  0
    5.5289   -0.2802    0.6416 C   0  0  0  0  0  0  0  0  0  0  0  0
    6.5663    0.2955    1.3224 O   0  0  0  0  0  0  0  0  0  0  0  0
    6.2362    1.1674    2.3960 C   0  0  0  0  0  0  0  0  0  0  0  0
    4.1709   -0.1355    0.9375 C   0  0  0  0  0  0  0  0  0  0  0  0
    0.8461   -1.3115   -0.2123 N   0  0  0  0  0  0  0  0  0  0  0  0
   -0.3644   -0.9286    0.2912 N   0  0  0  0  0  0  0  0  0  0  0  0
   -1.5377   -1.5649   -0.1092 C   0  0  0  0  0  0  0  0  0  0  0  0
   -2.7975   -1.2223    0.4108 C   0  0  0  0  0  0  0  0  0  0  0  0
   -3.9669   -1.8731   -0.0020 C   0  0  0  0  0  0  0  0  0  0  0  0
   -3.8891   -2.8933   -0.9481 C   0  0  0  0  0  0  0  0  0  0  0  0
   -5.3657   -3.7195   -1.4705 S   0  0  0  0  0  6  0  0  0  0  0  0
   -5.4434   -4.9907   -0.3664 N   0  0  0  0  0  0  0  0  0  0  0  0
   -5.1220   -4.3344   -2.7551 O   0  0  0  0  0  0  0  0  0  0  0  0
   -6.4930   -2.8519   -1.2253 O   0  0  0  0  0  0  0  0  0  0  0  0
   -2.6616   -3.2515   -1.4978 C   0  0  0  0  0  0  0  0  0  0  0  0
   -1.5037   -2.5920   -1.0723 C   0  0  0  0  0  0  0  0  0  0  0  0
   -0.6879    1.8558   -0.6190 C   0  0  0  0  0  0  0  0  0  0  0  0
   -1.1534    3.0964   -1.0702 C   0  0  0  0  0  0  0  0  0  0  0  0
   -2.6416    6.6084   -1.9335 H   0  0  0  0  0  0  0  0  0  0  0  0
   -1.1729    5.6738   -2.2405 H   0  0  0  0  0  0  0  0  0  0  0  0
   -2.8046    4.9258   -2.4504 H   0  0  0  0  0  0  0  0  0  0  0  0
   -2.2312    4.3658    1.8828 H   0  0  0  0  0  0  0  0  0  0  0  0
   -1.4199    2.1885    2.6899 H   0  0  0  0  0  0  0  0  0  0  0  0
   -0.7868   -0.0979    2.1869 H   0  0  0  0  0  0  0  0  0  0  0  0
    1.4873   -0.2163    2.4984 H   0  0  0  0  0  0  0  0  0  0  0  0
    1.6597    1.2463    1.4755 H   0  0  0  0  0  0  0  0  0  0  0  0
    2.8740   -2.0957   -1.5414 H   0  0  0  0  0  0  0  0  0  0  0  0
    5.2780   -2.3512   -2.0552 H   0  0  0  0  0  0  0  0  0  0  0  0
    6.9740   -1.1957   -0.6678 H   0  0  0  0  0  0  0  0  0  0  0  0
    7.1708    1.5616    2.8069 H   0  0  0  0  0  0  0  0  0  0  0  0
    5.7213    0.6275    3.1973 H   0  0  0  0  0  0  0  0  0  0  0  0
    5.6415    2.0176    2.0456 H   0  0  0  0  0  0  0  0  0  0  0  0
    3.8578    0.4734    1.7761 H   0  0  0  0  0  0  0  0  0  0  0  0
   -2.8989   -0.4280    1.1449 H   0  0  0  0  0  0  0  0  0  0  0  0
   -4.9258   -1.5713    0.4148 H   0  0  0  0  0  0  0  0  0  0  0  0
   -5.3349   -5.8705   -0.8738 H   0  0  0  0  0  0  0  0  0  0  0  0
   -4.7655   -4.9027    0.3899 H   0  0  0  0  0  0  0  0  0  0  0  0
   -2.5876   -4.0294   -2.2540 H   0  0  0  0  0  0  0  0  0  0  0  0
   -0.5503   -2.8819   -1.5108 H   0  0  0  0  0  0  0  0  0  0  0  0
   -0.2581    1.1627   -1.3415 H   0  0  0  0  0  0  0  0  0  0  0  0
   -1.0633    3.3169   -2.1286 H   0  0  0  0  0  0  0  0  0  0  0  0
  1  2  1  0
  2  3  1  0
  3  4  2  0
  4  5  1  0
  5  6  2  0
  6  7  1  0
  7  8  1  0
  8  9  1  0
  9 10  1  0
 10 11  2  0
 11 12  1  0
 12 13  2  0
 13 14  1  0
 14 15  1  0
 15 16  1  0
 14 17  2  0
  9 18  2  0
 18 19  1  0
 19 20  1  0
 20 21  2  0
 21 22  1  0
 22 23  2  0
 23 24  1  0
 24 25  1  0
 24 26  2  0
 24 27  2  0
 23 28  1  0
 28 29  2  0
  6 30  1  0
 30 31  2  0
 31  3  1  0
 19  7  1  0
 29 20  1  0
 17 10  1  0
  1 32  1  0
  1 33  1  0
  1 34  1  0
  4 35  1  0
  5 36  1  0
  7 37  1  0
  8 38  1  0
  8 39  1  0
 11 40  1  0
 12 41  1  0
 13 42  1  0
 16 43  1  0
 16 44  1  0
 16 45  1  0
 17 46  1  0
 21 47  1  0
 22 48  1  0
 25 49  1  0
 25 50  1  0
 28 51  1  0
 29 52  1  0
 30 53  1  0
 31 54  1  0
M  END
$$$$
