
     RDKit          3D

 45 48  0  0  0  0  0  0  0  0999 V2000
    2.6775    1.9589   -1.4357 O   0  0  0  0  0  0  0  0  0  0  0  0
    2.2737    1.0610   -0.7097 C   0  0  0  0  0  0  0  0  0  0  0  0
    1.6137   -0.0911   -1.0905 N   0  0  0  0  0  0  0  0  0  0  0  0
    1.3217   -0.5493   -2.4004 C   0  0  0  0  0  0  0  0  0  0  0  0
    1.8865    0.0651   -3.5276 C   0  0  0  0  0  0  0  0  0  0  0  0
    1.6276   -0.4091   -4.8158 C   0  0  0  0  0  0  0  0  0  0  0  0
    0.8029   -1.5098   -5.0002 C   0  0  0  0  0  0  0  0  0  0  0  0
    0.2317   -2.1347   -3.8931 C   0  0  0  0  0  0  0  0  0  0  0  0
    0.4706   -1.6702   -2.5828 C   0  0  0  0  0  0  0  0  0  0  0  0
   -0.2040   -2.3836   -1.4960 C   0  0  0  0  0  0  0  0  0  0  0  0
   -0.8396   -3.5379   -1.5083 N   0  0  0  0  0  0  0  0  0  0  0  0
   -1.3333   -3.7302   -0.2333 N   0  0  0  0  0  0  0  0  0  0  0  0
   -0.9864   -2.6740    0.4705 C   0  0  0  0  0  0  0  0  0  0  0  0
   -1.3901   -2.4465    2.1420 S   0  0  0  0  0  0  0  0  0  0  0  0
   -1.3069   -0.6409    2.2922 C   0  0  0  0  0  0  0  0  0  0  0  0
   -2.3620    0.0900    1.4961 C   0  0  0  0  0  0  0  0  0  0  0  0
   -1.9957    0.9389    0.4397 C   0  0  0  0  0  0  0  0  0  0  0  0
   -2.9692    1.6144   -0.3003 C   0  0  0  0  0  0  0  0  0  0  0  0
   -4.3157    1.4522    0.0152 C   0  0  0  0  0  0  0  0  0  0  0  0
   -5.5141    2.2853   -0.8952 Cl  0  0  0  0  0  0  0  0  0  0  0  0
   -4.6971    0.6224    1.0664 C   0  0  0  0  0  0  0  0  0  0  0  0
   -3.7239   -0.0541    1.8062 C   0  0  0  0  0  0  0  0  0  0  0  0
   -0.2396   -1.7877   -0.2603 O   0  0  0  0  0  0  0  0  0  0  0  0
    2.4190    1.2145    0.7644 C   0  0  0  0  0  0  0  0  0  0  0  0
    2.7393    0.1233    1.5839 C   0  0  0  0  0  0  0  0  0  0  0  0
    2.8376    0.2977    2.9655 C   0  0  0  0  0  0  0  0  0  0  0  0
    2.6244    1.5572    3.5271 C   0  0  0  0  0  0  0  0  0  0  0  0
    2.3242    2.6481    2.7106 C   0  0  0  0  0  0  0  0  0  0  0  0
    2.2268    2.4801    1.3289 C   0  0  0  0  0  0  0  0  0  0  0  0
    1.2027   -0.6366   -0.3425 H   0  0  0  0  0  0  0  0  0  0  0  0
    2.5543    0.9171   -3.4370 H   0  0  0  0  0  0  0  0  0  0  0  0
    2.0798    0.0848   -5.6729 H   0  0  0  0  0  0  0  0  0  0  0  0
    0.6022   -1.8818   -6.0019 H   0  0  0  0  0  0  0  0  0  0  0  0
   -0.4175   -2.9946   -4.0598 H   0  0  0  0  0  0  0  0  0  0  0  0
   -0.3040   -0.3037    2.0112 H   0  0  0  0  0  0  0  0  0  0  0  0
   -1.4289   -0.3807    3.3501 H   0  0  0  0  0  0  0  0  0  0  0  0
   -0.9499    1.0854    0.1790 H   0  0  0  0  0  0  0  0  0  0  0  0
   -2.6702    2.2644   -1.1188 H   0  0  0  0  0  0  0  0  0  0  0  0
   -5.7477    0.4959    1.3145 H   0  0  0  0  0  0  0  0  0  0  0  0
   -4.0389   -0.6994    2.6246 H   0  0  0  0  0  0  0  0  0  0  0  0
    2.9407   -0.8569    1.1591 H   0  0  0  0  0  0  0  0  0  0  0  0
    3.0948   -0.5439    3.6048 H   0  0  0  0  0  0  0  0  0  0  0  0
    2.7090    1.6936    4.6030 H   0  0  0  0  0  0  0  0  0  0  0  0
    2.1742    3.6319    3.1494 H   0  0  0  0  0  0  0  0  0  0  0  0
    1.9996    3.3343    0.6938 H   0  0  0  0  0  0  0  0  0  0  0  0
  1  2  2  0
  2  3  1  0
  3  4  1  0
  4  5  2  0
  5  6  1  0
  6  7  2  0
  7  8  1  0
  8  9  2  0
  9 10  1  0
 10 11  2  0
 11 12  1  0
 12 13  2  0
 13 14  1  0
 14 15  1  0
 15 16  1  0
 16 17  2  0
 17 18  1  0
 18 19  2  0
 19 20  1  0
 19 21  1  0
 21 22  2  0
 13 23  1  0
  2 24  1  0
 24 25  2  0
 25 26  1  0
 26 27  2  0
 27 28  1  0
 28 29  2  0
  9  4  1  0
 23 10  1  0
 29 24  1  0
 22 16  1  0
  3 30  1  0
  5 31  1  0
  6 32  1  0
  7 33  1  0
  8 34  1  0
 15 35  1  0
 15 36  1  0
 17 37  1  0
 18 38  1  0
 21 39  1  0
 22 40  1  0
 25 41  1  0
 26 42  1  0
 27 43  1  0
 28 44  1  0
 29 45  1  0
M  END
$$$$
