
     RDKit          3D

 31 32  0  0  0  0  0  0  0  0999 V2000
   -6.4531    0.2633   -0.5645 N   0  0  0  0  0  0  0  0  0  0  0  0
   -5.0619    0.0536   -0.4555 N   0  0  0  0  0  0  0  0  0  0  0  0
   -4.5764   -0.9493    0.3733 C   0  0  0  0  0  0  0  0  0  0  0  0
   -5.3047   -1.7630    0.9415 O   0  0  0  0  0  0  0  0  0  0  0  0
   -3.0551   -0.9769    0.5034 C   0  0  0  0  0  0  0  0  0  0  0  0
   -2.4659    0.1740   -0.0962 O   0  0  0  0  0  0  0  0  0  0  0  0
   -1.1023    0.2646   -0.0504 C   0  0  0  0  0  0  0  0  0  0  0  0
   -0.2364   -0.6598    0.5304 C   0  0  0  0  0  0  0  0  0  0  0  0
    1.1468   -0.4415    0.5050 C   0  0  0  0  0  0  0  0  0  0  0  0
    1.6921    0.7034   -0.1011 C   0  0  0  0  0  0  0  0  0  0  0  0
    3.1848    0.9642   -0.1402 C   0  0  0  0  0  0  0  0  0  0  0  0
    4.0930   -0.3332   -1.0445 S   0  0  0  0  0  0  0  0  0  0  0  0
    5.5256   -0.3834    0.0581 C   0  0  0  0  0  0  0  0  0  0  0  0
    5.0117   -0.2447    1.4761 C   0  0  0  0  0  0  0  0  0  0  0  0
    3.8947    1.1795    1.5277 S   0  0  0  0  0  0  0  0  0  0  0  0
    0.8076    1.6257   -0.6804 C   0  0  0  0  0  0  0  0  0  0  0  0
   -0.5727    1.4060   -0.6539 C   0  0  0  0  0  0  0  0  0  0  0  0
   -6.8029   -0.3767   -1.2839 H   0  0  0  0  0  0  0  0  0  0  0  0
   -6.8806   -0.0957    0.2999 H   0  0  0  0  0  0  0  0  0  0  0  0
   -4.4146    0.7874   -0.7492 H   0  0  0  0  0  0  0  0  0  0  0  0
   -2.8259   -1.0010    1.5750 H   0  0  0  0  0  0  0  0  0  0  0  0
   -2.7079   -1.8880    0.0029 H   0  0  0  0  0  0  0  0  0  0  0  0
   -0.5953   -1.5626    1.0135 H   0  0  0  0  0  0  0  0  0  0  0  0
    1.7995   -1.1804    0.9664 H   0  0  0  0  0  0  0  0  0  0  0  0
    3.3761    1.9010   -0.6743 H   0  0  0  0  0  0  0  0  0  0  0  0
    6.2117    0.4300   -0.2027 H   0  0  0  0  0  0  0  0  0  0  0  0
    6.0621   -1.3278   -0.0730 H   0  0  0  0  0  0  0  0  0  0  0  0
    5.8372   -0.0916    2.1777 H   0  0  0  0  0  0  0  0  0  0  0  0
    4.4669   -1.1404    1.7946 H   0  0  0  0  0  0  0  0  0  0  0  0
    1.1839    2.5277   -1.1591 H   0  0  0  0  0  0  0  0  0  0  0  0
   -1.2380    2.1357   -1.1092 H   0  0  0  0  0  0  0  0  0  0  0  0
  1  2  1  0
  2  3  1  0
  3  4  2  0
  3  5  1  0
  5  6  1  0
  6  7  1  0
  7  8  2  0
  8  9  1  0
  9 10  2  0
 10 11  1  0
 11 12  1  0
 12 13  1  0
 13 14  1  0
 14 15  1  0
 10 16  1  0
 16 17  2  0
 17  7  1  0
 15 11  1  0
  1 18  1  0
  1 19  1  0
  2 20  1  0
  5 21  1  0
  5 22  1  0
  8 23  1  0
  9 24  1  0
 11 25  1  0
 13 26  1  0
 13 27  1  0
 14 28  1  0
 14 29  1  0
 16 30  1  0
 17 31  1  0
M  END
$$$$
