
     RDKit          3D

 55 57  0  0  0  0  0  0  0  0999 V2000
   -0.1181    3.3262    3.3301 C   0  0  0  0  0  0  0  0  0  0  0  0
    1.1492    2.8185    2.6311 C   0  0  0  0  0  0  0  0  0  0  0  0
    2.2456    2.5649    3.6697 C   0  0  0  0  0  0  0  0  0  0  0  0
    0.8755    1.5267    1.8282 C   0  0  0  0  0  0  0  0  0  0  0  0
    0.0215    1.7769    0.5591 C   0  0  0  0  0  0  0  0  0  0  0  0
    0.7665    1.5281   -0.7504 C   0  0  0  0  0  0  0  0  0  0  0  0
    0.2840    1.0558   -1.7789 O   0  0  0  0  0  0  0  0  0  0  0  0
    2.0647    1.9535   -0.6831 O   0  0  0  0  0  0  0  0  0  0  0  0
    2.8567    1.6993   -1.8475 C   0  0  0  0  0  0  0  0  0  0  0  0
    3.3479    0.2457   -1.9651 C   0  0  0  0  0  0  0  0  0  0  0  0
    4.5374   -0.0282   -1.8332 O   0  0  0  0  0  0  0  0  0  0  0  0
    2.3280   -0.6481   -2.2270 N   0  0  0  0  0  0  0  0  0  0  0  0
    2.4048   -2.0480   -2.3600 C   0  0  0  0  0  0  0  0  0  0  0  0
    1.2027   -2.7248   -2.6103 C   0  0  0  0  0  0  0  0  0  0  0  0
    1.1753   -4.1145   -2.7534 C   0  0  0  0  0  0  0  0  0  0  0  0
    2.3590   -4.8395   -2.6496 C   0  0  0  0  0  0  0  0  0  0  0  0
    3.5578   -4.1707   -2.4126 C   0  0  0  0  0  0  0  0  0  0  0  0
    5.0219   -5.0706   -2.2930 Cl  0  0  0  0  0  0  0  0  0  0  0  0
    3.5870   -2.7812   -2.2628 C   0  0  0  0  0  0  0  0  0  0  0  0
   -1.2176    0.9926    0.5853 N   0  0  0  0  0  0  0  0  0  0  0  0
   -2.4898    1.5168    0.5424 C   0  0  0  0  0  0  0  0  0  0  0  0
   -2.6829    2.8313    0.4807 O   0  0  0  0  0  0  0  0  0  0  0  0
   -3.3789    0.4607    0.5505 C   0  0  0  0  0  0  0  0  0  0  0  0
   -2.6119   -0.7461    0.5671 C   0  0  0  0  0  0  0  0  0  0  0  0
   -1.2807   -0.3867    0.5937 C   0  0  0  0  0  0  0  0  0  0  0  0
   -0.1663   -1.1111    0.6047 O   0  0  0  0  0  0  0  0  0  0  0  0
   -3.2293   -2.1038    0.5294 C   0  0  0  0  0  0  0  0  0  0  0  0
   -4.7380   -2.0467    0.4519 C   0  0  0  0  0  0  0  0  0  0  0  0
   -5.4602   -0.9097    0.4438 C   0  0  0  0  0  0  0  0  0  0  0  0
   -4.8713    0.4781    0.5038 C   0  0  0  0  0  0  0  0  0  0  0  0
   -0.8926    3.5953    2.6079 H   0  0  0  0  0  0  0  0  0  0  0  0
   -0.5331    2.5640    4.0073 H   0  0  0  0  0  0  0  0  0  0  0  0
    0.0984    4.2254    3.9266 H   0  0  0  0  0  0  0  0  0  0  0  0
    1.5100    3.6010    1.9496 H   0  0  0  0  0  0  0  0  0  0  0  0
    2.4409    3.4669    4.2624 H   0  0  0  0  0  0  0  0  0  0  0  0
    3.1841    2.2847    3.1797 H   0  0  0  0  0  0  0  0  0  0  0  0
    1.9656    1.7580    4.3552 H   0  0  0  0  0  0  0  0  0  0  0  0
    1.8383    1.0691    1.5543 H   0  0  0  0  0  0  0  0  0  0  0  0
    0.3925    0.8039    2.5036 H   0  0  0  0  0  0  0  0  0  0  0  0
   -0.2699    2.8320    0.5087 H   0  0  0  0  0  0  0  0  0  0  0  0
    2.3240    1.9879   -2.7633 H   0  0  0  0  0  0  0  0  0  0  0  0
    3.7400    2.3473   -1.7832 H   0  0  0  0  0  0  0  0  0  0  0  0
    1.3910   -0.2459   -2.3293 H   0  0  0  0  0  0  0  0  0  0  0  0
    0.2690   -2.1727   -2.7010 H   0  0  0  0  0  0  0  0  0  0  0  0
    0.2358   -4.6250   -2.9475 H   0  0  0  0  0  0  0  0  0  0  0  0
    2.3427   -5.9201   -2.7626 H   0  0  0  0  0  0  0  0  0  0  0  0
    4.5439   -2.2988   -2.0843 H   0  0  0  0  0  0  0  0  0  0  0  0
   -3.6478    2.9836    0.4499 H   0  0  0  0  0  0  0  0  0  0  0  0
   -0.4246   -2.0542    0.5967 H   0  0  0  0  0  0  0  0  0  0  0  0
   -2.8503   -2.6430   -0.3457 H   0  0  0  0  0  0  0  0  0  0  0  0
   -2.9411   -2.6672    1.4221 H   0  0  0  0  0  0  0  0  0  0  0  0
   -5.2554   -3.0015    0.4010 H   0  0  0  0  0  0  0  0  0  0  0  0
   -6.5440   -0.9683    0.3888 H   0  0  0  0  0  0  0  0  0  0  0  0
   -5.2576    0.9913    1.3919 H   0  0  0  0  0  0  0  0  0  0  0  0
   -5.2004    1.0409   -0.3770 H   0  0  0  0  0  0  0  0  0  0  0  0
  1  2  1  0
  2  3  1  0
  2  4  1  0
  4  5  1  0
  5  6  1  0
  6  7  2  0
  6  8  1  0
  8  9  1  0
  9 10  1  0
 10 11  2  0
 10 12  1  0
 12 13  1  0
 13 14  2  0
 14 15  1  0
 15 16  2  0
 16 17  1  0
 17 18  1  0
 17 19  2  0
  5 20  1  0
 20 21  1  0
 21 22  1  0
 21 23  2  0
 23 24  1  0
 24 25  2  0
 25 26  1  0
 24 27  1  0
 27 28  1  0
 28 29  2  0
 29 30  1  0
 19 13  1  0
 25 20  1  0
 30 23  1  0
  1 31  1  0
  1 32  1  0
  1 33  1  0
  2 34  1  0
  3 35  1  0
  3 36  1  0
  3 37  1  0
  4 38  1  0
  4 39  1  0
  5 40  1  0
  9 41  1  0
  9 42  1  0
 12 43  1  0
 14 44  1  0
 15 45  1  0
 16 46  1  0
 19 47  1  0
 22 48  1  0
 26 49  1  0
 27 50  1  0
 27 51  1  0
 28 52  1  0
 29 53  1  0
 30 54  1  0
 30 55  1  0
M  END
$$$$
