
     RDKit          3D

 38 40  0  0  0  0  0  0  0  0999 V2000
   -6.7929   -1.1277   -1.7889 C   0  0  0  0  0  0  0  0  0  0  0  0
   -5.9021   -0.8188   -0.6223 C   0  0  0  0  0  0  0  0  0  0  0  0
   -6.0278   -1.3139    0.4891 O   0  0  0  0  0  0  0  0  0  0  0  0
   -4.9406    0.1006   -1.0290 O   0  0  0  0  0  0  0  0  0  0  0  0
   -4.0281    0.4957   -0.0431 C   0  0  0  0  0  0  0  0  0  0  0  0
   -4.4451    1.2036    1.0819 C   0  0  0  0  0  0  0  0  0  0  0  0
   -3.4955    1.6168    2.0134 C   0  0  0  0  0  0  0  0  0  0  0  0
   -2.1403    1.3412    1.8027 C   0  0  0  0  0  0  0  0  0  0  0  0
   -1.7174    0.6615    0.6505 C   0  0  0  0  0  0  0  0  0  0  0  0
   -0.3051    0.3398    0.4065 C   0  0  0  0  0  0  0  0  0  0  0  0
    0.7075    1.1887    0.6502 C   0  0  0  0  0  0  0  0  0  0  0  0
    2.1223    0.8771    0.3947 C   0  0  0  0  0  0  0  0  0  0  0  0
    3.0992    1.8297    0.6579 C   0  0  0  0  0  0  0  0  0  0  0  0
    4.4318    1.5125    0.4074 C   0  0  0  0  0  0  0  0  0  0  0  0
    4.7614    0.2515   -0.0999 C   0  0  0  0  0  0  0  0  0  0  0  0
    6.0906   -0.1250   -0.3727 C   0  0  0  0  0  0  0  0  0  0  0  0
    6.3773   -1.3942   -0.8785 C   0  0  0  0  0  0  0  0  0  0  0  0
    5.3425   -2.2931   -1.1141 C   0  0  0  0  0  0  0  0  0  0  0  0
    4.0337   -1.9078   -0.8396 C   0  0  0  0  0  0  0  0  0  0  0  0
    3.0288   -2.8149   -1.0795 O   0  0  0  0  0  0  0  0  0  0  0  0
    3.7080   -0.6515   -0.3358 C   0  0  0  0  0  0  0  0  0  0  0  0
    2.4136   -0.3510   -0.0961 N   0  0  0  0  0  0  0  0  0  0  0  0
   -2.6775    0.2321   -0.2729 C   0  0  0  0  0  0  0  0  0  0  0  0
   -6.2049   -1.5688   -2.5977 H   0  0  0  0  0  0  0  0  0  0  0  0
   -7.5566   -1.8475   -1.4806 H   0  0  0  0  0  0  0  0  0  0  0  0
   -7.2909   -0.2155   -2.1268 H   0  0  0  0  0  0  0  0  0  0  0  0
   -5.4966    1.4196    1.2450 H   0  0  0  0  0  0  0  0  0  0  0  0
   -3.8085    2.1473    2.9089 H   0  0  0  0  0  0  0  0  0  0  0  0
   -1.4202    1.6537    2.5553 H   0  0  0  0  0  0  0  0  0  0  0  0
   -0.1125   -0.6433   -0.0175 H   0  0  0  0  0  0  0  0  0  0  0  0
    0.5063    2.1793    1.0465 H   0  0  0  0  0  0  0  0  0  0  0  0
    2.8411    2.8075    1.0509 H   0  0  0  0  0  0  0  0  0  0  0  0
    5.2041    2.2502    0.6090 H   0  0  0  0  0  0  0  0  0  0  0  0
    6.9085    0.5692   -0.1921 H   0  0  0  0  0  0  0  0  0  0  0  0
    7.4049   -1.6807   -1.0875 H   0  0  0  0  0  0  0  0  0  0  0  0
    5.5464   -3.2849   -1.5064 H   0  0  0  0  0  0  0  0  0  0  0  0
    2.2147   -2.3386   -0.8098 H   0  0  0  0  0  0  0  0  0  0  0  0
   -2.3803   -0.3004   -1.1721 H   0  0  0  0  0  0  0  0  0  0  0  0
  1  2  1  0
  2  3  2  0
  2  4  1  0
  4  5  1  0
  5  6  2  0
  6  7  1  0
  7  8  2  0
  8  9  1  0
  9 10  1  0
 10 11  2  0
 11 12  1  0
 12 13  2  0
 13 14  1  0
 14 15  2  0
 15 16  1  0
 16 17  2  0
 17 18  1  0
 18 19  2  0
 19 20  1  0
 19 21  1  0
 21 22  2  0
  9 23  2  0
 23  5  1  0
 22 12  1  0
 21 15  1  0
  1 24  1  0
  1 25  1  0
  1 26  1  0
  6 27  1  0
  7 28  1  0
  8 29  1  0
 10 30  1  0
 11 31  1  0
 13 32  1  0
 14 33  1  0
 16 34  1  0
 17 35  1  0
 18 36  1  0
 20 37  1  0
 23 38  1  0
M  END
$$$$
