
     RDKit          3D

 41 44  0  0  0  0  0  0  0  0999 V2000
    2.9653   -3.7613    3.1349 C   0  0  0  0  0  0  0  0  0  0  0  0
    3.4315   -3.9406    1.8044 O   0  0  0  0  0  0  0  0  0  0  0  0
    2.9046   -3.1260    0.8387 C   0  0  0  0  0  0  0  0  0  0  0  0
    3.4280   -3.3337   -0.4348 C   0  0  0  0  0  0  0  0  0  0  0  0
    2.9863   -2.5934   -1.5323 C   0  0  0  0  0  0  0  0  0  0  0  0
    2.0012   -1.6276   -1.3048 C   0  0  0  0  0  0  0  0  0  0  0  0
    1.3853   -0.7878   -2.1926 N   0  0  0  0  0  0  0  0  0  0  0  0
    0.4397    0.0028   -1.5735 C   0  0  0  0  0  0  0  0  0  0  0  0
   -0.4303    0.9534   -2.1418 C   0  0  0  0  0  0  0  0  0  0  0  0
   -0.4221    1.2423   -3.6240 C   0  0  0  0  0  0  0  0  0  0  0  0
   -1.3366    1.6050   -1.2624 C   0  0  0  0  0  0  0  0  0  0  0  0
   -2.2819    2.5282   -1.7451 C   0  0  0  0  0  0  0  0  0  0  0  0
   -3.1748    3.1535   -0.8891 C   0  0  0  0  0  0  0  0  0  0  0  0
   -3.1496    2.8829    0.4259 N   0  0  0  0  0  4  0  0  0  0  0  0
   -4.1091    3.5339    1.3344 C   0  0  0  0  0  0  0  0  0  0  0  0
   -2.2579    2.0035    0.9305 C   0  0  0  0  0  0  0  0  0  0  0  0
   -1.3120    1.3392    0.1279 C   0  0  0  0  0  0  0  0  0  0  0  0
   -0.3568    0.4220    0.6777 C   0  0  0  0  0  0  0  0  0  0  0  0
   -0.2691    0.2075    2.1719 C   0  0  0  0  0  0  0  0  0  0  0  0
    0.4875   -0.3011   -0.2133 C   0  0  0  0  0  0  0  0  0  0  0  0
    1.4571   -1.3663   -0.0512 C   0  0  0  0  0  0  0  0  0  0  0  0
    1.9178   -2.1507    1.0372 C   0  0  0  0  0  0  0  0  0  0  0  0
    1.8959   -3.9840    3.2106 H   0  0  0  0  0  0  0  0  0  0  0  0
    3.1860   -2.7523    3.4986 H   0  0  0  0  0  0  0  0  0  0  0  0
    3.4991   -4.4702    3.7751 H   0  0  0  0  0  0  0  0  0  0  0  0
    4.1932   -4.0942   -0.5799 H   0  0  0  0  0  0  0  0  0  0  0  0
    3.3964   -2.7735   -2.5211 H   0  0  0  0  0  0  0  0  0  0  0  0
    1.5887   -0.7792   -3.1812 H   0  0  0  0  0  0  0  0  0  0  0  0
   -1.3790    0.9535   -4.0706 H   0  0  0  0  0  0  0  0  0  0  0  0
    0.3624    0.6933   -4.1515 H   0  0  0  0  0  0  0  0  0  0  0  0
   -0.2400    2.3073   -3.8020 H   0  0  0  0  0  0  0  0  0  0  0  0
   -2.3443    2.7727   -2.8037 H   0  0  0  0  0  0  0  0  0  0  0  0
   -3.9120    3.8635   -1.2528 H   0  0  0  0  0  0  0  0  0  0  0  0
   -4.6299    4.3402    0.8125 H   0  0  0  0  0  0  0  0  0  0  0  0
   -3.5527    3.9448    2.1811 H   0  0  0  0  0  0  0  0  0  0  0  0
   -4.8206    2.7723    1.6638 H   0  0  0  0  0  0  0  0  0  0  0  0
   -2.3351    1.8375    1.9996 H   0  0  0  0  0  0  0  0  0  0  0  0
   -0.9717   -0.5706    2.4835 H   0  0  0  0  0  0  0  0  0  0  0  0
   -0.4716    1.1267    2.7292 H   0  0  0  0  0  0  0  0  0  0  0  0
    0.7423   -0.0725    2.4726 H   0  0  0  0  0  0  0  0  0  0  0  0
    1.4893   -2.0008    2.0177 H   0  0  0  0  0  0  0  0  0  0  0  0
  1  2  1  0
  2  3  1  0
  3  4  2  0
  4  5  1  0
  5  6  2  0
  6  7  1  0
  7  8  1  0
  8  9  2  0
  9 10  1  0
  9 11  1  0
 11 12  2  0
 12 13  1  0
 13 14  2  0
 14 15  1  0
 14 16  1  0
 16 17  2  0
 17 18  1  0
 18 19  1  0
 18 20  2  0
 20 21  1  0
 21 22  2  0
 22  3  1  0
 21  6  1  0
 20  8  1  0
 17 11  1  0
  1 23  1  0
  1 24  1  0
  1 25  1  0
  4 26  1  0
  5 27  1  0
  7 28  1  0
 10 29  1  0
 10 30  1  0
 10 31  1  0
 12 32  1  0
 13 33  1  0
 15 34  1  0
 15 35  1  0
 15 36  1  0
 16 37  1  0
 19 38  1  0
 19 39  1  0
 19 40  1  0
 22 41  1  0
M  CHG  1  14   1
M  END
$$$$
