
     RDKit          3D

 46 48  0  0  0  0  0  0  0  0999 V2000
    6.7175    2.8959   -0.0466 C   0  0  0  0  0  0  0  0  0  0  0  0
    5.2695    2.5141   -0.0787 C   0  0  0  0  0  0  0  0  0  0  0  0
    4.3778    3.2160   -0.5346 O   0  0  0  0  0  0  0  0  0  0  0  0
    5.1016    1.2758    0.4617 O   0  0  0  0  0  0  0  0  0  0  0  0
    3.7467    0.7990    0.5125 C   0  0  0  0  0  0  0  0  0  0  0  0
    3.3744    0.1328   -0.8095 C   0  0  0  0  0  0  0  0  0  0  0  0
    1.9175   -0.3227   -0.8500 C   0  0  0  0  0  0  0  0  0  0  0  0
    1.7246   -1.5300   -0.0457 N   0  0  0  0  0  0  0  0  0  0  0  0
    0.4373   -2.0686    0.1531 C   0  0  0  0  0  0  0  0  0  0  0  0
   -0.6366   -1.7517   -0.7316 C   0  0  0  0  0  0  0  0  0  0  0  0
   -1.9461   -2.2870   -0.6373 C   0  0  0  0  0  0  0  0  0  0  0  0
   -3.2538   -1.8422   -1.7349 S   0  0  0  0  0  0  0  0  0  0  0  0
   -3.7418   -0.2841   -1.0192 C   0  0  0  0  0  0  0  0  0  0  0  0
   -3.3500    0.9144   -1.6209 C   0  0  0  0  0  0  0  0  0  0  0  0
   -3.7196    2.1389   -1.0581 C   0  0  0  0  0  0  0  0  0  0  0  0
   -4.4994    2.1792    0.1035 C   0  0  0  0  0  0  0  0  0  0  0  0
   -4.8714    3.4929    0.7255 C   0  0  0  0  0  0  0  0  0  0  0  0
   -4.8868    0.9764    0.7053 C   0  0  0  0  0  0  0  0  0  0  0  0
   -4.5172   -0.2481    0.1429 C   0  0  0  0  0  0  0  0  0  0  0  0
   -2.1525   -3.2192    0.4037 C   0  0  0  0  0  0  0  0  0  0  0  0
   -3.2560   -3.8854    0.7719 N   0  0  0  0  0  0  0  0  0  0  0  0
   -2.8955   -4.6599    1.8555 O   0  0  0  0  0  0  0  0  0  0  0  0
   -1.5687   -4.4800    2.1905 N   0  0  0  0  0  0  0  0  0  0  0  0
   -1.0725   -3.6048    1.3045 C   0  0  0  0  0  0  0  0  0  0  0  0
    0.2126   -3.0497    1.1556 C   0  0  0  0  0  0  0  0  0  0  0  0
    1.2421   -3.4817    2.0599 N   0  0  0  0  0  4  0  0  0  0  0  0
    1.4299   -4.6977    2.1884 O   0  0  0  0  0  0  0  0  0  0  0  0
    1.9028   -2.5918    2.6191 O   0  0  0  0  0  1  0  0  0  0  0  0
    6.8361    3.9020   -0.4589 H   0  0  0  0  0  0  0  0  0  0  0  0
    7.0775    2.8993    0.9852 H   0  0  0  0  0  0  0  0  0  0  0  0
    7.2980    2.1981   -0.6550 H   0  0  0  0  0  0  0  0  0  0  0  0
    3.0578    1.6133    0.7680 H   0  0  0  0  0  0  0  0  0  0  0  0
    3.7015    0.0762    1.3334 H   0  0  0  0  0  0  0  0  0  0  0  0
    4.0529   -0.7077   -1.0016 H   0  0  0  0  0  0  0  0  0  0  0  0
    3.5421    0.8439   -1.6275 H   0  0  0  0  0  0  0  0  0  0  0  0
    1.6689   -0.5433   -1.8945 H   0  0  0  0  0  0  0  0  0  0  0  0
    1.2620    0.4846   -0.5020 H   0  0  0  0  0  0  0  0  0  0  0  0
    2.2729   -1.5248    0.8208 H   0  0  0  0  0  0  0  0  0  0  0  0
   -0.4647   -1.0466   -1.5446 H   0  0  0  0  0  0  0  0  0  0  0  0
   -2.7555    0.9078   -2.5311 H   0  0  0  0  0  0  0  0  0  0  0  0
   -3.3994    3.0621   -1.5366 H   0  0  0  0  0  0  0  0  0  0  0  0
   -4.1156    3.7857    1.4608 H   0  0  0  0  0  0  0  0  0  0  0  0
   -5.8445    3.4266    1.2234 H   0  0  0  0  0  0  0  0  0  0  0  0
   -4.9485    4.2779   -0.0341 H   0  0  0  0  0  0  0  0  0  0  0  0
   -5.4851    0.9841    1.6140 H   0  0  0  0  0  0  0  0  0  0  0  0
   -4.8429   -1.1701    0.6198 H   0  0  0  0  0  0  0  0  0  0  0  0
  1  2  1  0
  2  3  2  0
  2  4  1  0
  4  5  1  0
  5  6  1  0
  6  7  1  0
  7  8  1  0
  8  9  1  0
  9 10  1  0
 10 11  2  0
 11 12  1  0
 12 13  1  0
 13 14  2  0
 14 15  1  0
 15 16  2  0
 16 17  1  0
 16 18  1  0
 18 19  2  0
 11 20  1  0
 20 21  2  0
 21 22  1  0
 22 23  1  0
 23 24  2  0
 24 25  1  0
 25 26  1  0
 26 27  2  0
 26 28  1  0
 25  9  2  0
 19 13  1  0
 24 20  1  0
  1 29  1  0
  1 30  1  0
  1 31  1  0
  5 32  1  0
  5 33  1  0
  6 34  1  0
  6 35  1  0
  7 36  1  0
  7 37  1  0
  8 38  1  0
 10 39  1  0
 14 40  1  0
 15 41  1  0
 17 42  1  0
 17 43  1  0
 17 44  1  0
 18 45  1  0
 19 46  1  0
M  CHG  2  26   1  28  -1
M  END
$$$$
