
     RDKit          3D

 71 76  0  0  0  0  0  0  0  0999 V2000
   10.8160   -0.7052   -0.2160 C   0  0  0  0  0  0  0  0  0  0  0  0
    9.4174   -0.9480   -0.3061 O   0  0  0  0  0  0  0  0  0  0  0  0
    8.5983    0.1498   -0.3225 C   0  0  0  0  0  0  0  0  0  0  0  0
    9.0108    1.4762   -0.2763 C   0  0  0  0  0  0  0  0  0  0  0  0
    8.0579    2.4909   -0.2969 C   0  0  0  0  0  0  0  0  0  0  0  0
    6.6951    2.1790   -0.3653 C   0  0  0  0  0  0  0  0  0  0  0  0
    6.2377    0.8532   -0.4159 C   0  0  0  0  0  0  0  0  0  0  0  0
    4.8865    0.5466   -0.4861 N   0  0  0  0  0  0  0  0  0  0  0  0
    4.4286   -0.7786   -0.9402 C   0  0  0  0  0  0  0  0  0  0  0  0
    2.9602   -0.7487   -1.4009 C   0  0  0  0  0  0  0  0  0  0  0  0
    2.0488   -0.2263   -0.3761 N   0  0  0  0  0  0  0  0  0  0  0  0
    0.7195   -0.6295   -0.4105 C   0  0  0  0  0  0  0  0  0  0  0  0
    0.3041   -1.3396   -1.3286 O   0  0  0  0  0  0  0  0  0  0  0  0
   -0.1947   -0.2166    0.7497 C   0  0  0  0  0  0  0  0  0  0  0  0
    0.1544   -0.9775    2.0307 C   0  0  0  0  0  0  0  0  0  0  0  0
   -0.2014   -2.4624    1.9409 C   0  0  0  0  0  0  0  0  0  0  0  0
   -1.4463   -2.7573    1.0997 C   0  0  0  0  0  0  0  0  0  0  0  0
   -2.2965   -1.5707    1.0298 N   0  0  0  0  0  0  0  0  0  0  0  0
   -3.6448   -1.8161    0.7063 C   0  0  0  0  0  0  0  0  0  0  0  0
   -4.1524   -3.0734    0.9097 N   0  0  0  0  0  0  0  0  0  0  0  0
   -5.4484   -3.3325    0.6454 C   0  0  0  0  0  0  0  0  0  0  0  0
   -6.3869   -2.4901    0.1871 N   0  0  0  0  0  0  0  0  0  0  0  0
   -5.8740   -1.2635    0.0014 C   0  0  0  0  0  0  0  0  0  0  0  0
   -4.5694   -0.8467    0.2246 C   0  0  0  0  0  0  0  0  0  0  0  0
   -4.4497    0.5000   -0.0860 N   0  0  0  0  0  0  0  0  0  0  0  0
   -5.6451    0.8901   -0.4825 C   0  0  0  0  0  0  0  0  0  0  0  0
   -6.5380   -0.1530   -0.4425 N   0  0  0  0  0  0  0  0  0  0  0  0
   -7.9401   -0.0837   -0.7915 C   0  0  0  0  0  0  0  0  0  0  0  0
   -8.7241    0.8945    0.0805 C   0  0  0  0  0  0  0  0  0  0  0  0
   -8.4989    2.3642   -0.2839 C   0  0  0  0  0  0  0  0  0  0  0  0
   -7.0859    2.8895   -0.0167 C   0  0  0  0  0  0  0  0  0  0  0  0
   -6.0149    2.2677   -0.9110 C   0  0  0  0  0  0  0  0  0  0  0  0
   -1.6911   -0.3798    0.4058 C   0  0  0  0  0  0  0  0  0  0  0  0
    2.6277    0.7677    0.5383 C   0  0  0  0  0  0  0  0  0  0  0  0
    3.8546    1.4980   -0.0462 C   0  0  0  0  0  0  0  0  0  0  0  0
    7.2277   -0.1441   -0.3953 C   0  0  0  0  0  0  0  0  0  0  0  0
   11.1781   -0.1710   -1.1001 H   0  0  0  0  0  0  0  0  0  0  0  0
   11.3215   -1.6752   -0.1829 H   0  0  0  0  0  0  0  0  0  0  0  0
   11.0690   -0.1673    0.7034 H   0  0  0  0  0  0  0  0  0  0  0  0
   10.0576    1.7537   -0.2248 H   0  0  0  0  0  0  0  0  0  0  0  0
    8.3715    3.5315   -0.2648 H   0  0  0  0  0  0  0  0  0  0  0  0
    5.9945    3.0094   -0.4031 H   0  0  0  0  0  0  0  0  0  0  0  0
    5.0360   -1.1301   -1.7822 H   0  0  0  0  0  0  0  0  0  0  0  0
    4.5327   -1.4935   -0.1152 H   0  0  0  0  0  0  0  0  0  0  0  0
    2.8544   -0.0983   -2.2779 H   0  0  0  0  0  0  0  0  0  0  0  0
    2.6514   -1.7572   -1.6978 H   0  0  0  0  0  0  0  0  0  0  0  0
   -0.0428    0.8560    0.9082 H   0  0  0  0  0  0  0  0  0  0  0  0
    1.2114   -0.8838    2.2955 H   0  0  0  0  0  0  0  0  0  0  0  0
   -0.4065   -0.5315    2.8631 H   0  0  0  0  0  0  0  0  0  0  0  0
    0.6440   -3.0278    1.5295 H   0  0  0  0  0  0  0  0  0  0  0  0
   -0.3481   -2.8431    2.9596 H   0  0  0  0  0  0  0  0  0  0  0  0
   -1.1564   -3.0663    0.0881 H   0  0  0  0  0  0  0  0  0  0  0  0
   -1.9442   -3.6179    1.5610 H   0  0  0  0  0  0  0  0  0  0  0  0
   -5.7712   -4.3527    0.8307 H   0  0  0  0  0  0  0  0  0  0  0  0
   -8.3679   -1.0860   -0.6786 H   0  0  0  0  0  0  0  0  0  0  0  0
   -8.0031    0.1804   -1.8533 H   0  0  0  0  0  0  0  0  0  0  0  0
   -9.7933    0.6816   -0.0460 H   0  0  0  0  0  0  0  0  0  0  0  0
   -8.4922    0.7352    1.1408 H   0  0  0  0  0  0  0  0  0  0  0  0
   -9.2007    2.9695    0.3036 H   0  0  0  0  0  0  0  0  0  0  0  0
   -8.7594    2.5251   -1.3375 H   0  0  0  0  0  0  0  0  0  0  0  0
   -7.0951    3.9708   -0.2033 H   0  0  0  0  0  0  0  0  0  0  0  0
   -6.8321    2.7577    1.0425 H   0  0  0  0  0  0  0  0  0  0  0  0
   -5.1154    2.8938   -0.8624 H   0  0  0  0  0  0  0  0  0  0  0  0
   -6.3359    2.2634   -1.9593 H   0  0  0  0  0  0  0  0  0  0  0  0
   -1.8541   -0.3752   -0.6792 H   0  0  0  0  0  0  0  0  0  0  0  0
   -2.1885    0.5062    0.8199 H   0  0  0  0  0  0  0  0  0  0  0  0
    1.8783    1.5075    0.8247 H   0  0  0  0  0  0  0  0  0  0  0  0
    2.9340    0.2262    1.4393 H   0  0  0  0  0  0  0  0  0  0  0  0
    3.5487    2.1119   -0.9024 H   0  0  0  0  0  0  0  0  0  0  0  0
    4.2331    2.1671    0.7359 H   0  0  0  0  0  0  0  0  0  0  0  0
    6.9481   -1.1943   -0.4159 H   0  0  0  0  0  0  0  0  0  0  0  0
  1  2  1  0
  2  3  1  0
  3  4  2  0
  4  5  1  0
  5  6  2  0
  6  7  1  0
  7  8  1  0
  8  9  1  0
  9 10  1  0
 10 11  1  0
 11 12  1  0
 12 13  2  0
 12 14  1  0
 14 15  1  0
 15 16  1  0
 16 17  1  0
 17 18  1  0
 18 19  1  0
 19 20  2  0
 20 21  1  0
 21 22  2  0
 22 23  1  0
 23 24  2  0
 24 25  1  0
 25 26  2  0
 26 27  1  0
 27 28  1  0
 28 29  1  0
 29 30  1  0
 30 31  1  0
 31 32  1  0
 18 33  1  0
 11 34  1  0
 34 35  1  0
  7 36  2  0
 36  3  1  0
 35  8  1  0
 33 14  1  0
 24 19  1  0
 32 26  1  0
 27 23  1  0
  1 37  1  0
  1 38  1  0
  1 39  1  0
  4 40  1  0
  5 41  1  0
  6 42  1  0
  9 43  1  0
  9 44  1  0
 10 45  1  0
 10 46  1  0
 14 47  1  0
 15 48  1  0
 15 49  1  0
 16 50  1  0
 16 51  1  0
 17 52  1  0
 17 53  1  0
 21 54  1  0
 28 55  1  0
 28 56  1  0
 29 57  1  0
 29 58  1  0
 30 59  1  0
 30 60  1  0
 31 61  1  0
 31 62  1  0
 32 63  1  0
 32 64  1  0
 33 65  1  0
 33 66  1  0
 34 67  1  0
 34 68  1  0
 35 69  1  0
 35 70  1  0
 36 71  1  0
M  END
$$$$
