
     RDKit          3D

 41 42  0  0  0  0  0  0  0  0999 V2000
   -6.6427    0.0641   -1.6796 C   0  0  0  0  0  0  0  0  0  0  0  0
   -5.9215   -0.3467   -0.5281 O   0  0  0  0  0  0  0  0  0  0  0  0
   -4.5669   -0.1242   -0.5137 C   0  0  0  0  0  0  0  0  0  0  0  0
   -3.8501    0.4704   -1.5568 C   0  0  0  0  0  0  0  0  0  0  0  0
   -2.4688    0.6596   -1.4521 C   0  0  0  0  0  0  0  0  0  0  0  0
   -1.7820    0.2662   -0.2988 C   0  0  0  0  0  0  0  0  0  0  0  0
   -0.2930    0.4953   -0.1737 C   0  0  0  0  0  0  0  0  0  0  0  0
    0.5515   -0.7607   -0.2436 C   0  0  0  0  0  0  0  0  0  0  0  0
    0.1266   -1.9080   -0.2950 O   0  0  0  0  0  0  0  0  0  0  0  0
    1.8733   -0.3710   -0.2080 O   0  0  0  0  0  0  0  0  0  0  0  0
    2.7163   -1.4902   -0.3074 N   0  0  0  0  0  0  0  0  0  0  0  0
    3.9795   -1.1744   -0.2474 C   0  0  0  0  0  0  0  0  0  0  0  0
    4.8956   -2.1801   -0.4274 N   0  0  0  0  0  0  0  0  0  0  0  0
    4.5057    0.1933    0.0142 C   0  0  0  0  0  0  0  0  0  0  0  0
    4.1099    0.8970    1.1558 C   0  0  0  0  0  0  0  0  0  0  0  0
    4.6403    2.1632    1.4052 C   0  0  0  0  0  0  0  0  0  0  0  0
    5.5686    2.7174    0.5217 C   0  0  0  0  0  0  0  0  0  0  0  0
    5.9724    2.0073   -0.6104 C   0  0  0  0  0  0  0  0  0  0  0  0
    5.4459    0.7403   -0.8640 C   0  0  0  0  0  0  0  0  0  0  0  0
   -2.4999   -0.3364    0.7458 C   0  0  0  0  0  0  0  0  0  0  0  0
   -3.8813   -0.5455    0.6410 C   0  0  0  0  0  0  0  0  0  0  0  0
   -4.6424   -1.1202    1.6304 O   0  0  0  0  0  0  0  0  0  0  0  0
   -3.9580   -1.9674    2.5442 C   0  0  0  0  0  0  0  0  0  0  0  0
   -7.6971   -0.1809   -1.5187 H   0  0  0  0  0  0  0  0  0  0  0  0
   -6.5723    1.1470   -1.8249 H   0  0  0  0  0  0  0  0  0  0  0  0
   -6.3081   -0.4783   -2.5699 H   0  0  0  0  0  0  0  0  0  0  0  0
   -4.3367    0.7971   -2.4695 H   0  0  0  0  0  0  0  0  0  0  0  0
   -1.9382    1.1217   -2.2820 H   0  0  0  0  0  0  0  0  0  0  0  0
   -0.0961    0.9921    0.7841 H   0  0  0  0  0  0  0  0  0  0  0  0
    0.0395    1.1708   -0.9714 H   0  0  0  0  0  0  0  0  0  0  0  0
    4.4703   -3.0996   -0.3492 H   0  0  0  0  0  0  0  0  0  0  0  0
    5.7598   -2.0951    0.0951 H   0  0  0  0  0  0  0  0  0  0  0  0
    3.4010    0.4588    1.8533 H   0  0  0  0  0  0  0  0  0  0  0  0
    4.3353    2.7164    2.2901 H   0  0  0  0  0  0  0  0  0  0  0  0
    5.9813    3.7044    0.7179 H   0  0  0  0  0  0  0  0  0  0  0  0
    6.6972    2.4415   -1.2948 H   0  0  0  0  0  0  0  0  0  0  0  0
    5.7582    0.1885   -1.7473 H   0  0  0  0  0  0  0  0  0  0  0  0
   -1.9613   -0.6364    1.6395 H   0  0  0  0  0  0  0  0  0  0  0  0
   -3.3735   -1.3770    3.2572 H   0  0  0  0  0  0  0  0  0  0  0  0
   -3.3275   -2.6977    2.0253 H   0  0  0  0  0  0  0  0  0  0  0  0
   -4.7106   -2.5226    3.1129 H   0  0  0  0  0  0  0  0  0  0  0  0
  1  2  1  0
  2  3  1  0
  3  4  2  0
  4  5  1  0
  5  6  2  0
  6  7  1  0
  7  8  1  0
  8  9  2  0
  8 10  1  0
 10 11  1  0
 11 12  2  3
 12 13  1  0
 12 14  1  0
 14 15  2  0
 15 16  1  0
 16 17  2  0
 17 18  1  0
 18 19  2  0
  6 20  1  0
 20 21  2  0
 21 22  1  0
 22 23  1  0
 21  3  1  0
 19 14  1  0
  1 24  1  0
  1 25  1  0
  1 26  1  0
  4 27  1  0
  5 28  1  0
  7 29  1  0
  7 30  1  0
 13 31  1  0
 13 32  1  0
 15 33  1  0
 16 34  1  0
 17 35  1  0
 18 36  1  0
 19 37  1  0
 20 38  1  0
 23 39  1  0
 23 40  1  0
 23 41  1  0
M  END
$$$$
