
     RDKit          3D

 50 50  0  0  0  0  0  0  0  0999 V2000
    3.2204    2.4491    1.0644 C   0  0  0  0  0  0  0  0  0  0  0  0
    4.4851    2.3587    1.5114 C   0  0  0  0  0  0  0  0  0  0  0  0
    5.3901    3.5617    1.5290 C   0  0  0  0  0  0  0  0  0  0  0  0
    5.0414    1.0742    2.0800 C   0  0  0  0  0  0  0  0  0  0  0  0
    6.3261    0.3607    1.0235 S   0  0  0  0  0  0  0  0  0  0  0  0
    5.3840   -0.3810   -0.2311 C   0  0  0  0  0  0  0  0  0  0  0  0
    5.9067   -0.9008   -1.3246 N   0  0  0  0  0  0  0  0  0  0  0  0
    4.8599   -1.4045   -2.0708 N   0  0  0  0  0  0  0  0  0  0  0  0
    3.7703   -1.1592   -1.3788 C   0  0  0  0  0  0  0  0  0  0  0  0
    2.3572   -1.4639   -1.7015 C   0  0  0  0  0  0  0  0  0  0  0  0
    1.8071   -2.5774   -0.8092 C   0  0  0  0  0  0  0  0  0  0  0  0
    0.3905   -3.0208   -1.1874 C   0  0  0  0  0  0  0  0  0  0  0  0
   -0.6521   -1.9115   -1.0414 C   0  0  0  0  0  0  0  0  0  0  0  0
   -2.0683   -2.4472   -1.2498 C   0  0  0  0  0  0  0  0  0  0  0  0
   -3.0501   -1.3908   -1.1877 N   0  0  0  0  0  0  0  0  0  0  0  0
   -3.5010   -0.8663   -0.0146 C   0  0  0  0  0  0  0  0  0  0  0  0
   -3.1752   -1.2521    1.0961 O   0  0  0  0  0  0  0  0  0  0  0  0
   -4.3471    0.1502   -0.2947 O   0  0  0  0  0  0  0  0  0  0  0  0
   -4.9734    0.9074    0.7731 C   0  0  0  0  0  0  0  0  0  0  0  0
   -3.9292    1.6379    1.6251 C   0  0  0  0  0  0  0  0  0  0  0  0
   -5.8882    0.0195    1.6240 C   0  0  0  0  0  0  0  0  0  0  0  0
   -5.8372    1.9545    0.0532 C   0  0  0  0  0  0  0  0  0  0  0  0
    4.0199   -0.5193   -0.1968 O   0  0  0  0  0  0  0  0  0  0  0  0
    2.8187    3.3813    0.6771 H   0  0  0  0  0  0  0  0  0  0  0  0
    2.5501    1.5945    1.0703 H   0  0  0  0  0  0  0  0  0  0  0  0
    5.7569    3.7461    2.5438 H   0  0  0  0  0  0  0  0  0  0  0  0
    6.2497    3.4145    0.8685 H   0  0  0  0  0  0  0  0  0  0  0  0
    4.8725    4.4682    1.1971 H   0  0  0  0  0  0  0  0  0  0  0  0
    4.2541    0.3335    2.2599 H   0  0  0  0  0  0  0  0  0  0  0  0
    5.4861    1.2833    3.0597 H   0  0  0  0  0  0  0  0  0  0  0  0
    2.2856   -1.7615   -2.7542 H   0  0  0  0  0  0  0  0  0  0  0  0
    1.7664   -0.5487   -1.5838 H   0  0  0  0  0  0  0  0  0  0  0  0
    2.4678   -3.4523   -0.8692 H   0  0  0  0  0  0  0  0  0  0  0  0
    1.8193   -2.2552    0.2400 H   0  0  0  0  0  0  0  0  0  0  0  0
    0.1140   -3.8639   -0.5421 H   0  0  0  0  0  0  0  0  0  0  0  0
    0.3858   -3.3971   -2.2177 H   0  0  0  0  0  0  0  0  0  0  0  0
   -0.5711   -1.4555   -0.0472 H   0  0  0  0  0  0  0  0  0  0  0  0
   -0.4599   -1.1154   -1.7702 H   0  0  0  0  0  0  0  0  0  0  0  0
   -2.3078   -3.1954   -0.4857 H   0  0  0  0  0  0  0  0  0  0  0  0
   -2.1627   -2.9178   -2.2342 H   0  0  0  0  0  0  0  0  0  0  0  0
   -3.3606   -0.9241   -2.0279 H   0  0  0  0  0  0  0  0  0  0  0  0
   -4.4023    2.3409    2.3191 H   0  0  0  0  0  0  0  0  0  0  0  0
   -3.2288    2.1925    0.9905 H   0  0  0  0  0  0  0  0  0  0  0  0
   -3.3299    0.9437    2.2217 H   0  0  0  0  0  0  0  0  0  0  0  0
   -5.3213   -0.7118    2.2076 H   0  0  0  0  0  0  0  0  0  0  0  0
   -6.4774    0.6150    2.3292 H   0  0  0  0  0  0  0  0  0  0  0  0
   -6.5759   -0.5510    0.9897 H   0  0  0  0  0  0  0  0  0  0  0  0
   -6.3706    2.5983    0.7605 H   0  0  0  0  0  0  0  0  0  0  0  0
   -5.2211    2.5885   -0.5952 H   0  0  0  0  0  0  0  0  0  0  0  0
   -6.5742    1.4706   -0.5986 H   0  0  0  0  0  0  0  0  0  0  0  0
  1  2  2  0
  2  3  1  0
  2  4  1  0
  4  5  1  0
  5  6  1  0
  6  7  2  0
  7  8  1  0
  8  9  2  0
  9 10  1  0
 10 11  1  0
 11 12  1  0
 12 13  1  0
 13 14  1  0
 14 15  1  0
 15 16  1  0
 16 17  2  0
 16 18  1  0
 18 19  1  0
 19 20  1  0
 19 21  1  0
 19 22  1  0
  9 23  1  0
 23  6  1  0
  1 24  1  0
  1 25  1  0
  3 26  1  0
  3 27  1  0
  3 28  1  0
  4 29  1  0
  4 30  1  0
 10 31  1  0
 10 32  1  0
 11 33  1  0
 11 34  1  0
 12 35  1  0
 12 36  1  0
 13 37  1  0
 13 38  1  0
 14 39  1  0
 14 40  1  0
 15 41  1  0
 20 42  1  0
 20 43  1  0
 20 44  1  0
 21 45  1  0
 21 46  1  0
 21 47  1  0
 22 48  1  0
 22 49  1  0
 22 50  1  0
M  END
$$$$
