
     RDKit          3D

 76 78  0  0  0  0  0  0  0  0999 V2000
    3.4086   -1.3039    4.5367 C   0  0  0  0  0  0  0  0  0  0  0  0
    3.6134   -1.1826    3.0340 C   0  0  0  0  0  0  0  0  0  0  0  0
    5.0758   -0.8996    2.6893 C   0  0  0  0  0  0  0  0  0  0  0  0
    5.3441   -0.8101    1.1792 C   0  0  0  0  0  0  0  0  0  0  0  0
    4.7818    0.3929    0.5523 N   0  0  0  0  0  0  0  0  0  0  0  0
    3.6176    0.3360   -0.2204 C   0  0  0  0  0  0  0  0  0  0  0  0
    2.9800   -0.8916   -0.4103 N   0  0  0  0  0  0  0  0  0  0  0  0
    3.1398    1.4663   -0.8103 C   0  0  0  0  0  0  0  0  0  0  0  0
    1.9681    1.5239   -1.5956 N   0  0  0  0  0  0  0  0  0  0  0  0
    2.0733    2.1687   -2.9229 C   0  0  0  0  0  0  0  0  0  0  0  0
    1.9921    1.1558   -4.0862 C   0  0  0  0  0  0  0  0  0  0  0  0
    1.8021    1.9021   -5.4088 C   0  0  0  0  0  0  0  0  0  0  0  0
    3.2428    0.2776   -4.1635 C   0  0  0  0  0  0  0  0  0  0  0  0
    0.7350    1.2157   -0.9973 C   0  0  0  0  0  0  0  0  0  0  0  0
    0.6641    0.6749    0.1136 O   0  0  0  0  0  0  0  0  0  0  0  0
   -0.5414    1.5776   -1.7738 C   0  0  0  0  0  0  0  0  0  0  0  0
   -1.6975    1.1396   -1.0253 N   0  0  0  0  0  0  0  0  0  0  0  0
   -2.3595    1.8988   -0.1171 C   0  0  0  0  0  0  0  0  0  0  0  0
   -2.1416    3.0620    0.1752 O   0  0  0  0  0  0  0  0  0  0  0  0
   -3.3536    1.1354    0.4501 N   0  0  0  0  0  0  0  0  0  0  0  0
   -3.2689   -0.2574    0.0611 C   0  0  0  0  0  0  0  0  0  0  0  0
   -2.7684   -1.1374    1.2118 C   0  0  0  0  0  0  0  0  0  0  0  0
   -3.8656   -1.4198    2.2464 C   0  0  0  0  0  0  0  0  0  0  0  0
   -3.3367   -2.3438    3.3450 C   0  0  0  0  0  0  0  0  0  0  0  0
   -5.0986   -2.0397    1.5699 C   0  0  0  0  0  0  0  0  0  0  0  0
   -5.6769   -1.1786    0.4232 C   0  0  0  0  0  0  0  0  0  0  0  0
   -6.7368   -2.0096   -0.3316 C   0  0  0  0  0  0  0  0  0  0  0  0
   -6.3900    0.0643    0.9881 C   0  0  0  0  0  0  0  0  0  0  0  0
   -4.5598   -0.7857   -0.5763 C   0  0  0  0  0  0  0  0  0  0  0  0
   -2.1571   -0.1453   -1.0053 C   0  0  0  0  0  0  0  0  0  0  0  0
   -1.7296   -1.0647   -1.6926 O   0  0  0  0  0  0  0  0  0  0  0  0
    3.8660    2.7537   -0.5688 C   0  0  0  0  0  0  0  0  0  0  0  0
    3.4278    3.8397   -0.9429 O   0  0  0  0  0  0  0  0  0  0  0  0
    5.0362    2.6740    0.1107 N   0  0  0  0  0  0  0  0  0  0  0  0
    5.5070    1.5642    0.7377 C   0  0  0  0  0  0  0  0  0  0  0  0
    6.5261    1.6517    1.4209 O   0  0  0  0  0  0  0  0  0  0  0  0
    2.3616   -1.5358    4.7579 H   0  0  0  0  0  0  0  0  0  0  0  0
    3.6630   -0.3674    5.0449 H   0  0  0  0  0  0  0  0  0  0  0  0
    4.0265   -2.1037    4.9553 H   0  0  0  0  0  0  0  0  0  0  0  0
    3.2952   -2.1169    2.5580 H   0  0  0  0  0  0  0  0  0  0  0  0
    2.9702   -0.3818    2.6537 H   0  0  0  0  0  0  0  0  0  0  0  0
    5.6976   -1.7062    3.0977 H   0  0  0  0  0  0  0  0  0  0  0  0
    5.3940    0.0239    3.1856 H   0  0  0  0  0  0  0  0  0  0  0  0
    6.4322   -0.7805    1.0306 H   0  0  0  0  0  0  0  0  0  0  0  0
    5.0124   -1.7201    0.6690 H   0  0  0  0  0  0  0  0  0  0  0  0
    2.9064   -1.3901    0.4704 H   0  0  0  0  0  0  0  0  0  0  0  0
    2.0257   -0.7526   -0.7423 H   0  0  0  0  0  0  0  0  0  0  0  0
    3.0175    2.7164   -3.0177 H   0  0  0  0  0  0  0  0  0  0  0  0
    1.2758    2.9138   -3.0105 H   0  0  0  0  0  0  0  0  0  0  0  0
    1.1327    0.4911   -3.9501 H   0  0  0  0  0  0  0  0  0  0  0  0
    1.7143    1.2004   -6.2450 H   0  0  0  0  0  0  0  0  0  0  0  0
    2.6457    2.5698   -5.6130 H   0  0  0  0  0  0  0  0  0  0  0  0
    0.8898    2.5071   -5.3861 H   0  0  0  0  0  0  0  0  0  0  0  0
    4.1534    0.8823   -4.2326 H   0  0  0  0  0  0  0  0  0  0  0  0
    3.3265   -0.3685   -3.2846 H   0  0  0  0  0  0  0  0  0  0  0  0
    3.2046   -0.3754   -5.0425 H   0  0  0  0  0  0  0  0  0  0  0  0
   -0.5937    2.6625   -1.8999 H   0  0  0  0  0  0  0  0  0  0  0  0
   -0.5492    1.0715   -2.7397 H   0  0  0  0  0  0  0  0  0  0  0  0
   -3.8436    1.4968    1.2569 H   0  0  0  0  0  0  0  0  0  0  0  0
   -1.9066   -0.6692    1.7062 H   0  0  0  0  0  0  0  0  0  0  0  0
   -2.4023   -2.0915    0.8078 H   0  0  0  0  0  0  0  0  0  0  0  0
   -4.1529   -0.4770    2.7275 H   0  0  0  0  0  0  0  0  0  0  0  0
   -2.4754   -1.8931    3.8497 H   0  0  0  0  0  0  0  0  0  0  0  0
   -4.1073   -2.5307    4.1007 H   0  0  0  0  0  0  0  0  0  0  0  0
   -3.0229   -3.3116    2.9390 H   0  0  0  0  0  0  0  0  0  0  0  0
   -5.8761   -2.2228    2.3237 H   0  0  0  0  0  0  0  0  0  0  0  0
   -4.8215   -3.0265    1.1731 H   0  0  0  0  0  0  0  0  0  0  0  0
   -7.5531   -2.3125    0.3353 H   0  0  0  0  0  0  0  0  0  0  0  0
   -6.2993   -2.9224   -0.7533 H   0  0  0  0  0  0  0  0  0  0  0  0
   -7.1732   -1.4358   -1.1570 H   0  0  0  0  0  0  0  0  0  0  0  0
   -5.7460    0.6700    1.6278 H   0  0  0  0  0  0  0  0  0  0  0  0
   -6.7578    0.7070    0.1814 H   0  0  0  0  0  0  0  0  0  0  0  0
   -7.2558   -0.2242    1.5957 H   0  0  0  0  0  0  0  0  0  0  0  0
   -4.3028   -1.6774   -1.1661 H   0  0  0  0  0  0  0  0  0  0  0  0
   -4.9477   -0.0597   -1.3039 H   0  0  0  0  0  0  0  0  0  0  0  0
    5.5227    3.5357    0.3000 H   0  0  0  0  0  0  0  0  0  0  0  0
  1  2  1  0
  2  3  1  0
  3  4  1  0
  4  5  1  0
  5  6  1  0
  6  7  1  0
  6  8  2  0
  8  9  1  0
  9 10  1  0
 10 11  1  0
 11 12  1  0
 11 13  1  0
  9 14  1  0
 14 15  2  0
 14 16  1  0
 16 17  1  0
 17 18  1  0
 18 19  2  0
 18 20  1  0
 20 21  1  0
 21 22  1  0
 22 23  1  0
 23 24  1  0
 23 25  1  0
 25 26  1  0
 26 27  1  0
 26 28  1  0
 26 29  1  0
 21 30  1  0
 30 31  2  0
  8 32  1  0
 32 33  2  0
 32 34  1  0
 34 35  1  0
 35 36  2  0
 35  5  1  0
 30 17  1  0
 29 21  1  0
  1 37  1  0
  1 38  1  0
  1 39  1  0
  2 40  1  0
  2 41  1  0
  3 42  1  0
  3 43  1  0
  4 44  1  0
  4 45  1  0
  7 46  1  0
  7 47  1  0
 10 48  1  0
 10 49  1  0
 11 50  1  0
 12 51  1  0
 12 52  1  0
 12 53  1  0
 13 54  1  0
 13 55  1  0
 13 56  1  0
 16 57  1  0
 16 58  1  0
 20 59  1  0
 22 60  1  0
 22 61  1  0
 23 62  1  0
 24 63  1  0
 24 64  1  0
 24 65  1  0
 25 66  1  0
 25 67  1  0
 27 68  1  0
 27 69  1  0
 27 70  1  0
 28 71  1  0
 28 72  1  0
 28 73  1  0
 29 74  1  0
 29 75  1  0
 34 76  1  0
M  END
$$$$
