
     RDKit          3D

 45 47  0  0  0  0  0  0  0  0999 V2000
   -0.6282   -3.0840    1.1240 C   0  0  0  0  0  0  0  0  0  0  0  0
    0.1208   -2.0138    0.4196 C   0  0  0  0  0  0  0  0  0  0  0  0
    1.3852   -1.7190    0.6530 N   0  0  0  0  0  0  0  0  0  0  0  0
    1.5706   -0.5142    0.0043 C   0  0  0  0  0  0  0  0  0  0  0  0
    2.8687    0.1984    0.0366 C   0  0  0  0  0  0  0  0  0  0  0  0
    3.0566    1.2707   -0.5286 O   0  0  0  0  0  0  0  0  0  0  0  0
    3.8040   -0.5017    0.7796 N   0  0  0  0  0  0  0  0  0  0  0  0
    5.1464   -0.1706    1.0569 C   0  0  0  0  0  0  0  0  0  0  0  0
    5.7675    0.9807    0.5641 C   0  0  0  0  0  0  0  0  0  0  0  0
    7.1047    1.2550    0.8755 C   0  0  0  0  0  0  0  0  0  0  0  0
    7.8275    0.3815    1.6834 C   0  0  0  0  0  0  0  0  0  0  0  0
    9.4689    0.7282    2.0629 Cl  0  0  0  0  0  0  0  0  0  0  0  0
    7.2311   -0.7707    2.1837 C   0  0  0  0  0  0  0  0  0  0  0  0
    5.8975   -1.0425    1.8701 C   0  0  0  0  0  0  0  0  0  0  0  0
    5.1918   -2.4865    2.5164 Cl  0  0  0  0  0  0  0  0  0  0  0  0
    0.4666   -0.0558   -0.6004 N   0  0  0  0  0  0  0  0  0  0  0  0
   -0.4158   -1.0734   -0.4496 N   0  0  0  0  0  0  0  0  0  0  0  0
   -1.6946   -0.9832   -1.0551 C   0  0  0  0  0  0  0  0  0  0  0  0
   -2.2845    0.2931   -1.1283 C   0  0  0  0  0  0  0  0  0  0  0  0
   -3.5715    0.4519   -1.6468 C   0  0  0  0  0  0  0  0  0  0  0  0
   -4.0814    1.7222   -1.6898 O   0  0  0  0  0  0  0  0  0  0  0  0
   -5.0028    1.9817   -0.6154 C   0  0  0  0  0  0  0  0  0  0  0  0
   -6.1043    2.8804   -1.1688 C   0  0  0  0  0  0  0  0  0  0  0  0
   -4.2706    2.6916    0.5209 C   0  0  0  0  0  0  0  0  0  0  0  0
   -4.2512   -0.6476   -2.1731 C   0  0  0  0  0  0  0  0  0  0  0  0
   -5.8090   -0.4969   -2.8969 Cl  0  0  0  0  0  0  0  0  0  0  0  0
   -3.6497   -1.9070   -2.1545 C   0  0  0  0  0  0  0  0  0  0  0  0
   -2.3704   -2.0794   -1.6073 C   0  0  0  0  0  0  0  0  0  0  0  0
   -1.6532   -3.6336   -1.8450 Cl  0  0  0  0  0  0  0  0  0  0  0  0
   -0.3750   -4.0666    0.7160 H   0  0  0  0  0  0  0  0  0  0  0  0
   -0.3445   -3.0895    2.1822 H   0  0  0  0  0  0  0  0  0  0  0  0
   -1.7111   -2.9400    1.0874 H   0  0  0  0  0  0  0  0  0  0  0  0
    3.4578   -1.3721    1.1843 H   0  0  0  0  0  0  0  0  0  0  0  0
    5.2431    1.6886   -0.0709 H   0  0  0  0  0  0  0  0  0  0  0  0
    7.5708    2.1553    0.4818 H   0  0  0  0  0  0  0  0  0  0  0  0
    7.7974   -1.4507    2.8138 H   0  0  0  0  0  0  0  0  0  0  0  0
   -1.7586    1.1730   -0.7576 H   0  0  0  0  0  0  0  0  0  0  0  0
   -5.4602    1.0590   -0.2348 H   0  0  0  0  0  0  0  0  0  0  0  0
   -6.6270    2.3855   -1.9941 H   0  0  0  0  0  0  0  0  0  0  0  0
   -5.6880    3.8095   -1.5740 H   0  0  0  0  0  0  0  0  0  0  0  0
   -6.8365    3.1325   -0.3958 H   0  0  0  0  0  0  0  0  0  0  0  0
   -3.4986    2.0449    0.9506 H   0  0  0  0  0  0  0  0  0  0  0  0
   -3.7633    3.5930    0.1598 H   0  0  0  0  0  0  0  0  0  0  0  0
   -4.9609    2.9741    1.3217 H   0  0  0  0  0  0  0  0  0  0  0  0
   -4.1661   -2.7520   -2.6059 H   0  0  0  0  0  0  0  0  0  0  0  0
  1  2  1  0
  2  3  2  0
  3  4  1  0
  4  5  1  0
  5  6  2  0
  5  7  1  0
  7  8  1  0
  8  9  2  0
  9 10  1  0
 10 11  2  0
 11 12  1  0
 11 13  1  0
 13 14  2  0
 14 15  1  0
  4 16  2  0
 16 17  1  0
 17 18  1  0
 18 19  2  0
 19 20  1  0
 20 21  1  0
 21 22  1  0
 22 23  1  0
 22 24  1  0
 20 25  2  0
 25 26  1  0
 25 27  1  0
 27 28  2  0
 28 29  1  0
 17  2  1  0
 28 18  1  0
 14  8  1  0
  1 30  1  0
  1 31  1  0
  1 32  1  0
  7 33  1  0
  9 34  1  0
 10 35  1  0
 13 36  1  0
 19 37  1  0
 22 38  1  0
 23 39  1  0
 23 40  1  0
 23 41  1  0
 24 42  1  0
 24 43  1  0
 24 44  1  0
 27 45  1  0
M  END
$$$$
