
     RDKit          3D

 54 56  0  0  0  0  0  0  0  0999 V2000
   -7.0129    2.8859    0.4837 C   0  0  0  0  0  0  0  0  0  0  0  0
   -6.4644    2.0526   -0.6642 C   0  0  0  0  0  0  0  0  0  0  0  0
   -6.5374    0.5427   -0.4148 C   0  0  0  0  0  0  0  0  0  0  0  0
   -5.7378    0.0517    0.7927 C   0  0  0  0  0  0  0  0  0  0  0  0
   -4.3250    0.3531    0.6879 N   0  0  0  0  0  0  0  0  0  0  0  0
   -3.4652   -0.4320   -0.0532 C   0  0  0  0  0  0  0  0  0  0  0  0
   -3.8206   -1.4604   -0.6183 O   0  0  0  0  0  0  0  0  0  0  0  0
   -2.0325    0.1050   -0.0956 C   0  0  0  0  0  0  0  0  0  0  0  0
   -1.1967   -0.6101   -1.1716 C   0  0  0  0  0  0  0  0  0  0  0  0
    0.2953   -0.4878   -0.8863 C   0  0  0  0  0  0  0  0  0  0  0  0
    0.6799   -1.1962    0.4285 C   0  0  0  0  0  0  0  0  0  0  0  0
    1.9617   -0.5903    1.0317 C   0  0  0  0  0  0  0  0  0  0  0  0
    3.0814   -0.7425    0.1135 N   0  0  0  0  0  0  0  0  0  0  0  0
    4.3666   -0.2483    0.2957 C   0  0  0  0  0  0  0  0  0  0  0  0
    4.5818    0.7112    1.2497 N   0  0  0  0  0  0  0  0  0  0  0  0
    5.7850    1.2930    1.5480 C   0  0  0  0  0  0  0  0  0  0  0  0
    5.8064    2.4665    2.7466 S   0  0  0  0  0  0  0  0  0  0  0  0
    6.8951    0.8889    0.8639 N   0  0  0  0  0  0  0  0  0  0  0  0
    6.7360   -0.0106   -0.0530 C   0  0  0  0  0  0  0  0  0  0  0  0
    7.9341   -0.4668   -0.8130 C   0  0  0  0  0  0  0  0  0  0  0  0
    7.8248   -1.3847   -1.7822 C   0  0  0  0  0  0  0  0  0  0  0  0
    6.5569   -1.9670   -2.1460 C   0  0  0  0  0  0  0  0  0  0  0  0
    5.4256   -1.6276   -1.5118 C   0  0  0  0  0  0  0  0  0  0  0  0
    5.4334   -0.6568   -0.4294 C   0  0  0  0  0  0  0  0  0  0  0  0
   -0.4730   -1.1804    1.4522 C   0  0  0  0  0  0  0  0  0  0  0  0
   -1.3740    0.0428    1.2973 C   0  0  0  0  0  0  0  0  0  0  0  0
   -8.0345    2.5841    0.7363 H   0  0  0  0  0  0  0  0  0  0  0  0
   -7.0319    3.9445    0.2043 H   0  0  0  0  0  0  0  0  0  0  0  0
   -6.3917    2.7922    1.3795 H   0  0  0  0  0  0  0  0  0  0  0  0
   -7.0431    2.2809   -1.5676 H   0  0  0  0  0  0  0  0  0  0  0  0
   -5.4311    2.3534   -0.8718 H   0  0  0  0  0  0  0  0  0  0  0  0
   -7.5866    0.2510   -0.2822 H   0  0  0  0  0  0  0  0  0  0  0  0
   -6.1826    0.0298   -1.3175 H   0  0  0  0  0  0  0  0  0  0  0  0
   -5.8575   -1.0335    0.8879 H   0  0  0  0  0  0  0  0  0  0  0  0
   -6.1016    0.5039    1.7202 H   0  0  0  0  0  0  0  0  0  0  0  0
   -4.0040    1.2526    1.0210 H   0  0  0  0  0  0  0  0  0  0  0  0
   -2.1113    1.1640   -0.3803 H   0  0  0  0  0  0  0  0  0  0  0  0
   -1.4552   -1.6741   -1.2411 H   0  0  0  0  0  0  0  0  0  0  0  0
   -1.4254   -0.1766   -2.1528 H   0  0  0  0  0  0  0  0  0  0  0  0
    0.5636    0.5760   -0.8464 H   0  0  0  0  0  0  0  0  0  0  0  0
    0.8655   -0.9220   -1.7163 H   0  0  0  0  0  0  0  0  0  0  0  0
    0.8865   -2.2509    0.1975 H   0  0  0  0  0  0  0  0  0  0  0  0
    2.2048   -1.0992    1.9719 H   0  0  0  0  0  0  0  0  0  0  0  0
    1.7936    0.4695    1.2571 H   0  0  0  0  0  0  0  0  0  0  0  0
    3.0577   -1.6141   -0.4070 H   0  0  0  0  0  0  0  0  0  0  0  0
    3.7962    1.0547    1.7791 H   0  0  0  0  0  0  0  0  0  0  0  0
    8.8841   -0.0216   -0.5424 H   0  0  0  0  0  0  0  0  0  0  0  0
    8.7048   -1.7081   -2.3302 H   0  0  0  0  0  0  0  0  0  0  0  0
    6.5438   -2.6866   -2.9598 H   0  0  0  0  0  0  0  0  0  0  0  0
    4.4903   -2.0741   -1.8268 H   0  0  0  0  0  0  0  0  0  0  0  0
   -1.0836   -2.0827    1.3146 H   0  0  0  0  0  0  0  0  0  0  0  0
   -0.0857   -1.2312    2.4765 H   0  0  0  0  0  0  0  0  0  0  0  0
   -0.7689    0.9464    1.4455 H   0  0  0  0  0  0  0  0  0  0  0  0
   -2.1208    0.0398    2.0988 H   0  0  0  0  0  0  0  0  0  0  0  0
  1  2  1  0
  2  3  1  0
  3  4  1  0
  4  5  1  0
  5  6  1  0
  6  7  2  0
  6  8  1  0
  8  9  1  0
  9 10  1  0
 10 11  1  0
 11 12  1  0
 12 13  1  0
 13 14  1  0
 14 15  1  0
 15 16  1  0
 16 17  2  0
 16 18  1  0
 18 19  2  0
 19 20  1  0
 20 21  2  0
 21 22  1  0
 22 23  2  0
 23 24  1  0
 11 25  1  0
 25 26  1  0
 26  8  1  0
 24 14  2  0
 24 19  1  0
  1 27  1  0
  1 28  1  0
  1 29  1  0
  2 30  1  0
  2 31  1  0
  3 32  1  0
  3 33  1  0
  4 34  1  0
  4 35  1  0
  5 36  1  0
  8 37  1  0
  9 38  1  0
  9 39  1  0
 10 40  1  0
 10 41  1  0
 11 42  1  0
 12 43  1  0
 12 44  1  0
 13 45  1  0
 15 46  1  0
 20 47  1  0
 21 48  1  0
 22 49  1  0
 23 50  1  0
 25 51  1  0
 25 52  1  0
 26 53  1  0
 26 54  1  0
M  END
$$$$
