
     RDKit          3D

 50 53  0  0  0  0  0  0  0  0999 V2000
   -2.5379   -3.0131   -1.6131 C   0  0  0  0  0  0  0  0  0  0  0  0
   -2.0377   -2.1973   -0.5544 O   0  0  0  0  0  0  0  0  0  0  0  0
   -0.7903   -1.7134   -0.7708 C   0  0  0  0  0  0  0  0  0  0  0  0
   -0.0747   -1.9766   -1.7254 O   0  0  0  0  0  0  0  0  0  0  0  0
   -0.3427   -0.8905    0.3773 C   0  0  0  0  0  0  0  0  0  0  0  0
   -1.0920    0.0475    1.0111 C   0  0  0  0  0  0  0  0  0  0  0  0
   -2.4464    0.4425    0.5979 C   0  0  0  0  0  0  0  0  0  0  0  0
   -2.6377    1.1526   -0.5945 C   0  0  0  0  0  0  0  0  0  0  0  0
   -3.9211    1.5259   -0.9962 C   0  0  0  0  0  0  0  0  0  0  0  0
   -5.0229    1.1912   -0.2086 C   0  0  0  0  0  0  0  0  0  0  0  0
   -4.8418    0.4834    0.9843 C   0  0  0  0  0  0  0  0  0  0  0  0
   -5.9734    0.1341    1.7916 C   0  0  0  0  0  0  0  0  0  0  0  0
   -6.8880   -0.1512    2.4467 N   0  0  0  0  0  0  0  0  0  0  0  0
   -3.5539    0.1124    1.3877 C   0  0  0  0  0  0  0  0  0  0  0  0
   -0.5158    0.8164    2.2015 C   0  0  0  0  0  0  0  0  0  0  0  0
    0.9036    0.3200    2.5838 C   0  0  0  0  0  0  0  0  0  0  0  0
    0.8580   -1.0789    3.2243 C   0  0  0  0  0  0  0  0  0  0  0  0
    1.0756   -2.0596    2.0553 C   0  0  0  0  0  0  0  0  0  0  0  0
    1.0894   -1.1682    0.8084 C   0  0  0  0  0  0  0  0  0  0  0  0
    1.6325    0.0742    1.3491 N   0  0  0  0  0  0  0  0  0  0  0  0
    2.1738    1.1190    0.6382 C   0  0  0  0  0  0  0  0  0  0  0  0
    2.2286    2.2617    1.0836 O   0  0  0  0  0  0  0  0  0  0  0  0
    2.6250    0.7875   -0.6102 N   0  0  0  0  0  0  0  0  0  0  0  0
    3.2564    1.7923   -1.4311 C   0  0  0  0  0  0  0  0  0  0  0  0
    3.4772    1.2341   -2.7990 C   0  0  0  0  0  0  0  0  0  0  0  0
    4.6165    1.7297   -3.6518 C   0  0  0  0  0  0  0  0  0  0  0  0
    4.6558    0.3372   -3.0843 C   0  0  0  0  0  0  0  0  0  0  0  0
   -3.5589   -3.3102   -1.3582 H   0  0  0  0  0  0  0  0  0  0  0  0
   -2.5656   -2.4513   -2.5521 H   0  0  0  0  0  0  0  0  0  0  0  0
   -1.9294   -3.9166   -1.7189 H   0  0  0  0  0  0  0  0  0  0  0  0
   -1.7855    1.4250   -1.2153 H   0  0  0  0  0  0  0  0  0  0  0  0
   -4.0597    2.0788   -1.9224 H   0  0  0  0  0  0  0  0  0  0  0  0
   -6.0198    1.4861   -0.5311 H   0  0  0  0  0  0  0  0  0  0  0  0
   -3.4152   -0.4469    2.3111 H   0  0  0  0  0  0  0  0  0  0  0  0
   -0.4570    1.8772    1.9243 H   0  0  0  0  0  0  0  0  0  0  0  0
   -1.1779    0.7436    3.0722 H   0  0  0  0  0  0  0  0  0  0  0  0
    1.4098    1.0510    3.2226 H   0  0  0  0  0  0  0  0  0  0  0  0
   -0.0776   -1.2719    3.7588 H   0  0  0  0  0  0  0  0  0  0  0  0
    1.6770   -1.1931    3.9443 H   0  0  0  0  0  0  0  0  0  0  0  0
    0.3146   -2.8466    2.0258 H   0  0  0  0  0  0  0  0  0  0  0  0
    2.0510   -2.5471    2.1767 H   0  0  0  0  0  0  0  0  0  0  0  0
    1.7119   -1.5746    0.0084 H   0  0  0  0  0  0  0  0  0  0  0  0
    3.0109   -0.1394   -0.6898 H   0  0  0  0  0  0  0  0  0  0  0  0
    4.1963    2.0845   -0.9488 H   0  0  0  0  0  0  0  0  0  0  0  0
    2.6101    2.6757   -1.4792 H   0  0  0  0  0  0  0  0  0  0  0  0
    2.5398    1.0140   -3.2994 H   0  0  0  0  0  0  0  0  0  0  0  0
    4.4414    1.8397   -4.7163 H   0  0  0  0  0  0  0  0  0  0  0  0
    5.2966    2.4658   -3.2380 H   0  0  0  0  0  0  0  0  0  0  0  0
    4.5054   -0.4932   -3.7653 H   0  0  0  0  0  0  0  0  0  0  0  0
    5.3653    0.1366   -2.2896 H   0  0  0  0  0  0  0  0  0  0  0  0
  1  2  1  0
  2  3  1  0
  3  4  2  0
  3  5  1  0
  5  6  2  0
  6  7  1  0
  7  8  2  0
  8  9  1  0
  9 10  2  0
 10 11  1  0
 11 12  1  0
 12 13  3  0
 11 14  2  0
  6 15  1  0
 15 16  1  0
 16 17  1  0
 17 18  1  0
 18 19  1  0
 19 20  1  0
 20 21  1  0
 21 22  2  0
 21 23  1  0
 23 24  1  0
 24 25  1  0
 25 26  1  0
 26 27  1  0
 19  5  1  0
 27 25  1  0
 14  7  1  0
 20 16  1  0
  1 28  1  0
  1 29  1  0
  1 30  1  0
  8 31  1  0
  9 32  1  0
 10 33  1  0
 14 34  1  0
 15 35  1  0
 15 36  1  0
 16 37  1  0
 17 38  1  0
 17 39  1  0
 18 40  1  0
 18 41  1  0
 19 42  1  0
 23 43  1  0
 24 44  1  0
 24 45  1  0
 25 46  1  0
 26 47  1  0
 26 48  1  0
 27 49  1  0
 27 50  1  0
M  END
$$$$
