
     RDKit          3D

 41 41  0  0  0  0  0  0  0  0999 V2000
    3.0250   -2.4518    2.4479 C   0  0  0  0  0  0  0  0  0  0  0  0
    2.5657   -1.7698    1.1683 C   0  0  0  0  0  0  0  0  0  0  0  0
    2.6136   -0.2469    1.3003 C   0  0  0  0  0  0  0  0  0  0  0  0
    2.2651    0.4884    0.0026 C   0  0  0  0  0  0  0  0  0  0  0  0
    0.8715    0.1998   -0.5728 C   0  0  0  0  0  0  0  0  0  0  0  0
   -0.3242    0.4574    0.3844 C   0  0  0  0  0  0  0  0  0  0  0  0
   -0.3503    1.8950    0.9137 C   0  0  0  0  0  0  0  0  0  0  0  0
   -0.6310    2.8811   -0.2053 C   0  0  0  0  0  0  0  0  0  0  0  0
    0.0074    4.0107   -0.1727 N   0  0  0  0  0  0  0  0  0  0  0  0
   -0.3412    4.8441   -1.2415 O   0  0  0  0  0  0  0  0  0  0  0  0
   -1.6547    2.4777   -1.2148 C   0  0  0  0  0  0  0  0  0  0  0  0
   -2.1691    1.2334   -1.2271 C   0  0  0  0  0  0  0  0  0  0  0  0
   -3.3129    0.9106   -2.1527 C   0  0  0  0  0  0  0  0  0  0  0  0
   -1.7023    0.1429   -0.2665 C   0  0  0  0  0  0  0  0  0  0  0  0
   -1.6786   -1.2758   -0.8583 C   0  0  0  0  0  0  0  0  0  0  0  0
   -1.5744   -1.5616   -2.0429 O   0  0  0  0  0  0  0  0  0  0  0  0
   -1.7567   -2.1909    0.1544 O   0  0  0  0  0  0  0  0  0  0  0  0
   -1.7005   -3.5488   -0.2844 C   0  0  0  0  0  0  0  0  0  0  0  0
    2.9809   -3.5396    2.3344 H   0  0  0  0  0  0  0  0  0  0  0  0
    4.0567   -2.1774    2.6905 H   0  0  0  0  0  0  0  0  0  0  0  0
    2.3866   -2.1719    3.2921 H   0  0  0  0  0  0  0  0  0  0  0  0
    1.5468   -2.1020    0.9421 H   0  0  0  0  0  0  0  0  0  0  0  0
    3.2061   -2.0922    0.3392 H   0  0  0  0  0  0  0  0  0  0  0  0
    3.6259    0.0546    1.5982 H   0  0  0  0  0  0  0  0  0  0  0  0
    1.9481    0.0772    2.1085 H   0  0  0  0  0  0  0  0  0  0  0  0
    3.0088    0.2239   -0.7602 H   0  0  0  0  0  0  0  0  0  0  0  0
    2.3803    1.5662    0.1651 H   0  0  0  0  0  0  0  0  0  0  0  0
    0.7567    0.7948   -1.4870 H   0  0  0  0  0  0  0  0  0  0  0  0
    0.8584   -0.8453   -0.9021 H   0  0  0  0  0  0  0  0  0  0  0  0
   -0.2087   -0.2140    1.2451 H   0  0  0  0  0  0  0  0  0  0  0  0
    0.5878    2.1563    1.4135 H   0  0  0  0  0  0  0  0  0  0  0  0
   -1.1450    2.0099    1.6619 H   0  0  0  0  0  0  0  0  0  0  0  0
    0.2254    5.6234   -1.0898 H   0  0  0  0  0  0  0  0  0  0  0  0
   -1.9942    3.2463   -1.8999 H   0  0  0  0  0  0  0  0  0  0  0  0
   -3.7522    1.8150   -2.5885 H   0  0  0  0  0  0  0  0  0  0  0  0
   -2.9833    0.2782   -2.9815 H   0  0  0  0  0  0  0  0  0  0  0  0
   -4.1113    0.3960   -1.6079 H   0  0  0  0  0  0  0  0  0  0  0  0
   -2.4649    0.1211    0.5271 H   0  0  0  0  0  0  0  0  0  0  0  0
   -0.7481   -3.7500   -0.7850 H   0  0  0  0  0  0  0  0  0  0  0  0
   -2.5433   -3.7736   -0.9454 H   0  0  0  0  0  0  0  0  0  0  0  0
   -1.7699   -4.1924    0.5969 H   0  0  0  0  0  0  0  0  0  0  0  0
  1  2  1  0
  2  3  1  0
  3  4  1  0
  4  5  1  0
  5  6  1  0
  6  7  1  0
  7  8  1  0
  8  9  2  3
  9 10  1  0
  8 11  1  0
 11 12  2  0
 12 13  1  0
 12 14  1  0
 14 15  1  0
 15 16  2  0
 15 17  1  0
 17 18  1  0
 14  6  1  0
  1 19  1  0
  1 20  1  0
  1 21  1  0
  2 22  1  0
  2 23  1  0
  3 24  1  0
  3 25  1  0
  4 26  1  0
  4 27  1  0
  5 28  1  0
  5 29  1  0
  6 30  1  0
  7 31  1  0
  7 32  1  0
 10 33  1  0
 11 34  1  0
 13 35  1  0
 13 36  1  0
 13 37  1  0
 14 38  1  0
 18 39  1  0
 18 40  1  0
 18 41  1  0
M  END
$$$$
