
     RDKit          3D

 55 58  0  0  0  0  0  0  0  0999 V2000
   -8.6790   -1.8959    2.0426 C   0  0  0  0  0  0  0  0  0  0  0  0
   -7.4983   -2.3965    1.2179 C   0  0  0  0  0  0  0  0  0  0  0  0
   -7.9558   -2.8304   -0.1692 C   0  0  0  0  0  0  0  0  0  0  0  0
   -6.5497   -1.3286    1.0361 O   0  0  0  0  0  0  0  0  0  0  0  0
   -5.6603   -1.1445    2.0444 C   0  0  0  0  0  0  0  0  0  0  0  0
   -5.5993   -1.7971    3.0744 O   0  0  0  0  0  0  0  0  0  0  0  0
   -4.7400   -0.0177    1.7298 C   0  0  0  0  0  0  0  0  0  0  0  0
   -4.8542    0.7434    0.5590 C   0  0  0  0  0  0  0  0  0  0  0  0
   -3.9622    1.7914    0.3110 C   0  0  0  0  0  0  0  0  0  0  0  0
   -2.9501    2.0982    1.2309 C   0  0  0  0  0  0  0  0  0  0  0  0
   -1.9706    3.2091    0.9498 C   0  0  0  0  0  0  0  0  0  0  0  0
   -0.9590    2.7286    0.0565 O   0  0  0  0  0  0  0  0  0  0  0  0
    0.1885    2.3099    0.6417 C   0  0  0  0  0  0  0  0  0  0  0  0
    0.4465    2.3519    1.8337 O   0  0  0  0  0  0  0  0  0  0  0  0
    1.1251    1.7662   -0.3801 C   0  0  0  0  0  0  0  0  0  0  0  0
    0.7975    1.7062   -1.7404 C   0  0  0  0  0  0  0  0  0  0  0  0
    1.7063    1.1766   -2.6562 C   0  0  0  0  0  0  0  0  0  0  0  0
    2.9451    0.7022   -2.2189 C   0  0  0  0  0  0  0  0  0  0  0  0
    3.2957    0.7518   -0.8610 C   0  0  0  0  0  0  0  0  0  0  0  0
    4.5814    0.2590   -0.3820 C   0  0  0  0  0  0  0  0  0  0  0  0
    5.1078    0.2968    0.8250 N   0  0  0  0  0  0  0  0  0  0  0  0
    6.3390   -0.3208    0.7356 N   0  0  0  0  0  0  0  0  0  0  0  0
    6.4803   -0.6970   -0.5197 C   0  0  0  0  0  0  0  0  0  0  0  0
    7.5779   -1.4011   -1.1702 C   0  0  0  0  0  0  0  0  0  0  0  0
    8.6968   -1.7890   -0.4168 C   0  0  0  0  0  0  0  0  0  0  0  0
    9.7611   -2.4699   -1.0134 C   0  0  0  0  0  0  0  0  0  0  0  0
    9.7203   -2.7719   -2.3727 C   0  0  0  0  0  0  0  0  0  0  0  0
    8.6181   -2.3932   -3.1357 C   0  0  0  0  0  0  0  0  0  0  0  0
    7.5533   -1.7122   -2.5386 C   0  0  0  0  0  0  0  0  0  0  0  0
    5.4001   -0.3568   -1.2933 O   0  0  0  0  0  0  0  0  0  0  0  0
    2.3736    1.2906    0.0505 C   0  0  0  0  0  0  0  0  0  0  0  0
   -2.8319    1.3277    2.3950 C   0  0  0  0  0  0  0  0  0  0  0  0
   -3.7227    0.2806    2.6452 C   0  0  0  0  0  0  0  0  0  0  0  0
   -9.4373   -2.6757    2.1624 H   0  0  0  0  0  0  0  0  0  0  0  0
   -8.3546   -1.5762    3.0380 H   0  0  0  0  0  0  0  0  0  0  0  0
   -9.1432   -1.0236    1.5696 H   0  0  0  0  0  0  0  0  0  0  0  0
   -7.0227   -3.2532    1.7109 H   0  0  0  0  0  0  0  0  0  0  0  0
   -8.4090   -1.9938   -0.7123 H   0  0  0  0  0  0  0  0  0  0  0  0
   -8.6819   -3.6474   -0.1120 H   0  0  0  0  0  0  0  0  0  0  0  0
   -7.1005   -3.1651   -0.7650 H   0  0  0  0  0  0  0  0  0  0  0  0
   -5.6305    0.5312   -0.1719 H   0  0  0  0  0  0  0  0  0  0  0  0
   -4.0586    2.3654   -0.6086 H   0  0  0  0  0  0  0  0  0  0  0  0
   -1.5562    3.6284    1.8749 H   0  0  0  0  0  0  0  0  0  0  0  0
   -2.4862    4.0368    0.4489 H   0  0  0  0  0  0  0  0  0  0  0  0
   -0.1635    2.0647   -2.1020 H   0  0  0  0  0  0  0  0  0  0  0  0
    1.4492    1.1307   -3.7119 H   0  0  0  0  0  0  0  0  0  0  0  0
    3.6354    0.2926   -2.9543 H   0  0  0  0  0  0  0  0  0  0  0  0
    8.7450   -1.5626    0.6476 H   0  0  0  0  0  0  0  0  0  0  0  0
   10.6198   -2.7650   -0.4150 H   0  0  0  0  0  0  0  0  0  0  0  0
   10.5479   -3.3027   -2.8369 H   0  0  0  0  0  0  0  0  0  0  0  0
    8.5855   -2.6290   -4.1965 H   0  0  0  0  0  0  0  0  0  0  0  0
    6.7041   -1.4285   -3.1563 H   0  0  0  0  0  0  0  0  0  0  0  0
    2.6278    1.3361    1.1104 H   0  0  0  0  0  0  0  0  0  0  0  0
   -2.0374    1.5334    3.1118 H   0  0  0  0  0  0  0  0  0  0  0  0
   -3.6144   -0.3051    3.5567 H   0  0  0  0  0  0  0  0  0  0  0  0
  1  2  1  0
  2  3  1  0
  2  4  1  0
  4  5  1  0
  5  6  2  0
  5  7  1  0
  7  8  2  0
  8  9  1  0
  9 10  2  0
 10 11  1  0
 11 12  1  0
 12 13  1  0
 13 14  2  0
 13 15  1  0
 15 16  2  0
 16 17  1  0
 17 18  2  0
 18 19  1  0
 19 20  1  0
 20 21  2  0
 21 22  1  0
 22 23  2  0
 23 24  1  0
 24 25  2  0
 25 26  1  0
 26 27  2  0
 27 28  1  0
 28 29  2  0
 23 30  1  0
 19 31  2  0
 10 32  1  0
 32 33  2  0
 33  7  1  0
 31 15  1  0
 30 20  1  0
 29 24  1  0
  1 34  1  0
  1 35  1  0
  1 36  1  0
  2 37  1  0
  3 38  1  0
  3 39  1  0
  3 40  1  0
  8 41  1  0
  9 42  1  0
 11 43  1  0
 11 44  1  0
 16 45  1  0
 17 46  1  0
 18 47  1  0
 25 48  1  0
 26 49  1  0
 27 50  1  0
 28 51  1  0
 29 52  1  0
 31 53  1  0
 32 54  1  0
 33 55  1  0
M  END
$$$$
