
     RDKit          3D

 45 47  0  0  0  0  0  0  0  0999 V2000
    5.9991   -1.5776    1.6218 C   0  0  0  0  0  0  0  0  0  0  0  0
    4.7759   -1.1089    0.9203 C   0  0  0  0  0  0  0  0  0  0  0  0
    4.1854   -1.8552   -0.0690 N   0  0  0  0  0  0  0  0  0  0  0  0
    3.0752   -1.2132   -0.5641 C   0  0  0  0  0  0  0  0  0  0  0  0
    2.1863   -1.5997   -1.5739 C   0  0  0  0  0  0  0  0  0  0  0  0
    1.1295   -0.7331   -1.8747 C   0  0  0  0  0  0  0  0  0  0  0  0
    0.9681    0.4717   -1.1819 C   0  0  0  0  0  0  0  0  0  0  0  0
   -0.1582    1.3998   -1.4766 C   0  0  0  0  0  0  0  0  0  0  0  0
   -0.0406    2.6033   -1.2768 O   0  0  0  0  0  0  0  0  0  0  0  0
   -1.3256    0.8172   -1.9267 N   0  0  0  0  0  0  0  0  0  0  0  0
   -2.5324    1.6022   -2.0918 C   0  0  0  0  0  0  0  0  0  0  0  0
   -3.2405    1.9745   -0.7695 C   0  0  0  0  0  0  0  0  0  0  0  0
   -3.7705    0.9063    0.0947 N   0  0  0  0  0  0  0  0  0  0  0  0
   -2.7504    0.2518    0.9296 C   0  0  0  0  0  0  0  0  0  0  0  0
   -3.3976   -0.7683    1.8818 C   0  0  0  0  0  0  0  0  0  0  0  0
   -4.1472   -1.7525    1.1527 O   0  0  0  0  0  0  0  0  0  0  0  0
   -5.1755   -1.1122    0.3835 C   0  0  0  0  0  0  0  0  0  0  0  0
   -4.5757   -0.1020   -0.6090 C   0  0  0  0  0  0  0  0  0  0  0  0
    1.8839    0.8466   -0.1860 C   0  0  0  0  0  0  0  0  0  0  0  0
    2.9537   -0.0138    0.1341 C   0  0  0  0  0  0  0  0  0  0  0  0
    4.0320    0.0501    1.0742 C   0  0  0  0  0  0  0  0  0  0  0  0
    4.2904    1.1650    2.0258 C   0  0  0  0  0  0  0  0  0  0  0  0
    6.8067   -0.8472    1.5077 H   0  0  0  0  0  0  0  0  0  0  0  0
    5.7980   -1.7069    2.6901 H   0  0  0  0  0  0  0  0  0  0  0  0
    6.3515   -2.5353    1.2252 H   0  0  0  0  0  0  0  0  0  0  0  0
    4.5176   -2.7517   -0.3960 H   0  0  0  0  0  0  0  0  0  0  0  0
    2.3134   -2.5323   -2.1144 H   0  0  0  0  0  0  0  0  0  0  0  0
    0.4517   -1.0067   -2.6789 H   0  0  0  0  0  0  0  0  0  0  0  0
   -1.4333   -0.1843   -1.8469 H   0  0  0  0  0  0  0  0  0  0  0  0
   -3.2013    1.0386   -2.7500 H   0  0  0  0  0  0  0  0  0  0  0  0
   -2.2664    2.5265   -2.6185 H   0  0  0  0  0  0  0  0  0  0  0  0
   -4.0924    2.6133   -1.0373 H   0  0  0  0  0  0  0  0  0  0  0  0
   -2.5830    2.6194   -0.1728 H   0  0  0  0  0  0  0  0  0  0  0  0
   -2.0246   -0.2815    0.3086 H   0  0  0  0  0  0  0  0  0  0  0  0
   -2.2101    0.9956    1.5256 H   0  0  0  0  0  0  0  0  0  0  0  0
   -4.0565   -0.2754    2.6069 H   0  0  0  0  0  0  0  0  0  0  0  0
   -2.6200   -1.2957    2.4436 H   0  0  0  0  0  0  0  0  0  0  0  0
   -5.8887   -0.6294    1.0625 H   0  0  0  0  0  0  0  0  0  0  0  0
   -5.7134   -1.8933   -0.1632 H   0  0  0  0  0  0  0  0  0  0  0  0
   -3.9547   -0.6521   -1.3262 H   0  0  0  0  0  0  0  0  0  0  0  0
   -5.3908    0.3805   -1.1597 H   0  0  0  0  0  0  0  0  0  0  0  0
    1.7666    1.7911    0.3390 H   0  0  0  0  0  0  0  0  0  0  0  0
    3.4064    1.3526    2.6438 H   0  0  0  0  0  0  0  0  0  0  0  0
    4.5319    2.0819    1.4786 H   0  0  0  0  0  0  0  0  0  0  0  0
    5.1261    0.9406    2.6955 H   0  0  0  0  0  0  0  0  0  0  0  0
  1  2  1  0
  2  3  1  0
  3  4  1  0
  4  5  2  0
  5  6  1  0
  6  7  2  0
  7  8  1  0
  8  9  2  0
  8 10  1  0
 10 11  1  0
 11 12  1  0
 12 13  1  0
 13 14  1  0
 14 15  1  0
 15 16  1  0
 16 17  1  0
 17 18  1  0
  7 19  1  0
 19 20  2  0
 20 21  1  0
 21 22  1  0
 21  2  2  0
 20  4  1  0
 18 13  1  0
  1 23  1  0
  1 24  1  0
  1 25  1  0
  3 26  1  0
  5 27  1  0
  6 28  1  0
 10 29  1  0
 11 30  1  0
 11 31  1  0
 12 32  1  0
 12 33  1  0
 14 34  1  0
 14 35  1  0
 15 36  1  0
 15 37  1  0
 17 38  1  0
 17 39  1  0
 18 40  1  0
 18 41  1  0
 19 42  1  0
 22 43  1  0
 22 44  1  0
 22 45  1  0
M  END
$$$$
