
     RDKit          3D

 44 47  0  0  0  0  0  0  0  0999 V2000
    8.3377   -1.5663    0.9002 C   0  0  0  0  0  0  0  0  0  0  0  0
    7.1258   -0.6827    0.6664 C   0  0  0  0  0  0  0  0  0  0  0  0
    6.1501   -1.4554   -0.0456 O   0  0  0  0  0  0  0  0  0  0  0  0
    5.0372   -0.6993   -0.3065 C   0  0  0  0  0  0  0  0  0  0  0  0
    4.0058   -0.7044    0.6359 C   0  0  0  0  0  0  0  0  0  0  0  0
    2.8353    0.0160    0.3908 C   0  0  0  0  0  0  0  0  0  0  0  0
    2.6911    0.7236   -0.8113 C   0  0  0  0  0  0  0  0  0  0  0  0
    1.4633    1.5107   -1.1085 C   0  0  0  0  0  0  0  0  0  0  0  0
    1.5957    2.5768   -1.6953 O   0  0  0  0  0  0  0  0  0  0  0  0
    0.2817    0.9188   -0.7021 N   0  0  0  0  0  0  0  0  0  0  0  0
   -1.0222    1.4468   -0.8166 C   0  0  0  0  0  0  0  0  0  0  0  0
   -1.3073    2.7213   -1.3054 C   0  0  0  0  0  0  0  0  0  0  0  0
   -2.6281    3.1705   -1.3812 C   0  0  0  0  0  0  0  0  0  0  0  0
   -3.6763    2.3491   -0.9658 C   0  0  0  0  0  0  0  0  0  0  0  0
   -3.4167    1.0665   -0.4672 C   0  0  0  0  0  0  0  0  0  0  0  0
   -4.4871    0.1782   -0.0189 C   0  0  0  0  0  0  0  0  0  0  0  0
   -4.3902   -1.0430    0.4824 N   0  0  0  0  0  0  0  0  0  0  0  0
   -5.6944   -1.3887    0.7249 C   0  0  0  0  0  0  0  0  0  0  0  0
   -6.2686   -2.5494    1.2528 C   0  0  0  0  0  0  0  0  0  0  0  0
   -7.6613   -2.5680    1.3683 C   0  0  0  0  0  0  0  0  0  0  0  0
   -8.3960   -1.4561    0.9603 C   0  0  0  0  0  0  0  0  0  0  0  0
   -7.8852   -0.3138    0.4439 N   0  0  0  0  0  0  0  0  0  0  0  0
   -6.5435   -0.3516    0.3569 C   0  0  0  0  0  0  0  0  0  0  0  0
   -5.7666    0.6596   -0.1230 O   0  0  0  0  0  0  0  0  0  0  0  0
   -2.0822    0.6297   -0.3984 C   0  0  0  0  0  0  0  0  0  0  0  0
    3.7254    0.7231   -1.7564 C   0  0  0  0  0  0  0  0  0  0  0  0
    4.8925   -0.0003   -1.5101 C   0  0  0  0  0  0  0  0  0  0  0  0
    6.1279   -0.0124   -2.7142 Cl  0  0  0  0  0  0  0  0  0  0  0  0
    9.1171   -1.0234    1.4427 H   0  0  0  0  0  0  0  0  0  0  0  0
    8.7482   -1.9162   -0.0530 H   0  0  0  0  0  0  0  0  0  0  0  0
    8.0599   -2.4568    1.4752 H   0  0  0  0  0  0  0  0  0  0  0  0
    6.7213   -0.3556    1.6326 H   0  0  0  0  0  0  0  0  0  0  0  0
    7.4234    0.1986    0.0842 H   0  0  0  0  0  0  0  0  0  0  0  0
    4.1182   -1.2660    1.5599 H   0  0  0  0  0  0  0  0  0  0  0  0
    2.0596    0.0360    1.1521 H   0  0  0  0  0  0  0  0  0  0  0  0
    0.3396   -0.0234   -0.3370 H   0  0  0  0  0  0  0  0  0  0  0  0
   -0.5229    3.3957   -1.6352 H   0  0  0  0  0  0  0  0  0  0  0  0
   -2.8367    4.1662   -1.7661 H   0  0  0  0  0  0  0  0  0  0  0  0
   -4.6958    2.7240   -1.0355 H   0  0  0  0  0  0  0  0  0  0  0  0
   -5.6561   -3.3897    1.5568 H   0  0  0  0  0  0  0  0  0  0  0  0
   -8.1687   -3.4389    1.7716 H   0  0  0  0  0  0  0  0  0  0  0  0
   -9.4813   -1.4617    1.0466 H   0  0  0  0  0  0  0  0  0  0  0  0
   -1.8806   -0.3681   -0.0121 H   0  0  0  0  0  0  0  0  0  0  0  0
    3.6107    1.2799   -2.6849 H   0  0  0  0  0  0  0  0  0  0  0  0
  1  2  1  0
  2  3  1  0
  3  4  1  0
  4  5  2  0
  5  6  1  0
  6  7  2  0
  7  8  1  0
  8  9  2  0
  8 10  1  0
 10 11  1  0
 11 12  2  0
 12 13  1  0
 13 14  2  0
 14 15  1  0
 15 16  1  0
 16 17  2  0
 17 18  1  0
 18 19  2  0
 19 20  1  0
 20 21  2  0
 21 22  1  0
 22 23  2  0
 23 24  1  0
 15 25  2  0
  7 26  1  0
 26 27  2  0
 27 28  1  0
 27  4  1  0
 25 11  1  0
 24 16  1  0
 23 18  1  0
  1 29  1  0
  1 30  1  0
  1 31  1  0
  2 32  1  0
  2 33  1  0
  5 34  1  0
  6 35  1  0
 10 36  1  0
 12 37  1  0
 13 38  1  0
 14 39  1  0
 19 40  1  0
 20 41  1  0
 21 42  1  0
 25 43  1  0
 26 44  1  0
M  END
$$$$
