
     RDKit          3D

 48 50  0  0  0  0  0  0  0  0999 V2000
    7.9493    1.0687    0.1153 C   0  0  0  0  0  0  0  0  0  0  0  0
    7.1179    0.4516    1.2285 C   0  0  0  0  0  0  0  0  0  0  0  0
    5.9139   -0.3051    0.6738 C   0  0  0  0  0  0  0  0  0  0  0  0
    5.0813   -0.9304    1.7917 C   0  0  0  0  0  0  0  0  0  0  0  0
    3.9870   -1.6710    1.2519 O   0  0  0  0  0  0  0  0  0  0  0  0
    2.8061   -1.0275    1.0159 C   0  0  0  0  0  0  0  0  0  0  0  0
    2.5609    0.3351    1.1525 C   0  0  0  0  0  0  0  0  0  0  0  0
    1.2898    0.8547    0.8673 C   0  0  0  0  0  0  0  0  0  0  0  0
    0.2424    0.0335    0.4201 C   0  0  0  0  0  0  0  0  0  0  0  0
   -1.0245    0.6092    0.1963 N   0  0  0  0  0  0  0  0  0  0  0  0
   -2.0556    0.1092   -0.5553 C   0  0  0  0  0  0  0  0  0  0  0  0
   -2.0360   -0.9469   -1.2938 N   0  0  0  0  0  0  0  0  0  0  0  0
   -3.1382   -1.2324   -2.0326 C   0  0  0  0  0  0  0  0  0  0  0  0
   -2.9910   -2.1888   -2.9816 N   0  0  0  0  0  0  0  0  0  0  0  0
   -4.2979   -0.6967   -1.8775 N   0  0  0  0  0  0  0  0  0  0  0  0
   -4.3999    0.3004   -0.8285 C   0  0  0  0  0  0  0  0  0  0  0  0
   -5.3844    1.3860   -1.2735 C   0  0  0  0  0  0  0  0  0  0  0  0
   -6.7706    0.7785   -1.0654 C   0  0  0  0  0  0  0  0  0  0  0  0
   -6.6022   -0.3250   -0.0226 C   0  0  0  0  0  0  0  0  0  0  0  0
   -5.1285   -0.3105    0.3762 C   0  0  0  0  0  0  0  0  0  0  0  0
   -3.1543    0.9004   -0.4342 N   0  0  0  0  0  0  0  0  0  0  0  0
    0.4996   -1.3346    0.3089 C   0  0  0  0  0  0  0  0  0  0  0  0
    1.7676   -1.8564    0.5929 C   0  0  0  0  0  0  0  0  0  0  0  0
    8.3299    0.2985   -0.5632 H   0  0  0  0  0  0  0  0  0  0  0  0
    7.3563    1.7794   -0.4693 H   0  0  0  0  0  0  0  0  0  0  0  0
    8.8059    1.6053    0.5348 H   0  0  0  0  0  0  0  0  0  0  0  0
    7.7483   -0.2282    1.8134 H   0  0  0  0  0  0  0  0  0  0  0  0
    6.7791    1.2441    1.9058 H   0  0  0  0  0  0  0  0  0  0  0  0
    5.2937    0.3690    0.0719 H   0  0  0  0  0  0  0  0  0  0  0  0
    6.2454   -1.0949   -0.0120 H   0  0  0  0  0  0  0  0  0  0  0  0
    4.7592   -0.2002    2.5429 H   0  0  0  0  0  0  0  0  0  0  0  0
    5.7037   -1.6549    2.3305 H   0  0  0  0  0  0  0  0  0  0  0  0
    3.3306    1.0284    1.4722 H   0  0  0  0  0  0  0  0  0  0  0  0
    1.1323    1.9233    0.9926 H   0  0  0  0  0  0  0  0  0  0  0  0
   -1.0075    1.6191    0.2183 H   0  0  0  0  0  0  0  0  0  0  0  0
   -2.2313   -2.8202   -2.7695 H   0  0  0  0  0  0  0  0  0  0  0  0
   -3.8668   -2.6357   -3.2124 H   0  0  0  0  0  0  0  0  0  0  0  0
   -5.2342    1.6987   -2.3128 H   0  0  0  0  0  0  0  0  0  0  0  0
   -5.2888    2.2824   -0.6464 H   0  0  0  0  0  0  0  0  0  0  0  0
   -7.1473    0.3519   -2.0022 H   0  0  0  0  0  0  0  0  0  0  0  0
   -7.4898    1.5373   -0.7405 H   0  0  0  0  0  0  0  0  0  0  0  0
   -6.8697   -1.2939   -0.4601 H   0  0  0  0  0  0  0  0  0  0  0  0
   -7.2513   -0.1684    0.8448 H   0  0  0  0  0  0  0  0  0  0  0  0
   -4.7709   -1.3145    0.6302 H   0  0  0  0  0  0  0  0  0  0  0  0
   -5.0058    0.3154    1.2698 H   0  0  0  0  0  0  0  0  0  0  0  0
   -3.2114    1.4043    0.4404 H   0  0  0  0  0  0  0  0  0  0  0  0
   -0.2819   -2.0256    0.0073 H   0  0  0  0  0  0  0  0  0  0  0  0
    1.9396   -2.9248    0.4872 H   0  0  0  0  0  0  0  0  0  0  0  0
  1  2  1  0
  2  3  1  0
  3  4  1  0
  4  5  1  0
  5  6  1  0
  6  7  2  0
  7  8  1  0
  8  9  2  0
  9 10  1  0
 10 11  1  0
 11 12  2  0
 12 13  1  0
 13 14  1  0
 13 15  2  0
 15 16  1  0
 16 17  1  0
 17 18  1  0
 18 19  1  0
 19 20  1  0
 16 21  1  0
  9 22  1  0
 22 23  2  0
 23  6  1  0
 21 11  1  0
 20 16  1  0
  1 24  1  0
  1 25  1  0
  1 26  1  0
  2 27  1  0
  2 28  1  0
  3 29  1  0
  3 30  1  0
  4 31  1  0
  4 32  1  0
  7 33  1  0
  8 34  1  0
 10 35  1  0
 14 36  1  0
 14 37  1  0
 17 38  1  0
 17 39  1  0
 18 40  1  0
 18 41  1  0
 19 42  1  0
 19 43  1  0
 20 44  1  0
 20 45  1  0
 21 46  1  0
 22 47  1  0
 23 48  1  0
M  END
$$$$
