
     RDKit          3D

 49 52  0  0  0  0  0  0  0  0999 V2000
   -3.0852   -2.9772   -2.9253 N   0  0  0  0  0  0  0  0  0  0  0  0
   -2.1966   -2.3433   -2.5245 C   0  0  0  0  0  0  0  0  0  0  0  0
   -1.0598   -1.5420   -2.0440 C   0  0  0  0  0  0  0  0  0  0  0  0
   -0.1172   -2.4381   -1.2534 C   0  0  0  0  0  0  0  0  0  0  0  0
    0.8933   -2.9241   -1.7646 O   0  0  0  0  0  0  0  0  0  0  0  0
   -0.4750   -2.6962    0.0573 N   0  0  0  0  0  0  0  0  0  0  0  0
    0.4268   -3.3542    0.9740 C   0  0  0  0  0  0  0  0  0  0  0  0
    1.3841   -2.3589    1.5806 C   0  0  0  0  0  0  0  0  0  0  0  0
    2.6929   -2.2418    1.0873 C   0  0  0  0  0  0  0  0  0  0  0  0
    3.5699   -1.2955    1.6193 C   0  0  0  0  0  0  0  0  0  0  0  0
    3.1453   -0.4506    2.6432 C   0  0  0  0  0  0  0  0  0  0  0  0
    1.8441   -0.5507    3.1355 C   0  0  0  0  0  0  0  0  0  0  0  0
    0.9657   -1.4981    2.6060 C   0  0  0  0  0  0  0  0  0  0  0  0
   -1.4851   -0.3381   -1.2275 C   0  0  0  0  0  0  0  0  0  0  0  0
   -2.5446   -0.4983   -0.3771 N   0  0  0  0  0  0  0  0  0  0  0  0
   -2.9257    0.5724    0.3388 C   0  0  0  0  0  0  0  0  0  0  0  0
   -4.0223    0.4788    1.1873 C   0  0  0  0  0  0  0  0  0  0  0  0
   -4.4476    1.5712    1.9450 C   0  0  0  0  0  0  0  0  0  0  0  0
   -3.7626    2.7756    1.8529 C   0  0  0  0  0  0  0  0  0  0  0  0
   -2.6591    2.8759    1.0042 C   0  0  0  0  0  0  0  0  0  0  0  0
   -2.2282    1.7943    0.2443 C   0  0  0  0  0  0  0  0  0  0  0  0
   -1.1549    1.9284   -0.5576 N   0  0  0  0  0  0  0  0  0  0  0  0
   -0.7647    0.8637   -1.2942 C   0  0  0  0  0  0  0  0  0  0  0  0
    0.4013    0.9525   -2.0697 N   0  0  0  0  0  0  0  0  0  0  0  0
    1.6020    0.5914   -1.2776 C   0  0  0  0  0  0  0  0  0  0  0  0
    2.5338    1.7951   -1.3757 C   0  0  0  0  0  0  0  0  0  0  0  0
    2.1472    2.4149   -2.7042 C   0  0  0  0  0  0  0  0  0  0  0  0
    0.6306    2.2733   -2.6869 C   0  0  0  0  0  0  0  0  0  0  0  0
   -0.5150   -1.2031   -2.9338 H   0  0  0  0  0  0  0  0  0  0  0  0
   -1.2623   -2.1903    0.4554 H   0  0  0  0  0  0  0  0  0  0  0  0
    0.9686   -4.1532    0.4559 H   0  0  0  0  0  0  0  0  0  0  0  0
   -0.1769   -3.8226    1.7591 H   0  0  0  0  0  0  0  0  0  0  0  0
    3.0289   -2.8835    0.2735 H   0  0  0  0  0  0  0  0  0  0  0  0
    4.5826   -1.2157    1.2310 H   0  0  0  0  0  0  0  0  0  0  0  0
    3.8269    0.2874    3.0569 H   0  0  0  0  0  0  0  0  0  0  0  0
    1.5124    0.1123    3.9313 H   0  0  0  0  0  0  0  0  0  0  0  0
   -0.0489   -1.5580    2.9952 H   0  0  0  0  0  0  0  0  0  0  0  0
   -4.5610   -0.4638    1.2533 H   0  0  0  0  0  0  0  0  0  0  0  0
   -5.3120    1.4781    2.5988 H   0  0  0  0  0  0  0  0  0  0  0  0
   -4.0830    3.6358    2.4341 H   0  0  0  0  0  0  0  0  0  0  0  0
   -2.1201    3.8178    0.9314 H   0  0  0  0  0  0  0  0  0  0  0  0
    1.3925    0.3506   -0.2293 H   0  0  0  0  0  0  0  0  0  0  0  0
    2.0716   -0.2811   -1.7455 H   0  0  0  0  0  0  0  0  0  0  0  0
    3.5893    1.5099   -1.3279 H   0  0  0  0  0  0  0  0  0  0  0  0
    2.3303    2.4982   -0.5585 H   0  0  0  0  0  0  0  0  0  0  0  0
    2.4704    3.4551   -2.7996 H   0  0  0  0  0  0  0  0  0  0  0  0
    2.5782    1.8389   -3.5317 H   0  0  0  0  0  0  0  0  0  0  0  0
    0.2029    3.1073   -2.1179 H   0  0  0  0  0  0  0  0  0  0  0  0
    0.2161    2.2995   -3.6996 H   0  0  0  0  0  0  0  0  0  0  0  0
  1  2  3  0
  2  3  1  0
  3  4  1  0
  4  5  2  0
  4  6  1  0
  6  7  1  0
  7  8  1  0
  8  9  2  0
  9 10  1  0
 10 11  2  0
 11 12  1  0
 12 13  2  0
  3 14  1  0
 14 15  2  0
 15 16  1  0
 16 17  2  0
 17 18  1  0
 18 19  2  0
 19 20  1  0
 20 21  2  0
 21 22  1  0
 22 23  2  0
 23 24  1  0
 24 25  1  0
 25 26  1  0
 26 27  1  0
 27 28  1  0
 13  8  1  0
 23 14  1  0
 28 24  1  0
 21 16  1  0
  3 29  1  0
  6 30  1  0
  7 31  1  0
  7 32  1  0
  9 33  1  0
 10 34  1  0
 11 35  1  0
 12 36  1  0
 13 37  1  0
 17 38  1  0
 18 39  1  0
 19 40  1  0
 20 41  1  0
 25 42  1  0
 25 43  1  0
 26 44  1  0
 26 45  1  0
 27 46  1  0
 27 47  1  0
 28 48  1  0
 28 49  1  0
M  END
$$$$
