
     RDKit          3D

 40 41  0  0  0  0  0  0  0  0999 V2000
   -0.1110    1.8419   -3.3253 C   0  0  0  0  0  0  0  0  0  0  0  0
   -0.3687    2.4817   -1.9679 C   0  0  0  0  0  0  0  0  0  0  0  0
   -0.7432    1.4744   -0.9002 C   0  0  0  0  0  0  0  0  0  0  0  0
   -2.0810    1.1346   -0.6920 C   0  0  0  0  0  0  0  0  0  0  0  0
   -3.2070    1.7346   -1.4862 C   0  0  0  0  0  0  0  0  0  0  0  0
   -2.4758    0.2540    0.2542 N   0  0  0  0  0  0  0  0  0  0  0  0
   -1.5828   -0.3312    1.0757 C   0  0  0  0  0  0  0  0  0  0  0  0
   -2.0329   -1.2221    2.0737 C   0  0  0  0  0  0  0  0  0  0  0  0
   -3.3963   -1.4357    2.1096 O   0  0  0  0  0  0  0  0  0  0  0  0
   -3.9149   -2.2680    3.1357 C   0  0  0  0  0  0  0  0  0  0  0  0
   -1.1374   -1.8383    2.9548 C   0  0  0  0  0  0  0  0  0  0  0  0
    0.2184   -1.5695    2.8601 C   0  0  0  0  0  0  0  0  0  0  0  0
    0.6768   -0.6944    1.8805 C   0  0  0  0  0  0  0  0  0  0  0  0
   -0.2039   -0.0657    0.9593 C   0  0  0  0  0  0  0  0  0  0  0  0
    0.2085    0.8299   -0.0776 C   0  0  0  0  0  0  0  0  0  0  0  0
    1.9750    1.1689   -0.3313 S   0  0  0  0  0  0  0  0  0  0  0  0
    2.4597   -0.3999   -1.1450 C   0  0  0  0  0  0  0  0  0  0  0  0
    3.9603   -0.4444   -1.3987 C   0  0  0  0  0  0  0  0  0  0  0  0
    4.7403   -0.6712   -0.1337 C   0  0  0  0  0  0  0  0  0  0  0  0
    4.3451   -1.1920    0.8954 O   0  0  0  0  0  0  0  0  0  0  0  0
    6.0227   -0.2742   -0.2519 O   0  0  0  0  0  0  0  0  0  0  0  0
    0.7384    1.1547   -3.2941 H   0  0  0  0  0  0  0  0  0  0  0  0
    0.1132    2.6149   -4.0675 H   0  0  0  0  0  0  0  0  0  0  0  0
   -0.9805    1.2786   -3.6779 H   0  0  0  0  0  0  0  0  0  0  0  0
   -1.1618    3.2313   -2.0721 H   0  0  0  0  0  0  0  0  0  0  0  0
    0.5023    3.0713   -1.6619 H   0  0  0  0  0  0  0  0  0  0  0  0
   -3.0614    1.5708   -2.5573 H   0  0  0  0  0  0  0  0  0  0  0  0
   -4.1628    1.2740   -1.2127 H   0  0  0  0  0  0  0  0  0  0  0  0
   -3.2880    2.8068   -1.2837 H   0  0  0  0  0  0  0  0  0  0  0  0
   -5.0036   -2.2929    3.0278 H   0  0  0  0  0  0  0  0  0  0  0  0
   -3.6895   -1.8624    4.1274 H   0  0  0  0  0  0  0  0  0  0  0  0
   -3.5486   -3.2946    3.0335 H   0  0  0  0  0  0  0  0  0  0  0  0
   -1.4674   -2.5269    3.7244 H   0  0  0  0  0  0  0  0  0  0  0  0
    0.9224   -2.0362    3.5446 H   0  0  0  0  0  0  0  0  0  0  0  0
    1.7481   -0.5035    1.8504 H   0  0  0  0  0  0  0  0  0  0  0  0
    2.1459   -1.2543   -0.5378 H   0  0  0  0  0  0  0  0  0  0  0  0
    1.9314   -0.4636   -2.1011 H   0  0  0  0  0  0  0  0  0  0  0  0
    4.1900   -1.2809   -2.0686 H   0  0  0  0  0  0  0  0  0  0  0  0
    4.2997    0.4783   -1.8831 H   0  0  0  0  0  0  0  0  0  0  0  0
    6.4202   -0.4787    0.6205 H   0  0  0  0  0  0  0  0  0  0  0  0
  1  2  1  0
  2  3  1  0
  3  4  2  0
  4  5  1  0
  4  6  1  0
  6  7  2  0
  7  8  1  0
  8  9  1  0
  9 10  1  0
  8 11  2  0
 11 12  1  0
 12 13  2  0
 13 14  1  0
 14 15  2  0
 15 16  1  0
 16 17  1  0
 17 18  1  0
 18 19  1  0
 19 20  2  0
 19 21  1  0
 15  3  1  0
 14  7  1  0
  1 22  1  0
  1 23  1  0
  1 24  1  0
  2 25  1  0
  2 26  1  0
  5 27  1  0
  5 28  1  0
  5 29  1  0
 10 30  1  0
 10 31  1  0
 10 32  1  0
 11 33  1  0
 12 34  1  0
 13 35  1  0
 17 36  1  0
 17 37  1  0
 18 38  1  0
 18 39  1  0
 21 40  1  0
M  END
$$$$
