
     RDKit          3D

 43 45  0  0  0  0  0  0  0  0999 V2000
   -3.6701    0.0667    3.0346 C   0  0  0  0  0  0  0  0  0  0  0  0
   -4.4310   -0.2000    1.7675 C   0  0  0  0  0  0  0  0  0  0  0  0
   -5.8306   -0.1384    1.7766 C   0  0  0  0  0  0  0  0  0  0  0  0
   -6.5595   -0.3907    0.6143 C   0  0  0  0  0  0  0  0  0  0  0  0
   -5.8995   -0.7180   -0.5698 C   0  0  0  0  0  0  0  0  0  0  0  0
   -4.5009   -0.7868   -0.6093 C   0  0  0  0  0  0  0  0  0  0  0  0
   -3.8129   -1.1474   -1.8949 C   0  0  0  0  0  0  0  0  0  0  0  0
   -3.7776   -0.4778    0.5554 C   0  0  0  0  0  0  0  0  0  0  0  0
   -2.4051   -0.5193    0.5233 O   0  0  0  0  0  0  0  0  0  0  0  0
   -1.8796    0.7710    0.1859 C   0  0  0  0  0  0  0  0  0  0  0  0
   -0.4234    0.6059   -0.0275 C   0  0  0  0  0  0  0  0  0  0  0  0
    0.4015   -0.4507   -0.3227 C   0  0  0  0  0  0  0  0  0  0  0  0
    1.7068    0.1084   -0.4048 C   0  0  0  0  0  0  0  0  0  0  0  0
    2.9326   -0.6316   -0.7491 C   0  0  0  0  0  0  0  0  0  0  0  0
    2.8363   -1.7252   -1.3119 O   0  0  0  0  0  0  0  0  0  0  0  0
    4.1989   -0.1114   -0.4447 N   0  0  0  0  0  0  0  0  0  0  0  0
    4.4532    1.1406    0.2712 C   0  0  0  0  0  0  0  0  0  0  0  0
    5.8225    1.1381    0.9479 C   0  0  0  0  0  0  0  0  0  0  0  0
    6.8782    0.8274    0.0170 N   0  0  0  0  0  0  0  0  0  0  0  0
    6.7446   -0.1941   -0.8860 C   0  0  0  0  0  0  0  0  0  0  0  0
    7.7373   -0.6367   -1.4602 O   0  0  0  0  0  0  0  0  0  0  0  0
    5.3301   -0.7314   -1.1472 C   0  0  0  0  0  0  0  0  0  0  0  0
    1.6489    1.4361   -0.2013 N   0  0  0  0  0  0  0  0  0  0  0  0
    0.3255    1.7373    0.0478 O   0  0  0  0  0  0  0  0  0  0  0  0
   -4.2935   -0.1249    3.9149 H   0  0  0  0  0  0  0  0  0  0  0  0
   -3.3418    1.1100    3.0644 H   0  0  0  0  0  0  0  0  0  0  0  0
   -2.7973   -0.5895    3.1151 H   0  0  0  0  0  0  0  0  0  0  0  0
   -6.3647    0.0988    2.6944 H   0  0  0  0  0  0  0  0  0  0  0  0
   -7.6457   -0.3443    0.6346 H   0  0  0  0  0  0  0  0  0  0  0  0
   -6.4863   -0.9271   -1.4619 H   0  0  0  0  0  0  0  0  0  0  0  0
   -3.4913   -0.2414   -2.4180 H   0  0  0  0  0  0  0  0  0  0  0  0
   -2.9418   -1.7842   -1.7084 H   0  0  0  0  0  0  0  0  0  0  0  0
   -4.4821   -1.7095   -2.5560 H   0  0  0  0  0  0  0  0  0  0  0  0
   -2.0570    1.4763    1.0058 H   0  0  0  0  0  0  0  0  0  0  0  0
   -2.3347    1.1615   -0.7325 H   0  0  0  0  0  0  0  0  0  0  0  0
    0.1157   -1.4831   -0.4662 H   0  0  0  0  0  0  0  0  0  0  0  0
    3.6975    1.2941    1.0451 H   0  0  0  0  0  0  0  0  0  0  0  0
    4.3912    1.9533   -0.4618 H   0  0  0  0  0  0  0  0  0  0  0  0
    5.8545    0.3790    1.7383 H   0  0  0  0  0  0  0  0  0  0  0  0
    6.0388    2.1136    1.3935 H   0  0  0  0  0  0  0  0  0  0  0  0
    7.8374    1.0731    0.2314 H   0  0  0  0  0  0  0  0  0  0  0  0
    5.1403   -0.6287   -2.2227 H   0  0  0  0  0  0  0  0  0  0  0  0
    5.3346   -1.7991   -0.8991 H   0  0  0  0  0  0  0  0  0  0  0  0
  1  2  1  0
  2  3  2  0
  3  4  1  0
  4  5  2  0
  5  6  1  0
  6  7  1  0
  6  8  2  0
  8  9  1  0
  9 10  1  0
 10 11  1  0
 11 12  2  0
 12 13  1  0
 13 14  1  0
 14 15  2  0
 14 16  1  0
 16 17  1  0
 17 18  1  0
 18 19  1  0
 19 20  1  0
 20 21  2  0
 20 22  1  0
 13 23  2  0
 23 24  1  0
  8  2  1  0
 24 11  1  0
 22 16  1  0
  1 25  1  0
  1 26  1  0
  1 27  1  0
  3 28  1  0
  4 29  1  0
  5 30  1  0
  7 31  1  0
  7 32  1  0
  7 33  1  0
 10 34  1  0
 10 35  1  0
 12 36  1  0
 17 37  1  0
 17 38  1  0
 18 39  1  0
 18 40  1  0
 19 41  1  0
 22 42  1  0
 22 43  1  0
M  END
$$$$
