
     RDKit          3D

 54 56  0  0  0  0  0  0  0  0999 V2000
   -4.6701   -2.2397   -2.5497 C   0  0  0  0  0  0  0  0  0  0  0  0
   -4.5706   -1.7215   -1.1366 C   0  0  0  0  0  0  0  0  0  0  0  0
   -5.5727   -2.1708   -0.2552 C   0  0  0  0  0  0  0  0  0  0  0  0
   -5.6563   -1.6870    1.0414 C   0  0  0  0  0  0  0  0  0  0  0  0
   -4.7297   -0.7492    1.4825 C   0  0  0  0  0  0  0  0  0  0  0  0
   -3.6832   -0.2915    0.6489 C   0  0  0  0  0  0  0  0  0  0  0  0
   -2.7202    0.7053    1.3014 C   0  0  0  0  0  0  0  0  0  0  0  0
   -1.2919    0.1734    1.4223 C   0  0  0  0  0  0  0  0  0  0  0  0
   -2.7850    2.1127    0.6941 C   0  0  0  0  0  0  0  0  0  0  0  0
   -3.5838   -0.8126   -0.6729 C   0  0  0  0  0  0  0  0  0  0  0  0
   -2.5422   -0.3402   -1.5079 N   0  0  0  0  0  0  0  0  0  0  0  0
   -1.8188   -1.0662   -2.4415 C   0  0  0  0  0  0  0  0  0  0  0  0
   -1.8673   -2.2747   -2.6254 O   0  0  0  0  0  0  0  0  0  0  0  0
   -0.8704   -0.1942   -3.2522 C   0  0  0  0  0  0  0  0  0  0  0  0
    0.4404   -0.0760   -2.5385 C   0  0  0  0  0  0  0  0  0  0  0  0
    1.4096   -1.0481   -2.3791 C   0  0  0  0  0  0  0  0  0  0  0  0
    2.5296   -0.5701   -1.6409 C   0  0  0  0  0  0  0  0  0  0  0  0
    2.3766    0.7436   -1.2443 C   0  0  0  0  0  0  0  0  0  0  0  0
    3.4194    1.8314   -0.3008 S   0  0  0  0  0  6  0  0  0  0  0  0
    4.0753    2.6647   -1.2856 O   0  0  0  0  0  0  0  0  0  0  0  0
    2.5926    2.3815    0.7555 O   0  0  0  0  0  0  0  0  0  0  0  0
    4.6087    0.8534    0.4382 N   0  0  0  0  0  0  0  0  0  0  0  0
    4.1110   -0.0532    1.5251 C   0  0  0  0  0  0  0  0  0  0  0  0
    4.5255    0.4650    2.9045 C   0  0  0  0  0  0  0  0  0  0  0  0
    5.9501    0.5326    3.0723 O   0  0  0  0  0  0  0  0  0  0  0  0
    6.6524    0.8037    1.8510 C   0  0  0  0  0  0  0  0  0  0  0  0
    5.8276    1.6204    0.8541 C   0  0  0  0  0  0  0  0  0  0  0  0
    0.9047    1.4058   -1.8087 S   0  0  0  0  0  0  0  0  0  0  0  0
   -4.3206   -1.5028   -3.2792 H   0  0  0  0  0  0  0  0  0  0  0  0
   -4.1141   -3.1786   -2.6499 H   0  0  0  0  0  0  0  0  0  0  0  0
   -5.7170   -2.4425   -2.8158 H   0  0  0  0  0  0  0  0  0  0  0  0
   -6.3166   -2.8904   -0.5931 H   0  0  0  0  0  0  0  0  0  0  0  0
   -6.4450   -2.0322    1.7052 H   0  0  0  0  0  0  0  0  0  0  0  0
   -4.8245   -0.3807    2.5051 H   0  0  0  0  0  0  0  0  0  0  0  0
   -3.0510    0.8415    2.3399 H   0  0  0  0  0  0  0  0  0  0  0  0
   -0.6590    0.8890    1.9527 H   0  0  0  0  0  0  0  0  0  0  0  0
   -0.8255   -0.0201    0.4574 H   0  0  0  0  0  0  0  0  0  0  0  0
   -1.2770   -0.7674    1.9880 H   0  0  0  0  0  0  0  0  0  0  0  0
   -3.8233    2.4583    0.6202 H   0  0  0  0  0  0  0  0  0  0  0  0
   -2.2429    2.8250    1.3308 H   0  0  0  0  0  0  0  0  0  0  0  0
   -2.3442    2.1806   -0.3011 H   0  0  0  0  0  0  0  0  0  0  0  0
   -2.0682    0.4947   -1.1992 H   0  0  0  0  0  0  0  0  0  0  0  0
   -0.7254   -0.6636   -4.2315 H   0  0  0  0  0  0  0  0  0  0  0  0
   -1.3344    0.7810   -3.4414 H   0  0  0  0  0  0  0  0  0  0  0  0
    1.3150   -2.0603   -2.7694 H   0  0  0  0  0  0  0  0  0  0  0  0
    3.4062   -1.1600   -1.4053 H   0  0  0  0  0  0  0  0  0  0  0  0
    4.5508   -1.0400    1.3438 H   0  0  0  0  0  0  0  0  0  0  0  0
    3.0248   -0.1736    1.4803 H   0  0  0  0  0  0  0  0  0  0  0  0
    4.1158    1.4655    3.0865 H   0  0  0  0  0  0  0  0  0  0  0  0
    4.1384   -0.1934    3.6875 H   0  0  0  0  0  0  0  0  0  0  0  0
    7.5709    1.3365    2.1122 H   0  0  0  0  0  0  0  0  0  0  0  0
    6.9465   -0.1587    1.4142 H   0  0  0  0  0  0  0  0  0  0  0  0
    6.4304    1.8292   -0.0327 H   0  0  0  0  0  0  0  0  0  0  0  0
    5.5285    2.5645    1.3185 H   0  0  0  0  0  0  0  0  0  0  0  0
  1  2  1  0
  2  3  2  0
  3  4  1  0
  4  5  2  0
  5  6  1  0
  6  7  1  0
  7  8  1  0
  7  9  1  0
  6 10  2  0
 10 11  1  0
 11 12  1  0
 12 13  2  0
 12 14  1  0
 14 15  1  0
 15 16  2  0
 16 17  1  0
 17 18  2  0
 18 19  1  0
 19 20  2  0
 19 21  2  0
 19 22  1  0
 22 23  1  0
 23 24  1  0
 24 25  1  0
 25 26  1  0
 26 27  1  0
 18 28  1  0
 10  2  1  0
 28 15  1  0
 27 22  1  0
  1 29  1  0
  1 30  1  0
  1 31  1  0
  3 32  1  0
  4 33  1  0
  5 34  1  0
  7 35  1  0
  8 36  1  0
  8 37  1  0
  8 38  1  0
  9 39  1  0
  9 40  1  0
  9 41  1  0
 11 42  1  0
 14 43  1  0
 14 44  1  0
 16 45  1  0
 17 46  1  0
 23 47  1  0
 23 48  1  0
 24 49  1  0
 24 50  1  0
 26 51  1  0
 26 52  1  0
 27 53  1  0
 27 54  1  0
M  END
$$$$
