
     RDKit          3D

 60 64  0  0  0  0  0  0  0  0999 V2000
   -5.8435   -3.6750    3.2471 C   0  0  0  0  0  0  0  0  0  0  0  0
   -4.8218   -2.9300    2.4414 C   0  0  0  0  0  0  0  0  0  0  0  0
   -5.0406   -1.6043    2.0590 C   0  0  0  0  0  0  0  0  0  0  0  0
   -4.0695   -0.9009    1.3343 C   0  0  0  0  0  0  0  0  0  0  0  0
   -2.8580   -1.4969    0.9754 C   0  0  0  0  0  0  0  0  0  0  0  0
   -1.8489   -0.8467    0.2592 N   0  0  0  0  0  0  0  0  0  0  0  0
   -1.6396    0.4696   -0.1498 C   0  0  0  0  0  0  0  0  0  0  0  0
   -0.5583    0.6471   -0.8923 N   0  0  0  0  0  0  0  0  0  0  0  0
   -0.3034    1.9104   -1.2119 C   0  0  0  0  0  0  0  0  0  0  0  0
    0.7621    2.1933   -2.0527 O   0  0  0  0  0  0  0  0  0  0  0  0
    1.8263    1.3215   -1.9737 C   0  0  0  0  0  0  0  0  0  0  0  0
    2.3808    0.8674   -3.1568 C   0  0  0  0  0  0  0  0  0  0  0  0
    3.4776    0.0172   -3.0812 C   0  0  0  0  0  0  0  0  0  0  0  0
    3.9653   -0.3140   -1.8308 C   0  0  0  0  0  0  0  0  0  0  0  0
    5.0369   -1.1792   -1.7900 O   0  0  0  0  0  0  0  0  0  0  0  0
    5.4388   -1.5054   -0.4591 C   0  0  0  0  0  0  0  0  0  0  0  0
    6.5311   -2.5450   -0.5445 C   0  0  0  0  0  0  0  0  0  0  0  0
    6.2310   -3.8487   -0.9681 C   0  0  0  0  0  0  0  0  0  0  0  0
    7.2336   -4.8161   -1.0508 C   0  0  0  0  0  0  0  0  0  0  0  0
    8.5458   -4.4894   -0.7139 C   0  0  0  0  0  0  0  0  0  0  0  0
    8.8572   -3.1964   -0.2967 C   0  0  0  0  0  0  0  0  0  0  0  0
    7.8556   -2.2268   -0.2141 C   0  0  0  0  0  0  0  0  0  0  0  0
    3.4254    0.1755   -0.6928 N   0  0  0  0  0  0  0  0  0  0  0  0
    2.3481    1.0142   -0.7638 N   0  0  0  0  0  0  0  0  0  0  0  0
   -1.0666    2.9547   -0.9176 N   0  0  0  0  0  0  0  0  0  0  0  0
   -2.1466    2.6891   -0.1946 C   0  0  0  0  0  0  0  0  0  0  0  0
   -2.9705    3.7468    0.1981 N   0  0  0  0  0  0  0  0  0  0  0  0
   -4.3774    3.3719    0.4114 C   0  0  0  0  0  0  0  0  0  0  0  0
   -5.1702    4.5712    0.9541 C   0  0  0  0  0  0  0  0  0  0  0  0
   -5.0341    5.7248    0.1098 O   0  0  0  0  0  0  0  0  0  0  0  0
   -3.6524    6.1085    0.0303 C   0  0  0  0  0  0  0  0  0  0  0  0
   -2.7932    4.9875   -0.5736 C   0  0  0  0  0  0  0  0  0  0  0  0
   -2.4574    1.4572    0.2011 N   0  0  0  0  0  0  0  0  0  0  0  0
   -2.6429   -2.8237    1.3815 C   0  0  0  0  0  0  0  0  0  0  0  0
   -3.6064   -3.5314    2.1086 C   0  0  0  0  0  0  0  0  0  0  0  0
   -6.8428   -3.2511    3.1058 H   0  0  0  0  0  0  0  0  0  0  0  0
   -5.8894   -4.7251    2.9398 H   0  0  0  0  0  0  0  0  0  0  0  0
   -5.5899   -3.6253    4.3106 H   0  0  0  0  0  0  0  0  0  0  0  0
   -5.9728   -1.1030    2.3155 H   0  0  0  0  0  0  0  0  0  0  0  0
   -4.2909    0.1222    1.0502 H   0  0  0  0  0  0  0  0  0  0  0  0
   -1.0636   -1.4126   -0.0339 H   0  0  0  0  0  0  0  0  0  0  0  0
    1.9643    1.1583   -4.1140 H   0  0  0  0  0  0  0  0  0  0  0  0
    3.9409   -0.3813   -3.9769 H   0  0  0  0  0  0  0  0  0  0  0  0
    5.8110   -0.6098    0.0534 H   0  0  0  0  0  0  0  0  0  0  0  0
    4.6047   -1.9270    0.1169 H   0  0  0  0  0  0  0  0  0  0  0  0
    5.2109   -4.1127   -1.2388 H   0  0  0  0  0  0  0  0  0  0  0  0
    6.9912   -5.8235   -1.3801 H   0  0  0  0  0  0  0  0  0  0  0  0
    9.3264   -5.2427   -0.7785 H   0  0  0  0  0  0  0  0  0  0  0  0
    9.8813   -2.9418   -0.0370 H   0  0  0  0  0  0  0  0  0  0  0  0
    8.1171   -1.2215    0.1090 H   0  0  0  0  0  0  0  0  0  0  0  0
   -4.8170    3.0530   -0.5424 H   0  0  0  0  0  0  0  0  0  0  0  0
   -4.4738    2.5542    1.1342 H   0  0  0  0  0  0  0  0  0  0  0  0
   -4.8424    4.8309    1.9678 H   0  0  0  0  0  0  0  0  0  0  0  0
   -6.2345    4.3199    1.0031 H   0  0  0  0  0  0  0  0  0  0  0  0
   -3.2989    6.3779    1.0328 H   0  0  0  0  0  0  0  0  0  0  0  0
   -3.5914    7.0045   -0.5957 H   0  0  0  0  0  0  0  0  0  0  0  0
   -3.1014    4.8188   -1.6133 H   0  0  0  0  0  0  0  0  0  0  0  0
   -1.7484    5.3209   -0.5641 H   0  0  0  0  0  0  0  0  0  0  0  0
   -1.7072   -3.3242    1.1412 H   0  0  0  0  0  0  0  0  0  0  0  0
   -3.3975   -4.5546    2.4119 H   0  0  0  0  0  0  0  0  0  0  0  0
  1  2  1  0
  2  3  2  0
  3  4  1  0
  4  5  2  0
  5  6  1  0
  6  7  1  0
  7  8  2  0
  8  9  1  0
  9 10  1  0
 10 11  1  0
 11 12  2  0
 12 13  1  0
 13 14  2  0
 14 15  1  0
 15 16  1  0
 16 17  1  0
 17 18  2  0
 18 19  1  0
 19 20  2  0
 20 21  1  0
 21 22  2  0
 14 23  1  0
 23 24  2  0
  9 25  2  0
 25 26  1  0
 26 27  1  0
 27 28  1  0
 28 29  1  0
 29 30  1  0
 30 31  1  0
 31 32  1  0
 26 33  2  0
  5 34  1  0
 34 35  2  0
 35  2  1  0
 33  7  1  0
 24 11  1  0
 32 27  1  0
 22 17  1  0
  1 36  1  0
  1 37  1  0
  1 38  1  0
  3 39  1  0
  4 40  1  0
  6 41  1  0
 12 42  1  0
 13 43  1  0
 16 44  1  0
 16 45  1  0
 18 46  1  0
 19 47  1  0
 20 48  1  0
 21 49  1  0
 22 50  1  0
 28 51  1  0
 28 52  1  0
 29 53  1  0
 29 54  1  0
 31 55  1  0
 31 56  1  0
 32 57  1  0
 32 58  1  0
 34 59  1  0
 35 60  1  0
M  END
$$$$
