
     RDKit          3D

 55 59  0  0  0  0  0  0  0  0999 V2000
   -2.5186   -1.7292   -1.7377 C   0  0  0  0  0  0  0  0  0  0  0  0
   -2.7508   -0.7526   -0.6177 C   0  0  0  0  0  0  0  0  0  0  0  0
   -4.0077   -0.2066   -0.3613 C   0  0  0  0  0  0  0  0  0  0  0  0
   -5.2097   -0.4901   -1.1605 C   0  0  0  0  0  0  0  0  0  0  0  0
   -6.3268   -1.1085   -0.5724 C   0  0  0  0  0  0  0  0  0  0  0  0
   -7.4751   -1.3841   -1.3186 C   0  0  0  0  0  0  0  0  0  0  0  0
   -7.5274   -1.0356   -2.6666 C   0  0  0  0  0  0  0  0  0  0  0  0
   -6.4353   -0.4064   -3.2580 C   0  0  0  0  0  0  0  0  0  0  0  0
   -6.5014    0.0331   -4.9203 Cl  0  0  0  0  0  0  0  0  0  0  0  0
   -5.2866   -0.1298   -2.5161 C   0  0  0  0  0  0  0  0  0  0  0  0
   -4.2361    0.6511    0.6640 N   0  0  0  0  0  0  0  0  0  0  0  0
   -3.2232    1.0491    1.4459 C   0  0  0  0  0  0  0  0  0  0  0  0
   -3.4998    1.9481    2.4676 C   0  0  0  0  0  0  0  0  0  0  0  0
   -2.5034    2.4332    3.3166 C   0  0  0  0  0  0  0  0  0  0  0  0
   -1.1934    2.0148    3.1425 C   0  0  0  0  0  0  0  0  0  0  0  0
   -0.8928    1.1109    2.1249 C   0  0  0  0  0  0  0  0  0  0  0  0
   -1.9037    0.6061    1.2648 C   0  0  0  0  0  0  0  0  0  0  0  0
   -1.6984   -0.3166    0.2098 C   0  0  0  0  0  0  0  0  0  0  0  0
   -0.3407   -0.8245   -0.0621 C   0  0  0  0  0  0  0  0  0  0  0  0
    0.3015   -0.5841   -1.0707 O   0  0  0  0  0  0  0  0  0  0  0  0
    0.0295   -1.6617    0.9392 O   0  0  0  0  0  0  0  0  0  0  0  0
    1.2968   -2.2757    0.7150 C   0  0  0  0  0  0  0  0  0  0  0  0
    2.4742   -1.2932    0.7715 C   0  0  0  0  0  0  0  0  0  0  0  0
    2.4274   -0.2892    1.4918 O   0  0  0  0  0  0  0  0  0  0  0  0
    3.6834   -1.6647   -0.0741 C   0  0  0  0  0  0  0  0  0  0  0  0
    4.3126   -2.8478    0.5239 C   0  0  0  0  0  0  0  0  0  0  0  0
    4.7237   -3.8136    1.0206 N   0  0  0  0  0  0  0  0  0  0  0  0
    4.6873   -0.5600   -0.2174 C   0  0  0  0  0  0  0  0  0  0  0  0
    5.6343   -0.5083   -1.1368 N   0  0  0  0  0  0  0  0  0  0  0  0
    6.3249    0.6563   -0.9059 C   0  0  0  0  0  0  0  0  0  0  0  0
    7.4262    1.1975   -1.5833 C   0  0  0  0  0  0  0  0  0  0  0  0
    7.9498    2.4197   -1.1431 C   0  0  0  0  0  0  0  0  0  0  0  0
    7.3866    3.0884   -0.0533 C   0  0  0  0  0  0  0  0  0  0  0  0
    6.2859    2.5628    0.6334 C   0  0  0  0  0  0  0  0  0  0  0  0
    5.7871    1.3422    0.1744 C   0  0  0  0  0  0  0  0  0  0  0  0
    4.7487    0.5537    0.5924 N   0  0  0  0  0  0  0  0  0  0  0  0
   -1.7519   -2.4656   -1.4756 H   0  0  0  0  0  0  0  0  0  0  0  0
   -3.4162   -2.3140   -1.9614 H   0  0  0  0  0  0  0  0  0  0  0  0
   -2.2067   -1.1975   -2.6419 H   0  0  0  0  0  0  0  0  0  0  0  0
   -6.3026   -1.3730    0.4840 H   0  0  0  0  0  0  0  0  0  0  0  0
   -8.3281   -1.8637   -0.8455 H   0  0  0  0  0  0  0  0  0  0  0  0
   -8.4220   -1.2483   -3.2455 H   0  0  0  0  0  0  0  0  0  0  0  0
   -4.4511    0.3786   -2.9913 H   0  0  0  0  0  0  0  0  0  0  0  0
   -4.5247    2.2880    2.6030 H   0  0  0  0  0  0  0  0  0  0  0  0
   -2.7556    3.1384    4.1043 H   0  0  0  0  0  0  0  0  0  0  0  0
   -0.4060    2.3882    3.7927 H   0  0  0  0  0  0  0  0  0  0  0  0
    0.1446    0.8044    2.0104 H   0  0  0  0  0  0  0  0  0  0  0  0
    1.2822   -2.8059   -0.2447 H   0  0  0  0  0  0  0  0  0  0  0  0
    1.4478   -3.0211    1.5026 H   0  0  0  0  0  0  0  0  0  0  0  0
    3.3153   -1.9008   -1.0803 H   0  0  0  0  0  0  0  0  0  0  0  0
    7.8573    0.6741   -2.4290 H   0  0  0  0  0  0  0  0  0  0  0  0
    8.8046    2.8512   -1.6584 H   0  0  0  0  0  0  0  0  0  0  0  0
    7.8118    4.0374    0.2679 H   0  0  0  0  0  0  0  0  0  0  0  0
    5.8491    3.0824    1.4791 H   0  0  0  0  0  0  0  0  0  0  0  0
    4.1032    0.7625    1.3468 H   0  0  0  0  0  0  0  0  0  0  0  0
  1  2  1  0
  2  3  2  0
  3  4  1  0
  4  5  2  0
  5  6  1  0
  6  7  2  0
  7  8  1  0
  8  9  1  0
  8 10  2  0
  3 11  1  0
 11 12  2  0
 12 13  1  0
 13 14  2  0
 14 15  1  0
 15 16  2  0
 16 17  1  0
 17 18  2  0
 18 19  1  0
 19 20  2  0
 19 21  1  0
 21 22  1  0
 22 23  1  0
 23 24  2  0
 23 25  1  0
 25 26  1  0
 26 27  3  0
 25 28  1  0
 28 29  2  0
 29 30  1  0
 30 31  2  0
 31 32  1  0
 32 33  2  0
 33 34  1  0
 34 35  2  0
 35 36  1  0
 18  2  1  0
 36 28  1  0
 10  4  1  0
 17 12  1  0
 35 30  1  0
  1 37  1  0
  1 38  1  0
  1 39  1  0
  5 40  1  0
  6 41  1  0
  7 42  1  0
 10 43  1  0
 13 44  1  0
 14 45  1  0
 15 46  1  0
 16 47  1  0
 22 48  1  0
 22 49  1  0
 25 50  1  0
 31 51  1  0
 32 52  1  0
 33 53  1  0
 34 54  1  0
 36 55  1  0
M  END
$$$$
