
     RDKit          3D

 39 40  0  0  0  0  0  0  0  0999 V2000
   -5.2640   -1.0022    1.9697 C   0  0  0  0  0  0  0  0  0  0  0  0
   -5.1063    0.0849    1.0689 O   0  0  0  0  0  0  0  0  0  0  0  0
   -3.8556    0.2994    0.5438 C   0  0  0  0  0  0  0  0  0  0  0  0
   -2.7827   -0.5915    0.6763 C   0  0  0  0  0  0  0  0  0  0  0  0
   -1.5452   -0.2975    0.1016 C   0  0  0  0  0  0  0  0  0  0  0  0
   -1.3837    0.8924   -0.6071 C   0  0  0  0  0  0  0  0  0  0  0  0
   -0.0691    1.2196   -1.2216 C   0  0  0  0  0  0  0  0  0  0  0  0
    0.5109    2.3430   -0.9296 N   0  0  0  0  0  0  0  0  0  0  0  0
    0.4806    0.3038   -2.0964 N   0  0  0  0  0  0  0  0  0  0  0  0
    1.8898    0.3943   -2.1511 O   0  0  0  0  0  0  0  0  0  0  0  0
    2.4998   -0.4590   -1.2649 C   0  0  0  0  0  0  0  0  0  0  0  0
    1.9014   -1.3087   -0.6098 O   0  0  0  0  0  0  0  0  0  0  0  0
    3.8608   -0.2133   -1.2845 O   0  0  0  0  0  0  0  0  0  0  0  0
    4.5777   -1.0122   -0.3945 C   0  0  0  0  0  0  0  0  0  0  0  0
    5.3390   -2.0602   -0.9075 C   0  0  0  0  0  0  0  0  0  0  0  0
    6.1010   -2.8379   -0.0364 C   0  0  0  0  0  0  0  0  0  0  0  0
    6.1063   -2.5535    1.3313 C   0  0  0  0  0  0  0  0  0  0  0  0
    5.3552   -1.4869    1.8317 C   0  0  0  0  0  0  0  0  0  0  0  0
    4.5917   -0.7046    0.9659 C   0  0  0  0  0  0  0  0  0  0  0  0
   -2.4440    1.7922   -0.7505 C   0  0  0  0  0  0  0  0  0  0  0  0
   -3.6861    1.4996   -0.1802 C   0  0  0  0  0  0  0  0  0  0  0  0
   -4.7893    2.3143   -0.2643 O   0  0  0  0  0  0  0  0  0  0  0  0
   -4.6679    3.5189   -1.0082 C   0  0  0  0  0  0  0  0  0  0  0  0
   -4.5767   -0.9193    2.8180 H   0  0  0  0  0  0  0  0  0  0  0  0
   -5.1427   -1.9600    1.4533 H   0  0  0  0  0  0  0  0  0  0  0  0
   -6.2839   -0.9644    2.3653 H   0  0  0  0  0  0  0  0  0  0  0  0
   -2.8797   -1.5262    1.2213 H   0  0  0  0  0  0  0  0  0  0  0  0
   -0.7144   -0.9905    0.2319 H   0  0  0  0  0  0  0  0  0  0  0  0
   -0.0384    2.8759   -0.2494 H   0  0  0  0  0  0  0  0  0  0  0  0
    0.1590   -0.6584   -1.9982 H   0  0  0  0  0  0  0  0  0  0  0  0
    5.3429   -2.2703   -1.9706 H   0  0  0  0  0  0  0  0  0  0  0  0
    6.6970   -3.6621   -0.4234 H   0  0  0  0  0  0  0  0  0  0  0  0
    6.7029   -3.1607    2.0072 H   0  0  0  0  0  0  0  0  0  0  0  0
    5.3691   -1.2631    2.8939 H   0  0  0  0  0  0  0  0  0  0  0  0
    4.0159    0.1328    1.3511 H   0  0  0  0  0  0  0  0  0  0  0  0
   -2.2777    2.7007   -1.3206 H   0  0  0  0  0  0  0  0  0  0  0  0
   -3.9173    4.1822   -0.5656 H   0  0  0  0  0  0  0  0  0  0  0  0
   -4.4449    3.3122   -2.0600 H   0  0  0  0  0  0  0  0  0  0  0  0
   -5.6312    4.0363   -0.9661 H   0  0  0  0  0  0  0  0  0  0  0  0
  1  2  1  0
  2  3  1  0
  3  4  2  0
  4  5  1  0
  5  6  2  0
  6  7  1  0
  7  8  2  3
  7  9  1  0
  9 10  1  0
 10 11  1  0
 11 12  2  0
 11 13  1  0
 13 14  1  0
 14 15  2  0
 15 16  1  0
 16 17  2  0
 17 18  1  0
 18 19  2  0
  6 20  1  0
 20 21  2  0
 21 22  1  0
 22 23  1  0
 21  3  1  0
 19 14  1  0
  1 24  1  0
  1 25  1  0
  1 26  1  0
  4 27  1  0
  5 28  1  0
  8 29  1  0
  9 30  1  0
 15 31  1  0
 16 32  1  0
 17 33  1  0
 18 34  1  0
 19 35  1  0
 20 36  1  0
 23 37  1  0
 23 38  1  0
 23 39  1  0
M  END
$$$$
