
     RDKit          3D

 44 46  0  0  0  0  0  0  0  0999 V2000
   -6.8488    1.2756    0.2046 C   0  0  0  0  0  0  0  0  0  0  0  0
   -5.9358    0.0938    0.0574 C   0  0  0  0  0  0  0  0  0  0  0  0
   -6.4635   -1.1903   -0.1047 C   0  0  0  0  0  0  0  0  0  0  0  0
   -5.6152   -2.2845   -0.2772 C   0  0  0  0  0  0  0  0  0  0  0  0
   -4.2241   -2.1125   -0.2934 C   0  0  0  0  0  0  0  0  0  0  0  0
   -3.3294   -3.3054   -0.4950 C   0  0  0  0  0  0  0  0  0  0  0  0
   -3.6856   -0.8208   -0.1471 C   0  0  0  0  0  0  0  0  0  0  0  0
   -2.3178   -0.7434   -0.1958 O   0  0  0  0  0  0  0  0  0  0  0  0
   -1.7205    0.5217    0.0814 C   0  0  0  0  0  0  0  0  0  0  0  0
   -0.2519    0.3249    0.0796 C   0  0  0  0  0  0  0  0  0  0  0  0
    0.5929   -0.7237   -0.1889 C   0  0  0  0  0  0  0  0  0  0  0  0
    1.9023   -0.2057    0.0104 C   0  0  0  0  0  0  0  0  0  0  0  0
    3.1546   -0.9705   -0.1071 C   0  0  0  0  0  0  0  0  0  0  0  0
    3.1058   -2.2029   -0.0734 O   0  0  0  0  0  0  0  0  0  0  0  0
    4.3846   -0.3075   -0.2423 N   0  0  0  0  0  0  0  0  0  0  0  0
    5.5848   -1.1335   -0.2137 C   0  0  0  0  0  0  0  0  0  0  0  0
    4.5295    1.0126   -0.8711 C   0  0  0  0  0  0  0  0  0  0  0  0
    5.4042    1.9225   -0.0543 C   0  0  0  0  0  0  0  0  0  0  0  0
    6.6785    2.1512   -0.3140 N   0  0  0  0  0  0  0  0  0  0  0  0
    7.1964    3.0249    0.6209 C   0  0  0  0  0  0  0  0  0  0  0  0
    6.3126    3.4590    1.5833 C   0  0  0  0  0  0  0  0  0  0  0  0
    4.7752    2.7546    1.3156 S   0  0  0  0  0  0  0  0  0  0  0  0
    1.8323    1.0774    0.4039 N   0  0  0  0  0  0  0  0  0  0  0  0
    0.4930    1.4078    0.4267 O   0  0  0  0  0  0  0  0  0  0  0  0
   -4.5446    0.2725    0.0196 C   0  0  0  0  0  0  0  0  0  0  0  0
   -7.7853    0.9869    0.6937 H   0  0  0  0  0  0  0  0  0  0  0  0
   -6.3861    2.0526    0.8235 H   0  0  0  0  0  0  0  0  0  0  0  0
   -7.0790    1.6961   -0.7797 H   0  0  0  0  0  0  0  0  0  0  0  0
   -7.5398   -1.3488   -0.1002 H   0  0  0  0  0  0  0  0  0  0  0  0
   -6.0481   -3.2753   -0.4017 H   0  0  0  0  0  0  0  0  0  0  0  0
   -2.8390   -3.2453   -1.4725 H   0  0  0  0  0  0  0  0  0  0  0  0
   -2.5691   -3.3526    0.2921 H   0  0  0  0  0  0  0  0  0  0  0  0
   -3.8956   -4.2424   -0.4568 H   0  0  0  0  0  0  0  0  0  0  0  0
   -2.0323    0.8877    1.0673 H   0  0  0  0  0  0  0  0  0  0  0  0
   -1.9861    1.2452   -0.6989 H   0  0  0  0  0  0  0  0  0  0  0  0
    0.3179   -1.7284   -0.4783 H   0  0  0  0  0  0  0  0  0  0  0  0
    5.4317   -2.0351    0.3877 H   0  0  0  0  0  0  0  0  0  0  0  0
    6.4172   -0.5762    0.2235 H   0  0  0  0  0  0  0  0  0  0  0  0
    5.8339   -1.4297   -1.2376 H   0  0  0  0  0  0  0  0  0  0  0  0
    5.0056    0.8441   -1.8460 H   0  0  0  0  0  0  0  0  0  0  0  0
    3.5769    1.4878   -1.1064 H   0  0  0  0  0  0  0  0  0  0  0  0
    8.2376    3.3162    0.5538 H   0  0  0  0  0  0  0  0  0  0  0  0
    6.4906    4.1359    2.4058 H   0  0  0  0  0  0  0  0  0  0  0  0
   -4.1603    1.2834    0.1175 H   0  0  0  0  0  0  0  0  0  0  0  0
  1  2  1  0
  2  3  2  0
  3  4  1  0
  4  5  2  0
  5  6  1  0
  5  7  1  0
  7  8  1  0
  8  9  1  0
  9 10  1  0
 10 11  2  0
 11 12  1  0
 12 13  1  0
 13 14  2  0
 13 15  1  0
 15 16  1  0
 15 17  1  0
 17 18  1  0
 18 19  2  0
 19 20  1  0
 20 21  2  0
 21 22  1  0
 12 23  2  0
 23 24  1  0
  7 25  2  0
 25  2  1  0
 24 10  1  0
 22 18  1  0
  1 26  1  0
  1 27  1  0
  1 28  1  0
  3 29  1  0
  4 30  1  0
  6 31  1  0
  6 32  1  0
  6 33  1  0
  9 34  1  0
  9 35  1  0
 11 36  1  0
 16 37  1  0
 16 38  1  0
 16 39  1  0
 17 40  1  0
 17 41  1  0
 20 42  1  0
 21 43  1  0
 25 44  1  0
M  END
$$$$
