
     RDKit          3D

 59 63  0  0  0  0  0  0  0  0999 V2000
   -6.5570   -0.0913    0.1236 C   0  0  0  0  0  0  0  0  0  0  0  0
   -5.1679    0.3971    0.5087 C   0  0  0  0  0  0  0  0  0  0  0  0
   -4.2559    0.4962   -0.7271 C   0  0  0  0  0  0  0  0  0  0  0  0
   -2.8853    0.9464   -0.3666 N   0  0  0  0  0  0  0  0  0  0  0  0
   -1.9547   -0.1138   -0.4050 C   0  0  0  0  0  0  0  0  0  0  0  0
   -2.3258   -1.3251    0.0705 N   0  0  0  0  0  0  0  0  0  0  0  0
   -1.4165   -2.3193    0.0628 C   0  0  0  0  0  0  0  0  0  0  0  0
   -1.7676   -3.5760    0.5440 C   0  0  0  0  0  0  0  0  0  0  0  0
   -0.8523   -4.6308    0.5610 C   0  0  0  0  0  0  0  0  0  0  0  0
    0.4379   -4.4260    0.0868 C   0  0  0  0  0  0  0  0  0  0  0  0
    0.8011   -3.1685   -0.3989 C   0  0  0  0  0  0  0  0  0  0  0  0
   -0.1045   -2.1127   -0.4183 C   0  0  0  0  0  0  0  0  0  0  0  0
    0.2798   -0.9123   -0.8888 N   0  0  0  0  0  0  0  0  0  0  0  0
   -0.6554    0.0881   -0.8922 C   0  0  0  0  0  0  0  0  0  0  0  0
   -0.2236    1.4332   -1.4347 C   0  0  0  0  0  0  0  0  0  0  0  0
    0.2456    1.3465   -2.8255 C   0  0  0  0  0  0  0  0  0  0  0  0
    0.6009    1.2898   -3.9309 N   0  0  0  0  0  0  0  0  0  0  0  0
    0.8532    2.0425   -0.5471 C   0  0  0  0  0  0  0  0  0  0  0  0
    0.6733    3.1036    0.0523 O   0  0  0  0  0  0  0  0  0  0  0  0
    2.0320    1.3339   -0.4439 N   0  0  0  0  0  0  0  0  0  0  0  0
    3.0723    1.7380    0.4715 C   0  0  0  0  0  0  0  0  0  0  0  0
    4.3217    0.9301    0.2378 C   0  0  0  0  0  0  0  0  0  0  0  0
    5.2047    1.2857   -0.8084 C   0  0  0  0  0  0  0  0  0  0  0  0
    6.3562    0.5353   -1.0663 C   0  0  0  0  0  0  0  0  0  0  0  0
    6.5943   -0.5651   -0.2723 C   0  0  0  0  0  0  0  0  0  0  0  0
    5.7381   -0.9259    0.7406 C   0  0  0  0  0  0  0  0  0  0  0  0
    4.5950   -0.2049    1.0194 C   0  0  0  0  0  0  0  0  0  0  0  0
    6.1522   -2.0436    1.3954 O   0  0  0  0  0  0  0  0  0  0  0  0
    7.3743   -2.3367    0.6854 C   0  0  0  0  0  0  0  0  0  0  0  0
    7.6543   -1.4090   -0.3813 O   0  0  0  0  0  0  0  0  0  0  0  0
   -2.8218    1.5967    0.9724 C   0  0  0  0  0  0  0  0  0  0  0  0
   -4.0945    2.4160    1.2772 C   0  0  0  0  0  0  0  0  0  0  0  0
   -4.1942    3.6791    0.4264 C   0  0  0  0  0  0  0  0  0  0  0  0
   -5.3231    1.6779    1.1419 O   0  0  0  0  0  0  0  0  0  0  0  0
   -7.0291    0.5952   -0.5854 H   0  0  0  0  0  0  0  0  0  0  0  0
   -7.2072   -0.1293    1.0041 H   0  0  0  0  0  0  0  0  0  0  0  0
   -6.5193   -1.0866   -0.3273 H   0  0  0  0  0  0  0  0  0  0  0  0
   -4.7490   -0.2956    1.2473 H   0  0  0  0  0  0  0  0  0  0  0  0
   -4.6617    1.2532   -1.4079 H   0  0  0  0  0  0  0  0  0  0  0  0
   -4.2522   -0.4427   -1.2943 H   0  0  0  0  0  0  0  0  0  0  0  0
   -2.7781   -3.7347    0.9157 H   0  0  0  0  0  0  0  0  0  0  0  0
   -1.1496   -5.6049    0.9432 H   0  0  0  0  0  0  0  0  0  0  0  0
    1.1608   -5.2384    0.0919 H   0  0  0  0  0  0  0  0  0  0  0  0
    1.8115   -3.0098   -0.7724 H   0  0  0  0  0  0  0  0  0  0  0  0
   -1.0596    2.1439   -1.4320 H   0  0  0  0  0  0  0  0  0  0  0  0
    2.0044    0.3516   -0.7170 H   0  0  0  0  0  0  0  0  0  0  0  0
    2.6995    1.5974    1.4931 H   0  0  0  0  0  0  0  0  0  0  0  0
    3.2745    2.8095    0.3476 H   0  0  0  0  0  0  0  0  0  0  0  0
    4.9860    2.1532   -1.4289 H   0  0  0  0  0  0  0  0  0  0  0  0
    7.0361    0.8058   -1.8667 H   0  0  0  0  0  0  0  0  0  0  0  0
    3.9346   -0.5170    1.8224 H   0  0  0  0  0  0  0  0  0  0  0  0
    8.2090   -2.3143    1.3963 H   0  0  0  0  0  0  0  0  0  0  0  0
    7.2999   -3.3452    0.2629 H   0  0  0  0  0  0  0  0  0  0  0  0
   -2.7148    0.8392    1.7607 H   0  0  0  0  0  0  0  0  0  0  0  0
   -1.9414    2.2468    1.0250 H   0  0  0  0  0  0  0  0  0  0  0  0
   -4.0466    2.7333    2.3254 H   0  0  0  0  0  0  0  0  0  0  0  0
   -5.0961    4.2419    0.6879 H   0  0  0  0  0  0  0  0  0  0  0  0
   -3.3248    4.3261    0.5774 H   0  0  0  0  0  0  0  0  0  0  0  0
   -4.2735    3.4461   -0.6392 H   0  0  0  0  0  0  0  0  0  0  0  0
  1  2  1  0
  2  3  1  0
  3  4  1  0
  4  5  1  0
  5  6  2  0
  6  7  1  0
  7  8  2  0
  8  9  1  0
  9 10  2  0
 10 11  1  0
 11 12  2  0
 12 13  1  0
 13 14  2  0
 14 15  1  0
 15 16  1  0
 16 17  3  0
 15 18  1  0
 18 19  2  0
 18 20  1  0
 20 21  1  0
 21 22  1  0
 22 23  2  0
 23 24  1  0
 24 25  2  0
 25 26  1  0
 26 27  2  0
 26 28  1  0
 28 29  1  0
 29 30  1  0
  4 31  1  0
 31 32  1  0
 32 33  1  0
 32 34  1  0
 34  2  1  0
 14  5  1  0
 27 22  1  0
 12  7  1  0
 30 25  1  0
  1 35  1  0
  1 36  1  0
  1 37  1  0
  2 38  1  0
  3 39  1  0
  3 40  1  0
  8 41  1  0
  9 42  1  0
 10 43  1  0
 11 44  1  0
 15 45  1  0
 20 46  1  0
 21 47  1  0
 21 48  1  0
 23 49  1  0
 24 50  1  0
 27 51  1  0
 29 52  1  0
 29 53  1  0
 31 54  1  0
 31 55  1  0
 32 56  1  0
 33 57  1  0
 33 58  1  0
 33 59  1  0
M  END
$$$$
