
     RDKit          3D

 35 36  0  0  0  0  0  0  0  0999 V2000
    2.6805   -2.4659    0.2421 O   0  0  0  0  0  0  0  0  0  0  0  0
    2.5112   -1.2711    0.0302 C   0  0  0  0  0  0  0  0  0  0  0  0
    1.3389   -0.7419   -0.4776 N   0  0  0  0  0  0  0  0  0  0  0  0
    0.2635   -1.6201   -0.9048 C   0  0  0  0  0  0  0  0  0  0  0  0
   -1.0853   -0.9115   -0.8946 C   0  0  0  0  0  0  0  0  0  0  0  0
   -1.5777   -0.6512    0.5277 C   0  0  0  0  0  0  0  0  0  0  0  0
   -2.8627    0.0250    0.5242 N   0  0  0  0  0  0  0  0  0  0  0  0
   -2.9914    1.4583    0.5647 C   0  0  0  0  0  0  0  0  0  0  0  0
   -4.4344    1.6910    0.1615 C   0  0  0  0  0  0  0  0  0  0  0  0
   -5.1590    0.4378    0.6402 C   0  0  0  0  0  0  0  0  0  0  0  0
   -4.0877   -0.6219    0.5668 C   0  0  0  0  0  0  0  0  0  0  0  0
   -4.2786   -1.8260    0.5806 O   0  0  0  0  0  0  0  0  0  0  0  0
    3.6143   -0.3160    0.2854 C   0  0  0  0  0  0  0  0  0  0  0  0
    4.9378   -0.7595    0.2539 C   0  0  0  0  0  0  0  0  0  0  0  0
    5.9701    0.1437    0.4978 C   0  0  0  0  0  0  0  0  0  0  0  0
    5.6396    1.4618    0.7718 C   0  0  0  0  0  0  0  0  0  0  0  0
    4.3697    1.9225    0.8244 N   0  0  0  0  0  0  0  0  0  0  0  0
    3.3855    1.0188    0.5922 C   0  0  0  0  0  0  0  0  0  0  0  0
    1.3938    0.1602   -0.9333 H   0  0  0  0  0  0  0  0  0  0  0  0
    0.5071   -1.9396   -1.9242 H   0  0  0  0  0  0  0  0  0  0  0  0
    0.2385   -2.5162   -0.2748 H   0  0  0  0  0  0  0  0  0  0  0  0
   -1.8188   -1.5358   -1.4197 H   0  0  0  0  0  0  0  0  0  0  0  0
   -1.0218    0.0330   -1.4490 H   0  0  0  0  0  0  0  0  0  0  0  0
   -1.6932   -1.6055    1.0546 H   0  0  0  0  0  0  0  0  0  0  0  0
   -0.8703   -0.0369    1.0953 H   0  0  0  0  0  0  0  0  0  0  0  0
   -2.2887    1.9314   -0.1269 H   0  0  0  0  0  0  0  0  0  0  0  0
   -2.7926    1.7945    1.5874 H   0  0  0  0  0  0  0  0  0  0  0  0
   -4.5068    1.7569   -0.9315 H   0  0  0  0  0  0  0  0  0  0  0  0
   -4.8503    2.6114    0.5805 H   0  0  0  0  0  0  0  0  0  0  0  0
   -5.4902    0.5358    1.6784 H   0  0  0  0  0  0  0  0  0  0  0  0
   -6.0034    0.1885   -0.0066 H   0  0  0  0  0  0  0  0  0  0  0  0
    5.1632   -1.8021    0.0407 H   0  0  0  0  0  0  0  0  0  0  0  0
    7.0066   -0.1749    0.4769 H   0  0  0  0  0  0  0  0  0  0  0  0
    6.4103    2.2027    0.9672 H   0  0  0  0  0  0  0  0  0  0  0  0
    2.3822    1.4229    0.6844 H   0  0  0  0  0  0  0  0  0  0  0  0
  1  2  2  0
  2  3  1  0
  3  4  1  0
  4  5  1  0
  5  6  1  0
  6  7  1  0
  7  8  1  0
  8  9  1  0
  9 10  1  0
 10 11  1  0
 11 12  2  0
  2 13  1  0
 13 14  2  0
 14 15  1  0
 15 16  2  0
 16 17  1  0
 17 18  2  0
 11  7  1  0
 18 13  1  0
  3 19  1  0
  4 20  1  0
  4 21  1  0
  5 22  1  0
  5 23  1  0
  6 24  1  0
  6 25  1  0
  8 26  1  0
  8 27  1  0
  9 28  1  0
  9 29  1  0
 10 30  1  0
 10 31  1  0
 14 32  1  0
 15 33  1  0
 16 34  1  0
 18 35  1  0
M  END
$$$$
