
     RDKit          3D

 66 68  0  0  0  0  0  0  0  0999 V2000
   -0.1382   -3.2257    4.6227 C   0  0  0  0  0  0  0  0  0  0  0  0
    0.1036   -1.9255    3.8801 C   0  0  0  0  0  0  0  0  0  0  0  0
    0.5329   -2.1752    2.4417 C   0  0  0  0  0  0  0  0  0  0  0  0
    0.7992   -0.9257    1.8225 O   0  0  0  0  0  0  0  0  0  0  0  0
    1.0418   -0.9243    0.2072 P   0  0  0  0  0  5  0  0  0  0  0  0
    1.2376   -2.3273   -0.3227 O   0  0  0  0  0  0  0  0  0  0  0  0
    2.3982    0.1936   -0.0418 C   0  0  0  0  0  0  0  0  0  0  0  0
    2.7642    1.1475    0.9082 C   0  0  0  0  0  0  0  0  0  0  0  0
    3.8194    2.0395    0.6597 C   0  0  0  0  0  0  0  0  0  0  0  0
    4.5484    2.0273   -0.5429 C   0  0  0  0  0  0  0  0  0  0  0  0
    5.6041    2.9153   -0.7828 N   0  0  0  0  0  0  0  0  0  0  0  0
    5.7023    4.1325    0.0196 C   0  0  0  0  0  0  0  0  0  0  0  0
    6.1767    2.9935   -2.1250 C   0  0  0  0  0  0  0  0  0  0  0  0
    4.1759    1.0390   -1.4708 C   0  0  0  0  0  0  0  0  0  0  0  0
    3.1243    0.1438   -1.2314 C   0  0  0  0  0  0  0  0  0  0  0  0
   -0.5086   -0.1143   -0.4156 C   0  0  0  0  0  0  0  0  0  0  0  0
   -0.4016    0.0092   -1.8829 N   0  0  0  0  0  0  0  0  0  0  0  0
   -0.4633    1.2477   -2.5166 C   0  0  0  0  0  0  0  0  0  0  0  0
   -0.9331    1.3064   -3.8376 C   0  0  0  0  0  0  0  0  0  0  0  0
   -0.9599    2.5092   -4.5513 C   0  0  0  0  0  0  0  0  0  0  0  0
   -0.4891    3.6769   -3.9617 C   0  0  0  0  0  0  0  0  0  0  0  0
    0.0182    3.6345   -2.6670 C   0  0  0  0  0  0  0  0  0  0  0  0
    0.0391    2.4285   -1.9573 C   0  0  0  0  0  0  0  0  0  0  0  0
   -1.8161   -0.8098   -0.0738 C   0  0  0  0  0  0  0  0  0  0  0  0
   -2.0307   -2.1600   -0.3589 C   0  0  0  0  0  0  0  0  0  0  0  0
   -3.2498   -2.7778   -0.0399 C   0  0  0  0  0  0  0  0  0  0  0  0
   -4.3058   -2.0869    0.5787 C   0  0  0  0  0  0  0  0  0  0  0  0
   -5.5225   -2.7073    0.8824 N   0  0  0  0  0  0  0  0  0  0  0  0
   -6.4976   -2.0104    1.7177 C   0  0  0  0  0  0  0  0  0  0  0  0
   -5.5818   -4.1678    0.9159 C   0  0  0  0  0  0  0  0  0  0  0  0
   -4.0750   -0.7236    0.8308 C   0  0  0  0  0  0  0  0  0  0  0  0
   -2.8618   -0.0941    0.5144 C   0  0  0  0  0  0  0  0  0  0  0  0
   -0.4668   -3.0280    5.6466 H   0  0  0  0  0  0  0  0  0  0  0  0
   -0.9070   -3.8253    4.1264 H   0  0  0  0  0  0  0  0  0  0  0  0
    0.7785   -3.8212    4.6702 H   0  0  0  0  0  0  0  0  0  0  0  0
   -0.8057   -1.3132    3.8887 H   0  0  0  0  0  0  0  0  0  0  0  0
    0.8683   -1.3356    4.3988 H   0  0  0  0  0  0  0  0  0  0  0  0
    1.4439   -2.7813    2.4123 H   0  0  0  0  0  0  0  0  0  0  0  0
   -0.2602   -2.6994    1.9004 H   0  0  0  0  0  0  0  0  0  0  0  0
    2.2347    1.2071    1.8571 H   0  0  0  0  0  0  0  0  0  0  0  0
    4.0568    2.7461    1.4488 H   0  0  0  0  0  0  0  0  0  0  0  0
    4.7977    4.7439   -0.0785 H   0  0  0  0  0  0  0  0  0  0  0  0
    6.5533    4.7477   -0.2958 H   0  0  0  0  0  0  0  0  0  0  0  0
    5.8770    3.8981    1.0750 H   0  0  0  0  0  0  0  0  0  0  0  0
    6.6182    2.0357   -2.4208 H   0  0  0  0  0  0  0  0  0  0  0  0
    5.4242    3.2949   -2.8598 H   0  0  0  0  0  0  0  0  0  0  0  0
    6.9919    3.7246   -2.1694 H   0  0  0  0  0  0  0  0  0  0  0  0
    4.6930    0.9375   -2.4201 H   0  0  0  0  0  0  0  0  0  0  0  0
    2.8643   -0.5938   -1.9894 H   0  0  0  0  0  0  0  0  0  0  0  0
   -0.5092    0.8614    0.0822 H   0  0  0  0  0  0  0  0  0  0  0  0
   -0.9336   -0.7117   -2.3641 H   0  0  0  0  0  0  0  0  0  0  0  0
   -1.2917    0.4055   -4.3302 H   0  0  0  0  0  0  0  0  0  0  0  0
   -1.3400    2.5272   -5.5689 H   0  0  0  0  0  0  0  0  0  0  0  0
   -0.4980    4.6139   -4.5128 H   0  0  0  0  0  0  0  0  0  0  0  0
    0.4177    4.5365   -2.2110 H   0  0  0  0  0  0  0  0  0  0  0  0
    0.4902    2.4392   -0.9703 H   0  0  0  0  0  0  0  0  0  0  0  0
   -1.2561   -2.7586   -0.8380 H   0  0  0  0  0  0  0  0  0  0  0  0
   -3.3479   -3.8282   -0.2994 H   0  0  0  0  0  0  0  0  0  0  0  0
   -6.8129   -1.0668    1.2593 H   0  0  0  0  0  0  0  0  0  0  0  0
   -6.0931   -1.8174    2.7174 H   0  0  0  0  0  0  0  0  0  0  0  0
   -7.4112   -2.6030    1.8393 H   0  0  0  0  0  0  0  0  0  0  0  0
   -5.4298   -4.5919   -0.0824 H   0  0  0  0  0  0  0  0  0  0  0  0
   -6.5629   -4.5178    1.2512 H   0  0  0  0  0  0  0  0  0  0  0  0
   -4.8379   -4.5781    1.6068 H   0  0  0  0  0  0  0  0  0  0  0  0
   -4.8437   -0.1039    1.2836 H   0  0  0  0  0  0  0  0  0  0  0  0
   -2.7529    0.9668    0.7253 H   0  0  0  0  0  0  0  0  0  0  0  0
  1  2  1  0
  2  3  1  0
  3  4  1  0
  4  5  1  0
  5  6  2  0
  5  7  1  0
  7  8  2  0
  8  9  1  0
  9 10  2  0
 10 11  1  0
 11 12  1  0
 11 13  1  0
 10 14  1  0
 14 15  2  0
  5 16  1  0
 16 17  1  0
 17 18  1  0
 18 19  2  0
 19 20  1  0
 20 21  2  0
 21 22  1  0
 22 23  2  0
 16 24  1  0
 24 25  2  0
 25 26  1  0
 26 27  2  0
 27 28  1  0
 28 29  1  0
 28 30  1  0
 27 31  1  0
 31 32  2  0
 15  7  1  0
 23 18  1  0
 32 24  1  0
  1 33  1  0
  1 34  1  0
  1 35  1  0
  2 36  1  0
  2 37  1  0
  3 38  1  0
  3 39  1  0
  8 40  1  0
  9 41  1  0
 12 42  1  0
 12 43  1  0
 12 44  1  0
 13 45  1  0
 13 46  1  0
 13 47  1  0
 14 48  1  0
 15 49  1  0
 16 50  1  0
 17 51  1  0
 19 52  1  0
 20 53  1  0
 21 54  1  0
 22 55  1  0
 23 56  1  0
 25 57  1  0
 26 58  1  0
 29 59  1  0
 29 60  1  0
 29 61  1  0
 30 62  1  0
 30 63  1  0
 30 64  1  0
 31 65  1  0
 32 66  1  0
M  END
$$$$
