
     RDKit          3D

 71 76  0  0  0  0  0  0  0  0999 V2000
   -4.5019   -3.7195    3.5514 C   0  0  0  0  0  0  0  0  0  0  0  0
   -3.5368   -2.8928    2.9138 O   0  0  0  0  0  0  0  0  0  0  0  0
   -3.4360   -2.9861    1.5522 C   0  0  0  0  0  0  0  0  0  0  0  0
   -4.2084   -3.8276    0.7283 C   0  0  0  0  0  0  0  0  0  0  0  0
   -4.0211   -3.8469   -0.6596 C   0  0  0  0  0  0  0  0  0  0  0  0
   -3.0589   -3.0126   -1.1849 C   0  0  0  0  0  0  0  0  0  0  0  0
   -2.2872   -2.1655   -0.3873 C   0  0  0  0  0  0  0  0  0  0  0  0
   -2.4653   -2.1493    0.9875 C   0  0  0  0  0  0  0  0  0  0  0  0
   -1.3476   -1.4002   -1.2675 C   0  0  1  0  0  0  0  0  0  0  0  0
   -1.6756   -1.9478   -2.6856 C   0  0  0  0  0  0  0  0  0  0  0  0
   -1.1544   -1.6686   -3.7549 O   0  0  0  0  0  0  0  0  0  0  0  0
   -2.7061   -2.8794   -2.5214 N   0  0  0  0  0  0  0  0  0  0  0  0
   -1.6117    0.0570   -1.1269 C   0  0  0  0  0  0  0  0  0  0  0  0
   -0.3886    0.7651   -1.1465 C   0  0  0  0  0  0  0  0  0  0  0  0
   -0.6541    2.1021   -1.0369 C   0  0  0  0  0  0  0  0  0  0  0  0
    0.1280    3.1738   -1.0492 O   0  0  0  0  0  0  0  0  0  0  0  0
   -2.0312    2.2137   -0.8988 N   0  0  0  0  0  0  0  0  0  0  0  0
   -2.7525    3.4708   -0.7420 C   0  0  0  0  0  0  0  0  0  0  0  0
   -2.9309    3.8361    0.7119 C   0  0  0  0  0  0  0  0  0  0  0  0
   -1.9577    4.5909    1.3829 C   0  0  0  0  0  0  0  0  0  0  0  0
   -2.1191    4.9201    2.7297 C   0  0  0  0  0  0  0  0  0  0  0  0
   -3.2518    4.4950    3.4212 C   0  0  0  0  0  0  0  0  0  0  0  0
   -4.2219    3.7369    2.7683 C   0  0  0  0  0  0  0  0  0  0  0  0
   -4.0618    3.4070    1.4216 C   0  0  0  0  0  0  0  0  0  0  0  0
   -2.6294    0.9633   -0.9796 C   0  0  0  0  0  0  0  0  0  0  0  0
   -3.9466    0.8215   -0.8971 O   0  0  0  0  0  0  0  0  0  0  0  0
    0.7316   -0.1803   -1.3345 C   0  0  1  0  0  0  0  0  0  0  0  0
    2.0120    0.0194   -0.5311 C   0  0  0  0  0  0  0  0  0  0  0  0
    2.9056   -1.1471   -0.6829 N   0  0  0  0  0  0  0  0  0  0  0  0
    4.2671   -1.0533   -0.4465 C   0  0  0  0  0  0  0  0  0  0  0  0
    5.0017   -2.0258   -0.3324 O   0  0  0  0  0  0  0  0  0  0  0  0
    4.6821    0.2370   -0.3627 O   0  0  0  0  0  0  0  0  0  0  0  0
    6.0743    0.5624   -0.1186 C   0  0  0  0  0  0  0  0  0  0  0  0
    6.9719    0.0667   -1.2576 C   0  0  0  0  0  0  0  0  0  0  0  0
    6.5373    0.0435    1.2468 C   0  0  0  0  0  0  0  0  0  0  0  0
    6.1138    2.0985   -0.0977 C   0  0  0  0  0  0  0  0  0  0  0  0
    2.2809   -2.4755   -0.5636 C   0  0  0  0  0  0  0  0  0  0  0  0
    0.9022   -2.5956   -1.2622 C   0  0  0  0  0  0  0  0  0  0  0  0
    0.0818   -1.4551   -0.8912 N   0  0  0  0  0  0  0  0  0  0  0  0
   -4.2793   -4.7800    3.3936 H   0  0  0  0  0  0  0  0  0  0  0  0
   -5.5150   -3.4733    3.2169 H   0  0  0  0  0  0  0  0  0  0  0  0
   -4.4503   -3.5254    4.6271 H   0  0  0  0  0  0  0  0  0  0  0  0
   -4.9651   -4.4850    1.1454 H   0  0  0  0  0  0  0  0  0  0  0  0
   -4.6147   -4.5012   -1.2885 H   0  0  0  0  0  0  0  0  0  0  0  0
   -1.8648   -1.4961    1.6155 H   0  0  0  0  0  0  0  0  0  0  0  0
   -3.1031   -3.3912   -3.2953 H   0  0  0  0  0  0  0  0  0  0  0  0
    1.0416    2.8732   -1.1917 H   0  0  0  0  0  0  0  0  0  0  0  0
   -3.7219    3.3768   -1.2454 H   0  0  0  0  0  0  0  0  0  0  0  0
   -2.2035    4.2536   -1.2782 H   0  0  0  0  0  0  0  0  0  0  0  0
   -1.0630    4.9188    0.8573 H   0  0  0  0  0  0  0  0  0  0  0  0
   -1.3576    5.5038    3.2398 H   0  0  0  0  0  0  0  0  0  0  0  0
   -3.3754    4.7485    4.4705 H   0  0  0  0  0  0  0  0  0  0  0  0
   -5.1010    3.3964    3.3085 H   0  0  0  0  0  0  0  0  0  0  0  0
   -4.8203    2.8036    0.9267 H   0  0  0  0  0  0  0  0  0  0  0  0
   -4.1351   -0.1323   -0.8423 H   0  0  0  0  0  0  0  0  0  0  0  0
    0.9704   -0.2319   -2.4067 H   0  0  0  0  0  0  0  0  0  0  0  0
    2.5179    0.9320   -0.8634 H   0  0  0  0  0  0  0  0  0  0  0  0
    1.8059    0.1356    0.5407 H   0  0  0  0  0  0  0  0  0  0  0  0
    7.9903    0.4592   -1.1622 H   0  0  0  0  0  0  0  0  0  0  0  0
    6.5703    0.3729   -2.2302 H   0  0  0  0  0  0  0  0  0  0  0  0
    7.0436   -1.0249   -1.2774 H   0  0  0  0  0  0  0  0  0  0  0  0
    7.5284    0.4315    1.5054 H   0  0  0  0  0  0  0  0  0  0  0  0
    5.8323    0.3362    2.0328 H   0  0  0  0  0  0  0  0  0  0  0  0
    6.5974   -1.0486    1.2711 H   0  0  0  0  0  0  0  0  0  0  0  0
    5.4535    2.4946    0.6828 H   0  0  0  0  0  0  0  0  0  0  0  0
    5.7512    2.5107   -1.0467 H   0  0  0  0  0  0  0  0  0  0  0  0
    7.1258    2.4776    0.0801 H   0  0  0  0  0  0  0  0  0  0  0  0
    2.9588   -3.2385   -0.9624 H   0  0  0  0  0  0  0  0  0  0  0  0
    2.1667   -2.6709    0.5106 H   0  0  0  0  0  0  0  0  0  0  0  0
    1.0497   -2.6426   -2.3478 H   0  0  0  0  0  0  0  0  0  0  0  0
    0.4328   -3.5346   -0.9486 H   0  0  0  0  0  0  0  0  0  0  0  0
  1  2  1  0
  2  3  1  0
  3  4  2  0
  4  5  1  0
  5  6  2  0
  6  7  1  0
  7  8  2  0
  7  9  1  0
  9 10  1  0
 10 11  2  0
 10 12  1  0
  9 13  1  0
 13 14  1  0
 14 15  2  0
 15 16  1  0
 15 17  1  0
 17 18  1  0
 18 19  1  0
 19 20  2  0
 20 21  1  0
 21 22  2  0
 22 23  1  0
 23 24  2  0
 17 25  1  0
 25 26  1  0
 14 27  1  0
 27 28  1  0
 28 29  1  0
 29 30  1  0
 30 31  2  0
 30 32  1  0
 32 33  1  0
 33 34  1  0
 33 35  1  0
 33 36  1  0
 29 37  1  0
 37 38  1  0
 38 39  1  0
  8  3  1  0
  9 39  1  1
 12  6  1  0
 25 13  2  0
 39 27  1  0
 24 19  1  0
  1 40  1  0
  1 41  1  0
  1 42  1  0
  4 43  1  0
  5 44  1  0
  8 45  1  0
 12 46  1  0
 16 47  1  0
 18 48  1  0
 18 49  1  0
 20 50  1  0
 21 51  1  0
 22 52  1  0
 23 53  1  0
 24 54  1  0
 26 55  1  0
 27 56  1  6
 28 57  1  0
 28 58  1  0
 34 59  1  0
 34 60  1  0
 34 61  1  0
 35 62  1  0
 35 63  1  0
 35 64  1  0
 36 65  1  0
 36 66  1  0
 36 67  1  0
 37 68  1  0
 37 69  1  0
 38 70  1  0
 38 71  1  0
M  END
$$$$
