
     RDKit          3D

 68 72  0  0  0  0  0  0  0  0999 V2000
    9.3901    1.6101   -2.2896 C   0  0  0  0  0  0  0  0  0  0  0  0
    8.1896    1.4452   -3.0342 O   0  0  0  0  0  0  0  0  0  0  0  0
    7.0259    1.3857   -2.3209 C   0  0  0  0  0  0  0  0  0  0  0  0
    6.9001    1.4804   -0.9402 C   0  0  0  0  0  0  0  0  0  0  0  0
    5.6331    1.4023   -0.3388 C   0  0  0  0  0  0  0  0  0  0  0  0
    4.4564    1.2265   -1.0842 C   0  0  0  0  0  0  0  0  0  0  0  0
    3.2128    1.1483   -0.4823 N   0  0  0  0  0  0  0  0  0  0  0  0
    2.9762    1.6509    0.8783 C   0  0  0  0  0  0  0  0  0  0  0  0
    1.4907    2.0353    1.0747 C   0  0  0  0  0  0  0  0  0  0  0  0
    0.5037    0.9642    0.8121 N   0  0  0  0  0  0  0  0  0  0  0  0
    0.0768    0.3128    2.0623 C   0  0  0  0  0  0  0  0  0  0  0  0
   -1.0407   -0.6727    1.8540 C   0  0  0  0  0  0  0  0  0  0  0  0
   -0.8686   -1.9622    1.5961 N   0  0  0  0  0  0  0  0  0  0  0  0
   -2.1203   -2.4834    1.5413 C   0  0  0  0  0  0  0  0  0  0  0  0
   -3.0765   -1.5418    1.7872 C   0  0  0  0  0  0  0  0  0  0  0  0
   -4.4611   -1.8725    1.8582 C   0  0  0  0  0  0  0  0  0  0  0  0
   -5.3610   -1.1252    2.2248 O   0  0  0  0  0  0  0  0  0  0  0  0
   -4.7069   -3.1850    1.5205 N   0  0  0  0  0  0  0  0  0  0  0  0
   -3.7750   -4.1744    1.2749 C   0  0  0  0  0  0  0  0  0  0  0  0
   -4.1676   -5.3219    1.0613 O   0  0  0  0  0  0  0  0  0  0  0  0
   -2.4360   -3.8028    1.2970 N   0  0  0  0  0  0  0  0  0  0  0  0
   -1.3919   -4.7772    1.0500 C   0  0  0  0  0  0  0  0  0  0  0  0
   -2.3906   -0.3593    1.9051 N   0  0  0  0  0  0  0  0  0  0  0  0
   -2.9815    0.9538    2.0610 C   0  0  0  0  0  0  0  0  0  0  0  0
   -2.7844    1.9374    0.9003 C   0  0  0  0  0  0  0  0  0  0  0  0
   -2.9089    1.3661   -0.5182 C   0  0  0  0  0  0  0  0  0  0  0  0
   -4.1917    0.6415   -0.8410 C   0  0  0  0  0  0  0  0  0  0  0  0
   -4.1393   -0.6035   -1.4875 C   0  0  0  0  0  0  0  0  0  0  0  0
   -5.3105   -1.2904   -1.8099 C   0  0  0  0  0  0  0  0  0  0  0  0
   -6.5490   -0.7355   -1.5002 C   0  0  0  0  0  0  0  0  0  0  0  0
   -6.6157    0.5083   -0.8760 C   0  0  0  0  0  0  0  0  0  0  0  0
   -5.4443    1.1977   -0.5547 C   0  0  0  0  0  0  0  0  0  0  0  0
    1.0536   -0.0323   -0.1437 C   0  0  0  0  0  0  0  0  0  0  0  0
    2.0565    0.5474   -1.1686 C   0  0  0  0  0  0  0  0  0  0  0  0
    4.6157    1.1348   -2.4746 C   0  0  0  0  0  0  0  0  0  0  0  0
    5.8754    1.2133   -3.0843 C   0  0  0  0  0  0  0  0  0  0  0  0
   10.2234    1.6308   -2.9987 H   0  0  0  0  0  0  0  0  0  0  0  0
    9.5525    0.7668   -1.6097 H   0  0  0  0  0  0  0  0  0  0  0  0
    9.3904    2.5616   -1.7473 H   0  0  0  0  0  0  0  0  0  0  0  0
    7.7608    1.6100   -0.2935 H   0  0  0  0  0  0  0  0  0  0  0  0
    5.5934    1.4586    0.7454 H   0  0  0  0  0  0  0  0  0  0  0  0
    3.2656    0.8870    1.6099 H   0  0  0  0  0  0  0  0  0  0  0  0
    3.5728    2.5512    1.0690 H   0  0  0  0  0  0  0  0  0  0  0  0
    1.3541    2.4676    2.0736 H   0  0  0  0  0  0  0  0  0  0  0  0
    1.2602    2.8496    0.3743 H   0  0  0  0  0  0  0  0  0  0  0  0
    0.9207   -0.2017    2.5406 H   0  0  0  0  0  0  0  0  0  0  0  0
   -0.2622    1.0707    2.7787 H   0  0  0  0  0  0  0  0  0  0  0  0
   -5.6694   -3.4797    1.5501 H   0  0  0  0  0  0  0  0  0  0  0  0
   -0.6959   -4.7814    1.8951 H   0  0  0  0  0  0  0  0  0  0  0  0
   -1.8004   -5.7837    0.9302 H   0  0  0  0  0  0  0  0  0  0  0  0
   -0.8581   -4.5025    0.1351 H   0  0  0  0  0  0  0  0  0  0  0  0
   -4.0520    0.8361    2.2421 H   0  0  0  0  0  0  0  0  0  0  0  0
   -2.5737    1.3818    2.9843 H   0  0  0  0  0  0  0  0  0  0  0  0
   -1.7955    2.4011    0.9899 H   0  0  0  0  0  0  0  0  0  0  0  0
   -3.4948    2.7636    1.0315 H   0  0  0  0  0  0  0  0  0  0  0  0
   -2.8036    2.1894   -1.2366 H   0  0  0  0  0  0  0  0  0  0  0  0
   -2.0572    0.7023   -0.7061 H   0  0  0  0  0  0  0  0  0  0  0  0
   -3.1802   -1.0520   -1.7395 H   0  0  0  0  0  0  0  0  0  0  0  0
   -5.2550   -2.2561   -2.3051 H   0  0  0  0  0  0  0  0  0  0  0  0
   -7.4628   -1.2680   -1.7495 H   0  0  0  0  0  0  0  0  0  0  0  0
   -7.5827    0.9437   -0.6378 H   0  0  0  0  0  0  0  0  0  0  0  0
   -5.5250    2.1708   -0.0778 H   0  0  0  0  0  0  0  0  0  0  0  0
    1.5734   -0.8351    0.3977 H   0  0  0  0  0  0  0  0  0  0  0  0
    0.2242   -0.4922   -0.6931 H   0  0  0  0  0  0  0  0  0  0  0  0
    2.3725   -0.2792   -1.8165 H   0  0  0  0  0  0  0  0  0  0  0  0
    1.5646    1.3026   -1.7933 H   0  0  0  0  0  0  0  0  0  0  0  0
    3.7532    1.0219   -3.1249 H   0  0  0  0  0  0  0  0  0  0  0  0
    5.9516    1.1424   -4.1663 H   0  0  0  0  0  0  0  0  0  0  0  0
  1  2  1  0
  2  3  1  0
  3  4  2  0
  4  5  1  0
  5  6  2  0
  6  7  1  0
  7  8  1  0
  8  9  1  0
  9 10  1  0
 10 11  1  0
 11 12  1  0
 12 13  2  0
 13 14  1  0
 14 15  2  0
 15 16  1  0
 16 17  2  0
 16 18  1  0
 18 19  1  0
 19 20  2  0
 19 21  1  0
 21 22  1  0
 15 23  1  0
 23 24  1  0
 24 25  1  0
 25 26  1  0
 26 27  1  0
 27 28  2  0
 28 29  1  0
 29 30  2  0
 30 31  1  0
 31 32  2  0
 10 33  1  0
 33 34  1  0
  6 35  1  0
 35 36  2  0
 36  3  1  0
 34  7  1  0
 23 12  1  0
 32 27  1  0
 21 14  1  0
  1 37  1  0
  1 38  1  0
  1 39  1  0
  4 40  1  0
  5 41  1  0
  8 42  1  0
  8 43  1  0
  9 44  1  0
  9 45  1  0
 11 46  1  0
 11 47  1  0
 18 48  1  0
 22 49  1  0
 22 50  1  0
 22 51  1  0
 24 52  1  0
 24 53  1  0
 25 54  1  0
 25 55  1  0
 26 56  1  0
 26 57  1  0
 28 58  1  0
 29 59  1  0
 30 60  1  0
 31 61  1  0
 32 62  1  0
 33 63  1  0
 33 64  1  0
 34 65  1  0
 34 66  1  0
 35 67  1  0
 36 68  1  0
M  END
$$$$
