
     RDKit          3D

 44 45  0  0  0  0  0  0  0  0999 V2000
    6.5832    2.2891   -1.4532 C   0  0  0  0  0  0  0  0  0  0  0  0
    5.2926    1.6403   -1.8756 C   0  0  0  0  0  0  0  0  0  0  0  0
    4.5068    2.1895   -2.6402 O   0  0  0  0  0  0  0  0  0  0  0  0
    5.0701    0.4033   -1.3187 N   0  0  0  0  0  0  0  0  0  0  0  0
    3.8719   -0.3603   -1.6128 C   0  0  0  0  0  0  0  0  0  0  0  0
    2.6196    0.1861   -0.9252 C   0  0  0  0  0  0  0  0  0  0  0  0
    1.5647   -0.7578   -1.1155 O   0  0  0  0  0  0  0  0  0  0  0  0
    0.3752   -0.3731   -0.5311 C   0  0  0  0  0  0  0  0  0  0  0  0
    0.3051    0.7808    0.1154 N   0  0  0  0  0  0  0  0  0  0  0  0
   -0.8786    1.0665    0.6376 C   0  0  0  0  0  0  0  0  0  0  0  0
   -1.0303    2.2661    1.3432 N   0  0  0  0  0  0  0  0  0  0  0  0
   -0.0503    3.2893    1.0076 C   0  0  0  0  0  0  0  0  0  0  0  0
   -2.4096    2.7093    1.4821 C   0  0  0  0  0  0  0  0  0  0  0  0
   -1.9190    0.2411    0.5433 N   0  0  0  0  0  0  0  0  0  0  0  0
   -1.7560   -0.9053   -0.1141 C   0  0  0  0  0  0  0  0  0  0  0  0
   -2.8542   -1.7639   -0.2459 N   0  0  0  0  0  0  0  0  0  0  0  0
   -2.4909   -3.1604   -0.5401 C   0  0  0  0  0  0  0  0  0  0  0  0
   -3.7589   -4.0013   -0.7526 C   0  0  0  0  0  0  0  0  0  0  0  0
   -4.6524   -3.9025    0.3678 O   0  0  0  0  0  0  0  0  0  0  0  0
   -5.0563   -2.5365    0.5506 C   0  0  0  0  0  0  0  0  0  0  0  0
   -3.8525   -1.6226    0.8267 C   0  0  0  0  0  0  0  0  0  0  0  0
   -0.6075   -1.2457   -0.6789 N   0  0  0  0  0  0  0  0  0  0  0  0
    7.2277    1.5940   -0.9083 H   0  0  0  0  0  0  0  0  0  0  0  0
    6.3592    3.1430   -0.8084 H   0  0  0  0  0  0  0  0  0  0  0  0
    7.1199    2.6286   -2.3434 H   0  0  0  0  0  0  0  0  0  0  0  0
    5.7282    0.0290   -0.6474 H   0  0  0  0  0  0  0  0  0  0  0  0
    3.7205   -0.3807   -2.6985 H   0  0  0  0  0  0  0  0  0  0  0  0
    4.0578   -1.3932   -1.2978 H   0  0  0  0  0  0  0  0  0  0  0  0
    2.3521    1.1568   -1.3606 H   0  0  0  0  0  0  0  0  0  0  0  0
    2.8245    0.3120    0.1460 H   0  0  0  0  0  0  0  0  0  0  0  0
   -0.1216    3.5828   -0.0464 H   0  0  0  0  0  0  0  0  0  0  0  0
    0.9718    2.9560    1.2212 H   0  0  0  0  0  0  0  0  0  0  0  0
   -0.2145    4.1862    1.6156 H   0  0  0  0  0  0  0  0  0  0  0  0
   -2.8683    2.9058    0.5060 H   0  0  0  0  0  0  0  0  0  0  0  0
   -2.4539    3.6370    2.0641 H   0  0  0  0  0  0  0  0  0  0  0  0
   -3.0166    1.9763    2.0259 H   0  0  0  0  0  0  0  0  0  0  0  0
   -1.8812   -3.2345   -1.4484 H   0  0  0  0  0  0  0  0  0  0  0  0
   -1.9230   -3.5764    0.3024 H   0  0  0  0  0  0  0  0  0  0  0  0
   -4.2900   -3.6900   -1.6604 H   0  0  0  0  0  0  0  0  0  0  0  0
   -3.4895   -5.0557   -0.8702 H   0  0  0  0  0  0  0  0  0  0  0  0
   -5.7477   -2.5055    1.3987 H   0  0  0  0  0  0  0  0  0  0  0  0
   -5.6055   -2.2053   -0.3391 H   0  0  0  0  0  0  0  0  0  0  0  0
   -3.4008   -1.9053    1.7866 H   0  0  0  0  0  0  0  0  0  0  0  0
   -4.2221   -0.5929    0.9007 H   0  0  0  0  0  0  0  0  0  0  0  0
  1  2  1  0
  2  3  2  0
  2  4  1  0
  4  5  1  0
  5  6  1  0
  6  7  1  0
  7  8  1  0
  8  9  2  0
  9 10  1  0
 10 11  1  0
 11 12  1  0
 11 13  1  0
 10 14  2  0
 14 15  1  0
 15 16  1  0
 16 17  1  0
 17 18  1  0
 18 19  1  0
 19 20  1  0
 20 21  1  0
 15 22  2  0
 22  8  1  0
 21 16  1  0
  1 23  1  0
  1 24  1  0
  1 25  1  0
  4 26  1  0
  5 27  1  0
  5 28  1  0
  6 29  1  0
  6 30  1  0
 12 31  1  0
 12 32  1  0
 12 33  1  0
 13 34  1  0
 13 35  1  0
 13 36  1  0
 17 37  1  0
 17 38  1  0
 18 39  1  0
 18 40  1  0
 20 41  1  0
 20 42  1  0
 21 43  1  0
 21 44  1  0
M  END
$$$$
