
     RDKit          3D

 56 59  0  0  0  0  0  0  0  0999 V2000
   -4.6494    3.0847   -2.9493 C   0  0  0  0  0  0  0  0  0  0  0  0
   -4.5465    1.5717   -2.9702 C   0  0  0  0  0  0  0  0  0  0  0  0
   -4.1695    1.0847   -1.6748 O   0  0  0  0  0  0  0  0  0  0  0  0
   -2.8319    1.0034   -1.4282 C   0  0  0  0  0  0  0  0  0  0  0  0
   -1.9649    1.3254   -2.2372 O   0  0  0  0  0  0  0  0  0  0  0  0
   -2.5108    0.4704   -0.0987 C   0  0  0  0  0  0  0  0  0  0  0  0
   -1.1965    0.1974    0.2742 C   0  0  0  0  0  0  0  0  0  0  0  0
   -0.0690    0.4126   -0.5075 N   0  0  0  0  0  0  0  0  0  0  0  0
    1.2555    0.1235   -0.1953 C   0  0  0  0  0  0  0  0  0  0  0  0
    1.6696   -0.3968    0.8361 O   0  0  0  0  0  0  0  0  0  0  0  0
    2.1856    0.5515   -1.3407 C   0  0  0  0  0  0  0  0  0  0  0  0
    3.5714    0.1905   -1.0816 N   0  0  0  0  0  0  0  0  0  0  0  0
    3.9949   -1.0231   -1.5776 N   0  0  0  0  0  0  0  0  0  0  0  0
    5.2004   -1.4178   -1.2943 C   0  0  0  0  0  0  0  0  0  0  0  0
    5.6274   -2.7616   -1.8534 C   0  0  0  0  0  0  0  0  0  0  0  0
    6.2636   -2.9042   -2.8774 O   0  0  0  0  0  0  0  0  0  0  0  0
    5.2609   -3.7715   -1.0589 O   0  0  0  0  0  0  0  0  0  0  0  0
    6.1531   -0.6477   -0.4845 C   0  0  0  0  0  0  0  0  0  0  0  0
    7.4493   -1.0949   -0.2004 C   0  0  0  0  0  0  0  0  0  0  0  0
    8.3000   -0.3073    0.5804 C   0  0  0  0  0  0  0  0  0  0  0  0
    7.8618    0.9208    1.0756 C   0  0  0  0  0  0  0  0  0  0  0  0
    6.5717    1.3665    0.7886 C   0  0  0  0  0  0  0  0  0  0  0  0
    5.7183    0.5790    0.0047 C   0  0  0  0  0  0  0  0  0  0  0  0
    4.3546    1.0451   -0.3103 C   0  0  0  0  0  0  0  0  0  0  0  0
    3.9789    2.1432    0.0936 O   0  0  0  0  0  0  0  0  0  0  0  0
   -1.0798   -0.4507    1.8350 S   0  0  0  0  0  0  0  0  0  0  0  0
   -2.7560   -0.3809    2.0692 C   0  0  0  0  0  0  0  0  0  0  0  0
   -3.4251    0.1489    0.9815 C   0  0  0  0  0  0  0  0  0  0  0  0
   -4.9226    0.2998    0.9904 C   0  0  0  0  0  0  0  0  0  0  0  0
   -5.5223    0.1356    2.3970 C   0  0  0  0  0  0  0  0  0  0  0  0
   -4.9052   -1.0308    3.1952 C   0  0  0  0  0  0  0  0  0  0  0  0
   -5.2335   -2.3886    2.5653 C   0  0  0  0  0  0  0  0  0  0  0  0
   -3.3830   -0.8311    3.3557 C   0  0  0  0  0  0  0  0  0  0  0  0
   -3.6892    3.5432   -2.6938 H   0  0  0  0  0  0  0  0  0  0  0  0
   -5.3686    3.4091   -2.1903 H   0  0  0  0  0  0  0  0  0  0  0  0
   -4.9711    3.4652   -3.9232 H   0  0  0  0  0  0  0  0  0  0  0  0
   -3.8533    1.2268   -3.7469 H   0  0  0  0  0  0  0  0  0  0  0  0
   -5.5263    1.1405   -3.2017 H   0  0  0  0  0  0  0  0  0  0  0  0
   -0.2605    0.8315   -1.4168 H   0  0  0  0  0  0  0  0  0  0  0  0
    2.1068    1.6375   -1.4633 H   0  0  0  0  0  0  0  0  0  0  0  0
    1.8637    0.0682   -2.2702 H   0  0  0  0  0  0  0  0  0  0  0  0
    5.5332   -4.5818   -1.5349 H   0  0  0  0  0  0  0  0  0  0  0  0
    7.8201   -2.0456   -0.5742 H   0  0  0  0  0  0  0  0  0  0  0  0
    9.3071   -0.6516    0.8040 H   0  0  0  0  0  0  0  0  0  0  0  0
    8.5234    1.5324    1.6850 H   0  0  0  0  0  0  0  0  0  0  0  0
    6.2307    2.3244    1.1774 H   0  0  0  0  0  0  0  0  0  0  0  0
   -5.3570   -0.4496    0.3173 H   0  0  0  0  0  0  0  0  0  0  0  0
   -5.2059    1.2884    0.6124 H   0  0  0  0  0  0  0  0  0  0  0  0
   -5.3567    1.0644    2.9609 H   0  0  0  0  0  0  0  0  0  0  0  0
   -6.6092    0.0119    2.3181 H   0  0  0  0  0  0  0  0  0  0  0  0
   -5.3509   -1.0297    4.1992 H   0  0  0  0  0  0  0  0  0  0  0  0
   -4.8545   -3.2030    3.1919 H   0  0  0  0  0  0  0  0  0  0  0  0
   -6.3176   -2.5188    2.4722 H   0  0  0  0  0  0  0  0  0  0  0  0
   -4.7933   -2.5047    1.5693 H   0  0  0  0  0  0  0  0  0  0  0  0
   -3.2065   -0.0544    4.1114 H   0  0  0  0  0  0  0  0  0  0  0  0
   -2.9153   -1.7521    3.7223 H   0  0  0  0  0  0  0  0  0  0  0  0
  1  2  1  0
  2  3  1  0
  3  4  1  0
  4  5  2  0
  4  6  1  0
  6  7  2  0
  7  8  1  0
  8  9  1  0
  9 10  2  0
  9 11  1  0
 11 12  1  0
 12 13  1  0
 13 14  2  0
 14 15  1  0
 15 16  2  0
 15 17  1  0
 14 18  1  0
 18 19  2  0
 19 20  1  0
 20 21  2  0
 21 22  1  0
 22 23  2  0
 23 24  1  0
 24 25  2  0
  7 26  1  0
 26 27  1  0
 27 28  2  0
 28 29  1  0
 29 30  1  0
 30 31  1  0
 31 32  1  0
 31 33  1  0
 28  6  1  0
 24 12  1  0
 33 27  1  0
 23 18  1  0
  1 34  1  0
  1 35  1  0
  1 36  1  0
  2 37  1  0
  2 38  1  0
  8 39  1  0
 11 40  1  0
 11 41  1  0
 17 42  1  0
 19 43  1  0
 20 44  1  0
 21 45  1  0
 22 46  1  0
 29 47  1  0
 29 48  1  0
 30 49  1  0
 30 50  1  0
 31 51  1  0
 32 52  1  0
 32 53  1  0
 32 54  1  0
 33 55  1  0
 33 56  1  0
M  END
$$$$
