
     RDKit          3D

 40 41  0  0  0  0  0  0  0  0999 V2000
   -4.1316    1.6426    1.5876 C   0  0  0  0  0  0  0  0  0  0  0  0
   -3.9899    0.6848    0.4039 C   0  0  0  0  0  0  0  0  0  0  0  0
   -3.6555    1.4656   -0.8788 C   0  0  0  0  0  0  0  0  0  0  0  0
   -2.8524    0.6218   -1.8623 C   0  0  0  0  0  0  0  0  0  0  0  0
   -1.5803    0.1996   -1.2752 N   0  0  0  0  0  0  0  0  0  0  0  0
   -0.4348    0.2691   -2.0656 C   0  0  0  0  0  0  0  0  0  0  0  0
   -0.4214    0.6374   -3.2368 O   0  0  0  0  0  0  0  0  0  0  0  0
    0.8613   -0.0953   -1.4622 C   0  0  0  0  0  0  0  0  0  0  0  0
    1.7913    0.9129   -1.1960 C   0  0  0  0  0  0  0  0  0  0  0  0
    3.0343    0.5784   -0.6540 C   0  0  0  0  0  0  0  0  0  0  0  0
    3.3429   -0.7588   -0.3872 C   0  0  0  0  0  0  0  0  0  0  0  0
    4.6096   -1.0690    0.1801 N   0  0  0  0  0  0  0  0  0  0  0  0
    4.6959   -1.7858    1.7008 S   0  0  0  0  0  6  0  0  0  0  0  0
    3.9563   -0.5467    2.7468 C   0  0  0  0  0  0  0  0  0  0  0  0
    6.1047   -1.8412    2.0287 O   0  0  0  0  0  0  0  0  0  0  0  0
    3.8683   -2.9707    1.7373 O   0  0  0  0  0  0  0  0  0  0  0  0
    2.4186   -1.7640   -0.6795 C   0  0  0  0  0  0  0  0  0  0  0  0
    1.1766   -1.4358   -1.2267 C   0  0  0  0  0  0  0  0  0  0  0  0
   -1.5726   -0.0857    0.1629 C   0  0  0  0  0  0  0  0  0  0  0  0
   -2.9626   -0.4224    0.6948 C   0  0  0  0  0  0  0  0  0  0  0  0
   -4.8797    2.4136    1.3752 H   0  0  0  0  0  0  0  0  0  0  0  0
   -3.1829    2.1412    1.8132 H   0  0  0  0  0  0  0  0  0  0  0  0
   -4.4524    1.1047    2.4860 H   0  0  0  0  0  0  0  0  0  0  0  0
   -4.9642    0.1970    0.2660 H   0  0  0  0  0  0  0  0  0  0  0  0
   -3.0762    2.3660   -0.6349 H   0  0  0  0  0  0  0  0  0  0  0  0
   -4.5840    1.8088   -1.3500 H   0  0  0  0  0  0  0  0  0  0  0  0
   -2.6863    1.1888   -2.7840 H   0  0  0  0  0  0  0  0  0  0  0  0
   -3.4046   -0.2860   -2.1325 H   0  0  0  0  0  0  0  0  0  0  0  0
    1.5509    1.9491   -1.4220 H   0  0  0  0  0  0  0  0  0  0  0  0
    3.7523    1.3683   -0.4518 H   0  0  0  0  0  0  0  0  0  0  0  0
    5.3778   -0.4213    0.0068 H   0  0  0  0  0  0  0  0  0  0  0  0
    4.4909    0.3957    2.6134 H   0  0  0  0  0  0  0  0  0  0  0  0
    2.8999   -0.4423    2.4946 H   0  0  0  0  0  0  0  0  0  0  0  0
    4.0544   -0.8826    3.7816 H   0  0  0  0  0  0  0  0  0  0  0  0
    2.6639   -2.8097   -0.5063 H   0  0  0  0  0  0  0  0  0  0  0  0
    0.4663   -2.2205   -1.4748 H   0  0  0  0  0  0  0  0  0  0  0  0
   -1.1711    0.7999    0.6696 H   0  0  0  0  0  0  0  0  0  0  0  0
   -0.8979   -0.9189    0.3739 H   0  0  0  0  0  0  0  0  0  0  0  0
   -3.3025   -1.3463    0.2076 H   0  0  0  0  0  0  0  0  0  0  0  0
   -2.9132   -0.6422    1.7675 H   0  0  0  0  0  0  0  0  0  0  0  0
  1  2  1  0
  2  3  1  0
  3  4  1  0
  4  5  1  0
  5  6  1  0
  6  7  2  0
  6  8  1  0
  8  9  2  0
  9 10  1  0
 10 11  2  0
 11 12  1  0
 12 13  1  0
 13 14  1  0
 13 15  2  0
 13 16  2  0
 11 17  1  0
 17 18  2  0
  5 19  1  0
 19 20  1  0
 20  2  1  0
 18  8  1  0
  1 21  1  0
  1 22  1  0
  1 23  1  0
  2 24  1  0
  3 25  1  0
  3 26  1  0
  4 27  1  0
  4 28  1  0
  9 29  1  0
 10 30  1  0
 12 31  1  0
 14 32  1  0
 14 33  1  0
 14 34  1  0
 17 35  1  0
 18 36  1  0
 19 37  1  0
 19 38  1  0
 20 39  1  0
 20 40  1  0
M  END
$$$$
