
     RDKit          3D

 31 31  0  0  0  0  0  0  0  0999 V2000
    4.5141    1.0014   -0.0521 N   0  0  0  0  0  0  0  0  0  0  0  0
    4.3449    0.0947   -1.0500 C   0  0  0  0  0  0  0  0  0  0  0  0
    5.6403   -0.6216   -1.7931 S   0  0  0  0  0  0  0  0  0  0  0  0
    3.0559   -0.1962   -1.3788 N   0  0  0  0  0  0  0  0  0  0  0  0
    1.9930    0.1714   -0.5364 N   0  0  0  0  0  0  0  0  0  0  0  0
    0.7357   -0.2886   -0.8963 C   0  0  0  0  0  0  0  0  0  0  0  0
    0.5033   -0.8226   -1.9783 O   0  0  0  0  0  0  0  0  0  0  0  0
   -0.3332   -0.0350    0.1646 C   0  0  0  0  0  0  0  0  0  0  0  0
   -0.6472    1.4677    0.2139 C   0  0  0  0  0  0  0  0  0  0  0  0
   -1.7825    1.7845    1.1813 C   0  0  0  0  0  0  0  0  0  0  0  0
   -3.0328    0.9762    0.8588 C   0  0  0  0  0  0  0  0  0  0  0  0
   -2.7376   -0.5190    0.8379 C   0  0  0  0  0  0  0  0  0  0  0  0
   -1.6002   -0.8642   -0.1296 C   0  0  0  0  0  0  0  0  0  0  0  0
   -1.2872   -2.3393   -0.0075 C   0  0  0  0  0  0  0  0  0  0  0  0
   -0.3612   -2.8352    0.6137 O   0  0  0  0  0  0  0  0  0  0  0  0
   -2.1807   -3.1138   -0.6505 O   0  0  0  0  0  0  0  0  0  0  0  0
    3.8251    1.7419   -0.0183 H   0  0  0  0  0  0  0  0  0  0  0  0
    5.4705    1.3081    0.0901 H   0  0  0  0  0  0  0  0  0  0  0  0
    2.8545   -0.9072   -2.0843 H   0  0  0  0  0  0  0  0  0  0  0  0
    2.2280    0.2004    0.4535 H   0  0  0  0  0  0  0  0  0  0  0  0
    0.0816   -0.3392    1.1359 H   0  0  0  0  0  0  0  0  0  0  0  0
   -0.9149    1.8234   -0.7899 H   0  0  0  0  0  0  0  0  0  0  0  0
    0.2443    2.0331    0.5112 H   0  0  0  0  0  0  0  0  0  0  0  0
   -2.0145    2.8547    1.1387 H   0  0  0  0  0  0  0  0  0  0  0  0
   -1.4597    1.5679    2.2070 H   0  0  0  0  0  0  0  0  0  0  0  0
   -3.8104    1.1880    1.6013 H   0  0  0  0  0  0  0  0  0  0  0  0
   -3.4289    1.2851   -0.1164 H   0  0  0  0  0  0  0  0  0  0  0  0
   -3.6475   -1.0641    0.5583 H   0  0  0  0  0  0  0  0  0  0  0  0
   -2.4802   -0.8530    1.8519 H   0  0  0  0  0  0  0  0  0  0  0  0
   -1.9259   -0.6729   -1.1610 H   0  0  0  0  0  0  0  0  0  0  0  0
   -1.8466   -4.0266   -0.5254 H   0  0  0  0  0  0  0  0  0  0  0  0
  1  2  1  0
  2  3  2  0
  2  4  1  0
  4  5  1  0
  5  6  1  0
  6  7  2  0
  6  8  1  0
  8  9  1  0
  9 10  1  0
 10 11  1  0
 11 12  1  0
 12 13  1  0
 13 14  1  0
 14 15  2  0
 14 16  1  0
 13  8  1  0
  1 17  1  0
  1 18  1  0
  4 19  1  0
  5 20  1  0
  8 21  1  0
  9 22  1  0
  9 23  1  0
 10 24  1  0
 10 25  1  0
 11 26  1  0
 11 27  1  0
 12 28  1  0
 12 29  1  0
 13 30  1  0
 16 31  1  0
M  END
$$$$
