
     RDKit          3D

 49 51  0  0  0  0  0  0  0  0999 V2000
   -6.3627   -1.2537    0.1743 C   0  0  0  0  0  0  0  0  0  0  0  0
   -5.1750   -0.3638   -0.0445 C   0  0  0  0  0  0  0  0  0  0  0  0
   -5.3421    0.9236   -0.5644 C   0  0  0  0  0  0  0  0  0  0  0  0
   -4.2341    1.7435   -0.8057 C   0  0  0  0  0  0  0  0  0  0  0  0
   -4.4195    3.1408   -1.3211 C   0  0  0  0  0  0  0  0  0  0  0  0
   -2.9469    1.2686   -0.5087 C   0  0  0  0  0  0  0  0  0  0  0  0
   -2.7580   -0.0199   -0.0071 C   0  0  0  0  0  0  0  0  0  0  0  0
   -1.4974   -0.5704    0.3036 N   0  0  0  0  0  0  0  0  0  0  0  0
   -0.2452    0.0004    0.1008 C   0  0  0  0  0  0  0  0  0  0  0  0
   -0.0260    1.0916   -0.4220 O   0  0  0  0  0  0  0  0  0  0  0  0
    0.9128   -0.9043    0.6090 C   0  0  0  0  0  0  0  0  0  0  0  0
    2.1814   -0.2466    0.5709 O   0  0  0  0  0  0  0  0  0  0  0  0
    2.3611    0.6617    1.5584 C   0  0  0  0  0  0  0  0  0  0  0  0
    1.5942    0.8636    2.4871 O   0  0  0  0  0  0  0  0  0  0  0  0
    3.6496    1.3841    1.3806 C   0  0  0  0  0  0  0  0  0  0  0  0
    3.9825    2.3814    2.3100 C   0  0  0  0  0  0  0  0  0  0  0  0
    5.1824    3.0879    2.1911 C   0  0  0  0  0  0  0  0  0  0  0  0
    6.0465    2.7930    1.1414 C   0  0  0  0  0  0  0  0  0  0  0  0
    7.2273    3.4557    0.9865 O   0  0  0  0  0  0  0  0  0  0  0  0
    5.7314    1.8078    0.2121 C   0  0  0  0  0  0  0  0  0  0  0  0
    4.5319    1.1012    0.3283 C   0  0  0  0  0  0  0  0  0  0  0  0
    1.0457   -2.1632   -0.2346 C   0  0  0  0  0  0  0  0  0  0  0  0
    1.1991   -2.0835   -1.6283 C   0  0  0  0  0  0  0  0  0  0  0  0
    1.3163   -3.2426   -2.3961 C   0  0  0  0  0  0  0  0  0  0  0  0
    1.2909   -4.4925   -1.7813 C   0  0  0  0  0  0  0  0  0  0  0  0
    1.1537   -4.5857   -0.3977 C   0  0  0  0  0  0  0  0  0  0  0  0
    1.0349   -3.4283    0.3737 C   0  0  0  0  0  0  0  0  0  0  0  0
   -3.8792   -0.8305    0.2174 C   0  0  0  0  0  0  0  0  0  0  0  0
   -6.5682   -1.8323   -0.7315 H   0  0  0  0  0  0  0  0  0  0  0  0
   -7.2507   -0.6653    0.4280 H   0  0  0  0  0  0  0  0  0  0  0  0
   -6.1848   -1.9457    1.0041 H   0  0  0  0  0  0  0  0  0  0  0  0
   -6.3425    1.2927   -0.7825 H   0  0  0  0  0  0  0  0  0  0  0  0
   -4.4905    3.8416   -0.4837 H   0  0  0  0  0  0  0  0  0  0  0  0
   -3.5808    3.4348   -1.9608 H   0  0  0  0  0  0  0  0  0  0  0  0
   -5.3299    3.2185   -1.9247 H   0  0  0  0  0  0  0  0  0  0  0  0
   -2.1051    1.9328   -0.6791 H   0  0  0  0  0  0  0  0  0  0  0  0
   -1.5095   -1.5159    0.6660 H   0  0  0  0  0  0  0  0  0  0  0  0
    0.6770   -1.1978    1.6416 H   0  0  0  0  0  0  0  0  0  0  0  0
    3.3043    2.6132    3.1294 H   0  0  0  0  0  0  0  0  0  0  0  0
    5.4201    3.8565    2.9198 H   0  0  0  0  0  0  0  0  0  0  0  0
    7.3057    4.1225    1.6884 H   0  0  0  0  0  0  0  0  0  0  0  0
    6.4167    1.5912   -0.6030 H   0  0  0  0  0  0  0  0  0  0  0  0
    4.3002    0.3366   -0.4090 H   0  0  0  0  0  0  0  0  0  0  0  0
    1.2302   -1.1139   -2.1244 H   0  0  0  0  0  0  0  0  0  0  0  0
    1.4316   -3.1688   -3.4747 H   0  0  0  0  0  0  0  0  0  0  0  0
    1.3860   -5.3943   -2.3808 H   0  0  0  0  0  0  0  0  0  0  0  0
    1.1463   -5.5619    0.0809 H   0  0  0  0  0  0  0  0  0  0  0  0
    0.9431   -3.5246    1.4537 H   0  0  0  0  0  0  0  0  0  0  0  0
   -3.7548   -1.8398    0.6024 H   0  0  0  0  0  0  0  0  0  0  0  0
  1  2  1  0
  2  3  2  0
  3  4  1  0
  4  5  1  0
  4  6  2  0
  6  7  1  0
  7  8  1  0
  8  9  1  0
  9 10  2  0
  9 11  1  0
 11 12  1  0
 12 13  1  0
 13 14  2  0
 13 15  1  0
 15 16  2  0
 16 17  1  0
 17 18  2  0
 18 19  1  0
 18 20  1  0
 20 21  2  0
 11 22  1  0
 22 23  2  0
 23 24  1  0
 24 25  2  0
 25 26  1  0
 26 27  2  0
  7 28  2  0
 28  2  1  0
 21 15  1  0
 27 22  1  0
  1 29  1  0
  1 30  1  0
  1 31  1  0
  3 32  1  0
  5 33  1  0
  5 34  1  0
  5 35  1  0
  6 36  1  0
  8 37  1  0
 11 38  1  0
 16 39  1  0
 17 40  1  0
 19 41  1  0
 20 42  1  0
 21 43  1  0
 23 44  1  0
 24 45  1  0
 25 46  1  0
 26 47  1  0
 27 48  1  0
 28 49  1  0
M  END
$$$$
