
     RDKit          3D

 69 73  0  0  0  0  0  0  0  0999 V2000
   -1.4851   -6.4127   -2.1488 C   0  0  0  0  0  0  0  0  0  0  0  0
   -1.9618   -5.1921   -1.5976 O   0  0  0  0  0  0  0  0  0  0  0  0
   -1.6546   -4.9437   -0.2876 C   0  0  0  0  0  0  0  0  0  0  0  0
   -0.9200   -5.7778    0.5554 C   0  0  0  0  0  0  0  0  0  0  0  0
   -0.6793   -5.4009    1.8792 C   0  0  0  0  0  0  0  0  0  0  0  0
   -1.1697   -4.1886    2.3656 C   0  0  0  0  0  0  0  0  0  0  0  0
   -1.9077   -3.3420    1.5311 C   0  0  0  0  0  0  0  0  0  0  0  0
   -2.4136   -2.0577    2.0246 C   0  0  0  0  0  0  0  0  0  0  0  0
   -3.6739   -2.0656    3.1803 S   0  0  0  0  0  0  0  0  0  0  0  0
   -3.7472   -0.3492    3.2464 C   0  0  0  0  0  0  0  0  0  0  0  0
   -4.6157    0.4259    4.0427 C   0  0  0  0  0  0  0  0  0  0  0  0
   -4.5398    1.8229    3.9788 C   0  0  0  0  0  0  0  0  0  0  0  0
   -5.3392    2.6701    4.7093 O   0  0  0  0  0  0  0  0  0  0  0  0
   -6.3000    2.0881    5.5783 C   0  0  0  0  0  0  0  0  0  0  0  0
   -3.6051    2.4395    3.1336 C   0  0  0  0  0  0  0  0  0  0  0  0
   -3.5991    3.8135    3.1392 O   0  0  0  0  0  0  0  0  0  0  0  0
   -2.6333    4.4733    2.3337 C   0  0  0  0  0  0  0  0  0  0  0  0
   -2.7516    1.6529    2.3482 C   0  0  0  0  0  0  0  0  0  0  0  0
   -2.8143    0.2346    2.3925 C   0  0  0  0  0  0  0  0  0  0  0  0
   -2.0463   -0.7660    1.6853 C   0  0  0  0  0  0  0  0  0  0  0  0
   -0.9838   -0.4974    0.7244 C   0  0  0  0  0  0  0  0  0  0  0  0
    0.3549   -0.6418    1.0961 C   0  0  0  0  0  0  0  0  0  0  0  0
    1.3658   -0.3582    0.1758 C   0  0  0  0  0  0  0  0  0  0  0  0
    1.0545    0.0716   -1.1172 C   0  0  0  0  0  0  0  0  0  0  0  0
    2.1405    0.3218   -1.9080 O   0  0  0  0  0  0  0  0  0  0  0  0
    1.8926    0.8000   -3.2327 C   0  0  0  0  0  0  0  0  0  0  0  0
    3.2375    1.1098   -3.9198 C   0  0  0  0  0  0  0  0  0  0  0  0
    3.7397    2.4844   -3.7032 N   0  0  0  0  0  0  0  0  0  0  0  0
    4.9387    2.7573   -4.5136 C   0  0  0  0  0  0  0  0  0  0  0  0
    6.2068    2.0630   -4.0080 C   0  0  0  0  0  0  0  0  0  0  0  0
    6.4595    2.3651   -2.5342 C   0  0  0  0  0  0  0  0  0  0  0  0
    5.2108    2.1041   -1.6978 C   0  0  0  0  0  0  0  0  0  0  0  0
    3.9939    2.8155   -2.2923 C   0  0  0  0  0  0  0  0  0  0  0  0
   -0.2830    0.2104   -1.4889 C   0  0  0  0  0  0  0  0  0  0  0  0
   -1.3000   -0.0687   -0.5690 C   0  0  0  0  0  0  0  0  0  0  0  0
   -2.1430   -3.7300    0.2054 C   0  0  0  0  0  0  0  0  0  0  0  0
   -0.3909   -6.4493   -2.1401 H   0  0  0  0  0  0  0  0  0  0  0  0
   -1.9144   -7.2750   -1.6280 H   0  0  0  0  0  0  0  0  0  0  0  0
   -1.8120   -6.4579   -3.1920 H   0  0  0  0  0  0  0  0  0  0  0  0
   -0.5205   -6.7272    0.2148 H   0  0  0  0  0  0  0  0  0  0  0  0
   -0.1043   -6.0522    2.5327 H   0  0  0  0  0  0  0  0  0  0  0  0
   -0.9673   -3.9064    3.3960 H   0  0  0  0  0  0  0  0  0  0  0  0
   -5.3228   -0.0825    4.6875 H   0  0  0  0  0  0  0  0  0  0  0  0
   -6.8462    2.9017    6.0661 H   0  0  0  0  0  0  0  0  0  0  0  0
   -7.0271    1.4886    5.0201 H   0  0  0  0  0  0  0  0  0  0  0  0
   -5.8157    1.4965    6.3622 H   0  0  0  0  0  0  0  0  0  0  0  0
   -1.6159    4.2105    2.6401 H   0  0  0  0  0  0  0  0  0  0  0  0
   -2.7553    5.5507    2.4801 H   0  0  0  0  0  0  0  0  0  0  0  0
   -2.7956    4.2627    1.2718 H   0  0  0  0  0  0  0  0  0  0  0  0
   -2.0195    2.1026    1.6865 H   0  0  0  0  0  0  0  0  0  0  0  0
    0.6200   -0.9716    2.0975 H   0  0  0  0  0  0  0  0  0  0  0  0
    2.4065   -0.4720    0.4690 H   0  0  0  0  0  0  0  0  0  0  0  0
    1.2616    1.6969   -3.2224 H   0  0  0  0  0  0  0  0  0  0  0  0
    1.3882    0.0099   -3.8022 H   0  0  0  0  0  0  0  0  0  0  0  0
    3.9788    0.3598   -3.6236 H   0  0  0  0  0  0  0  0  0  0  0  0
    3.0682    0.9942   -4.9980 H   0  0  0  0  0  0  0  0  0  0  0  0
    4.7600    2.4858   -5.5613 H   0  0  0  0  0  0  0  0  0  0  0  0
    5.1080    3.8424   -4.5214 H   0  0  0  0  0  0  0  0  0  0  0  0
    7.0669    2.3949   -4.6010 H   0  0  0  0  0  0  0  0  0  0  0  0
    6.1278    0.9791   -4.1527 H   0  0  0  0  0  0  0  0  0  0  0  0
    6.7537    3.4166   -2.4256 H   0  0  0  0  0  0  0  0  0  0  0  0
    7.2942    1.7598   -2.1644 H   0  0  0  0  0  0  0  0  0  0  0  0
    5.3772    2.4568   -0.6733 H   0  0  0  0  0  0  0  0  0  0  0  0
    5.0275    1.0253   -1.6331 H   0  0  0  0  0  0  0  0  0  0  0  0
    4.1551    3.9000   -2.2230 H   0  0  0  0  0  0  0  0  0  0  0  0
    3.1094    2.6316   -1.6743 H   0  0  0  0  0  0  0  0  0  0  0  0
   -0.5703    0.5336   -2.4838 H   0  0  0  0  0  0  0  0  0  0  0  0
   -2.3388    0.0465   -0.8708 H   0  0  0  0  0  0  0  0  0  0  0  0
   -2.7148   -3.0840   -0.4569 H   0  0  0  0  0  0  0  0  0  0  0  0
  1  2  1  0
  2  3  1  0
  3  4  2  0
  4  5  1  0
  5  6  2  0
  6  7  1  0
  7  8  1  0
  8  9  1  0
  9 10  1  0
 10 11  2  0
 11 12  1  0
 12 13  1  0
 13 14  1  0
 12 15  2  0
 15 16  1  0
 16 17  1  0
 15 18  1  0
 18 19  2  0
 19 20  1  0
 20 21  1  0
 21 22  2  0
 22 23  1  0
 23 24  2  0
 24 25  1  0
 25 26  1  0
 26 27  1  0
 27 28  1  0
 28 29  1  0
 29 30  1  0
 30 31  1  0
 31 32  1  0
 32 33  1  0
 24 34  1  0
 34 35  2  0
  7 36  2  0
 36  3  1  0
 20  8  2  0
 35 21  1  0
 19 10  1  0
 33 28  1  0
  1 37  1  0
  1 38  1  0
  1 39  1  0
  4 40  1  0
  5 41  1  0
  6 42  1  0
 11 43  1  0
 14 44  1  0
 14 45  1  0
 14 46  1  0
 17 47  1  0
 17 48  1  0
 17 49  1  0
 18 50  1  0
 22 51  1  0
 23 52  1  0
 26 53  1  0
 26 54  1  0
 27 55  1  0
 27 56  1  0
 29 57  1  0
 29 58  1  0
 30 59  1  0
 30 60  1  0
 31 61  1  0
 31 62  1  0
 32 63  1  0
 32 64  1  0
 33 65  1  0
 33 66  1  0
 34 67  1  0
 35 68  1  0
 36 69  1  0
M  END
$$$$
