
     RDKit          3D

 72 76  0  0  0  0  0  0  0  0999 V2000
   10.3244   -1.6149   -1.3119 C   0  0  0  0  0  0  0  0  0  0  0  0
    9.9093   -0.6244   -0.3750 O   0  0  0  0  0  0  0  0  0  0  0  0
    8.5639   -0.4097   -0.2604 C   0  0  0  0  0  0  0  0  0  0  0  0
    7.5755   -0.9504   -1.0826 C   0  0  0  0  0  0  0  0  0  0  0  0
    6.2267   -0.6473   -0.8539 C   0  0  0  0  0  0  0  0  0  0  0  0
    5.8460    0.1887    0.2043 C   0  0  0  0  0  0  0  0  0  0  0  0
    4.4305    0.4984    0.4527 C   0  0  0  0  0  0  0  0  0  0  0  0
    4.0921    1.7461    0.7949 N   0  0  0  0  0  0  0  0  0  0  0  0
    2.4558    1.8487    0.9821 S   0  0  0  0  0  0  0  0  0  0  0  0
    2.1150    0.2146    0.6256 C   0  0  0  0  0  0  0  0  0  0  0  0
    0.7730   -0.3391    0.7073 C   0  0  0  0  0  0  0  0  0  0  0  0
    0.5937   -1.4825    1.1348 O   0  0  0  0  0  0  0  0  0  0  0  0
   -0.3278    0.4747    0.3458 N   0  0  0  0  0  0  0  0  0  0  0  0
   -0.2573    1.3053   -0.8244 C   0  0  0  0  0  0  0  0  0  0  0  0
    0.4249    0.8685   -1.9738 C   0  0  0  0  0  0  0  0  0  0  0  0
    0.5215    1.6867   -3.1013 C   0  0  0  0  0  0  0  0  0  0  0  0
   -0.0578    2.9479   -3.0817 C   0  0  0  0  0  0  0  0  0  0  0  0
    0.0347    3.7355   -4.1607 F   0  0  0  0  0  0  0  0  0  0  0  0
   -0.7307    3.4035   -1.9558 C   0  0  0  0  0  0  0  0  0  0  0  0
   -0.8284    2.5842   -0.8277 C   0  0  0  0  0  0  0  0  0  0  0  0
   -1.6516   -0.0767    0.7301 C   0  0  0  0  0  0  0  0  0  0  0  0
   -2.2025   -1.1323   -0.2769 C   0  0  0  0  0  0  0  0  0  0  0  0
   -1.8388   -1.2230   -1.4481 O   0  0  0  0  0  0  0  0  0  0  0  0
   -3.1745   -1.9706    0.2584 N   0  0  0  0  0  0  0  0  0  0  0  0
   -3.9015   -2.9096   -0.5730 C   0  0  0  0  0  0  0  0  0  0  0  0
   -4.4458   -4.1011    0.2288 C   0  0  0  0  0  0  0  0  0  0  0  0
   -5.9528   -4.1201   -0.0104 C   0  0  0  0  0  0  0  0  0  0  0  0
   -6.1371   -3.3805   -1.3256 C   0  0  0  0  0  0  0  0  0  0  0  0
   -5.1223   -2.2545   -1.2261 C   0  0  0  0  0  0  0  0  0  0  0  0
   -2.6788    0.9749    1.1500 C   0  0  0  0  0  0  0  0  0  0  0  0
   -2.5225    1.6254    2.3872 C   0  0  0  0  0  0  0  0  0  0  0  0
   -3.4327    2.6025    2.8083 C   0  0  0  0  0  0  0  0  0  0  0  0
   -4.5148    2.9483    2.0003 C   0  0  0  0  0  0  0  0  0  0  0  0
   -5.4719    3.8801    2.2933 O   0  0  0  0  0  0  0  0  0  0  0  0
   -5.3407    4.5745    3.5284 C   0  0  0  0  0  0  0  0  0  0  0  0
   -4.6735    2.3113    0.7691 C   0  0  0  0  0  0  0  0  0  0  0  0
   -3.7642    1.3391    0.3393 C   0  0  0  0  0  0  0  0  0  0  0  0
    3.3159   -0.4320    0.3970 C   0  0  0  0  0  0  0  0  0  0  0  0
    3.4129   -1.7712    0.1637 N   0  0  0  0  0  0  0  0  0  0  0  0
    6.8459    0.7438    1.0128 C   0  0  0  0  0  0  0  0  0  0  0  0
    8.1923    0.4460    0.7792 C   0  0  0  0  0  0  0  0  0  0  0  0
   10.1100   -1.2952   -2.3371 H   0  0  0  0  0  0  0  0  0  0  0  0
   11.4097   -1.7310   -1.2195 H   0  0  0  0  0  0  0  0  0  0  0  0
    9.8674   -2.5856   -1.0925 H   0  0  0  0  0  0  0  0  0  0  0  0
    7.8182   -1.6000   -1.9174 H   0  0  0  0  0  0  0  0  0  0  0  0
    5.4769   -1.0629   -1.5250 H   0  0  0  0  0  0  0  0  0  0  0  0
    0.8528   -0.1304   -2.0245 H   0  0  0  0  0  0  0  0  0  0  0  0
    1.0393    1.3422   -3.9902 H   0  0  0  0  0  0  0  0  0  0  0  0
   -1.1636    4.3994   -1.9525 H   0  0  0  0  0  0  0  0  0  0  0  0
   -1.3191    2.9867    0.0526 H   0  0  0  0  0  0  0  0  0  0  0  0
   -1.4904   -0.6628    1.6488 H   0  0  0  0  0  0  0  0  0  0  0  0
   -3.5777   -1.7194    1.1535 H   0  0  0  0  0  0  0  0  0  0  0  0
   -3.2270   -3.2843   -1.3535 H   0  0  0  0  0  0  0  0  0  0  0  0
   -4.2137   -4.0522    1.2978 H   0  0  0  0  0  0  0  0  0  0  0  0
   -4.0011   -5.0268   -0.1570 H   0  0  0  0  0  0  0  0  0  0  0  0
   -6.4655   -3.5843    0.7989 H   0  0  0  0  0  0  0  0  0  0  0  0
   -6.3510   -5.1385   -0.0470 H   0  0  0  0  0  0  0  0  0  0  0  0
   -5.8975   -4.0350   -2.1726 H   0  0  0  0  0  0  0  0  0  0  0  0
   -7.1583   -3.0096   -1.4545 H   0  0  0  0  0  0  0  0  0  0  0  0
   -4.8862   -1.8205   -2.2034 H   0  0  0  0  0  0  0  0  0  0  0  0
   -5.5209   -1.4510   -0.5918 H   0  0  0  0  0  0  0  0  0  0  0  0
   -1.6784    1.3823    3.0327 H   0  0  0  0  0  0  0  0  0  0  0  0
   -3.2643    3.0769    3.7693 H   0  0  0  0  0  0  0  0  0  0  0  0
   -4.4099    5.1503    3.5616 H   0  0  0  0  0  0  0  0  0  0  0  0
   -5.4085    3.8842    4.3761 H   0  0  0  0  0  0  0  0  0  0  0  0
   -6.1727    5.2812    3.6058 H   0  0  0  0  0  0  0  0  0  0  0  0
   -5.5111    2.5819    0.1297 H   0  0  0  0  0  0  0  0  0  0  0  0
   -3.9131    0.8890   -0.6403 H   0  0  0  0  0  0  0  0  0  0  0  0
    4.2818   -2.2408    0.4200 H   0  0  0  0  0  0  0  0  0  0  0  0
    2.6066   -2.3574    0.3968 H   0  0  0  0  0  0  0  0  0  0  0  0
    6.5833    1.4162    1.8286 H   0  0  0  0  0  0  0  0  0  0  0  0
    8.9580    0.8888    1.4131 H   0  0  0  0  0  0  0  0  0  0  0  0
  1  2  1  0
  2  3  1  0
  3  4  2  0
  4  5  1  0
  5  6  2  0
  6  7  1  0
  7  8  2  0
  8  9  1  0
  9 10  1  0
 10 11  1  0
 11 12  2  0
 11 13  1  0
 13 14  1  0
 14 15  2  0
 15 16  1  0
 16 17  2  0
 17 18  1  0
 17 19  1  0
 19 20  2  0
 13 21  1  0
 21 22  1  0
 22 23  2  0
 22 24  1  0
 24 25  1  0
 25 26  1  0
 26 27  1  0
 27 28  1  0
 28 29  1  0
 21 30  1  0
 30 31  2  0
 31 32  1  0
 32 33  2  0
 33 34  1  0
 34 35  1  0
 33 36  1  0
 36 37  2  0
 10 38  2  0
 38 39  1  0
  6 40  1  0
 40 41  2  0
 41  3  1  0
 38  7  1  0
 20 14  1  0
 29 25  1  0
 37 30  1  0
  1 42  1  0
  1 43  1  0
  1 44  1  0
  4 45  1  0
  5 46  1  0
 15 47  1  0
 16 48  1  0
 19 49  1  0
 20 50  1  0
 21 51  1  0
 24 52  1  0
 25 53  1  0
 26 54  1  0
 26 55  1  0
 27 56  1  0
 27 57  1  0
 28 58  1  0
 28 59  1  0
 29 60  1  0
 29 61  1  0
 31 62  1  0
 32 63  1  0
 35 64  1  0
 35 65  1  0
 35 66  1  0
 36 67  1  0
 37 68  1  0
 39 69  1  0
 39 70  1  0
 40 71  1  0
 41 72  1  0
M  END
$$$$
