
     RDKit          3D

 57 61  0  0  0  0  0  0  0  0999 V2000
   -4.0318    1.4197    3.7440 C   0  0  0  0  0  0  0  0  0  0  0  0
   -5.1367    1.6896    2.8072 N   0  0  0  0  0  0  0  0  0  0  0  0
   -6.0250    0.5338    2.6043 C   0  0  0  0  0  0  0  0  0  0  0  0
   -4.7868    2.6402    1.4427 S   0  0  0  0  0  6  0  0  0  0  0  0
   -3.9371    3.7397    1.8446 O   0  0  0  0  0  0  0  0  0  0  0  0
   -6.0262    2.8791    0.7325 O   0  0  0  0  0  0  0  0  0  0  0  0
   -3.8038    1.5541    0.4294 C   0  0  0  0  0  0  0  0  0  0  0  0
   -4.3891    0.8838   -0.6416 C   0  0  0  0  0  0  0  0  0  0  0  0
   -3.6052    0.0606   -1.4567 C   0  0  0  0  0  0  0  0  0  0  0  0
   -2.2249   -0.1062   -1.2332 C   0  0  0  0  0  0  0  0  0  0  0  0
   -1.4554   -0.9696   -2.0298 N   0  0  0  0  0  0  0  0  0  0  0  0
   -1.7067   -1.0626   -3.4767 C   0  0  0  0  0  0  0  0  0  0  0  0
   -1.0103   -2.3638   -3.8538 C   0  0  0  0  0  0  0  0  0  0  0  0
   -1.3739   -3.2679   -2.6885 C   0  0  0  0  0  0  0  0  0  0  0  0
   -1.3368   -2.3400   -1.4731 C   0  0  0  0  0  0  0  0  0  0  0  0
   -1.6475    0.5954   -0.1394 C   0  0  0  0  0  0  0  0  0  0  0  0
   -0.1889    0.5362    0.2130 C   0  0  0  0  0  0  0  0  0  0  0  0
    0.1419    0.7952    1.3655 O   0  0  0  0  0  0  0  0  0  0  0  0
    0.6392    0.2034   -0.8265 N   0  0  0  0  0  0  0  0  0  0  0  0
    1.9942    0.1096   -0.7163 C   0  0  0  0  0  0  0  0  0  0  0  0
    2.7613    0.3488    0.3111 N   0  0  0  0  0  0  0  0  0  0  0  0
    4.0917    0.1315   -0.0339 C   0  0  0  0  0  0  0  0  0  0  0  0
    4.2931   -0.2844   -1.3538 C   0  0  0  0  0  0  0  0  0  0  0  0
    5.5723   -0.5489   -1.8682 C   0  0  0  0  0  0  0  0  0  0  0  0
    6.6763   -0.3868   -1.0232 C   0  0  0  0  0  0  0  0  0  0  0  0
    6.5250    0.0298    0.3042 C   0  0  0  0  0  0  0  0  0  0  0  0
    7.6277    0.1987    1.1569 C   0  0  0  0  0  0  0  0  0  0  0  0
    7.4509    0.6180    2.4784 C   0  0  0  0  0  0  0  0  0  0  0  0
    6.1720    0.8738    2.9700 C   0  0  0  0  0  0  0  0  0  0  0  0
    5.0619    0.7119    2.1426 C   0  0  0  0  0  0  0  0  0  0  0  0
    5.2288    0.2914    0.8093 C   0  0  0  0  0  0  0  0  0  0  0  0
    2.7665   -0.3928   -2.1488 S   0  0  0  0  0  0  0  0  0  0  0  0
   -2.4380    1.4286    0.6738 C   0  0  0  0  0  0  0  0  0  0  0  0
   -4.4427    1.1189    4.7141 H   0  0  0  0  0  0  0  0  0  0  0  0
   -3.3901    0.6140    3.3775 H   0  0  0  0  0  0  0  0  0  0  0  0
   -3.4306    2.3151    3.9202 H   0  0  0  0  0  0  0  0  0  0  0  0
   -5.4865   -0.2985    2.1412 H   0  0  0  0  0  0  0  0  0  0  0  0
   -6.4190    0.1978    3.5693 H   0  0  0  0  0  0  0  0  0  0  0  0
   -6.8867    0.7988    1.9856 H   0  0  0  0  0  0  0  0  0  0  0  0
   -5.4511    0.9930   -0.8537 H   0  0  0  0  0  0  0  0  0  0  0  0
   -4.1098   -0.4684   -2.2599 H   0  0  0  0  0  0  0  0  0  0  0  0
   -1.2783   -0.2071   -4.0085 H   0  0  0  0  0  0  0  0  0  0  0  0
   -2.7695   -1.1430   -3.7260 H   0  0  0  0  0  0  0  0  0  0  0  0
    0.0762   -2.2177   -3.8969 H   0  0  0  0  0  0  0  0  0  0  0  0
   -1.3467   -2.7571   -4.8167 H   0  0  0  0  0  0  0  0  0  0  0  0
   -2.3886   -3.6620   -2.8228 H   0  0  0  0  0  0  0  0  0  0  0  0
   -0.6939   -4.1187   -2.5842 H   0  0  0  0  0  0  0  0  0  0  0  0
   -2.1431   -2.5959   -0.7760 H   0  0  0  0  0  0  0  0  0  0  0  0
   -0.3813   -2.4391   -0.9480 H   0  0  0  0  0  0  0  0  0  0  0  0
    0.2128   -0.0747   -1.7046 H   0  0  0  0  0  0  0  0  0  0  0  0
    5.7059   -0.8704   -2.8967 H   0  0  0  0  0  0  0  0  0  0  0  0
    7.6692   -0.5897   -1.4212 H   0  0  0  0  0  0  0  0  0  0  0  0
    8.6367    0.0064    0.7981 H   0  0  0  0  0  0  0  0  0  0  0  0
    8.3147    0.7459    3.1253 H   0  0  0  0  0  0  0  0  0  0  0  0
    6.0365    1.2016    3.9974 H   0  0  0  0  0  0  0  0  0  0  0  0
    4.0645    0.9148    2.5313 H   0  0  0  0  0  0  0  0  0  0  0  0
   -1.9771    1.9861    1.4889 H   0  0  0  0  0  0  0  0  0  0  0  0
  1  2  1  0
  2  3  1  0
  2  4  1  0
  4  5  2  0
  4  6  2  0
  4  7  1  0
  7  8  2  0
  8  9  1  0
  9 10  2  0
 10 11  1  0
 11 12  1  0
 12 13  1  0
 13 14  1  0
 14 15  1  0
 10 16  1  0
 16 17  1  0
 17 18  2  0
 17 19  1  0
 19 20  1  0
 20 21  2  0
 21 22  1  0
 22 23  2  0
 23 24  1  0
 24 25  2  0
 25 26  1  0
 26 27  2  0
 27 28  1  0
 28 29  2  0
 29 30  1  0
 30 31  2  0
 23 32  1  0
 16 33  2  0
 33  7  1  0
 15 11  1  0
 32 20  1  0
 31 22  1  0
 31 26  1  0
  1 34  1  0
  1 35  1  0
  1 36  1  0
  3 37  1  0
  3 38  1  0
  3 39  1  0
  8 40  1  0
  9 41  1  0
 12 42  1  0
 12 43  1  0
 13 44  1  0
 13 45  1  0
 14 46  1  0
 14 47  1  0
 15 48  1  0
 15 49  1  0
 19 50  1  0
 24 51  1  0
 25 52  1  0
 27 53  1  0
 28 54  1  0
 29 55  1  0
 30 56  1  0
 33 57  1  0
M  END
$$$$
