
     RDKit          3D

 56 59  0  0  0  0  0  0  0  0999 V2000
    7.6999    1.1434   -1.7648 C   0  0  0  0  0  0  0  0  0  0  0  0
    7.7730    0.7854   -0.3884 O   0  0  0  0  0  0  0  0  0  0  0  0
    6.5353    0.5876    0.1884 C   0  0  0  0  0  0  0  0  0  0  0  0
    6.5318    0.2637    1.5327 C   0  0  0  0  0  0  0  0  0  0  0  0
    5.3048    0.0545    2.1563 C   0  0  0  0  0  0  0  0  0  0  0  0
    4.1150    0.1699    1.4240 C   0  0  0  0  0  0  0  0  0  0  0  0
    2.8334   -0.0675    2.1500 C   0  0  0  0  0  0  0  0  0  0  0  0
    2.8489   -0.2816    3.3592 O   0  0  0  0  0  0  0  0  0  0  0  0
    1.6648   -0.0377    1.4279 N   0  0  0  0  0  0  0  0  0  0  0  0
    0.3684   -0.1510    2.0607 C   0  0  0  0  0  0  0  0  0  0  0  0
   -0.0456    1.1889    2.7164 C   0  0  0  0  0  0  0  0  0  0  0  0
   -1.5616    1.2701    2.9680 C   0  0  0  0  0  0  0  0  0  0  0  0
   -2.3612    1.1793    1.6529 C   0  0  0  0  0  0  0  0  0  0  0  0
   -1.8494    0.0447    0.8303 C   0  0  0  0  0  0  0  0  0  0  0  0
   -0.6236   -0.5646    1.0259 C   0  0  0  0  0  0  0  0  0  0  0  0
   -0.6250   -1.6458    0.1380 C   0  0  0  0  0  0  0  0  0  0  0  0
   -1.7441   -1.7123   -0.5802 N   0  0  0  0  0  0  0  0  0  0  0  0
   -2.5042   -0.6563   -0.1742 N   0  0  0  0  0  0  0  0  0  0  0  0
   -3.7568   -0.3768   -0.8094 C   0  0  0  0  0  0  0  0  0  0  0  0
   -4.1502    0.9655   -0.9482 C   0  0  0  0  0  0  0  0  0  0  0  0
   -5.3329    1.3009   -1.6017 C   0  0  0  0  0  0  0  0  0  0  0  0
   -6.1300    0.3026   -2.1468 C   0  0  0  0  0  0  0  0  0  0  0  0
   -5.7611   -1.0473   -2.0440 C   0  0  0  0  0  0  0  0  0  0  0  0
   -6.6645   -2.0760   -2.6747 C   0  0  0  0  0  0  0  0  0  0  0  0
   -4.5798   -1.4076   -1.3426 C   0  0  0  0  0  0  0  0  0  0  0  0
   -4.2413   -2.8709   -1.1699 C   0  0  0  0  0  0  0  0  0  0  0  0
    4.2295    0.5012    0.0720 C   0  0  0  0  0  0  0  0  0  0  0  0
    3.0768    0.6370   -0.6799 O   0  0  0  0  0  0  0  0  0  0  0  0
    3.3147    0.9490   -2.0512 C   0  0  0  0  0  0  0  0  0  0  0  0
    5.4159    0.7117   -0.5534 N   0  0  0  0  0  0  0  0  0  0  0  0
    7.1695    2.0928   -1.8997 H   0  0  0  0  0  0  0  0  0  0  0  0
    8.7228    1.2793   -2.1284 H   0  0  0  0  0  0  0  0  0  0  0  0
    7.2384    0.3467   -2.3593 H   0  0  0  0  0  0  0  0  0  0  0  0
    7.4614    0.1763    2.0838 H   0  0  0  0  0  0  0  0  0  0  0  0
    5.2803   -0.2001    3.2140 H   0  0  0  0  0  0  0  0  0  0  0  0
    1.6990    0.2542    0.4562 H   0  0  0  0  0  0  0  0  0  0  0  0
    0.4175   -0.9266    2.8357 H   0  0  0  0  0  0  0  0  0  0  0  0
    0.4960    1.3205    3.6606 H   0  0  0  0  0  0  0  0  0  0  0  0
    0.2472    2.0300    2.0730 H   0  0  0  0  0  0  0  0  0  0  0  0
   -1.8593    0.4550    3.6405 H   0  0  0  0  0  0  0  0  0  0  0  0
   -1.8048    2.2104    3.4762 H   0  0  0  0  0  0  0  0  0  0  0  0
   -2.2280    2.1186    1.1051 H   0  0  0  0  0  0  0  0  0  0  0  0
   -3.4239    1.0587    1.8865 H   0  0  0  0  0  0  0  0  0  0  0  0
    0.1379   -2.4005   -0.0081 H   0  0  0  0  0  0  0  0  0  0  0  0
   -3.5222    1.7828   -0.6116 H   0  0  0  0  0  0  0  0  0  0  0  0
   -5.6191    2.3437   -1.7105 H   0  0  0  0  0  0  0  0  0  0  0  0
   -7.0423    0.5856   -2.6682 H   0  0  0  0  0  0  0  0  0  0  0  0
   -7.4216   -1.6086   -3.3128 H   0  0  0  0  0  0  0  0  0  0  0  0
   -6.0876   -2.7543   -3.3112 H   0  0  0  0  0  0  0  0  0  0  0  0
   -7.1880   -2.6462   -1.9013 H   0  0  0  0  0  0  0  0  0  0  0  0
   -5.1227   -3.5136   -1.2530 H   0  0  0  0  0  0  0  0  0  0  0  0
   -3.5214   -3.1885   -1.9304 H   0  0  0  0  0  0  0  0  0  0  0  0
   -3.8496   -3.0695   -0.1666 H   0  0  0  0  0  0  0  0  0  0  0  0
    3.8142    1.9184   -2.1563 H   0  0  0  0  0  0  0  0  0  0  0  0
    2.3425    1.0208   -2.5485 H   0  0  0  0  0  0  0  0  0  0  0  0
    3.8830    0.1538   -2.5461 H   0  0  0  0  0  0  0  0  0  0  0  0
  1  2  1  0
  2  3  1  0
  3  4  2  0
  4  5  1  0
  5  6  2  0
  6  7  1  0
  7  8  2  0
  7  9  1  0
  9 10  1  0
 10 11  1  0
 11 12  1  0
 12 13  1  0
 13 14  1  0
 14 15  2  0
 15 16  1  0
 16 17  2  0
 17 18  1  0
 18 19  1  0
 19 20  2  0
 20 21  1  0
 21 22  2  0
 22 23  1  0
 23 24  1  0
 23 25  2  0
 25 26  1  0
  6 27  1  0
 27 28  1  0
 28 29  1  0
 27 30  2  0
 30  3  1  0
 15 10  1  0
 25 19  1  0
 18 14  1  0
  1 31  1  0
  1 32  1  0
  1 33  1  0
  4 34  1  0
  5 35  1  0
  9 36  1  0
 10 37  1  0
 11 38  1  0
 11 39  1  0
 12 40  1  0
 12 41  1  0
 13 42  1  0
 13 43  1  0
 16 44  1  0
 20 45  1  0
 21 46  1  0
 22 47  1  0
 24 48  1  0
 24 49  1  0
 24 50  1  0
 26 51  1  0
 26 52  1  0
 26 53  1  0
 29 54  1  0
 29 55  1  0
 29 56  1  0
M  END
$$$$
