
     RDKit          3D

 49 51  0  0  0  0  0  0  0  0999 V2000
    6.3609   -1.9171   -1.5545 C   0  0  0  0  0  0  0  0  0  0  0  0
    5.9733   -0.9101   -0.5107 C   0  0  0  0  0  0  0  0  0  0  0  0
    6.9293   -0.4213    0.3884 C   0  0  0  0  0  0  0  0  0  0  0  0
    6.5717    0.5086    1.3653 C   0  0  0  0  0  0  0  0  0  0  0  0
    5.2525    0.9399    1.4627 C   0  0  0  0  0  0  0  0  0  0  0  0
    4.9852    1.8755    2.4261 O   0  0  0  0  0  0  0  0  0  0  0  0
    4.2693    0.4239    0.6081 C   0  0  0  0  0  0  0  0  0  0  0  0
    2.8640    0.8783    0.7594 C   0  0  0  0  0  0  0  0  0  0  0  0
    2.6529    2.0001    1.2201 O   0  0  0  0  0  0  0  0  0  0  0  0
    1.7091    0.0317    0.4014 C   0  0  0  0  0  0  0  0  0  0  0  0
    1.6968   -1.3387    0.6201 C   0  0  0  0  0  0  0  0  0  0  0  0
    0.6518   -2.1401    0.3024 N   0  0  0  0  0  0  0  0  0  0  0  0
   -0.4405   -1.5415   -0.2161 C   0  0  0  0  0  0  0  0  0  0  0  0
   -0.5391   -0.1815   -0.4452 C   0  0  0  0  0  0  0  0  0  0  0  0
    0.5607    0.6214   -0.1290 C   0  0  0  0  0  0  0  0  0  0  0  0
   -1.7727    0.3679   -1.0749 C   0  0  0  0  0  0  0  0  0  0  0  0
   -2.8925   -0.5579   -1.0942 N   0  0  0  0  0  0  0  0  0  0  0  0
   -4.1885   -0.0453   -1.5310 C   0  0  0  0  0  0  0  0  0  0  0  0
   -5.2229    0.0176   -0.3999 C   0  0  0  0  0  0  0  0  0  0  0  0
   -4.8885    1.0021    0.7372 C   0  0  0  0  0  0  0  0  0  0  0  0
   -4.8897    2.4563    0.2628 C   0  0  0  0  0  0  0  0  0  0  0  0
   -5.8969    0.8361    1.8779 C   0  0  0  0  0  0  0  0  0  0  0  0
   -2.7323   -1.9189   -0.9373 C   0  0  0  0  0  0  0  0  0  0  0  0
   -3.6341   -2.7328   -1.1274 O   0  0  0  0  0  0  0  0  0  0  0  0
   -1.5129   -2.3514   -0.5258 N   0  0  0  0  0  0  0  0  0  0  0  0
    4.6405   -0.4873   -0.3922 C   0  0  0  0  0  0  0  0  0  0  0  0
    7.4054   -1.7859   -1.8561 H   0  0  0  0  0  0  0  0  0  0  0  0
    6.2303   -2.9304   -1.1625 H   0  0  0  0  0  0  0  0  0  0  0  0
    5.7467   -1.8023   -2.4538 H   0  0  0  0  0  0  0  0  0  0  0  0
    7.9647   -0.7506    0.3256 H   0  0  0  0  0  0  0  0  0  0  0  0
    7.3221    0.9028    2.0458 H   0  0  0  0  0  0  0  0  0  0  0  0
    4.0895    2.2410    2.2483 H   0  0  0  0  0  0  0  0  0  0  0  0
    2.5347   -1.8584    1.0772 H   0  0  0  0  0  0  0  0  0  0  0  0
    0.5271    1.6962   -0.2957 H   0  0  0  0  0  0  0  0  0  0  0  0
   -1.5573    0.6439   -2.1138 H   0  0  0  0  0  0  0  0  0  0  0  0
   -2.0872    1.2642   -0.5302 H   0  0  0  0  0  0  0  0  0  0  0  0
   -4.0537    0.9342   -2.0018 H   0  0  0  0  0  0  0  0  0  0  0  0
   -4.5701   -0.7137   -2.3129 H   0  0  0  0  0  0  0  0  0  0  0  0
   -6.1932    0.2881   -0.8361 H   0  0  0  0  0  0  0  0  0  0  0  0
   -5.3464   -0.9863    0.0254 H   0  0  0  0  0  0  0  0  0  0  0  0
   -3.8958    0.7675    1.1391 H   0  0  0  0  0  0  0  0  0  0  0  0
   -5.8563    2.7302   -0.1737 H   0  0  0  0  0  0  0  0  0  0  0  0
   -4.6935    3.1361    1.0991 H   0  0  0  0  0  0  0  0  0  0  0  0
   -4.1160    2.6360   -0.4887 H   0  0  0  0  0  0  0  0  0  0  0  0
   -5.8817   -0.1885    2.2646 H   0  0  0  0  0  0  0  0  0  0  0  0
   -5.6586    1.5082    2.7091 H   0  0  0  0  0  0  0  0  0  0  0  0
   -6.9162    1.0578    1.5437 H   0  0  0  0  0  0  0  0  0  0  0  0
   -1.4101   -3.3397   -0.3521 H   0  0  0  0  0  0  0  0  0  0  0  0
    3.9080   -0.8662   -1.1014 H   0  0  0  0  0  0  0  0  0  0  0  0
  1  2  1  0
  2  3  2  0
  3  4  1  0
  4  5  2  0
  5  6  1  0
  5  7  1  0
  7  8  1  0
  8  9  2  0
  8 10  1  0
 10 11  2  0
 11 12  1  0
 12 13  2  0
 13 14  1  0
 14 15  2  0
 14 16  1  0
 16 17  1  0
 17 18  1  0
 18 19  1  0
 19 20  1  0
 20 21  1  0
 20 22  1  0
 17 23  1  0
 23 24  2  0
 23 25  1  0
  7 26  2  0
 26  2  1  0
 15 10  1  0
 25 13  1  0
  1 27  1  0
  1 28  1  0
  1 29  1  0
  3 30  1  0
  4 31  1  0
  6 32  1  0
 11 33  1  0
 15 34  1  0
 16 35  1  0
 16 36  1  0
 18 37  1  0
 18 38  1  0
 19 39  1  0
 19 40  1  0
 20 41  1  0
 21 42  1  0
 21 43  1  0
 21 44  1  0
 22 45  1  0
 22 46  1  0
 22 47  1  0
 25 48  1  0
 26 49  1  0
M  END
$$$$
