
     RDKit          3D

 46 49  0  0  0  0  0  0  0  0999 V2000
    4.3774   -1.2080    0.9917 C   0  0  0  0  0  0  0  0  0  0  0  0
    4.5144   -0.1484   -0.0102 N   0  0  0  0  0  0  0  0  0  0  0  0
    5.5563    0.8123    0.3942 C   0  0  0  0  0  0  0  0  0  0  0  0
    4.8169    1.9993    0.9751 C   0  0  0  0  0  0  0  0  0  0  0  0
    3.5991    2.0770    0.0828 C   0  0  0  0  0  0  0  0  0  0  0  0
    3.2471    0.6073   -0.1732 C   0  0  0  0  0  0  0  0  0  0  0  0
    2.6465    0.4272   -1.5752 C   0  0  0  0  0  0  0  0  0  0  0  0
    2.1762   -0.9940   -1.8905 C   0  0  0  0  0  0  0  0  0  0  0  0
    1.0628   -1.4225   -1.0460 N   0  0  0  0  0  0  0  0  0  0  0  0
   -0.2136   -0.8820   -1.1473 C   0  0  0  0  0  0  0  0  0  0  0  0
   -0.7032   -0.2581   -2.2935 C   0  0  0  0  0  0  0  0  0  0  0  0
   -2.0213    0.2108   -2.3554 C   0  0  0  0  0  0  0  0  0  0  0  0
   -2.9015    0.0469   -1.2780 C   0  0  0  0  0  0  0  0  0  0  0  0
   -4.5380    0.6923   -1.4731 S   0  0  0  0  0  0  0  0  0  0  0  0
   -5.3584    0.1842    0.0127 C   0  0  0  0  0  0  0  0  0  0  0  0
   -6.7269    0.4880    0.1157 C   0  0  0  0  0  0  0  0  0  0  0  0
   -7.4608    0.1380    1.2508 C   0  0  0  0  0  0  0  0  0  0  0  0
   -6.8348   -0.5206    2.3017 C   0  0  0  0  0  0  0  0  0  0  0  0
   -5.4775   -0.8270    2.2124 C   0  0  0  0  0  0  0  0  0  0  0  0
   -4.7331   -0.4786    1.0698 C   0  0  0  0  0  0  0  0  0  0  0  0
   -3.2964   -0.8391    1.0475 C   0  0  0  0  0  0  0  0  0  0  0  0
   -2.7987   -1.3537    2.0485 O   0  0  0  0  0  0  0  0  0  0  0  0
   -2.4405   -0.6056   -0.1386 C   0  0  0  0  0  0  0  0  0  0  0  0
   -1.1116   -1.0736   -0.0894 C   0  0  0  0  0  0  0  0  0  0  0  0
    4.1214   -0.8160    1.9827 H   0  0  0  0  0  0  0  0  0  0  0  0
    5.3117   -1.7742    1.0759 H   0  0  0  0  0  0  0  0  0  0  0  0
    3.6051   -1.9249    0.6948 H   0  0  0  0  0  0  0  0  0  0  0  0
    6.1008    1.1223   -0.5063 H   0  0  0  0  0  0  0  0  0  0  0  0
    6.2966    0.4027    1.0903 H   0  0  0  0  0  0  0  0  0  0  0  0
    5.4101    2.9178    0.9501 H   0  0  0  0  0  0  0  0  0  0  0  0
    4.5199    1.8032    2.0121 H   0  0  0  0  0  0  0  0  0  0  0  0
    2.7780    2.6219    0.5592 H   0  0  0  0  0  0  0  0  0  0  0  0
    3.8574    2.5964   -0.8485 H   0  0  0  0  0  0  0  0  0  0  0  0
    2.5102    0.3088    0.5845 H   0  0  0  0  0  0  0  0  0  0  0  0
    1.8143    1.1313   -1.6969 H   0  0  0  0  0  0  0  0  0  0  0  0
    3.3946    0.7106   -2.3279 H   0  0  0  0  0  0  0  0  0  0  0  0
    1.9045   -1.0720   -2.9493 H   0  0  0  0  0  0  0  0  0  0  0  0
    3.0012   -1.7017   -1.7524 H   0  0  0  0  0  0  0  0  0  0  0  0
    1.3454   -1.6219   -0.0900 H   0  0  0  0  0  0  0  0  0  0  0  0
   -0.0750   -0.1246   -3.1690 H   0  0  0  0  0  0  0  0  0  0  0  0
   -2.3529    0.7019   -3.2689 H   0  0  0  0  0  0  0  0  0  0  0  0
   -7.2381    1.0057   -0.6946 H   0  0  0  0  0  0  0  0  0  0  0  0
   -8.5188    0.3815    1.3116 H   0  0  0  0  0  0  0  0  0  0  0  0
   -7.3977   -0.7965    3.1900 H   0  0  0  0  0  0  0  0  0  0  0  0
   -4.9977   -1.3437    3.0425 H   0  0  0  0  0  0  0  0  0  0  0  0
   -0.7719   -1.6006    0.8013 H   0  0  0  0  0  0  0  0  0  0  0  0
  1  2  1  0
  2  3  1  0
  3  4  1  0
  4  5  1  0
  5  6  1  0
  6  7  1  0
  7  8  1  0
  8  9  1  0
  9 10  1  0
 10 11  2  0
 11 12  1  0
 12 13  2  0
 13 14  1  0
 14 15  1  0
 15 16  2  0
 16 17  1  0
 17 18  2  0
 18 19  1  0
 19 20  2  0
 20 21  1  0
 21 22  2  0
 21 23  1  0
 23 24  2  0
  6  2  1  0
 24 10  1  0
 23 13  1  0
 20 15  1  0
  1 25  1  0
  1 26  1  0
  1 27  1  0
  3 28  1  0
  3 29  1  0
  4 30  1  0
  4 31  1  0
  5 32  1  0
  5 33  1  0
  6 34  1  0
  7 35  1  0
  7 36  1  0
  8 37  1  0
  8 38  1  0
  9 39  1  0
 11 40  1  0
 12 41  1  0
 16 42  1  0
 17 43  1  0
 18 44  1  0
 19 45  1  0
 24 46  1  0
M  END
$$$$
