
     RDKit          3D

 33 36  0  0  0  0  0  0  0  0999 V2000
   -1.2054   -0.2784    2.3976 O   0  0  0  0  0  0  0  0  0  0  0  0
   -0.6812   -0.0709    1.3043 C   0  0  0  0  0  0  0  0  0  0  0  0
    0.8028   -0.0350    1.2756 C   0  0  0  0  0  0  0  0  0  0  0  0
    1.5042   -0.1730    2.4823 C   0  0  0  0  0  0  0  0  0  0  0  0
    2.8919   -0.1991    2.4865 C   0  0  0  0  0  0  0  0  0  0  0  0
    3.5872   -0.0920    1.2844 C   0  0  0  0  0  0  0  0  0  0  0  0
    2.9113    0.0561    0.0470 C   0  0  0  0  0  0  0  0  0  0  0  0
    3.5513    0.1675   -1.2161 C   0  0  0  0  0  0  0  0  0  0  0  0
    5.0011    0.1546   -1.3196 N   0  0  0  0  0  4  0  0  0  0  0  0
    5.5067   -0.7589   -1.9839 O   0  0  0  0  0  0  0  0  0  0  0  0
    5.6186    1.0656   -0.7535 O   0  0  0  0  0  1  0  0  0  0  0  0
    2.8401    0.2938   -2.4132 C   0  0  0  0  0  0  0  0  0  0  0  0
    1.4525    0.3338   -2.3662 C   0  0  0  0  0  0  0  0  0  0  0  0
    0.7801    0.2353   -1.1358 C   0  0  0  0  0  0  0  0  0  0  0  0
    1.4879    0.0852    0.0625 C   0  0  0  0  0  0  0  0  0  0  0  0
   -0.6996    0.3351   -1.1247 C   0  0  0  0  0  0  0  0  0  0  0  0
   -1.2218    0.7238   -2.1685 O   0  0  0  0  0  0  0  0  0  0  0  0
   -1.3535    0.0824    0.0881 N   0  0  0  0  0  0  0  0  0  0  0  0
   -2.7876   -0.0149    0.0490 C   0  0  0  0  0  0  0  0  0  0  0  0
   -3.5889    0.3732    1.1274 C   0  0  0  0  0  0  0  0  0  0  0  0
   -4.9807    0.2480    1.0513 C   0  0  0  0  0  0  0  0  0  0  0  0
   -5.5537   -0.2616   -0.1014 C   0  0  0  0  0  0  0  0  0  0  0  0
   -7.2538   -0.4287   -0.2410 Cl  0  0  0  0  0  0  0  0  0  0  0  0
   -4.7103   -0.6248   -1.1323 C   0  0  0  0  0  0  0  0  0  0  0  0
   -3.3596   -0.5165   -1.0749 N   0  0  0  0  0  0  0  0  0  0  0  0
    0.9699   -0.2723    3.4266 H   0  0  0  0  0  0  0  0  0  0  0  0
    3.4336   -0.3098    3.4237 H   0  0  0  0  0  0  0  0  0  0  0  0
    4.6758   -0.1238    1.3341 H   0  0  0  0  0  0  0  0  0  0  0  0
    3.3530    0.3707   -3.3702 H   0  0  0  0  0  0  0  0  0  0  0  0
    0.8900    0.4483   -3.2932 H   0  0  0  0  0  0  0  0  0  0  0  0
   -3.1682    0.8071    2.0286 H   0  0  0  0  0  0  0  0  0  0  0  0
   -5.5978    0.5559    1.8907 H   0  0  0  0  0  0  0  0  0  0  0  0
   -5.0958   -1.0257   -2.0653 H   0  0  0  0  0  0  0  0  0  0  0  0
  1  2  2  0
  2  3  1  0
  3  4  1  0
  4  5  2  0
  5  6  1  0
  6  7  2  0
  7  8  1  0
  8  9  1  0
  9 10  2  0
  9 11  1  0
  8 12  2  0
 12 13  1  0
 13 14  2  0
 14 15  1  0
 14 16  1  0
 16 17  2  0
 16 18  1  0
 18 19  1  0
 19 20  2  0
 20 21  1  0
 21 22  2  0
 22 23  1  0
 22 24  1  0
 24 25  2  0
 18  2  1  0
 25 19  1  0
 15  3  2  0
 15  7  1  0
  4 26  1  0
  5 27  1  0
  6 28  1  0
 12 29  1  0
 13 30  1  0
 20 31  1  0
 21 32  1  0
 24 33  1  0
M  CHG  2   9   1  11  -1
M  END
$$$$
