
     RDKit          3D

 57 61  0  0  0  0  0  0  0  0999 V2000
    4.8636    0.8163    2.0955 C   0  0  0  0  0  0  0  0  0  0  0  0
    4.6469    1.3755    0.6906 C   0  0  0  0  0  0  0  0  0  0  0  0
    5.9602    1.9653    0.1672 C   0  0  0  0  0  0  0  0  0  0  0  0
    4.1394    0.2788   -0.2514 C   0  0  0  0  0  0  0  0  0  0  0  0
    4.9294   -0.3156   -0.9896 O   0  0  0  0  0  0  0  0  0  0  0  0
    2.7784   -0.0345   -0.2421 N   0  0  0  0  0  0  0  0  0  0  0  0
    1.8362    0.3860    0.7904 C   0  0  0  0  0  0  0  0  0  0  0  0
    0.4212    0.5701    0.2427 C   0  0  0  0  0  0  0  0  0  0  0  0
   -0.0948   -0.6866   -0.5021 C   0  0  0  0  0  0  0  0  0  0  0  0
    0.9481   -0.9960   -1.6095 C   0  0  0  0  0  0  0  0  0  0  0  0
    2.3547   -1.1773   -1.0461 C   0  0  0  0  0  0  0  0  0  0  0  0
   -0.1144   -1.7470    0.4844 O   0  0  0  0  0  0  0  0  0  0  0  0
   -0.7288   -2.9065    0.1025 C   0  0  0  0  0  0  0  0  0  0  0  0
   -0.4197   -4.0409    0.8518 C   0  0  0  0  0  0  0  0  0  0  0  0
   -0.9885   -5.2730    0.5204 C   0  0  0  0  0  0  0  0  0  0  0  0
   -1.8700   -5.3652   -0.5572 C   0  0  0  0  0  0  0  0  0  0  0  0
   -2.5662   -6.8849   -0.9598 Cl  0  0  0  0  0  0  0  0  0  0  0  0
   -2.1959   -4.2348   -1.3022 C   0  0  0  0  0  0  0  0  0  0  0  0
   -1.6277   -3.0036   -0.9595 C   0  0  0  0  0  0  0  0  0  0  0  0
   -1.9885   -1.7813   -1.7036 C   0  0  0  0  0  0  0  0  0  0  0  0
   -2.6684   -1.8694   -2.7204 O   0  0  0  0  0  0  0  0  0  0  0  0
   -1.5220   -0.4698   -1.0813 C   0  0  0  0  0  0  0  0  0  0  0  0
   -2.5887   -0.0389   -0.0796 C   0  0  0  0  0  0  0  0  0  0  0  0
   -2.6903    1.4016   -0.4407 C   0  0  0  0  0  0  0  0  0  0  0  0
   -3.4315    2.3729    0.3972 C   0  0  0  0  0  0  0  0  0  0  0  0
   -4.1686    1.9634    1.5149 C   0  0  0  0  0  0  0  0  0  0  0  0
   -4.8525    2.9090    2.2867 C   0  0  0  0  0  0  0  0  0  0  0  0
   -4.8017    4.2589    1.9417 C   0  0  0  0  0  0  0  0  0  0  0  0
   -5.6431    5.4161    2.8958 Cl  0  0  0  0  0  0  0  0  0  0  0  0
   -4.0747    4.6744    0.8288 C   0  0  0  0  0  0  0  0  0  0  0  0
   -3.3907    3.7319    0.0561 C   0  0  0  0  0  0  0  0  0  0  0  0
   -2.0833    1.7307   -1.5345 N   0  0  0  0  0  0  0  0  0  0  0  0
   -1.5124    0.5570   -2.0776 O   0  0  0  0  0  0  0  0  0  0  0  0
    3.9430    0.4147    2.5267 H   0  0  0  0  0  0  0  0  0  0  0  0
    5.5955    0.0005    2.0847 H   0  0  0  0  0  0  0  0  0  0  0  0
    5.2339    1.5951    2.7706 H   0  0  0  0  0  0  0  0  0  0  0  0
    3.9230    2.1961    0.7124 H   0  0  0  0  0  0  0  0  0  0  0  0
    6.2900    2.7977    0.7978 H   0  0  0  0  0  0  0  0  0  0  0  0
    5.8358    2.3437   -0.8534 H   0  0  0  0  0  0  0  0  0  0  0  0
    6.7608    1.2174    0.1490 H   0  0  0  0  0  0  0  0  0  0  0  0
    1.8506   -0.3797    1.5750 H   0  0  0  0  0  0  0  0  0  0  0  0
    2.1470    1.3232    1.2547 H   0  0  0  0  0  0  0  0  0  0  0  0
   -0.2264    0.8103    1.0933 H   0  0  0  0  0  0  0  0  0  0  0  0
    0.4210    1.4355   -0.4310 H   0  0  0  0  0  0  0  0  0  0  0  0
    0.6925   -1.9080   -2.1596 H   0  0  0  0  0  0  0  0  0  0  0  0
    0.9641   -0.1779   -2.3411 H   0  0  0  0  0  0  0  0  0  0  0  0
    3.0451   -1.3408   -1.8807 H   0  0  0  0  0  0  0  0  0  0  0  0
    2.4102   -2.0667   -0.4071 H   0  0  0  0  0  0  0  0  0  0  0  0
    0.2743   -3.9731    1.6866 H   0  0  0  0  0  0  0  0  0  0  0  0
   -0.7374   -6.1568    1.1025 H   0  0  0  0  0  0  0  0  0  0  0  0
   -2.8903   -4.3073   -2.1367 H   0  0  0  0  0  0  0  0  0  0  0  0
   -3.5618   -0.5110   -0.2556 H   0  0  0  0  0  0  0  0  0  0  0  0
   -2.2992   -0.1927    0.9623 H   0  0  0  0  0  0  0  0  0  0  0  0
   -4.2359    0.9183    1.8024 H   0  0  0  0  0  0  0  0  0  0  0  0
   -5.4260    2.5866    3.1525 H   0  0  0  0  0  0  0  0  0  0  0  0
   -4.0368    5.7255    0.5540 H   0  0  0  0  0  0  0  0  0  0  0  0
   -2.8290    4.0669   -0.8146 H   0  0  0  0  0  0  0  0  0  0  0  0
  1  2  1  0
  2  3  1  0
  2  4  1  0
  4  5  2  0
  4  6  1  0
  6  7  1  0
  7  8  1  0
  8  9  1  0
  9 10  1  0
 10 11  1  0
  9 12  1  0
 12 13  1  0
 13 14  2  0
 14 15  1  0
 15 16  2  0
 16 17  1  0
 16 18  1  0
 18 19  2  0
 19 20  1  0
 20 21  2  0
 20 22  1  0
 22 23  1  0
 23 24  1  0
 24 25  1  0
 25 26  2  0
 26 27  1  0
 27 28  2  0
 28 29  1  0
 28 30  1  0
 30 31  2  0
 24 32  2  0
 32 33  1  0
 11  6  1  0
 19 13  1  0
 33 22  1  0
 22  9  1  0
 31 25  1  0
  1 34  1  0
  1 35  1  0
  1 36  1  0
  2 37  1  0
  3 38  1  0
  3 39  1  0
  3 40  1  0
  7 41  1  0
  7 42  1  0
  8 43  1  0
  8 44  1  0
 10 45  1  0
 10 46  1  0
 11 47  1  0
 11 48  1  0
 14 49  1  0
 15 50  1  0
 18 51  1  0
 23 52  1  0
 23 53  1  0
 26 54  1  0
 27 55  1  0
 30 56  1  0
 31 57  1  0
M  END
$$$$
