
     RDKit          3D

 49 51  0  0  0  0  0  0  0  0999 V2000
   -8.8860    2.5592    2.4649 C   0  0  0  0  0  0  0  0  0  0  0  0
   -7.7411    2.4539    3.3034 O   0  0  0  0  0  0  0  0  0  0  0  0
   -6.5449    2.2094    2.6901 C   0  0  0  0  0  0  0  0  0  0  0  0
   -5.4492    2.1313    3.5512 C   0  0  0  0  0  0  0  0  0  0  0  0
   -4.1617    1.8865    3.0592 C   0  0  0  0  0  0  0  0  0  0  0  0
   -3.9531    1.7150    1.6917 C   0  0  0  0  0  0  0  0  0  0  0  0
   -2.6945    1.4586    1.1082 N   0  0  0  0  0  0  0  0  0  0  0  0
   -1.4700    1.3919    1.7510 C   0  0  0  0  0  0  0  0  0  0  0  0
   -1.2458    1.5961    2.9375 O   0  0  0  0  0  0  0  0  0  0  0  0
   -0.3421    1.0636    0.8315 C   0  0  0  0  0  0  0  0  0  0  0  0
    0.8018    1.9075    0.8734 C   0  0  0  0  0  0  0  0  0  0  0  0
    1.7284    2.6071    0.8620 N   0  0  0  0  0  0  0  0  0  0  0  0
   -0.4392   -0.0508    0.0803 C   0  0  0  0  0  0  0  0  0  0  0  0
    0.5755   -0.5440   -0.8578 C   0  0  0  0  0  0  0  0  0  0  0  0
    1.1070   -1.8257   -0.6774 C   0  0  0  0  0  0  0  0  0  0  0  0
    2.0540   -2.3382   -1.5727 C   0  0  0  0  0  0  0  0  0  0  0  0
    2.4778   -1.5730   -2.6568 C   0  0  0  0  0  0  0  0  0  0  0  0
    3.3799   -1.9550   -3.6077 O   0  0  0  0  0  0  0  0  0  0  0  0
    4.3419   -2.9605   -3.2778 C   0  0  0  0  0  0  0  0  0  0  0  0
    5.4356   -2.4411   -2.3810 C   0  0  0  0  0  0  0  0  0  0  0  0
    5.6101   -2.9365   -1.0795 C   0  0  0  0  0  0  0  0  0  0  0  0
    6.6258   -2.4335   -0.2608 C   0  0  0  0  0  0  0  0  0  0  0  0
    7.4773   -1.4335   -0.7323 C   0  0  0  0  0  0  0  0  0  0  0  0
    7.3158   -0.9382   -2.0258 C   0  0  0  0  0  0  0  0  0  0  0  0
    6.3028   -1.4435   -2.8368 C   0  0  0  0  0  0  0  0  0  0  0  0
    6.1760   -0.9633   -4.0835 F   0  0  0  0  0  0  0  0  0  0  0  0
    1.9281   -0.3040   -2.8515 C   0  0  0  0  0  0  0  0  0  0  0  0
    0.9846    0.2122   -1.9594 C   0  0  0  0  0  0  0  0  0  0  0  0
   -5.0542    1.7902    0.8289 C   0  0  0  0  0  0  0  0  0  0  0  0
   -6.3420    2.0374    1.3228 C   0  0  0  0  0  0  0  0  0  0  0  0
   -9.0756    1.6177    1.9373 H   0  0  0  0  0  0  0  0  0  0  0  0
   -8.7861    3.3947    1.7625 H   0  0  0  0  0  0  0  0  0  0  0  0
   -9.7504    2.7626    3.1043 H   0  0  0  0  0  0  0  0  0  0  0  0
   -5.5942    2.2641    4.6215 H   0  0  0  0  0  0  0  0  0  0  0  0
   -3.3492    1.8363    3.7777 H   0  0  0  0  0  0  0  0  0  0  0  0
   -2.6976    1.3494    0.1013 H   0  0  0  0  0  0  0  0  0  0  0  0
   -1.3104   -0.6985    0.1682 H   0  0  0  0  0  0  0  0  0  0  0  0
    0.7937   -2.4411    0.1637 H   0  0  0  0  0  0  0  0  0  0  0  0
    2.4262   -3.3412   -1.3984 H   0  0  0  0  0  0  0  0  0  0  0  0
    3.8659   -3.8650   -2.8823 H   0  0  0  0  0  0  0  0  0  0  0  0
    4.8027   -3.2775   -4.2220 H   0  0  0  0  0  0  0  0  0  0  0  0
    4.9558   -3.7121   -0.6886 H   0  0  0  0  0  0  0  0  0  0  0  0
    6.7503   -2.8185    0.7498 H   0  0  0  0  0  0  0  0  0  0  0  0
    8.2635   -1.0406   -0.0924 H   0  0  0  0  0  0  0  0  0  0  0  0
    7.9699   -0.1611   -2.4091 H   0  0  0  0  0  0  0  0  0  0  0  0
    2.2477    0.2938   -3.7025 H   0  0  0  0  0  0  0  0  0  0  0  0
    0.5817    1.2051   -2.1451 H   0  0  0  0  0  0  0  0  0  0  0  0
   -4.9320    1.6621   -0.2438 H   0  0  0  0  0  0  0  0  0  0  0  0
   -7.1603    2.0907    0.6122 H   0  0  0  0  0  0  0  0  0  0  0  0
  1  2  1  0
  2  3  1  0
  3  4  2  0
  4  5  1  0
  5  6  2  0
  6  7  1  0
  7  8  1  0
  8  9  2  0
  8 10  1  0
 10 11  1  0
 11 12  3  0
 10 13  2  3
 13 14  1  0
 14 15  2  0
 15 16  1  0
 16 17  2  0
 17 18  1  0
 18 19  1  0
 19 20  1  0
 20 21  2  0
 21 22  1  0
 22 23  2  0
 23 24  1  0
 24 25  2  0
 25 26  1  0
 17 27  1  0
 27 28  2  0
  6 29  1  0
 29 30  2  0
 30  3  1  0
 28 14  1  0
 25 20  1  0
  1 31  1  0
  1 32  1  0
  1 33  1  0
  4 34  1  0
  5 35  1  0
  7 36  1  0
 13 37  1  0
 15 38  1  0
 16 39  1  0
 19 40  1  0
 19 41  1  0
 21 42  1  0
 22 43  1  0
 23 44  1  0
 24 45  1  0
 27 46  1  0
 28 47  1  0
 29 48  1  0
 30 49  1  0
M  END
$$$$
