
     RDKit          3D

 61 64  0  0  0  0  0  0  0  0999 V2000
  -10.4210   -1.0518    0.8282 C   0  0  0  0  0  0  0  0  0  0  0  0
   -9.0984   -1.0375    0.2885 O   0  0  0  0  0  0  0  0  0  0  0  0
   -8.6105    0.2061    0.0531 C   0  0  0  0  0  0  0  0  0  0  0  0
   -9.2080    1.2535    0.2475 O   0  0  0  0  0  0  0  0  0  0  0  0
   -7.2234    0.1348   -0.4821 C   0  0  0  0  0  0  0  0  0  0  0  0
   -6.5573    1.3368   -0.7524 C   0  0  0  0  0  0  0  0  0  0  0  0
   -5.2520    1.3228   -1.2492 C   0  0  0  0  0  0  0  0  0  0  0  0
   -4.5923    0.1075   -1.4877 C   0  0  0  0  0  0  0  0  0  0  0  0
   -3.1775    0.1000   -2.0298 C   0  0  0  0  0  0  0  0  0  0  0  0
   -2.1971    0.6822   -1.0956 N   0  0  0  0  0  0  0  0  0  0  0  0
   -1.9856   -0.1929    0.0703 C   0  0  0  0  0  0  0  0  0  0  0  0
   -0.9915    0.4257    1.0540 C   0  0  0  0  0  0  0  0  0  0  0  0
    0.3470    0.7399    0.3827 C   0  0  0  0  0  0  0  0  0  0  0  0
    0.9581   -0.5170    0.0464 O   0  0  0  0  0  0  0  0  0  0  0  0
    2.2832   -0.5201   -0.2855 C   0  0  0  0  0  0  0  0  0  0  0  0
    2.6589   -1.5057   -1.2049 C   0  0  0  0  0  0  0  0  0  0  0  0
    3.9841   -1.6199   -1.6297 C   0  0  0  0  0  0  0  0  0  0  0  0
    4.9517   -0.7623   -1.1118 C   0  0  0  0  0  0  0  0  0  0  0  0
    4.5864    0.1914   -0.1561 C   0  0  0  0  0  0  0  0  0  0  0  0
    5.5934    1.1060    0.4277 C   0  0  0  0  0  0  0  0  0  0  0  0
    5.3909    2.3160    0.3580 O   0  0  0  0  0  0  0  0  0  0  0  0
    6.7014    0.5572    1.0461 N   0  0  0  0  0  0  0  0  0  0  0  0
    6.9075   -0.8386    1.4133 C   0  0  0  0  0  0  0  0  0  0  0  0
    7.9688   -0.7917    2.5061 C   0  0  0  0  0  0  0  0  0  0  0  0
    8.7741    0.4522    2.1476 C   0  0  0  0  0  0  0  0  0  0  0  0
    7.7017    1.4140    1.6583 C   0  0  0  0  0  0  0  0  0  0  0  0
    3.2511    0.3285    0.2456 C   0  0  0  0  0  0  0  0  0  0  0  0
    0.1003    1.5828   -0.8700 C   0  0  0  0  0  0  0  0  0  0  0  0
   -0.9242    0.9244   -1.7947 C   0  0  0  0  0  0  0  0  0  0  0  0
   -5.2641   -1.0934   -1.2200 C   0  0  0  0  0  0  0  0  0  0  0  0
   -6.5697   -1.0819   -0.7188 C   0  0  0  0  0  0  0  0  0  0  0  0
  -10.6708   -2.0853    1.0838 H   0  0  0  0  0  0  0  0  0  0  0  0
  -11.1368   -0.6934    0.0817 H   0  0  0  0  0  0  0  0  0  0  0  0
  -10.4778   -0.4485    1.7405 H   0  0  0  0  0  0  0  0  0  0  0  0
   -7.0501    2.2913   -0.5736 H   0  0  0  0  0  0  0  0  0  0  0  0
   -4.7398    2.2639   -1.4390 H   0  0  0  0  0  0  0  0  0  0  0  0
   -2.8835   -0.9165   -2.3227 H   0  0  0  0  0  0  0  0  0  0  0  0
   -3.2019    0.6853   -2.9593 H   0  0  0  0  0  0  0  0  0  0  0  0
   -1.6344   -1.1843   -0.2438 H   0  0  0  0  0  0  0  0  0  0  0  0
   -2.9265   -0.3424    0.6116 H   0  0  0  0  0  0  0  0  0  0  0  0
   -1.4181    1.3454    1.4740 H   0  0  0  0  0  0  0  0  0  0  0  0
   -0.8361   -0.2737    1.8841 H   0  0  0  0  0  0  0  0  0  0  0  0
    0.9526    1.2904    1.1090 H   0  0  0  0  0  0  0  0  0  0  0  0
    1.9055   -2.1791   -1.6079 H   0  0  0  0  0  0  0  0  0  0  0  0
    4.2560   -2.3723   -2.3657 H   0  0  0  0  0  0  0  0  0  0  0  0
    5.9800   -0.8325   -1.4564 H   0  0  0  0  0  0  0  0  0  0  0  0
    5.9782   -1.3051    1.7527 H   0  0  0  0  0  0  0  0  0  0  0  0
    7.2850   -1.3674    0.5316 H   0  0  0  0  0  0  0  0  0  0  0  0
    8.5762   -1.7001    2.5426 H   0  0  0  0  0  0  0  0  0  0  0  0
    7.4938   -0.6559    3.4855 H   0  0  0  0  0  0  0  0  0  0  0  0
    9.3450    0.8507    2.9914 H   0  0  0  0  0  0  0  0  0  0  0  0
    9.4733    0.2198    1.3353 H   0  0  0  0  0  0  0  0  0  0  0  0
    7.2306    1.9438    2.4937 H   0  0  0  0  0  0  0  0  0  0  0  0
    8.0770    2.1478    0.9384 H   0  0  0  0  0  0  0  0  0  0  0  0
    3.0112    1.0853    0.9851 H   0  0  0  0  0  0  0  0  0  0  0  0
   -0.2613    2.5765   -0.5756 H   0  0  0  0  0  0  0  0  0  0  0  0
    1.0317    1.7316   -1.4277 H   0  0  0  0  0  0  0  0  0  0  0  0
   -0.5176   -0.0093   -2.2054 H   0  0  0  0  0  0  0  0  0  0  0  0
   -1.0944    1.6021   -2.6410 H   0  0  0  0  0  0  0  0  0  0  0  0
   -4.7711   -2.0475   -1.3925 H   0  0  0  0  0  0  0  0  0  0  0  0
   -7.0617   -2.0293   -0.5154 H   0  0  0  0  0  0  0  0  0  0  0  0
  1  2  1  0
  2  3  1  0
  3  4  2  0
  3  5  1  0
  5  6  2  0
  6  7  1  0
  7  8  2  0
  8  9  1  0
  9 10  1  0
 10 11  1  0
 11 12  1  0
 12 13  1  0
 13 14  1  0
 14 15  1  0
 15 16  2  0
 16 17  1  0
 17 18  2  0
 18 19  1  0
 19 20  1  0
 20 21  2  0
 20 22  1  0
 22 23  1  0
 23 24  1  0
 24 25  1  0
 25 26  1  0
 19 27  2  0
 13 28  1  0
 28 29  1  0
  8 30  1  0
 30 31  2  0
 31  5  1  0
 29 10  1  0
 27 15  1  0
 26 22  1  0
  1 32  1  0
  1 33  1  0
  1 34  1  0
  6 35  1  0
  7 36  1  0
  9 37  1  0
  9 38  1  0
 11 39  1  0
 11 40  1  0
 12 41  1  0
 12 42  1  0
 13 43  1  0
 16 44  1  0
 17 45  1  0
 18 46  1  0
 23 47  1  0
 23 48  1  0
 24 49  1  0
 24 50  1  0
 25 51  1  0
 25 52  1  0
 26 53  1  0
 26 54  1  0
 27 55  1  0
 28 56  1  0
 28 57  1  0
 29 58  1  0
 29 59  1  0
 30 60  1  0
 31 61  1  0
M  END
$$$$
