
     RDKit          3D

 60 63  0  0  0  0  0  0  0  0999 V2000
   -8.0128   -1.3772   -2.3927 O   0  0  0  0  0  0  0  0  0  0  0  0
   -7.8907   -1.4592   -1.1790 C   0  0  0  0  0  0  0  0  0  0  0  0
   -8.9677   -1.3136   -0.3905 O   0  0  0  0  0  0  0  0  0  0  0  0
   -6.5767   -1.6492   -0.4546 C   0  0  0  0  0  0  0  0  0  0  0  0
   -6.7188   -2.2089    0.9708 C   0  0  0  0  0  0  0  0  0  0  0  0
   -6.8307   -1.1671    2.0437 C   0  0  0  0  0  0  0  0  0  0  0  0
   -6.6446    0.1406    1.8274 C   0  0  0  0  0  0  0  0  0  0  0  0
   -6.2688    0.7082    0.4944 C   0  0  0  0  0  0  0  0  0  0  0  0
   -5.7782   -0.3328   -0.5278 C   0  0  0  0  0  0  0  0  0  0  0  0
   -4.2700   -0.5909   -0.4095 C   0  0  0  0  0  0  0  0  0  0  0  0
   -3.8264   -1.6850   -0.0765 O   0  0  0  0  0  0  0  0  0  0  0  0
   -3.5126    0.5237   -0.7397 N   0  0  0  0  0  0  0  0  0  0  0  0
   -2.1067    0.6341   -0.7653 C   0  0  0  0  0  0  0  0  0  0  0  0
   -1.2319   -0.4122   -0.4919 C   0  0  0  0  0  0  0  0  0  0  0  0
    0.1578   -0.2184   -0.5549 C   0  0  0  0  0  0  0  0  0  0  0  0
    0.7135    1.0265   -0.8748 C   0  0  0  0  0  0  0  0  0  0  0  0
    2.0918    1.2664   -0.9585 N   0  0  0  0  0  0  0  0  0  0  0  0
    2.5885    2.2315    0.0460 C   0  0  0  0  0  0  0  0  0  0  0  0
    4.0573    2.6248   -0.2465 C   0  0  0  0  0  0  0  0  0  0  0  0
    5.0029    1.4987   -0.4214 N   0  0  0  0  0  0  0  0  0  0  0  0
    5.2765    0.8330    0.8630 C   0  0  0  0  0  0  0  0  0  0  0  0
    6.3822   -0.1979    0.7790 C   0  0  0  0  0  0  0  0  0  0  0  0
    6.1448   -1.5324    1.1343 C   0  0  0  0  0  0  0  0  0  0  0  0
    7.1693   -2.4779    1.0574 C   0  0  0  0  0  0  0  0  0  0  0  0
    8.4403   -2.0990    0.6285 C   0  0  0  0  0  0  0  0  0  0  0  0
    8.6903   -0.7742    0.2781 C   0  0  0  0  0  0  0  0  0  0  0  0
    7.6677    0.1717    0.3549 C   0  0  0  0  0  0  0  0  0  0  0  0
    4.4331    0.5775   -1.4340 C   0  0  0  0  0  0  0  0  0  0  0  0
    2.9865    0.1073   -1.1545 C   0  0  0  0  0  0  0  0  0  0  0  0
   -0.1827    2.0696   -1.1484 C   0  0  0  0  0  0  0  0  0  0  0  0
   -1.5692    1.8800   -1.0987 C   0  0  0  0  0  0  0  0  0  0  0  0
   -9.7121   -1.1833   -1.0159 H   0  0  0  0  0  0  0  0  0  0  0  0
   -6.0679   -2.4292   -1.0397 H   0  0  0  0  0  0  0  0  0  0  0  0
   -5.8428   -2.8263    1.2076 H   0  0  0  0  0  0  0  0  0  0  0  0
   -7.5849   -2.8793    1.0332 H   0  0  0  0  0  0  0  0  0  0  0  0
   -7.0861   -1.5154    3.0413 H   0  0  0  0  0  0  0  0  0  0  0  0
   -6.7676    0.8398    2.6508 H   0  0  0  0  0  0  0  0  0  0  0  0
   -7.1517    1.2193    0.0907 H   0  0  0  0  0  0  0  0  0  0  0  0
   -5.5127    1.4838    0.6565 H   0  0  0  0  0  0  0  0  0  0  0  0
   -5.9114    0.1012   -1.5296 H   0  0  0  0  0  0  0  0  0  0  0  0
   -4.0172    1.3601   -1.0055 H   0  0  0  0  0  0  0  0  0  0  0  0
   -1.5894   -1.4043   -0.2353 H   0  0  0  0  0  0  0  0  0  0  0  0
    0.7867   -1.0723   -0.3261 H   0  0  0  0  0  0  0  0  0  0  0  0
    2.5105    1.7964    1.0496 H   0  0  0  0  0  0  0  0  0  0  0  0
    1.9932    3.1516    0.0438 H   0  0  0  0  0  0  0  0  0  0  0  0
    4.0766    3.2190   -1.1685 H   0  0  0  0  0  0  0  0  0  0  0  0
    4.4175    3.2962    0.5405 H   0  0  0  0  0  0  0  0  0  0  0  0
    4.3734    0.3787    1.2874 H   0  0  0  0  0  0  0  0  0  0  0  0
    5.6102    1.5784    1.5980 H   0  0  0  0  0  0  0  0  0  0  0  0
    5.1614   -1.8466    1.4724 H   0  0  0  0  0  0  0  0  0  0  0  0
    6.9748   -3.5108    1.3328 H   0  0  0  0  0  0  0  0  0  0  0  0
    9.2377   -2.8351    0.5671 H   0  0  0  0  0  0  0  0  0  0  0  0
    9.6791   -0.4766   -0.0602 H   0  0  0  0  0  0  0  0  0  0  0  0
    7.8681    1.2028    0.0725 H   0  0  0  0  0  0  0  0  0  0  0  0
    4.4447    1.1017   -2.3980 H   0  0  0  0  0  0  0  0  0  0  0  0
    5.0808   -0.2951   -1.5762 H   0  0  0  0  0  0  0  0  0  0  0  0
    2.6502   -0.4824   -2.0154 H   0  0  0  0  0  0  0  0  0  0  0  0
    2.9777   -0.5443   -0.2737 H   0  0  0  0  0  0  0  0  0  0  0  0
    0.2000    3.0472   -1.4332 H   0  0  0  0  0  0  0  0  0  0  0  0
   -2.2125    2.7272   -1.3234 H   0  0  0  0  0  0  0  0  0  0  0  0
  1  2  2  0
  2  3  1  0
  2  4  1  0
  4  5  1  0
  5  6  1  0
  6  7  2  0
  7  8  1  0
  8  9  1  0
  9 10  1  0
 10 11  2  0
 10 12  1  0
 12 13  1  0
 13 14  2  0
 14 15  1  0
 15 16  2  0
 16 17  1  0
 17 18  1  0
 18 19  1  0
 19 20  1  0
 20 21  1  0
 21 22  1  0
 22 23  2  0
 23 24  1  0
 24 25  2  0
 25 26  1  0
 26 27  2  0
 20 28  1  0
 28 29  1  0
 16 30  1  0
 30 31  2  0
  9  4  1  0
 31 13  1  0
 29 17  1  0
 27 22  1  0
  3 32  1  0
  4 33  1  0
  5 34  1  0
  5 35  1  0
  6 36  1  0
  7 37  1  0
  8 38  1  0
  8 39  1  0
  9 40  1  0
 12 41  1  0
 14 42  1  0
 15 43  1  0
 18 44  1  0
 18 45  1  0
 19 46  1  0
 19 47  1  0
 21 48  1  0
 21 49  1  0
 23 50  1  0
 24 51  1  0
 25 52  1  0
 26 53  1  0
 27 54  1  0
 28 55  1  0
 28 56  1  0
 29 57  1  0
 29 58  1  0
 30 59  1  0
 31 60  1  0
M  END
$$$$
