
     RDKit          3D

 45 47  0  0  0  0  0  0  0  0999 V2000
    7.5871   -0.4850    0.1235 C   0  0  0  0  0  0  0  0  0  0  0  0
    6.1022   -0.5373    0.1126 C   0  0  0  0  0  0  0  0  0  0  0  0
    5.4164   -1.2610   -0.8310 N   0  0  0  0  0  0  0  0  0  0  0  0
    4.0601   -1.1546   -0.6331 C   0  0  0  0  0  0  0  0  0  0  0  0
    2.9983   -1.7256   -1.3443 C   0  0  0  0  0  0  0  0  0  0  0  0
    1.6991   -1.4426   -0.9080 C   0  0  0  0  0  0  0  0  0  0  0  0
    1.4757   -0.6115    0.1955 C   0  0  0  0  0  0  0  0  0  0  0  0
    0.0992   -0.2969    0.6695 C   0  0  0  0  0  0  0  0  0  0  0  0
   -0.1063   -0.0330    1.8483 O   0  0  0  0  0  0  0  0  0  0  0  0
   -0.8883   -0.2834   -0.2974 N   0  0  0  0  0  0  0  0  0  0  0  0
   -2.2276    0.1771    0.0335 C   0  0  0  0  0  0  0  0  0  0  0  0
   -3.2564   -0.2626   -1.0243 C   0  0  0  0  0  0  0  0  0  0  0  0
   -4.6557    0.1473   -0.8454 N   0  0  0  0  0  0  0  0  0  0  0  0
   -4.8428    1.6097   -0.8643 C   0  0  0  0  0  0  0  0  0  0  0  0
   -6.3327    1.9702   -0.7377 C   0  0  0  0  0  0  0  0  0  0  0  0
   -6.8969    1.4280    0.4644 O   0  0  0  0  0  0  0  0  0  0  0  0
   -6.7478    0.0010    0.4794 C   0  0  0  0  0  0  0  0  0  0  0  0
   -5.2676   -0.4052    0.3783 C   0  0  0  0  0  0  0  0  0  0  0  0
    2.5576   -0.0654    0.9039 C   0  0  0  0  0  0  0  0  0  0  0  0
    3.8743   -0.3360    0.4788 C   0  0  0  0  0  0  0  0  0  0  0  0
    5.1694    0.0536    0.9497 C   0  0  0  0  0  0  0  0  0  0  0  0
    5.4398    0.9280    2.1235 C   0  0  0  0  0  0  0  0  0  0  0  0
    8.0192   -1.0783   -0.6888 H   0  0  0  0  0  0  0  0  0  0  0  0
    7.9319    0.5475    0.0082 H   0  0  0  0  0  0  0  0  0  0  0  0
    7.9744   -0.8753    1.0700 H   0  0  0  0  0  0  0  0  0  0  0  0
    5.8432   -1.8023   -1.5697 H   0  0  0  0  0  0  0  0  0  0  0  0
    3.1711   -2.3748   -2.1967 H   0  0  0  0  0  0  0  0  0  0  0  0
    0.8666   -1.9075   -1.4299 H   0  0  0  0  0  0  0  0  0  0  0  0
   -0.5878   -0.1898   -1.2588 H   0  0  0  0  0  0  0  0  0  0  0  0
   -2.1748    1.2684    0.1045 H   0  0  0  0  0  0  0  0  0  0  0  0
   -2.4927   -0.2137    1.0213 H   0  0  0  0  0  0  0  0  0  0  0  0
   -2.9212    0.0944   -2.0075 H   0  0  0  0  0  0  0  0  0  0  0  0
   -3.2265   -1.3576   -1.1057 H   0  0  0  0  0  0  0  0  0  0  0  0
   -4.4564    2.0271   -1.8008 H   0  0  0  0  0  0  0  0  0  0  0  0
   -4.3014    2.0758   -0.0323 H   0  0  0  0  0  0  0  0  0  0  0  0
   -6.9048    1.6084   -1.6008 H   0  0  0  0  0  0  0  0  0  0  0  0
   -6.4479    3.0579   -0.6950 H   0  0  0  0  0  0  0  0  0  0  0  0
   -7.1686   -0.3648    1.4215 H   0  0  0  0  0  0  0  0  0  0  0  0
   -7.3362   -0.4321   -0.3386 H   0  0  0  0  0  0  0  0  0  0  0  0
   -5.2009   -1.4989    0.3728 H   0  0  0  0  0  0  0  0  0  0  0  0
   -4.7454   -0.0344    1.2683 H   0  0  0  0  0  0  0  0  0  0  0  0
    2.3822    0.5649    1.7720 H   0  0  0  0  0  0  0  0  0  0  0  0
    4.9604    1.9032    1.9902 H   0  0  0  0  0  0  0  0  0  0  0  0
    5.0466    0.4702    3.0369 H   0  0  0  0  0  0  0  0  0  0  0  0
    6.5117    1.0968    2.2651 H   0  0  0  0  0  0  0  0  0  0  0  0
  1  2  1  0
  2  3  1  0
  3  4  1  0
  4  5  2  0
  5  6  1  0
  6  7  2  0
  7  8  1  0
  8  9  2  0
  8 10  1  0
 10 11  1  0
 11 12  1  0
 12 13  1  0
 13 14  1  0
 14 15  1  0
 15 16  1  0
 16 17  1  0
 17 18  1  0
  7 19  1  0
 19 20  2  0
 20 21  1  0
 21 22  1  0
 21  2  2  0
 20  4  1  0
 18 13  1  0
  1 23  1  0
  1 24  1  0
  1 25  1  0
  3 26  1  0
  5 27  1  0
  6 28  1  0
 10 29  1  0
 11 30  1  0
 11 31  1  0
 12 32  1  0
 12 33  1  0
 14 34  1  0
 14 35  1  0
 15 36  1  0
 15 37  1  0
 17 38  1  0
 17 39  1  0
 18 40  1  0
 18 41  1  0
 19 42  1  0
 22 43  1  0
 22 44  1  0
 22 45  1  0
M  END
$$$$
