
     RDKit          3D

 35 37  0  0  0  0  0  0  0  0999 V2000
    2.2713   -1.4939    1.1124 O   0  0  0  0  0  0  0  0  0  0  0  0
    1.9984   -0.6755    0.2421 C   0  0  0  0  0  0  0  0  0  0  0  0
    0.7290   -0.1841    0.0381 N   0  0  0  0  0  0  0  0  0  0  0  0
   -0.4143   -0.6684    0.8035 C   0  0  0  0  0  0  0  0  0  0  0  0
   -0.9050   -1.9896    0.1887 C   0  0  0  0  0  0  0  0  0  0  0  0
   -2.2774   -2.3702    0.7234 C   0  0  0  0  0  0  0  0  0  0  0  0
   -3.3021   -1.3139    0.3232 C   0  0  0  0  0  0  0  0  0  0  0  0
   -2.8557    0.0857    0.6661 C   0  0  0  0  0  0  0  0  0  0  0  0
   -3.8215    1.1020    0.7430 C   0  0  0  0  0  0  0  0  0  0  0  0
   -3.4574    2.4081    1.0658 C   0  0  0  0  0  0  0  0  0  0  0  0
   -2.1247    2.7140    1.3180 C   0  0  0  0  0  0  0  0  0  0  0  0
   -1.1540    1.7163    1.2307 C   0  0  0  0  0  0  0  0  0  0  0  0
   -1.4981    0.3977    0.8769 C   0  0  0  0  0  0  0  0  0  0  0  0
    3.0719   -0.1534   -0.6360 C   0  0  0  0  0  0  0  0  0  0  0  0
    4.3873   -0.2298   -0.1867 C   0  0  0  0  0  0  0  0  0  0  0  0
    5.4577    0.2160   -0.8931 N   0  0  0  0  0  0  0  0  0  0  0  0
    5.2004    0.7476   -2.1105 C   0  0  0  0  0  0  0  0  0  0  0  0
    3.9255    0.8490   -2.6473 C   0  0  0  0  0  0  0  0  0  0  0  0
    3.6604    1.5897   -4.3614 Br  0  0  0  0  0  0  0  0  0  0  0  0
    2.8413    0.3898   -1.9028 C   0  0  0  0  0  0  0  0  0  0  0  0
    0.5390    0.5103   -0.6691 H   0  0  0  0  0  0  0  0  0  0  0  0
   -0.0865   -0.8683    1.8325 H   0  0  0  0  0  0  0  0  0  0  0  0
   -0.1862   -2.7900    0.4020 H   0  0  0  0  0  0  0  0  0  0  0  0
   -0.9555   -1.9054   -0.9057 H   0  0  0  0  0  0  0  0  0  0  0  0
   -2.5800   -3.3452    0.3253 H   0  0  0  0  0  0  0  0  0  0  0  0
   -2.2367   -2.4651    1.8158 H   0  0  0  0  0  0  0  0  0  0  0  0
   -4.2503   -1.5379    0.8265 H   0  0  0  0  0  0  0  0  0  0  0  0
   -3.4804   -1.3627   -0.7582 H   0  0  0  0  0  0  0  0  0  0  0  0
   -4.8701    0.8752    0.5605 H   0  0  0  0  0  0  0  0  0  0  0  0
   -4.2162    3.1834    1.1317 H   0  0  0  0  0  0  0  0  0  0  0  0
   -1.8405    3.7275    1.5886 H   0  0  0  0  0  0  0  0  0  0  0  0
   -0.1186    1.9714    1.4498 H   0  0  0  0  0  0  0  0  0  0  0  0
    4.6283   -0.6585    0.7841 H   0  0  0  0  0  0  0  0  0  0  0  0
    6.0766    1.0921   -2.6528 H   0  0  0  0  0  0  0  0  0  0  0  0
    1.8437    0.4358   -2.3252 H   0  0  0  0  0  0  0  0  0  0  0  0
  1  2  2  0
  2  3  1  0
  3  4  1  0
  4  5  1  0
  5  6  1  0
  6  7  1  0
  7  8  1  0
  8  9  2  0
  9 10  1  0
 10 11  2  0
 11 12  1  0
 12 13  2  0
  2 14  1  0
 14 15  2  0
 15 16  1  0
 16 17  2  0
 17 18  1  0
 18 19  1  0
 18 20  2  0
 13  4  1  0
 20 14  1  0
 13  8  1  0
  3 21  1  0
  4 22  1  0
  5 23  1  0
  5 24  1  0
  6 25  1  0
  6 26  1  0
  7 27  1  0
  7 28  1  0
  9 29  1  0
 10 30  1  0
 11 31  1  0
 12 32  1  0
 15 33  1  0
 17 34  1  0
 20 35  1  0
M  END
$$$$
