
     RDKit          3D

 36 37  0  0  0  0  0  0  0  0999 V2000
    0.9199    2.1291   -1.0633 C   0  0  0  0  0  0  0  0  0  0  0  0
    1.3573    1.0423   -0.2542 O   0  0  0  0  0  0  0  0  0  0  0  0
    2.3385    0.2376   -0.7769 C   0  0  0  0  0  0  0  0  0  0  0  0
    3.0074    0.4781   -1.9823 C   0  0  0  0  0  0  0  0  0  0  0  0
    3.9852   -0.4084   -2.4409 C   0  0  0  0  0  0  0  0  0  0  0  0
    4.3012   -1.5433   -1.7019 C   0  0  0  0  0  0  0  0  0  0  0  0
    3.6453   -1.7904   -0.4983 C   0  0  0  0  0  0  0  0  0  0  0  0
    2.6700   -0.9002   -0.0182 C   0  0  0  0  0  0  0  0  0  0  0  0
    1.9676   -1.2163    1.2810 C   0  0  0  0  0  0  0  0  0  0  0  0
    0.6619   -1.9607    1.0619 C   0  0  0  0  0  0  0  0  0  0  0  0
    0.6357   -3.1860    0.9930 O   0  0  0  0  0  0  0  0  0  0  0  0
   -0.4263   -1.1121    0.9543 N   0  0  0  0  0  0  0  0  0  0  0  0
   -1.7457   -1.4795    0.7786 C   0  0  0  0  0  0  0  0  0  0  0  0
   -2.1504   -2.6303    0.6551 O   0  0  0  0  0  0  0  0  0  0  0  0
   -2.7371   -0.3565    0.7172 C   0  0  0  0  0  0  0  0  0  0  0  0
   -4.0214   -0.6575    0.2339 C   0  0  0  0  0  0  0  0  0  0  0  0
   -5.0048    0.3304    0.1508 C   0  0  0  0  0  0  0  0  0  0  0  0
   -4.7188    1.6321    0.5547 C   0  0  0  0  0  0  0  0  0  0  0  0
   -3.4513    1.9489    1.0439 C   0  0  0  0  0  0  0  0  0  0  0  0
   -2.4673    0.9587    1.1269 C   0  0  0  0  0  0  0  0  0  0  0  0
   -1.2349    1.2971    1.6232 O   0  0  0  0  0  0  0  0  0  0  0  0
    1.7236    2.8578   -1.2115 H   0  0  0  0  0  0  0  0  0  0  0  0
    0.1093    2.6367   -0.5321 H   0  0  0  0  0  0  0  0  0  0  0  0
    0.5194    1.7756   -2.0192 H   0  0  0  0  0  0  0  0  0  0  0  0
    2.7921    1.3464   -2.5956 H   0  0  0  0  0  0  0  0  0  0  0  0
    4.4953   -0.2154   -3.3813 H   0  0  0  0  0  0  0  0  0  0  0  0
    5.0523   -2.2405   -2.0643 H   0  0  0  0  0  0  0  0  0  0  0  0
    3.8892   -2.6910    0.0629 H   0  0  0  0  0  0  0  0  0  0  0  0
    1.7966   -0.3017    1.8619 H   0  0  0  0  0  0  0  0  0  0  0  0
    2.6069   -1.8388    1.9203 H   0  0  0  0  0  0  0  0  0  0  0  0
   -0.2383   -0.1155    1.0058 H   0  0  0  0  0  0  0  0  0  0  0  0
   -4.2618   -1.6720   -0.0824 H   0  0  0  0  0  0  0  0  0  0  0  0
   -5.9934    0.0786   -0.2263 H   0  0  0  0  0  0  0  0  0  0  0  0
   -5.4873    2.3993    0.4916 H   0  0  0  0  0  0  0  0  0  0  0  0
   -3.2526    2.9706    1.3549 H   0  0  0  0  0  0  0  0  0  0  0  0
   -1.2833    2.1970    1.9938 H   0  0  0  0  0  0  0  0  0  0  0  0
  1  2  1  0
  2  3  1  0
  3  4  2  0
  4  5  1  0
  5  6  2  0
  6  7  1  0
  7  8  2  0
  8  9  1  0
  9 10  1  0
 10 11  2  0
 10 12  1  0
 12 13  1  0
 13 14  2  0
 13 15  1  0
 15 16  2  0
 16 17  1  0
 17 18  2  0
 18 19  1  0
 19 20  2  0
 20 21  1  0
  8  3  1  0
 20 15  1  0
  1 22  1  0
  1 23  1  0
  1 24  1  0
  4 25  1  0
  5 26  1  0
  6 27  1  0
  7 28  1  0
  9 29  1  0
  9 30  1  0
 12 31  1  0
 16 32  1  0
 17 33  1  0
 18 34  1  0
 19 35  1  0
 21 36  1  0
M  END
$$$$
