
     RDKit          3D

 46 49  0  0  0  0  0  0  0  0999 V2000
    6.2271    0.8277    1.4869 N   0  0  0  0  0  0  0  0  0  0  0  0
    6.0640   -0.4322    0.3800 S   0  0  0  0  0  6  0  0  0  0  0  0
    6.6944   -0.0186   -0.8515 O   0  0  0  0  0  0  0  0  0  0  0  0
    6.4502   -1.6315    1.0877 O   0  0  0  0  0  0  0  0  0  0  0  0
    4.3102   -0.4575    0.1399 C   0  0  0  0  0  0  0  0  0  0  0  0
    3.7442    0.2713   -0.9042 C   0  0  0  0  0  0  0  0  0  0  0  0
    2.3552    0.2599   -1.0804 C   0  0  0  0  0  0  0  0  0  0  0  0
    1.5074   -0.4731   -0.2330 C   0  0  0  0  0  0  0  0  0  0  0  0
    0.1223   -0.4829   -0.3863 N   0  0  0  0  0  0  0  0  0  0  0  0
   -0.6696   -1.2123    0.4546 N   0  0  0  0  0  0  0  0  0  0  0  0
   -1.8745   -1.1822   -0.0294 C   0  0  0  0  0  0  0  0  0  0  0  0
   -3.0275   -1.8421    0.6269 C   0  0  0  0  0  0  0  0  0  0  0  0
   -4.3005   -1.8438    0.0453 C   0  0  0  0  0  0  0  0  0  0  0  0
   -5.3658   -2.4730    0.6952 C   0  0  0  0  0  0  0  0  0  0  0  0
   -5.1645   -3.1036    1.9222 C   0  0  0  0  0  0  0  0  0  0  0  0
   -3.8976   -3.1090    2.5034 C   0  0  0  0  0  0  0  0  0  0  0  0
   -2.8314   -2.4796    1.8585 C   0  0  0  0  0  0  0  0  0  0  0  0
   -2.0172   -0.4524   -1.3370 C   0  0  0  0  0  0  0  0  0  0  0  0
   -0.6339    0.1916   -1.4446 C   0  0  0  0  0  0  0  0  0  0  0  0
   -0.7212    1.7002   -1.2622 C   0  0  0  0  0  0  0  0  0  0  0  0
   -0.7862    2.5297   -2.3940 C   0  0  0  0  0  0  0  0  0  0  0  0
   -0.8909    3.9154   -2.2585 C   0  0  0  0  0  0  0  0  0  0  0  0
   -0.9390    4.4907   -0.9910 C   0  0  0  0  0  0  0  0  0  0  0  0
   -0.8863    3.6821    0.1416 C   0  0  0  0  0  0  0  0  0  0  0  0
   -0.7825    2.2967    0.0079 C   0  0  0  0  0  0  0  0  0  0  0  0
    2.1201   -1.2076    0.8002 C   0  0  0  0  0  0  0  0  0  0  0  0
    3.5060   -1.2112    0.9897 C   0  0  0  0  0  0  0  0  0  0  0  0
    6.5672    0.4487    2.3719 H   0  0  0  0  0  0  0  0  0  0  0  0
    5.3699    1.3674    1.6030 H   0  0  0  0  0  0  0  0  0  0  0  0
    4.3670    0.8501   -1.5833 H   0  0  0  0  0  0  0  0  0  0  0  0
    1.9493    0.8494   -1.8979 H   0  0  0  0  0  0  0  0  0  0  0  0
   -4.4898   -1.3672   -0.9111 H   0  0  0  0  0  0  0  0  0  0  0  0
   -6.3547   -2.4739    0.2423 H   0  0  0  0  0  0  0  0  0  0  0  0
   -5.9944   -3.5947    2.4250 H   0  0  0  0  0  0  0  0  0  0  0  0
   -3.7370   -3.6041    3.4582 H   0  0  0  0  0  0  0  0  0  0  0  0
   -1.8473   -2.4905    2.3233 H   0  0  0  0  0  0  0  0  0  0  0  0
   -2.1684   -1.1893   -2.1325 H   0  0  0  0  0  0  0  0  0  0  0  0
   -2.8447    0.2613   -1.3262 H   0  0  0  0  0  0  0  0  0  0  0  0
   -0.2016   -0.0392   -2.4266 H   0  0  0  0  0  0  0  0  0  0  0  0
   -0.7518    2.1017   -3.3940 H   0  0  0  0  0  0  0  0  0  0  0  0
   -0.9330    4.5473   -3.1425 H   0  0  0  0  0  0  0  0  0  0  0  0
   -1.0177    5.5698   -0.8855 H   0  0  0  0  0  0  0  0  0  0  0  0
   -0.9233    4.1278    1.1319 H   0  0  0  0  0  0  0  0  0  0  0  0
   -0.7393    1.6810    0.9056 H   0  0  0  0  0  0  0  0  0  0  0  0
    1.5019   -1.7957    1.4759 H   0  0  0  0  0  0  0  0  0  0  0  0
    3.9353   -1.8027    1.7948 H   0  0  0  0  0  0  0  0  0  0  0  0
  1  2  1  0
  2  3  2  0
  2  4  2  0
  2  5  1  0
  5  6  2  0
  6  7  1  0
  7  8  2  0
  8  9  1  0
  9 10  1  0
 10 11  2  0
 11 12  1  0
 12 13  2  0
 13 14  1  0
 14 15  2  0
 15 16  1  0
 16 17  2  0
 11 18  1  0
 18 19  1  0
 19 20  1  0
 20 21  2  0
 21 22  1  0
 22 23  2  0
 23 24  1  0
 24 25  2  0
  8 26  1  0
 26 27  2  0
 27  5  1  0
 19  9  1  0
 25 20  1  0
 17 12  1  0
  1 28  1  0
  1 29  1  0
  6 30  1  0
  7 31  1  0
 13 32  1  0
 14 33  1  0
 15 34  1  0
 16 35  1  0
 17 36  1  0
 18 37  1  0
 18 38  1  0
 19 39  1  0
 21 40  1  0
 22 41  1  0
 23 42  1  0
 24 43  1  0
 25 44  1  0
 26 45  1  0
 27 46  1  0
M  END
$$$$
