
     RDKit          3D

 42 44  0  0  0  0  0  0  0  0999 V2000
   -5.8882   -0.4697   -2.2238 C   0  0  0  0  0  0  0  0  0  0  0  0
   -5.1205   -1.1760   -1.1407 C   0  0  0  0  0  0  0  0  0  0  0  0
   -5.4908   -2.4750   -0.7604 C   0  0  0  0  0  0  0  0  0  0  0  0
   -4.7839   -3.1506    0.2324 C   0  0  0  0  0  0  0  0  0  0  0  0
   -3.6973   -2.5372    0.8477 C   0  0  0  0  0  0  0  0  0  0  0  0
   -3.3174   -1.2448    0.4767 C   0  0  0  0  0  0  0  0  0  0  0  0
   -4.0285   -0.5529   -0.5087 C   0  0  0  0  0  0  0  0  0  0  0  0
   -3.7327    0.7113   -0.9458 O   0  0  0  0  0  0  0  0  0  0  0  0
   -2.9015    1.5192   -0.1312 C   0  0  0  0  0  0  0  0  0  0  0  0
   -1.3928    1.3487   -0.3495 C   0  0  0  0  0  0  0  0  0  0  0  0
   -0.8969    0.7485   -1.2986 O   0  0  0  0  0  0  0  0  0  0  0  0
   -0.6206    1.9322    0.6393 N   0  0  0  0  0  0  0  0  0  0  0  0
    0.8301    1.8806    0.5891 C   0  0  0  0  0  0  0  0  0  0  0  0
    1.3791    0.5027    0.9598 C   0  0  0  0  0  0  0  0  0  0  0  0
    2.8540    0.4546    0.7750 C   0  0  0  0  0  0  0  0  0  0  0  0
    3.7677    0.8823    1.6213 N   0  0  0  0  0  0  0  0  0  0  0  0
    4.9752    0.6380    1.0127 C   0  0  0  0  0  0  0  0  0  0  0  0
    6.2771    0.8906    1.4676 C   0  0  0  0  0  0  0  0  0  0  0  0
    7.3557    0.5437    0.6433 C   0  0  0  0  0  0  0  0  0  0  0  0
    7.1415   -0.0405   -0.6078 C   0  0  0  0  0  0  0  0  0  0  0  0
    5.8491   -0.3003   -1.0782 C   0  0  0  0  0  0  0  0  0  0  0  0
    4.7933    0.0534   -0.2355 C   0  0  0  0  0  0  0  0  0  0  0  0
    3.4327   -0.0534   -0.3630 N   0  0  0  0  0  0  0  0  0  0  0  0
   -6.7333   -1.0707   -2.5752 H   0  0  0  0  0  0  0  0  0  0  0  0
   -6.2912    0.4768   -1.8499 H   0  0  0  0  0  0  0  0  0  0  0  0
   -5.2378   -0.2753   -3.0820 H   0  0  0  0  0  0  0  0  0  0  0  0
   -6.3320   -2.9694   -1.2406 H   0  0  0  0  0  0  0  0  0  0  0  0
   -5.0758   -4.1577    0.5180 H   0  0  0  0  0  0  0  0  0  0  0  0
   -3.1364   -3.0689    1.6122 H   0  0  0  0  0  0  0  0  0  0  0  0
   -2.4481   -0.8186    0.9646 H   0  0  0  0  0  0  0  0  0  0  0  0
   -3.1530    1.4104    0.9314 H   0  0  0  0  0  0  0  0  0  0  0  0
   -3.1286    2.5597   -0.3938 H   0  0  0  0  0  0  0  0  0  0  0  0
   -1.0602    2.4183    1.4109 H   0  0  0  0  0  0  0  0  0  0  0  0
    1.1444    2.1623   -0.4234 H   0  0  0  0  0  0  0  0  0  0  0  0
    1.2066    2.6455    1.2774 H   0  0  0  0  0  0  0  0  0  0  0  0
    1.1346    0.2782    2.0052 H   0  0  0  0  0  0  0  0  0  0  0  0
    0.9037   -0.2822    0.3596 H   0  0  0  0  0  0  0  0  0  0  0  0
    6.4348    1.3423    2.4399 H   0  0  0  0  0  0  0  0  0  0  0  0
    8.3704    0.7322    0.9844 H   0  0  0  0  0  0  0  0  0  0  0  0
    7.9967   -0.3003   -1.2290 H   0  0  0  0  0  0  0  0  0  0  0  0
    5.6837   -0.7555   -2.0485 H   0  0  0  0  0  0  0  0  0  0  0  0
    2.9374   -0.4327   -1.1582 H   0  0  0  0  0  0  0  0  0  0  0  0
  1  2  1  0
  2  3  2  0
  3  4  1  0
  4  5  2  0
  5  6  1  0
  6  7  2  0
  7  8  1  0
  8  9  1  0
  9 10  1  0
 10 11  2  0
 10 12  1  0
 12 13  1  0
 13 14  1  0
 14 15  1  0
 15 16  2  0
 16 17  1  0
 17 18  2  0
 18 19  1  0
 19 20  2  0
 20 21  1  0
 21 22  2  0
 22 23  1  0
  7  2  1  0
 23 15  1  0
 22 17  1  0
  1 24  1  0
  1 25  1  0
  1 26  1  0
  3 27  1  0
  4 28  1  0
  5 29  1  0
  6 30  1  0
  9 31  1  0
  9 32  1  0
 12 33  1  0
 13 34  1  0
 13 35  1  0
 14 36  1  0
 14 37  1  0
 18 38  1  0
 19 39  1  0
 20 40  1  0
 21 41  1  0
 23 42  1  0
M  END
$$$$
