
     RDKit          3D

 50 52  0  0  0  0  0  0  0  0999 V2000
   -3.9248   -0.0770    2.6308 C   0  0  0  0  0  0  0  0  0  0  0  0
   -2.7886   -0.7932    1.9063 C   0  0  0  0  0  0  0  0  0  0  0  0
   -2.7763   -0.5588    0.3757 C   0  0  0  0  0  0  0  0  0  0  0  0
   -4.0088   -1.0881   -0.3601 C   0  0  0  0  0  0  0  0  0  0  0  0
   -4.4237   -2.4216   -0.1723 C   0  0  0  0  0  0  0  0  0  0  0  0
   -5.5511   -2.9302   -0.8232 C   0  0  0  0  0  0  0  0  0  0  0  0
   -6.2829   -2.1208   -1.6865 C   0  0  0  0  0  0  0  0  0  0  0  0
   -5.8838   -0.8054   -1.9039 C   0  0  0  0  0  0  0  0  0  0  0  0
   -4.7576   -0.2943   -1.2492 C   0  0  0  0  0  0  0  0  0  0  0  0
   -2.5040    0.8428    0.0983 N   0  0  0  0  0  0  0  0  0  0  0  0
   -1.3081    1.0424   -0.5413 C   0  0  0  0  0  0  0  0  0  0  0  0
   -0.9169    2.1362   -0.9220 O   0  0  0  0  0  0  0  0  0  0  0  0
   -0.6832   -0.1536   -0.6855 N   0  0  0  0  0  0  0  0  0  0  0  0
    0.6057   -0.3270   -1.3150 C   0  0  0  0  0  0  0  0  0  0  0  0
    1.7020   -0.2267   -0.2495 C   0  0  0  0  0  0  0  0  0  0  0  0
    1.8745   -1.1811    0.5219 O   0  0  0  0  0  0  0  0  0  0  0  0
    2.4441    0.9443   -0.1239 N   0  0  0  0  0  0  0  0  0  0  0  0
    2.1884    2.1965   -0.8326 C   0  0  0  0  0  0  0  0  0  0  0  0
    3.4456    1.0127    0.9438 C   0  0  0  0  0  0  0  0  0  0  0  0
    4.8542    0.9189    0.4037 C   0  0  0  0  0  0  0  0  0  0  0  0
    5.6826    2.0525    0.3528 C   0  0  0  0  0  0  0  0  0  0  0  0
    6.9769    1.9613   -0.1659 C   0  0  0  0  0  0  0  0  0  0  0  0
    7.4573    0.7367   -0.6360 C   0  0  0  0  0  0  0  0  0  0  0  0
    6.6429   -0.3979   -0.5870 C   0  0  0  0  0  0  0  0  0  0  0  0
    5.3491   -0.3090   -0.0697 C   0  0  0  0  0  0  0  0  0  0  0  0
   -1.4735   -1.1717   -0.2159 C   0  0  0  0  0  0  0  0  0  0  0  0
   -1.2066   -2.3691   -0.2617 O   0  0  0  0  0  0  0  0  0  0  0  0
   -3.8563    1.0055    2.5072 H   0  0  0  0  0  0  0  0  0  0  0  0
   -3.8754   -0.2923    3.7026 H   0  0  0  0  0  0  0  0  0  0  0  0
   -4.9037   -0.4035    2.2689 H   0  0  0  0  0  0  0  0  0  0  0  0
   -2.8460   -1.8658    2.1367 H   0  0  0  0  0  0  0  0  0  0  0  0
   -1.8383   -0.4500    2.3413 H   0  0  0  0  0  0  0  0  0  0  0  0
   -3.8612   -3.0897    0.4774 H   0  0  0  0  0  0  0  0  0  0  0  0
   -5.8520   -3.9612   -0.6568 H   0  0  0  0  0  0  0  0  0  0  0  0
   -7.1572   -2.5167   -2.1973 H   0  0  0  0  0  0  0  0  0  0  0  0
   -6.4475   -0.1757   -2.5889 H   0  0  0  0  0  0  0  0  0  0  0  0
   -4.4766    0.7345   -1.4607 H   0  0  0  0  0  0  0  0  0  0  0  0
   -3.1401    1.6092    0.2693 H   0  0  0  0  0  0  0  0  0  0  0  0
    0.6673   -1.3269   -1.7560 H   0  0  0  0  0  0  0  0  0  0  0  0
    0.7242    0.3881   -2.1265 H   0  0  0  0  0  0  0  0  0  0  0  0
    3.1326    2.7261   -1.0108 H   0  0  0  0  0  0  0  0  0  0  0  0
    1.5445    2.8205   -0.2001 H   0  0  0  0  0  0  0  0  0  0  0  0
    1.7133    2.0461   -1.8002 H   0  0  0  0  0  0  0  0  0  0  0  0
    3.3020    0.2141    1.6809 H   0  0  0  0  0  0  0  0  0  0  0  0
    3.2973    1.9485    1.4960 H   0  0  0  0  0  0  0  0  0  0  0  0
    5.3262    3.0131    0.7182 H   0  0  0  0  0  0  0  0  0  0  0  0
    7.6116    2.8458   -0.2054 H   0  0  0  0  0  0  0  0  0  0  0  0
    8.4632    0.6699   -1.0415 H   0  0  0  0  0  0  0  0  0  0  0  0
    7.0175   -1.3568   -0.9489 H   0  0  0  0  0  0  0  0  0  0  0  0
    4.7210   -1.2013   -0.0362 H   0  0  0  0  0  0  0  0  0  0  0  0
  1  2  1  0
  2  3  1  0
  3  4  1  0
  4  5  2  0
  5  6  1  0
  6  7  2  0
  7  8  1  0
  8  9  2  0
  3 10  1  0
 10 11  1  0
 11 12  2  0
 11 13  1  0
 13 14  1  0
 14 15  1  0
 15 16  2  0
 15 17  1  0
 17 18  1  0
 17 19  1  0
 19 20  1  0
 20 21  2  0
 21 22  1  0
 22 23  2  0
 23 24  1  0
 24 25  2  0
 13 26  1  0
 26 27  2  0
 26  3  1  0
  9  4  1  0
 25 20  1  0
  1 28  1  0
  1 29  1  0
  1 30  1  0
  2 31  1  0
  2 32  1  0
  5 33  1  0
  6 34  1  0
  7 35  1  0
  8 36  1  0
  9 37  1  0
 10 38  1  0
 14 39  1  0
 14 40  1  0
 18 41  1  0
 18 42  1  0
 18 43  1  0
 19 44  1  0
 19 45  1  0
 21 46  1  0
 22 47  1  0
 23 48  1  0
 24 49  1  0
 25 50  1  0
M  END
$$$$
