
     RDKit          3D

 40 41  0  0  0  0  0  0  0  0999 V2000
   -3.4947   -0.6876    3.1910 C   0  0  0  0  0  0  0  0  0  0  0  0
   -3.9542    0.0757    2.0029 C   0  0  0  0  0  0  0  0  0  0  0  0
   -5.2517    0.3755    1.8716 N   0  0  0  0  0  0  0  0  0  0  0  0
   -5.3208    1.0552    0.7177 N   0  0  0  0  0  0  0  0  0  0  0  0
   -6.6055    1.5407    0.2687 C   0  0  0  0  0  0  0  0  0  0  0  0
   -4.1103    1.1938    0.0876 C   0  0  0  0  0  0  0  0  0  0  0  0
   -3.9585    1.8940   -1.2142 C   0  0  0  0  0  0  0  0  0  0  0  0
   -3.1832    0.5728    0.9147 C   0  0  0  0  0  0  0  0  0  0  0  0
   -1.7583    0.4806    0.6706 C   0  0  0  0  0  0  0  0  0  0  0  0
   -1.0103   -0.1492    1.5189 N   0  0  0  0  0  0  0  0  0  0  0  0
    0.3338   -0.2616    1.2637 N   0  0  0  0  0  0  0  0  0  0  0  0
    0.9037   -0.3958    0.0003 C   0  0  0  0  0  0  0  0  0  0  0  0
    0.3149   -0.2971   -1.0715 O   0  0  0  0  0  0  0  0  0  0  0  0
    2.3895   -0.6603    0.0840 C   0  0  0  0  0  0  0  0  0  0  0  0
    2.9705   -0.9124   -1.2999 C   0  0  0  0  0  0  0  0  0  0  0  0
    4.4104   -1.0951   -1.2590 N   0  0  0  0  0  0  0  0  0  0  0  0
    5.3535   -0.3105   -1.8575 C   0  0  0  0  0  0  0  0  0  0  0  0
    6.5694   -0.8840   -1.5441 C   0  0  0  0  0  0  0  0  0  0  0  0
    7.8654   -0.4342   -1.9411 N   0  0  0  0  0  4  0  0  0  0  0  0
    7.9194    0.5861   -2.6392 O   0  0  0  0  0  0  0  0  0  0  0  0
    8.8308   -1.1015   -1.5501 O   0  0  0  0  0  1  0  0  0  0  0  0
    6.2523   -2.0012   -0.7529 C   0  0  0  0  0  0  0  0  0  0  0  0
    4.9331   -2.1306   -0.5704 N   0  0  0  0  0  0  0  0  0  0  0  0
   -3.0284   -1.6295    2.8856 H   0  0  0  0  0  0  0  0  0  0  0  0
   -4.3284   -0.9303    3.8587 H   0  0  0  0  0  0  0  0  0  0  0  0
   -2.7680   -0.1042    3.7649 H   0  0  0  0  0  0  0  0  0  0  0  0
   -7.3182    1.5053    1.0971 H   0  0  0  0  0  0  0  0  0  0  0  0
   -6.4936    2.5732   -0.0709 H   0  0  0  0  0  0  0  0  0  0  0  0
   -6.9454    0.8987   -0.5474 H   0  0  0  0  0  0  0  0  0  0  0  0
   -3.9779    2.9783   -1.0656 H   0  0  0  0  0  0  0  0  0  0  0  0
   -4.7638    1.6239   -1.9050 H   0  0  0  0  0  0  0  0  0  0  0  0
   -3.0148    1.6348   -1.7026 H   0  0  0  0  0  0  0  0  0  0  0  0
   -1.3717    0.9923   -0.2240 H   0  0  0  0  0  0  0  0  0  0  0  0
    0.8557   -0.6235    2.0582 H   0  0  0  0  0  0  0  0  0  0  0  0
    2.8712    0.2091    0.5476 H   0  0  0  0  0  0  0  0  0  0  0  0
    2.5568   -1.5276    0.7336 H   0  0  0  0  0  0  0  0  0  0  0  0
    2.7628   -0.0738   -1.9748 H   0  0  0  0  0  0  0  0  0  0  0  0
    2.5468   -1.8167   -1.7526 H   0  0  0  0  0  0  0  0  0  0  0  0
    5.0961    0.5608   -2.4449 H   0  0  0  0  0  0  0  0  0  0  0  0
    6.9216   -2.7238   -0.3016 H   0  0  0  0  0  0  0  0  0  0  0  0
  1  2  1  0
  2  3  2  0
  3  4  1  0
  4  5  1  0
  4  6  1  0
  6  7  1  0
  6  8  2  0
  8  9  1  0
  9 10  2  3
 10 11  1  0
 11 12  1  0
 12 13  2  0
 12 14  1  0
 14 15  1  0
 15 16  1  0
 16 17  1  0
 17 18  2  0
 18 19  1  0
 19 20  2  0
 19 21  1  0
 18 22  1  0
 22 23  2  0
  8  2  1  0
 23 16  1  0
  1 24  1  0
  1 25  1  0
  1 26  1  0
  5 27  1  0
  5 28  1  0
  5 29  1  0
  7 30  1  0
  7 31  1  0
  7 32  1  0
  9 33  1  0
 11 34  1  0
 14 35  1  0
 14 36  1  0
 15 37  1  0
 15 38  1  0
 17 39  1  0
 22 40  1  0
M  CHG  2  19   1  21  -1
M  END
$$$$
