
     RDKit          3D

 47 49  0  0  0  0  0  0  0  0999 V2000
    2.1487    1.5249   -1.0195 O   0  0  0  0  0  0  0  0  0  0  0  0
    1.7223    0.3786   -0.9406 C   0  0  0  0  0  0  0  0  0  0  0  0
    0.3403    0.0348   -0.4347 C   0  0  0  0  0  0  0  0  0  0  0  0
   -0.4496    1.2993   -0.1074 C   0  0  0  0  0  0  0  0  0  0  0  0
   -1.7919    0.9873    0.3937 N   0  0  0  0  0  0  0  0  0  0  0  0
   -2.8046    0.7635   -0.5234 C   0  0  0  0  0  0  0  0  0  0  0  0
   -2.6855    0.7721   -1.7411 O   0  0  0  0  0  0  0  0  0  0  0  0
   -4.0815    0.4683    0.1778 C   0  0  0  0  0  0  0  0  0  0  0  0
   -5.2155    0.2339   -0.4964 C   0  0  0  0  0  0  0  0  0  0  0  0
   -6.5214   -0.0819    0.0911 C   0  0  0  0  0  0  0  0  0  0  0  0
   -7.1066   -1.3278   -0.1725 C   0  0  0  0  0  0  0  0  0  0  0  0
   -8.3569   -1.6443    0.3626 C   0  0  0  0  0  0  0  0  0  0  0  0
   -9.0205   -0.7128    1.1522 C   0  0  0  0  0  0  0  0  0  0  0  0
  -10.2201   -1.0173    1.6640 F   0  0  0  0  0  0  0  0  0  0  0  0
   -8.4597    0.5313    1.4147 C   0  0  0  0  0  0  0  0  0  0  0  0
   -7.2097    0.8501    0.8804 C   0  0  0  0  0  0  0  0  0  0  0  0
   -3.8312    0.4498    1.8755 S   0  0  0  0  0  0  0  0  0  0  0  0
   -2.1194    0.8278    1.7244 C   0  0  0  0  0  0  0  0  0  0  0  0
   -1.1175    0.9415    3.0526 S   0  0  0  0  0  0  0  0  0  0  0  0
    2.4607   -0.7299   -1.2986 N   0  0  0  0  0  0  0  0  0  0  0  0
    3.8260   -0.6102   -1.7661 C   0  0  0  0  0  0  0  0  0  0  0  0
    4.8100   -0.5098   -0.6055 C   0  0  0  0  0  0  0  0  0  0  0  0
    6.2333   -0.3096   -1.1148 C   0  0  0  0  0  0  0  0  0  0  0  0
    7.1975   -0.2717   -0.0346 N   0  0  0  0  0  0  0  0  0  0  0  0
    7.5546    0.8280    0.6925 C   0  0  0  0  0  0  0  0  0  0  0  0
    8.4971    0.3700    1.5837 C   0  0  0  0  0  0  0  0  0  0  0  0
    8.7205   -0.9719    1.4092 N   0  0  0  0  0  0  0  0  0  0  0  0
    7.9263   -1.3300    0.4256 C   0  0  0  0  0  0  0  0  0  0  0  0
   -0.1787   -0.5505   -1.2026 H   0  0  0  0  0  0  0  0  0  0  0  0
    0.4426   -0.5952    0.4560 H   0  0  0  0  0  0  0  0  0  0  0  0
   -0.5515    1.9149   -1.0102 H   0  0  0  0  0  0  0  0  0  0  0  0
    0.0860    1.9097    0.6272 H   0  0  0  0  0  0  0  0  0  0  0  0
   -5.2053    0.2514   -1.5858 H   0  0  0  0  0  0  0  0  0  0  0  0
   -6.5932   -2.0613   -0.7904 H   0  0  0  0  0  0  0  0  0  0  0  0
   -8.8163   -2.6083    0.1686 H   0  0  0  0  0  0  0  0  0  0  0  0
   -8.9982    1.2445    2.0306 H   0  0  0  0  0  0  0  0  0  0  0  0
   -6.7818    1.8292    1.0838 H   0  0  0  0  0  0  0  0  0  0  0  0
    2.0836   -1.6541   -1.1277 H   0  0  0  0  0  0  0  0  0  0  0  0
    3.9024    0.2724   -2.4111 H   0  0  0  0  0  0  0  0  0  0  0  0
    4.0377   -1.4958   -2.3744 H   0  0  0  0  0  0  0  0  0  0  0  0
    4.7496   -1.4186    0.0072 H   0  0  0  0  0  0  0  0  0  0  0  0
    4.5328    0.3211    0.0556 H   0  0  0  0  0  0  0  0  0  0  0  0
    6.5259   -1.1217   -1.7905 H   0  0  0  0  0  0  0  0  0  0  0  0
    6.3236    0.6321   -1.6687 H   0  0  0  0  0  0  0  0  0  0  0  0
    7.1257    1.8068    0.5292 H   0  0  0  0  0  0  0  0  0  0  0  0
    9.0264    0.9344    2.3405 H   0  0  0  0  0  0  0  0  0  0  0  0
    7.8430   -2.3289    0.0179 H   0  0  0  0  0  0  0  0  0  0  0  0
  1  2  2  0
  2  3  1  0
  3  4  1  0
  4  5  1  0
  5  6  1  0
  6  7  2  0
  6  8  1  0
  8  9  2  3
  9 10  1  0
 10 11  2  0
 11 12  1  0
 12 13  2  0
 13 14  1  0
 13 15  1  0
 15 16  2  0
  8 17  1  0
 17 18  1  0
 18 19  2  0
  2 20  1  0
 20 21  1  0
 21 22  1  0
 22 23  1  0
 23 24  1  0
 24 25  1  0
 25 26  2  0
 26 27  1  0
 27 28  2  0
 18  5  1  0
 28 24  1  0
 16 10  1  0
  3 29  1  0
  3 30  1  0
  4 31  1  0
  4 32  1  0
  9 33  1  0
 11 34  1  0
 12 35  1  0
 15 36  1  0
 16 37  1  0
 20 38  1  0
 21 39  1  0
 21 40  1  0
 22 41  1  0
 22 42  1  0
 23 43  1  0
 23 44  1  0
 25 45  1  0
 26 46  1  0
 28 47  1  0
M  END
$$$$
