
     RDKit          3D

 48 50  0  0  0  0  0  0  0  0999 V2000
   -0.5193   -1.9390    1.1657 C   0  0  0  0  0  0  0  0  0  0  0  0
   -0.1507   -0.9101    0.3890 C   0  0  0  0  0  0  0  0  0  0  0  0
    1.2278   -0.6167   -0.0696 C   0  0  0  0  0  0  0  0  0  0  0  0
    2.3231   -1.3585    0.1736 C   0  0  0  0  0  0  0  0  0  0  0  0
    3.6194   -1.0410   -0.3207 C   0  0  0  0  0  0  0  0  0  0  0  0
    4.9330   -0.8775    0.7863 S   0  0  0  0  0  0  0  0  0  0  0  0
    5.9839   -0.5316   -0.5025 C   0  0  0  0  0  0  0  0  0  0  0  0
    7.3157   -0.2511   -0.3363 N   0  0  0  0  0  0  0  0  0  0  0  0
    8.0189   -0.2164    0.8442 C   0  0  0  0  0  0  0  0  0  0  0  0
    9.4728    0.1272    0.6304 C   0  0  0  0  0  0  0  0  0  0  0  0
    7.5985   -0.4506    1.9714 O   0  0  0  0  0  0  0  0  0  0  0  0
    5.4520   -0.5460   -1.6991 N   0  0  0  0  0  0  0  0  0  0  0  0
    4.1170   -0.8555   -1.6043 C   0  0  0  0  0  0  0  0  0  0  0  0
    3.3579   -0.9759   -2.7103 O   0  0  0  0  0  0  0  0  0  0  0  0
    1.1727    0.6329   -0.8251 C   0  0  0  0  0  0  0  0  0  0  0  0
   -0.1130    1.0376   -0.8390 C   0  0  0  0  0  0  0  0  0  0  0  0
   -0.6170    2.2396   -1.5643 C   0  0  0  0  0  0  0  0  0  0  0  0
   -0.9336    0.1362   -0.1291 N   0  0  0  0  0  0  0  0  0  0  0  0
   -2.3424    0.2378   -0.0201 C   0  0  0  0  0  0  0  0  0  0  0  0
   -2.9436    1.3696    0.5431 C   0  0  0  0  0  0  0  0  0  0  0  0
   -4.3360    1.4679    0.6501 C   0  0  0  0  0  0  0  0  0  0  0  0
   -5.1627    0.4346    0.1952 C   0  0  0  0  0  0  0  0  0  0  0  0
   -6.5541    0.6117    0.3387 N   0  0  0  0  0  0  0  0  0  0  0  0
   -7.5567   -0.2712   -0.0198 C   0  0  0  0  0  0  0  0  0  0  0  0
   -8.9312    0.2680    0.2910 C   0  0  0  0  0  0  0  0  0  0  0  0
   -7.4192   -1.3861   -0.5102 O   0  0  0  0  0  0  0  0  0  0  0  0
   -4.5724   -0.6960   -0.3675 C   0  0  0  0  0  0  0  0  0  0  0  0
   -3.1783   -0.7922   -0.4716 C   0  0  0  0  0  0  0  0  0  0  0  0
    0.1785   -2.6833    1.5274 H   0  0  0  0  0  0  0  0  0  0  0  0
   -1.5488   -2.0570    1.4864 H   0  0  0  0  0  0  0  0  0  0  0  0
    2.2549   -2.2441    0.7990 H   0  0  0  0  0  0  0  0  0  0  0  0
    7.7870   -0.0697   -1.2115 H   0  0  0  0  0  0  0  0  0  0  0  0
    9.8488    0.6660    1.5051 H   0  0  0  0  0  0  0  0  0  0  0  0
   10.0445   -0.7948    0.4949 H   0  0  0  0  0  0  0  0  0  0  0  0
    9.6056    0.7705   -0.2444 H   0  0  0  0  0  0  0  0  0  0  0  0
    2.4557   -1.2483   -2.4742 H   0  0  0  0  0  0  0  0  0  0  0  0
    2.0026    1.1384   -1.2926 H   0  0  0  0  0  0  0  0  0  0  0  0
   -1.4425    1.9753   -2.2328 H   0  0  0  0  0  0  0  0  0  0  0  0
   -0.9588    3.0056   -0.8625 H   0  0  0  0  0  0  0  0  0  0  0  0
    0.1691    2.6895   -2.1806 H   0  0  0  0  0  0  0  0  0  0  0  0
   -2.3244    2.1760    0.9279 H   0  0  0  0  0  0  0  0  0  0  0  0
   -4.7565    2.3629    1.1007 H   0  0  0  0  0  0  0  0  0  0  0  0
   -6.8461    1.4828    0.7630 H   0  0  0  0  0  0  0  0  0  0  0  0
   -9.1868    0.0300    1.3268 H   0  0  0  0  0  0  0  0  0  0  0  0
   -8.9727    1.3508    0.1420 H   0  0  0  0  0  0  0  0  0  0  0  0
   -9.6616   -0.1934   -0.3799 H   0  0  0  0  0  0  0  0  0  0  0  0
   -5.1645   -1.5251   -0.7418 H   0  0  0  0  0  0  0  0  0  0  0  0
   -2.7470   -1.6796   -0.9292 H   0  0  0  0  0  0  0  0  0  0  0  0
  1  2  2  0
  2  3  1  0
  3  4  2  3
  4  5  1  0
  5  6  1  0
  6  7  1  0
  7  8  1  0
  8  9  1  0
  9 10  1  0
  9 11  2  0
  7 12  2  0
 12 13  1  0
 13 14  1  0
  3 15  1  0
 15 16  2  0
 16 17  1  0
 16 18  1  0
 18 19  1  0
 19 20  2  0
 20 21  1  0
 21 22  2  0
 22 23  1  0
 23 24  1  0
 24 25  1  0
 24 26  2  0
 22 27  1  0
 27 28  2  0
 18  2  1  0
 28 19  1  0
 13  5  2  0
  1 29  1  0
  1 30  1  0
  4 31  1  0
  8 32  1  0
 10 33  1  0
 10 34  1  0
 10 35  1  0
 14 36  1  0
 15 37  1  0
 17 38  1  0
 17 39  1  0
 17 40  1  0
 20 41  1  0
 21 42  1  0
 23 43  1  0
 25 44  1  0
 25 45  1  0
 25 46  1  0
 27 47  1  0
 28 48  1  0
M  END
$$$$
