
     RDKit          3D

 48 50  0  0  0  0  0  0  0  0999 V2000
    6.4626   -1.6291   -1.8832 C   0  0  0  0  0  0  0  0  0  0  0  0
    5.5199   -0.6347   -2.2653 O   0  0  0  0  0  0  0  0  0  0  0  0
    4.6728   -0.1833   -1.2920 C   0  0  0  0  0  0  0  0  0  0  0  0
    4.7082   -0.5402    0.0557 C   0  0  0  0  0  0  0  0  0  0  0  0
    3.7717   -0.0068    0.9451 C   0  0  0  0  0  0  0  0  0  0  0  0
    2.7896    0.8922    0.5031 C   0  0  0  0  0  0  0  0  0  0  0  0
    1.7623    1.4201    1.4744 C   0  0  0  0  0  0  0  0  0  0  0  0
    0.6399    0.4190    1.7099 C   0  0  0  0  0  0  0  0  0  0  0  0
    0.7843   -0.5145    2.4935 O   0  0  0  0  0  0  0  0  0  0  0  0
   -0.4965    0.7010    0.9721 N   0  0  0  0  0  0  0  0  0  0  0  0
   -1.6105   -0.1239    0.9081 C   0  0  0  0  0  0  0  0  0  0  0  0
   -1.7992   -1.4332    1.2979 C   0  0  0  0  0  0  0  0  0  0  0  0
   -3.1144   -1.7440    0.9658 C   0  0  0  0  0  0  0  0  0  0  0  0
   -3.7722   -0.7311    0.4142 N   0  0  0  0  0  0  0  0  0  0  0  0
   -2.8389    0.2596    0.3475 N   0  0  0  0  0  0  0  0  0  0  0  0
   -3.2381    1.5533   -0.2507 C   0  0  0  0  0  0  0  0  0  0  0  0
   -4.7452    1.5648   -0.6346 C   0  0  0  0  0  0  0  0  0  0  0  0
   -2.4470    1.8032   -1.5491 C   0  0  0  0  0  0  0  0  0  0  0  0
   -3.0313    2.7113    0.7506 C   0  0  0  0  0  0  0  0  0  0  0  0
   -3.6093   -3.0989    1.2388 C   0  0  0  0  0  0  0  0  0  0  0  0
   -2.0924   -4.0537    1.7611 S   0  0  0  0  0  3  0  0  0  0  0  0
   -1.5762   -4.9248    0.4354 O   0  0  0  0  0  1  0  0  0  0  0  0
   -1.0083   -2.5261    1.8890 C   0  0  0  0  0  0  0  0  0  0  0  0
    2.7574    1.2484   -0.8508 C   0  0  0  0  0  0  0  0  0  0  0  0
    3.6966    0.7151   -1.7361 C   0  0  0  0  0  0  0  0  0  0  0  0
    7.0357   -1.9095   -2.7740 H   0  0  0  0  0  0  0  0  0  0  0  0
    5.9605   -2.5299   -1.5130 H   0  0  0  0  0  0  0  0  0  0  0  0
    7.1699   -1.2391   -1.1442 H   0  0  0  0  0  0  0  0  0  0  0  0
    5.4444   -1.2356    0.4476 H   0  0  0  0  0  0  0  0  0  0  0  0
    3.8032   -0.3086    1.9898 H   0  0  0  0  0  0  0  0  0  0  0  0
    2.2386    1.6320    2.4447 H   0  0  0  0  0  0  0  0  0  0  0  0
    1.3588    2.3809    1.1277 H   0  0  0  0  0  0  0  0  0  0  0  0
   -0.5177    1.5794    0.4732 H   0  0  0  0  0  0  0  0  0  0  0  0
   -5.3848    1.4138    0.2441 H   0  0  0  0  0  0  0  0  0  0  0  0
   -5.0321    2.5229   -1.0863 H   0  0  0  0  0  0  0  0  0  0  0  0
   -4.9821    0.7794   -1.3659 H   0  0  0  0  0  0  0  0  0  0  0  0
   -1.3724    1.9012   -1.3800 H   0  0  0  0  0  0  0  0  0  0  0  0
   -2.7776    2.7273   -2.0374 H   0  0  0  0  0  0  0  0  0  0  0  0
   -2.5893    0.9792   -2.2599 H   0  0  0  0  0  0  0  0  0  0  0  0
   -3.5027    2.4889    1.7226 H   0  0  0  0  0  0  0  0  0  0  0  0
   -1.9721    2.9273    0.9345 H   0  0  0  0  0  0  0  0  0  0  0  0
   -3.4765    3.6412    0.3718 H   0  0  0  0  0  0  0  0  0  0  0  0
   -4.3088   -3.1135    2.0806 H   0  0  0  0  0  0  0  0  0  0  0  0
   -4.0441   -3.5886    0.3629 H   0  0  0  0  0  0  0  0  0  0  0  0
   -0.8284   -2.3760    2.9599 H   0  0  0  0  0  0  0  0  0  0  0  0
   -0.0782   -2.7395    1.3526 H   0  0  0  0  0  0  0  0  0  0  0  0
    2.0052    1.9333   -1.2353 H   0  0  0  0  0  0  0  0  0  0  0  0
    3.6644    0.9900   -2.7880 H   0  0  0  0  0  0  0  0  0  0  0  0
  1  2  1  0
  2  3  1  0
  3  4  2  0
  4  5  1  0
  5  6  2  0
  6  7  1  0
  7  8  1  0
  8  9  2  0
  8 10  1  0
 10 11  1  0
 11 12  2  0
 12 13  1  0
 13 14  2  0
 14 15  1  0
 15 16  1  0
 16 17  1  0
 16 18  1  0
 16 19  1  0
 13 20  1  0
 20 21  1  0
 21 22  1  0
 21 23  1  0
  6 24  1  0
 24 25  2  0
 25  3  1  0
 15 11  1  0
 23 12  1  0
  1 26  1  0
  1 27  1  0
  1 28  1  0
  4 29  1  0
  5 30  1  0
  7 31  1  0
  7 32  1  0
 10 33  1  0
 17 34  1  0
 17 35  1  0
 17 36  1  0
 18 37  1  0
 18 38  1  0
 18 39  1  0
 19 40  1  0
 19 41  1  0
 19 42  1  0
 20 43  1  0
 20 44  1  0
 23 45  1  0
 23 46  1  0
 24 47  1  0
 25 48  1  0
M  CHG  2  21   1  22  -1
M  END
$$$$
