
     RDKit          3D

 49 51  0  0  0  0  0  0  0  0999 V2000
    6.2134    1.2075   -1.5081 C   0  0  0  0  0  0  0  0  0  0  0  0
    5.4407    2.5018   -1.3332 C   0  0  0  0  0  0  0  0  0  0  0  0
    4.6701    2.6043    0.3067 S   0  0  0  0  0  0  0  0  0  0  0  0
    3.2183    1.6539    0.0880 C   0  0  0  0  0  0  0  0  0  0  0  0
    2.9367    1.1139   -1.0473 N   0  0  0  0  0  0  0  0  0  0  0  0
    1.7674    0.3946   -1.1465 C   0  0  0  0  0  0  0  0  0  0  0  0
    1.3768   -0.0717   -2.2121 O   0  0  0  0  0  0  0  0  0  0  0  0
    0.9397    0.1899    0.0839 C   0  0  0  0  0  0  0  0  0  0  0  0
    1.2990    0.8133    1.2186 C   0  0  0  0  0  0  0  0  0  0  0  0
    2.4454    1.5496    1.1935 N   0  0  0  0  0  0  0  0  0  0  0  0
    0.5705    0.7031    2.3753 N   0  0  0  0  0  0  0  0  0  0  0  0
   -0.6424    0.2405    2.3197 C   0  0  0  0  0  0  0  0  0  0  0  0
   -1.4369    0.1827    3.6030 C   0  0  0  0  0  0  0  0  0  0  0  0
   -1.3304   -0.2326    1.0527 C   0  0  0  0  0  0  0  0  0  0  0  0
   -2.2582    0.8272    0.5028 C   0  0  0  0  0  0  0  0  0  0  0  0
   -2.2476    2.0059    0.8259 O   0  0  0  0  0  0  0  0  0  0  0  0
   -3.1203    0.2669   -0.3917 O   0  0  0  0  0  0  0  0  0  0  0  0
   -4.0564    1.1586   -1.0293 C   0  0  0  0  0  0  0  0  0  0  0  0
   -4.5397    0.4595   -2.2958 C   0  0  0  0  0  0  0  0  0  0  0  0
   -5.2331    1.4375   -0.0963 C   0  0  0  0  0  0  0  0  0  0  0  0
   -0.3049   -0.6412   -0.0187 C   0  0  0  0  0  0  0  0  0  0  0  0
    0.0130   -2.1342    0.0306 C   0  0  0  0  0  0  0  0  0  0  0  0
    0.4736   -2.7721    1.1889 C   0  0  0  0  0  0  0  0  0  0  0  0
    0.7407   -4.1323    1.1440 C   0  0  0  0  0  0  0  0  0  0  0  0
    0.5889   -4.8912    0.0414 N   0  0  0  0  0  0  0  0  0  0  0  0
    0.1686   -4.2599   -1.0736 C   0  0  0  0  0  0  0  0  0  0  0  0
   -0.1280   -2.9074   -1.1277 C   0  0  0  0  0  0  0  0  0  0  0  0
    6.6782    1.1875   -2.4995 H   0  0  0  0  0  0  0  0  0  0  0  0
    5.5683    0.3247   -1.4271 H   0  0  0  0  0  0  0  0  0  0  0  0
    7.0152    1.1206   -0.7659 H   0  0  0  0  0  0  0  0  0  0  0  0
    4.6991    2.6302   -2.1286 H   0  0  0  0  0  0  0  0  0  0  0  0
    6.1386    3.3438   -1.4179 H   0  0  0  0  0  0  0  0  0  0  0  0
    2.7211    1.9903    2.0594 H   0  0  0  0  0  0  0  0  0  0  0  0
   -0.8418    0.5539    4.4414 H   0  0  0  0  0  0  0  0  0  0  0  0
   -1.7277   -0.8517    3.8034 H   0  0  0  0  0  0  0  0  0  0  0  0
   -2.3358    0.7966    3.5048 H   0  0  0  0  0  0  0  0  0  0  0  0
   -1.9677   -1.0817    1.3352 H   0  0  0  0  0  0  0  0  0  0  0  0
   -3.5558    2.0901   -1.3162 H   0  0  0  0  0  0  0  0  0  0  0  0
   -3.6976    0.2400   -2.9603 H   0  0  0  0  0  0  0  0  0  0  0  0
   -5.0079   -0.5042   -2.0522 H   0  0  0  0  0  0  0  0  0  0  0  0
   -5.2631    1.0751   -2.8417 H   0  0  0  0  0  0  0  0  0  0  0  0
   -5.9783    2.0770   -0.5793 H   0  0  0  0  0  0  0  0  0  0  0  0
   -4.9050    1.9324    0.8257 H   0  0  0  0  0  0  0  0  0  0  0  0
   -5.7180    0.5029    0.2081 H   0  0  0  0  0  0  0  0  0  0  0  0
   -0.7601   -0.4427   -0.9989 H   0  0  0  0  0  0  0  0  0  0  0  0
    0.6428   -2.2377    2.1168 H   0  0  0  0  0  0  0  0  0  0  0  0
    1.1004   -4.6614    2.0221 H   0  0  0  0  0  0  0  0  0  0  0  0
    0.0768   -4.8864   -1.9555 H   0  0  0  0  0  0  0  0  0  0  0  0
   -0.4464   -2.4677   -2.0685 H   0  0  0  0  0  0  0  0  0  0  0  0
  1  2  1  0
  2  3  1  0
  3  4  1  0
  4  5  2  0
  5  6  1  0
  6  7  2  0
  6  8  1  0
  8  9  2  0
  9 10  1  0
  9 11  1  0
 11 12  2  0
 12 13  1  0
 12 14  1  0
 14 15  1  0
 15 16  2  0
 15 17  1  0
 17 18  1  0
 18 19  1  0
 18 20  1  0
 14 21  1  0
 21 22  1  0
 22 23  2  0
 23 24  1  0
 24 25  2  0
 25 26  1  0
 26 27  2  0
 10  4  1  0
 27 22  1  0
 21  8  1  0
  1 28  1  0
  1 29  1  0
  1 30  1  0
  2 31  1  0
  2 32  1  0
 10 33  1  0
 13 34  1  0
 13 35  1  0
 13 36  1  0
 14 37  1  0
 18 38  1  0
 19 39  1  0
 19 40  1  0
 19 41  1  0
 20 42  1  0
 20 43  1  0
 20 44  1  0
 21 45  1  0
 23 46  1  0
 24 47  1  0
 26 48  1  0
 27 49  1  0
M  END
$$$$
