
     RDKit          3D

 66 72  0  0  0  0  0  0  0  0999 V2000
    1.5985    1.1467   -1.9792 O   0  0  0  0  0  0  0  0  0  0  0  0
    1.6856    0.8000   -0.8071 C   0  0  0  0  0  0  0  0  0  0  0  0
    2.8457    0.3216   -0.1721 N   0  0  0  0  0  0  0  0  0  0  0  0
    4.1016    0.1285   -0.8576 C   0  0  0  0  0  0  0  0  0  0  0  0
    4.3269   -1.3023   -1.2936 C   0  0  0  0  0  0  0  0  0  0  0  0
    3.4688   -1.9091   -2.2240 C   0  0  0  0  0  0  0  0  0  0  0  0
    3.6767   -3.2287   -2.6285 C   0  0  0  0  0  0  0  0  0  0  0  0
    4.7470   -3.9565   -2.1119 C   0  0  0  0  0  0  0  0  0  0  0  0
    5.6117   -3.3637   -1.1943 C   0  0  0  0  0  0  0  0  0  0  0  0
    5.4054   -2.0433   -0.7888 C   0  0  0  0  0  0  0  0  0  0  0  0
    2.5895   -0.0225    1.1645 C   0  0  0  0  0  0  0  0  0  0  0  0
    3.4632   -0.5366    2.1060 C   0  0  0  0  0  0  0  0  0  0  0  0
    2.9713   -0.7957    3.3887 C   0  0  0  0  0  0  0  0  0  0  0  0
    1.6282   -0.5409    3.7088 C   0  0  0  0  0  0  0  0  0  0  0  0
    0.7548   -0.0228    2.7509 C   0  0  0  0  0  0  0  0  0  0  0  0
    1.2485    0.2312    1.4771 C   0  0  0  0  0  0  0  0  0  0  0  0
    0.5622    0.7857    0.2632 C   0  0  0  0  0  0  0  0  0  0  0  0
   -0.0418    2.1476    0.4647 N   0  0  0  0  0  0  0  0  0  0  0  0
   -1.4253    2.1633   -0.1450 C   0  0  2  0  0  0  0  0  0  0  0  0
   -2.4691    2.8652    0.7446 C   0  0  0  0  0  0  0  0  0  0  0  0
   -2.1911    4.3303    0.9919 C   0  0  0  0  0  0  0  0  0  0  0  0
   -1.8501    4.7841    2.2737 C   0  0  0  0  0  0  0  0  0  0  0  0
   -1.5996    6.1386    2.5010 C   0  0  0  0  0  0  0  0  0  0  0  0
   -1.6892    7.0508    1.4519 C   0  0  0  0  0  0  0  0  0  0  0  0
   -2.0289    6.6110    0.1742 C   0  0  0  0  0  0  0  0  0  0  0  0
   -2.2807    5.2577   -0.0553 C   0  0  0  0  0  0  0  0  0  0  0  0
   -1.7091    0.7222   -0.3377 C   0  0  0  0  0  0  0  0  0  0  0  0
   -0.5844   -0.0601   -0.0946 C   0  0  0  0  0  0  0  0  0  0  0  0
   -0.8928   -1.3703   -0.3455 C   0  0  0  0  0  0  0  0  0  0  0  0
   -0.0735   -2.4200   -0.3502 O   0  0  0  0  0  0  0  0  0  0  0  0
   -2.2545   -1.4102   -0.6970 N   0  0  0  0  0  0  0  0  0  0  0  0
   -2.9961   -2.5818   -1.0284 C   0  0  0  0  0  0  0  0  0  0  0  0
   -2.7876   -3.7701   -0.3155 C   0  0  0  0  0  0  0  0  0  0  0  0
   -3.5175   -4.9143   -0.6420 C   0  0  0  0  0  0  0  0  0  0  0  0
   -4.4478   -4.8789   -1.6802 C   0  0  0  0  0  0  0  0  0  0  0  0
   -4.6535   -3.6993   -2.3948 C   0  0  0  0  0  0  0  0  0  0  0  0
   -3.9322   -2.5487   -2.0707 C   0  0  0  0  0  0  0  0  0  0  0  0
   -2.7554   -0.0943   -0.6704 C   0  0  0  0  0  0  0  0  0  0  0  0
   -4.0283    0.2430   -0.8720 O   0  0  0  0  0  0  0  0  0  0  0  0
    4.1291    0.7663   -1.7494 H   0  0  0  0  0  0  0  0  0  0  0  0
    4.9125    0.4762   -0.2073 H   0  0  0  0  0  0  0  0  0  0  0  0
    2.6299   -1.3522   -2.6392 H   0  0  0  0  0  0  0  0  0  0  0  0
    3.0017   -3.6857   -3.3462 H   0  0  0  0  0  0  0  0  0  0  0  0
    4.9082   -4.9845   -2.4255 H   0  0  0  0  0  0  0  0  0  0  0  0
    6.4480   -3.9305   -0.7928 H   0  0  0  0  0  0  0  0  0  0  0  0
    6.0939   -1.5984   -0.0747 H   0  0  0  0  0  0  0  0  0  0  0  0
    4.5013   -0.7415    1.8751 H   0  0  0  0  0  0  0  0  0  0  0  0
    3.6347   -1.2034    4.1478 H   0  0  0  0  0  0  0  0  0  0  0  0
    1.2656   -0.7552    4.7114 H   0  0  0  0  0  0  0  0  0  0  0  0
   -0.2863    0.1627    2.9953 H   0  0  0  0  0  0  0  0  0  0  0  0
   -0.1483    2.2867    1.4657 H   0  0  0  0  0  0  0  0  0  0  0  0
   -1.3541    2.6544   -1.1228 H   0  0  0  0  0  0  0  0  0  0  0  0
   -3.4628    2.7868    0.2836 H   0  0  0  0  0  0  0  0  0  0  0  0
   -2.5568    2.3394    1.7055 H   0  0  0  0  0  0  0  0  0  0  0  0
   -1.7772    4.0857    3.1038 H   0  0  0  0  0  0  0  0  0  0  0  0
   -1.3329    6.4849    3.4955 H   0  0  0  0  0  0  0  0  0  0  0  0
   -1.4922    8.1043    1.6298 H   0  0  0  0  0  0  0  0  0  0  0  0
   -2.0950    7.3226   -0.6450 H   0  0  0  0  0  0  0  0  0  0  0  0
   -2.5463    4.9303   -1.0582 H   0  0  0  0  0  0  0  0  0  0  0  0
   -0.4377   -3.1088   -0.9337 H   0  0  0  0  0  0  0  0  0  0  0  0
   -2.0958   -3.8152    0.5240 H   0  0  0  0  0  0  0  0  0  0  0  0
   -3.3665   -5.8332   -0.0800 H   0  0  0  0  0  0  0  0  0  0  0  0
   -5.0125   -5.7727   -1.9351 H   0  0  0  0  0  0  0  0  0  0  0  0
   -5.3687   -3.6800   -3.2142 H   0  0  0  0  0  0  0  0  0  0  0  0
   -4.0785   -1.6541   -2.6740 H   0  0  0  0  0  0  0  0  0  0  0  0
   -4.5905   -0.5425   -0.7442 H   0  0  0  0  0  0  0  0  0  0  0  0
  1  2  2  0
  2  3  1  0
  3  4  1  0
  4  5  1  0
  5  6  2  0
  6  7  1  0
  7  8  2  0
  8  9  1  0
  9 10  2  0
  3 11  1  0
 11 12  2  0
 12 13  1  0
 13 14  2  0
 14 15  1  0
 15 16  2  0
 16 17  1  0
 17 18  1  0
 18 19  1  0
 19 20  1  0
 20 21  1  0
 21 22  2  0
 22 23  1  0
 23 24  2  0
 24 25  1  0
 25 26  2  0
 19 27  1  0
 27 28  1  0
 28 29  2  0
 29 30  1  0
 29 31  1  0
 31 32  1  0
 32 33  2  0
 33 34  1  0
 34 35  2  0
 35 36  1  0
 36 37  2  0
 31 38  1  0
 38 39  1  0
 17  2  1  0
 26 21  1  0
 38 27  2  0
 10  5  1  0
 16 11  1  0
 28 17  1  0
 37 32  1  0
  4 40  1  0
  4 41  1  0
  6 42  1  0
  7 43  1  0
  8 44  1  0
  9 45  1  0
 10 46  1  0
 12 47  1  0
 13 48  1  0
 14 49  1  0
 15 50  1  0
 18 51  1  0
 19 52  1  6
 20 53  1  0
 20 54  1  0
 22 55  1  0
 23 56  1  0
 24 57  1  0
 25 58  1  0
 26 59  1  0
 30 60  1  0
 33 61  1  0
 34 62  1  0
 35 63  1  0
 36 64  1  0
 37 65  1  0
 39 66  1  0
M  END
$$$$
