
     RDKit          3D

 32 34  0  0  0  0  0  0  0  0999 V2000
    3.2673   -1.0522   -1.9261 O   0  0  0  0  0  0  0  0  0  0  0  0
    3.9286   -0.3704   -0.9380 C   0  0  0  0  0  0  0  0  0  0  0  0
    5.3256   -0.2998   -0.9903 C   0  0  0  0  0  0  0  0  0  0  0  0
    6.3101   -1.1221   -2.3896 Br  0  0  0  0  0  0  0  0  0  0  0  0
    6.0365    0.3856   -0.0024 C   0  0  0  0  0  0  0  0  0  0  0  0
    5.3462    1.0010    1.0395 C   0  0  0  0  0  0  0  0  0  0  0  0
    6.3066    1.9293    2.3779 Br  0  0  0  0  0  0  0  0  0  0  0  0
    3.9550    0.9408    1.1075 C   0  0  0  0  0  0  0  0  0  0  0  0
    3.2442    0.2536    0.1166 C   0  0  0  0  0  0  0  0  0  0  0  0
    1.7692    0.2223    0.2395 C   0  0  0  0  0  0  0  0  0  0  0  0
    1.0370   -0.3916   -0.6344 N   0  0  0  0  0  0  0  0  0  0  0  0
   -0.3033   -0.3426   -0.4018 C   0  0  0  0  0  0  0  0  0  0  0  0
   -0.9393    0.2466    0.5944 N   0  0  0  0  0  0  0  0  0  0  0  0
   -2.2994    0.0673    0.4662 C   0  0  0  0  0  0  0  0  0  0  0  0
   -2.6964   -0.6692   -0.6276 C   0  0  0  0  0  0  0  0  0  0  0  0
   -1.3446   -1.1457   -1.5366 S   0  0  0  0  0  0  0  0  0  0  0  0
   -4.1073   -0.9810   -0.9921 C   0  0  0  0  0  0  0  0  0  0  0  0
   -5.0336   -0.7183    0.2100 C   0  0  0  0  0  0  0  0  0  0  0  0
   -4.6971    0.6032    0.9245 C   0  0  0  0  0  0  0  0  0  0  0  0
   -3.2577    0.6129    1.4698 C   0  0  0  0  0  0  0  0  0  0  0  0
    2.3040   -1.0070   -1.7432 H   0  0  0  0  0  0  0  0  0  0  0  0
    7.1216    0.4380   -0.0468 H   0  0  0  0  0  0  0  0  0  0  0  0
    3.4314    1.4267    1.9275 H   0  0  0  0  0  0  0  0  0  0  0  0
    1.3433    0.7505    1.1143 H   0  0  0  0  0  0  0  0  0  0  0  0
   -4.2132   -2.0227   -1.3148 H   0  0  0  0  0  0  0  0  0  0  0  0
   -4.4101   -0.3404   -1.8292 H   0  0  0  0  0  0  0  0  0  0  0  0
   -4.9418   -1.5431    0.9286 H   0  0  0  0  0  0  0  0  0  0  0  0
   -6.0756   -0.7052   -0.1292 H   0  0  0  0  0  0  0  0  0  0  0  0
   -5.4003    0.7736    1.7474 H   0  0  0  0  0  0  0  0  0  0  0  0
   -4.8253    1.4322    0.2165 H   0  0  0  0  0  0  0  0  0  0  0  0
   -2.9753    1.6331    1.7512 H   0  0  0  0  0  0  0  0  0  0  0  0
   -3.2061   -0.0054    2.3739 H   0  0  0  0  0  0  0  0  0  0  0  0
  1  2  1  0
  2  3  2  0
  3  4  1  0
  3  5  1  0
  5  6  2  0
  6  7  1  0
  6  8  1  0
  8  9  2  0
  9 10  1  0
 10 11  2  3
 11 12  1  0
 12 13  2  0
 13 14  1  0
 14 15  2  0
 15 16  1  0
 15 17  1  0
 17 18  1  0
 18 19  1  0
 19 20  1  0
  9  2  1  0
 16 12  1  0
 20 14  1  0
  1 21  1  0
  5 22  1  0
  8 23  1  0
 10 24  1  0
 17 25  1  0
 17 26  1  0
 18 27  1  0
 18 28  1  0
 19 29  1  0
 19 30  1  0
 20 31  1  0
 20 32  1  0
M  END
$$$$
