
     RDKit          3D

 45 47  0  0  0  0  0  0  0  0999 V2000
    5.4919   -0.9369    3.0190 C   0  0  0  0  0  0  0  0  0  0  0  0
    4.4616   -0.4163    2.0608 C   0  0  0  0  0  0  0  0  0  0  0  0
    3.4546   -1.2555    1.5800 C   0  0  0  0  0  0  0  0  0  0  0  0
    2.5201   -0.7761    0.6610 C   0  0  0  0  0  0  0  0  0  0  0  0
    2.5828    0.5455    0.1927 C   0  0  0  0  0  0  0  0  0  0  0  0
    1.5880    0.9621   -0.7835 C   0  0  0  0  0  0  0  0  0  0  0  0
    1.9003    1.4093   -2.0503 C   0  0  0  0  0  0  0  0  0  0  0  0
    0.4650    1.7688   -2.9113 S   0  0  0  0  0  0  0  0  0  0  0  0
   -0.4744    1.2834   -1.5432 C   0  0  0  0  0  0  0  0  0  0  0  0
   -1.9790    1.3142   -1.5493 C   0  0  0  0  0  0  0  0  0  0  0  0
   -2.4731    2.6671   -1.8354 C   0  0  0  0  0  0  0  0  0  0  0  0
   -2.8635    3.7331   -2.0817 N   0  0  0  0  0  0  0  0  0  0  0  0
   -2.4819    0.3497   -2.5997 C   0  0  0  0  0  0  0  0  0  0  0  0
   -2.9325   -0.8641   -2.4467 N   0  0  0  0  0  0  0  0  0  0  0  0
   -2.9991   -1.4603   -1.1739 C   0  0  0  0  0  0  0  0  0  0  0  0
   -1.8183   -1.8698   -0.5391 C   0  0  0  0  0  0  0  0  0  0  0  0
   -1.8516   -2.4847    0.7133 C   0  0  0  0  0  0  0  0  0  0  0  0
   -3.0722   -2.7300    1.3342 C   0  0  0  0  0  0  0  0  0  0  0  0
   -4.2606   -2.3692    0.6993 C   0  0  0  0  0  0  0  0  0  0  0  0
   -4.2349   -1.7363   -0.5526 C   0  0  0  0  0  0  0  0  0  0  0  0
   -5.7990   -1.3469   -1.3330 S   0  0  0  0  0  0  0  0  0  0  0  0
   -5.9934    0.3146   -0.7053 C   0  0  0  0  0  0  0  0  0  0  0  0
   -4.9393    1.1076   -1.0191 F   0  0  0  0  0  0  0  0  0  0  0  0
   -6.1160    0.3284    0.6442 F   0  0  0  0  0  0  0  0  0  0  0  0
   -7.1017    0.9047   -1.2122 F   0  0  0  0  0  0  0  0  0  0  0  0
    0.2347    0.8678   -0.5111 N   0  0  0  0  0  0  0  0  0  0  0  0
    3.5830    1.4082    0.6826 C   0  0  0  0  0  0  0  0  0  0  0  0
    3.6934    2.8473    0.2566 C   0  0  0  0  0  0  0  0  0  0  0  0
    4.5262    0.9049    1.5981 C   0  0  0  0  0  0  0  0  0  0  0  0
    5.8521   -0.1393    3.6770 H   0  0  0  0  0  0  0  0  0  0  0  0
    6.3409   -1.3510    2.4666 H   0  0  0  0  0  0  0  0  0  0  0  0
    5.0703   -1.7194    3.6590 H   0  0  0  0  0  0  0  0  0  0  0  0
    3.3897   -2.2876    1.9161 H   0  0  0  0  0  0  0  0  0  0  0  0
    1.7401   -1.4440    0.3013 H   0  0  0  0  0  0  0  0  0  0  0  0
    2.8738    1.5356   -2.5025 H   0  0  0  0  0  0  0  0  0  0  0  0
   -2.3417    1.0131   -0.5613 H   0  0  0  0  0  0  0  0  0  0  0  0
   -2.4395    0.7056   -3.6461 H   0  0  0  0  0  0  0  0  0  0  0  0
   -0.8581   -1.7142   -1.0249 H   0  0  0  0  0  0  0  0  0  0  0  0
   -0.9239   -2.7805    1.1968 H   0  0  0  0  0  0  0  0  0  0  0  0
   -3.1008   -3.2183    2.3055 H   0  0  0  0  0  0  0  0  0  0  0  0
   -5.2065   -2.5935    1.1884 H   0  0  0  0  0  0  0  0  0  0  0  0
    4.1581    2.9157   -0.7315 H   0  0  0  0  0  0  0  0  0  0  0  0
    2.7101    3.3277    0.2356 H   0  0  0  0  0  0  0  0  0  0  0  0
    4.3069    3.4217    0.9592 H   0  0  0  0  0  0  0  0  0  0  0  0
    5.3171    1.5568    1.9665 H   0  0  0  0  0  0  0  0  0  0  0  0
  1  2  1  0
  2  3  2  0
  3  4  1  0
  4  5  2  0
  5  6  1  0
  6  7  2  0
  7  8  1  0
  8  9  1  0
  9 10  1  0
 10 11  1  0
 11 12  3  0
 10 13  1  0
 13 14  2  3
 14 15  1  0
 15 16  2  0
 16 17  1  0
 17 18  2  0
 18 19  1  0
 19 20  2  0
 20 21  1  0
 21 22  1  0
 22 23  1  0
 22 24  1  0
 22 25  1  0
  9 26  2  0
  5 27  1  0
 27 28  1  0
 27 29  2  0
 29  2  1  0
 26  6  1  0
 20 15  1  0
  1 30  1  0
  1 31  1  0
  1 32  1  0
  3 33  1  0
  4 34  1  0
  7 35  1  0
 10 36  1  0
 13 37  1  0
 16 38  1  0
 17 39  1  0
 18 40  1  0
 19 41  1  0
 28 42  1  0
 28 43  1  0
 28 44  1  0
 29 45  1  0
M  END
$$$$
