
     RDKit          3D

 37 38  0  0  0  0  0  0  0  0999 V2000
   -1.9436    1.4359    1.9581 C   0  0  0  0  0  0  0  0  0  0  0  0
   -1.4247    1.0781    0.6849 O   0  0  0  0  0  0  0  0  0  0  0  0
   -1.9056   -0.0684    0.1068 C   0  0  0  0  0  0  0  0  0  0  0  0
   -2.9761   -0.8226    0.6070 C   0  0  0  0  0  0  0  0  0  0  0  0
   -3.3983   -1.9942   -0.0317 C   0  0  0  0  0  0  0  0  0  0  0  0
   -4.5397   -2.6717    0.4181 N   0  0  0  0  0  0  0  0  0  0  0  0
   -2.8076   -2.3488   -1.2433 C   0  0  0  0  0  0  0  0  0  0  0  0
   -1.7423   -1.6081   -1.7567 C   0  0  0  0  0  0  0  0  0  0  0  0
   -1.2726   -0.4689   -1.0838 C   0  0  0  0  0  0  0  0  0  0  0  0
   -0.1022    0.3060   -1.6624 C   0  0  0  0  0  0  0  0  0  0  0  0
    1.2137    0.1354   -0.9292 C   0  0  0  0  0  0  0  0  0  0  0  0
    1.6585   -1.1340   -0.5289 C   0  0  0  0  0  0  0  0  0  0  0  0
    2.8915   -1.2951    0.1132 C   0  0  0  0  0  0  0  0  0  0  0  0
    3.7036   -0.1952    0.3898 C   0  0  0  0  0  0  0  0  0  0  0  0
    4.9894   -0.3821    0.9127 N   0  0  0  0  0  0  0  0  0  0  0  0
    3.3056    1.0581   -0.0762 C   0  0  0  0  0  0  0  0  0  0  0  0
    2.0609    1.2276   -0.6969 C   0  0  0  0  0  0  0  0  0  0  0  0
    1.6970    2.4653   -1.1659 O   0  0  0  0  0  0  0  0  0  0  0  0
    1.4722    3.3745   -0.0888 C   0  0  0  0  0  0  0  0  0  0  0  0
   -1.7847    0.6384    2.6916 H   0  0  0  0  0  0  0  0  0  0  0  0
   -1.3976    2.3187    2.3048 H   0  0  0  0  0  0  0  0  0  0  0  0
   -3.0020    1.7070    1.8886 H   0  0  0  0  0  0  0  0  0  0  0  0
   -3.5062   -0.5111    1.4999 H   0  0  0  0  0  0  0  0  0  0  0  0
   -4.7068   -2.5795    1.4149 H   0  0  0  0  0  0  0  0  0  0  0  0
   -4.5911   -3.6367    0.1070 H   0  0  0  0  0  0  0  0  0  0  0  0
   -3.1704   -3.2081   -1.8005 H   0  0  0  0  0  0  0  0  0  0  0  0
   -1.2848   -1.9201   -2.6929 H   0  0  0  0  0  0  0  0  0  0  0  0
    0.0617    0.0100   -2.7072 H   0  0  0  0  0  0  0  0  0  0  0  0
   -0.4007    1.3606   -1.7079 H   0  0  0  0  0  0  0  0  0  0  0  0
    1.0538   -2.0166   -0.7229 H   0  0  0  0  0  0  0  0  0  0  0  0
    3.2138   -2.2962    0.3868 H   0  0  0  0  0  0  0  0  0  0  0  0
    5.3749    0.4449    1.3571 H   0  0  0  0  0  0  0  0  0  0  0  0
    5.0778   -1.2103    1.4927 H   0  0  0  0  0  0  0  0  0  0  0  0
    3.9712    1.9093    0.0264 H   0  0  0  0  0  0  0  0  0  0  0  0
    0.9252    4.2345   -0.4866 H   0  0  0  0  0  0  0  0  0  0  0  0
    0.8643    2.9254    0.7047 H   0  0  0  0  0  0  0  0  0  0  0  0
    2.4218    3.7380    0.3168 H   0  0  0  0  0  0  0  0  0  0  0  0
  1  2  1  0
  2  3  1  0
  3  4  2  0
  4  5  1  0
  5  6  1  0
  5  7  2  0
  7  8  1  0
  8  9  2  0
  9 10  1  0
 10 11  1  0
 11 12  2  0
 12 13  1  0
 13 14  2  0
 14 15  1  0
 14 16  1  0
 16 17  2  0
 17 18  1  0
 18 19  1  0
  9  3  1  0
 17 11  1  0
  1 20  1  0
  1 21  1  0
  1 22  1  0
  4 23  1  0
  6 24  1  0
  6 25  1  0
  7 26  1  0
  8 27  1  0
 10 28  1  0
 10 29  1  0
 12 30  1  0
 13 31  1  0
 15 32  1  0
 15 33  1  0
 16 34  1  0
 19 35  1  0
 19 36  1  0
 19 37  1  0
M  END
$$$$
