
     RDKit          3D

 33 34  0  0  0  0  0  0  0  0999 V2000
   -4.2976   -1.7679    2.7245 C   0  0  0  0  0  0  0  0  0  0  0  0
   -2.7375   -1.1786    2.0270 S   0  0  0  0  0  0  0  0  0  0  0  0
   -2.8404   -1.7373    0.3542 C   0  0  0  0  0  0  0  0  0  0  0  0
   -3.8604   -2.5065   -0.0101 N   0  0  0  0  0  0  0  0  0  0  0  0
   -3.7171   -2.8506   -1.6166 S   0  0  0  0  0  0  0  0  0  0  0  0
   -2.2723   -1.9673   -1.8647 C   0  0  0  0  0  0  0  0  0  0  0  0
   -1.4774   -1.9368   -3.4303 S   0  0  0  0  0  0  0  0  0  0  0  0
   -2.2439   -0.4606   -4.1416 C   0  0  0  0  0  0  0  0  0  0  0  0
   -1.8744   -1.3966   -0.6607 C   0  0  0  0  0  0  0  0  0  0  0  0
   -0.6777   -0.5772   -0.5168 C   0  0  0  0  0  0  0  0  0  0  0  0
   -0.3461    0.2579   -1.3570 O   0  0  0  0  0  0  0  0  0  0  0  0
    0.0786   -0.8298    0.6127 N   0  0  0  0  0  0  0  0  0  0  0  0
    1.2271   -0.2018    1.0431 C   0  0  0  0  0  0  0  0  0  0  0  0
    1.6866   -0.5306    2.1332 O   0  0  0  0  0  0  0  0  0  0  0  0
    1.7395    0.7406    0.1918 N   0  0  0  0  0  0  0  0  0  0  0  0
    2.8911    1.5329    0.3638 C   0  0  0  0  0  0  0  0  0  0  0  0
    3.7326    1.4745    1.4712 C   0  0  0  0  0  0  0  0  0  0  0  0
    4.8498    2.3085    1.5370 C   0  0  0  0  0  0  0  0  0  0  0  0
    5.0910    3.1790    0.4874 C   0  0  0  0  0  0  0  0  0  0  0  0
    4.3032    3.2686   -0.6035 N   0  0  0  0  0  0  0  0  0  0  0  0
    3.2269    2.4454   -0.6370 C   0  0  0  0  0  0  0  0  0  0  0  0
   -5.1497   -1.3394    2.1895 H   0  0  0  0  0  0  0  0  0  0  0  0
   -4.3591   -1.4554    3.7706 H   0  0  0  0  0  0  0  0  0  0  0  0
   -4.3517   -2.8597    2.6914 H   0  0  0  0  0  0  0  0  0  0  0  0
   -3.3249   -0.5975   -4.2334 H   0  0  0  0  0  0  0  0  0  0  0  0
   -1.8305   -0.2856   -5.1384 H   0  0  0  0  0  0  0  0  0  0  0  0
   -2.0443    0.4187   -3.5238 H   0  0  0  0  0  0  0  0  0  0  0  0
   -0.2650   -1.4973    1.2895 H   0  0  0  0  0  0  0  0  0  0  0  0
    1.2103    0.8861   -0.6668 H   0  0  0  0  0  0  0  0  0  0  0  0
    3.5502    0.7949    2.2968 H   0  0  0  0  0  0  0  0  0  0  0  0
    5.5156    2.2758    2.3924 H   0  0  0  0  0  0  0  0  0  0  0  0
    5.9487    3.8454    0.4978 H   0  0  0  0  0  0  0  0  0  0  0  0
    2.6189    2.5484   -1.5319 H   0  0  0  0  0  0  0  0  0  0  0  0
  1  2  1  0
  2  3  1  0
  3  4  2  0
  4  5  1  0
  5  6  1  0
  6  7  1  0
  7  8  1  0
  6  9  2  0
  9 10  1  0
 10 11  2  0
 10 12  1  0
 12 13  1  0
 13 14  2  0
 13 15  1  0
 15 16  1  0
 16 17  2  0
 17 18  1  0
 18 19  2  0
 19 20  1  0
 20 21  2  0
  9  3  1  0
 21 16  1  0
  1 22  1  0
  1 23  1  0
  1 24  1  0
  8 25  1  0
  8 26  1  0
  8 27  1  0
 12 28  1  0
 15 29  1  0
 17 30  1  0
 18 31  1  0
 19 32  1  0
 21 33  1  0
M  END
$$$$
