
     RDKit          3D

 54 57  0  0  0  0  0  0  0  0999 V2000
   -8.1482    0.2439   -0.3340 C   0  0  0  0  0  0  0  0  0  0  0  0
   -7.4233    0.9008    0.6976 O   0  0  0  0  0  0  0  0  0  0  0  0
   -6.0740    0.6871    0.7393 C   0  0  0  0  0  0  0  0  0  0  0  0
   -5.3374   -0.0974   -0.1460 C   0  0  0  0  0  0  0  0  0  0  0  0
   -3.9482   -0.2367    0.0076 C   0  0  0  0  0  0  0  0  0  0  0  0
   -3.2780    0.4025    1.0554 C   0  0  0  0  0  0  0  0  0  0  0  0
   -1.8659    0.2949    1.2567 N   0  0  0  0  0  0  0  0  0  0  0  0
   -1.2617    1.1422    2.1420 N   0  0  0  0  0  0  0  0  0  0  0  0
    0.0395    0.8802    2.0575 C   0  0  0  0  0  0  0  0  0  0  0  0
    0.3174   -0.1523    1.1562 C   0  0  0  0  0  0  0  0  0  0  0  0
   -0.9227   -0.5559    0.6921 C   0  0  0  0  0  0  0  0  0  0  0  0
   -1.1406   -1.7243   -0.2121 C   0  0  0  0  0  0  0  0  0  0  0  0
    0.1158   -2.6510   -0.2598 C   0  0  0  0  0  0  0  0  0  0  0  0
    0.1643   -3.5564    0.9880 C   0  0  0  0  0  0  0  0  0  0  0  0
    0.0128   -3.5584   -1.5005 C   0  0  0  0  0  0  0  0  0  0  0  0
    1.4146   -1.7989   -0.3688 C   0  0  0  0  0  0  0  0  0  0  0  0
    1.6086   -0.8036    0.7997 C   0  0  0  0  0  0  0  0  0  0  0  0
    2.5562    0.2269    0.4421 N   0  0  0  0  0  0  0  0  0  0  0  0
    3.9169    0.0135    0.4511 C   0  0  0  0  0  0  0  0  0  0  0  0
    4.4482   -1.0126    0.8577 O   0  0  0  0  0  0  0  0  0  0  0  0
    4.7201    1.1430   -0.0937 C   0  0  0  0  0  0  0  0  0  0  0  0
    6.1032    1.0718   -0.1079 C   0  0  0  0  0  0  0  0  0  0  0  0
    6.8730    2.0777   -0.5978 N   0  0  0  0  0  0  0  0  0  0  0  0
    6.2045    3.1592   -1.0724 C   0  0  0  0  0  0  0  0  0  0  0  0
    7.0087    4.2961   -1.6206 C   0  0  0  0  0  0  0  0  0  0  0  0
    4.8121    3.2188   -1.0546 C   0  0  0  0  0  0  0  0  0  0  0  0
    4.0334    2.2211   -0.5712 N   0  0  0  0  0  0  0  0  0  0  0  0
   -4.0260    1.2061    1.9320 C   0  0  0  0  0  0  0  0  0  0  0  0
   -5.4093    1.3402    1.7753 C   0  0  0  0  0  0  0  0  0  0  0  0
   -8.0649   -0.8443   -0.2443 H   0  0  0  0  0  0  0  0  0  0  0  0
   -9.2042    0.5072   -0.2206 H   0  0  0  0  0  0  0  0  0  0  0  0
   -7.8242    0.5855   -1.3226 H   0  0  0  0  0  0  0  0  0  0  0  0
   -5.8093   -0.6107   -0.9776 H   0  0  0  0  0  0  0  0  0  0  0  0
   -3.4345   -0.8261   -0.7395 H   0  0  0  0  0  0  0  0  0  0  0  0
    0.7306    1.4473    2.6686 H   0  0  0  0  0  0  0  0  0  0  0  0
   -1.3386   -1.3406   -1.2208 H   0  0  0  0  0  0  0  0  0  0  0  0
   -2.0068   -2.3129    0.1103 H   0  0  0  0  0  0  0  0  0  0  0  0
    0.1820   -2.9830    1.9198 H   0  0  0  0  0  0  0  0  0  0  0  0
   -0.7117   -4.2139    1.0291 H   0  0  0  0  0  0  0  0  0  0  0  0
    1.0557   -4.1938    0.9744 H   0  0  0  0  0  0  0  0  0  0  0  0
    0.8670   -4.2419   -1.5629 H   0  0  0  0  0  0  0  0  0  0  0  0
   -0.8999   -4.1643   -1.4722 H   0  0  0  0  0  0  0  0  0  0  0  0
   -0.0081   -2.9684   -2.4237 H   0  0  0  0  0  0  0  0  0  0  0  0
    2.2948   -2.4515   -0.4384 H   0  0  0  0  0  0  0  0  0  0  0  0
    1.3835   -1.2398   -1.3160 H   0  0  0  0  0  0  0  0  0  0  0  0
    1.9949   -1.3428    1.6735 H   0  0  0  0  0  0  0  0  0  0  0  0
    2.2343    1.0730   -0.0219 H   0  0  0  0  0  0  0  0  0  0  0  0
    6.6366    0.2074    0.2729 H   0  0  0  0  0  0  0  0  0  0  0  0
    6.8087    5.2098   -1.0523 H   0  0  0  0  0  0  0  0  0  0  0  0
    6.7578    4.4645   -2.6724 H   0  0  0  0  0  0  0  0  0  0  0  0
    8.0803    4.0819   -1.5556 H   0  0  0  0  0  0  0  0  0  0  0  0
    4.2790    4.0848   -1.4346 H   0  0  0  0  0  0  0  0  0  0  0  0
   -3.5480    1.7326    2.7568 H   0  0  0  0  0  0  0  0  0  0  0  0
   -5.9692    1.9615    2.4703 H   0  0  0  0  0  0  0  0  0  0  0  0
  1  2  1  0
  2  3  1  0
  3  4  2  0
  4  5  1  0
  5  6  2  0
  6  7  1  0
  7  8  1  0
  8  9  2  0
  9 10  1  0
 10 11  2  0
 11 12  1  0
 12 13  1  0
 13 14  1  0
 13 15  1  0
 13 16  1  0
 16 17  1  0
 17 18  1  0
 18 19  1  0
 19 20  2  0
 19 21  1  0
 21 22  2  0
 22 23  1  0
 23 24  2  0
 24 25  1  0
 24 26  1  0
 26 27  2  0
  6 28  1  0
 28 29  2  0
 29  3  1  0
 11  7  1  0
 27 21  1  0
 17 10  1  0
  1 30  1  0
  1 31  1  0
  1 32  1  0
  4 33  1  0
  5 34  1  0
  9 35  1  0
 12 36  1  0
 12 37  1  0
 14 38  1  0
 14 39  1  0
 14 40  1  0
 15 41  1  0
 15 42  1  0
 15 43  1  0
 16 44  1  0
 16 45  1  0
 17 46  1  0
 18 47  1  0
 22 48  1  0
 25 49  1  0
 25 50  1  0
 25 51  1  0
 26 52  1  0
 28 53  1  0
 29 54  1  0
M  END
$$$$
