
     RDKit          3D

 58 62  0  0  0  0  0  0  0  0999 V2000
   -7.3059    2.4741   -1.4754 C   0  0  0  0  0  0  0  0  0  0  0  0
   -6.9837    2.2316   -0.1118 O   0  0  0  0  0  0  0  0  0  0  0  0
   -5.7010    1.8463    0.1635 C   0  0  0  0  0  0  0  0  0  0  0  0
   -4.6886    1.6341   -0.7738 C   0  0  0  0  0  0  0  0  0  0  0  0
   -3.4133    1.2355   -0.3551 C   0  0  0  0  0  0  0  0  0  0  0  0
   -3.1482    1.0358    1.0054 C   0  0  0  0  0  0  0  0  0  0  0  0
   -1.7953    0.6234    1.4763 C   0  0  0  0  0  0  0  0  0  0  0  0
   -1.3407    1.1430    2.5649 N   0  0  0  0  0  0  0  0  0  0  0  0
    0.0008    0.7681    3.0065 C   0  0  0  0  0  0  0  0  0  0  0  0
    1.0549    1.3788    2.0862 C   0  0  0  0  0  0  0  0  0  0  0  0
    1.7616    2.3120    2.4828 O   0  0  0  0  0  0  0  0  0  0  0  0
    1.2344    0.7936    0.8256 N   0  0  0  0  0  0  0  0  0  0  0  0
    2.4845    1.1397    0.1484 C   0  0  0  0  0  0  0  0  0  0  0  0
    3.6529    0.2617    0.6132 C   0  0  0  0  0  0  0  0  0  0  0  0
    3.5706   -0.5868    1.4980 O   0  0  0  0  0  0  0  0  0  0  0  0
    4.8309    0.5184   -0.0576 N   0  0  0  0  0  0  0  0  0  0  0  0
    5.9982   -0.2983    0.1766 C   0  0  0  0  0  0  0  0  0  0  0  0
    7.1598    0.3360   -0.4901 C   0  0  0  0  0  0  0  0  0  0  0  0
    8.3565    0.8444   -0.0292 C   0  0  0  0  0  0  0  0  0  0  0  0
    9.0517    1.3235   -1.1655 C   0  0  0  0  0  0  0  0  0  0  0  0
    8.2365    1.0800   -2.2455 C   0  0  0  0  0  0  0  0  0  0  0  0
    7.0834    0.4838   -1.8468 O   0  0  0  0  0  0  0  0  0  0  0  0
    0.3162   -0.1601    0.3665 C   0  0  0  0  0  0  0  0  0  0  0  0
    0.8589   -1.3048   -0.7812 S   0  0  0  0  0  0  0  0  0  0  0  0
   -0.5991   -2.1618   -0.7239 C   0  0  0  0  0  0  0  0  0  0  0  0
   -1.5387   -1.5551    0.0862 C   0  0  0  0  0  0  0  0  0  0  0  0
   -1.0284   -0.3314    0.6721 C   0  0  0  0  0  0  0  0  0  0  0  0
   -2.9036   -2.1611    0.2788 C   0  0  0  0  0  0  0  0  0  0  0  0
   -2.9309   -3.6451   -0.1185 C   0  0  0  0  0  0  0  0  0  0  0  0
   -2.2591   -3.8677   -1.4798 C   0  0  0  0  0  0  0  0  0  0  0  0
   -0.7801   -3.4566   -1.4559 C   0  0  0  0  0  0  0  0  0  0  0  0
   -4.1554    1.2692    1.9460 C   0  0  0  0  0  0  0  0  0  0  0  0
   -5.4262    1.6646    1.5219 C   0  0  0  0  0  0  0  0  0  0  0  0
   -8.3538    2.7859   -1.5210 H   0  0  0  0  0  0  0  0  0  0  0  0
   -7.2035    1.5621   -2.0727 H   0  0  0  0  0  0  0  0  0  0  0  0
   -6.6982    3.2870   -1.8865 H   0  0  0  0  0  0  0  0  0  0  0  0
   -4.8552    1.7747   -1.8367 H   0  0  0  0  0  0  0  0  0  0  0  0
   -2.6346    1.0937   -1.1005 H   0  0  0  0  0  0  0  0  0  0  0  0
    0.1355   -0.3157    3.1014 H   0  0  0  0  0  0  0  0  0  0  0  0
    0.1580    1.1781    4.0109 H   0  0  0  0  0  0  0  0  0  0  0  0
    2.7470    2.1838    0.3555 H   0  0  0  0  0  0  0  0  0  0  0  0
    2.3609    1.0554   -0.9367 H   0  0  0  0  0  0  0  0  0  0  0  0
    4.8126    1.0553   -0.9156 H   0  0  0  0  0  0  0  0  0  0  0  0
    5.8097   -1.2945   -0.2373 H   0  0  0  0  0  0  0  0  0  0  0  0
    6.1610   -0.3979    1.2549 H   0  0  0  0  0  0  0  0  0  0  0  0
    8.6835    0.8671    1.0014 H   0  0  0  0  0  0  0  0  0  0  0  0
   10.0265    1.7898   -1.1947 H   0  0  0  0  0  0  0  0  0  0  0  0
    8.3264    1.2617   -3.3075 H   0  0  0  0  0  0  0  0  0  0  0  0
   -3.6250   -1.6209   -0.3443 H   0  0  0  0  0  0  0  0  0  0  0  0
   -3.2212   -2.0613    1.3227 H   0  0  0  0  0  0  0  0  0  0  0  0
   -2.4135   -4.2425    0.6429 H   0  0  0  0  0  0  0  0  0  0  0  0
   -3.9688   -3.9949   -0.1519 H   0  0  0  0  0  0  0  0  0  0  0  0
   -2.7903   -3.2820   -2.2412 H   0  0  0  0  0  0  0  0  0  0  0  0
   -2.3415   -4.9205   -1.7724 H   0  0  0  0  0  0  0  0  0  0  0  0
   -0.1986   -4.2347   -0.9458 H   0  0  0  0  0  0  0  0  0  0  0  0
   -0.4058   -3.3841   -2.4834 H   0  0  0  0  0  0  0  0  0  0  0  0
   -3.9570    1.1451    3.0083 H   0  0  0  0  0  0  0  0  0  0  0  0
   -6.2074    1.8402    2.2580 H   0  0  0  0  0  0  0  0  0  0  0  0
  1  2  1  0
  2  3  1  0
  3  4  2  0
  4  5  1  0
  5  6  2  0
  6  7  1  0
  7  8  2  0
  8  9  1  0
  9 10  1  0
 10 11  2  0
 10 12  1  0
 12 13  1  0
 13 14  1  0
 14 15  2  0
 14 16  1  0
 16 17  1  0
 17 18  1  0
 18 19  2  0
 19 20  1  0
 20 21  2  0
 21 22  1  0
 12 23  1  0
 23 24  1  0
 24 25  1  0
 25 26  2  0
 26 27  1  0
 26 28  1  0
 28 29  1  0
 29 30  1  0
 30 31  1  0
  6 32  1  0
 32 33  2  0
 33  3  1  0
 27  7  1  0
 22 18  1  0
 27 23  2  0
 31 25  1  0
  1 34  1  0
  1 35  1  0
  1 36  1  0
  4 37  1  0
  5 38  1  0
  9 39  1  0
  9 40  1  0
 13 41  1  0
 13 42  1  0
 16 43  1  0
 17 44  1  0
 17 45  1  0
 19 46  1  0
 20 47  1  0
 21 48  1  0
 28 49  1  0
 28 50  1  0
 29 51  1  0
 29 52  1  0
 30 53  1  0
 30 54  1  0
 31 55  1  0
 31 56  1  0
 32 57  1  0
 33 58  1  0
M  END
$$$$
