
     RDKit          3D

 44 46  0  0  0  0  0  0  0  0999 V2000
   -1.4125    0.6443    2.9944 N   0  0  0  0  0  0  0  0  0  0  0  0
   -0.9392    0.3786    1.9682 C   0  0  0  0  0  0  0  0  0  0  0  0
   -0.4161    0.0141    0.7019 C   0  0  0  0  0  0  0  0  0  0  0  0
    0.8525    0.2373    0.3097 C   0  0  0  0  0  0  0  0  0  0  0  0
    1.8879    0.8512    1.0734 C   0  0  0  0  0  0  0  0  0  0  0  0
    2.0844    1.0303    2.4379 C   0  0  0  0  0  0  0  0  0  0  0  0
    3.3162    1.7076    2.6221 C   0  0  0  0  0  0  0  0  0  0  0  0
    3.8424    1.9099    1.3672 C   0  0  0  0  0  0  0  0  0  0  0  0
    5.0613    2.5303    0.8522 C   0  0  0  0  0  0  0  0  0  0  0  0
    5.3322    2.5712   -0.5253 C   0  0  0  0  0  0  0  0  0  0  0  0
    6.5003    3.1660   -1.0140 C   0  0  0  0  0  0  0  0  0  0  0  0
    7.4119    3.7279   -0.1255 C   0  0  0  0  0  0  0  0  0  0  0  0
    8.9911    4.5325   -0.7810 Br  0  0  0  0  0  0  0  0  0  0  0  0
    7.1660    3.7002    1.2443 C   0  0  0  0  0  0  0  0  0  0  0  0
    5.9961    3.1040    1.7287 C   0  0  0  0  0  0  0  0  0  0  0  0
    2.9897    1.3882    0.4411 O   0  0  0  0  0  0  0  0  0  0  0  0
   -1.3174   -0.6455   -0.3038 C   0  0  0  0  0  0  0  0  0  0  0  0
   -0.9010   -0.9974   -1.4049 O   0  0  0  0  0  0  0  0  0  0  0  0
   -2.6282   -0.8382    0.0812 N   0  0  0  0  0  0  0  0  0  0  0  0
   -3.5757   -1.5558   -0.7653 C   0  0  0  0  0  0  0  0  0  0  0  0
   -5.0088   -1.1110   -0.4514 C   0  0  0  0  0  0  0  0  0  0  0  0
   -6.0331   -1.8858   -1.2760 C   0  0  0  0  0  0  0  0  0  0  0  0
   -5.8720   -3.3926   -1.0994 C   0  0  0  0  0  0  0  0  0  0  0  0
   -4.4480   -3.8454   -1.4075 C   0  0  0  0  0  0  0  0  0  0  0  0
   -3.4197   -3.0719   -0.5861 C   0  0  0  0  0  0  0  0  0  0  0  0
    1.1514   -0.0382   -0.7013 H   0  0  0  0  0  0  0  0  0  0  0  0
    1.4301    0.7060    3.2353 H   0  0  0  0  0  0  0  0  0  0  0  0
    3.7600    2.0006    3.5627 H   0  0  0  0  0  0  0  0  0  0  0  0
    4.6320    2.1372   -1.2366 H   0  0  0  0  0  0  0  0  0  0  0  0
    6.6838    3.1829   -2.0851 H   0  0  0  0  0  0  0  0  0  0  0  0
    7.8736    4.1375    1.9438 H   0  0  0  0  0  0  0  0  0  0  0  0
    5.8277    3.0962    2.8027 H   0  0  0  0  0  0  0  0  0  0  0  0
   -2.9279   -0.6366    1.0281 H   0  0  0  0  0  0  0  0  0  0  0  0
   -3.3521   -1.3028   -1.8100 H   0  0  0  0  0  0  0  0  0  0  0  0
   -5.1175   -0.0372   -0.6464 H   0  0  0  0  0  0  0  0  0  0  0  0
   -5.2201   -1.2546    0.6165 H   0  0  0  0  0  0  0  0  0  0  0  0
   -5.9186   -1.6277   -2.3360 H   0  0  0  0  0  0  0  0  0  0  0  0
   -7.0454   -1.5864   -0.9820 H   0  0  0  0  0  0  0  0  0  0  0  0
   -6.1273   -3.6683   -0.0688 H   0  0  0  0  0  0  0  0  0  0  0  0
   -6.5760   -3.9181   -1.7544 H   0  0  0  0  0  0  0  0  0  0  0  0
   -4.2427   -3.7025   -2.4755 H   0  0  0  0  0  0  0  0  0  0  0  0
   -4.3504   -4.9178   -1.2043 H   0  0  0  0  0  0  0  0  0  0  0  0
   -2.4108   -3.3870   -0.8781 H   0  0  0  0  0  0  0  0  0  0  0  0
   -3.5298   -3.3335    0.4746 H   0  0  0  0  0  0  0  0  0  0  0  0
  1  2  3  0
  2  3  1  0
  3  4  2  3
  4  5  1  0
  5  6  2  0
  6  7  1  0
  7  8  2  0
  8  9  1  0
  9 10  2  0
 10 11  1  0
 11 12  2  0
 12 13  1  0
 12 14  1  0
 14 15  2  0
  8 16  1  0
  3 17  1  0
 17 18  2  0
 17 19  1  0
 19 20  1  0
 20 21  1  0
 21 22  1  0
 22 23  1  0
 23 24  1  0
 24 25  1  0
 16  5  1  0
 25 20  1  0
 15  9  1  0
  4 26  1  0
  6 27  1  0
  7 28  1  0
 10 29  1  0
 11 30  1  0
 14 31  1  0
 15 32  1  0
 19 33  1  0
 20 34  1  0
 21 35  1  0
 21 36  1  0
 22 37  1  0
 22 38  1  0
 23 39  1  0
 23 40  1  0
 24 41  1  0
 24 42  1  0
 25 43  1  0
 25 44  1  0
M  END
$$$$
