
     RDKit          3D

 43 45  0  0  0  0  0  0  0  0999 V2000
    7.2085   -1.4298   -1.3501 C   0  0  0  0  0  0  0  0  0  0  0  0
    5.8004   -1.2641   -1.4631 O   0  0  0  0  0  0  0  0  0  0  0  0
    5.2104   -0.3871   -0.5941 C   0  0  0  0  0  0  0  0  0  0  0  0
    5.8538    0.3221    0.4173 C   0  0  0  0  0  0  0  0  0  0  0  0
    5.1189    1.1750    1.2425 C   0  0  0  0  0  0  0  0  0  0  0  0
    3.7428    1.3315    1.0548 C   0  0  0  0  0  0  0  0  0  0  0  0
    3.0898    0.6508    0.0286 C   0  0  0  0  0  0  0  0  0  0  0  0
    1.6993    0.7225   -0.2086 N   0  0  0  0  0  0  0  0  0  0  0  0
    0.7648    1.7015    0.1042 C   0  0  0  0  0  0  0  0  0  0  0  0
    1.1227    3.3177    0.4026 S   0  0  0  0  0  0  0  0  0  0  0  0
   -0.5520    1.2001    0.0786 N   0  0  0  0  0  0  0  0  0  0  0  0
   -0.8630   -0.2356    0.2271 C   0  0  0  0  0  0  0  0  0  0  0  0
   -2.1362   -0.5091    1.0541 C   0  0  0  0  0  0  0  0  0  0  0  0
   -3.3016    0.2360    0.5529 N   0  0  0  0  0  0  0  0  0  0  0  0
   -4.4825   -0.4592    0.3072 C   0  0  0  0  0  0  0  0  0  0  0  0
   -4.9472   -1.4221    1.2058 C   0  0  0  0  0  0  0  0  0  0  0  0
   -6.1410   -2.0992    0.9561 C   0  0  0  0  0  0  0  0  0  0  0  0
   -6.8621   -1.7975   -0.1870 C   0  0  0  0  0  0  0  0  0  0  0  0
   -6.3558   -0.8233   -1.0243 C   0  0  0  0  0  0  0  0  0  0  0  0
   -5.2006   -0.1577   -0.7977 N   0  0  0  0  0  0  0  0  0  0  0  0
   -3.0243    1.3618   -0.3530 C   0  0  0  0  0  0  0  0  0  0  0  0
   -1.7354    2.0884    0.0686 C   0  0  0  0  0  0  0  0  0  0  0  0
    3.8319   -0.2250   -0.7750 C   0  0  0  0  0  0  0  0  0  0  0  0
    7.7337   -0.4860   -1.5307 H   0  0  0  0  0  0  0  0  0  0  0  0
    7.4785   -1.8537   -0.3773 H   0  0  0  0  0  0  0  0  0  0  0  0
    7.5243   -2.1391   -2.1211 H   0  0  0  0  0  0  0  0  0  0  0  0
    6.9192    0.2290    0.5978 H   0  0  0  0  0  0  0  0  0  0  0  0
    5.6162    1.7167    2.0436 H   0  0  0  0  0  0  0  0  0  0  0  0
    3.2046    1.9683    1.7487 H   0  0  0  0  0  0  0  0  0  0  0  0
    1.3549    0.0606   -0.8915 H   0  0  0  0  0  0  0  0  0  0  0  0
   -0.0239   -0.7606    0.6951 H   0  0  0  0  0  0  0  0  0  0  0  0
   -0.9864   -0.6344   -0.7872 H   0  0  0  0  0  0  0  0  0  0  0  0
   -1.9627   -0.2031    2.0928 H   0  0  0  0  0  0  0  0  0  0  0  0
   -2.3016   -1.5931    1.0547 H   0  0  0  0  0  0  0  0  0  0  0  0
   -4.4019   -1.6337    2.1191 H   0  0  0  0  0  0  0  0  0  0  0  0
   -6.5038   -2.8448    1.6570 H   0  0  0  0  0  0  0  0  0  0  0  0
   -7.7958   -2.2980   -0.4145 H   0  0  0  0  0  0  0  0  0  0  0  0
   -6.8805   -0.5366   -1.9309 H   0  0  0  0  0  0  0  0  0  0  0  0
   -3.8513    2.0820   -0.3270 H   0  0  0  0  0  0  0  0  0  0  0  0
   -2.9103    1.0022   -1.3843 H   0  0  0  0  0  0  0  0  0  0  0  0
   -1.8488    2.4885    1.0838 H   0  0  0  0  0  0  0  0  0  0  0  0
   -1.5548    2.9249   -0.6144 H   0  0  0  0  0  0  0  0  0  0  0  0
    3.3489   -0.7865   -1.5707 H   0  0  0  0  0  0  0  0  0  0  0  0
  1  2  1  0
  2  3  1  0
  3  4  2  0
  4  5  1  0
  5  6  2  0
  6  7  1  0
  7  8  1  0
  8  9  1  0
  9 10  2  0
  9 11  1  0
 11 12  1  0
 12 13  1  0
 13 14  1  0
 14 15  1  0
 15 16  2  0
 16 17  1  0
 17 18  2  0
 18 19  1  0
 19 20  2  0
 14 21  1  0
 21 22  1  0
  7 23  2  0
 23  3  1  0
 22 11  1  0
 20 15  1  0
  1 24  1  0
  1 25  1  0
  1 26  1  0
  4 27  1  0
  5 28  1  0
  6 29  1  0
  8 30  1  0
 12 31  1  0
 12 32  1  0
 13 33  1  0
 13 34  1  0
 16 35  1  0
 17 36  1  0
 18 37  1  0
 19 38  1  0
 21 39  1  0
 21 40  1  0
 22 41  1  0
 22 42  1  0
 23 43  1  0
M  END
$$$$
