
     RDKit          3D

 46 49  0  0  0  0  0  0  0  0999 V2000
    5.5681    0.1611    2.0005 C   0  0  0  0  0  0  0  0  0  0  0  0
    5.6084   -0.1398    0.5808 N   0  0  0  0  0  0  0  0  0  0  0  0
    6.0374    0.9958   -0.2337 C   0  0  0  0  0  0  0  0  0  0  0  0
    5.6001    0.6299   -1.6465 C   0  0  0  0  0  0  0  0  0  0  0  0
    4.7537   -0.6288   -1.4908 C   0  0  0  0  0  0  0  0  0  0  0  0
    4.3670   -0.6615   -0.0107 C   0  0  0  0  0  0  0  0  0  0  0  0
    3.0874    0.1406    0.3046 C   0  0  0  0  0  0  0  0  0  0  0  0
    1.8283   -0.5158   -0.2741 C   0  0  0  0  0  0  0  0  0  0  0  0
    0.6521    0.2544    0.1246 N   0  0  0  0  0  0  0  0  0  0  0  0
   -0.6261   -0.1997   -0.2106 C   0  0  0  0  0  0  0  0  0  0  0  0
   -0.8876   -1.0793   -1.2603 C   0  0  0  0  0  0  0  0  0  0  0  0
   -2.2003   -1.4370   -1.5923 C   0  0  0  0  0  0  0  0  0  0  0  0
   -3.2960   -0.9030   -0.9011 C   0  0  0  0  0  0  0  0  0  0  0  0
   -4.9039   -1.4405   -1.4097 S   0  0  0  0  0  0  0  0  0  0  0  0
   -5.9963   -0.4800   -0.3984 C   0  0  0  0  0  0  0  0  0  0  0  0
   -7.3742   -0.6418   -0.6249 C   0  0  0  0  0  0  0  0  0  0  0  0
   -8.3170    0.0645    0.1246 C   0  0  0  0  0  0  0  0  0  0  0  0
   -7.8944    0.9432    1.1142 C   0  0  0  0  0  0  0  0  0  0  0  0
   -6.5305    1.1122    1.3493 C   0  0  0  0  0  0  0  0  0  0  0  0
   -5.5754    0.4043    0.5957 C   0  0  0  0  0  0  0  0  0  0  0  0
   -4.1450    0.6379    0.9030 C   0  0  0  0  0  0  0  0  0  0  0  0
   -3.8538    1.3853    1.8363 O   0  0  0  0  0  0  0  0  0  0  0  0
   -3.0546    0.0064    0.1242 C   0  0  0  0  0  0  0  0  0  0  0  0
   -1.7289    0.3588    0.4491 C   0  0  0  0  0  0  0  0  0  0  0  0
    5.2236   -0.7093    2.5693 H   0  0  0  0  0  0  0  0  0  0  0  0
    6.5744    0.3982    2.3631 H   0  0  0  0  0  0  0  0  0  0  0  0
    4.9199    1.0111    2.2385 H   0  0  0  0  0  0  0  0  0  0  0  0
    5.5514    1.9305    0.0722 H   0  0  0  0  0  0  0  0  0  0  0  0
    7.1212    1.1401   -0.1773 H   0  0  0  0  0  0  0  0  0  0  0  0
    5.0081    1.4415   -2.0840 H   0  0  0  0  0  0  0  0  0  0  0  0
    6.4554    0.4417   -2.3038 H   0  0  0  0  0  0  0  0  0  0  0  0
    5.3710   -1.5054   -1.7295 H   0  0  0  0  0  0  0  0  0  0  0  0
    3.9091   -0.6343   -2.1837 H   0  0  0  0  0  0  0  0  0  0  0  0
    4.2205   -1.7007    0.3080 H   0  0  0  0  0  0  0  0  0  0  0  0
    2.9581    0.2126    1.3916 H   0  0  0  0  0  0  0  0  0  0  0  0
    3.1661    1.1699   -0.0674 H   0  0  0  0  0  0  0  0  0  0  0  0
    1.8951   -0.5423   -1.3656 H   0  0  0  0  0  0  0  0  0  0  0  0
    1.7467   -1.5439    0.0985 H   0  0  0  0  0  0  0  0  0  0  0  0
    0.6917    0.5778    1.0899 H   0  0  0  0  0  0  0  0  0  0  0  0
   -0.0814   -1.5073   -1.8484 H   0  0  0  0  0  0  0  0  0  0  0  0
   -2.3538   -2.1380   -2.4113 H   0  0  0  0  0  0  0  0  0  0  0  0
   -7.7288   -1.3264   -1.3939 H   0  0  0  0  0  0  0  0  0  0  0  0
   -9.3785   -0.0742   -0.0656 H   0  0  0  0  0  0  0  0  0  0  0  0
   -8.6210    1.4970    1.7036 H   0  0  0  0  0  0  0  0  0  0  0  0
   -6.2113    1.8039    2.1277 H   0  0  0  0  0  0  0  0  0  0  0  0
   -1.5563    1.0904    1.2378 H   0  0  0  0  0  0  0  0  0  0  0  0
  1  2  1  0
  2  3  1  0
  3  4  1  0
  4  5  1  0
  5  6  1  0
  6  7  1  0
  7  8  1  0
  8  9  1  0
  9 10  1  0
 10 11  2  0
 11 12  1  0
 12 13  2  0
 13 14  1  0
 14 15  1  0
 15 16  2  0
 16 17  1  0
 17 18  2  0
 18 19  1  0
 19 20  2  0
 20 21  1  0
 21 22  2  0
 21 23  1  0
 23 24  2  0
  6  2  1  0
 24 10  1  0
 23 13  1  0
 20 15  1  0
  1 25  1  0
  1 26  1  0
  1 27  1  0
  3 28  1  0
  3 29  1  0
  4 30  1  0
  4 31  1  0
  5 32  1  0
  5 33  1  0
  6 34  1  0
  7 35  1  0
  7 36  1  0
  8 37  1  0
  8 38  1  0
  9 39  1  0
 11 40  1  0
 12 41  1  0
 16 42  1  0
 17 43  1  0
 18 44  1  0
 19 45  1  0
 24 46  1  0
M  END
$$$$
