
     RDKit          3D

 53 56  0  0  0  0  0  0  0  0999 V2000
   -0.4913   -0.3461   -3.6881 C   0  0  0  0  0  0  0  0  0  0  0  0
   -1.0233   -1.3919   -2.7431 C   0  0  0  0  0  0  0  0  0  0  0  0
   -0.6210   -2.5547   -2.7773 O   0  0  0  0  0  0  0  0  0  0  0  0
   -2.0431   -0.9581   -1.7579 C   0  0  0  0  0  0  0  0  0  0  0  0
   -1.6422   -0.5966   -0.5183 C   0  0  0  0  0  0  0  0  0  0  0  0
   -0.3400   -0.6591   -0.0364 N   0  0  0  0  0  0  0  0  0  0  0  0
    0.5244    0.5391   -0.0166 C   0  0  0  0  0  0  0  0  0  0  0  0
    1.8535    0.2764    0.7237 C   0  0  0  0  0  0  0  0  0  0  0  0
    2.6498   -0.8615    0.2141 N   0  0  0  0  0  0  0  0  0  0  0  0
    3.7073   -0.4497   -0.7227 C   0  0  0  0  0  0  0  0  0  0  0  0
    4.8323    0.3223   -0.0641 C   0  0  0  0  0  0  0  0  0  0  0  0
    5.2827    1.5314   -0.6142 C   0  0  0  0  0  0  0  0  0  0  0  0
    6.3380    2.2299   -0.0234 C   0  0  0  0  0  0  0  0  0  0  0  0
    6.9572    1.7257    1.1186 C   0  0  0  0  0  0  0  0  0  0  0  0
    6.5273    0.5193    1.6681 C   0  0  0  0  0  0  0  0  0  0  0  0
    5.4737   -0.1804    1.0784 C   0  0  0  0  0  0  0  0  0  0  0  0
    1.7890   -1.8922   -0.4137 C   0  0  0  0  0  0  0  0  0  0  0  0
    0.3626   -1.9472    0.1686 C   0  0  0  0  0  0  0  0  0  0  0  0
   -2.5937   -0.1155    0.3445 N   0  0  0  0  0  0  0  0  0  0  0  0
   -3.9284   -0.0938    0.0451 C   0  0  0  0  0  0  0  0  0  0  0  0
   -4.9166    0.3242    1.0888 C   0  0  0  0  0  0  0  0  0  0  0  0
   -4.5315    1.1276    2.1697 C   0  0  0  0  0  0  0  0  0  0  0  0
   -5.4716    1.5021    3.1337 C   0  0  0  0  0  0  0  0  0  0  0  0
   -6.7959    1.0802    3.0210 C   0  0  0  0  0  0  0  0  0  0  0  0
   -7.1866    0.2886    1.9422 C   0  0  0  0  0  0  0  0  0  0  0  0
   -6.2509   -0.0865    0.9761 C   0  0  0  0  0  0  0  0  0  0  0  0
   -4.3767   -0.4336   -1.1267 N   0  0  0  0  0  0  0  0  0  0  0  0
   -3.4971   -0.8267   -2.1208 C   0  0  0  0  0  0  0  0  0  0  0  0
   -4.0953   -1.1422   -3.6762 S   0  0  0  0  0  0  0  0  0  0  0  0
    0.5836   -0.2321   -3.5257 H   0  0  0  0  0  0  0  0  0  0  0  0
   -0.6839   -0.6565   -4.7183 H   0  0  0  0  0  0  0  0  0  0  0  0
   -0.9710    0.6220   -3.5177 H   0  0  0  0  0  0  0  0  0  0  0  0
   -0.0026    1.3610    0.4823 H   0  0  0  0  0  0  0  0  0  0  0  0
    0.7324    0.8553   -1.0460 H   0  0  0  0  0  0  0  0  0  0  0  0
    2.4361    1.2041    0.7570 H   0  0  0  0  0  0  0  0  0  0  0  0
    1.6151    0.0492    1.7714 H   0  0  0  0  0  0  0  0  0  0  0  0
    3.2751    0.1347   -1.5463 H   0  0  0  0  0  0  0  0  0  0  0  0
    4.1705   -1.3366   -1.1770 H   0  0  0  0  0  0  0  0  0  0  0  0
    4.8158    1.9382   -1.5082 H   0  0  0  0  0  0  0  0  0  0  0  0
    6.6807    3.1652   -0.4581 H   0  0  0  0  0  0  0  0  0  0  0  0
    7.7802    2.2681    1.5765 H   0  0  0  0  0  0  0  0  0  0  0  0
    7.0153    0.1193    2.5533 H   0  0  0  0  0  0  0  0  0  0  0  0
    5.1463   -1.1227    1.5138 H   0  0  0  0  0  0  0  0  0  0  0  0
    2.2685   -2.8693   -0.2862 H   0  0  0  0  0  0  0  0  0  0  0  0
    1.7058   -1.7105   -1.4931 H   0  0  0  0  0  0  0  0  0  0  0  0
    0.4060   -2.1516    1.2461 H   0  0  0  0  0  0  0  0  0  0  0  0
   -0.1909   -2.7795   -0.2796 H   0  0  0  0  0  0  0  0  0  0  0  0
   -2.2714   -0.0513    1.3010 H   0  0  0  0  0  0  0  0  0  0  0  0
   -3.5149    1.4949    2.2670 H   0  0  0  0  0  0  0  0  0  0  0  0
   -5.1739    2.1312    3.9694 H   0  0  0  0  0  0  0  0  0  0  0  0
   -7.5269    1.3750    3.7705 H   0  0  0  0  0  0  0  0  0  0  0  0
   -8.2199   -0.0359    1.8491 H   0  0  0  0  0  0  0  0  0  0  0  0
   -6.5686   -0.7032    0.1374 H   0  0  0  0  0  0  0  0  0  0  0  0
  1  2  1  0
  2  3  2  0
  2  4  1  0
  4  5  2  0
  5  6  1  0
  6  7  1  0
  7  8  1  0
  8  9  1  0
  9 10  1  0
 10 11  1  0
 11 12  2  0
 12 13  1  0
 13 14  2  0
 14 15  1  0
 15 16  2  0
  9 17  1  0
 17 18  1  0
  5 19  1  0
 19 20  1  0
 20 21  1  0
 21 22  2  0
 22 23  1  0
 23 24  2  0
 24 25  1  0
 25 26  2  0
 20 27  2  0
 27 28  1  0
 28 29  2  0
 28  4  1  0
 18  6  1  0
 26 21  1  0
 16 11  1  0
  1 30  1  0
  1 31  1  0
  1 32  1  0
  7 33  1  0
  7 34  1  0
  8 35  1  0
  8 36  1  0
 10 37  1  0
 10 38  1  0
 12 39  1  0
 13 40  1  0
 14 41  1  0
 15 42  1  0
 16 43  1  0
 17 44  1  0
 17 45  1  0
 18 46  1  0
 18 47  1  0
 19 48  1  0
 22 49  1  0
 23 50  1  0
 24 51  1  0
 25 52  1  0
 26 53  1  0
M  END
$$$$
