
     RDKit          3D

 46 47  0  0  0  0  0  0  0  0999 V2000
    0.2736   -0.2459   -1.2904 O   0  0  0  0  0  0  0  0  0  0  0  0
    0.5710    0.3860   -0.2862 C   0  0  0  0  0  0  0  0  0  0  0  0
   -0.3432    0.9113    0.5922 N   0  0  0  0  0  0  0  0  0  0  0  0
   -1.7728    0.6371    0.4516 C   0  0  0  0  0  0  0  0  0  0  0  0
   -2.5668    1.7558    1.1394 C   0  0  0  0  0  0  0  0  0  0  0  0
   -4.0771    1.5495    1.2869 C   0  0  0  0  0  0  0  0  0  0  0  0
   -4.8204    1.1074    0.0271 C   0  0  0  0  0  0  0  0  0  0  0  0
   -5.0013   -0.4101   -0.1210 C   0  0  0  0  0  0  0  0  0  0  0  0
   -3.8848   -1.1257   -0.8801 C   0  0  0  0  0  0  0  0  0  0  0  0
   -2.7491   -1.6924   -0.0254 C   0  0  0  0  0  0  0  0  0  0  0  0
   -2.1102   -0.7584    1.0031 C   0  0  0  0  0  0  0  0  0  0  0  0
    1.8582    0.6900    0.0794 N   0  0  0  0  0  0  0  0  0  0  0  0
    2.9993    0.1619   -0.6602 C   0  0  0  0  0  0  0  0  0  0  0  0
    3.2922   -1.2982   -0.2642 C   0  0  0  0  0  0  0  0  0  0  0  0
    4.3452   -1.3877    0.8350 C   0  0  0  0  0  0  0  0  0  0  0  0
    5.6787   -0.7795    0.3955 C   0  0  0  0  0  0  0  0  0  0  0  0
    5.5283    0.3399   -0.6362 C   0  0  0  0  0  0  0  0  0  0  0  0
    4.2125    1.0873   -0.4654 C   0  0  0  0  0  0  0  0  0  0  0  0
   -0.0063    1.1671    1.5061 H   0  0  0  0  0  0  0  0  0  0  0  0
   -1.9779    0.6869   -0.6223 H   0  0  0  0  0  0  0  0  0  0  0  0
   -2.1567    1.9353    2.1427 H   0  0  0  0  0  0  0  0  0  0  0  0
   -2.3940    2.6884    0.5850 H   0  0  0  0  0  0  0  0  0  0  0  0
   -4.4939    2.5161    1.6012 H   0  0  0  0  0  0  0  0  0  0  0  0
   -4.2921    0.8658    2.1159 H   0  0  0  0  0  0  0  0  0  0  0  0
   -5.8313    1.5319    0.0983 H   0  0  0  0  0  0  0  0  0  0  0  0
   -4.3754    1.5483   -0.8721 H   0  0  0  0  0  0  0  0  0  0  0  0
   -5.9181   -0.5547   -0.7090 H   0  0  0  0  0  0  0  0  0  0  0  0
   -5.1903   -0.8875    0.8472 H   0  0  0  0  0  0  0  0  0  0  0  0
   -4.3318   -1.9787   -1.4086 H   0  0  0  0  0  0  0  0  0  0  0  0
   -3.4868   -0.4802   -1.6713 H   0  0  0  0  0  0  0  0  0  0  0  0
   -1.9672   -2.0564   -0.7040 H   0  0  0  0  0  0  0  0  0  0  0  0
   -3.1175   -2.5790    0.5066 H   0  0  0  0  0  0  0  0  0  0  0  0
   -1.2045   -1.2549    1.3767 H   0  0  0  0  0  0  0  0  0  0  0  0
   -2.7671   -0.6936    1.8767 H   0  0  0  0  0  0  0  0  0  0  0  0
    2.0092    0.9526    1.0398 H   0  0  0  0  0  0  0  0  0  0  0  0
    2.7246    0.1645   -1.7231 H   0  0  0  0  0  0  0  0  0  0  0  0
    3.6654   -1.8375   -1.1448 H   0  0  0  0  0  0  0  0  0  0  0  0
    2.3793   -1.8160    0.0523 H   0  0  0  0  0  0  0  0  0  0  0  0
    3.9811   -0.8632    1.7274 H   0  0  0  0  0  0  0  0  0  0  0  0
    4.4988   -2.4322    1.1290 H   0  0  0  0  0  0  0  0  0  0  0  0
    6.3228   -1.5608   -0.0260 H   0  0  0  0  0  0  0  0  0  0  0  0
    6.2005   -0.4001    1.2825 H   0  0  0  0  0  0  0  0  0  0  0  0
    5.5727   -0.0859   -1.6465 H   0  0  0  0  0  0  0  0  0  0  0  0
    6.3734    1.0326   -0.5529 H   0  0  0  0  0  0  0  0  0  0  0  0
    4.1949    1.5452    0.5326 H   0  0  0  0  0  0  0  0  0  0  0  0
    4.1549    1.9175   -1.1799 H   0  0  0  0  0  0  0  0  0  0  0  0
  1  2  2  0
  2  3  1  0
  3  4  1  0
  4  5  1  0
  5  6  1  0
  6  7  1  0
  7  8  1  0
  8  9  1  0
  9 10  1  0
 10 11  1  0
  2 12  1  0
 12 13  1  0
 13 14  1  0
 14 15  1  0
 15 16  1  0
 16 17  1  0
 17 18  1  0
 11  4  1  0
 18 13  1  0
  3 19  1  0
  4 20  1  0
  5 21  1  0
  5 22  1  0
  6 23  1  0
  6 24  1  0
  7 25  1  0
  7 26  1  0
  8 27  1  0
  8 28  1  0
  9 29  1  0
  9 30  1  0
 10 31  1  0
 10 32  1  0
 11 33  1  0
 11 34  1  0
 12 35  1  0
 13 36  1  0
 14 37  1  0
 14 38  1  0
 15 39  1  0
 15 40  1  0
 16 41  1  0
 16 42  1  0
 17 43  1  0
 17 44  1  0
 18 45  1  0
 18 46  1  0
M  END
$$$$
