
     RDKit          3D

 31 34  0  0  0  0  0  0  0  0999 V2000
   -0.4392   -1.6411    4.3248 N   0  0  0  0  0  0  0  0  0  0  0  0
   -0.5385   -1.1791    3.2641 C   0  0  0  0  0  0  0  0  0  0  0  0
   -0.5747   -0.6531    1.9346 C   0  0  0  0  0  0  0  0  0  0  0  0
   -1.6665   -0.0622    1.4090 C   0  0  0  0  0  0  0  0  0  0  0  0
   -2.9489    0.0930    2.1943 C   0  0  0  0  0  0  0  0  0  0  0  0
   -3.1817   -0.2630    3.3310 O   0  0  0  0  0  0  0  0  0  0  0  0
   -3.8298    0.7295    1.3431 N   0  0  0  0  0  0  0  0  0  0  0  0
   -3.2497    0.9860    0.1087 C   0  0  0  0  0  0  0  0  0  0  0  0
   -3.8655    1.6006   -0.9646 C   0  0  0  0  0  0  0  0  0  0  0  0
   -3.1155    1.7598   -2.1284 C   0  0  0  0  0  0  0  0  0  0  0  0
   -1.7884    1.3049   -2.1873 C   0  0  0  0  0  0  0  0  0  0  0  0
   -1.1874    0.6837   -1.0836 C   0  0  0  0  0  0  0  0  0  0  0  0
   -1.9266    0.5269    0.0771 C   0  0  0  0  0  0  0  0  0  0  0  0
    0.6331   -0.7597    1.1842 C   0  0  0  0  0  0  0  0  0  0  0  0
    1.4338    0.2340    0.8501 N   0  0  0  0  0  0  0  0  0  0  0  0
    2.5334   -0.2325    0.1486 C   0  0  0  0  0  0  0  0  0  0  0  0
    3.5901    0.5559   -0.3493 C   0  0  0  0  0  0  0  0  0  0  0  0
    4.6381   -0.0493   -1.0504 C   0  0  0  0  0  0  0  0  0  0  0  0
    4.6432   -1.4246   -1.2602 C   0  0  0  0  0  0  0  0  0  0  0  0
    3.6056   -2.2276   -0.7766 C   0  0  0  0  0  0  0  0  0  0  0  0
    2.5588   -1.6086   -0.0735 C   0  0  0  0  0  0  0  0  0  0  0  0
    1.1610   -2.3158    0.6342 S   0  0  0  0  0  0  0  0  0  0  0  0
   -4.7741    0.9613    1.6128 H   0  0  0  0  0  0  0  0  0  0  0  0
   -4.8912    1.9476   -0.9127 H   0  0  0  0  0  0  0  0  0  0  0  0
   -3.5588    2.2396   -2.9984 H   0  0  0  0  0  0  0  0  0  0  0  0
   -1.2164    1.4387   -3.1038 H   0  0  0  0  0  0  0  0  0  0  0  0
   -0.1607    0.3500   -1.1713 H   0  0  0  0  0  0  0  0  0  0  0  0
    3.5836    1.6286   -0.1819 H   0  0  0  0  0  0  0  0  0  0  0  0
    5.4539    0.5614   -1.4306 H   0  0  0  0  0  0  0  0  0  0  0  0
    5.4660   -1.8835   -1.8052 H   0  0  0  0  0  0  0  0  0  0  0  0
    3.6129   -3.3014   -0.9390 H   0  0  0  0  0  0  0  0  0  0  0  0
  1  2  3  0
  2  3  1  0
  3  4  2  3
  4  5  1  0
  5  6  2  0
  5  7  1  0
  7  8  1  0
  8  9  2  0
  9 10  1  0
 10 11  2  0
 11 12  1  0
 12 13  2  0
  3 14  1  0
 14 15  2  0
 15 16  1  0
 16 17  2  0
 17 18  1  0
 18 19  2  0
 19 20  1  0
 20 21  2  0
 21 22  1  0
 13  4  1  0
 22 14  1  0
 13  8  1  0
 21 16  1  0
  7 23  1  0
  9 24  1  0
 10 25  1  0
 11 26  1  0
 12 27  1  0
 17 28  1  0
 18 29  1  0
 19 30  1  0
 20 31  1  0
M  END
$$$$
