
     RDKit          3D

 42 44  0  0  0  0  0  0  0  0999 V2000
   -2.0706    2.7434   -0.1384 C   0  0  0  0  0  0  0  0  0  0  0  0
   -1.5573    1.3451    0.1624 C   0  0  0  0  0  0  0  0  0  0  0  0
   -2.0130    0.3720   -0.8073 N   0  0  0  0  0  0  0  0  0  0  0  0
   -1.3787   -0.0342   -1.9483 C   0  0  0  0  0  0  0  0  0  0  0  0
    0.2097    0.4508   -2.4245 S   0  0  0  0  0  0  0  0  0  0  0  0
    1.1104   -1.0597   -1.9738 C   0  0  0  0  0  0  0  0  0  0  0  0
    1.4771   -1.0084   -0.5040 C   0  0  0  0  0  0  0  0  0  0  0  0
    0.6337   -1.1381    0.3845 O   0  0  0  0  0  0  0  0  0  0  0  0
    2.8995   -0.7887   -0.1150 C   0  0  0  0  0  0  0  0  0  0  0  0
    3.7954   -0.0858   -0.9277 C   0  0  0  0  0  0  0  0  0  0  0  0
    5.1174    0.1015   -0.5109 C   0  0  0  0  0  0  0  0  0  0  0  0
    5.5589   -0.4109    0.7163 C   0  0  0  0  0  0  0  0  0  0  0  0
    6.9685   -0.1814    1.1793 C   0  0  0  0  0  0  0  0  0  0  0  0
    4.6521   -1.0909    1.5374 C   0  0  0  0  0  0  0  0  0  0  0  0
    3.3307   -1.2788    1.1251 C   0  0  0  0  0  0  0  0  0  0  0  0
   -2.1424   -0.8613   -2.6200 N   0  0  0  0  0  0  0  0  0  0  0  0
   -3.3056   -1.0186   -1.9070 N   0  0  0  0  0  0  0  0  0  0  0  0
   -3.2146   -0.3095   -0.7958 C   0  0  0  0  0  0  0  0  0  0  0  0
   -4.2392   -0.2306    0.2363 C   0  0  0  0  0  0  0  0  0  0  0  0
   -5.5014    0.2750   -0.0775 C   0  0  0  0  0  0  0  0  0  0  0  0
   -6.4505    0.3404    0.9274 C   0  0  0  0  0  0  0  0  0  0  0  0
   -6.2283   -0.0652    2.1963 N   0  0  0  0  0  0  0  0  0  0  0  0
   -5.0106   -0.5821    2.4672 C   0  0  0  0  0  0  0  0  0  0  0  0
   -3.9947   -0.6866    1.5327 C   0  0  0  0  0  0  0  0  0  0  0  0
   -1.7402    3.0811   -1.1265 H   0  0  0  0  0  0  0  0  0  0  0  0
   -1.6958    3.4510    0.6076 H   0  0  0  0  0  0  0  0  0  0  0  0
   -3.1660    2.7800   -0.1214 H   0  0  0  0  0  0  0  0  0  0  0  0
   -1.8799    1.0268    1.1573 H   0  0  0  0  0  0  0  0  0  0  0  0
   -0.4641    1.3450    0.1821 H   0  0  0  0  0  0  0  0  0  0  0  0
    0.5102   -1.9575   -2.1523 H   0  0  0  0  0  0  0  0  0  0  0  0
    1.9962   -1.1557   -2.6063 H   0  0  0  0  0  0  0  0  0  0  0  0
    3.4896    0.3483   -1.8773 H   0  0  0  0  0  0  0  0  0  0  0  0
    5.8014    0.6579   -1.1502 H   0  0  0  0  0  0  0  0  0  0  0  0
    7.3533   -1.0654    1.7010 H   0  0  0  0  0  0  0  0  0  0  0  0
    7.0044    0.6781    1.8565 H   0  0  0  0  0  0  0  0  0  0  0  0
    7.6346    0.0127    0.3326 H   0  0  0  0  0  0  0  0  0  0  0  0
    4.9680   -1.4764    2.5057 H   0  0  0  0  0  0  0  0  0  0  0  0
    2.6397   -1.8098    1.7779 H   0  0  0  0  0  0  0  0  0  0  0  0
   -5.7416    0.6066   -1.0823 H   0  0  0  0  0  0  0  0  0  0  0  0
   -7.4456    0.7313    0.7320 H   0  0  0  0  0  0  0  0  0  0  0  0
   -4.8691   -0.9246    3.4886 H   0  0  0  0  0  0  0  0  0  0  0  0
   -3.0415   -1.1268    1.8107 H   0  0  0  0  0  0  0  0  0  0  0  0
  1  2  1  0
  2  3  1  0
  3  4  1  0
  4  5  1  0
  5  6  1  0
  6  7  1  0
  7  8  2  0
  7  9  1  0
  9 10  2  0
 10 11  1  0
 11 12  2  0
 12 13  1  0
 12 14  1  0
 14 15  2  0
  4 16  2  0
 16 17  1  0
 17 18  2  0
 18 19  1  0
 19 20  2  0
 20 21  1  0
 21 22  2  0
 22 23  1  0
 23 24  2  0
 18  3  1  0
 24 19  1  0
 15  9  1  0
  1 25  1  0
  1 26  1  0
  1 27  1  0
  2 28  1  0
  2 29  1  0
  6 30  1  0
  6 31  1  0
 10 32  1  0
 11 33  1  0
 13 34  1  0
 13 35  1  0
 13 36  1  0
 14 37  1  0
 15 38  1  0
 20 39  1  0
 21 40  1  0
 23 41  1  0
 24 42  1  0
M  END
$$$$
