
     RDKit          3D

 48 50  0  0  0  0  0  0  0  0999 V2000
   -3.2725   -0.8193    1.3002 O   0  0  0  0  0  0  0  0  0  0  0  0
   -2.6483    0.2385    1.2763 C   0  0  0  0  0  0  0  0  0  0  0  0
   -1.3736    0.4973    2.0527 C   0  0  0  0  0  0  0  0  0  0  0  0
   -0.9315   -0.7282    2.8502 C   0  0  0  0  0  0  0  0  0  0  0  0
    0.2984   -0.4704    3.7276 C   0  0  0  0  0  0  0  0  0  0  0  0
    1.5145   -0.2024    2.9564 N   0  0  0  0  0  0  0  0  0  0  0  0
    2.1630   -1.2724    2.3597 C   0  0  0  0  0  0  0  0  0  0  0  0
    1.8251   -2.4464    2.4242 O   0  0  0  0  0  0  0  0  0  0  0  0
    3.3611   -0.8027    1.6188 C   0  0  0  0  0  0  0  0  0  0  0  0
    4.1342   -1.6430    0.9190 C   0  0  0  0  0  0  0  0  0  0  0  0
    5.3180   -1.2471    0.1450 C   0  0  0  0  0  0  0  0  0  0  0  0
    6.5732   -1.3240    0.7657 C   0  0  0  0  0  0  0  0  0  0  0  0
    7.7287   -0.9499    0.0760 C   0  0  0  0  0  0  0  0  0  0  0  0
    7.6422   -0.4962   -1.2388 C   0  0  0  0  0  0  0  0  0  0  0  0
    6.3995   -0.4164   -1.8677 C   0  0  0  0  0  0  0  0  0  0  0  0
    5.2407   -0.7898   -1.1809 C   0  0  0  0  0  0  0  0  0  0  0  0
    3.7310   -0.6752   -2.0177 Cl  0  0  0  0  0  0  0  0  0  0  0  0
    3.5476    0.8925    1.8056 S   0  0  0  0  0  0  0  0  0  0  0  0
    2.1012    1.0371    2.7972 C   0  0  0  0  0  0  0  0  0  0  0  0
    1.5970    2.5068    3.4055 S   0  0  0  0  0  0  0  0  0  0  0  0
   -3.0605    1.3302    0.5343 N   0  0  0  0  0  0  0  0  0  0  0  0
   -4.0796    1.0981   -0.4116 N   0  0  0  0  0  0  0  0  0  0  0  0
   -3.8796    1.6272   -1.6741 C   0  0  0  0  0  0  0  0  0  0  0  0
   -2.9666    2.4122   -1.9204 O   0  0  0  0  0  0  0  0  0  0  0  0
   -4.8071    1.1706   -2.7464 C   0  0  0  0  0  0  0  0  0  0  0  0
   -4.3930    1.2992   -4.0801 C   0  0  0  0  0  0  0  0  0  0  0  0
   -5.2287    0.8872   -5.1218 C   0  0  0  0  0  0  0  0  0  0  0  0
   -6.4827    0.3538   -4.8320 C   0  0  0  0  0  0  0  0  0  0  0  0
   -7.5136   -0.1523   -6.1123 Cl  0  0  0  0  0  0  0  0  0  0  0  0
   -6.9105    0.2335   -3.5101 C   0  0  0  0  0  0  0  0  0  0  0  0
   -6.0759    0.6445   -2.4651 C   0  0  0  0  0  0  0  0  0  0  0  0
   -1.5568    1.3395    2.7294 H   0  0  0  0  0  0  0  0  0  0  0  0
   -0.5956    0.7844    1.3368 H   0  0  0  0  0  0  0  0  0  0  0  0
   -0.7398   -1.5606    2.1623 H   0  0  0  0  0  0  0  0  0  0  0  0
   -1.7540   -1.0501    3.5015 H   0  0  0  0  0  0  0  0  0  0  0  0
    0.0938    0.3443    4.4281 H   0  0  0  0  0  0  0  0  0  0  0  0
    0.4824   -1.3659    4.3343 H   0  0  0  0  0  0  0  0  0  0  0  0
    3.8958   -2.7045    0.8793 H   0  0  0  0  0  0  0  0  0  0  0  0
    6.6607   -1.6729    1.7927 H   0  0  0  0  0  0  0  0  0  0  0  0
    8.6974   -1.0113    0.5668 H   0  0  0  0  0  0  0  0  0  0  0  0
    8.5423   -0.2041   -1.7745 H   0  0  0  0  0  0  0  0  0  0  0  0
    6.3400   -0.0618   -2.8937 H   0  0  0  0  0  0  0  0  0  0  0  0
   -2.3904    2.0521    0.2636 H   0  0  0  0  0  0  0  0  0  0  0  0
   -4.5764    0.2156   -0.2878 H   0  0  0  0  0  0  0  0  0  0  0  0
   -3.4156    1.7193   -4.3125 H   0  0  0  0  0  0  0  0  0  0  0  0
   -4.8957    0.9881   -6.1517 H   0  0  0  0  0  0  0  0  0  0  0  0
   -7.8945   -0.1721   -3.2872 H   0  0  0  0  0  0  0  0  0  0  0  0
   -6.4452    0.5669   -1.4461 H   0  0  0  0  0  0  0  0  0  0  0  0
  1  2  2  0
  2  3  1  0
  3  4  1  0
  4  5  1  0
  5  6  1  0
  6  7  1  0
  7  8  2  0
  7  9  1  0
  9 10  2  3
 10 11  1  0
 11 12  2  0
 12 13  1  0
 13 14  2  0
 14 15  1  0
 15 16  2  0
 16 17  1  0
  9 18  1  0
 18 19  1  0
 19 20  2  0
  2 21  1  0
 21 22  1  0
 22 23  1  0
 23 24  2  0
 23 25  1  0
 25 26  2  0
 26 27  1  0
 27 28  2  0
 28 29  1  0
 28 30  1  0
 30 31  2  0
 19  6  1  0
 31 25  1  0
 16 11  1  0
  3 32  1  0
  3 33  1  0
  4 34  1  0
  4 35  1  0
  5 36  1  0
  5 37  1  0
 10 38  1  0
 12 39  1  0
 13 40  1  0
 14 41  1  0
 15 42  1  0
 21 43  1  0
 22 44  1  0
 26 45  1  0
 27 46  1  0
 30 47  1  0
 31 48  1  0
M  END
$$$$
