
     RDKit          3D

 42 43  0  0  0  0  0  0  0  0999 V2000
   -1.2133    3.1040   -1.2560 C   0  0  0  0  0  0  0  0  0  0  0  0
   -0.3844    2.2328   -0.3520 C   0  0  0  0  0  0  0  0  0  0  0  0
    0.6146    2.8424    0.4293 C   0  0  0  0  0  0  0  0  0  0  0  0
    1.4318    2.0890    1.2746 C   0  0  0  0  0  0  0  0  0  0  0  0
    1.2655    0.7065    1.3353 C   0  0  0  0  0  0  0  0  0  0  0  0
    2.2889   -0.2708    2.4118 S   0  0  0  0  0  6  0  0  0  0  0  0
    3.1740    0.6317    3.1250 O   0  0  0  0  0  0  0  0  0  0  0  0
    1.3948   -1.1543    3.1369 O   0  0  0  0  0  0  0  0  0  0  0  0
    3.3162   -1.2696    1.3568 C   0  0  0  0  0  0  0  0  0  0  0  0
    3.0255   -2.6259    1.1798 C   0  0  0  0  0  0  0  0  0  0  0  0
    3.8428   -3.3996    0.3528 C   0  0  0  0  0  0  0  0  0  0  0  0
    4.9428   -2.8176   -0.2792 C   0  0  0  0  0  0  0  0  0  0  0  0
    5.9474   -3.7749   -1.2959 Cl  0  0  0  0  0  0  0  0  0  0  0  0
    5.2380   -1.4664   -0.0901 C   0  0  0  0  0  0  0  0  0  0  0  0
    4.4250   -0.6861    0.7344 C   0  0  0  0  0  0  0  0  0  0  0  0
    0.2844    0.0710    0.5722 C   0  0  0  0  0  0  0  0  0  0  0  0
   -0.5385    0.8336   -0.2707 C   0  0  0  0  0  0  0  0  0  0  0  0
   -1.7579   -0.0406   -1.2440 S   0  0  0  0  0  6  0  0  0  0  0  0
   -1.7185    0.4952   -2.5864 O   0  0  0  0  0  0  0  0  0  0  0  0
   -1.5841   -1.4595   -1.0129 O   0  0  0  0  0  0  0  0  0  0  0  0
   -3.2337    0.4219   -0.5178 N   0  0  0  0  0  0  0  0  0  0  0  0
   -3.3976    0.0245    0.9010 C   0  0  0  0  0  0  0  0  0  0  0  0
   -4.4182    0.0553   -1.3481 C   0  0  0  0  0  0  0  0  0  0  0  0
   -4.6095   -1.4305   -1.5510 C   0  0  0  0  0  0  0  0  0  0  0  0
   -4.9298   -2.2350   -0.6889 O   0  0  0  0  0  0  0  0  0  0  0  0
   -4.3637   -1.8344   -2.8114 O   0  0  0  0  0  0  0  0  0  0  0  0
   -1.0880    4.1638   -1.0070 H   0  0  0  0  0  0  0  0  0  0  0  0
   -2.2794    2.8870   -1.1510 H   0  0  0  0  0  0  0  0  0  0  0  0
   -0.9052    2.9724   -2.2974 H   0  0  0  0  0  0  0  0  0  0  0  0
    0.7623    3.9212    0.3858 H   0  0  0  0  0  0  0  0  0  0  0  0
    2.1873    2.5909    1.8762 H   0  0  0  0  0  0  0  0  0  0  0  0
    2.1751   -3.0884    1.6771 H   0  0  0  0  0  0  0  0  0  0  0  0
    3.6203   -4.4542    0.2085 H   0  0  0  0  0  0  0  0  0  0  0  0
    6.1015   -1.0197   -0.5771 H   0  0  0  0  0  0  0  0  0  0  0  0
    4.6663    0.3634    0.8905 H   0  0  0  0  0  0  0  0  0  0  0  0
    0.1572   -1.0083    0.6406 H   0  0  0  0  0  0  0  0  0  0  0  0
   -4.4034    0.2779    1.2516 H   0  0  0  0  0  0  0  0  0  0  0  0
   -2.6948    0.5778    1.5299 H   0  0  0  0  0  0  0  0  0  0  0  0
   -3.2436   -1.0483    1.0438 H   0  0  0  0  0  0  0  0  0  0  0  0
   -5.3311    0.4498   -0.8862 H   0  0  0  0  0  0  0  0  0  0  0  0
   -4.3528    0.5586   -2.3198 H   0  0  0  0  0  0  0  0  0  0  0  0
   -4.4143   -2.8126   -2.7710 H   0  0  0  0  0  0  0  0  0  0  0  0
  1  2  1  0
  2  3  2  0
  3  4  1  0
  4  5  2  0
  5  6  1  0
  6  7  2  0
  6  8  2  0
  6  9  1  0
  9 10  2  0
 10 11  1  0
 11 12  2  0
 12 13  1  0
 12 14  1  0
 14 15  2  0
  5 16  1  0
 16 17  2  0
 17 18  1  0
 18 19  2  0
 18 20  2  0
 18 21  1  0
 21 22  1  0
 21 23  1  0
 23 24  1  0
 24 25  2  0
 24 26  1  0
 17  2  1  0
 15  9  1  0
  1 27  1  0
  1 28  1  0
  1 29  1  0
  3 30  1  0
  4 31  1  0
 10 32  1  0
 11 33  1  0
 14 34  1  0
 15 35  1  0
 16 36  1  0
 22 37  1  0
 22 38  1  0
 22 39  1  0
 23 40  1  0
 23 41  1  0
 26 42  1  0
M  END
$$$$
