
     RDKit          3D

 77 83  0  0  0  0  0  0  0  0999 V2000
   -6.8949   -1.9872   -0.2622 C   0  0  0  0  0  0  0  0  0  0  0  0
   -5.9760   -1.6453   -1.4400 C   0  0  0  0  0  0  0  0  0  0  0  0
   -6.4548   -0.4061   -2.2035 C   0  0  0  0  0  0  0  0  0  0  0  0
   -5.9582   -2.8380   -2.4095 C   0  0  0  0  0  0  0  0  0  0  0  0
   -4.5991   -1.5046   -1.0074 O   0  0  0  0  0  0  0  0  0  0  0  0
   -4.2326   -0.5259   -0.1401 C   0  0  0  0  0  0  0  0  0  0  0  0
   -5.0036    0.2988    0.3318 O   0  0  0  0  0  0  0  0  0  0  0  0
   -2.8791   -0.5680    0.1527 N   0  0  0  0  0  0  0  0  0  0  0  0
   -2.0617   -1.7418   -0.1272 C   0  0  0  0  0  0  0  0  0  0  0  0
   -0.5994   -1.3465   -0.3545 C   0  0  0  0  0  0  0  0  0  0  0  0
    0.0225   -0.6710    0.8030 N   0  0  0  0  0  0  0  0  0  0  0  0
   -0.8581    0.4946    1.2610 C   0  0  2  0  0  0  0  0  0  0  0  0
   -2.3863    0.2917    1.2245 C   0  0  0  0  0  0  0  0  0  0  0  0
   -0.2973    1.6271    0.4748 C   0  0  0  0  0  0  0  0  0  0  0  0
    0.9928    1.3299    0.0206 C   0  0  0  0  0  0  0  0  0  0  0  0
    1.4674    2.4080   -0.6840 C   0  0  0  0  0  0  0  0  0  0  0  0
    2.6448    2.5961   -1.2777 O   0  0  0  0  0  0  0  0  0  0  0  0
    0.4778    3.4110   -0.6246 N   0  0  0  0  0  0  0  0  0  0  0  0
    0.5992    4.7495   -1.1189 C   0  0  0  0  0  0  0  0  0  0  0  0
   -0.0357    5.8075   -0.4493 C   0  0  0  0  0  0  0  0  0  0  0  0
    0.0805    7.1155   -0.9266 C   0  0  0  0  0  0  0  0  0  0  0  0
    0.8313    7.3783   -2.0705 C   0  0  0  0  0  0  0  0  0  0  0  0
    1.4740    6.3352   -2.7341 C   0  0  0  0  0  0  0  0  0  0  0  0
    1.3652    5.0252   -2.2584 C   0  0  0  0  0  0  0  0  0  0  0  0
   -0.6456    2.8736    0.0380 C   0  0  0  0  0  0  0  0  0  0  0  0
   -1.8242    3.4812    0.1545 O   0  0  0  0  0  0  0  0  0  0  0  0
    1.3639   -0.0379    0.4575 C   0  0  1  0  0  0  0  0  0  0  0  0
    2.2493   -0.0317    1.7550 C   0  0  0  0  0  0  0  0  0  0  0  0
    1.9698    0.4467    2.8480 O   0  0  0  0  0  0  0  0  0  0  0  0
    3.4420   -0.6948    1.4365 N   0  0  0  0  0  0  0  0  0  0  0  0
    4.4885   -0.9470    2.4011 C   0  0  0  0  0  0  0  0  0  0  0  0
    4.4210   -2.3385    2.9866 C   0  0  0  0  0  0  0  0  0  0  0  0
    5.4192   -3.2850    2.7125 C   0  0  0  0  0  0  0  0  0  0  0  0
    5.3484   -4.5685    3.2584 C   0  0  0  0  0  0  0  0  0  0  0  0
    4.2831   -4.9185    4.0861 C   0  0  0  0  0  0  0  0  0  0  0  0
    3.2873   -3.9863    4.3701 C   0  0  0  0  0  0  0  0  0  0  0  0
    3.3558   -2.7034    3.8250 C   0  0  0  0  0  0  0  0  0  0  0  0
    3.4681   -1.0756    0.0894 C   0  0  0  0  0  0  0  0  0  0  0  0
    4.4955   -1.7005   -0.5981 C   0  0  0  0  0  0  0  0  0  0  0  0
    4.3405   -1.9121   -1.9694 C   0  0  0  0  0  0  0  0  0  0  0  0
    3.1797   -1.4878   -2.6301 C   0  0  0  0  0  0  0  0  0  0  0  0
    2.1490   -0.8633   -1.9240 C   0  0  0  0  0  0  0  0  0  0  0  0
    2.2851   -0.6794   -0.5504 C   0  0  0  0  0  0  0  0  0  0  0  0
   -7.0078   -1.1440    0.4256 H   0  0  0  0  0  0  0  0  0  0  0  0
   -6.4843   -2.8178    0.3241 H   0  0  0  0  0  0  0  0  0  0  0  0
   -7.8969   -2.2664   -0.6060 H   0  0  0  0  0  0  0  0  0  0  0  0
   -6.5682    0.4620   -1.5478 H   0  0  0  0  0  0  0  0  0  0  0  0
   -7.4261   -0.5812   -2.6784 H   0  0  0  0  0  0  0  0  0  0  0  0
   -5.7326   -0.1236   -2.9779 H   0  0  0  0  0  0  0  0  0  0  0  0
   -5.2852   -2.6432   -3.2529 H   0  0  0  0  0  0  0  0  0  0  0  0
   -5.5791   -3.7388   -1.9126 H   0  0  0  0  0  0  0  0  0  0  0  0
   -6.9551   -3.0566   -2.8073 H   0  0  0  0  0  0  0  0  0  0  0  0
   -2.1574   -2.4272    0.7243 H   0  0  0  0  0  0  0  0  0  0  0  0
   -2.4269   -2.2691   -1.0145 H   0  0  0  0  0  0  0  0  0  0  0  0
   -0.5821   -0.7045   -1.2432 H   0  0  0  0  0  0  0  0  0  0  0  0
   -0.0383   -2.2612   -0.5792 H   0  0  0  0  0  0  0  0  0  0  0  0
   -0.6040    0.6928    2.3119 H   0  0  0  0  0  0  0  0  0  0  0  0
   -2.9164    1.2488    1.2096 H   0  0  0  0  0  0  0  0  0  0  0  0
   -2.6821   -0.2154    2.1518 H   0  0  0  0  0  0  0  0  0  0  0  0
    3.1752    1.7871   -1.1681 H   0  0  0  0  0  0  0  0  0  0  0  0
   -0.5814    5.6475    0.4789 H   0  0  0  0  0  0  0  0  0  0  0  0
   -0.4020    7.9323   -0.3948 H   0  0  0  0  0  0  0  0  0  0  0  0
    0.9249    8.3971   -2.4380 H   0  0  0  0  0  0  0  0  0  0  0  0
    2.0666    6.5392   -3.6227 H   0  0  0  0  0  0  0  0  0  0  0  0
    1.8649    4.2349   -2.8118 H   0  0  0  0  0  0  0  0  0  0  0  0
   -1.9054    4.1455   -0.5539 H   0  0  0  0  0  0  0  0  0  0  0  0
    5.4617   -0.7580    1.9326 H   0  0  0  0  0  0  0  0  0  0  0  0
    4.4034   -0.2245    3.2226 H   0  0  0  0  0  0  0  0  0  0  0  0
    6.2626   -3.0310    2.0751 H   0  0  0  0  0  0  0  0  0  0  0  0
    6.1257   -5.2964    3.0397 H   0  0  0  0  0  0  0  0  0  0  0  0
    4.2288   -5.9179    4.5101 H   0  0  0  0  0  0  0  0  0  0  0  0
    2.4566   -4.2555    5.0176 H   0  0  0  0  0  0  0  0  0  0  0  0
    2.5725   -1.9843    4.0611 H   0  0  0  0  0  0  0  0  0  0  0  0
    5.4090   -2.0152   -0.1071 H   0  0  0  0  0  0  0  0  0  0  0  0
    5.1323   -2.3997   -2.5341 H   0  0  0  0  0  0  0  0  0  0  0  0
    3.0828   -1.6437   -3.7031 H   0  0  0  0  0  0  0  0  0  0  0  0
    1.2690   -0.5171   -2.4577 H   0  0  0  0  0  0  0  0  0  0  0  0
  1  2  1  0
  2  3  1  0
  2  4  1  0
  2  5  1  0
  5  6  1  0
  6  7  2  0
  6  8  1  0
  8  9  1  0
  9 10  1  0
 10 11  1  0
 11 12  1  0
 12 13  1  0
 12 14  1  0
 14 15  1  0
 15 16  2  0
 16 17  1  0
 16 18  1  0
 18 19  1  0
 19 20  2  0
 20 21  1  0
 21 22  2  0
 22 23  1  0
 23 24  2  0
 18 25  1  0
 25 26  1  0
 15 27  1  0
 27 28  1  0
 28 29  2  0
 28 30  1  0
 30 31  1  0
 31 32  1  0
 32 33  2  0
 33 34  1  0
 34 35  2  0
 35 36  1  0
 36 37  2  0
 30 38  1  0
 38 39  2  0
 39 40  1  0
 40 41  2  0
 41 42  1  0
 42 43  2  0
 13  8  1  0
 25 14  2  0
 43 27  1  0
 27 11  1  1
 37 32  1  0
 43 38  1  0
 24 19  1  0
  1 44  1  0
  1 45  1  0
  1 46  1  0
  3 47  1  0
  3 48  1  0
  3 49  1  0
  4 50  1  0
  4 51  1  0
  4 52  1  0
  9 53  1  0
  9 54  1  0
 10 55  1  0
 10 56  1  0
 12 57  1  1
 13 58  1  0
 13 59  1  0
 17 60  1  0
 20 61  1  0
 21 62  1  0
 22 63  1  0
 23 64  1  0
 24 65  1  0
 26 66  1  0
 31 67  1  0
 31 68  1  0
 33 69  1  0
 34 70  1  0
 35 71  1  0
 36 72  1  0
 37 73  1  0
 39 74  1  0
 40 75  1  0
 41 76  1  0
 42 77  1  0
M  END
$$$$
