
     RDKit          3D

 48 51  0  0  0  0  0  0  0  0999 V2000
    8.9509   -0.5043    0.4149 C   0  0  0  0  0  0  0  0  0  0  0  0
    8.2696    0.6731    0.0004 O   0  0  0  0  0  0  0  0  0  0  0  0
    6.9034    0.6303    0.0098 C   0  0  0  0  0  0  0  0  0  0  0  0
    6.1173   -0.4518    0.3947 C   0  0  0  0  0  0  0  0  0  0  0  0
    4.7192   -0.3551    0.3542 C   0  0  0  0  0  0  0  0  0  0  0  0
    4.0674    0.8196   -0.0645 C   0  0  0  0  0  0  0  0  0  0  0  0
    2.5916    0.8944   -0.0922 C   0  0  0  0  0  0  0  0  0  0  0  0
    1.8861    2.0730    0.1295 C   0  0  0  0  0  0  0  0  0  0  0  0
    0.4915    2.0518    0.0874 C   0  0  0  0  0  0  0  0  0  0  0  0
   -0.1918    0.8569   -0.1709 C   0  0  0  0  0  0  0  0  0  0  0  0
   -1.6471    0.8434   -0.2041 C   0  0  0  0  0  0  0  0  0  0  0  0
   -2.3823    1.9343   -0.4827 N   0  0  0  0  0  0  0  0  0  0  0  0
   -3.6967    1.4823   -0.3861 O   0  0  0  0  0  0  0  0  0  0  0  0
   -3.6387    0.1650   -0.0348 C   0  0  0  0  0  0  0  0  0  0  0  0
   -4.8915   -0.5782    0.1150 C   0  0  0  0  0  0  0  0  0  0  0  0
   -4.7985   -1.9819    0.2168 C   0  0  0  0  0  0  0  0  0  0  0  0
   -5.9346   -2.7779    0.3565 C   0  0  0  0  0  0  0  0  0  0  0  0
   -7.1880   -2.1823    0.4002 C   0  0  0  0  0  0  0  0  0  0  0  0
   -7.3060   -0.7937    0.3079 C   0  0  0  0  0  0  0  0  0  0  0  0
   -6.1699    0.0188    0.1669 C   0  0  0  0  0  0  0  0  0  0  0  0
   -6.2283    1.3866    0.0924 O   0  0  0  0  0  0  0  0  0  0  0  0
   -7.5068    2.0075    0.0863 C   0  0  0  0  0  0  0  0  0  0  0  0
   -2.4022   -0.2678    0.0920 N   0  0  0  0  0  0  0  0  0  0  0  0
    0.5894   -0.2770   -0.3838 C   0  0  0  0  0  0  0  0  0  0  0  0
   -0.0385   -1.4674   -0.6923 O   0  0  0  0  0  0  0  0  0  0  0  0
    0.8523   -2.5612   -0.8750 C   0  0  0  0  0  0  0  0  0  0  0  0
    1.9486   -0.2731   -0.3419 N   0  0  0  0  0  0  0  0  0  0  0  0
    4.8813    1.8955   -0.4565 C   0  0  0  0  0  0  0  0  0  0  0  0
    6.2780    1.8012   -0.4170 C   0  0  0  0  0  0  0  0  0  0  0  0
    8.7223   -1.3466   -0.2465 H   0  0  0  0  0  0  0  0  0  0  0  0
    8.7219   -0.7463    1.4580 H   0  0  0  0  0  0  0  0  0  0  0  0
   10.0256   -0.3100    0.3468 H   0  0  0  0  0  0  0  0  0  0  0  0
    6.5514   -1.3872    0.7308 H   0  0  0  0  0  0  0  0  0  0  0  0
    4.1283   -1.2178    0.6605 H   0  0  0  0  0  0  0  0  0  0  0  0
    2.3969    3.0040    0.3524 H   0  0  0  0  0  0  0  0  0  0  0  0
   -0.0562    2.9750    0.2676 H   0  0  0  0  0  0  0  0  0  0  0  0
   -3.8214   -2.4645    0.1834 H   0  0  0  0  0  0  0  0  0  0  0  0
   -5.8368   -3.8579    0.4307 H   0  0  0  0  0  0  0  0  0  0  0  0
   -8.0782   -2.7971    0.5101 H   0  0  0  0  0  0  0  0  0  0  0  0
   -8.3062   -0.3748    0.3550 H   0  0  0  0  0  0  0  0  0  0  0  0
   -8.0343    1.8317    1.0294 H   0  0  0  0  0  0  0  0  0  0  0  0
   -7.3531    3.0865   -0.0117 H   0  0  0  0  0  0  0  0  0  0  0  0
   -8.1030    1.6779   -0.7709 H   0  0  0  0  0  0  0  0  0  0  0  0
    0.2498   -3.4477   -1.0958 H   0  0  0  0  0  0  0  0  0  0  0  0
    1.4228   -2.7669    0.0375 H   0  0  0  0  0  0  0  0  0  0  0  0
    1.5189   -2.3926   -1.7278 H   0  0  0  0  0  0  0  0  0  0  0  0
    4.4432    2.8224   -0.8190 H   0  0  0  0  0  0  0  0  0  0  0  0
    6.8826    2.6495   -0.7293 H   0  0  0  0  0  0  0  0  0  0  0  0
  1  2  1  0
  2  3  1  0
  3  4  2  0
  4  5  1  0
  5  6  2  0
  6  7  1  0
  7  8  2  0
  8  9  1  0
  9 10  2  0
 10 11  1  0
 11 12  2  0
 12 13  1  0
 13 14  1  0
 14 15  1  0
 15 16  2  0
 16 17  1  0
 17 18  2  0
 18 19  1  0
 19 20  2  0
 20 21  1  0
 21 22  1  0
 14 23  2  0
 10 24  1  0
 24 25  1  0
 25 26  1  0
 24 27  2  0
  6 28  1  0
 28 29  2  0
 29  3  1  0
 27  7  1  0
 23 11  1  0
 20 15  1  0
  1 30  1  0
  1 31  1  0
  1 32  1  0
  4 33  1  0
  5 34  1  0
  8 35  1  0
  9 36  1  0
 16 37  1  0
 17 38  1  0
 18 39  1  0
 19 40  1  0
 22 41  1  0
 22 42  1  0
 22 43  1  0
 26 44  1  0
 26 45  1  0
 26 46  1  0
 28 47  1  0
 29 48  1  0
M  END
$$$$
