
     RDKit          3D

 41 42  0  0  0  0  0  0  0  0999 V2000
   -3.5050   -1.9561    0.2019 C   0  0  0  0  0  0  0  0  0  0  0  0
   -3.2297   -0.7950    1.1453 C   0  0  0  0  0  0  0  0  0  0  0  0
   -2.6311    0.3391    0.4115 N   0  0  0  0  0  0  0  0  0  0  0  0
   -3.6034    1.4000    0.0817 C   0  0  0  0  0  0  0  0  0  0  0  0
   -3.6858    2.4223    1.2060 C   0  0  0  0  0  0  0  0  0  0  0  0
   -1.2481    0.4348    0.1270 C   0  0  0  0  0  0  0  0  0  0  0  0
   -0.3280   -0.4608    0.5522 C   0  0  0  0  0  0  0  0  0  0  0  0
    1.0960   -0.3452    0.2834 C   0  0  0  0  0  0  0  0  0  0  0  0
    1.9041   -1.4196    0.3125 C   0  0  0  0  0  0  0  0  0  0  0  0
    3.3026   -1.3687   -0.1188 C   0  0  0  0  0  0  0  0  0  0  0  0
    4.2133   -2.3229    0.1961 C   0  0  0  0  0  0  0  0  0  0  0  0
    5.5566   -2.2561   -0.2764 C   0  0  0  0  0  0  0  0  0  0  0  0
    6.6473   -2.1908   -0.6680 N   0  0  0  0  0  0  0  0  0  0  0  0
    3.8848   -3.4406    1.0193 C   0  0  0  0  0  0  0  0  0  0  0  0
    3.6059   -4.3492    1.6858 N   0  0  0  0  0  0  0  0  0  0  0  0
    3.6064   -0.1651   -1.0018 C   0  0  0  0  0  0  0  0  0  0  0  0
    3.0708    1.1224   -0.3821 C   0  0  0  0  0  0  0  0  0  0  0  0
    1.5707    1.0481   -0.0628 C   0  0  0  0  0  0  0  0  0  0  0  0
    0.6871    1.5605   -1.1974 C   0  0  0  0  0  0  0  0  0  0  0  0
   -0.7803    1.6103   -0.7397 C   0  0  0  0  0  0  0  0  0  0  0  0
   -4.1823   -1.6542   -0.6040 H   0  0  0  0  0  0  0  0  0  0  0  0
   -3.9705   -2.7838    0.7460 H   0  0  0  0  0  0  0  0  0  0  0  0
   -2.5846   -2.3283   -0.2585 H   0  0  0  0  0  0  0  0  0  0  0  0
   -2.5889   -1.1125    1.9750 H   0  0  0  0  0  0  0  0  0  0  0  0
   -4.1745   -0.4934    1.6148 H   0  0  0  0  0  0  0  0  0  0  0  0
   -3.3573    1.8995   -0.8597 H   0  0  0  0  0  0  0  0  0  0  0  0
   -4.5966    0.9621   -0.0798 H   0  0  0  0  0  0  0  0  0  0  0  0
   -3.9977    1.9537    2.1452 H   0  0  0  0  0  0  0  0  0  0  0  0
   -4.4142    3.2003    0.9571 H   0  0  0  0  0  0  0  0  0  0  0  0
   -2.7194    2.9048    1.3810 H   0  0  0  0  0  0  0  0  0  0  0  0
   -0.6307   -1.3416    1.1080 H   0  0  0  0  0  0  0  0  0  0  0  0
    1.4920   -2.3827    0.6119 H   0  0  0  0  0  0  0  0  0  0  0  0
    3.1474   -0.3215   -1.9869 H   0  0  0  0  0  0  0  0  0  0  0  0
    4.6793   -0.0365   -1.1770 H   0  0  0  0  0  0  0  0  0  0  0  0
    3.2875    1.9740   -1.0378 H   0  0  0  0  0  0  0  0  0  0  0  0
    3.6186    1.3096    0.5521 H   0  0  0  0  0  0  0  0  0  0  0  0
    1.4071    1.6996    0.8087 H   0  0  0  0  0  0  0  0  0  0  0  0
    0.7765    0.9100   -2.0779 H   0  0  0  0  0  0  0  0  0  0  0  0
    0.9980    2.5635   -1.5130 H   0  0  0  0  0  0  0  0  0  0  0  0
   -0.9314    2.5374   -0.1733 H   0  0  0  0  0  0  0  0  0  0  0  0
   -1.3927    1.6726   -1.6465 H   0  0  0  0  0  0  0  0  0  0  0  0
  1  2  1  0
  2  3  1  0
  3  4  1  0
  4  5  1  0
  3  6  1  0
  6  7  2  0
  7  8  1  0
  8  9  2  0
  9 10  1  0
 10 11  2  3
 11 12  1  0
 12 13  3  0
 11 14  1  0
 14 15  3  0
 10 16  1  0
 16 17  1  0
 17 18  1  0
 18 19  1  0
 19 20  1  0
 20  6  1  0
 18  8  1  0
  1 21  1  0
  1 22  1  0
  1 23  1  0
  2 24  1  0
  2 25  1  0
  4 26  1  0
  4 27  1  0
  5 28  1  0
  5 29  1  0
  5 30  1  0
  7 31  1  0
  9 32  1  0
 16 33  1  0
 16 34  1  0
 17 35  1  0
 17 36  1  0
 18 37  1  0
 19 38  1  0
 19 39  1  0
 20 40  1  0
 20 41  1  0
M  END
$$$$
