
     RDKit          3D

 33 35  0  0  0  0  0  0  0  0999 V2000
   -6.0511   -2.4748    0.4284 C   0  0  0  0  0  0  0  0  0  0  0  0
   -5.1212   -1.3196    0.2118 C   0  0  0  0  0  0  0  0  0  0  0  0
   -5.6181   -0.0408    0.0706 C   0  0  0  0  0  0  0  0  0  0  0  0
   -4.6853    0.9496   -0.1258 C   0  0  0  0  0  0  0  0  0  0  0  0
   -3.3606    0.7245   -0.1812 N   0  0  0  0  0  0  0  0  0  0  0  0
   -2.9673   -0.5508   -0.0262 C   0  0  0  0  0  0  0  0  0  0  0  0
   -1.2391   -0.9358   -0.1034 S   0  0  0  0  0  0  0  0  0  0  0  0
   -0.5529    0.7264    0.1619 C   0  0  0  0  0  0  0  0  0  0  0  0
    0.9372    0.6829    0.2365 C   0  0  0  0  0  0  0  0  0  0  0  0
    1.8505    0.4200   -0.7665 C   0  0  0  0  0  0  0  0  0  0  0  0
    3.0939    0.5007   -0.1861 N   0  0  0  0  0  0  0  0  0  0  0  0
    4.3717    0.3108   -0.7436 C   0  0  0  0  0  0  0  0  0  0  0  0
    4.5014   -0.0455   -2.1928 C   0  0  0  0  0  0  0  0  0  0  0  0
    5.4422    0.4584    0.0653 C   0  0  0  0  0  0  0  0  0  0  0  0
    5.2487    0.8034    1.4645 C   0  0  0  0  0  0  0  0  0  0  0  0
    4.0192    0.9811    1.9818 C   0  0  0  0  0  0  0  0  0  0  0  0
    2.8758    0.8308    1.1500 C   0  0  0  0  0  0  0  0  0  0  0  0
    1.5929    0.9517    1.4186 N   0  0  0  0  0  0  0  0  0  0  0  0
   -3.8009   -1.5885    0.1624 N   0  0  0  0  0  0  0  0  0  0  0  0
   -6.6268   -2.3298    1.3479 H   0  0  0  0  0  0  0  0  0  0  0  0
   -6.7403   -2.5694   -0.4165 H   0  0  0  0  0  0  0  0  0  0  0  0
   -5.4937   -3.4126    0.5200 H   0  0  0  0  0  0  0  0  0  0  0  0
   -6.6769    0.1772    0.1100 H   0  0  0  0  0  0  0  0  0  0  0  0
   -4.9857    1.9863   -0.2485 H   0  0  0  0  0  0  0  0  0  0  0  0
   -0.8466    1.3857   -0.6623 H   0  0  0  0  0  0  0  0  0  0  0  0
   -0.9511    1.1424    1.0940 H   0  0  0  0  0  0  0  0  0  0  0  0
    1.7152    0.1762   -1.8098 H   0  0  0  0  0  0  0  0  0  0  0  0
    4.0687    0.7381   -2.8236 H   0  0  0  0  0  0  0  0  0  0  0  0
    5.5491   -0.1647   -2.4896 H   0  0  0  0  0  0  0  0  0  0  0  0
    3.9905   -0.9904   -2.4057 H   0  0  0  0  0  0  0  0  0  0  0  0
    6.4593    0.3268   -0.2905 H   0  0  0  0  0  0  0  0  0  0  0  0
    6.1313    0.9132    2.0873 H   0  0  0  0  0  0  0  0  0  0  0  0
    3.8697    1.2364    3.0243 H   0  0  0  0  0  0  0  0  0  0  0  0
  1  2  1  0
  2  3  2  0
  3  4  1  0
  4  5  2  0
  5  6  1  0
  6  7  1  0
  7  8  1  0
  8  9  1  0
  9 10  2  0
 10 11  1  0
 11 12  1  0
 12 13  1  0
 12 14  2  0
 14 15  1  0
 15 16  2  0
 16 17  1  0
 17 18  2  0
  6 19  2  0
 19  2  1  0
 18  9  1  0
 17 11  1  0
  1 20  1  0
  1 21  1  0
  1 22  1  0
  3 23  1  0
  4 24  1  0
  8 25  1  0
  8 26  1  0
 10 27  1  0
 13 28  1  0
 13 29  1  0
 13 30  1  0
 14 31  1  0
 15 32  1  0
 16 33  1  0
M  END
$$$$
