
     RDKit          3D

 55 57  0  0  0  0  0  0  0  0999 V2000
    8.3828   -0.0940   -1.6566 C   0  0  0  0  0  0  0  0  0  0  0  0
    7.2935   -0.4326   -0.6549 C   0  0  0  0  0  0  0  0  0  0  0  0
    6.1176    0.2836   -1.0260 O   0  0  0  0  0  0  0  0  0  0  0  0
    4.9865    0.0977   -0.2757 C   0  0  0  0  0  0  0  0  0  0  0  0
    4.9138   -0.7143    0.8624 C   0  0  0  0  0  0  0  0  0  0  0  0
    3.7131   -0.8394    1.5684 C   0  0  0  0  0  0  0  0  0  0  0  0
    2.5755   -0.1629    1.1272 C   0  0  0  0  0  0  0  0  0  0  0  0
    1.3250   -0.2997    1.8974 C   0  0  0  0  0  0  0  0  0  0  0  0
    1.2822    0.2079    3.0165 O   0  0  0  0  0  0  0  0  0  0  0  0
    0.1421   -1.0245    1.3104 C   0  0  0  0  0  0  0  0  0  0  0  0
    0.3679   -1.6927   -0.0071 C   0  0  0  0  0  0  0  0  0  0  0  0
    1.0754   -2.6616   -0.2088 O   0  0  0  0  0  0  0  0  0  0  0  0
   -0.3848   -0.9419   -1.0965 C   0  0  0  0  0  0  0  0  0  0  0  0
   -0.3220   -1.1934   -2.2789 O   0  0  0  0  0  0  0  0  0  0  0  0
   -1.0850    0.0489   -0.4560 N   0  0  0  0  0  0  0  0  0  0  0  0
   -1.9010    1.0455   -1.1449 C   0  0  0  0  0  0  0  0  0  0  0  0
   -3.2170    0.4763   -1.7113 C   0  0  0  0  0  0  0  0  0  0  0  0
   -4.0610    1.5038   -2.3534 N   0  0  0  0  0  0  0  0  0  0  0  0
   -4.7247    2.3515   -1.3591 C   0  0  0  0  0  0  0  0  0  0  0  0
   -5.0719    0.8606   -3.1987 C   0  0  0  0  0  0  0  0  0  0  0  0
   -0.9831   -0.0223    0.9955 C   0  0  0  0  0  0  0  0  0  0  0  0
   -2.2995   -0.4178    1.6425 C   0  0  0  0  0  0  0  0  0  0  0  0
   -2.9609   -1.6149    1.3184 C   0  0  0  0  0  0  0  0  0  0  0  0
   -4.1702   -1.9479    1.9317 C   0  0  0  0  0  0  0  0  0  0  0  0
   -4.7327   -1.0949    2.8775 C   0  0  0  0  0  0  0  0  0  0  0  0
   -4.0867    0.0921    3.2133 C   0  0  0  0  0  0  0  0  0  0  0  0
   -2.8780    0.4286    2.6016 C   0  0  0  0  0  0  0  0  0  0  0  0
    2.6287    0.6657    0.0079 C   0  0  0  0  0  0  0  0  0  0  0  0
    3.8334    0.7889   -0.6900 C   0  0  0  0  0  0  0  0  0  0  0  0
    3.8543    1.8288   -2.0724 Cl  0  0  0  0  0  0  0  0  0  0  0  0
    9.3120   -0.6171   -1.4139 H   0  0  0  0  0  0  0  0  0  0  0  0
    8.0744   -0.3726   -2.6699 H   0  0  0  0  0  0  0  0  0  0  0  0
    8.5754    0.9841   -1.6673 H   0  0  0  0  0  0  0  0  0  0  0  0
    7.6211   -0.1298    0.3463 H   0  0  0  0  0  0  0  0  0  0  0  0
    7.1080   -1.5129   -0.6812 H   0  0  0  0  0  0  0  0  0  0  0  0
    5.7754   -1.2620    1.2306 H   0  0  0  0  0  0  0  0  0  0  0  0
    3.6723   -1.4655    2.4576 H   0  0  0  0  0  0  0  0  0  0  0  0
   -0.1602   -1.7925    2.0325 H   0  0  0  0  0  0  0  0  0  0  0  0
   -2.0765    1.8714   -0.4490 H   0  0  0  0  0  0  0  0  0  0  0  0
   -1.3001    1.4358   -1.9757 H   0  0  0  0  0  0  0  0  0  0  0  0
   -3.7820   -0.0489   -0.9331 H   0  0  0  0  0  0  0  0  0  0  0  0
   -2.9449   -0.2853   -2.4540 H   0  0  0  0  0  0  0  0  0  0  0  0
   -5.3507    1.7716   -0.6705 H   0  0  0  0  0  0  0  0  0  0  0  0
   -5.3590    3.0963   -1.8532 H   0  0  0  0  0  0  0  0  0  0  0  0
   -3.9965    2.9173   -0.7698 H   0  0  0  0  0  0  0  0  0  0  0  0
   -5.7343    0.2034   -2.6227 H   0  0  0  0  0  0  0  0  0  0  0  0
   -4.5952    0.2680   -3.9874 H   0  0  0  0  0  0  0  0  0  0  0  0
   -5.6863    1.6136   -3.7051 H   0  0  0  0  0  0  0  0  0  0  0  0
   -0.7091    0.9869    1.3305 H   0  0  0  0  0  0  0  0  0  0  0  0
   -2.5544   -2.3000    0.5777 H   0  0  0  0  0  0  0  0  0  0  0  0
   -4.6755   -2.8747    1.6700 H   0  0  0  0  0  0  0  0  0  0  0  0
   -5.6734   -1.3563    3.3555 H   0  0  0  0  0  0  0  0  0  0  0  0
   -4.5228    0.7556    3.9562 H   0  0  0  0  0  0  0  0  0  0  0  0
   -2.3901    1.3592    2.8876 H   0  0  0  0  0  0  0  0  0  0  0  0
    1.7589    1.2289   -0.3184 H   0  0  0  0  0  0  0  0  0  0  0  0
  1  2  1  0
  2  3  1  0
  3  4  1  0
  4  5  2  0
  5  6  1  0
  6  7  2  0
  7  8  1  0
  8  9  2  0
  8 10  1  0
 10 11  1  0
 11 12  2  0
 11 13  1  0
 13 14  2  0
 13 15  1  0
 15 16  1  0
 16 17  1  0
 17 18  1  0
 18 19  1  0
 18 20  1  0
 15 21  1  0
 21 22  1  0
 22 23  2  0
 23 24  1  0
 24 25  2  0
 25 26  1  0
 26 27  2  0
  7 28  1  0
 28 29  2  0
 29 30  1  0
 29  4  1  0
 21 10  1  0
 27 22  1  0
  1 31  1  0
  1 32  1  0
  1 33  1  0
  2 34  1  0
  2 35  1  0
  5 36  1  0
  6 37  1  0
 10 38  1  0
 16 39  1  0
 16 40  1  0
 17 41  1  0
 17 42  1  0
 19 43  1  0
 19 44  1  0
 19 45  1  0
 20 46  1  0
 20 47  1  0
 20 48  1  0
 21 49  1  0
 23 50  1  0
 24 51  1  0
 25 52  1  0
 26 53  1  0
 27 54  1  0
 28 55  1  0
M  END
$$$$
