
     RDKit          3D

 55 57  0  0  0  0  0  0  0  0999 V2000
    8.2481   -1.3297    0.0452 C   0  0  0  0  0  0  0  0  0  0  0  0
    6.9920   -0.5215    0.3197 C   0  0  0  0  0  0  0  0  0  0  0  0
    5.8813   -1.4149    0.2930 O   0  0  0  0  0  0  0  0  0  0  0  0
    4.6490   -0.9240    0.6363 C   0  0  0  0  0  0  0  0  0  0  0  0
    4.3754    0.4263    0.8829 C   0  0  0  0  0  0  0  0  0  0  0  0
    3.0793    0.8420    1.2081 C   0  0  0  0  0  0  0  0  0  0  0  0
    2.0451   -0.0930    1.2874 C   0  0  0  0  0  0  0  0  0  0  0  0
    0.6555    0.3085    1.6169 C   0  0  0  0  0  0  0  0  0  0  0  0
   -0.0057   -0.4055    2.3666 O   0  0  0  0  0  0  0  0  0  0  0  0
    0.0882    1.5499    0.9699 C   0  0  0  0  0  0  0  0  0  0  0  0
   -0.7003    2.3415    1.9592 C   0  0  0  0  0  0  0  0  0  0  0  0
   -0.2424    3.0684    2.8184 O   0  0  0  0  0  0  0  0  0  0  0  0
   -2.1883    2.1071    1.7214 C   0  0  0  0  0  0  0  0  0  0  0  0
   -3.0773    2.6055    2.3766 O   0  0  0  0  0  0  0  0  0  0  0  0
   -2.2846    1.3126    0.5883 N   0  0  0  0  0  0  0  0  0  0  0  0
   -3.5454    1.2559   -0.1515 C   0  0  0  0  0  0  0  0  0  0  0  0
   -4.6121    0.3975    0.5637 C   0  0  0  0  0  0  0  0  0  0  0  0
   -5.8898    0.1930   -0.1398 N   0  0  0  0  0  0  0  0  0  0  0  0
   -5.7389   -0.5395   -1.3919 C   0  0  0  0  0  0  0  0  0  0  0  0
   -6.6245    1.4386   -0.3349 C   0  0  0  0  0  0  0  0  0  0  0  0
   -0.9958    1.2657   -0.0887 C   0  0  0  0  0  0  0  0  0  0  0  0
   -0.7554    0.0339   -0.9357 C   0  0  0  0  0  0  0  0  0  0  0  0
   -1.2035   -1.2351   -0.5342 C   0  0  0  0  0  0  0  0  0  0  0  0
   -0.9594   -2.3612   -1.3208 C   0  0  0  0  0  0  0  0  0  0  0  0
   -0.2609   -2.2359   -2.5177 C   0  0  0  0  0  0  0  0  0  0  0  0
    0.2017   -0.9877   -2.9236 C   0  0  0  0  0  0  0  0  0  0  0  0
   -0.0391    0.1410   -2.1372 C   0  0  0  0  0  0  0  0  0  0  0  0
    2.3092   -1.4473    1.0646 C   0  0  0  0  0  0  0  0  0  0  0  0
    3.6009   -1.8559    0.7291 C   0  0  0  0  0  0  0  0  0  0  0  0
    3.8612   -3.5377    0.4227 Cl  0  0  0  0  0  0  0  0  0  0  0  0
    9.1321   -0.6863    0.0335 H   0  0  0  0  0  0  0  0  0  0  0  0
    8.3818   -2.0992    0.8138 H   0  0  0  0  0  0  0  0  0  0  0  0
    8.1743   -1.8488   -0.9170 H   0  0  0  0  0  0  0  0  0  0  0  0
    7.0839   -0.0486    1.3045 H   0  0  0  0  0  0  0  0  0  0  0  0
    6.8781    0.2420   -0.4573 H   0  0  0  0  0  0  0  0  0  0  0  0
    5.1509    1.1847    0.8295 H   0  0  0  0  0  0  0  0  0  0  0  0
    2.9085    1.8962    1.4179 H   0  0  0  0  0  0  0  0  0  0  0  0
    0.8650    2.1819    0.5334 H   0  0  0  0  0  0  0  0  0  0  0  0
   -3.3416    0.8457   -1.1460 H   0  0  0  0  0  0  0  0  0  0  0  0
   -3.9011    2.2856   -0.2818 H   0  0  0  0  0  0  0  0  0  0  0  0
   -4.8265    0.8284    1.5512 H   0  0  0  0  0  0  0  0  0  0  0  0
   -4.1811   -0.5882    0.7835 H   0  0  0  0  0  0  0  0  0  0  0  0
   -6.7214   -0.8069   -1.7965 H   0  0  0  0  0  0  0  0  0  0  0  0
   -5.2077    0.0370   -2.1563 H   0  0  0  0  0  0  0  0  0  0  0  0
   -5.2007   -1.4803   -1.2298 H   0  0  0  0  0  0  0  0  0  0  0  0
   -6.1248    2.1161   -1.0361 H   0  0  0  0  0  0  0  0  0  0  0  0
   -7.6300    1.2327   -0.7213 H   0  0  0  0  0  0  0  0  0  0  0  0
   -6.7572    1.9609    0.6197 H   0  0  0  0  0  0  0  0  0  0  0  0
   -1.0211    2.1323   -0.7680 H   0  0  0  0  0  0  0  0  0  0  0  0
   -1.7387   -1.3628    0.4078 H   0  0  0  0  0  0  0  0  0  0  0  0
   -1.3122   -3.3363   -0.9951 H   0  0  0  0  0  0  0  0  0  0  0  0
   -0.0725   -3.1140   -3.1314 H   0  0  0  0  0  0  0  0  0  0  0  0
    0.7529   -0.8939   -3.8572 H   0  0  0  0  0  0  0  0  0  0  0  0
    0.3378    1.1024   -2.4803 H   0  0  0  0  0  0  0  0  0  0  0  0
    1.5079   -2.1792    1.1389 H   0  0  0  0  0  0  0  0  0  0  0  0
  1  2  1  0
  2  3  1  0
  3  4  1  0
  4  5  2  0
  5  6  1  0
  6  7  2  0
  7  8  1  0
  8  9  2  0
  8 10  1  0
 10 11  1  0
 11 12  2  0
 11 13  1  0
 13 14  2  0
 13 15  1  0
 15 16  1  0
 16 17  1  0
 17 18  1  0
 18 19  1  0
 18 20  1  0
 15 21  1  0
 21 22  1  0
 22 23  2  0
 23 24  1  0
 24 25  2  0
 25 26  1  0
 26 27  2  0
  7 28  1  0
 28 29  2  0
 29 30  1  0
 29  4  1  0
 21 10  1  0
 27 22  1  0
  1 31  1  0
  1 32  1  0
  1 33  1  0
  2 34  1  0
  2 35  1  0
  5 36  1  0
  6 37  1  0
 10 38  1  0
 16 39  1  0
 16 40  1  0
 17 41  1  0
 17 42  1  0
 19 43  1  0
 19 44  1  0
 19 45  1  0
 20 46  1  0
 20 47  1  0
 20 48  1  0
 21 49  1  0
 23 50  1  0
 24 51  1  0
 25 52  1  0
 26 53  1  0
 27 54  1  0
 28 55  1  0
M  END
$$$$
