
     RDKit          3D

 42 44  0  0  0  0  0  0  0  0999 V2000
   -6.5149   -1.1081    1.1365 C   0  0  0  0  0  0  0  0  0  0  0  0
   -5.2125   -0.5643    0.6268 C   0  0  0  0  0  0  0  0  0  0  0  0
   -4.6374   -1.0841   -0.5376 C   0  0  0  0  0  0  0  0  0  0  0  0
   -3.4053   -0.6074   -1.0135 C   0  0  0  0  0  0  0  0  0  0  0  0
   -2.8303   -1.1996   -2.2734 C   0  0  0  0  0  0  0  0  0  0  0  0
   -2.7357    0.4092   -0.2972 C   0  0  0  0  0  0  0  0  0  0  0  0
   -1.4680    0.9258   -0.7891 C   0  0  0  0  0  0  0  0  0  0  0  0
   -1.3728    2.0650   -1.5626 C   0  0  0  0  0  0  0  0  0  0  0  0
    0.2725    2.3520   -1.9448 S   0  0  0  0  0  0  0  0  0  0  0  0
    0.7118    0.9546   -1.0754 C   0  0  0  0  0  0  0  0  0  0  0  0
    2.0074    0.5304   -0.9361 N   0  0  0  0  0  0  0  0  0  0  0  0
    3.1237    1.0862   -1.5015 C   0  0  0  0  0  0  0  0  0  0  0  0
    3.1912    2.0185   -2.2912 O   0  0  0  0  0  0  0  0  0  0  0  0
    4.3839    0.3876   -1.1306 C   0  0  0  0  0  0  0  0  0  0  0  0
    4.6552    0.0148    0.1303 C   0  0  0  0  0  0  0  0  0  0  0  0
    5.8698   -0.6219    0.5339 C   0  0  0  0  0  0  0  0  0  0  0  0
    6.3025   -0.8236    1.8369 C   0  0  0  0  0  0  0  0  0  0  0  0
    7.5532   -1.5012    1.9222 C   0  0  0  0  0  0  0  0  0  0  0  0
    8.0501   -1.8121    0.6794 C   0  0  0  0  0  0  0  0  0  0  0  0
    7.0126   -1.2923   -0.5710 S   0  0  0  0  0  0  0  0  0  0  0  0
   -0.2710    0.2926   -0.5113 N   0  0  0  0  0  0  0  0  0  0  0  0
   -3.2908    0.9170    0.8984 C   0  0  0  0  0  0  0  0  0  0  0  0
   -2.5968    1.9805    1.7090 C   0  0  0  0  0  0  0  0  0  0  0  0
   -4.5281    0.4233    1.3432 C   0  0  0  0  0  0  0  0  0  0  0  0
   -7.1592   -1.4187    0.3070 H   0  0  0  0  0  0  0  0  0  0  0  0
   -7.0615   -0.3473    1.7038 H   0  0  0  0  0  0  0  0  0  0  0  0
   -6.3320   -1.9700    1.7856 H   0  0  0  0  0  0  0  0  0  0  0  0
   -5.1562   -1.8724   -1.0806 H   0  0  0  0  0  0  0  0  0  0  0  0
   -1.8586   -1.6612   -2.0708 H   0  0  0  0  0  0  0  0  0  0  0  0
   -2.7190   -0.4291   -3.0428 H   0  0  0  0  0  0  0  0  0  0  0  0
   -3.4819   -1.9785   -2.6843 H   0  0  0  0  0  0  0  0  0  0  0  0
   -2.1604    2.7192   -1.9077 H   0  0  0  0  0  0  0  0  0  0  0  0
    2.0816   -0.3159   -0.3907 H   0  0  0  0  0  0  0  0  0  0  0  0
    5.0863    0.2896   -1.9508 H   0  0  0  0  0  0  0  0  0  0  0  0
    3.9404    0.2297    0.9217 H   0  0  0  0  0  0  0  0  0  0  0  0
    5.7432   -0.4912    2.7039 H   0  0  0  0  0  0  0  0  0  0  0  0
    8.0598   -1.7469    2.8475 H   0  0  0  0  0  0  0  0  0  0  0  0
    8.9739   -2.3224    0.4435 H   0  0  0  0  0  0  0  0  0  0  0  0
   -1.5707    1.6792    1.9447 H   0  0  0  0  0  0  0  0  0  0  0  0
   -2.5862    2.9291    1.1626 H   0  0  0  0  0  0  0  0  0  0  0  0
   -3.1070    2.1530    2.6629 H   0  0  0  0  0  0  0  0  0  0  0  0
   -4.9629    0.8106    2.2634 H   0  0  0  0  0  0  0  0  0  0  0  0
  1  2  1  0
  2  3  2  0
  3  4  1  0
  4  5  1  0
  4  6  2  0
  6  7  1  0
  7  8  2  0
  8  9  1  0
  9 10  1  0
 10 11  1  0
 11 12  1  0
 12 13  2  0
 12 14  1  0
 14 15  2  3
 15 16  1  0
 16 17  2  0
 17 18  1  0
 18 19  2  0
 19 20  1  0
 10 21  2  0
  6 22  1  0
 22 23  1  0
 22 24  2  0
 24  2  1  0
 21  7  1  0
 20 16  1  0
  1 25  1  0
  1 26  1  0
  1 27  1  0
  3 28  1  0
  5 29  1  0
  5 30  1  0
  5 31  1  0
  8 32  1  0
 11 33  1  0
 14 34  1  0
 15 35  1  0
 17 36  1  0
 18 37  1  0
 19 38  1  0
 23 39  1  0
 23 40  1  0
 23 41  1  0
 24 42  1  0
M  END
$$$$
