
     RDKit          3D

 30 31  0  0  0  0  0  0  0  0999 V2000
   -4.8020   -0.5363    0.3959 C   0  0  0  0  0  0  0  0  0  0  0  0
   -4.1209    0.1084   -0.7967 C   0  0  0  0  0  0  0  0  0  0  0  0
   -2.7034   -0.0926   -0.7256 O   0  0  0  0  0  0  0  0  0  0  0  0
   -2.0035    0.8293   -0.0016 C   0  0  0  0  0  0  0  0  0  0  0  0
   -2.5093    1.7852    0.5756 O   0  0  0  0  0  0  0  0  0  0  0  0
   -0.5897    0.5107   -0.0137 C   0  0  0  0  0  0  0  0  0  0  0  0
   -0.1533   -0.6009   -0.6955 O   0  0  0  0  0  0  0  0  0  0  0  0
    1.1843   -0.6553   -0.5326 C   0  0  0  0  0  0  0  0  0  0  0  0
    1.6458    0.3894    0.2314 C   0  0  0  0  0  0  0  0  0  0  0  0
    0.4970    1.1584    0.5778 C   0  0  0  0  0  0  0  0  0  0  0  0
    0.4410    2.3958    1.4000 C   0  0  0  0  0  0  0  0  0  0  0  0
    3.0658    0.5034    0.5228 C   0  0  0  0  0  0  0  0  0  0  0  0
    3.5279    1.3988    1.2243 O   0  0  0  0  0  0  0  0  0  0  0  0
    3.9754   -0.5222   -0.1610 C   0  0  0  0  0  0  0  0  0  0  0  0
    3.2894   -1.8826   -0.3798 C   0  0  0  0  0  0  0  0  0  0  0  0
    1.9597   -1.7566   -1.1426 C   0  0  0  0  0  0  0  0  0  0  0  0
   -4.5447   -1.5988    0.4574 H   0  0  0  0  0  0  0  0  0  0  0  0
   -5.8888   -0.4400    0.3206 H   0  0  0  0  0  0  0  0  0  0  0  0
   -4.4745   -0.0748    1.3328 H   0  0  0  0  0  0  0  0  0  0  0  0
   -4.4658   -0.3700   -1.7192 H   0  0  0  0  0  0  0  0  0  0  0  0
   -4.3704    1.1728   -0.8750 H   0  0  0  0  0  0  0  0  0  0  0  0
   -0.1119    2.2108    2.3266 H   0  0  0  0  0  0  0  0  0  0  0  0
   -0.0619    3.1983    0.8503 H   0  0  0  0  0  0  0  0  0  0  0  0
    1.4364    2.7570    1.6698 H   0  0  0  0  0  0  0  0  0  0  0  0
    4.2922   -0.1003   -1.1216 H   0  0  0  0  0  0  0  0  0  0  0  0
    4.8654   -0.6629    0.4621 H   0  0  0  0  0  0  0  0  0  0  0  0
    3.9625   -2.5584   -0.9192 H   0  0  0  0  0  0  0  0  0  0  0  0
    3.0956   -2.3381    0.6007 H   0  0  0  0  0  0  0  0  0  0  0  0
    1.4085   -2.7013   -1.0965 H   0  0  0  0  0  0  0  0  0  0  0  0
    2.1533   -1.5271   -2.1963 H   0  0  0  0  0  0  0  0  0  0  0  0
  1  2  1  0
  2  3  1  0
  3  4  1  0
  4  5  2  0
  4  6  1  0
  6  7  1  0
  7  8  1  0
  8  9  2  0
  9 10  1  0
 10 11  1  0
  9 12  1  0
 12 13  2  0
 12 14  1  0
 14 15  1  0
 15 16  1  0
 10  6  2  0
 16  8  1  0
  1 17  1  0
  1 18  1  0
  1 19  1  0
  2 20  1  0
  2 21  1  0
 11 22  1  0
 11 23  1  0
 11 24  1  0
 14 25  1  0
 14 26  1  0
 15 27  1  0
 15 28  1  0
 16 29  1  0
 16 30  1  0
M  END
$$$$
