
     RDKit          3D

 32 33  0  0  0  0  0  0  0  0999 V2000
   -4.7693    0.0748    1.8555 C   0  0  0  0  0  0  0  0  0  0  0  0
   -4.6401   -0.1388    0.3619 C   0  0  0  0  0  0  0  0  0  0  0  0
   -3.2793    0.0970   -0.0264 O   0  0  0  0  0  0  0  0  0  0  0  0
   -2.5650   -0.9947   -0.4015 C   0  0  0  0  0  0  0  0  0  0  0  0
   -2.9508   -2.1587   -0.3965 O   0  0  0  0  0  0  0  0  0  0  0  0
   -1.2175   -0.5871   -0.8953 C   0  0  0  0  0  0  0  0  0  0  0  0
   -0.4519   -1.5458   -1.5731 C   0  0  0  0  0  0  0  0  0  0  0  0
    0.8040   -1.2127   -2.0896 C   0  0  0  0  0  0  0  0  0  0  0  0
    1.3285    0.0800   -1.9250 C   0  0  0  0  0  0  0  0  0  0  0  0
    2.6875    0.4397   -2.4866 C   0  0  0  0  0  0  0  0  0  0  0  0
    4.0452   -0.5416   -1.7728 S   0  0  0  0  0  0  0  0  0  0  0  0
    4.0063    0.0624   -0.1350 C   0  0  0  0  0  0  0  0  0  0  0  0
    4.4882    1.2406    0.1780 N   0  0  0  0  0  0  0  0  0  0  0  0
    4.3963    1.4831    1.5384 N   0  0  0  0  0  0  0  0  0  0  0  0
    3.8018    0.5029    2.1885 C   0  0  0  0  0  0  0  0  0  0  0  0
    3.5636    0.4955    3.5192 N   0  0  0  0  0  0  0  0  0  0  0  0
    3.3628   -0.8269    1.1854 S   0  0  0  0  0  0  0  0  0  0  0  0
    0.5640    1.0338   -1.2340 C   0  0  0  0  0  0  0  0  0  0  0  0
   -0.7028    0.7061   -0.7287 C   0  0  0  0  0  0  0  0  0  0  0  0
   -4.1627   -0.6506    2.4077 H   0  0  0  0  0  0  0  0  0  0  0  0
   -5.8086   -0.0255    2.1673 H   0  0  0  0  0  0  0  0  0  0  0  0
   -4.4055    1.0695    2.1399 H   0  0  0  0  0  0  0  0  0  0  0  0
   -5.0002   -1.1328    0.0725 H   0  0  0  0  0  0  0  0  0  0  0  0
   -5.2516    0.5927   -0.1759 H   0  0  0  0  0  0  0  0  0  0  0  0
   -0.8315   -2.5537   -1.7088 H   0  0  0  0  0  0  0  0  0  0  0  0
    1.3731   -1.9738   -2.6276 H   0  0  0  0  0  0  0  0  0  0  0  0
    2.9046    1.5126   -2.3559 H   0  0  0  0  0  0  0  0  0  0  0  0
    2.6740    0.2630   -3.5689 H   0  0  0  0  0  0  0  0  0  0  0  0
    3.5627    1.4186    3.9396 H   0  0  0  0  0  0  0  0  0  0  0  0
    2.8043   -0.0923    3.8438 H   0  0  0  0  0  0  0  0  0  0  0  0
    0.9456    2.0488   -1.0853 H   0  0  0  0  0  0  0  0  0  0  0  0
   -1.2758    1.4754   -0.2107 H   0  0  0  0  0  0  0  0  0  0  0  0
  1  2  1  0
  2  3  1  0
  3  4  1  0
  4  5  2  0
  4  6  1  0
  6  7  2  0
  7  8  1  0
  8  9  2  0
  9 10  1  0
 10 11  1  0
 11 12  1  0
 12 13  2  0
 13 14  1  0
 14 15  2  0
 15 16  1  0
 15 17  1  0
  9 18  1  0
 18 19  2  0
 19  6  1  0
 17 12  1  0
  1 20  1  0
  1 21  1  0
  1 22  1  0
  2 23  1  0
  2 24  1  0
  7 25  1  0
  8 26  1  0
 10 27  1  0
 10 28  1  0
 16 29  1  0
 16 30  1  0
 18 31  1  0
 19 32  1  0
M  END
$$$$
