
     RDKit          3D

 38 41  0  0  0  0  0  0  0  0999 V2000
    8.2616    1.5425    0.3791 C   0  0  0  0  0  0  0  0  0  0  0  0
    6.7899    1.6990    0.4819 C   0  0  0  0  0  0  0  0  0  0  0  0
    6.1712    2.7801    0.9070 N   0  0  0  0  0  0  0  0  0  0  0  0
    4.7993    2.6266    0.8908 N   0  0  0  0  0  0  0  0  0  0  0  0
    4.4352    1.4406    0.4553 C   0  0  0  0  0  0  0  0  0  0  0  0
    3.1169    1.0778    0.3601 N   0  0  0  0  0  0  0  0  0  0  0  0
    2.6022   -0.1245   -0.0732 C   0  0  0  0  0  0  0  0  0  0  0  0
    3.2821   -1.0752   -0.4534 O   0  0  0  0  0  0  0  0  0  0  0  0
    1.1372   -0.2047   -0.0532 C   0  0  0  0  0  0  0  0  0  0  0  0
    0.1688    1.1666    0.2881 S   0  0  0  0  0  0  0  0  0  0  0  0
   -1.2738    0.2898    0.1020 C   0  0  0  0  0  0  0  0  0  0  0  0
   -2.4529    0.9135    0.2728 N   0  0  0  0  0  0  0  0  0  0  0  0
   -3.5402    0.1357    0.1364 C   0  0  0  0  0  0  0  0  0  0  0  0
   -4.8345    0.8132    0.3180 C   0  0  0  0  0  0  0  0  0  0  0  0
   -6.0568    0.5394   -0.2755 C   0  0  0  0  0  0  0  0  0  0  0  0
   -7.0973    1.4088    0.1662 C   0  0  0  0  0  0  0  0  0  0  0  0
   -6.6447    2.3230    1.0882 C   0  0  0  0  0  0  0  0  0  0  0  0
   -4.9789    2.1336    1.4135 S   0  0  0  0  0  0  0  0  0  0  0  0
   -3.4773   -1.2182   -0.1659 C   0  0  0  0  0  0  0  0  0  0  0  0
   -2.2316   -1.8514   -0.3545 C   0  0  0  0  0  0  0  0  0  0  0  0
   -2.1947   -3.3291   -0.6345 C   0  0  0  0  0  0  0  0  0  0  0  0
   -3.4038   -3.8267   -1.0235 F   0  0  0  0  0  0  0  0  0  0  0  0
   -1.3298   -3.6698   -1.6321 F   0  0  0  0  0  0  0  0  0  0  0  0
   -1.8293   -4.0611    0.4513 F   0  0  0  0  0  0  0  0  0  0  0  0
   -1.0690   -1.0476   -0.2149 C   0  0  0  0  0  0  0  0  0  0  0  0
    0.3437   -1.3117   -0.3139 C   0  0  0  0  0  0  0  0  0  0  0  0
    0.8638   -2.5251   -0.6182 N   0  0  0  0  0  0  0  0  0  0  0  0
    5.7338    0.4236    0.0310 S   0  0  0  0  0  0  0  0  0  0  0  0
    8.6074    0.6948    0.9794 H   0  0  0  0  0  0  0  0  0  0  0  0
    8.5639    1.3830   -0.6608 H   0  0  0  0  0  0  0  0  0  0  0  0
    8.7690    2.4415    0.7438 H   0  0  0  0  0  0  0  0  0  0  0  0
    2.4747    1.8014    0.6547 H   0  0  0  0  0  0  0  0  0  0  0  0
   -6.2059   -0.2451   -1.0075 H   0  0  0  0  0  0  0  0  0  0  0  0
   -8.1240    1.3663   -0.1768 H   0  0  0  0  0  0  0  0  0  0  0  0
   -7.2102    3.0978    1.5874 H   0  0  0  0  0  0  0  0  0  0  0  0
   -4.3932   -1.8007   -0.2417 H   0  0  0  0  0  0  0  0  0  0  0  0
    0.3539   -3.2098   -1.1762 H   0  0  0  0  0  0  0  0  0  0  0  0
    1.8733   -2.5978   -0.7908 H   0  0  0  0  0  0  0  0  0  0  0  0
  1  2  1  0
  2  3  2  0
  3  4  1  0
  4  5  2  0
  5  6  1  0
  6  7  1  0
  7  8  2  0
  7  9  1  0
  9 10  1  0
 10 11  1  0
 11 12  2  0
 12 13  1  0
 13 14  1  0
 14 15  2  0
 15 16  1  0
 16 17  2  0
 17 18  1  0
 13 19  2  0
 19 20  1  0
 20 21  1  0
 21 22  1  0
 21 23  1  0
 21 24  1  0
 20 25  2  0
 25 26  1  0
 26 27  1  0
  5 28  1  0
 28  2  1  0
 26  9  2  0
 25 11  1  0
 18 14  1  0
  1 29  1  0
  1 30  1  0
  1 31  1  0
  6 32  1  0
 15 33  1  0
 16 34  1  0
 17 35  1  0
 19 36  1  0
 27 37  1  0
 27 38  1  0
M  END
$$$$
