
     RDKit          3D

 66 68  0  0  0  0  0  0  0  0999 V2000
   -5.6034    5.4917    2.3886 C   0  0  0  0  0  0  0  0  0  0  0  0
   -5.0109    5.4786    1.0957 O   0  0  0  0  0  0  0  0  0  0  0  0
   -5.1518    4.2299    0.4109 C   0  0  0  0  0  0  0  0  0  0  0  0
   -4.2852    3.1203    1.0203 C   0  0  0  0  0  0  0  0  0  0  0  0
   -2.8843    3.5323    1.1144 N   0  0  0  0  0  0  0  0  0  0  0  0
   -1.8652    2.9102    0.4473 C   0  0  0  0  0  0  0  0  0  0  0  0
   -0.8148    3.9171   -0.3839 S   0  0  0  0  0  0  0  0  0  0  0  0
   -1.7947    1.5278    0.5264 N   0  0  0  0  0  0  0  0  0  0  0  0
   -2.2723    0.7925    1.7028 C   0  0  0  0  0  0  0  0  0  0  0  0
   -3.1342   -0.3966    1.2930 C   0  0  0  0  0  0  0  0  0  0  0  0
   -2.5058   -1.2081    0.1877 C   0  0  0  0  0  0  0  0  0  0  0  0
   -3.0060   -2.4940   -0.0851 C   0  0  0  0  0  0  0  0  0  0  0  0
   -2.4816   -3.2652   -1.1276 C   0  0  0  0  0  0  0  0  0  0  0  0
   -2.9053   -4.5297   -1.4523 O   0  0  0  0  0  0  0  0  0  0  0  0
   -4.0350   -5.0438   -0.7619 C   0  0  0  0  0  0  0  0  0  0  0  0
   -1.4355   -2.7438   -1.9060 C   0  0  0  0  0  0  0  0  0  0  0  0
   -0.9563   -3.5397   -2.9185 O   0  0  0  0  0  0  0  0  0  0  0  0
    0.4118   -3.3466   -3.2594 C   0  0  0  0  0  0  0  0  0  0  0  0
   -0.9625   -1.4500   -1.6598 C   0  0  0  0  0  0  0  0  0  0  0  0
   -1.4802   -0.6709   -0.6095 C   0  0  0  0  0  0  0  0  0  0  0  0
   -0.9006    0.7256   -0.3526 C   0  0  0  0  0  0  0  0  0  0  0  0
    0.5382    0.6129    0.2290 C   0  0  0  0  0  0  0  0  0  0  0  0
    1.4623    0.3113   -0.8248 O   0  0  0  0  0  0  0  0  0  0  0  0
    2.7569    0.0611   -0.4651 C   0  0  0  0  0  0  0  0  0  0  0  0
    3.5805   -0.3635   -1.5083 C   0  0  0  0  0  0  0  0  0  0  0  0
    4.9280   -0.6562   -1.2808 C   0  0  0  0  0  0  0  0  0  0  0  0
    5.4790   -0.5294    0.0012 C   0  0  0  0  0  0  0  0  0  0  0  0
    6.9412   -0.8305    0.2775 C   0  0  0  0  0  0  0  0  0  0  0  0
    7.3164   -2.2620   -0.1152 C   0  0  0  0  0  0  0  0  0  0  0  0
    7.8536    0.1845   -0.4142 C   0  0  0  0  0  0  0  0  0  0  0  0
    4.6471   -0.0922    1.0420 C   0  0  0  0  0  0  0  0  0  0  0  0
    3.2973    0.2021    0.8118 C   0  0  0  0  0  0  0  0  0  0  0  0
   -6.6430    5.1511    2.3465 H   0  0  0  0  0  0  0  0  0  0  0  0
   -5.0288    4.8712    3.0836 H   0  0  0  0  0  0  0  0  0  0  0  0
   -5.5889    6.5193    2.7610 H   0  0  0  0  0  0  0  0  0  0  0  0
   -4.8337    4.4052   -0.6228 H   0  0  0  0  0  0  0  0  0  0  0  0
   -6.2059    3.9326    0.3823 H   0  0  0  0  0  0  0  0  0  0  0  0
   -4.3775    2.2232    0.4036 H   0  0  0  0  0  0  0  0  0  0  0  0
   -4.6124    2.8910    2.0391 H   0  0  0  0  0  0  0  0  0  0  0  0
   -2.7865    4.5447    1.0850 H   0  0  0  0  0  0  0  0  0  0  0  0
   -2.8136    1.4317    2.4035 H   0  0  0  0  0  0  0  0  0  0  0  0
   -1.3862    0.4465    2.2502 H   0  0  0  0  0  0  0  0  0  0  0  0
   -3.3077   -1.0290    2.1712 H   0  0  0  0  0  0  0  0  0  0  0  0
   -4.1084   -0.0426    0.9360 H   0  0  0  0  0  0  0  0  0  0  0  0
   -3.8105   -2.8721    0.5379 H   0  0  0  0  0  0  0  0  0  0  0  0
   -4.2785   -6.0179   -1.1955 H   0  0  0  0  0  0  0  0  0  0  0  0
   -4.9089   -4.3972   -0.8899 H   0  0  0  0  0  0  0  0  0  0  0  0
   -3.8090   -5.1991    0.2978 H   0  0  0  0  0  0  0  0  0  0  0  0
    0.5397   -2.4486   -3.8711 H   0  0  0  0  0  0  0  0  0  0  0  0
    0.7288   -4.2040   -3.8611 H   0  0  0  0  0  0  0  0  0  0  0  0
    1.0502   -3.3107   -2.3700 H   0  0  0  0  0  0  0  0  0  0  0  0
   -0.1889   -1.0227   -2.2918 H   0  0  0  0  0  0  0  0  0  0  0  0
   -0.8597    1.2241   -1.3292 H   0  0  0  0  0  0  0  0  0  0  0  0
    0.5691   -0.1729    0.9964 H   0  0  0  0  0  0  0  0  0  0  0  0
    0.8333    1.5627    0.6890 H   0  0  0  0  0  0  0  0  0  0  0  0
    3.1712   -0.4650   -2.5102 H   0  0  0  0  0  0  0  0  0  0  0  0
    5.5420   -0.9787   -2.1182 H   0  0  0  0  0  0  0  0  0  0  0  0
    7.1176   -0.7422    1.3574 H   0  0  0  0  0  0  0  0  0  0  0  0
    8.3484   -2.4816    0.1780 H   0  0  0  0  0  0  0  0  0  0  0  0
    7.2353   -2.4302   -1.1951 H   0  0  0  0  0  0  0  0  0  0  0  0
    6.6655   -2.9887    0.3858 H   0  0  0  0  0  0  0  0  0  0  0  0
    7.7519    0.1525   -1.5035 H   0  0  0  0  0  0  0  0  0  0  0  0
    8.9032   -0.0093   -0.1686 H   0  0  0  0  0  0  0  0  0  0  0  0
    7.6182    1.2029   -0.0882 H   0  0  0  0  0  0  0  0  0  0  0  0
    5.0443    0.0312    2.0482 H   0  0  0  0  0  0  0  0  0  0  0  0
    2.7024    0.5468    1.6513 H   0  0  0  0  0  0  0  0  0  0  0  0
  1  2  1  0
  2  3  1  0
  3  4  1  0
  4  5  1  0
  5  6  1  0
  6  7  2  0
  6  8  1  0
  8  9  1  0
  9 10  1  0
 10 11  1  0
 11 12  2  0
 12 13  1  0
 13 14  1  0
 14 15  1  0
 13 16  2  0
 16 17  1  0
 17 18  1  0
 16 19  1  0
 19 20  2  0
 20 21  1  0
 21 22  1  0
 22 23  1  0
 23 24  1  0
 24 25  2  0
 25 26  1  0
 26 27  2  0
 27 28  1  0
 28 29  1  0
 28 30  1  0
 27 31  1  0
 31 32  2  0
 21  8  1  0
 32 24  1  0
 20 11  1  0
  1 33  1  0
  1 34  1  0
  1 35  1  0
  3 36  1  0
  3 37  1  0
  4 38  1  0
  4 39  1  0
  5 40  1  0
  9 41  1  0
  9 42  1  0
 10 43  1  0
 10 44  1  0
 12 45  1  0
 15 46  1  0
 15 47  1  0
 15 48  1  0
 18 49  1  0
 18 50  1  0
 18 51  1  0
 19 52  1  0
 21 53  1  0
 22 54  1  0
 22 55  1  0
 25 56  1  0
 26 57  1  0
 28 58  1  0
 29 59  1  0
 29 60  1  0
 29 61  1  0
 30 62  1  0
 30 63  1  0
 30 64  1  0
 31 65  1  0
 32 66  1  0
M  END
$$$$
