
     RDKit          3D

 43 46  0  0  0  0  0  0  0  0999 V2000
    3.1594    0.5479    4.1502 C   0  0  0  0  0  0  0  0  0  0  0  0
    2.0083    0.5143    3.3170 O   0  0  0  0  0  0  0  0  0  0  0  0
    2.1712   -0.2712    2.1943 C   0  0  0  0  0  0  0  0  0  0  0  0
    1.0968   -0.3440    1.4197 N   0  0  0  0  0  0  0  0  0  0  0  0
    1.2260   -1.0835    0.3321 C   0  0  0  0  0  0  0  0  0  0  0  0
    0.1796   -1.2521   -0.5525 N   0  0  0  0  0  0  0  0  0  0  0  0
   -0.8616   -0.2426   -0.7475 C   0  0  0  0  0  0  0  0  0  0  0  0
   -1.8199   -0.1473    0.4637 C   0  0  0  0  0  0  0  0  0  0  0  0
   -2.9486    0.8608    0.1785 C   0  0  0  0  0  0  0  0  0  0  0  0
   -2.3329    2.2388   -0.1216 C   0  0  0  0  0  0  0  0  0  0  0  0
   -1.4152    2.1549   -1.3540 C   0  0  0  0  0  0  0  0  0  0  0  0
   -2.2331    1.6735   -2.5625 C   0  0  0  0  0  0  0  0  0  0  0  0
   -2.8395    0.2926   -2.2685 C   0  0  0  0  0  0  0  0  0  0  0  0
   -3.7563    0.3897   -1.0402 C   0  0  0  0  0  0  0  0  0  0  0  0
   -1.7062   -0.7023   -1.9728 C   0  0  0  0  0  0  0  0  0  0  0  0
   -0.2800    1.1529   -1.0751 C   0  0  0  0  0  0  0  0  0  0  0  0
    2.3407   -1.7200    0.0006 N   0  0  0  0  0  0  0  0  0  0  0  0
    3.3504   -1.5774    0.8547 C   0  0  0  0  0  0  0  0  0  0  0  0
    4.5553   -2.1994    0.6004 O   0  0  0  0  0  0  0  0  0  0  0  0
    4.5279   -3.0273   -0.5545 C   0  0  0  0  0  0  0  0  0  0  0  0
    3.3342   -0.8621    1.9670 N   0  0  0  0  0  0  0  0  0  0  0  0
    2.9278    1.1795    5.0135 H   0  0  0  0  0  0  0  0  0  0  0  0
    4.0134    0.9969    3.6311 H   0  0  0  0  0  0  0  0  0  0  0  0
    3.4082   -0.4503    4.5273 H   0  0  0  0  0  0  0  0  0  0  0  0
    0.5812   -1.6290   -1.4043 H   0  0  0  0  0  0  0  0  0  0  0  0
   -1.2940    0.1733    1.3688 H   0  0  0  0  0  0  0  0  0  0  0  0
   -2.2463   -1.1335    0.6897 H   0  0  0  0  0  0  0  0  0  0  0  0
   -3.6071    0.9326    1.0514 H   0  0  0  0  0  0  0  0  0  0  0  0
   -1.7629    2.5917    0.7467 H   0  0  0  0  0  0  0  0  0  0  0  0
   -3.1291    2.9723   -0.2989 H   0  0  0  0  0  0  0  0  0  0  0  0
   -0.9904    3.1425   -1.5662 H   0  0  0  0  0  0  0  0  0  0  0  0
   -1.5928    1.6206   -3.4516 H   0  0  0  0  0  0  0  0  0  0  0  0
   -3.0302    2.3930   -2.7866 H   0  0  0  0  0  0  0  0  0  0  0  0
   -3.4167   -0.0498   -3.1347 H   0  0  0  0  0  0  0  0  0  0  0  0
   -4.2120   -0.5865   -0.8336 H   0  0  0  0  0  0  0  0  0  0  0  0
   -4.5778    1.0888   -1.2392 H   0  0  0  0  0  0  0  0  0  0  0  0
   -1.0650   -0.8008   -2.8593 H   0  0  0  0  0  0  0  0  0  0  0  0
   -2.1276   -1.6998   -1.7886 H   0  0  0  0  0  0  0  0  0  0  0  0
    0.3281    1.5331   -0.2459 H   0  0  0  0  0  0  0  0  0  0  0  0
    0.3878    1.0927   -1.9445 H   0  0  0  0  0  0  0  0  0  0  0  0
    5.5130   -3.4933   -0.6545 H   0  0  0  0  0  0  0  0  0  0  0  0
    4.3460   -2.4393   -1.4609 H   0  0  0  0  0  0  0  0  0  0  0  0
    3.7899   -3.8308   -0.4521 H   0  0  0  0  0  0  0  0  0  0  0  0
  1  2  1  0
  2  3  1  0
  3  4  2  0
  4  5  1  0
  5  6  1  0
  6  7  1  0
  7  8  1  0
  8  9  1  0
  9 10  1  0
 10 11  1  0
 11 12  1  0
 12 13  1  0
 13 14  1  0
 13 15  1  0
 11 16  1  0
  5 17  2  0
 17 18  1  0
 18 19  1  0
 19 20  1  0
 18 21  2  0
 21  3  1  0
 15  7  1  0
 16  7  1  0
 14  9  1  0
  1 22  1  0
  1 23  1  0
  1 24  1  0
  6 25  1  0
  8 26  1  0
  8 27  1  0
  9 28  1  0
 10 29  1  0
 10 30  1  0
 11 31  1  0
 12 32  1  0
 12 33  1  0
 13 34  1  0
 14 35  1  0
 14 36  1  0
 15 37  1  0
 15 38  1  0
 16 39  1  0
 16 40  1  0
 20 41  1  0
 20 42  1  0
 20 43  1  0
M  END
$$$$
