
     RDKit          3D

 49 52  0  0  0  0  0  0  0  0999 V2000
    6.3085   -3.7225   -2.5304 C   0  0  0  0  0  0  0  0  0  0  0  0
    5.3719   -2.7376   -1.8957 C   0  0  0  0  0  0  0  0  0  0  0  0
    5.5074   -1.3671   -2.1463 C   0  0  0  0  0  0  0  0  0  0  0  0
    4.6170   -0.4515   -1.5788 C   0  0  0  0  0  0  0  0  0  0  0  0
    3.5710   -0.8961   -0.7657 C   0  0  0  0  0  0  0  0  0  0  0  0
    2.6484    0.0758   -0.1767 C   0  0  0  0  0  0  0  0  0  0  0  0
    1.3679    0.2087   -0.5525 C   0  0  0  0  0  0  0  0  0  0  0  0
    0.6264   -0.5691   -1.6210 C   0  0  0  0  0  0  0  0  0  0  0  0
   -0.7897    0.0386   -1.6765 C   0  0  0  0  0  0  0  0  0  0  0  0
   -0.7634    1.0782   -0.6088 C   0  0  0  0  0  0  0  0  0  0  0  0
    0.4272    1.1537   -0.0184 C   0  0  0  0  0  0  0  0  0  0  0  0
    0.7455    1.9711    1.0586 O   0  0  0  0  0  0  0  0  0  0  0  0
   -0.2086    2.8559    1.4753 C   0  0  0  0  0  0  0  0  0  0  0  0
   -0.0485    3.3766    2.6479 N   0  0  0  0  0  0  0  0  0  0  0  0
   -1.3040    3.2038    0.4799 C   0  0  0  0  0  0  0  0  0  0  0  0
   -2.3414    4.0746    1.0423 C   0  0  0  0  0  0  0  0  0  0  0  0
   -3.1355    4.7978    1.4820 N   0  0  0  0  0  0  0  0  0  0  0  0
   -1.8988    1.9567   -0.2095 C   0  0  0  0  0  0  0  0  0  0  0  0
   -2.9437    1.2028    0.6027 C   0  0  0  0  0  0  0  0  0  0  0  0
   -2.6244    0.5230    1.7885 C   0  0  0  0  0  0  0  0  0  0  0  0
   -3.6117   -0.1468    2.5165 C   0  0  0  0  0  0  0  0  0  0  0  0
   -4.9406   -0.1442    2.0837 C   0  0  0  0  0  0  0  0  0  0  0  0
   -5.9926   -0.8874    2.8518 C   0  0  0  0  0  0  0  0  0  0  0  0
   -5.2630    0.5164    0.8952 C   0  0  0  0  0  0  0  0  0  0  0  0
   -4.2775    1.1862    0.1654 C   0  0  0  0  0  0  0  0  0  0  0  0
    3.4280   -2.2650   -0.5202 C   0  0  0  0  0  0  0  0  0  0  0  0
    4.3184   -3.1804   -1.0874 C   0  0  0  0  0  0  0  0  0  0  0  0
    6.4330   -4.6072   -1.8972 H   0  0  0  0  0  0  0  0  0  0  0  0
    5.9184   -4.0357   -3.5037 H   0  0  0  0  0  0  0  0  0  0  0  0
    7.3013   -3.2824   -2.6716 H   0  0  0  0  0  0  0  0  0  0  0  0
    6.3095   -1.0018   -2.7836 H   0  0  0  0  0  0  0  0  0  0  0  0
    4.7431    0.6094   -1.7813 H   0  0  0  0  0  0  0  0  0  0  0  0
    3.0748    0.7149    0.5933 H   0  0  0  0  0  0  0  0  0  0  0  0
    1.1186   -0.4754   -2.5956 H   0  0  0  0  0  0  0  0  0  0  0  0
    0.5637   -1.6319   -1.3617 H   0  0  0  0  0  0  0  0  0  0  0  0
   -1.5488   -0.7250   -1.4779 H   0  0  0  0  0  0  0  0  0  0  0  0
   -0.9866    0.4834   -2.6575 H   0  0  0  0  0  0  0  0  0  0  0  0
   -0.7805    4.0519    2.8933 H   0  0  0  0  0  0  0  0  0  0  0  0
   -0.7868    3.7970   -0.2914 H   0  0  0  0  0  0  0  0  0  0  0  0
   -2.3781    2.3074   -1.1354 H   0  0  0  0  0  0  0  0  0  0  0  0
   -1.6044    0.4913    2.1661 H   0  0  0  0  0  0  0  0  0  0  0  0
   -3.3334   -0.6702    3.4291 H   0  0  0  0  0  0  0  0  0  0  0  0
   -5.7626   -0.8947    3.9225 H   0  0  0  0  0  0  0  0  0  0  0  0
   -6.0558   -1.9204    2.4962 H   0  0  0  0  0  0  0  0  0  0  0  0
   -6.9719   -0.4117    2.7338 H   0  0  0  0  0  0  0  0  0  0  0  0
   -6.2882    0.5195    0.5310 H   0  0  0  0  0  0  0  0  0  0  0  0
   -4.5698    1.6991   -0.7488 H   0  0  0  0  0  0  0  0  0  0  0  0
    2.6243   -2.6278    0.1162 H   0  0  0  0  0  0  0  0  0  0  0  0
    4.1860   -4.2417   -0.8895 H   0  0  0  0  0  0  0  0  0  0  0  0
  1  2  1  0
  2  3  2  0
  3  4  1  0
  4  5  2  0
  5  6  1  0
  6  7  2  3
  7  8  1  0
  8  9  1  0
  9 10  1  0
 10 11  2  0
 11 12  1  0
 12 13  1  0
 13 14  2  3
 13 15  1  0
 15 16  1  0
 16 17  3  0
 15 18  1  0
 18 19  1  0
 19 20  2  0
 20 21  1  0
 21 22  2  0
 22 23  1  0
 22 24  1  0
 24 25  2  0
  5 26  1  0
 26 27  2  0
 27  2  1  0
 11  7  1  0
 25 19  1  0
 18 10  1  0
  1 28  1  0
  1 29  1  0
  1 30  1  0
  3 31  1  0
  4 32  1  0
  6 33  1  0
  8 34  1  0
  8 35  1  0
  9 36  1  0
  9 37  1  0
 14 38  1  0
 15 39  1  0
 18 40  1  0
 20 41  1  0
 21 42  1  0
 23 43  1  0
 23 44  1  0
 23 45  1  0
 24 46  1  0
 25 47  1  0
 26 48  1  0
 27 49  1  0
M  END
$$$$
