
     RDKit          3D

 45 48  0  0  0  0  0  0  0  0999 V2000
   -4.1808    0.5151    3.7110 C   0  0  0  0  0  0  0  0  0  0  0  0
   -4.1547   -0.3617    2.4746 C   0  0  0  0  0  0  0  0  0  0  0  0
   -2.8713   -0.2186    1.8538 O   0  0  0  0  0  0  0  0  0  0  0  0
   -2.7082   -0.9731    0.7345 C   0  0  0  0  0  0  0  0  0  0  0  0
   -3.5359   -1.7310    0.2539 O   0  0  0  0  0  0  0  0  0  0  0  0
   -1.3790   -0.7101    0.1438 C   0  0  0  0  0  0  0  0  0  0  0  0
   -1.4117   -0.3573   -1.2929 C   0  0  0  0  0  0  0  0  0  0  0  0
   -0.7656   -0.9240   -2.1626 O   0  0  0  0  0  0  0  0  0  0  0  0
   -2.2994    0.6545   -1.4853 O   0  0  0  0  0  0  0  0  0  0  0  0
   -2.4384    1.0505   -2.8539 C   0  0  0  0  0  0  0  0  0  0  0  0
   -3.4388    2.1880   -2.9167 C   0  0  0  0  0  0  0  0  0  0  0  0
   -0.2238   -0.9571    0.8178 C   0  0  0  0  0  0  0  0  0  0  0  0
   -0.2548   -1.7754    2.0874 C   0  0  0  0  0  0  0  0  0  0  0  0
    0.8386   -2.4106    2.5822 C   0  0  0  0  0  0  0  0  0  0  0  0
    0.7384   -3.4731    4.1153 Br  0  0  0  0  0  0  0  0  0  0  0  0
    2.1079   -2.2500    1.9340 C   0  0  0  0  0  0  0  0  0  0  0  0
    3.3224   -2.7455    2.1984 N   0  0  0  0  0  0  0  0  0  0  0  0
    4.1828   -2.1073    1.2926 O   0  0  0  0  0  0  0  0  0  0  0  0
    3.4697   -1.2277    0.5244 C   0  0  0  0  0  0  0  0  0  0  0  0
    3.9239   -0.3184   -0.4387 C   0  0  0  0  0  0  0  0  0  0  0  0
    5.2869   -0.2527   -0.7830 C   0  0  0  0  0  0  0  0  0  0  0  0
    5.7071    0.6785   -1.7263 C   0  0  0  0  0  0  0  0  0  0  0  0
    4.7795    1.5325   -2.3188 C   0  0  0  0  0  0  0  0  0  0  0  0
    3.4236    1.4693   -1.9672 C   0  0  0  0  0  0  0  0  0  0  0  0
    2.9479    0.5470   -1.0068 C   0  0  0  0  0  0  0  0  0  0  0  0
    1.5822    0.4332   -0.5874 C   0  0  0  0  0  0  0  0  0  0  0  0
    0.6636    1.3906   -0.9496 O   0  0  0  0  0  0  0  0  0  0  0  0
    1.1327   -0.5880    0.2721 C   0  0  0  0  0  0  0  0  0  0  0  0
    2.1481   -1.3449    0.8609 C   0  0  0  0  0  0  0  0  0  0  0  0
   -5.1443    0.4400    4.2226 H   0  0  0  0  0  0  0  0  0  0  0  0
   -3.3869    0.2236    4.4067 H   0  0  0  0  0  0  0  0  0  0  0  0
   -4.0020    1.5622    3.4448 H   0  0  0  0  0  0  0  0  0  0  0  0
   -4.9388   -0.0448    1.7779 H   0  0  0  0  0  0  0  0  0  0  0  0
   -4.3136   -1.4078    2.7597 H   0  0  0  0  0  0  0  0  0  0  0  0
   -2.8020    0.2048   -3.4483 H   0  0  0  0  0  0  0  0  0  0  0  0
   -1.4711    1.3873   -3.2433 H   0  0  0  0  0  0  0  0  0  0  0  0
   -3.5808    2.5265   -3.9467 H   0  0  0  0  0  0  0  0  0  0  0  0
   -4.4061    1.8734   -2.5109 H   0  0  0  0  0  0  0  0  0  0  0  0
   -3.0990    3.0338   -2.3099 H   0  0  0  0  0  0  0  0  0  0  0  0
   -1.2047   -1.9250    2.5920 H   0  0  0  0  0  0  0  0  0  0  0  0
    6.0127   -0.9201   -0.3239 H   0  0  0  0  0  0  0  0  0  0  0  0
    6.7563    0.7348   -2.0057 H   0  0  0  0  0  0  0  0  0  0  0  0
    5.1097    2.2489   -3.0682 H   0  0  0  0  0  0  0  0  0  0  0  0
    2.7429    2.1365   -2.4898 H   0  0  0  0  0  0  0  0  0  0  0  0
    1.1347    2.1931   -1.2246 H   0  0  0  0  0  0  0  0  0  0  0  0
  1  2  1  0
  2  3  1  0
  3  4  1  0
  4  5  2  0
  4  6  1  0
  6  7  1  0
  7  8  2  0
  7  9  1  0
  9 10  1  0
 10 11  1  0
  6 12  2  3
 12 13  1  0
 13 14  2  0
 14 15  1  0
 14 16  1  0
 16 17  2  0
 17 18  1  0
 18 19  1  0
 19 20  1  0
 20 21  2  0
 21 22  1  0
 22 23  2  0
 23 24  1  0
 24 25  2  0
 25 26  1  0
 26 27  1  0
 26 28  2  0
 28 29  1  0
 28 12  1  0
 29 16  1  0
 29 19  2  0
 25 20  1  0
  1 30  1  0
  1 31  1  0
  1 32  1  0
  2 33  1  0
  2 34  1  0
 10 35  1  0
 10 36  1  0
 11 37  1  0
 11 38  1  0
 11 39  1  0
 13 40  1  0
 21 41  1  0
 22 42  1  0
 23 43  1  0
 24 44  1  0
 27 45  1  0
M  END
$$$$
