
     RDKit          3D

 38 39  0  0  0  0  0  0  0  0999 V2000
   -2.2152   -1.3861    2.3778 C   0  0  0  0  0  0  0  0  0  0  0  0
   -2.3933   -1.8848    1.0240 N   0  0  0  0  0  0  0  0  0  0  0  0
   -3.3866   -1.1341    0.2543 C   0  0  0  0  0  0  0  0  0  0  0  0
   -2.9611    0.2670   -0.1286 C   0  0  0  0  0  0  0  0  0  0  0  0
   -3.3728    1.3537    0.6630 C   0  0  0  0  0  0  0  0  0  0  0  0
   -2.9961    2.6571    0.3404 C   0  0  0  0  0  0  0  0  0  0  0  0
   -2.2124    2.8938   -0.7848 C   0  0  0  0  0  0  0  0  0  0  0  0
   -1.7952    1.8273   -1.5825 C   0  0  0  0  0  0  0  0  0  0  0  0
   -2.1464    0.5151   -1.2466 C   0  0  0  0  0  0  0  0  0  0  0  0
   -1.7886   -0.5583   -2.0217 O   0  0  0  0  0  0  0  0  0  0  0  0
   -0.4135   -0.6086   -2.3774 C   0  0  0  0  0  0  0  0  0  0  0  0
    0.5798   -0.8069   -1.2173 C   0  0  0  0  0  0  0  0  0  0  0  0
    0.2546   -1.3851   -0.1843 O   0  0  0  0  0  0  0  0  0  0  0  0
    1.8356   -0.2874   -1.5040 N   0  0  0  0  0  0  0  0  0  0  0  0
    2.9744   -0.2854   -0.6705 C   0  0  0  0  0  0  0  0  0  0  0  0
    3.0024   -0.8163    0.6201 C   0  0  0  0  0  0  0  0  0  0  0  0
    4.1760   -0.7715    1.3804 C   0  0  0  0  0  0  0  0  0  0  0  0
    5.3309   -0.1954    0.8576 C   0  0  0  0  0  0  0  0  0  0  0  0
    5.3143    0.3380   -0.4276 C   0  0  0  0  0  0  0  0  0  0  0  0
    4.1420    0.2933   -1.1872 C   0  0  0  0  0  0  0  0  0  0  0  0
   -1.5356   -2.0519    2.9192 H   0  0  0  0  0  0  0  0  0  0  0  0
   -1.7730   -0.3855    2.3948 H   0  0  0  0  0  0  0  0  0  0  0  0
   -3.1626   -1.3715    2.9261 H   0  0  0  0  0  0  0  0  0  0  0  0
   -1.4895   -1.8265    0.5345 H   0  0  0  0  0  0  0  0  0  0  0  0
   -3.6118   -1.6979   -0.6594 H   0  0  0  0  0  0  0  0  0  0  0  0
   -4.3400   -1.1033    0.7979 H   0  0  0  0  0  0  0  0  0  0  0  0
   -3.9913    1.1825    1.5416 H   0  0  0  0  0  0  0  0  0  0  0  0
   -3.3226    3.4863    0.9626 H   0  0  0  0  0  0  0  0  0  0  0  0
   -1.9355    3.9113   -1.0479 H   0  0  0  0  0  0  0  0  0  0  0  0
   -1.2229    2.0476   -2.4769 H   0  0  0  0  0  0  0  0  0  0  0  0
   -0.1344    0.2514   -2.9956 H   0  0  0  0  0  0  0  0  0  0  0  0
   -0.2942   -1.4884   -3.0217 H   0  0  0  0  0  0  0  0  0  0  0  0
    1.9618    0.1409   -2.4117 H   0  0  0  0  0  0  0  0  0  0  0  0
    2.1277   -1.2738    1.0712 H   0  0  0  0  0  0  0  0  0  0  0  0
    4.1819   -1.1898    2.3840 H   0  0  0  0  0  0  0  0  0  0  0  0
    6.2401   -0.1632    1.4520 H   0  0  0  0  0  0  0  0  0  0  0  0
    6.2134    0.7888   -0.8397 H   0  0  0  0  0  0  0  0  0  0  0  0
    4.1597    0.7176   -2.1874 H   0  0  0  0  0  0  0  0  0  0  0  0
  1  2  1  0
  2  3  1  0
  3  4  1  0
  4  5  2  0
  5  6  1  0
  6  7  2  0
  7  8  1  0
  8  9  2  0
  9 10  1  0
 10 11  1  0
 11 12  1  0
 12 13  2  0
 12 14  1  0
 14 15  1  0
 15 16  2  0
 16 17  1  0
 17 18  2  0
 18 19  1  0
 19 20  2  0
  9  4  1  0
 20 15  1  0
  1 21  1  0
  1 22  1  0
  1 23  1  0
  2 24  1  0
  3 25  1  0
  3 26  1  0
  5 27  1  0
  6 28  1  0
  7 29  1  0
  8 30  1  0
 11 31  1  0
 11 32  1  0
 14 33  1  0
 16 34  1  0
 17 35  1  0
 18 36  1  0
 19 37  1  0
 20 38  1  0
M  END
$$$$
