
     RDKit          3D

 55 57  0  0  0  0  0  0  0  0999 V2000
   -4.2452   -1.4006    2.8754 C   0  0  0  0  0  0  0  0  0  0  0  0
   -3.8846   -0.9831    1.4802 C   0  0  0  0  0  0  0  0  0  0  0  0
   -3.2842   -1.8843    0.5950 C   0  0  0  0  0  0  0  0  0  0  0  0
   -2.9805   -1.5018   -0.7151 C   0  0  0  0  0  0  0  0  0  0  0  0
   -3.2776   -0.2110   -1.1748 C   0  0  0  0  0  0  0  0  0  0  0  0
   -2.9341    0.1578   -2.5897 C   0  0  0  0  0  0  0  0  0  0  0  0
   -3.8543    0.6966   -0.2719 C   0  0  0  0  0  0  0  0  0  0  0  0
   -4.0905    2.1136   -0.6280 C   0  0  0  0  0  0  0  0  0  0  0  0
   -5.2449    2.5158   -0.7488 O   0  0  0  0  0  0  0  0  0  0  0  0
   -2.8712    3.0100   -0.8392 C   0  0  0  0  0  0  0  0  0  0  0  0
   -1.6353    2.4343   -0.4142 O   0  0  0  0  0  0  0  0  0  0  0  0
   -1.3981    2.5028    0.9185 C   0  0  0  0  0  0  0  0  0  0  0  0
   -2.0459    3.1398    1.7314 O   0  0  0  0  0  0  0  0  0  0  0  0
   -0.2372    1.6487    1.2780 C   0  0  0  0  0  0  0  0  0  0  0  0
    0.3659    1.8332    2.5249 C   0  0  0  0  0  0  0  0  0  0  0  0
    1.4270    1.0141    2.9219 C   0  0  0  0  0  0  0  0  0  0  0  0
    1.9041   -0.0115    2.0874 C   0  0  0  0  0  0  0  0  0  0  0  0
    3.0292   -0.8762    2.5858 C   0  0  0  0  0  0  0  0  0  0  0  0
    1.2856   -0.1931    0.8344 C   0  0  0  0  0  0  0  0  0  0  0  0
    1.7771   -1.4974   -0.2831 S   0  0  0  0  0  6  0  0  0  0  0  0
    0.9883   -1.3878   -1.4940 O   0  0  0  0  0  0  0  0  0  0  0  0
    1.8128   -2.7331    0.4676 O   0  0  0  0  0  0  0  0  0  0  0  0
    3.3716   -1.0686   -0.6993 N   0  0  0  0  0  0  0  0  0  0  0  0
    4.1488   -2.2076   -1.2904 C   0  0  0  0  0  0  0  0  0  0  0  0
    5.3965   -1.6860   -2.0089 C   0  0  0  0  0  0  0  0  0  0  0  0
    5.0889   -0.8296   -3.1200 O   0  0  0  0  0  0  0  0  0  0  0  0
    3.8554   -0.1141   -2.9590 C   0  0  0  0  0  0  0  0  0  0  0  0
    3.5271    0.1936   -1.4944 C   0  0  0  0  0  0  0  0  0  0  0  0
    0.2226    0.6319    0.4338 C   0  0  0  0  0  0  0  0  0  0  0  0
   -4.1803    0.3089    1.0347 C   0  0  0  0  0  0  0  0  0  0  0  0
   -3.6866   -2.2930    3.1795 H   0  0  0  0  0  0  0  0  0  0  0  0
   -4.0036   -0.6061    3.5894 H   0  0  0  0  0  0  0  0  0  0  0  0
   -5.3151   -1.6222    2.9361 H   0  0  0  0  0  0  0  0  0  0  0  0
   -3.0498   -2.8974    0.9169 H   0  0  0  0  0  0  0  0  0  0  0  0
   -2.5093   -2.2264   -1.3785 H   0  0  0  0  0  0  0  0  0  0  0  0
   -2.9401   -0.7279   -3.2338 H   0  0  0  0  0  0  0  0  0  0  0  0
   -3.6687    0.8536   -3.0074 H   0  0  0  0  0  0  0  0  0  0  0  0
   -1.9394    0.6105   -2.6328 H   0  0  0  0  0  0  0  0  0  0  0  0
   -2.7857    3.2041   -1.9140 H   0  0  0  0  0  0  0  0  0  0  0  0
   -3.0422    3.9720   -0.3403 H   0  0  0  0  0  0  0  0  0  0  0  0
    0.0049    2.6082    3.2008 H   0  0  0  0  0  0  0  0  0  0  0  0
    1.8711    1.1771    3.9035 H   0  0  0  0  0  0  0  0  0  0  0  0
    2.6922   -1.9084    2.7235 H   0  0  0  0  0  0  0  0  0  0  0  0
    3.8802   -0.8470    1.8982 H   0  0  0  0  0  0  0  0  0  0  0  0
    3.3979   -0.5267    3.5587 H   0  0  0  0  0  0  0  0  0  0  0  0
    4.4462   -2.8850   -0.4836 H   0  0  0  0  0  0  0  0  0  0  0  0
    3.5197   -2.7527   -2.0047 H   0  0  0  0  0  0  0  0  0  0  0  0
    6.0354   -1.1219   -1.3173 H   0  0  0  0  0  0  0  0  0  0  0  0
    5.9887   -2.5212   -2.3949 H   0  0  0  0  0  0  0  0  0  0  0  0
    3.0575   -0.7069   -3.4219 H   0  0  0  0  0  0  0  0  0  0  0  0
    3.9439    0.8165   -3.5274 H   0  0  0  0  0  0  0  0  0  0  0  0
    2.6297    0.8162   -1.4379 H   0  0  0  0  0  0  0  0  0  0  0  0
    4.3440    0.7639   -1.0344 H   0  0  0  0  0  0  0  0  0  0  0  0
   -0.2626    0.4600   -0.5251 H   0  0  0  0  0  0  0  0  0  0  0  0
   -4.6453    1.0259    1.7091 H   0  0  0  0  0  0  0  0  0  0  0  0
  1  2  1  0
  2  3  2  0
  3  4  1  0
  4  5  2  0
  5  6  1  0
  5  7  1  0
  7  8  1  0
  8  9  2  0
  8 10  1  0
 10 11  1  0
 11 12  1  0
 12 13  2  0
 12 14  1  0
 14 15  2  0
 15 16  1  0
 16 17  2  0
 17 18  1  0
 17 19  1  0
 19 20  1  0
 20 21  2  0
 20 22  2  0
 20 23  1  0
 23 24  1  0
 24 25  1  0
 25 26  1  0
 26 27  1  0
 27 28  1  0
 19 29  2  0
  7 30  2  0
 30  2  1  0
 29 14  1  0
 28 23  1  0
  1 31  1  0
  1 32  1  0
  1 33  1  0
  3 34  1  0
  4 35  1  0
  6 36  1  0
  6 37  1  0
  6 38  1  0
 10 39  1  0
 10 40  1  0
 15 41  1  0
 16 42  1  0
 18 43  1  0
 18 44  1  0
 18 45  1  0
 24 46  1  0
 24 47  1  0
 25 48  1  0
 25 49  1  0
 27 50  1  0
 27 51  1  0
 28 52  1  0
 28 53  1  0
 29 54  1  0
 30 55  1  0
M  END
$$$$
