
     RDKit          3D

 46 49  0  0  0  0  0  0  0  0999 V2000
   -3.3943   -0.9555   -3.0558 C   0  0  0  0  0  0  0  0  0  0  0  0
   -4.2454   -0.1596   -2.0751 C   0  0  0  0  0  0  0  0  0  0  0  0
   -4.0000   -0.5588   -0.6076 C   0  0  0  0  0  0  0  0  0  0  0  0
   -4.9390    0.1823    0.3582 C   0  0  0  0  0  0  0  0  0  0  0  0
   -4.7728   -0.3586    1.7830 C   0  0  0  0  0  0  0  0  0  0  0  0
   -3.3057   -0.3827    2.2186 C   0  0  0  0  0  0  0  0  0  0  0  0
   -2.4176   -1.0753    1.1790 C   0  0  0  0  0  0  0  0  0  0  0  0
   -2.6069   -0.4577   -0.1374 N   0  0  0  0  0  0  0  0  0  0  0  0
   -1.8603    0.7071   -0.4101 C   0  0  0  0  0  0  0  0  0  0  0  0
   -2.4000    1.7493   -0.7781 O   0  0  0  0  0  0  0  0  0  0  0  0
   -0.4125    0.6378   -0.2431 C   0  0  0  0  0  0  0  0  0  0  0  0
    0.4271    1.6653    0.1468 C   0  0  0  0  0  0  0  0  0  0  0  0
    1.7960    1.2672    0.1570 C   0  0  0  0  0  0  0  0  0  0  0  0
    2.9689    2.0336    0.5228 C   0  0  0  0  0  0  0  0  0  0  0  0
    2.8738    3.1977    0.9083 O   0  0  0  0  0  0  0  0  0  0  0  0
    4.1796    1.3282    0.4014 N   0  0  0  0  0  0  0  0  0  0  0  0
    5.3597    1.9882    0.7283 C   0  0  0  0  0  0  0  0  0  0  0  0
    6.5529    1.3919    0.6450 C   0  0  0  0  0  0  0  0  0  0  0  0
    6.6456    0.0277    0.2073 C   0  0  0  0  0  0  0  0  0  0  0  0
    5.5503   -0.6726   -0.1246 C   0  0  0  0  0  0  0  0  0  0  0  0
    5.5950   -2.0955   -0.5876 C   0  0  0  0  0  0  0  0  0  0  0  0
    4.1994   -0.0106   -0.0348 C   0  0  0  0  0  0  0  0  0  0  0  0
    3.1382   -0.6959   -0.3577 N   0  0  0  0  0  0  0  0  0  0  0  0
    1.9659   -0.0303   -0.2555 C   0  0  0  0  0  0  0  0  0  0  0  0
    0.4833   -0.7641   -0.6672 S   0  0  0  0  0  0  0  0  0  0  0  0
   -2.3286   -0.7471   -2.9255 H   0  0  0  0  0  0  0  0  0  0  0  0
   -3.6618   -0.6922   -4.0842 H   0  0  0  0  0  0  0  0  0  0  0  0
   -3.5537   -2.0312   -2.9306 H   0  0  0  0  0  0  0  0  0  0  0  0
   -4.0824    0.9098   -2.2392 H   0  0  0  0  0  0  0  0  0  0  0  0
   -5.3008   -0.3420   -2.3149 H   0  0  0  0  0  0  0  0  0  0  0  0
   -4.2473   -1.6291   -0.5483 H   0  0  0  0  0  0  0  0  0  0  0  0
   -4.7272    1.2579    0.3527 H   0  0  0  0  0  0  0  0  0  0  0  0
   -5.9824    0.0586    0.0457 H   0  0  0  0  0  0  0  0  0  0  0  0
   -5.3589    0.2486    2.4817 H   0  0  0  0  0  0  0  0  0  0  0  0
   -5.1768   -1.3776    1.8295 H   0  0  0  0  0  0  0  0  0  0  0  0
   -2.9616    0.6490    2.3638 H   0  0  0  0  0  0  0  0  0  0  0  0
   -3.2136   -0.8918    3.1843 H   0  0  0  0  0  0  0  0  0  0  0  0
   -2.6737   -2.1378    1.0960 H   0  0  0  0  0  0  0  0  0  0  0  0
   -1.3798   -1.0110    1.5140 H   0  0  0  0  0  0  0  0  0  0  0  0
    0.0718    2.6545    0.4156 H   0  0  0  0  0  0  0  0  0  0  0  0
    5.2751    3.0212    1.0580 H   0  0  0  0  0  0  0  0  0  0  0  0
    7.4644    1.9216    0.9033 H   0  0  0  0  0  0  0  0  0  0  0  0
    7.6357   -0.4160    0.1541 H   0  0  0  0  0  0  0  0  0  0  0  0
    5.1789   -2.1857   -1.5963 H   0  0  0  0  0  0  0  0  0  0  0  0
    5.0218   -2.7387    0.0881 H   0  0  0  0  0  0  0  0  0  0  0  0
    6.6200   -2.4804   -0.6184 H   0  0  0  0  0  0  0  0  0  0  0  0
  1  2  1  0
  2  3  1  0
  3  4  1  0
  4  5  1  0
  5  6  1  0
  6  7  1  0
  7  8  1  0
  8  9  1  0
  9 10  2  0
  9 11  1  0
 11 12  2  0
 12 13  1  0
 13 14  1  0
 14 15  2  0
 14 16  1  0
 16 17  1  0
 17 18  2  0
 18 19  1  0
 19 20  2  0
 20 21  1  0
 20 22  1  0
 22 23  2  0
 23 24  1  0
 24 25  1  0
  8  3  1  0
 25 11  1  0
 24 13  2  0
 22 16  1  0
  1 26  1  0
  1 27  1  0
  1 28  1  0
  2 29  1  0
  2 30  1  0
  3 31  1  0
  4 32  1  0
  4 33  1  0
  5 34  1  0
  5 35  1  0
  6 36  1  0
  6 37  1  0
  7 38  1  0
  7 39  1  0
 12 40  1  0
 17 41  1  0
 18 42  1  0
 19 43  1  0
 21 44  1  0
 21 45  1  0
 21 46  1  0
M  END
$$$$
