
     RDKit          3D

 45 47  0  0  0  0  0  0  0  0999 V2000
   -4.3431   -2.3099    1.8734 C   0  0  0  0  0  0  0  0  0  0  0  0
   -4.0332   -2.4432    0.0922 S   0  0  0  0  0  0  0  0  0  0  0  0
   -4.0696   -0.7110   -0.3591 C   0  0  0  0  0  0  0  0  0  0  0  0
   -4.9937   -0.3232   -1.3394 C   0  0  0  0  0  0  0  0  0  0  0  0
   -5.0912    1.0113   -1.7424 C   0  0  0  0  0  0  0  0  0  0  0  0
   -4.2653    1.9750   -1.1690 C   0  0  0  0  0  0  0  0  0  0  0  0
   -3.3308    1.6024   -0.2042 C   0  0  0  0  0  0  0  0  0  0  0  0
   -3.2137    0.2615    0.1799 C   0  0  0  0  0  0  0  0  0  0  0  0
   -2.2942   -0.0775    1.1392 O   0  0  0  0  0  0  0  0  0  0  0  0
   -0.9396    0.0229    0.6665 C   0  0  0  0  0  0  0  0  0  0  0  0
   -0.1662    0.9428    1.6106 C   0  0  0  0  0  0  0  0  0  0  0  0
    1.3211    0.9521    1.2667 C   0  0  0  0  0  0  0  0  0  0  0  0
    1.8660   -0.4066    1.2983 N   0  0  0  0  0  0  0  0  0  0  0  0
    3.3319   -0.4533    1.1837 C   0  0  0  0  0  0  0  0  0  0  0  0
    3.9348    0.0449   -0.1135 C   0  0  0  0  0  0  0  0  0  0  0  0
    4.1450   -0.8318   -1.1885 C   0  0  0  0  0  0  0  0  0  0  0  0
    4.7010   -0.3719   -2.3835 C   0  0  0  0  0  0  0  0  0  0  0  0
    5.0572    0.9684   -2.5171 C   0  0  0  0  0  0  0  0  0  0  0  0
    4.8601    1.8494   -1.4559 C   0  0  0  0  0  0  0  0  0  0  0  0
    4.3040    1.3906   -0.2605 C   0  0  0  0  0  0  0  0  0  0  0  0
    1.1799   -1.2997    0.3614 C   0  0  0  0  0  0  0  0  0  0  0  0
   -0.3119   -1.3707    0.6770 C   0  0  0  0  0  0  0  0  0  0  0  0
   -4.5725   -3.3046    2.2657 H   0  0  0  0  0  0  0  0  0  0  0  0
   -5.1977   -1.6569    2.0711 H   0  0  0  0  0  0  0  0  0  0  0  0
   -3.4642   -1.9346    2.4019 H   0  0  0  0  0  0  0  0  0  0  0  0
   -5.6541   -1.0594   -1.7928 H   0  0  0  0  0  0  0  0  0  0  0  0
   -5.8185    1.2967   -2.4984 H   0  0  0  0  0  0  0  0  0  0  0  0
   -4.3505    3.0155   -1.4715 H   0  0  0  0  0  0  0  0  0  0  0  0
   -2.6977    2.3589    0.2499 H   0  0  0  0  0  0  0  0  0  0  0  0
   -0.8845    0.4259   -0.3554 H   0  0  0  0  0  0  0  0  0  0  0  0
   -0.3134    0.6214    2.6505 H   0  0  0  0  0  0  0  0  0  0  0  0
   -0.5699    1.9606    1.5549 H   0  0  0  0  0  0  0  0  0  0  0  0
    1.4580    1.4154    0.2820 H   0  0  0  0  0  0  0  0  0  0  0  0
    1.8360    1.5815    2.0023 H   0  0  0  0  0  0  0  0  0  0  0  0
    3.7714    0.1123    2.0166 H   0  0  0  0  0  0  0  0  0  0  0  0
    3.6713   -1.4835    1.3578 H   0  0  0  0  0  0  0  0  0  0  0  0
    3.8752   -1.8817   -1.0989 H   0  0  0  0  0  0  0  0  0  0  0  0
    4.8571   -1.0605   -3.2098 H   0  0  0  0  0  0  0  0  0  0  0  0
    5.4907    1.3257   -3.4474 H   0  0  0  0  0  0  0  0  0  0  0  0
    5.1411    2.8943   -1.5582 H   0  0  0  0  0  0  0  0  0  0  0  0
    4.1596    2.0900    0.5599 H   0  0  0  0  0  0  0  0  0  0  0  0
    1.5919   -2.3132    0.4369 H   0  0  0  0  0  0  0  0  0  0  0  0
    1.3104   -0.9668   -0.6755 H   0  0  0  0  0  0  0  0  0  0  0  0
   -0.4731   -1.8480    1.6528 H   0  0  0  0  0  0  0  0  0  0  0  0
   -0.8151   -2.0115   -0.0562 H   0  0  0  0  0  0  0  0  0  0  0  0
  1  2  1  0
  2  3  1  0
  3  4  2  0
  4  5  1  0
  5  6  2  0
  6  7  1  0
  7  8  2  0
  8  9  1  0
  9 10  1  0
 10 11  1  0
 11 12  1  0
 12 13  1  0
 13 14  1  0
 14 15  1  0
 15 16  2  0
 16 17  1  0
 17 18  2  0
 18 19  1  0
 19 20  2  0
 13 21  1  0
 21 22  1  0
  8  3  1  0
 22 10  1  0
 20 15  1  0
  1 23  1  0
  1 24  1  0
  1 25  1  0
  4 26  1  0
  5 27  1  0
  6 28  1  0
  7 29  1  0
 10 30  1  0
 11 31  1  0
 11 32  1  0
 12 33  1  0
 12 34  1  0
 14 35  1  0
 14 36  1  0
 16 37  1  0
 17 38  1  0
 18 39  1  0
 19 40  1  0
 20 41  1  0
 21 42  1  0
 21 43  1  0
 22 44  1  0
 22 45  1  0
M  END
$$$$
