
     RDKit          3D

 40 41  0  0  0  0  0  0  0  0999 V2000
    6.1536    0.3401    0.8506 C   0  0  0  0  0  0  0  0  0  0  0  0
    5.1372   -0.5479    1.5471 C   0  0  0  0  0  0  0  0  0  0  0  0
    4.3337   -1.2441    0.5957 O   0  0  0  0  0  0  0  0  0  0  0  0
    3.1950   -0.6523    0.1277 C   0  0  0  0  0  0  0  0  0  0  0  0
    2.7492    0.6372    0.4224 C   0  0  0  0  0  0  0  0  0  0  0  0
    1.5580    1.1156   -0.1348 C   0  0  0  0  0  0  0  0  0  0  0  0
    0.8049    0.2946   -0.9788 C   0  0  0  0  0  0  0  0  0  0  0  0
   -0.6939    0.9203   -1.7136 S   0  0  0  0  0  6  0  0  0  0  0  0
   -0.9062    0.1994   -2.9513 O   0  0  0  0  0  0  0  0  0  0  0  0
   -0.6092    2.3659   -1.6982 O   0  0  0  0  0  0  0  0  0  0  0  0
   -1.8954    0.4440   -0.6028 N   0  0  0  0  0  0  0  0  0  0  0  0
   -1.9450    1.1864    0.6739 C   0  0  0  0  0  0  0  0  0  0  0  0
   -3.1391    0.8261    1.5576 C   0  0  0  0  0  0  0  0  0  0  0  0
   -4.4623    0.6658    0.8106 C   0  0  0  0  0  0  0  0  0  0  0  0
   -4.6659   -0.7479    0.2637 C   0  0  0  0  0  0  0  0  0  0  0  0
   -3.7249   -1.1488   -0.8710 C   0  0  0  0  0  0  0  0  0  0  0  0
   -2.2421   -0.9897   -0.5470 C   0  0  0  0  0  0  0  0  0  0  0  0
    1.2580   -0.9841   -1.3053 C   0  0  0  0  0  0  0  0  0  0  0  0
    2.4468   -1.4531   -0.7430 C   0  0  0  0  0  0  0  0  0  0  0  0
    6.7609   -0.2469    0.1535 H   0  0  0  0  0  0  0  0  0  0  0  0
    5.6658    1.1234    0.2630 H   0  0  0  0  0  0  0  0  0  0  0  0
    6.8161    0.8145    1.5801 H   0  0  0  0  0  0  0  0  0  0  0  0
    5.6796   -1.3145    2.1123 H   0  0  0  0  0  0  0  0  0  0  0  0
    4.5380   -0.0018    2.2837 H   0  0  0  0  0  0  0  0  0  0  0  0
    3.3097    1.3049    1.0680 H   0  0  0  0  0  0  0  0  0  0  0  0
    1.2313    2.1293    0.0883 H   0  0  0  0  0  0  0  0  0  0  0  0
   -2.0105    2.2577    0.4509 H   0  0  0  0  0  0  0  0  0  0  0  0
   -1.0260    1.0187    1.2445 H   0  0  0  0  0  0  0  0  0  0  0  0
   -3.2496    1.6243    2.3029 H   0  0  0  0  0  0  0  0  0  0  0  0
   -2.9205   -0.0831    2.1313 H   0  0  0  0  0  0  0  0  0  0  0  0
   -4.5563    1.4100    0.0113 H   0  0  0  0  0  0  0  0  0  0  0  0
   -5.2767    0.8629    1.5191 H   0  0  0  0  0  0  0  0  0  0  0  0
   -5.6970   -0.8352   -0.1005 H   0  0  0  0  0  0  0  0  0  0  0  0
   -4.5699   -1.4714    1.0833 H   0  0  0  0  0  0  0  0  0  0  0  0
   -3.9196   -2.2008   -1.1133 H   0  0  0  0  0  0  0  0  0  0  0  0
   -3.9745   -0.5699   -1.7694 H   0  0  0  0  0  0  0  0  0  0  0  0
   -1.9843   -1.4272    0.4233 H   0  0  0  0  0  0  0  0  0  0  0  0
   -1.6765   -1.5565   -1.2930 H   0  0  0  0  0  0  0  0  0  0  0  0
    0.7051   -1.6149   -1.9972 H   0  0  0  0  0  0  0  0  0  0  0  0
    2.8023   -2.4508   -0.9924 H   0  0  0  0  0  0  0  0  0  0  0  0
  1  2  1  0
  2  3  1  0
  3  4  1  0
  4  5  2  0
  5  6  1  0
  6  7  2  0
  7  8  1  0
  8  9  2  0
  8 10  2  0
  8 11  1  0
 11 12  1  0
 12 13  1  0
 13 14  1  0
 14 15  1  0
 15 16  1  0
 16 17  1  0
  7 18  1  0
 18 19  2  0
 19  4  1  0
 17 11  1  0
  1 20  1  0
  1 21  1  0
  1 22  1  0
  2 23  1  0
  2 24  1  0
  5 25  1  0
  6 26  1  0
 12 27  1  0
 12 28  1  0
 13 29  1  0
 13 30  1  0
 14 31  1  0
 14 32  1  0
 15 33  1  0
 15 34  1  0
 16 35  1  0
 16 36  1  0
 17 37  1  0
 17 38  1  0
 18 39  1  0
 19 40  1  0
M  END
$$$$
