
     RDKit          3D

 54 56  0  0  0  0  0  0  0  0999 V2000
    5.4257    2.6132    0.7893 C   0  0  0  0  0  0  0  0  0  0  0  0
    4.7541    1.2789    1.0891 C   0  0  0  0  0  0  0  0  0  0  0  0
    4.4105    0.5219   -0.1244 N   0  0  0  0  0  0  0  0  0  0  0  0
    3.9600   -0.8428    0.2432 C   0  0  0  0  0  0  0  0  0  0  0  0
    3.5518   -1.6888   -0.9873 C   0  0  0  0  0  0  0  0  0  0  0  0
    2.4925   -1.0190   -1.7754 N   0  0  0  0  0  0  0  0  0  0  0  0
    1.1886   -1.1571   -1.2713 C   0  0  0  0  0  0  0  0  0  0  0  0
    0.6525   -2.4151   -1.0804 C   0  0  0  0  0  0  0  0  0  0  0  0
   -0.6295   -2.4936   -0.5811 C   0  0  0  0  0  0  0  0  0  0  0  0
   -1.3353   -4.1147   -0.3082 S   0  0  0  0  0  0  0  0  0  0  0  0
   -2.8135   -3.7161    0.7041 C   0  0  0  0  0  0  0  0  0  0  0  0
   -3.9978   -3.3767   -0.1976 C   0  0  0  0  0  0  0  0  0  0  0  0
   -3.1383   -4.9305    1.5726 C   0  0  0  0  0  0  0  0  0  0  0  0
   -1.3672   -1.4132   -0.3002 N   0  0  0  0  0  0  0  0  0  0  0  0
   -0.7968   -0.2244   -0.5443 C   0  0  0  0  0  0  0  0  0  0  0  0
   -1.5909    0.9916   -0.2700 C   0  0  0  0  0  0  0  0  0  0  0  0
   -1.0552    2.2785   -0.4533 C   0  0  0  0  0  0  0  0  0  0  0  0
   -1.8109    3.4287   -0.1956 C   0  0  0  0  0  0  0  0  0  0  0  0
   -3.1261    3.3308    0.2542 C   0  0  0  0  0  0  0  0  0  0  0  0
   -3.7510    4.5278    0.4645 O   0  0  0  0  0  0  0  0  0  0  0  0
   -5.0701    4.4784    0.9920 C   0  0  0  0  0  0  0  0  0  0  0  0
   -3.6818    2.0685    0.4427 C   0  0  0  0  0  0  0  0  0  0  0  0
   -2.9217    0.9177    0.1834 C   0  0  0  0  0  0  0  0  0  0  0  0
    0.4519   -0.0633   -1.0178 N   0  0  0  0  0  0  0  0  0  0  0  0
    2.8864    0.3597   -2.1414 C   0  0  0  0  0  0  0  0  0  0  0  0
    3.3437    1.1891   -0.9140 C   0  0  0  0  0  0  0  0  0  0  0  0
    5.7983    3.0606    1.7164 H   0  0  0  0  0  0  0  0  0  0  0  0
    6.2769    2.4834    0.1133 H   0  0  0  0  0  0  0  0  0  0  0  0
    4.7289    3.3271    0.3405 H   0  0  0  0  0  0  0  0  0  0  0  0
    3.8710    1.4441    1.7188 H   0  0  0  0  0  0  0  0  0  0  0  0
    5.4638    0.6911    1.6839 H   0  0  0  0  0  0  0  0  0  0  0  0
    3.1157   -0.7887    0.9441 H   0  0  0  0  0  0  0  0  0  0  0  0
    4.7768   -1.3685    0.7537 H   0  0  0  0  0  0  0  0  0  0  0  0
    4.4279   -1.8221   -1.6367 H   0  0  0  0  0  0  0  0  0  0  0  0
    3.2638   -2.6958   -0.6643 H   0  0  0  0  0  0  0  0  0  0  0  0
    1.2088   -3.3077   -1.3328 H   0  0  0  0  0  0  0  0  0  0  0  0
   -2.5966   -2.8759    1.3740 H   0  0  0  0  0  0  0  0  0  0  0  0
   -4.8858   -3.1621    0.4098 H   0  0  0  0  0  0  0  0  0  0  0  0
   -4.2477   -4.2074   -0.8652 H   0  0  0  0  0  0  0  0  0  0  0  0
   -3.8065   -2.4904   -0.8128 H   0  0  0  0  0  0  0  0  0  0  0  0
   -3.9969   -4.7176    2.2183 H   0  0  0  0  0  0  0  0  0  0  0  0
   -2.2986   -5.1877    2.2278 H   0  0  0  0  0  0  0  0  0  0  0  0
   -3.3910   -5.8112    0.9711 H   0  0  0  0  0  0  0  0  0  0  0  0
   -0.0327    2.3990   -0.8038 H   0  0  0  0  0  0  0  0  0  0  0  0
   -1.3655    4.4086   -0.3496 H   0  0  0  0  0  0  0  0  0  0  0  0
   -5.7575    3.9908    0.2918 H   0  0  0  0  0  0  0  0  0  0  0  0
   -5.4127    5.5082    1.1323 H   0  0  0  0  0  0  0  0  0  0  0  0
   -5.0873    3.9870    1.9695 H   0  0  0  0  0  0  0  0  0  0  0  0
   -4.7026    1.9361    0.7850 H   0  0  0  0  0  0  0  0  0  0  0  0
   -3.3880   -0.0543    0.3389 H   0  0  0  0  0  0  0  0  0  0  0  0
    3.7248    0.2905   -2.8475 H   0  0  0  0  0  0  0  0  0  0  0  0
    2.0867    0.8802   -2.6839 H   0  0  0  0  0  0  0  0  0  0  0  0
    2.4828    1.4061   -0.2701 H   0  0  0  0  0  0  0  0  0  0  0  0
    3.7117    2.1474   -1.2955 H   0  0  0  0  0  0  0  0  0  0  0  0
  1  2  1  0
  2  3  1  0
  3  4  1  0
  4  5  1  0
  5  6  1  0
  6  7  1  0
  7  8  2  0
  8  9  1  0
  9 10  1  0
 10 11  1  0
 11 12  1  0
 11 13  1  0
  9 14  2  0
 14 15  1  0
 15 16  1  0
 16 17  2  0
 17 18  1  0
 18 19  2  0
 19 20  1  0
 20 21  1  0
 19 22  1  0
 22 23  2  0
 15 24  2  0
  6 25  1  0
 25 26  1  0
 26  3  1  0
 24  7  1  0
 23 16  1  0
  1 27  1  0
  1 28  1  0
  1 29  1  0
  2 30  1  0
  2 31  1  0
  4 32  1  0
  4 33  1  0
  5 34  1  0
  5 35  1  0
  8 36  1  0
 11 37  1  0
 12 38  1  0
 12 39  1  0
 12 40  1  0
 13 41  1  0
 13 42  1  0
 13 43  1  0
 17 44  1  0
 18 45  1  0
 21 46  1  0
 21 47  1  0
 21 48  1  0
 22 49  1  0
 23 50  1  0
 25 51  1  0
 25 52  1  0
 26 53  1  0
 26 54  1  0
M  END
$$$$
