
     RDKit          3D

 46 48  0  0  0  0  0  0  0  0999 V2000
    5.7853   -1.8527   -0.0319 C   0  0  0  0  0  0  0  0  0  0  0  0
    5.0267   -0.8578    0.8263 C   0  0  0  0  0  0  0  0  0  0  0  0
    3.8277   -0.4436    0.1570 O   0  0  0  0  0  0  0  0  0  0  0  0
    2.7248   -1.2339    0.3440 C   0  0  0  0  0  0  0  0  0  0  0  0
    2.7352   -2.2527    1.0292 O   0  0  0  0  0  0  0  0  0  0  0  0
    1.5102   -0.7016   -0.4349 C   0  0  0  0  0  0  0  0  0  0  0  0
    1.6867   -1.3249   -1.8421 C   0  0  0  0  0  0  0  0  0  0  0  0
    2.8337   -0.9340   -2.4496 F   0  0  0  0  0  0  0  0  0  0  0  0
    1.6841   -2.6787   -1.8278 F   0  0  0  0  0  0  0  0  0  0  0  0
    0.6711   -0.9453   -2.6677 F   0  0  0  0  0  0  0  0  0  0  0  0
    1.5560    0.7744   -0.4690 N   0  0  0  0  0  0  0  0  0  0  0  0
    0.4120    1.3298   -0.6267 C   0  0  0  0  0  0  0  0  0  0  0  0
    0.2400    2.7813   -0.8387 C   0  0  0  0  0  0  0  0  0  0  0  0
   -0.9973    3.3744   -1.1066 C   0  0  0  0  0  0  0  0  0  0  0  0
   -1.0718    4.7539   -1.2956 C   0  0  0  0  0  0  0  0  0  0  0  0
    0.0954    5.4958   -1.2106 C   0  0  0  0  0  0  0  0  0  0  0  0
    1.3064    4.9573   -0.9547 N   0  0  0  0  0  0  0  0  0  0  0  0
    1.3527    3.6126   -0.7762 C   0  0  0  0  0  0  0  0  0  0  0  0
   -0.7730    0.6976   -0.5980 O   0  0  0  0  0  0  0  0  0  0  0  0
   -0.7729   -0.5037    0.0204 C   0  0  0  0  0  0  0  0  0  0  0  0
   -2.0251   -0.9023    0.4341 N   0  0  0  0  0  0  0  0  0  0  0  0
   -2.1738   -2.1182    1.2426 C   0  0  0  0  0  0  0  0  0  0  0  0
   -3.3952   -2.0166    2.1506 C   0  0  0  0  0  0  0  0  0  0  0  0
   -4.6843   -1.8176    1.3575 C   0  0  0  0  0  0  0  0  0  0  0  0
   -4.4450   -1.1318    0.0152 C   0  0  0  0  0  0  0  0  0  0  0  0
   -3.2466   -0.1891    0.0582 C   0  0  0  0  0  0  0  0  0  0  0  0
    0.2903   -1.1889    0.2238 N   0  0  0  0  0  0  0  0  0  0  0  0
    6.7310   -2.1314    0.4414 H   0  0  0  0  0  0  0  0  0  0  0  0
    5.9956   -1.4269   -1.0186 H   0  0  0  0  0  0  0  0  0  0  0  0
    5.1958   -2.7601   -0.1965 H   0  0  0  0  0  0  0  0  0  0  0  0
    5.6362    0.0396    0.9747 H   0  0  0  0  0  0  0  0  0  0  0  0
    4.8093   -1.2662    1.8198 H   0  0  0  0  0  0  0  0  0  0  0  0
   -1.9049    2.7822   -1.1759 H   0  0  0  0  0  0  0  0  0  0  0  0
   -2.0185    5.2396   -1.5065 H   0  0  0  0  0  0  0  0  0  0  0  0
    0.0876    6.5733   -1.3509 H   0  0  0  0  0  0  0  0  0  0  0  0
    2.3465    3.2196   -0.5740 H   0  0  0  0  0  0  0  0  0  0  0  0
   -1.2941   -2.2721    1.8787 H   0  0  0  0  0  0  0  0  0  0  0  0
   -2.2576   -2.9882    0.5806 H   0  0  0  0  0  0  0  0  0  0  0  0
   -3.2631   -1.1672    2.8336 H   0  0  0  0  0  0  0  0  0  0  0  0
   -3.4802   -2.9113    2.7775 H   0  0  0  0  0  0  0  0  0  0  0  0
   -5.1694   -2.7849    1.1804 H   0  0  0  0  0  0  0  0  0  0  0  0
   -5.3853   -1.2283    1.9608 H   0  0  0  0  0  0  0  0  0  0  0  0
   -5.3466   -0.5883   -0.2891 H   0  0  0  0  0  0  0  0  0  0  0  0
   -4.2693   -1.8988   -0.7504 H   0  0  0  0  0  0  0  0  0  0  0  0
   -3.4253    0.6238    0.7718 H   0  0  0  0  0  0  0  0  0  0  0  0
   -3.1415    0.2619   -0.9355 H   0  0  0  0  0  0  0  0  0  0  0  0
  1  2  1  0
  2  3  1  0
  3  4  1  0
  4  5  2  0
  4  6  1  0
  6  7  1  0
  7  8  1  0
  7  9  1  0
  7 10  1  0
  6 11  1  0
 11 12  2  0
 12 13  1  0
 13 14  2  0
 14 15  1  0
 15 16  2  0
 16 17  1  0
 17 18  2  0
 12 19  1  0
 19 20  1  0
 20 21  1  0
 21 22  1  0
 22 23  1  0
 23 24  1  0
 24 25  1  0
 25 26  1  0
 20 27  2  0
 27  6  1  0
 18 13  1  0
 26 21  1  0
  1 28  1  0
  1 29  1  0
  1 30  1  0
  2 31  1  0
  2 32  1  0
 14 33  1  0
 15 34  1  0
 16 35  1  0
 18 36  1  0
 22 37  1  0
 22 38  1  0
 23 39  1  0
 23 40  1  0
 24 41  1  0
 24 42  1  0
 25 43  1  0
 25 44  1  0
 26 45  1  0
 26 46  1  0
M  END
$$$$
