
     RDKit          3D

 55 57  0  0  0  0  0  0  0  0999 V2000
    0.3395    3.5422   -1.2049 C   0  0  0  0  0  0  0  0  0  0  0  0
    0.4752    3.3653    0.3074 C   0  0  0  0  0  0  0  0  0  0  0  0
   -0.7605    3.9045    1.0259 C   0  0  0  0  0  0  0  0  0  0  0  0
    0.8487    1.9243    0.7190 C   0  0  0  0  0  0  0  0  0  0  0  0
   -0.0200    0.7617    0.1831 C   0  0  0  0  0  0  0  0  0  0  0  0
    0.6205   -0.6106    0.3731 C   0  0  0  0  0  0  0  0  0  0  0  0
    0.3105   -1.6106   -0.2721 O   0  0  0  0  0  0  0  0  0  0  0  0
    1.5926   -0.6196    1.3255 O   0  0  0  0  0  0  0  0  0  0  0  0
    2.1671   -1.8950    1.6159 C   0  0  0  0  0  0  0  0  0  0  0  0
    3.2874   -2.2891    0.6480 C   0  0  0  0  0  0  0  0  0  0  0  0
    4.4611   -2.2704    1.0079 O   0  0  0  0  0  0  0  0  0  0  0  0
    2.8202   -2.6426   -0.6050 N   0  0  0  0  0  0  0  0  0  0  0  0
    3.5747   -3.0204   -1.7337 C   0  0  0  0  0  0  0  0  0  0  0  0
    2.8707   -3.2304   -2.9283 C   0  0  0  0  0  0  0  0  0  0  0  0
    3.5417   -3.5906   -4.0999 C   0  0  0  0  0  0  0  0  0  0  0  0
    4.9256   -3.7503   -4.0866 C   0  0  0  0  0  0  0  0  0  0  0  0
    5.6268   -3.5508   -2.9003 C   0  0  0  0  0  0  0  0  0  0  0  0
    7.3395   -3.7508   -2.8854 Cl  0  0  0  0  0  0  0  0  0  0  0  0
    4.9608   -3.1883   -1.7267 C   0  0  0  0  0  0  0  0  0  0  0  0
   -1.3873    0.7252    0.6874 N   0  0  0  0  0  0  0  0  0  0  0  0
   -1.7510    0.5399    2.0037 C   0  0  0  0  0  0  0  0  0  0  0  0
   -0.8331    0.3777    2.9461 O   0  0  0  0  0  0  0  0  0  0  0  0
   -3.1284    0.5663    2.0698 C   0  0  0  0  0  0  0  0  0  0  0  0
   -3.6156    0.7369    0.7386 C   0  0  0  0  0  0  0  0  0  0  0  0
   -2.5184    0.8158   -0.0951 C   0  0  0  0  0  0  0  0  0  0  0  0
   -2.4276    0.9629   -1.4134 O   0  0  0  0  0  0  0  0  0  0  0  0
   -5.0706    0.8069    0.4045 C   0  0  0  0  0  0  0  0  0  0  0  0
   -5.9477    0.6761    1.6263 C   0  0  0  0  0  0  0  0  0  0  0  0
   -5.4888    0.5159    2.8811 C   0  0  0  0  0  0  0  0  0  0  0  0
   -4.0273    0.4416    3.2567 C   0  0  0  0  0  0  0  0  0  0  0  0
    1.2137    3.1356   -1.7288 H   0  0  0  0  0  0  0  0  0  0  0  0
   -0.5566    3.0449   -1.5933 H   0  0  0  0  0  0  0  0  0  0  0  0
    0.2618    4.6053   -1.4592 H   0  0  0  0  0  0  0  0  0  0  0  0
    1.3177    3.9957    0.6261 H   0  0  0  0  0  0  0  0  0  0  0  0
   -0.7135    3.7014    2.0983 H   0  0  0  0  0  0  0  0  0  0  0  0
   -1.6857    3.4801    0.6314 H   0  0  0  0  0  0  0  0  0  0  0  0
   -0.8275    4.9903    0.8985 H   0  0  0  0  0  0  0  0  0  0  0  0
    0.9144    1.8830    1.8134 H   0  0  0  0  0  0  0  0  0  0  0  0
    1.8762    1.7565    0.3645 H   0  0  0  0  0  0  0  0  0  0  0  0
   -0.0666    0.8786   -0.9061 H   0  0  0  0  0  0  0  0  0  0  0  0
    2.5960   -1.8361    2.6224 H   0  0  0  0  0  0  0  0  0  0  0  0
    1.4056   -2.6838    1.6510 H   0  0  0  0  0  0  0  0  0  0  0  0
    1.8112   -2.5621   -0.7430 H   0  0  0  0  0  0  0  0  0  0  0  0
    1.7892   -3.1078   -2.9632 H   0  0  0  0  0  0  0  0  0  0  0  0
    2.9863   -3.7433   -5.0214 H   0  0  0  0  0  0  0  0  0  0  0  0
    5.4499   -4.0292   -4.9970 H   0  0  0  0  0  0  0  0  0  0  0  0
    5.5449   -3.0465   -0.8236 H   0  0  0  0  0  0  0  0  0  0  0  0
   -1.3006    0.2798    3.7947 H   0  0  0  0  0  0  0  0  0  0  0  0
   -3.3331    0.9600   -1.7700 H   0  0  0  0  0  0  0  0  0  0  0  0
   -5.3233    0.0074   -0.3004 H   0  0  0  0  0  0  0  0  0  0  0  0
   -5.2862    1.7645   -0.0843 H   0  0  0  0  0  0  0  0  0  0  0  0
   -7.0203    0.7173    1.4533 H   0  0  0  0  0  0  0  0  0  0  0  0
   -6.1989    0.4327    3.6976 H   0  0  0  0  0  0  0  0  0  0  0  0
   -3.8372   -0.5135    3.7607 H   0  0  0  0  0  0  0  0  0  0  0  0
   -3.8035    1.2453    3.9663 H   0  0  0  0  0  0  0  0  0  0  0  0
  1  2  1  0
  2  3  1  0
  2  4  1  0
  4  5  1  0
  5  6  1  0
  6  7  2  0
  6  8  1  0
  8  9  1  0
  9 10  1  0
 10 11  2  0
 10 12  1  0
 12 13  1  0
 13 14  2  0
 14 15  1  0
 15 16  2  0
 16 17  1  0
 17 18  1  0
 17 19  2  0
  5 20  1  0
 20 21  1  0
 21 22  1  0
 21 23  2  0
 23 24  1  0
 24 25  2  0
 25 26  1  0
 24 27  1  0
 27 28  1  0
 28 29  2  0
 29 30  1  0
 19 13  1  0
 25 20  1  0
 30 23  1  0
  1 31  1  0
  1 32  1  0
  1 33  1  0
  2 34  1  0
  3 35  1  0
  3 36  1  0
  3 37  1  0
  4 38  1  0
  4 39  1  0
  5 40  1  0
  9 41  1  0
  9 42  1  0
 12 43  1  0
 14 44  1  0
 15 45  1  0
 16 46  1  0
 19 47  1  0
 22 48  1  0
 26 49  1  0
 27 50  1  0
 27 51  1  0
 28 52  1  0
 29 53  1  0
 30 54  1  0
 30 55  1  0
M  END
$$$$
