
     RDKit          3D

 56 59  0  0  0  0  0  0  0  0999 V2000
   -3.3786    5.0501    0.8467 C   0  0  0  0  0  0  0  0  0  0  0  0
   -3.3306    3.5349    0.9708 C   0  0  0  0  0  0  0  0  0  0  0  0
   -2.0036    2.9989    0.6724 N   0  0  0  0  0  0  0  0  0  0  0  0
   -1.6589    2.7928   -0.7426 C   0  0  0  0  0  0  0  0  0  0  0  0
   -1.6892    1.3035   -1.1205 C   0  0  0  0  0  0  0  0  0  0  0  0
   -1.0323    0.9514   -2.1811 N   0  0  0  0  0  0  0  0  0  0  0  0
   -1.0022   -0.3785   -2.5418 C   0  0  0  0  0  0  0  0  0  0  0  0
   -0.3927   -0.7737   -3.5300 O   0  0  0  0  0  0  0  0  0  0  0  0
   -1.7169   -1.3835   -1.7083 C   0  0  0  0  0  0  0  0  0  0  0  0
   -1.7074   -2.7443   -2.0354 C   0  0  0  0  0  0  0  0  0  0  0  0
   -2.3979   -3.6490   -1.2272 C   0  0  0  0  0  0  0  0  0  0  0  0
   -3.0926   -3.1852   -0.1096 C   0  0  0  0  0  0  0  0  0  0  0  0
   -3.9804   -4.2971    0.8680 Cl  0  0  0  0  0  0  0  0  0  0  0  0
   -3.0943   -1.8267    0.2197 C   0  0  0  0  0  0  0  0  0  0  0  0
   -2.3957   -0.9188   -0.5756 C   0  0  0  0  0  0  0  0  0  0  0  0
   -2.4091    0.4505   -0.3173 N   0  0  0  0  0  0  0  0  0  0  0  0
   -1.0687    2.9451    1.7105 C   0  0  0  0  0  0  0  0  0  0  0  0
   -1.3220    3.2257    2.8799 O   0  0  0  0  0  0  0  0  0  0  0  0
    0.2994    2.5018    1.3924 C   0  0  0  0  0  0  0  0  0  0  0  0
    1.2946    3.4537    1.1761 C   0  0  0  0  0  0  0  0  0  0  0  0
    2.5794    3.0279    0.8430 C   0  0  0  0  0  0  0  0  0  0  0  0
    2.8606    1.6618    0.7219 C   0  0  0  0  0  0  0  0  0  0  0  0
    1.8584    0.7127    0.9471 C   0  0  0  0  0  0  0  0  0  0  0  0
    1.9967   -0.6451    0.8537 O   0  0  0  0  0  0  0  0  0  0  0  0
    3.1515   -1.1292    0.1657 C   0  0  0  0  0  0  0  0  0  0  0  0
    3.0340   -2.5927   -0.0560 C   0  0  0  0  0  0  0  0  0  0  0  0
    3.2487   -3.6345    0.8849 C   0  0  0  0  0  0  0  0  0  0  0  0
    3.6276   -3.5140    2.3105 C   0  0  0  0  0  0  0  0  0  0  0  0
    3.0659   -4.8405    0.3344 N   0  0  0  0  0  0  0  0  0  0  0  0
    2.7080   -4.6038   -0.9759 O   0  0  0  0  0  0  0  0  0  0  0  0
    2.6819   -3.2645   -1.2063 C   0  0  0  0  0  0  0  0  0  0  0  0
    2.3086   -2.8520   -2.5701 C   0  0  0  0  0  0  0  0  0  0  0  0
    0.5822    1.1370    1.3139 C   0  0  0  0  0  0  0  0  0  0  0  0
   -2.6332    5.5222    1.4947 H   0  0  0  0  0  0  0  0  0  0  0  0
   -4.3679    5.4231    1.1331 H   0  0  0  0  0  0  0  0  0  0  0  0
   -3.1802    5.3711   -0.1812 H   0  0  0  0  0  0  0  0  0  0  0  0
   -3.6092    3.2520    1.9921 H   0  0  0  0  0  0  0  0  0  0  0  0
   -4.0578    3.0685    0.2967 H   0  0  0  0  0  0  0  0  0  0  0  0
   -0.6659    3.1982   -0.9548 H   0  0  0  0  0  0  0  0  0  0  0  0
   -2.3782    3.3194   -1.3801 H   0  0  0  0  0  0  0  0  0  0  0  0
   -1.1692   -3.0991   -2.9079 H   0  0  0  0  0  0  0  0  0  0  0  0
   -2.3963   -4.7078   -1.4773 H   0  0  0  0  0  0  0  0  0  0  0  0
   -3.6450   -1.4867    1.0947 H   0  0  0  0  0  0  0  0  0  0  0  0
   -2.7695    0.7947    0.5639 H   0  0  0  0  0  0  0  0  0  0  0  0
    1.0711    4.5129    1.2644 H   0  0  0  0  0  0  0  0  0  0  0  0
    3.3665    3.7599    0.6742 H   0  0  0  0  0  0  0  0  0  0  0  0
    3.8751    1.3735    0.4631 H   0  0  0  0  0  0  0  0  0  0  0  0
    3.2597   -0.6227   -0.8014 H   0  0  0  0  0  0  0  0  0  0  0  0
    4.0455   -0.9308    0.7689 H   0  0  0  0  0  0  0  0  0  0  0  0
    3.7526   -4.4926    2.7865 H   0  0  0  0  0  0  0  0  0  0  0  0
    2.8579   -2.9633    2.8626 H   0  0  0  0  0  0  0  0  0  0  0  0
    4.5720   -2.9712    2.4042 H   0  0  0  0  0  0  0  0  0  0  0  0
    1.4589   -3.4362   -2.9308 H   0  0  0  0  0  0  0  0  0  0  0  0
    2.0292   -1.7966   -2.5998 H   0  0  0  0  0  0  0  0  0  0  0  0
    3.1476   -3.0040   -3.2557 H   0  0  0  0  0  0  0  0  0  0  0  0
   -0.1881    0.4004    1.5235 H   0  0  0  0  0  0  0  0  0  0  0  0
  1  2  1  0
  2  3  1  0
  3  4  1  0
  4  5  1  0
  5  6  2  0
  6  7  1  0
  7  8  2  0
  7  9  1  0
  9 10  2  0
 10 11  1  0
 11 12  2  0
 12 13  1  0
 12 14  1  0
 14 15  2  0
 15 16  1  0
  3 17  1  0
 17 18  2  0
 17 19  1  0
 19 20  2  0
 20 21  1  0
 21 22  2  0
 22 23  1  0
 23 24  1  0
 24 25  1  0
 25 26  1  0
 26 27  1  0
 27 28  1  0
 27 29  2  0
 29 30  1  0
 30 31  1  0
 31 32  1  0
 23 33  2  0
 16  5  1  0
 33 19  1  0
 15  9  1  0
 31 26  2  0
  1 34  1  0
  1 35  1  0
  1 36  1  0
  2 37  1  0
  2 38  1  0
  4 39  1  0
  4 40  1  0
 10 41  1  0
 11 42  1  0
 14 43  1  0
 16 44  1  0
 20 45  1  0
 21 46  1  0
 22 47  1  0
 25 48  1  0
 25 49  1  0
 28 50  1  0
 28 51  1  0
 28 52  1  0
 32 53  1  0
 32 54  1  0
 32 55  1  0
 33 56  1  0
M  END
$$$$
