
     RDKit          3D

 50 52  0  0  0  0  0  0  0  0999 V2000
    0.7456    0.5966   -2.9627 O   0  0  0  0  0  0  0  0  0  0  0  0
    1.8033   -0.0044   -2.9324 C   0  0  0  0  0  0  0  0  0  0  0  0
    2.1762   -0.8355   -3.9185 O   0  0  0  0  0  0  0  0  0  0  0  0
    2.8089    0.0830   -1.8471 C   0  0  0  0  0  0  0  0  0  0  0  0
    2.5203    0.9060   -0.7537 C   0  0  0  0  0  0  0  0  0  0  0  0
    3.4160    0.9958    0.3109 C   0  0  0  0  0  0  0  0  0  0  0  0
    3.0528    1.7616    1.4536 N   0  0  0  0  0  0  0  0  0  0  0  0
    2.2460    0.9624    2.7135 S   0  0  0  0  0  6  0  0  0  0  0  0
    2.1428    1.9119    3.7997 O   0  0  0  0  0  0  0  0  0  0  0  0
    2.8460   -0.3392    2.9074 O   0  0  0  0  0  0  0  0  0  0  0  0
    0.6215    0.7385    2.0367 C   0  0  0  0  0  0  0  0  0  0  0  0
   -0.2882    1.7981    2.0468 C   0  0  0  0  0  0  0  0  0  0  0  0
   -1.5368    1.6383    1.4351 C   0  0  0  0  0  0  0  0  0  0  0  0
   -1.9051    0.4346    0.8034 C   0  0  0  0  0  0  0  0  0  0  0  0
   -3.1354    0.4229    0.1530 N   0  0  0  0  0  0  0  0  0  0  0  0
   -4.2616   -0.1890    0.8749 C   0  0  0  0  0  0  0  0  0  0  0  0
   -5.1148   -1.0579   -0.0495 C   0  0  0  0  0  0  0  0  0  0  0  0
   -5.5725   -0.3013   -1.2962 C   0  0  0  0  0  0  0  0  0  0  0  0
   -4.5103    0.6614   -1.8399 C   0  0  0  0  0  0  0  0  0  0  0  0
   -3.1149    0.3335   -1.3125 C   0  0  0  0  0  0  0  0  0  0  0  0
   -0.9764   -0.6203    0.8600 C   0  0  0  0  0  0  0  0  0  0  0  0
   -1.2661   -1.9046    0.2606 N   0  0  0  0  0  4  0  0  0  0  0  0
   -0.6081   -2.2111   -0.7476 O   0  0  0  0  0  0  0  0  0  0  0  0
   -2.0985   -2.6261    0.8285 O   0  0  0  0  0  1  0  0  0  0  0  0
    0.2775   -0.4909    1.4737 C   0  0  0  0  0  0  0  0  0  0  0  0
    4.6112    0.2811    0.2911 C   0  0  0  0  0  0  0  0  0  0  0  0
    4.9142   -0.5312   -0.8095 C   0  0  0  0  0  0  0  0  0  0  0  0
    6.1707   -1.3150   -0.8788 C   0  0  0  0  0  0  0  0  0  0  0  0
    6.5035   -2.0489   -1.7912 O   0  0  0  0  0  0  0  0  0  0  0  0
    6.9527   -1.1372    0.1996 O   0  0  0  0  0  0  0  0  0  0  0  0
    4.0107   -0.6331   -1.8774 C   0  0  0  0  0  0  0  0  0  0  0  0
    1.4214   -0.8253   -4.5430 H   0  0  0  0  0  0  0  0  0  0  0  0
    1.5924    1.4735   -0.7356 H   0  0  0  0  0  0  0  0  0  0  0  0
    3.7387    2.4189    1.8280 H   0  0  0  0  0  0  0  0  0  0  0  0
   -0.0304    2.7539    2.5010 H   0  0  0  0  0  0  0  0  0  0  0  0
   -2.2311    2.4797    1.4200 H   0  0  0  0  0  0  0  0  0  0  0  0
   -4.8799    0.6187    1.2874 H   0  0  0  0  0  0  0  0  0  0  0  0
   -3.9227   -0.7904    1.7269 H   0  0  0  0  0  0  0  0  0  0  0  0
   -4.5323   -1.9346   -0.3620 H   0  0  0  0  0  0  0  0  0  0  0  0
   -5.9879   -1.4432    0.4919 H   0  0  0  0  0  0  0  0  0  0  0  0
   -6.4867    0.2659   -1.0737 H   0  0  0  0  0  0  0  0  0  0  0  0
   -5.8466   -1.0299   -2.0723 H   0  0  0  0  0  0  0  0  0  0  0  0
   -4.5159    0.6432   -2.9364 H   0  0  0  0  0  0  0  0  0  0  0  0
   -4.7757    1.6863   -1.5408 H   0  0  0  0  0  0  0  0  0  0  0  0
   -2.8119   -0.6650   -1.6536 H   0  0  0  0  0  0  0  0  0  0  0  0
   -2.3989    1.0582   -1.7240 H   0  0  0  0  0  0  0  0  0  0  0  0
    0.9788   -1.3247    1.4808 H   0  0  0  0  0  0  0  0  0  0  0  0
    5.2918    0.3364    1.1377 H   0  0  0  0  0  0  0  0  0  0  0  0
    7.7198   -1.7240    0.0344 H   0  0  0  0  0  0  0  0  0  0  0  0
    4.2463   -1.2776   -2.7234 H   0  0  0  0  0  0  0  0  0  0  0  0
  1  2  2  0
  2  3  1  0
  2  4  1  0
  4  5  2  0
  5  6  1  0
  6  7  1  0
  7  8  1  0
  8  9  2  0
  8 10  2  0
  8 11  1  0
 11 12  2  0
 12 13  1  0
 13 14  2  0
 14 15  1  0
 15 16  1  0
 16 17  1  0
 17 18  1  0
 18 19  1  0
 19 20  1  0
 14 21  1  0
 21 22  1  0
 22 23  2  0
 22 24  1  0
 21 25  2  0
  6 26  2  0
 26 27  1  0
 27 28  1  0
 28 29  2  0
 28 30  1  0
 27 31  2  0
 31  4  1  0
 25 11  1  0
 20 15  1  0
  3 32  1  0
  5 33  1  0
  7 34  1  0
 12 35  1  0
 13 36  1  0
 16 37  1  0
 16 38  1  0
 17 39  1  0
 17 40  1  0
 18 41  1  0
 18 42  1  0
 19 43  1  0
 19 44  1  0
 20 45  1  0
 20 46  1  0
 25 47  1  0
 26 48  1  0
 30 49  1  0
 31 50  1  0
M  CHG  2  22   1  24  -1
M  END
$$$$
