
     RDKit          3D

 43 45  0  0  0  0  0  0  0  0999 V2000
   -2.4605    2.2200   -2.6301 C   0  0  0  0  0  0  0  0  0  0  0  0
   -2.6477    0.7147   -2.6959 C   0  0  0  0  0  0  0  0  0  0  0  0
   -3.6646    0.1936   -1.6772 C   0  0  0  0  0  0  0  0  0  0  0  0
   -3.2098    0.2678   -0.2164 C   0  0  0  0  0  0  0  0  0  0  0  0
   -2.2955   -0.8113    0.1716 N   0  0  0  0  0  0  0  0  0  0  0  0
   -2.7391   -2.0750    0.6122 C   0  0  0  0  0  0  0  0  0  0  0  0
   -4.2003   -2.8220    0.3995 S   0  0  0  0  0  0  0  0  0  0  0  0
   -1.7150   -2.6685    1.3305 N   0  0  0  0  0  0  0  0  0  0  0  0
   -0.5206   -1.8753    1.3041 C   0  0  0  0  0  0  0  0  0  0  0  0
   -1.0068   -0.5055    0.8131 C   0  0  0  0  0  0  0  0  0  0  0  0
    0.0011    0.1940   -0.1109 C   0  0  0  0  0  0  0  0  0  0  0  0
    1.2451    0.6673    0.6165 C   0  0  0  0  0  0  0  0  0  0  0  0
    1.1249    1.8516    1.3680 C   0  0  0  0  0  0  0  0  0  0  0  0
    2.2054    2.3601    2.0765 C   0  0  0  0  0  0  0  0  0  0  0  0
    3.4245    1.6914    2.0493 C   0  0  0  0  0  0  0  0  0  0  0  0
    3.5828    0.5094    1.3141 C   0  0  0  0  0  0  0  0  0  0  0  0
    4.8276   -0.1414    1.3029 C   0  0  0  0  0  0  0  0  0  0  0  0
    5.0215   -1.3173    0.5822 C   0  0  0  0  0  0  0  0  0  0  0  0
    3.9735   -1.8528   -0.1446 C   0  0  0  0  0  0  0  0  0  0  0  0
    2.7293   -1.2123   -0.1507 C   0  0  0  0  0  0  0  0  0  0  0  0
    2.4924   -0.0226    0.5791 C   0  0  0  0  0  0  0  0  0  0  0  0
   -1.7830    2.5513   -3.4286 H   0  0  0  0  0  0  0  0  0  0  0  0
   -3.4187    2.7347   -2.7680 H   0  0  0  0  0  0  0  0  0  0  0  0
   -2.0333    2.5383   -1.6732 H   0  0  0  0  0  0  0  0  0  0  0  0
   -3.0133    0.4678   -3.6995 H   0  0  0  0  0  0  0  0  0  0  0  0
   -1.6878    0.2085   -2.5759 H   0  0  0  0  0  0  0  0  0  0  0  0
   -3.9188   -0.8391   -1.9442 H   0  0  0  0  0  0  0  0  0  0  0  0
   -4.5886    0.7783   -1.7802 H   0  0  0  0  0  0  0  0  0  0  0  0
   -2.7394    1.2313    0.0017 H   0  0  0  0  0  0  0  0  0  0  0  0
   -4.0904    0.2055    0.4329 H   0  0  0  0  0  0  0  0  0  0  0  0
   -1.7904   -3.6148    1.6854 H   0  0  0  0  0  0  0  0  0  0  0  0
   -0.0735   -1.8378    2.3018 H   0  0  0  0  0  0  0  0  0  0  0  0
    0.1634   -2.3645    0.6070 H   0  0  0  0  0  0  0  0  0  0  0  0
   -1.2429    0.1217    1.6880 H   0  0  0  0  0  0  0  0  0  0  0  0
    0.2448   -0.4382   -0.9680 H   0  0  0  0  0  0  0  0  0  0  0  0
   -0.4613    1.0817   -0.5591 H   0  0  0  0  0  0  0  0  0  0  0  0
    0.1806    2.3933    1.3934 H   0  0  0  0  0  0  0  0  0  0  0  0
    2.0983    3.2813    2.6419 H   0  0  0  0  0  0  0  0  0  0  0  0
    4.2581    2.1064    2.6075 H   0  0  0  0  0  0  0  0  0  0  0  0
    5.6665    0.2674    1.8594 H   0  0  0  0  0  0  0  0  0  0  0  0
    5.9917   -1.8065    0.5778 H   0  0  0  0  0  0  0  0  0  0  0  0
    4.1190   -2.7668   -0.7120 H   0  0  0  0  0  0  0  0  0  0  0  0
    1.9508   -1.6659   -0.7515 H   0  0  0  0  0  0  0  0  0  0  0  0
  1  2  1  0
  2  3  1  0
  3  4  1  0
  4  5  1  0
  5  6  1  0
  6  7  2  0
  6  8  1  0
  8  9  1  0
  9 10  1  0
 10 11  1  0
 11 12  1  0
 12 13  2  0
 13 14  1  0
 14 15  2  0
 15 16  1  0
 16 17  2  0
 17 18  1  0
 18 19  2  0
 19 20  1  0
 20 21  2  0
 10  5  1  0
 21 12  1  0
 21 16  1  0
  1 22  1  0
  1 23  1  0
  1 24  1  0
  2 25  1  0
  2 26  1  0
  3 27  1  0
  3 28  1  0
  4 29  1  0
  4 30  1  0
  8 31  1  0
  9 32  1  0
  9 33  1  0
 10 34  1  0
 11 35  1  0
 11 36  1  0
 13 37  1  0
 14 38  1  0
 15 39  1  0
 17 40  1  0
 18 41  1  0
 19 42  1  0
 20 43  1  0
M  END
$$$$
