
     RDKit          3D

 55 59  0  0  0  0  0  0  0  0999 V2000
   -8.3310    0.6135   -2.4274 C   0  0  0  0  0  0  0  0  0  0  0  0
   -7.1854    0.4671   -1.4725 C   0  0  0  0  0  0  0  0  0  0  0  0
   -6.3807   -0.6766   -1.5200 C   0  0  0  0  0  0  0  0  0  0  0  0
   -5.3063   -0.8259   -0.6397 C   0  0  0  0  0  0  0  0  0  0  0  0
   -5.0196    0.1650    0.3097 C   0  0  0  0  0  0  0  0  0  0  0  0
   -3.8481    0.0103    1.2478 C   0  0  0  0  0  0  0  0  0  0  0  0
   -2.3441    0.7437    0.5523 S   0  0  0  0  0  0  0  0  0  0  0  0
   -1.1498    0.0891    1.6650 C   0  0  0  0  0  0  0  0  0  0  0  0
   -1.5139   -0.0600    2.9107 N   0  0  0  0  0  0  0  0  0  0  0  0
   -0.5997   -0.5732    3.8582 C   0  0  0  0  0  0  0  0  0  0  0  0
   -1.0195   -0.7485    5.1779 C   0  0  0  0  0  0  0  0  0  0  0  0
   -0.1432   -1.2619    6.1372 C   0  0  0  0  0  0  0  0  0  0  0  0
    1.1622   -1.6057    5.7829 C   0  0  0  0  0  0  0  0  0  0  0  0
    1.5956   -1.4350    4.4683 C   0  0  0  0  0  0  0  0  0  0  0  0
    0.7163   -0.9214    3.5114 C   0  0  0  0  0  0  0  0  0  0  0  0
    1.0909   -0.7383    2.1226 C   0  0  0  0  0  0  0  0  0  0  0  0
    2.2430   -0.9942    1.5393 N   0  0  0  0  0  0  0  0  0  0  0  0
    2.0612   -0.6722    0.2125 C   0  0  0  0  0  0  0  0  0  0  0  0
    3.1720   -0.9196   -0.7506 C   0  0  0  0  0  0  0  0  0  0  0  0
    3.3326    0.2030   -1.7626 C   0  0  0  0  0  0  0  0  0  0  0  0
    2.4024    0.5728   -2.4793 O   0  0  0  0  0  0  0  0  0  0  0  0
    4.5968    0.7457   -1.8260 N   0  0  0  0  0  0  0  0  0  0  0  0
    4.8751    1.8977   -2.6622 C   0  0  0  0  0  0  0  0  0  0  0  0
    6.2476    1.8063   -3.2223 C   0  0  0  0  0  0  0  0  0  0  0  0
    7.3426    0.9914   -3.0059 C   0  0  0  0  0  0  0  0  0  0  0  0
    8.3533    1.4243   -3.9001 C   0  0  0  0  0  0  0  0  0  0  0  0
    7.8189    2.4779   -4.6005 C   0  0  0  0  0  0  0  0  0  0  0  0
    6.5454    2.7200   -4.1934 O   0  0  0  0  0  0  0  0  0  0  0  0
    0.7752   -0.1974   -0.0001 C   0  0  0  0  0  0  0  0  0  0  0  0
    0.1624    0.2312   -1.0988 O   0  0  0  0  0  0  0  0  0  0  0  0
    0.1506   -0.2465    1.2365 N   0  0  0  0  0  0  0  0  0  0  0  0
   -5.8224    1.3140    0.3509 C   0  0  0  0  0  0  0  0  0  0  0  0
   -6.8970    1.4621   -0.5306 C   0  0  0  0  0  0  0  0  0  0  0  0
   -8.8573    1.5614   -2.2798 H   0  0  0  0  0  0  0  0  0  0  0  0
   -9.0501   -0.1964   -2.2798 H   0  0  0  0  0  0  0  0  0  0  0  0
   -7.9672    0.5887   -3.4603 H   0  0  0  0  0  0  0  0  0  0  0  0
   -6.5823   -1.4572   -2.2489 H   0  0  0  0  0  0  0  0  0  0  0  0
   -4.6883   -1.7198   -0.7041 H   0  0  0  0  0  0  0  0  0  0  0  0
   -3.6843   -1.0543    1.4491 H   0  0  0  0  0  0  0  0  0  0  0  0
   -4.0828    0.4887    2.2053 H   0  0  0  0  0  0  0  0  0  0  0  0
   -2.0368   -0.4874    5.4572 H   0  0  0  0  0  0  0  0  0  0  0  0
   -0.4816   -1.4002    7.1611 H   0  0  0  0  0  0  0  0  0  0  0  0
    1.8383   -2.0174    6.5279 H   0  0  0  0  0  0  0  0  0  0  0  0
    2.6098   -1.7097    4.1892 H   0  0  0  0  0  0  0  0  0  0  0  0
    4.1068   -1.0632   -0.1992 H   0  0  0  0  0  0  0  0  0  0  0  0
    2.9808   -1.8443   -1.3060 H   0  0  0  0  0  0  0  0  0  0  0  0
    5.2301    0.5799   -1.0536 H   0  0  0  0  0  0  0  0  0  0  0  0
    4.1410    1.9728   -3.4723 H   0  0  0  0  0  0  0  0  0  0  0  0
    4.7856    2.7871   -2.0259 H   0  0  0  0  0  0  0  0  0  0  0  0
    7.4036    0.1717   -2.3043 H   0  0  0  0  0  0  0  0  0  0  0  0
    9.3439    1.0117   -4.0307 H   0  0  0  0  0  0  0  0  0  0  0  0
    8.1910    3.1231   -5.3838 H   0  0  0  0  0  0  0  0  0  0  0  0
    0.8273    0.3424   -1.8185 H   0  0  0  0  0  0  0  0  0  0  0  0
   -5.6093    2.1066    1.0651 H   0  0  0  0  0  0  0  0  0  0  0  0
   -7.5017    2.3660   -0.4788 H   0  0  0  0  0  0  0  0  0  0  0  0
  1  2  1  0
  2  3  2  0
  3  4  1  0
  4  5  2  0
  5  6  1  0
  6  7  1  0
  7  8  1  0
  8  9  2  0
  9 10  1  0
 10 11  2  0
 11 12  1  0
 12 13  2  0
 13 14  1  0
 14 15  2  0
 15 16  1  0
 16 17  2  0
 17 18  1  0
 18 19  1  0
 19 20  1  0
 20 21  2  0
 20 22  1  0
 22 23  1  0
 23 24  1  0
 24 25  2  0
 25 26  1  0
 26 27  2  0
 27 28  1  0
 18 29  2  0
 29 30  1  0
 29 31  1  0
  5 32  1  0
 32 33  2  0
 33  2  1  0
 31  8  1  0
 15 10  1  0
 31 16  1  0
 28 24  1  0
  1 34  1  0
  1 35  1  0
  1 36  1  0
  3 37  1  0
  4 38  1  0
  6 39  1  0
  6 40  1  0
 11 41  1  0
 12 42  1  0
 13 43  1  0
 14 44  1  0
 19 45  1  0
 19 46  1  0
 22 47  1  0
 23 48  1  0
 23 49  1  0
 25 50  1  0
 26 51  1  0
 27 52  1  0
 30 53  1  0
 32 54  1  0
 33 55  1  0
M  END
$$$$
