
     RDKit          3D

 51 53  0  0  0  0  0  0  0  0999 V2000
    9.2398    0.1783   -0.5882 C   0  0  0  0  0  0  0  0  0  0  0  0
    8.3441    1.2352   -0.2634 O   0  0  0  0  0  0  0  0  0  0  0  0
    6.9741    0.8579   -0.4181 C   0  0  0  0  0  0  0  0  0  0  0  0
    6.4510    0.1321    0.8251 C   0  0  0  0  0  0  0  0  0  0  0  0
    5.0240   -0.1149    0.7787 N   0  0  0  0  0  0  0  0  0  0  0  0
    4.4885   -1.1092   -0.0181 C   0  0  0  0  0  0  0  0  0  0  0  0
    5.2026   -1.7978   -0.7430 O   0  0  0  0  0  0  0  0  0  0  0  0
    3.0477   -1.2732    0.1130 C   0  0  0  0  0  0  0  0  0  0  0  0
    2.4317   -2.8736    0.1292 S   0  0  0  0  0  0  0  0  0  0  0  0
    0.8374   -2.3408    0.3730 C   0  0  0  0  0  0  0  0  0  0  0  0
   -0.1888   -3.2198    0.4931 N   0  0  0  0  0  0  0  0  0  0  0  0
   -1.3458   -2.6661    0.6627 C   0  0  0  0  0  0  0  0  0  0  0  0
   -1.5828   -1.3093    0.7655 N   0  0  0  0  0  0  0  0  0  0  0  0
   -2.9419   -0.8205    0.9446 C   0  0  0  0  0  0  0  0  0  0  0  0
   -3.6121   -0.5880   -0.4158 C   0  0  0  0  0  0  0  0  0  0  0  0
   -3.0890   -0.9938   -1.4563 O   0  0  0  0  0  0  0  0  0  0  0  0
   -4.8434    0.0743   -0.4158 N   0  0  0  0  0  0  0  0  0  0  0  0
   -5.6903    0.1892    0.7734 C   0  0  0  0  0  0  0  0  0  0  0  0
   -6.5828    1.4256    0.7305 C   0  0  0  0  0  0  0  0  0  0  0  0
   -7.3706    1.4992   -0.5722 C   0  0  0  0  0  0  0  0  0  0  0  0
   -6.4241    1.4332   -1.7653 C   0  0  0  0  0  0  0  0  0  0  0  0
   -5.5328    0.1970   -1.7018 C   0  0  0  0  0  0  0  0  0  0  0  0
   -0.5571   -0.3774    0.6332 C   0  0  0  0  0  0  0  0  0  0  0  0
   -0.7306    0.8354    0.7269 O   0  0  0  0  0  0  0  0  0  0  0  0
    0.7571   -0.9669    0.4163 C   0  0  0  0  0  0  0  0  0  0  0  0
    2.0350   -0.3236    0.2221 C   0  0  0  0  0  0  0  0  0  0  0  0
    2.2116    1.1606    0.1346 C   0  0  0  0  0  0  0  0  0  0  0  0
    9.0962   -0.6769    0.0777 H   0  0  0  0  0  0  0  0  0  0  0  0
    9.1084   -0.1275   -1.6308 H   0  0  0  0  0  0  0  0  0  0  0  0
   10.2615    0.5461   -0.4622 H   0  0  0  0  0  0  0  0  0  0  0  0
    6.4052    1.7843   -0.5555 H   0  0  0  0  0  0  0  0  0  0  0  0
    6.8356    0.2667   -1.3305 H   0  0  0  0  0  0  0  0  0  0  0  0
    6.6534    0.7313    1.7197 H   0  0  0  0  0  0  0  0  0  0  0  0
    6.9673   -0.8242    0.9603 H   0  0  0  0  0  0  0  0  0  0  0  0
    4.4320    0.3304    1.4666 H   0  0  0  0  0  0  0  0  0  0  0  0
   -2.2462   -3.2956    0.7489 H   0  0  0  0  0  0  0  0  0  0  0  0
   -2.9184    0.1185    1.5062 H   0  0  0  0  0  0  0  0  0  0  0  0
   -3.5232   -1.5687    1.4941 H   0  0  0  0  0  0  0  0  0  0  0  0
   -5.0889    0.2187    1.6847 H   0  0  0  0  0  0  0  0  0  0  0  0
   -6.3003   -0.7212    0.8215 H   0  0  0  0  0  0  0  0  0  0  0  0
   -5.9614    2.3247    0.8267 H   0  0  0  0  0  0  0  0  0  0  0  0
   -7.2710    1.4163    1.5828 H   0  0  0  0  0  0  0  0  0  0  0  0
   -7.9489    2.4292   -0.6061 H   0  0  0  0  0  0  0  0  0  0  0  0
   -8.0867    0.6697   -0.6201 H   0  0  0  0  0  0  0  0  0  0  0  0
   -5.7961    2.3330   -1.7755 H   0  0  0  0  0  0  0  0  0  0  0  0
   -6.9980    1.4298   -2.6985 H   0  0  0  0  0  0  0  0  0  0  0  0
   -6.1293   -0.7133   -1.8384 H   0  0  0  0  0  0  0  0  0  0  0  0
   -4.8080    0.2377   -2.5221 H   0  0  0  0  0  0  0  0  0  0  0  0
    2.2132    1.6007    1.1365 H   0  0  0  0  0  0  0  0  0  0  0  0
    1.4051    1.6168   -0.4482 H   0  0  0  0  0  0  0  0  0  0  0  0
    3.1460    1.4302   -0.3668 H   0  0  0  0  0  0  0  0  0  0  0  0
  1  2  1  0
  2  3  1  0
  3  4  1  0
  4  5  1  0
  5  6  1  0
  6  7  2  0
  6  8  1  0
  8  9  1  0
  9 10  1  0
 10 11  1  0
 11 12  2  0
 12 13  1  0
 13 14  1  0
 14 15  1  0
 15 16  2  0
 15 17  1  0
 17 18  1  0
 18 19  1  0
 19 20  1  0
 20 21  1  0
 21 22  1  0
 13 23  1  0
 23 24  2  0
 23 25  1  0
 25 26  1  0
 26 27  1  0
 26  8  2  0
 25 10  2  0
 22 17  1  0
  1 28  1  0
  1 29  1  0
  1 30  1  0
  3 31  1  0
  3 32  1  0
  4 33  1  0
  4 34  1  0
  5 35  1  0
 12 36  1  0
 14 37  1  0
 14 38  1  0
 18 39  1  0
 18 40  1  0
 19 41  1  0
 19 42  1  0
 20 43  1  0
 20 44  1  0
 21 45  1  0
 21 46  1  0
 22 47  1  0
 22 48  1  0
 27 49  1  0
 27 50  1  0
 27 51  1  0
M  END
$$$$
