
     RDKit          3D

 50 52  0  0  0  0  0  0  0  0999 V2000
    8.5877    2.2449   -2.4480 C   0  0  0  0  0  0  0  0  0  0  0  0
    8.4963    2.1508   -0.9326 C   0  0  0  0  0  0  0  0  0  0  0  0
    7.6453    1.0026   -0.4962 C   0  0  0  0  0  0  0  0  0  0  0  0
    8.1012   -0.1986   -0.1943 N   0  0  0  0  0  0  0  0  0  0  0  0
    7.0897   -1.0574    0.1925 N   0  0  0  0  0  0  0  0  0  0  0  0
    5.9144   -0.4793    0.1293 C   0  0  0  0  0  0  0  0  0  0  0  0
    4.7270   -1.1930    0.5643 N   0  0  0  0  0  0  0  0  0  0  0  0
    3.8507   -1.7875   -0.7535 S   0  0  0  0  0  6  0  0  0  0  0  0
    4.0930   -1.0041   -1.9442 O   0  0  0  0  0  0  0  0  0  0  0  0
    4.0182   -3.2246   -0.7362 O   0  0  0  0  0  0  0  0  0  0  0  0
    2.1951   -1.4281   -0.2149 C   0  0  0  0  0  0  0  0  0  0  0  0
    1.6672   -0.1556   -0.4337 C   0  0  0  0  0  0  0  0  0  0  0  0
    0.3598    0.1384   -0.0243 C   0  0  0  0  0  0  0  0  0  0  0  0
   -0.4294   -0.8292    0.5977 C   0  0  0  0  0  0  0  0  0  0  0  0
   -1.7530   -0.6490    1.0551 N   0  0  0  0  0  0  0  0  0  0  0  0
   -2.6431    0.3999    1.0184 C   0  0  0  0  0  0  0  0  0  0  0  0
   -2.4762    1.9358    0.3814 S   0  0  0  0  0  0  0  0  0  0  0  0
   -3.8756    0.1289    1.5987 N   0  0  0  0  0  0  0  0  0  0  0  0
   -4.3436   -1.0474    2.1449 C   0  0  0  0  0  0  0  0  0  0  0  0
   -3.6504   -2.0404    2.3474 O   0  0  0  0  0  0  0  0  0  0  0  0
   -5.7629   -1.0324    2.5846 C   0  0  0  0  0  0  0  0  0  0  0  0
   -6.8142   -0.4898    1.9502 C   0  0  0  0  0  0  0  0  0  0  0  0
   -6.7923    0.1974    0.6574 C   0  0  0  0  0  0  0  0  0  0  0  0
   -7.1945    1.5361    0.5845 C   0  0  0  0  0  0  0  0  0  0  0  0
   -7.1411    2.2193   -0.6324 C   0  0  0  0  0  0  0  0  0  0  0  0
   -6.7008    1.5644   -1.7836 C   0  0  0  0  0  0  0  0  0  0  0  0
   -6.3161    0.2257   -1.7207 C   0  0  0  0  0  0  0  0  0  0  0  0
   -6.3669   -0.4594   -0.5046 C   0  0  0  0  0  0  0  0  0  0  0  0
    0.1199   -2.1080    0.7991 C   0  0  0  0  0  0  0  0  0  0  0  0
    1.4215   -2.4157    0.3908 C   0  0  0  0  0  0  0  0  0  0  0  0
    5.9413    1.1712   -0.3092 S   0  0  0  0  0  0  0  0  0  0  0  0
    8.9936    1.3236   -2.8812 H   0  0  0  0  0  0  0  0  0  0  0  0
    7.6036    2.4175   -2.8941 H   0  0  0  0  0  0  0  0  0  0  0  0
    9.2422    3.0780   -2.7375 H   0  0  0  0  0  0  0  0  0  0  0  0
    8.1122    3.0949   -0.5235 H   0  0  0  0  0  0  0  0  0  0  0  0
    9.5056    2.0220   -0.5223 H   0  0  0  0  0  0  0  0  0  0  0  0
    5.0415   -2.0070    1.0952 H   0  0  0  0  0  0  0  0  0  0  0  0
    2.2592    0.6159   -0.9221 H   0  0  0  0  0  0  0  0  0  0  0  0
    0.0075    1.1432   -0.2138 H   0  0  0  0  0  0  0  0  0  0  0  0
   -2.1449   -1.4750    1.5137 H   0  0  0  0  0  0  0  0  0  0  0  0
   -4.5221    0.9036    1.5252 H   0  0  0  0  0  0  0  0  0  0  0  0
   -5.9289   -1.5863    3.5041 H   0  0  0  0  0  0  0  0  0  0  0  0
   -7.8009   -0.5721    2.4024 H   0  0  0  0  0  0  0  0  0  0  0  0
   -7.5376    2.0639    1.4722 H   0  0  0  0  0  0  0  0  0  0  0  0
   -7.4421    3.2632   -0.6844 H   0  0  0  0  0  0  0  0  0  0  0  0
   -6.6599    2.0968   -2.7324 H   0  0  0  0  0  0  0  0  0  0  0  0
   -5.9763   -0.2855   -2.6193 H   0  0  0  0  0  0  0  0  0  0  0  0
   -6.0644   -1.5046   -0.4750 H   0  0  0  0  0  0  0  0  0  0  0  0
   -0.4684   -2.8899    1.2751 H   0  0  0  0  0  0  0  0  0  0  0  0
    1.8118   -3.4182    0.5496 H   0  0  0  0  0  0  0  0  0  0  0  0
  1  2  1  0
  2  3  1  0
  3  4  2  0
  4  5  1  0
  5  6  2  0
  6  7  1  0
  7  8  1  0
  8  9  2  0
  8 10  2  0
  8 11  1  0
 11 12  2  0
 12 13  1  0
 13 14  2  0
 14 15  1  0
 15 16  1  0
 16 17  2  0
 16 18  1  0
 18 19  1  0
 19 20  2  0
 19 21  1  0
 21 22  2  3
 22 23  1  0
 23 24  2  0
 24 25  1  0
 25 26  2  0
 26 27  1  0
 27 28  2  0
 14 29  1  0
 29 30  2  0
  6 31  1  0
 31  3  1  0
 30 11  1  0
 28 23  1  0
  1 32  1  0
  1 33  1  0
  1 34  1  0
  2 35  1  0
  2 36  1  0
  7 37  1  0
 12 38  1  0
 13 39  1  0
 15 40  1  0
 18 41  1  0
 21 42  1  0
 22 43  1  0
 24 44  1  0
 25 45  1  0
 26 46  1  0
 27 47  1  0
 28 48  1  0
 29 49  1  0
 30 50  1  0
M  END
$$$$
