
     RDKit          3D

 47 49  0  0  0  0  0  0  0  0999 V2000
   -6.1015   -0.8863   -3.6698 C   0  0  0  0  0  0  0  0  0  0  0  0
   -5.9536   -0.8466   -2.2579 O   0  0  0  0  0  0  0  0  0  0  0  0
   -4.7102   -0.5471   -1.7614 C   0  0  0  0  0  0  0  0  0  0  0  0
   -3.5455   -0.4818   -2.5312 C   0  0  0  0  0  0  0  0  0  0  0  0
   -2.3184   -0.1793   -1.9319 C   0  0  0  0  0  0  0  0  0  0  0  0
   -2.2351    0.0571   -0.5562 C   0  0  0  0  0  0  0  0  0  0  0  0
   -0.9343    0.4211    0.0201 C   0  0  0  0  0  0  0  0  0  0  0  0
   -0.3152   -0.1544    1.0601 C   0  0  0  0  0  0  0  0  0  0  0  0
   -0.8347   -1.4771    2.0192 S   0  0  0  0  0  0  0  0  0  0  0  0
    0.6189   -1.4540    3.0108 C   0  0  0  0  0  0  0  0  0  0  0  0
    0.8482   -2.5270    4.2674 S   0  0  0  0  0  0  0  0  0  0  0  0
    1.4626   -0.4489    2.5848 N   0  0  0  0  0  0  0  0  0  0  0  0
    2.7799   -0.1577    3.1645 C   0  0  0  0  0  0  0  0  0  0  0  0
    3.8878   -1.0423    2.6043 C   0  0  0  0  0  0  0  0  0  0  0  0
    4.2206   -0.6552    1.1834 C   0  0  0  0  0  0  0  0  0  0  0  0
    3.7690   -1.2966    0.2344 O   0  0  0  0  0  0  0  0  0  0  0  0
    5.0503    0.4309    1.0985 N   0  0  0  0  0  0  0  0  0  0  0  0
    5.0914    1.0697   -0.0132 C   0  0  0  0  0  0  0  0  0  0  0  0
    4.4426    0.8724   -1.1971 N   0  0  0  0  0  0  0  0  0  0  0  0
    4.9992    1.5599   -2.3387 C   0  0  0  0  0  0  0  0  0  0  0  0
    5.5611    2.8731   -1.8032 C   0  0  0  0  0  0  0  0  0  0  0  0
    6.1727    2.4592   -0.1372 S   0  0  0  0  0  0  0  0  0  0  0  0
    1.0176    0.3174    1.5202 C   0  0  0  0  0  0  0  0  0  0  0  0
    1.6111    1.2600    1.0151 O   0  0  0  0  0  0  0  0  0  0  0  0
   -3.4024    0.0068    0.2135 C   0  0  0  0  0  0  0  0  0  0  0  0
   -4.6314   -0.3194   -0.3750 C   0  0  0  0  0  0  0  0  0  0  0  0
   -5.8093   -0.3797    0.3301 O   0  0  0  0  0  0  0  0  0  0  0  0
   -5.6958   -0.8015    1.6839 C   0  0  0  0  0  0  0  0  0  0  0  0
   -7.1608   -1.0479   -3.8905 H   0  0  0  0  0  0  0  0  0  0  0  0
   -5.5412   -1.7224   -4.1033 H   0  0  0  0  0  0  0  0  0  0  0  0
   -5.8084    0.0654   -4.1259 H   0  0  0  0  0  0  0  0  0  0  0  0
   -3.5548   -0.6698   -3.5988 H   0  0  0  0  0  0  0  0  0  0  0  0
   -1.4264   -0.1364   -2.5534 H   0  0  0  0  0  0  0  0  0  0  0  0
   -0.4380    1.2451   -0.4947 H   0  0  0  0  0  0  0  0  0  0  0  0
    2.7218   -0.3017    4.2490 H   0  0  0  0  0  0  0  0  0  0  0  0
    3.0169    0.9000    3.0013 H   0  0  0  0  0  0  0  0  0  0  0  0
    4.7951   -0.9383    3.2107 H   0  0  0  0  0  0  0  0  0  0  0  0
    3.6123   -2.1013    2.6207 H   0  0  0  0  0  0  0  0  0  0  0  0
    4.0370   -0.0537   -1.3207 H   0  0  0  0  0  0  0  0  0  0  0  0
    4.2340    1.7417   -3.0989 H   0  0  0  0  0  0  0  0  0  0  0  0
    5.7912    0.9521   -2.7920 H   0  0  0  0  0  0  0  0  0  0  0  0
    4.7658    3.6188   -1.6980 H   0  0  0  0  0  0  0  0  0  0  0  0
    6.3465    3.2789   -2.4432 H   0  0  0  0  0  0  0  0  0  0  0  0
   -3.3495    0.2428    1.2709 H   0  0  0  0  0  0  0  0  0  0  0  0
   -6.6921   -1.0981    2.0256 H   0  0  0  0  0  0  0  0  0  0  0  0
   -5.3577    0.0231    2.3193 H   0  0  0  0  0  0  0  0  0  0  0  0
   -5.0372   -1.6712    1.7870 H   0  0  0  0  0  0  0  0  0  0  0  0
  1  2  1  0
  2  3  1  0
  3  4  2  0
  4  5  1  0
  5  6  2  0
  6  7  1  0
  7  8  2  3
  8  9  1  0
  9 10  1  0
 10 11  2  0
 10 12  1  0
 12 13  1  0
 13 14  1  0
 14 15  1  0
 15 16  2  0
 15 17  1  0
 17 18  2  3
 18 19  1  0
 19 20  1  0
 20 21  1  0
 21 22  1  0
 12 23  1  0
 23 24  2  0
  6 25  1  0
 25 26  2  0
 26 27  1  0
 27 28  1  0
 26  3  1  0
 23  8  1  0
 22 18  1  0
  1 29  1  0
  1 30  1  0
  1 31  1  0
  4 32  1  0
  5 33  1  0
  7 34  1  0
 13 35  1  0
 13 36  1  0
 14 37  1  0
 14 38  1  0
 19 39  1  0
 20 40  1  0
 20 41  1  0
 21 42  1  0
 21 43  1  0
 25 44  1  0
 28 45  1  0
 28 46  1  0
 28 47  1  0
M  END
$$$$
