
     RDKit          3D

 41 44  0  0  0  0  0  0  0  0999 V2000
    1.5095    2.8840   -0.3370 O   0  0  0  0  0  0  0  0  0  0  0  0
    1.4079    1.6706   -0.5187 C   0  0  0  0  0  0  0  0  0  0  0  0
    2.5533    0.7924   -0.4350 C   0  0  0  0  0  0  0  0  0  0  0  0
    3.3000    0.5647    1.0788 S   0  0  0  0  0  0  0  0  0  0  0  0
    4.4767   -0.5076    0.4244 C   0  0  0  0  0  0  0  0  0  0  0  0
    5.5026   -1.1649    1.1323 C   0  0  0  0  0  0  0  0  0  0  0  0
    6.3794   -1.9994    0.4371 C   0  0  0  0  0  0  0  0  0  0  0  0
    6.2448   -2.1779   -0.9314 C   0  0  0  0  0  0  0  0  0  0  0  0
    5.2263   -1.5231   -1.6305 C   0  0  0  0  0  0  0  0  0  0  0  0
    4.3139   -0.6700   -0.9552 C   0  0  0  0  0  0  0  0  0  0  0  0
    3.1998    0.1051   -1.4374 C   0  0  0  0  0  0  0  0  0  0  0  0
    2.7569    0.1457   -3.0980 Cl  0  0  0  0  0  0  0  0  0  0  0  0
    0.1726    1.0963   -0.8170 N   0  0  0  0  0  0  0  0  0  0  0  0
   -0.1100   -0.3460   -0.8990 C   0  0  0  0  0  0  0  0  0  0  0  0
   -1.4668   -0.7267   -0.2676 C   0  0  0  0  0  0  0  0  0  0  0  0
   -2.5853    0.1312   -0.7352 N   0  0  0  0  0  0  0  0  0  0  0  0
   -3.6966    0.1892    0.1189 C   0  0  0  0  0  0  0  0  0  0  0  0
   -4.3703    1.3890    0.4061 C   0  0  0  0  0  0  0  0  0  0  0  0
   -5.4860    1.4318    1.2566 C   0  0  0  0  0  0  0  0  0  0  0  0
   -5.9678    0.2690    1.8463 C   0  0  0  0  0  0  0  0  0  0  0  0
   -5.3314   -0.9368    1.5852 C   0  0  0  0  0  0  0  0  0  0  0  0
   -4.2209   -0.9691    0.7383 C   0  0  0  0  0  0  0  0  0  0  0  0
   -3.6655   -2.1716    0.5133 F   0  0  0  0  0  0  0  0  0  0  0  0
   -2.1968    1.2708   -1.5848 C   0  0  0  0  0  0  0  0  0  0  0  0
   -0.9742    1.9919   -1.0012 C   0  0  0  0  0  0  0  0  0  0  0  0
    5.6142   -1.0233    2.2041 H   0  0  0  0  0  0  0  0  0  0  0  0
    7.1755   -2.5097    0.9747 H   0  0  0  0  0  0  0  0  0  0  0  0
    6.9345   -2.8271   -1.4658 H   0  0  0  0  0  0  0  0  0  0  0  0
    5.1388   -1.6732   -2.7045 H   0  0  0  0  0  0  0  0  0  0  0  0
   -0.1144   -0.6052   -1.9644 H   0  0  0  0  0  0  0  0  0  0  0  0
    0.6802   -0.9305   -0.4206 H   0  0  0  0  0  0  0  0  0  0  0  0
   -1.6711   -1.7746   -0.5117 H   0  0  0  0  0  0  0  0  0  0  0  0
   -1.3618   -0.6366    0.8219 H   0  0  0  0  0  0  0  0  0  0  0  0
   -4.0325    2.3373    0.0011 H   0  0  0  0  0  0  0  0  0  0  0  0
   -5.9728    2.3835    1.4575 H   0  0  0  0  0  0  0  0  0  0  0  0
   -6.8323    0.3031    2.5034 H   0  0  0  0  0  0  0  0  0  0  0  0
   -5.6893   -1.8608    2.0276 H   0  0  0  0  0  0  0  0  0  0  0  0
   -3.0149    1.9725   -1.7720 H   0  0  0  0  0  0  0  0  0  0  0  0
   -1.9369    0.8724   -2.5745 H   0  0  0  0  0  0  0  0  0  0  0  0
   -0.6752    2.8163   -1.6585 H   0  0  0  0  0  0  0  0  0  0  0  0
   -1.2142    2.4173   -0.0193 H   0  0  0  0  0  0  0  0  0  0  0  0
  1  2  2  0
  2  3  1  0
  3  4  1  0
  4  5  1  0
  5  6  2  0
  6  7  1  0
  7  8  2  0
  8  9  1  0
  9 10  2  0
 10 11  1  0
 11 12  1  0
  2 13  1  0
 13 14  1  0
 14 15  1  0
 15 16  1  0
 16 17  1  0
 17 18  2  0
 18 19  1  0
 19 20  2  0
 20 21  1  0
 21 22  2  0
 22 23  1  0
 16 24  1  0
 24 25  1  0
 11  3  2  0
 25 13  1  0
 10  5  1  0
 22 17  1  0
  6 26  1  0
  7 27  1  0
  8 28  1  0
  9 29  1  0
 14 30  1  0
 14 31  1  0
 15 32  1  0
 15 33  1  0
 18 34  1  0
 19 35  1  0
 20 36  1  0
 21 37  1  0
 24 38  1  0
 24 39  1  0
 25 40  1  0
 25 41  1  0
M  END
$$$$
