
     RDKit          3D

 58 61  0  0  0  0  0  0  0  0999 V2000
    7.8419   -2.6327   -0.8515 C   0  0  0  0  0  0  0  0  0  0  0  0
    7.0564   -1.3609   -0.7309 C   0  0  0  0  0  0  0  0  0  0  0  0
    7.2789   -0.4880    0.3407 C   0  0  0  0  0  0  0  0  0  0  0  0
    6.5711    0.7129    0.4360 C   0  0  0  0  0  0  0  0  0  0  0  0
    5.6402    1.0692   -0.5481 C   0  0  0  0  0  0  0  0  0  0  0  0
    4.8518    2.3485   -0.4407 C   0  0  0  0  0  0  0  0  0  0  0  0
    3.5528    2.0960    0.1408 N   0  0  0  0  0  0  0  0  0  0  0  0
    2.4250    1.9542   -0.6371 C   0  0  0  0  0  0  0  0  0  0  0  0
    2.4154    2.1510   -1.8478 O   0  0  0  0  0  0  0  0  0  0  0  0
    1.1872    1.5288    0.1515 C   0  0  0  0  0  0  0  0  0  0  0  0
    1.3387    0.0864    0.6525 C   0  0  0  0  0  0  0  0  0  0  0  0
    0.0917   -0.3933    1.3930 C   0  0  0  0  0  0  0  0  0  0  0  0
   -1.1776   -0.2475    0.5405 C   0  0  0  0  0  0  0  0  0  0  0  0
   -2.4095   -0.6997    1.3420 C   0  0  0  0  0  0  0  0  0  0  0  0
   -3.5685   -0.7892    0.4670 N   0  0  0  0  0  0  0  0  0  0  0  0
   -4.8439   -0.2992    0.7026 C   0  0  0  0  0  0  0  0  0  0  0  0
   -4.9928    0.7792    1.5341 N   0  0  0  0  0  0  0  0  0  0  0  0
   -6.1736    1.3925    1.8553 C   0  0  0  0  0  0  0  0  0  0  0  0
   -6.1091    2.7205    2.8778 S   0  0  0  0  0  0  0  0  0  0  0  0
   -7.3319    0.8964    1.3301 N   0  0  0  0  0  0  0  0  0  0  0  0
   -7.2371   -0.1146    0.5278 C   0  0  0  0  0  0  0  0  0  0  0  0
   -8.4884   -0.6632   -0.0669 C   0  0  0  0  0  0  0  0  0  0  0  0
   -8.4508   -1.7036   -0.9090 C   0  0  0  0  0  0  0  0  0  0  0  0
   -7.2135   -2.3427   -1.2815 C   0  0  0  0  0  0  0  0  0  0  0  0
   -6.0370   -1.9227   -0.7947 C   0  0  0  0  0  0  0  0  0  0  0  0
   -5.9617   -0.8032    0.1308 C   0  0  0  0  0  0  0  0  0  0  0  0
   -1.3253    1.2025    0.0510 C   0  0  0  0  0  0  0  0  0  0  0  0
   -0.0810    1.6716   -0.6990 C   0  0  0  0  0  0  0  0  0  0  0  0
    5.4232    0.1961   -1.6227 C   0  0  0  0  0  0  0  0  0  0  0  0
    6.1310   -1.0038   -1.7173 C   0  0  0  0  0  0  0  0  0  0  0  0
    8.1056   -3.0243    0.1364 H   0  0  0  0  0  0  0  0  0  0  0  0
    8.7608   -2.4527   -1.4173 H   0  0  0  0  0  0  0  0  0  0  0  0
    7.2576   -3.4057   -1.3616 H   0  0  0  0  0  0  0  0  0  0  0  0
    8.0066   -0.7392    1.1093 H   0  0  0  0  0  0  0  0  0  0  0  0
    6.7574    1.3700    1.2825 H   0  0  0  0  0  0  0  0  0  0  0  0
    4.7562    2.8219   -1.4245 H   0  0  0  0  0  0  0  0  0  0  0  0
    5.3668    3.0609    0.2134 H   0  0  0  0  0  0  0  0  0  0  0  0
    3.5316    1.7842    1.1008 H   0  0  0  0  0  0  0  0  0  0  0  0
    1.1008    2.2034    1.0144 H   0  0  0  0  0  0  0  0  0  0  0  0
    2.2026   -0.0021    1.3214 H   0  0  0  0  0  0  0  0  0  0  0  0
    1.5395   -0.5814   -0.1956 H   0  0  0  0  0  0  0  0  0  0  0  0
   -0.0164    0.1793    2.3231 H   0  0  0  0  0  0  0  0  0  0  0  0
    0.2284   -1.4425    1.6812 H   0  0  0  0  0  0  0  0  0  0  0  0
   -1.0744   -0.8976   -0.3398 H   0  0  0  0  0  0  0  0  0  0  0  0
   -2.2311   -1.6956    1.7652 H   0  0  0  0  0  0  0  0  0  0  0  0
   -2.5734   -0.0286    2.1916 H   0  0  0  0  0  0  0  0  0  0  0  0
   -3.5318   -1.5896   -0.1546 H   0  0  0  0  0  0  0  0  0  0  0  0
   -4.1666    1.2142    1.9131 H   0  0  0  0  0  0  0  0  0  0  0  0
   -9.4163   -0.1789    0.2133 H   0  0  0  0  0  0  0  0  0  0  0  0
   -9.3693   -2.0929   -1.3381 H   0  0  0  0  0  0  0  0  0  0  0  0
   -7.2628   -3.1794   -1.9732 H   0  0  0  0  0  0  0  0  0  0  0  0
   -5.1315   -2.4299   -1.1035 H   0  0  0  0  0  0  0  0  0  0  0  0
   -1.5070    1.8685    0.9041 H   0  0  0  0  0  0  0  0  0  0  0  0
   -2.1925    1.2941   -0.6131 H   0  0  0  0  0  0  0  0  0  0  0  0
    0.0180    1.0918   -1.6262 H   0  0  0  0  0  0  0  0  0  0  0  0
   -0.2111    2.7181   -1.0007 H   0  0  0  0  0  0  0  0  0  0  0  0
    4.6970    0.4512   -2.3935 H   0  0  0  0  0  0  0  0  0  0  0  0
    5.9517   -1.6586   -2.5672 H   0  0  0  0  0  0  0  0  0  0  0  0
  1  2  1  0
  2  3  2  0
  3  4  1  0
  4  5  2  0
  5  6  1  0
  6  7  1  0
  7  8  1  0
  8  9  2  0
  8 10  1  0
 10 11  1  0
 11 12  1  0
 12 13  1  0
 13 14  1  0
 14 15  1  0
 15 16  1  0
 16 17  1  0
 17 18  1  0
 18 19  2  0
 18 20  1  0
 20 21  2  0
 21 22  1  0
 22 23  2  0
 23 24  1  0
 24 25  2  0
 25 26  1  0
 13 27  1  0
 27 28  1  0
  5 29  1  0
 29 30  2  0
 30  2  1  0
 28 10  1  0
 26 16  2  0
 26 21  1  0
  1 31  1  0
  1 32  1  0
  1 33  1  0
  3 34  1  0
  4 35  1  0
  6 36  1  0
  6 37  1  0
  7 38  1  0
 10 39  1  0
 11 40  1  0
 11 41  1  0
 12 42  1  0
 12 43  1  0
 13 44  1  0
 14 45  1  0
 14 46  1  0
 15 47  1  0
 17 48  1  0
 22 49  1  0
 23 50  1  0
 24 51  1  0
 25 52  1  0
 27 53  1  0
 27 54  1  0
 28 55  1  0
 28 56  1  0
 29 57  1  0
 30 58  1  0
M  END
$$$$
