
     RDKit          3D

 54 57  0  0  0  0  0  0  0  0999 V2000
    8.0786   -2.5981    1.3561 C   0  0  0  0  0  0  0  0  0  0  0  0
    6.6696   -2.5406    1.1803 O   0  0  0  0  0  0  0  0  0  0  0  0
    6.1285   -1.3197    0.8804 C   0  0  0  0  0  0  0  0  0  0  0  0
    6.8442   -0.1424    0.6668 C   0  0  0  0  0  0  0  0  0  0  0  0
    6.1668    1.0389    0.3629 C   0  0  0  0  0  0  0  0  0  0  0  0
    4.7745    1.0443    0.2685 C   0  0  0  0  0  0  0  0  0  0  0  0
    4.0423   -0.1304    0.4800 C   0  0  0  0  0  0  0  0  0  0  0  0
    2.6391   -0.0386    0.3614 N   0  0  0  0  0  0  0  0  0  0  0  0
    1.7078   -1.0335    0.5938 C   0  0  0  0  0  0  0  0  0  0  0  0
    1.9249   -2.1645    1.0074 O   0  0  0  0  0  0  0  0  0  0  0  0
    0.3129   -0.5835    0.3295 C   0  0  0  0  0  0  0  0  0  0  0  0
   -0.6481   -0.9704    1.1831 C   0  0  0  0  0  0  0  0  0  0  0  0
   -2.0200   -0.4967    1.0830 C   0  0  0  0  0  0  0  0  0  0  0  0
   -3.0309   -0.9663    2.0726 C   0  0  0  0  0  0  0  0  0  0  0  0
   -2.6990   -1.7468    2.9674 O   0  0  0  0  0  0  0  0  0  0  0  0
   -4.3116   -0.4670    1.9159 N   0  0  0  0  0  0  0  0  0  0  0  0
   -5.3161   -0.8713    2.7887 C   0  0  0  0  0  0  0  0  0  0  0  0
   -6.5673   -0.4067    2.6869 C   0  0  0  0  0  0  0  0  0  0  0  0
   -6.8981    0.5384    1.6545 C   0  0  0  0  0  0  0  0  0  0  0  0
   -5.9620    0.9561    0.7959 C   0  0  0  0  0  0  0  0  0  0  0  0
   -4.5676    0.4404    0.9062 C   0  0  0  0  0  0  0  0  0  0  0  0
   -3.6832    0.8658    0.0629 N   0  0  0  0  0  0  0  0  0  0  0  0
   -2.3919    0.3926    0.1326 C   0  0  0  0  0  0  0  0  0  0  0  0
   -1.4208    0.8301   -0.8049 N   0  0  0  0  0  0  0  0  0  0  0  0
   -1.8186    1.7743   -1.8684 C   0  0  0  0  0  0  0  0  0  0  0  0
   -2.5970    1.0896   -3.0108 C   0  0  0  0  0  0  0  0  0  0  0  0
   -1.7354    0.1052   -3.8028 C   0  0  0  0  0  0  0  0  0  0  0  0
   -3.1626    2.1533   -3.9551 C   0  0  0  0  0  0  0  0  0  0  0  0
   -0.1084    0.3376   -0.7812 C   0  0  0  0  0  0  0  0  0  0  0  0
    0.7422    0.6671   -1.7134 N   0  0  0  0  0  0  0  0  0  0  0  0
    4.7302   -1.3067    0.7842 C   0  0  0  0  0  0  0  0  0  0  0  0
    8.6040   -2.3274    0.4343 H   0  0  0  0  0  0  0  0  0  0  0  0
    8.3438   -3.6311    1.6004 H   0  0  0  0  0  0  0  0  0  0  0  0
    8.3965   -1.9653    2.1908 H   0  0  0  0  0  0  0  0  0  0  0  0
    7.9265   -0.1101    0.7307 H   0  0  0  0  0  0  0  0  0  0  0  0
    6.7257    1.9586    0.2047 H   0  0  0  0  0  0  0  0  0  0  0  0
    4.2732    1.9811    0.0340 H   0  0  0  0  0  0  0  0  0  0  0  0
    2.2795    0.8847    0.1348 H   0  0  0  0  0  0  0  0  0  0  0  0
   -0.4094   -1.6314    2.0156 H   0  0  0  0  0  0  0  0  0  0  0  0
   -5.0421   -1.5850    3.5626 H   0  0  0  0  0  0  0  0  0  0  0  0
   -7.3450   -0.7299    3.3727 H   0  0  0  0  0  0  0  0  0  0  0  0
   -7.9190    0.9008    1.5910 H   0  0  0  0  0  0  0  0  0  0  0  0
   -6.1697    1.6659    0.0063 H   0  0  0  0  0  0  0  0  0  0  0  0
   -0.9494    2.3069   -2.2753 H   0  0  0  0  0  0  0  0  0  0  0  0
   -2.4376    2.5651   -1.4235 H   0  0  0  0  0  0  0  0  0  0  0  0
   -3.4451    0.5314   -2.5967 H   0  0  0  0  0  0  0  0  0  0  0  0
   -1.4048   -0.7265   -3.1743 H   0  0  0  0  0  0  0  0  0  0  0  0
   -0.8498    0.5963   -4.2206 H   0  0  0  0  0  0  0  0  0  0  0  0
   -2.3033   -0.3241   -4.6346 H   0  0  0  0  0  0  0  0  0  0  0  0
   -2.3623    2.7457   -4.4116 H   0  0  0  0  0  0  0  0  0  0  0  0
   -3.7439    1.6917   -4.7596 H   0  0  0  0  0  0  0  0  0  0  0  0
   -3.8268    2.8373   -3.4156 H   0  0  0  0  0  0  0  0  0  0  0  0
    1.6300    0.1584   -1.6297 H   0  0  0  0  0  0  0  0  0  0  0  0
    4.2060   -2.2434    0.9494 H   0  0  0  0  0  0  0  0  0  0  0  0
  1  2  1  0
  2  3  1  0
  3  4  2  0
  4  5  1  0
  5  6  2  0
  6  7  1  0
  7  8  1  0
  8  9  1  0
  9 10  2  0
  9 11  1  0
 11 12  2  0
 12 13  1  0
 13 14  1  0
 14 15  2  0
 14 16  1  0
 16 17  1  0
 17 18  2  0
 18 19  1  0
 19 20  2  0
 20 21  1  0
 21 22  2  0
 22 23  1  0
 23 24  1  0
 24 25  1  0
 25 26  1  0
 26 27  1  0
 26 28  1  0
 24 29  1  0
 29 30  2  3
  7 31  2  0
 31  3  1  0
 29 11  1  0
 23 13  2  0
 21 16  1  0
  1 32  1  0
  1 33  1  0
  1 34  1  0
  4 35  1  0
  5 36  1  0
  6 37  1  0
  8 38  1  0
 12 39  1  0
 17 40  1  0
 18 41  1  0
 19 42  1  0
 20 43  1  0
 25 44  1  0
 25 45  1  0
 26 46  1  0
 27 47  1  0
 27 48  1  0
 27 49  1  0
 28 50  1  0
 28 51  1  0
 28 52  1  0
 30 53  1  0
 31 54  1  0
M  END
$$$$
