
     RDKit          3D

 35 37  0  0  0  0  0  0  0  0999 V2000
   -3.7499    2.4907    0.3623 C   0  0  0  0  0  0  0  0  0  0  0  0
   -3.1089    1.1476    0.1657 C   0  0  0  0  0  0  0  0  0  0  0  0
   -3.4396    0.3622   -0.9473 C   0  0  0  0  0  0  0  0  0  0  0  0
   -2.8733   -0.9026   -1.1145 C   0  0  0  0  0  0  0  0  0  0  0  0
   -1.9715   -1.3834   -0.1616 C   0  0  0  0  0  0  0  0  0  0  0  0
   -1.2549   -2.9979   -0.3716 S   0  0  0  0  0  6  0  0  0  0  0  0
   -2.1854   -3.7897   -1.1489 O   0  0  0  0  0  0  0  0  0  0  0  0
   -0.7751   -3.4521    0.9156 O   0  0  0  0  0  0  0  0  0  0  0  0
    0.0616   -2.6966   -1.3890 N   0  0  0  0  0  0  0  0  0  0  0  0
    1.0190   -1.7141   -1.0195 C   0  0  0  0  0  0  0  0  0  0  0  0
    1.8088   -1.8738    0.1167 C   0  0  0  0  0  0  0  0  0  0  0  0
    2.7170   -0.8773    0.4856 C   0  0  0  0  0  0  0  0  0  0  0  0
    2.8383    0.2886   -0.2859 C   0  0  0  0  0  0  0  0  0  0  0  0
    3.7583    1.2913    0.1061 N   0  0  0  0  0  0  0  0  0  0  0  0
    4.0440    2.4959   -0.4858 C   0  0  0  0  0  0  0  0  0  0  0  0
    4.9624    3.1198    0.2154 N   0  0  0  0  0  0  0  0  0  0  0  0
    5.2558    2.2893    1.2637 N   0  0  0  0  0  0  0  0  0  0  0  0
    4.5336    1.1792    1.2090 N   0  0  0  0  0  0  0  0  0  0  0  0
    2.0454    0.4429   -1.4318 C   0  0  0  0  0  0  0  0  0  0  0  0
    1.1392   -0.5602   -1.7947 C   0  0  0  0  0  0  0  0  0  0  0  0
   -1.6588   -0.6261    0.9700 C   0  0  0  0  0  0  0  0  0  0  0  0
   -2.2274    0.6383    1.1293 C   0  0  0  0  0  0  0  0  0  0  0  0
   -3.0828    3.1650    0.9095 H   0  0  0  0  0  0  0  0  0  0  0  0
   -3.9696    2.9629   -0.6010 H   0  0  0  0  0  0  0  0  0  0  0  0
   -4.6824    2.3814    0.9244 H   0  0  0  0  0  0  0  0  0  0  0  0
   -4.1494    0.7301   -1.6859 H   0  0  0  0  0  0  0  0  0  0  0  0
   -3.1476   -1.5052   -1.9772 H   0  0  0  0  0  0  0  0  0  0  0  0
   -0.1943   -2.7779   -2.3713 H   0  0  0  0  0  0  0  0  0  0  0  0
    1.7320   -2.7744    0.7228 H   0  0  0  0  0  0  0  0  0  0  0  0
    3.3197   -1.0328    1.3799 H   0  0  0  0  0  0  0  0  0  0  0  0
    3.5797    2.8622   -1.3866 H   0  0  0  0  0  0  0  0  0  0  0  0
    2.0984    1.3259   -2.0625 H   0  0  0  0  0  0  0  0  0  0  0  0
    0.5216   -0.4217   -2.6785 H   0  0  0  0  0  0  0  0  0  0  0  0
   -0.9792   -1.0101    1.7279 H   0  0  0  0  0  0  0  0  0  0  0  0
   -1.9844    1.2226    2.0149 H   0  0  0  0  0  0  0  0  0  0  0  0
  1  2  1  0
  2  3  2  0
  3  4  1  0
  4  5  2  0
  5  6  1  0
  6  7  2  0
  6  8  2  0
  6  9  1  0
  9 10  1  0
 10 11  2  0
 11 12  1  0
 12 13  2  0
 13 14  1  0
 14 15  1  0
 15 16  2  0
 16 17  1  0
 17 18  2  0
 13 19  1  0
 19 20  2  0
  5 21  1  0
 21 22  2  0
 22  2  1  0
 20 10  1  0
 18 14  1  0
  1 23  1  0
  1 24  1  0
  1 25  1  0
  3 26  1  0
  4 27  1  0
  9 28  1  0
 11 29  1  0
 12 30  1  0
 15 31  1  0
 19 32  1  0
 20 33  1  0
 21 34  1  0
 22 35  1  0
M  END
$$$$
