
     RDKit          3D

 46 48  0  0  0  0  0  0  0  0999 V2000
    5.3864   -0.0844    1.1139 C   0  0  0  0  0  0  0  0  0  0  0  0
    4.1911   -1.0170    1.1300 C   0  0  0  0  0  0  0  0  0  0  0  0
    3.3433   -0.6727    0.0284 O   0  0  0  0  0  0  0  0  0  0  0  0
    2.2017   -1.4205   -0.0716 C   0  0  0  0  0  0  0  0  0  0  0  0
    1.9056   -2.3047    0.7266 O   0  0  0  0  0  0  0  0  0  0  0  0
    1.3471   -0.9888   -1.2818 C   0  0  0  0  0  0  0  0  0  0  0  0
    2.0027   -1.7235   -2.4727 C   0  0  0  0  0  0  0  0  0  0  0  0
    1.3377   -1.4787   -3.6337 F   0  0  0  0  0  0  0  0  0  0  0  0
    3.2878   -1.3402   -2.6799 F   0  0  0  0  0  0  0  0  0  0  0  0
    2.0178   -3.0701   -2.3116 F   0  0  0  0  0  0  0  0  0  0  0  0
    1.4150    0.4774   -1.4430 N   0  0  0  0  0  0  0  0  0  0  0  0
    0.5593    1.1231   -0.7413 C   0  0  0  0  0  0  0  0  0  0  0  0
    0.5525    2.5959   -0.6282 C   0  0  0  0  0  0  0  0  0  0  0  0
   -0.3792    3.3009    0.1397 C   0  0  0  0  0  0  0  0  0  0  0  0
   -0.3119    4.6926    0.1960 C   0  0  0  0  0  0  0  0  0  0  0  0
    0.6872    5.3345   -0.5177 C   0  0  0  0  0  0  0  0  0  0  0  0
    1.6036    4.6869   -1.2677 N   0  0  0  0  0  0  0  0  0  0  0  0
    1.5162    3.3331   -1.3073 C   0  0  0  0  0  0  0  0  0  0  0  0
   -0.4401    0.5745   -0.0305 O   0  0  0  0  0  0  0  0  0  0  0  0
   -0.7935   -0.6777   -0.3961 C   0  0  0  0  0  0  0  0  0  0  0  0
   -2.0619   -1.0262    0.0155 N   0  0  0  0  0  0  0  0  0  0  0  0
   -2.6256   -2.3208   -0.3848 C   0  0  0  0  0  0  0  0  0  0  0  0
   -4.1497   -2.2645   -0.4029 C   0  0  0  0  0  0  0  0  0  0  0  0
   -4.7256   -1.9046    0.9642 C   0  0  0  0  0  0  0  0  0  0  0  0
   -3.7592   -1.0750    1.8053 C   0  0  0  0  0  0  0  0  0  0  0  0
   -2.8459   -0.2091    0.9430 C   0  0  0  0  0  0  0  0  0  0  0  0
   -0.0343   -1.4499   -1.0812 N   0  0  0  0  0  0  0  0  0  0  0  0
    5.9344   -0.1767    0.1702 H   0  0  0  0  0  0  0  0  0  0  0  0
    5.0626    0.9586    1.1929 H   0  0  0  0  0  0  0  0  0  0  0  0
    6.0665   -0.3072    1.9408 H   0  0  0  0  0  0  0  0  0  0  0  0
    3.6430   -0.8994    2.0715 H   0  0  0  0  0  0  0  0  0  0  0  0
    4.5285   -2.0541    1.0248 H   0  0  0  0  0  0  0  0  0  0  0  0
   -1.1572    2.7876    0.6966 H   0  0  0  0  0  0  0  0  0  0  0  0
   -1.0219    5.2638    0.7842 H   0  0  0  0  0  0  0  0  0  0  0  0
    0.7801    6.4171   -0.5048 H   0  0  0  0  0  0  0  0  0  0  0  0
    2.2729    2.8514   -1.9225 H   0  0  0  0  0  0  0  0  0  0  0  0
   -2.2777   -3.0996    0.3040 H   0  0  0  0  0  0  0  0  0  0  0  0
   -2.2871   -2.5949   -1.3909 H   0  0  0  0  0  0  0  0  0  0  0  0
   -4.4710   -1.5111   -1.1338 H   0  0  0  0  0  0  0  0  0  0  0  0
   -4.5631   -3.2221   -0.7388 H   0  0  0  0  0  0  0  0  0  0  0  0
   -5.6646   -1.3568    0.8211 H   0  0  0  0  0  0  0  0  0  0  0  0
   -4.9830   -2.8170    1.5157 H   0  0  0  0  0  0  0  0  0  0  0  0
   -3.1426   -1.7520    2.4111 H   0  0  0  0  0  0  0  0  0  0  0  0
   -4.3219   -0.4518    2.5092 H   0  0  0  0  0  0  0  0  0  0  0  0
   -3.4357    0.5183    0.3728 H   0  0  0  0  0  0  0  0  0  0  0  0
   -2.1904    0.3554    1.6164 H   0  0  0  0  0  0  0  0  0  0  0  0
  1  2  1  0
  2  3  1  0
  3  4  1  0
  4  5  2  0
  4  6  1  0
  6  7  1  0
  7  8  1  0
  7  9  1  0
  7 10  1  0
  6 11  1  0
 11 12  2  0
 12 13  1  0
 13 14  2  0
 14 15  1  0
 15 16  2  0
 16 17  1  0
 17 18  2  0
 12 19  1  0
 19 20  1  0
 20 21  1  0
 21 22  1  0
 22 23  1  0
 23 24  1  0
 24 25  1  0
 25 26  1  0
 20 27  2  0
 27  6  1  0
 18 13  1  0
 26 21  1  0
  1 28  1  0
  1 29  1  0
  1 30  1  0
  2 31  1  0
  2 32  1  0
 14 33  1  0
 15 34  1  0
 16 35  1  0
 18 36  1  0
 22 37  1  0
 22 38  1  0
 23 39  1  0
 23 40  1  0
 24 41  1  0
 24 42  1  0
 25 43  1  0
 25 44  1  0
 26 45  1  0
 26 46  1  0
M  END
$$$$
