
     RDKit          3D

 41 44  0  0  0  0  0  0  0  0999 V2000
    3.8516   -4.6865    2.4445 C   0  0  0  0  0  0  0  0  0  0  0  0
    2.8568   -3.6694    2.4600 O   0  0  0  0  0  0  0  0  0  0  0  0
    2.6192   -3.0147    1.2810 C   0  0  0  0  0  0  0  0  0  0  0  0
    3.2552   -3.2594    0.0685 C   0  0  0  0  0  0  0  0  0  0  0  0
    2.9177   -2.5320   -1.0779 C   0  0  0  0  0  0  0  0  0  0  0  0
    1.9283   -1.5488   -0.9631 C   0  0  0  0  0  0  0  0  0  0  0  0
    1.4047   -0.7198   -1.9182 N   0  0  0  0  0  0  0  0  0  0  0  0
    0.4180    0.0941   -1.4003 C   0  0  0  0  0  0  0  0  0  0  0  0
   -0.3865    1.0439   -2.0596 C   0  0  0  0  0  0  0  0  0  0  0  0
   -0.2444    1.3059   -3.5397 C   0  0  0  0  0  0  0  0  0  0  0  0
   -1.3587    1.7215   -1.2744 C   0  0  0  0  0  0  0  0  0  0  0  0
   -2.2464    2.6467   -1.8530 C   0  0  0  0  0  0  0  0  0  0  0  0
   -3.2033    3.2963   -1.0888 C   0  0  0  0  0  0  0  0  0  0  0  0
   -3.2976    3.0477    0.2274 N   0  0  0  0  0  4  0  0  0  0  0  0
   -4.3245    3.7241    1.0381 C   0  0  0  0  0  0  0  0  0  0  0  0
   -2.4645    2.1677    0.8227 C   0  0  0  0  0  0  0  0  0  0  0  0
   -1.4604    1.4799    0.1170 C   0  0  0  0  0  0  0  0  0  0  0  0
   -0.5701    0.5628    0.7643 C   0  0  0  0  0  0  0  0  0  0  0  0
   -0.6192    0.3707    2.2636 C   0  0  0  0  0  0  0  0  0  0  0  0
    0.3407   -0.1840   -0.0362 C   0  0  0  0  0  0  0  0  0  0  0  0
    1.2776   -1.2543    0.2303 C   0  0  0  0  0  0  0  0  0  0  0  0
    1.6324   -2.0206    1.3644 C   0  0  0  0  0  0  0  0  0  0  0  0
    4.8329   -4.2746    2.1869 H   0  0  0  0  0  0  0  0  0  0  0  0
    3.9197   -5.1024    3.4544 H   0  0  0  0  0  0  0  0  0  0  0  0
    3.5728   -5.5004    1.7672 H   0  0  0  0  0  0  0  0  0  0  0  0
    4.0224   -4.0215   -0.0277 H   0  0  0  0  0  0  0  0  0  0  0  0
    3.4111   -2.7352   -2.0237 H   0  0  0  0  0  0  0  0  0  0  0  0
    1.6945   -0.7323   -2.8849 H   0  0  0  0  0  0  0  0  0  0  0  0
   -0.0335    2.3653   -3.7190 H   0  0  0  0  0  0  0  0  0  0  0  0
   -1.1621    1.0201   -4.0639 H   0  0  0  0  0  0  0  0  0  0  0  0
    0.5762    0.7382   -3.9865 H   0  0  0  0  0  0  0  0  0  0  0  0
   -2.2123    2.8738   -2.9167 H   0  0  0  0  0  0  0  0  0  0  0  0
   -3.8967    4.0081   -1.5273 H   0  0  0  0  0  0  0  0  0  0  0  0
   -4.7996    4.5164    0.4548 H   0  0  0  0  0  0  0  0  0  0  0  0
   -3.8358    4.1569    1.9152 H   0  0  0  0  0  0  0  0  0  0  0  0
   -5.0628    2.9728    1.3300 H   0  0  0  0  0  0  0  0  0  0  0  0
   -2.6367    2.0208    1.8835 H   0  0  0  0  0  0  0  0  0  0  0  0
   -0.8493    1.3038    2.7864 H   0  0  0  0  0  0  0  0  0  0  0  0
   -1.3644   -0.3867    2.5230 H   0  0  0  0  0  0  0  0  0  0  0  0
    0.3544    0.0738    2.6576 H   0  0  0  0  0  0  0  0  0  0  0  0
    1.1426   -1.8689    2.3200 H   0  0  0  0  0  0  0  0  0  0  0  0
  1  2  1  0
  2  3  1  0
  3  4  2  0
  4  5  1  0
  5  6  2  0
  6  7  1  0
  7  8  1  0
  8  9  2  0
  9 10  1  0
  9 11  1  0
 11 12  2  0
 12 13  1  0
 13 14  2  0
 14 15  1  0
 14 16  1  0
 16 17  2  0
 17 18  1  0
 18 19  1  0
 18 20  2  0
 20 21  1  0
 21 22  2  0
 22  3  1  0
 21  6  1  0
 20  8  1  0
 17 11  1  0
  1 23  1  0
  1 24  1  0
  1 25  1  0
  4 26  1  0
  5 27  1  0
  7 28  1  0
 10 29  1  0
 10 30  1  0
 10 31  1  0
 12 32  1  0
 13 33  1  0
 15 34  1  0
 15 35  1  0
 15 36  1  0
 16 37  1  0
 19 38  1  0
 19 39  1  0
 19 40  1  0
 22 41  1  0
M  CHG  1  14   1
M  END
$$$$
