
     RDKit          3D

 49 51  0  0  0  0  0  0  0  0999 V2000
   -6.4770    0.9603    2.4050 C   0  0  0  0  0  0  0  0  0  0  0  0
   -5.0585    0.8914    2.4091 O   0  0  0  0  0  0  0  0  0  0  0  0
   -4.4567    0.1331    1.4366 C   0  0  0  0  0  0  0  0  0  0  0  0
   -5.1432   -0.6274    0.4846 C   0  0  0  0  0  0  0  0  0  0  0  0
   -4.4414   -1.3702   -0.4714 C   0  0  0  0  0  0  0  0  0  0  0  0
   -3.0447   -1.3650   -0.4887 C   0  0  0  0  0  0  0  0  0  0  0  0
   -2.3323   -2.1975   -1.4660 C   0  0  0  0  0  0  0  0  0  0  0  0
   -1.3436   -1.8052   -2.2832 C   0  0  0  0  0  0  0  0  0  0  0  0
   -0.4905   -2.9089   -3.3050 S   0  0  0  0  0  0  0  0  0  0  0  0
    0.6931   -1.7006   -3.7609 C   0  0  0  0  0  0  0  0  0  0  0  0
    1.6232   -1.9360   -4.5168 O   0  0  0  0  0  0  0  0  0  0  0  0
    0.4054   -0.5066   -3.1609 N   0  0  0  0  0  0  0  0  0  0  0  0
    1.2293    0.6728   -3.3735 C   0  0  0  0  0  0  0  0  0  0  0  0
    2.6373    0.5536   -2.7872 C   0  0  0  0  0  0  0  0  0  0  0  0
    2.6517    0.4442   -1.2709 C   0  0  0  0  0  0  0  0  0  0  0  0
    1.6220    0.3665   -0.6119 O   0  0  0  0  0  0  0  0  0  0  0  0
    3.9465    0.4206   -0.7779 N   0  0  0  0  0  0  0  0  0  0  0  0
    4.3507    0.3410    0.5715 C   0  0  0  0  0  0  0  0  0  0  0  0
    5.7283    0.2824    0.8233 C   0  0  0  0  0  0  0  0  0  0  0  0
    6.2132    0.2011    2.1317 C   0  0  0  0  0  0  0  0  0  0  0  0
    5.3242    0.1847    3.2029 C   0  0  0  0  0  0  0  0  0  0  0  0
    3.9529    0.2454    2.9634 C   0  0  0  0  0  0  0  0  0  0  0  0
    3.4680    0.3231    1.6533 C   0  0  0  0  0  0  0  0  0  0  0  0
   -0.7762   -0.4354   -2.4552 C   0  0  0  0  0  0  0  0  0  0  0  0
   -1.3191    0.5940   -2.0822 O   0  0  0  0  0  0  0  0  0  0  0  0
   -2.3554   -0.6251    0.4799 C   0  0  0  0  0  0  0  0  0  0  0  0
   -3.0502    0.1452    1.4206 C   0  0  0  0  0  0  0  0  0  0  0  0
   -2.4198    0.9010    2.3811 O   0  0  0  0  0  0  0  0  0  0  0  0
   -1.1543    1.4380    2.0001 C   0  0  0  0  0  0  0  0  0  0  0  0
   -6.7835    1.6223    3.2212 H   0  0  0  0  0  0  0  0  0  0  0  0
   -6.8490    1.3919    1.4702 H   0  0  0  0  0  0  0  0  0  0  0  0
   -6.9208   -0.0229    2.5924 H   0  0  0  0  0  0  0  0  0  0  0  0
   -6.2266   -0.6647    0.4578 H   0  0  0  0  0  0  0  0  0  0  0  0
   -5.0003   -1.9507   -1.2017 H   0  0  0  0  0  0  0  0  0  0  0  0
   -2.6510   -3.2387   -1.4703 H   0  0  0  0  0  0  0  0  0  0  0  0
    0.7317    1.5579   -2.9621 H   0  0  0  0  0  0  0  0  0  0  0  0
    1.3141    0.8177   -4.4574 H   0  0  0  0  0  0  0  0  0  0  0  0
    3.1582   -0.3185   -3.1961 H   0  0  0  0  0  0  0  0  0  0  0  0
    3.2083    1.4468   -3.0671 H   0  0  0  0  0  0  0  0  0  0  0  0
    4.6963    0.4386   -1.4584 H   0  0  0  0  0  0  0  0  0  0  0  0
    6.4463    0.2943    0.0075 H   0  0  0  0  0  0  0  0  0  0  0  0
    7.2833    0.1543    2.3136 H   0  0  0  0  0  0  0  0  0  0  0  0
    5.6963    0.1224    4.2222 H   0  0  0  0  0  0  0  0  0  0  0  0
    3.2532    0.2280    3.7952 H   0  0  0  0  0  0  0  0  0  0  0  0
    2.3925    0.3659    1.5171 H   0  0  0  0  0  0  0  0  0  0  0  0
   -1.2698   -0.6542    0.4947 H   0  0  0  0  0  0  0  0  0  0  0  0
   -0.3715    0.6760    2.0810 H   0  0  0  0  0  0  0  0  0  0  0  0
   -1.1814    1.8722    0.9942 H   0  0  0  0  0  0  0  0  0  0  0  0
   -0.9089    2.2409    2.7027 H   0  0  0  0  0  0  0  0  0  0  0  0
  1  2  1  0
  2  3  1  0
  3  4  2  0
  4  5  1  0
  5  6  2  0
  6  7  1  0
  7  8  2  3
  8  9  1  0
  9 10  1  0
 10 11  2  0
 10 12  1  0
 12 13  1  0
 13 14  1  0
 14 15  1  0
 15 16  2  0
 15 17  1  0
 17 18  1  0
 18 19  2  0
 19 20  1  0
 20 21  2  0
 21 22  1  0
 22 23  2  0
 12 24  1  0
 24 25  2  0
  6 26  1  0
 26 27  2  0
 27 28  1  0
 28 29  1  0
 27  3  1  0
 24  8  1  0
 23 18  1  0
  1 30  1  0
  1 31  1  0
  1 32  1  0
  4 33  1  0
  5 34  1  0
  7 35  1  0
 13 36  1  0
 13 37  1  0
 14 38  1  0
 14 39  1  0
 17 40  1  0
 19 41  1  0
 20 42  1  0
 21 43  1  0
 22 44  1  0
 23 45  1  0
 26 46  1  0
 29 47  1  0
 29 48  1  0
 29 49  1  0
M  END
$$$$
