
     RDKit          3D

 22 23  0  0  0  0  0  0  0  0999 V2000
   -2.5860    1.1922    1.1006 C   0  0  0  0  0  0  0  0  0  0  0  0
   -2.9445    0.2858    0.1794 C   0  0  0  0  0  0  0  0  0  0  0  0
   -2.0759   -0.7005   -0.5631 C   0  0  0  0  0  0  0  0  0  0  0  0
   -0.6738   -0.6442   -0.1479 N   0  0  0  0  0  0  0  0  0  0  0  0
   -0.2006   -1.4212    0.9304 C   0  0  0  0  0  0  0  0  0  0  0  0
   -1.0892   -2.4984    1.8662 S   0  0  0  0  0  0  0  0  0  0  0  0
    1.1286   -1.2935    1.2631 N   0  0  0  0  0  0  0  0  0  0  0  0
    1.9238   -0.4473    0.5596 C   0  0  0  0  0  0  0  0  0  0  0  0
    3.5430   -0.2862    0.9681 S   0  0  0  0  0  0  0  0  0  0  0  0
    3.7669    0.8570   -0.3007 C   0  0  0  0  0  0  0  0  0  0  0  0
    2.5967    1.0841   -1.0031 C   0  0  0  0  0  0  0  0  0  0  0  0
    1.5115    0.3111   -0.4899 C   0  0  0  0  0  0  0  0  0  0  0  0
    0.1303    0.2345   -0.9124 C   0  0  0  0  0  0  0  0  0  0  0  0
   -0.2710    0.8920   -1.8688 O   0  0  0  0  0  0  0  0  0  0  0  0
   -3.3315    1.8416    1.5509 H   0  0  0  0  0  0  0  0  0  0  0  0
   -1.5618    1.3216    1.4328 H   0  0  0  0  0  0  0  0  0  0  0  0
   -3.9990    0.2364   -0.0898 H   0  0  0  0  0  0  0  0  0  0  0  0
   -2.1603   -0.4955   -1.6367 H   0  0  0  0  0  0  0  0  0  0  0  0
   -2.4754   -1.7090   -0.4191 H   0  0  0  0  0  0  0  0  0  0  0  0
    1.5090   -1.8297    2.0341 H   0  0  0  0  0  0  0  0  0  0  0  0
    4.7391    1.3014   -0.4664 H   0  0  0  0  0  0  0  0  0  0  0  0
    2.5200    1.7678   -1.8408 H   0  0  0  0  0  0  0  0  0  0  0  0
  1  2  2  0
  2  3  1  0
  3  4  1  0
  4  5  1  0
  5  6  2  0
  5  7  1  0
  7  8  1  0
  8  9  1  0
  9 10  1  0
 10 11  2  0
 11 12  1  0
 12 13  1  0
 13 14  2  0
 13  4  1  0
 12  8  2  0
  1 15  1  0
  1 16  1  0
  2 17  1  0
  3 18  1  0
  3 19  1  0
  7 20  1  0
 10 21  1  0
 11 22  1  0
M  END
$$$$
