
     RDKit          3D

 43 44  0  0  0  0  0  0  0  0999 V2000
   -5.5258    3.1070   -1.5791 C   0  0  0  0  0  0  0  0  0  0  0  0
   -6.2760    1.9470   -1.2527 O   0  0  0  0  0  0  0  0  0  0  0  0
   -5.6400    0.9695   -0.5318 C   0  0  0  0  0  0  0  0  0  0  0  0
   -4.3877    1.1090    0.0764 C   0  0  0  0  0  0  0  0  0  0  0  0
   -3.8123    0.0473    0.7941 C   0  0  0  0  0  0  0  0  0  0  0  0
   -2.5060    0.2530    1.4338 C   0  0  0  0  0  0  0  0  0  0  0  0
   -1.5442   -0.6794    1.4798 C   0  0  0  0  0  0  0  0  0  0  0  0
   -0.2359   -0.3735    2.1266 C   0  0  0  0  0  0  0  0  0  0  0  0
    0.0190    0.7438    2.5730 O   0  0  0  0  0  0  0  0  0  0  0  0
    0.7729   -1.4851    2.1938 C   0  0  0  0  0  0  0  0  0  0  0  0
    1.4985   -1.6583    0.8898 C   0  0  0  0  0  0  0  0  0  0  0  0
    1.0116   -2.3249   -0.0221 O   0  0  0  0  0  0  0  0  0  0  0  0
    2.8100   -0.9654    0.7413 C   0  0  0  0  0  0  0  0  0  0  0  0
    3.5452   -1.1578   -0.3634 C   0  0  0  0  0  0  0  0  0  0  0  0
    4.8419   -0.5169   -0.6228 C   0  0  0  0  0  0  0  0  0  0  0  0
    5.7560   -0.2129    0.3967 C   0  0  0  0  0  0  0  0  0  0  0  0
    6.9954    0.3604    0.0967 C   0  0  0  0  0  0  0  0  0  0  0  0
    7.3241    0.6261   -1.2272 C   0  0  0  0  0  0  0  0  0  0  0  0
    8.5279    1.1694   -1.5649 O   0  0  0  0  0  0  0  0  0  0  0  0
    6.4373    0.3257   -2.2523 C   0  0  0  0  0  0  0  0  0  0  0  0
    5.2035   -0.2536   -1.9515 C   0  0  0  0  0  0  0  0  0  0  0  0
   -4.5214   -1.1530    0.9228 C   0  0  0  0  0  0  0  0  0  0  0  0
   -5.7733   -1.3042    0.3253 C   0  0  0  0  0  0  0  0  0  0  0  0
   -6.3232   -0.2465   -0.3973 C   0  0  0  0  0  0  0  0  0  0  0  0
   -7.5497   -0.3955   -0.9882 O   0  0  0  0  0  0  0  0  0  0  0  0
   -5.2908    3.6892   -0.6819 H   0  0  0  0  0  0  0  0  0  0  0  0
   -4.6183    2.8494   -2.1321 H   0  0  0  0  0  0  0  0  0  0  0  0
   -6.1458    3.7322   -2.2276 H   0  0  0  0  0  0  0  0  0  0  0  0
   -3.8352    2.0393    0.0009 H   0  0  0  0  0  0  0  0  0  0  0  0
   -2.3362    1.2409    1.8586 H   0  0  0  0  0  0  0  0  0  0  0  0
   -1.6599   -1.6624    1.0386 H   0  0  0  0  0  0  0  0  0  0  0  0
    1.4801   -1.2817    3.0046 H   0  0  0  0  0  0  0  0  0  0  0  0
    0.2802   -2.4270    2.4587 H   0  0  0  0  0  0  0  0  0  0  0  0
    3.1143   -0.3027    1.5427 H   0  0  0  0  0  0  0  0  0  0  0  0
    3.1755   -1.8085   -1.1569 H   0  0  0  0  0  0  0  0  0  0  0  0
    5.5269   -0.4341    1.4355 H   0  0  0  0  0  0  0  0  0  0  0  0
    7.6874    0.5807    0.9041 H   0  0  0  0  0  0  0  0  0  0  0  0
    9.0352    1.3371   -0.7531 H   0  0  0  0  0  0  0  0  0  0  0  0
    6.7077    0.5312   -3.2844 H   0  0  0  0  0  0  0  0  0  0  0  0
    4.5238   -0.4949   -2.7677 H   0  0  0  0  0  0  0  0  0  0  0  0
   -4.1149   -1.9802    1.4980 H   0  0  0  0  0  0  0  0  0  0  0  0
   -6.3009   -2.2479    0.4350 H   0  0  0  0  0  0  0  0  0  0  0  0
   -7.8769   -1.2919   -0.8203 H   0  0  0  0  0  0  0  0  0  0  0  0
  1  2  1  0
  2  3  1  0
  3  4  2  0
  4  5  1  0
  5  6  1  0
  6  7  2  3
  7  8  1  0
  8  9  2  0
  8 10  1  0
 10 11  1  0
 11 12  2  0
 11 13  1  0
 13 14  2  3
 14 15  1  0
 15 16  2  0
 16 17  1  0
 17 18  2  0
 18 19  1  0
 18 20  1  0
 20 21  2  0
  5 22  2  0
 22 23  1  0
 23 24  2  0
 24 25  1  0
 24  3  1  0
 21 15  1  0
  1 26  1  0
  1 27  1  0
  1 28  1  0
  4 29  1  0
  6 30  1  0
  7 31  1  0
 10 32  1  0
 10 33  1  0
 13 34  1  0
 14 35  1  0
 16 36  1  0
 17 37  1  0
 19 38  1  0
 20 39  1  0
 21 40  1  0
 22 41  1  0
 23 42  1  0
 25 43  1  0
M  END
$$$$
