
     RDKit          3D

 48 50  0  0  0  0  0  0  0  0999 V2000
    3.5071   -4.3736   -0.6841 C   0  0  0  0  0  0  0  0  0  0  0  0
    3.3524   -2.9620   -0.7064 O   0  0  0  0  0  0  0  0  0  0  0  0
    2.2970   -2.4242   -0.0126 C   0  0  0  0  0  0  0  0  0  0  0  0
    1.3634   -3.1742    0.7112 C   0  0  0  0  0  0  0  0  0  0  0  0
    0.3199   -2.5382    1.3866 C   0  0  0  0  0  0  0  0  0  0  0  0
    0.2075   -1.1488    1.3405 C   0  0  0  0  0  0  0  0  0  0  0  0
   -0.8893   -0.4564    2.0436 C   0  0  0  0  0  0  0  0  0  0  0  0
   -1.7817   -1.1003    2.7306 N   0  0  0  0  0  0  0  0  0  0  0  0
   -2.7257   -0.2810    3.2908 N   0  0  0  0  0  0  0  0  0  0  0  0
   -3.9315    0.0012    2.7120 C   0  0  0  0  0  0  0  0  0  0  0  0
   -4.9676    0.4043    3.4190 N   0  0  0  0  0  0  0  0  0  0  0  0
   -6.0335    0.6286    2.5936 C   0  0  0  0  0  0  0  0  0  0  0  0
   -7.2092    1.0485    3.0759 O   0  0  0  0  0  0  0  0  0  0  0  0
   -5.8418    0.3988    1.2529 C   0  0  0  0  0  0  0  0  0  0  0  0
   -6.8008    0.5474    0.1222 C   0  0  0  0  0  0  0  0  0  0  0  0
   -6.9208    1.9944   -0.2897 C   0  0  0  0  0  0  0  0  0  0  0  0
   -6.1856    2.9273   -0.0119 O   0  0  0  0  0  0  0  0  0  0  0  0
   -7.9789    2.1970   -1.1068 O   0  0  0  0  0  0  0  0  0  0  0  0
   -4.2302   -0.1249    1.0112 S   0  0  0  0  0  0  0  0  0  0  0  0
    1.1325   -0.3856    0.6211 C   0  0  0  0  0  0  0  0  0  0  0  0
    2.1801   -1.0178   -0.0585 C   0  0  0  0  0  0  0  0  0  0  0  0
    3.1385   -0.3626   -0.7921 O   0  0  0  0  0  0  0  0  0  0  0  0
    3.0562    1.0545   -0.8899 C   0  0  0  0  0  0  0  0  0  0  0  0
    4.1850    1.5334   -1.7713 C   0  0  0  0  0  0  0  0  0  0  0  0
    5.3256    2.1319   -1.2154 C   0  0  0  0  0  0  0  0  0  0  0  0
    6.3689    2.5650   -2.0376 C   0  0  0  0  0  0  0  0  0  0  0  0
    6.2797    2.3952   -3.4181 C   0  0  0  0  0  0  0  0  0  0  0  0
    7.5653    2.9297   -4.4295 Cl  0  0  0  0  0  0  0  0  0  0  0  0
    5.1586    1.7918   -3.9842 C   0  0  0  0  0  0  0  0  0  0  0  0
    4.1157    1.3586   -3.1625 C   0  0  0  0  0  0  0  0  0  0  0  0
    2.6471   -4.8721   -1.1427 H   0  0  0  0  0  0  0  0  0  0  0  0
    3.6792   -4.7365    0.3343 H   0  0  0  0  0  0  0  0  0  0  0  0
    4.3911   -4.6226   -1.2789 H   0  0  0  0  0  0  0  0  0  0  0  0
    1.4182   -4.2562    0.7697 H   0  0  0  0  0  0  0  0  0  0  0  0
   -0.4007   -3.1330    1.9438 H   0  0  0  0  0  0  0  0  0  0  0  0
   -0.9210    0.6459    1.9582 H   0  0  0  0  0  0  0  0  0  0  0  0
   -2.8429   -0.4223    4.2943 H   0  0  0  0  0  0  0  0  0  0  0  0
   -7.0805    1.1545    4.0346 H   0  0  0  0  0  0  0  0  0  0  0  0
   -6.4861   -0.0342   -0.7510 H   0  0  0  0  0  0  0  0  0  0  0  0
   -7.7883    0.1895    0.4355 H   0  0  0  0  0  0  0  0  0  0  0  0
   -7.9409    3.1573   -1.3018 H   0  0  0  0  0  0  0  0  0  0  0  0
    1.0175    0.6923    0.6041 H   0  0  0  0  0  0  0  0  0  0  0  0
    3.1431    1.5116    0.1034 H   0  0  0  0  0  0  0  0  0  0  0  0
    2.1041    1.3606   -1.3416 H   0  0  0  0  0  0  0  0  0  0  0  0
    5.4128    2.2580   -0.1381 H   0  0  0  0  0  0  0  0  0  0  0  0
    7.2478    3.0269   -1.5954 H   0  0  0  0  0  0  0  0  0  0  0  0
    5.0925    1.6493   -5.0595 H   0  0  0  0  0  0  0  0  0  0  0  0
    3.2500    0.8729   -3.6096 H   0  0  0  0  0  0  0  0  0  0  0  0
  1  2  1  0
  2  3  1  0
  3  4  2  0
  4  5  1  0
  5  6  2  0
  6  7  1  0
  7  8  2  3
  8  9  1  0
  9 10  1  0
 10 11  2  0
 11 12  1  0
 12 13  1  0
 12 14  2  0
 14 15  1  0
 15 16  1  0
 16 17  2  0
 16 18  1  0
 14 19  1  0
  6 20  1  0
 20 21  2  0
 21 22  1  0
 22 23  1  0
 23 24  1  0
 24 25  2  0
 25 26  1  0
 26 27  2  0
 27 28  1  0
 27 29  1  0
 29 30  2  0
 21  3  1  0
 30 24  1  0
 19 10  1  0
  1 31  1  0
  1 32  1  0
  1 33  1  0
  4 34  1  0
  5 35  1  0
  7 36  1  0
  9 37  1  0
 13 38  1  0
 15 39  1  0
 15 40  1  0
 18 41  1  0
 20 42  1  0
 23 43  1  0
 23 44  1  0
 25 45  1  0
 26 46  1  0
 29 47  1  0
 30 48  1  0
M  END
$$$$
