
     RDKit          3D

 52 54  0  0  0  0  0  0  0  0999 V2000
   -3.1482   -1.0212    2.3384 C   0  0  0  0  0  0  0  0  0  0  0  0
   -2.5669   -2.3108    1.7796 C   0  0  0  0  0  0  0  0  0  0  0  0
   -1.9958   -2.1786    0.3626 C   0  0  0  0  0  0  0  0  0  0  0  0
   -3.0353   -1.7039   -0.6603 C   0  0  0  0  0  0  0  0  0  0  0  0
   -2.7052   -1.9159   -2.1564 C   0  0  0  0  0  0  0  0  0  0  0  0
   -2.2597   -3.3458   -2.5172 C   0  0  0  0  0  0  0  0  0  0  0  0
   -3.2504   -4.4245   -2.0972 C   0  0  0  0  0  0  0  0  0  0  0  0
   -1.7996   -0.8230   -2.7904 C   0  0  0  0  0  0  0  0  0  0  0  0
   -0.4372   -0.7002   -2.2629 N   0  0  0  0  0  0  0  0  0  0  0  0
   -0.1966    0.2465   -1.2717 C   0  0  0  0  0  0  0  0  0  0  0  0
   -1.0404    1.0110   -0.8264 O   0  0  0  0  0  0  0  0  0  0  0  0
    1.2406    0.2390   -0.8677 C   0  0  0  0  0  0  0  0  0  0  0  0
    1.8831    0.9160    0.0982 C   0  0  0  0  0  0  0  0  0  0  0  0
    1.3999    1.8238    1.0877 C   0  0  0  0  0  0  0  0  0  0  0  0
    0.1598    1.8410    1.6772 C   0  0  0  0  0  0  0  0  0  0  0  0
    0.1629    2.8879    2.5471 N   0  0  0  0  0  0  0  0  0  0  0  0
    1.3343    3.5326    2.6066 N   0  0  0  0  0  0  0  0  0  0  0  0
    2.1183    2.8812    1.7322 C   0  0  0  0  0  0  0  0  0  0  0  0
    3.5036    3.2941    1.5346 C   0  0  0  0  0  0  0  0  0  0  0  0
    3.7896    4.5717    1.0398 C   0  0  0  0  0  0  0  0  0  0  0  0
    5.1133    4.9629    0.8245 C   0  0  0  0  0  0  0  0  0  0  0  0
    6.1566    4.0831    1.1122 C   0  0  0  0  0  0  0  0  0  0  0  0
    5.8799    2.8158    1.6244 C   0  0  0  0  0  0  0  0  0  0  0  0
    4.5571    2.4222    1.8388 C   0  0  0  0  0  0  0  0  0  0  0  0
    2.1089   -0.8365   -1.9121 S   0  0  0  0  0  0  0  0  0  0  0  0
    0.6776   -1.2948   -2.8171 C   0  0  0  0  0  0  0  0  0  0  0  0
    0.7890   -2.2878   -4.1546 S   0  0  0  0  0  0  0  0  0  0  0  0
   -4.0251   -0.6961    1.7706 H   0  0  0  0  0  0  0  0  0  0  0  0
   -3.4623   -1.1677    3.3757 H   0  0  0  0  0  0  0  0  0  0  0  0
   -2.4069   -0.2190    2.3211 H   0  0  0  0  0  0  0  0  0  0  0  0
   -1.7658   -2.6542    2.4454 H   0  0  0  0  0  0  0  0  0  0  0  0
   -3.3404   -3.0875    1.7911 H   0  0  0  0  0  0  0  0  0  0  0  0
   -1.5961   -3.1578    0.0848 H   0  0  0  0  0  0  0  0  0  0  0  0
   -1.1486   -1.4914    0.3947 H   0  0  0  0  0  0  0  0  0  0  0  0
   -3.9771   -2.2304   -0.4561 H   0  0  0  0  0  0  0  0  0  0  0  0
   -3.2539   -0.6422   -0.4939 H   0  0  0  0  0  0  0  0  0  0  0  0
   -3.6697   -1.7771   -2.6704 H   0  0  0  0  0  0  0  0  0  0  0  0
   -1.2824   -3.5714   -2.0805 H   0  0  0  0  0  0  0  0  0  0  0  0
   -2.1465   -3.4144   -3.6059 H   0  0  0  0  0  0  0  0  0  0  0  0
   -4.2467   -4.2240   -2.5027 H   0  0  0  0  0  0  0  0  0  0  0  0
   -2.9221   -5.3979   -2.4748 H   0  0  0  0  0  0  0  0  0  0  0  0
   -3.3298   -4.5017   -1.0093 H   0  0  0  0  0  0  0  0  0  0  0  0
   -1.7483   -0.9915   -3.8725 H   0  0  0  0  0  0  0  0  0  0  0  0
   -2.3053    0.1452   -2.6741 H   0  0  0  0  0  0  0  0  0  0  0  0
    2.9621    0.7674    0.1381 H   0  0  0  0  0  0  0  0  0  0  0  0
   -0.7226    1.2328    1.5579 H   0  0  0  0  0  0  0  0  0  0  0  0
   -0.5959    3.2133    3.1368 H   0  0  0  0  0  0  0  0  0  0  0  0
    2.9794    5.2638    0.8209 H   0  0  0  0  0  0  0  0  0  0  0  0
    5.3288    5.9542    0.4356 H   0  0  0  0  0  0  0  0  0  0  0  0
    7.1871    4.3883    0.9438 H   0  0  0  0  0  0  0  0  0  0  0  0
    6.6946    2.1361    1.8611 H   0  0  0  0  0  0  0  0  0  0  0  0
    4.3544    1.4376    2.2536 H   0  0  0  0  0  0  0  0  0  0  0  0
  1  2  1  0
  2  3  1  0
  3  4  1  0
  4  5  1  0
  5  6  1  0
  6  7  1  0
  5  8  1  0
  8  9  1  0
  9 10  1  0
 10 11  2  0
 10 12  1  0
 12 13  2  3
 13 14  1  0
 14 15  2  0
 15 16  1  0
 16 17  1  0
 17 18  2  0
 18 19  1  0
 19 20  2  0
 20 21  1  0
 21 22  2  0
 22 23  1  0
 23 24  2  0
 12 25  1  0
 25 26  1  0
 26 27  2  0
 26  9  1  0
 18 14  1  0
 24 19  1  0
  1 28  1  0
  1 29  1  0
  1 30  1  0
  2 31  1  0
  2 32  1  0
  3 33  1  0
  3 34  1  0
  4 35  1  0
  4 36  1  0
  5 37  1  0
  6 38  1  0
  6 39  1  0
  7 40  1  0
  7 41  1  0
  7 42  1  0
  8 43  1  0
  8 44  1  0
 13 45  1  0
 15 46  1  0
 16 47  1  0
 20 48  1  0
 21 49  1  0
 22 50  1  0
 23 51  1  0
 24 52  1  0
M  END
$$$$
