
     RDKit          3D

 54 56  0  0  0  0  0  0  0  0999 V2000
    0.1864   -2.7195    1.9873 N   0  0  0  0  0  0  0  0  0  0  0  0
   -1.0232   -2.2976    1.5770 C   0  0  0  0  0  0  0  0  0  0  0  0
   -2.0336   -3.0931    1.4009 N   0  0  0  0  0  0  0  0  0  0  0  0
   -3.1368   -2.1768    0.9994 C   0  0  0  0  0  0  0  0  0  0  0  0
   -2.4900   -0.8119    0.6801 C   0  0  0  0  0  0  0  0  0  0  0  0
   -2.3555   -0.5584   -0.8317 C   0  0  0  0  0  0  0  0  0  0  0  0
   -3.6709   -0.2457   -1.5066 C   0  0  0  0  0  0  0  0  0  0  0  0
   -4.2721   -1.1814   -2.3600 C   0  0  0  0  0  0  0  0  0  0  0  0
   -5.4891   -0.8954   -2.9792 C   0  0  0  0  0  0  0  0  0  0  0  0
   -6.1164    0.3295   -2.7534 C   0  0  0  0  0  0  0  0  0  0  0  0
   -5.5259    1.2691   -1.9102 C   0  0  0  0  0  0  0  0  0  0  0  0
   -4.3083    0.9850   -1.2903 C   0  0  0  0  0  0  0  0  0  0  0  0
   -1.1521   -0.9742    1.2739 N   0  0  0  0  0  0  0  0  0  0  0  0
   -0.7073    0.0608    2.2098 C   0  0  0  0  0  0  0  0  0  0  0  0
   -0.2634    1.3288    1.4740 C   0  0  0  0  0  0  0  0  0  0  0  0
    0.9329    1.1358    0.5304 C   0  0  0  0  0  0  0  0  0  0  0  0
    2.2313    0.7889    1.2698 C   0  0  0  0  0  0  0  0  0  0  0  0
    3.4861    0.6781    0.3809 C   0  0  0  0  0  0  0  0  0  0  0  0
    3.9701    2.0473   -0.1348 C   0  0  0  0  0  0  0  0  0  0  0  0
    4.8106    1.9562   -1.4123 C   0  0  0  0  0  0  0  0  0  0  0  0
    5.5817    0.6467   -1.4983 C   0  0  0  0  0  0  0  0  0  0  0  0
    4.6517   -0.5683   -1.4916 C   0  0  0  0  0  0  0  0  0  0  0  0
    3.3240   -0.3200   -0.7709 C   0  0  0  0  0  0  0  0  0  0  0  0
    0.2357   -3.7317    1.9578 H   0  0  0  0  0  0  0  0  0  0  0  0
    0.9395   -2.2933    1.4641 H   0  0  0  0  0  0  0  0  0  0  0  0
   -3.8267   -2.0802    1.8454 H   0  0  0  0  0  0  0  0  0  0  0  0
   -3.6907   -2.6043    0.1599 H   0  0  0  0  0  0  0  0  0  0  0  0
   -3.0605   -0.0076    1.1600 H   0  0  0  0  0  0  0  0  0  0  0  0
   -1.6820    0.2889   -1.0121 H   0  0  0  0  0  0  0  0  0  0  0  0
   -1.8716   -1.4145   -1.3215 H   0  0  0  0  0  0  0  0  0  0  0  0
   -3.7965   -2.1422   -2.5480 H   0  0  0  0  0  0  0  0  0  0  0  0
   -5.9465   -1.6272   -3.6410 H   0  0  0  0  0  0  0  0  0  0  0  0
   -7.0634    0.5514   -3.2374 H   0  0  0  0  0  0  0  0  0  0  0  0
   -6.0142    2.2246   -1.7372 H   0  0  0  0  0  0  0  0  0  0  0  0
   -3.8579    1.7335   -0.6415 H   0  0  0  0  0  0  0  0  0  0  0  0
    0.1135   -0.2980    2.8399 H   0  0  0  0  0  0  0  0  0  0  0  0
   -1.5245    0.3089    2.8986 H   0  0  0  0  0  0  0  0  0  0  0  0
   -1.1032    1.7271    0.8921 H   0  0  0  0  0  0  0  0  0  0  0  0
   -0.0139    2.0973    2.2161 H   0  0  0  0  0  0  0  0  0  0  0  0
    0.6975    0.3570   -0.2026 H   0  0  0  0  0  0  0  0  0  0  0  0
    1.0648    2.0662   -0.0335 H   0  0  0  0  0  0  0  0  0  0  0  0
    2.4153    1.5367    2.0520 H   0  0  0  0  0  0  0  0  0  0  0  0
    2.1052   -0.1706    1.7845 H   0  0  0  0  0  0  0  0  0  0  0  0
    4.2814    0.2865    1.0328 H   0  0  0  0  0  0  0  0  0  0  0  0
    3.1355    2.7303   -0.3232 H   0  0  0  0  0  0  0  0  0  0  0  0
    4.5683    2.5193    0.6556 H   0  0  0  0  0  0  0  0  0  0  0  0
    5.5013    2.8060   -1.4589 H   0  0  0  0  0  0  0  0  0  0  0  0
    4.1511    2.0425   -2.2854 H   0  0  0  0  0  0  0  0  0  0  0  0
    6.2704    0.5802   -0.6461 H   0  0  0  0  0  0  0  0  0  0  0  0
    6.2019    0.6286   -2.4020 H   0  0  0  0  0  0  0  0  0  0  0  0
    4.4387   -0.8811   -2.5213 H   0  0  0  0  0  0  0  0  0  0  0  0
    5.1767   -1.4081   -1.0210 H   0  0  0  0  0  0  0  0  0  0  0  0
    2.9267   -1.2745   -0.4057 H   0  0  0  0  0  0  0  0  0  0  0  0
    2.5981    0.0646   -1.4988 H   0  0  0  0  0  0  0  0  0  0  0  0
  1  2  1  0
  2  3  2  0
  3  4  1  0
  4  5  1  0
  5  6  1  0
  6  7  1  0
  7  8  2  0
  8  9  1  0
  9 10  2  0
 10 11  1  0
 11 12  2  0
  5 13  1  0
 13 14  1  0
 14 15  1  0
 15 16  1  0
 16 17  1  0
 17 18  1  0
 18 19  1  0
 19 20  1  0
 20 21  1  0
 21 22  1  0
 22 23  1  0
 13  2  1  0
 23 18  1  0
 12  7  1  0
  1 24  1  0
  1 25  1  0
  4 26  1  0
  4 27  1  0
  5 28  1  0
  6 29  1  0
  6 30  1  0
  8 31  1  0
  9 32  1  0
 10 33  1  0
 11 34  1  0
 12 35  1  0
 14 36  1  0
 14 37  1  0
 15 38  1  0
 15 39  1  0
 16 40  1  0
 16 41  1  0
 17 42  1  0
 17 43  1  0
 18 44  1  0
 19 45  1  0
 19 46  1  0
 20 47  1  0
 20 48  1  0
 21 49  1  0
 21 50  1  0
 22 51  1  0
 22 52  1  0
 23 53  1  0
 23 54  1  0
M  END
$$$$
