
     RDKit          3D

 48 50  0  0  0  0  0  0  0  0999 V2000
    2.4357   -3.9740    0.5596 C   0  0  0  0  0  0  0  0  0  0  0  0
    2.8011   -2.7265   -0.0183 O   0  0  0  0  0  0  0  0  0  0  0  0
    1.8096   -1.7947   -0.1752 C   0  0  0  0  0  0  0  0  0  0  0  0
    0.4429   -2.0892   -0.1208 C   0  0  0  0  0  0  0  0  0  0  0  0
   -0.5112   -1.0746   -0.2579 C   0  0  0  0  0  0  0  0  0  0  0  0
   -0.1039    0.2488   -0.4243 C   0  0  0  0  0  0  0  0  0  0  0  0
   -1.0730    1.3473   -0.6011 C   0  0  0  0  0  0  0  0  0  0  0  0
   -2.2198    1.5351   -0.0166 N   0  0  0  0  0  0  0  0  0  0  0  0
   -2.5673    0.7162    1.0126 N   0  0  0  0  0  0  0  0  0  0  0  0
   -3.8188    0.6144    1.5305 C   0  0  0  0  0  0  0  0  0  0  0  0
   -4.0636   -0.0410    2.6491 N   0  0  0  0  0  0  0  0  0  0  0  0
   -5.4038   -0.0082    2.9211 C   0  0  0  0  0  0  0  0  0  0  0  0
   -5.9041   -0.6118    4.0050 O   0  0  0  0  0  0  0  0  0  0  0  0
   -6.2051    0.6582    2.0245 C   0  0  0  0  0  0  0  0  0  0  0  0
   -7.6831    0.8475    2.0362 C   0  0  0  0  0  0  0  0  0  0  0  0
   -8.0879    1.9192    3.0203 C   0  0  0  0  0  0  0  0  0  0  0  0
   -7.3794    2.6831    3.6547 O   0  0  0  0  0  0  0  0  0  0  0  0
   -9.4335    1.9997    3.1388 O   0  0  0  0  0  0  0  0  0  0  0  0
   -5.2194    1.2897    0.7742 S   0  0  0  0  0  0  0  0  0  0  0  0
    1.2522    0.5536   -0.5111 C   0  0  0  0  0  0  0  0  0  0  0  0
    2.2048   -0.4668   -0.4150 C   0  0  0  0  0  0  0  0  0  0  0  0
    3.5039   -0.0379   -0.5152 O   0  0  0  0  0  0  0  0  0  0  0  0
    4.3253   -0.8293   -1.3772 C   0  0  0  0  0  0  0  0  0  0  0  0
    5.2317    0.1021   -2.1482 C   0  0  0  0  0  0  0  0  0  0  0  0
    4.7127    0.8740   -3.2004 C   0  0  0  0  0  0  0  0  0  0  0  0
    5.5403    1.7363   -3.9220 C   0  0  0  0  0  0  0  0  0  0  0  0
    6.8907    1.8351   -3.5924 C   0  0  0  0  0  0  0  0  0  0  0  0
    7.9134    2.8872   -4.4879 Cl  0  0  0  0  0  0  0  0  0  0  0  0
    7.4184    1.0821   -2.5450 C   0  0  0  0  0  0  0  0  0  0  0  0
    6.5903    0.2195   -1.8227 C   0  0  0  0  0  0  0  0  0  0  0  0
    3.3553   -4.5442    0.7297 H   0  0  0  0  0  0  0  0  0  0  0  0
    1.9441   -3.8334    1.5287 H   0  0  0  0  0  0  0  0  0  0  0  0
    1.8070   -4.5566   -0.1232 H   0  0  0  0  0  0  0  0  0  0  0  0
    0.0838   -3.1047    0.0101 H   0  0  0  0  0  0  0  0  0  0  0  0
   -1.5676   -1.3324   -0.2488 H   0  0  0  0  0  0  0  0  0  0  0  0
   -0.7798    2.1082   -1.3462 H   0  0  0  0  0  0  0  0  0  0  0  0
   -1.8350    0.3778    1.6302 H   0  0  0  0  0  0  0  0  0  0  0  0
   -5.1372   -0.9574    4.4930 H   0  0  0  0  0  0  0  0  0  0  0  0
   -8.1702   -0.0907    2.3280 H   0  0  0  0  0  0  0  0  0  0  0  0
   -8.0550    1.1341    1.0465 H   0  0  0  0  0  0  0  0  0  0  0  0
   -9.5687    2.7269    3.7842 H   0  0  0  0  0  0  0  0  0  0  0  0
    1.5834    1.5786   -0.6573 H   0  0  0  0  0  0  0  0  0  0  0  0
    3.7496   -1.4214   -2.1006 H   0  0  0  0  0  0  0  0  0  0  0  0
    4.9243   -1.5143   -0.7672 H   0  0  0  0  0  0  0  0  0  0  0  0
    3.6576    0.8056   -3.4587 H   0  0  0  0  0  0  0  0  0  0  0  0
    5.1271    2.3251   -4.7362 H   0  0  0  0  0  0  0  0  0  0  0  0
    8.4705    1.1621   -2.2852 H   0  0  0  0  0  0  0  0  0  0  0  0
    7.0118   -0.3585   -1.0024 H   0  0  0  0  0  0  0  0  0  0  0  0
  1  2  1  0
  2  3  1  0
  3  4  2  0
  4  5  1  0
  5  6  2  0
  6  7  1  0
  7  8  2  3
  8  9  1  0
  9 10  1  0
 10 11  2  0
 11 12  1  0
 12 13  1  0
 12 14  2  0
 14 15  1  0
 15 16  1  0
 16 17  2  0
 16 18  1  0
 14 19  1  0
  6 20  1  0
 20 21  2  0
 21 22  1  0
 22 23  1  0
 23 24  1  0
 24 25  2  0
 25 26  1  0
 26 27  2  0
 27 28  1  0
 27 29  1  0
 29 30  2  0
 21  3  1  0
 30 24  1  0
 19 10  1  0
  1 31  1  0
  1 32  1  0
  1 33  1  0
  4 34  1  0
  5 35  1  0
  7 36  1  0
  9 37  1  0
 13 38  1  0
 15 39  1  0
 15 40  1  0
 18 41  1  0
 20 42  1  0
 23 43  1  0
 23 44  1  0
 25 45  1  0
 26 46  1  0
 29 47  1  0
 30 48  1  0
M  END
$$$$
