
     RDKit          3D

 45 48  0  0  0  0  0  0  0  0999 V2000
   -4.4569   -0.4381   -2.2958 C   0  0  0  0  0  0  0  0  0  0  0  0
   -3.7437    0.8347   -1.8358 C   0  0  0  0  0  0  0  0  0  0  0  0
   -4.5295    2.0651   -2.2924 C   0  0  0  0  0  0  0  0  0  0  0  0
   -3.5559    0.8721   -0.3084 C   0  0  0  0  0  0  0  0  0  0  0  0
   -2.6574   -0.1739    0.1810 N   0  0  0  0  0  0  0  0  0  0  0  0
   -1.3200    0.0257   -0.0618 N   0  0  0  0  0  0  0  0  0  0  0  0
   -0.4675   -0.8862    0.3070 C   0  0  0  0  0  0  0  0  0  0  0  0
    0.9938   -0.5748   -0.0110 C   0  0  0  0  0  0  0  0  0  0  0  0
    1.7147   -1.4597   -0.4390 O   0  0  0  0  0  0  0  0  0  0  0  0
    1.2852    0.7426    0.2317 N   0  0  0  0  0  0  0  0  0  0  0  0
    2.4921    1.3657    0.0628 C   0  0  0  0  0  0  0  0  0  0  0  0
    2.6516    2.6563    0.2607 N   0  0  0  0  0  0  0  0  0  0  0  0
    3.9551    3.0590    0.0382 N   0  0  0  0  0  0  0  0  0  0  0  0
    4.7176    2.0458   -0.3065 C   0  0  0  0  0  0  0  0  0  0  0  0
    6.2332    2.2164   -0.6299 C   0  0  0  0  0  0  0  0  0  0  0  0
    7.2602    1.6478    0.3166 C   0  0  0  0  0  0  0  0  0  0  0  0
    7.0692    3.1336    0.2263 C   0  0  0  0  0  0  0  0  0  0  0  0
    3.9134    0.5414   -0.3935 S   0  0  0  0  0  0  0  0  0  0  0  0
   -0.8457   -2.1228    1.0110 C   0  0  0  0  0  0  0  0  0  0  0  0
    0.0780   -3.0713    1.4679 C   0  0  0  0  0  0  0  0  0  0  0  0
   -0.3653   -4.2182    2.1333 C   0  0  0  0  0  0  0  0  0  0  0  0
   -1.7262   -4.4211    2.3514 C   0  0  0  0  0  0  0  0  0  0  0  0
   -2.6474   -3.4737    1.9078 C   0  0  0  0  0  0  0  0  0  0  0  0
   -2.2039   -2.3230    1.2405 C   0  0  0  0  0  0  0  0  0  0  0  0
   -3.1801   -1.3114    0.7929 C   0  0  0  0  0  0  0  0  0  0  0  0
   -4.3781   -1.5064    0.9812 O   0  0  0  0  0  0  0  0  0  0  0  0
   -4.6179   -0.4223   -3.3792 H   0  0  0  0  0  0  0  0  0  0  0  0
   -5.4335   -0.5441   -1.8112 H   0  0  0  0  0  0  0  0  0  0  0  0
   -3.8638   -1.3292   -2.0680 H   0  0  0  0  0  0  0  0  0  0  0  0
   -2.7591    0.8646   -2.3197 H   0  0  0  0  0  0  0  0  0  0  0  0
   -4.0097    2.9863   -2.0079 H   0  0  0  0  0  0  0  0  0  0  0  0
   -5.5292    2.0872   -1.8450 H   0  0  0  0  0  0  0  0  0  0  0  0
   -4.6453    2.0711   -3.3814 H   0  0  0  0  0  0  0  0  0  0  0  0
   -3.1206    1.8330   -0.0061 H   0  0  0  0  0  0  0  0  0  0  0  0
   -4.5266    0.7921    0.1948 H   0  0  0  0  0  0  0  0  0  0  0  0
    0.5175    1.3576    0.4784 H   0  0  0  0  0  0  0  0  0  0  0  0
    6.4608    2.1950   -1.6904 H   0  0  0  0  0  0  0  0  0  0  0  0
    6.9250    1.1536    1.2214 H   0  0  0  0  0  0  0  0  0  0  0  0
    8.1618    1.2244   -0.1109 H   0  0  0  0  0  0  0  0  0  0  0  0
    6.5939    3.6394    1.0601 H   0  0  0  0  0  0  0  0  0  0  0  0
    7.8373    3.7200   -0.2642 H   0  0  0  0  0  0  0  0  0  0  0  0
    1.1480   -2.9519    1.3187 H   0  0  0  0  0  0  0  0  0  0  0  0
    0.3552   -4.9565    2.4797 H   0  0  0  0  0  0  0  0  0  0  0  0
   -2.0702   -5.3144    2.8679 H   0  0  0  0  0  0  0  0  0  0  0  0
   -3.7100   -3.6314    2.0848 H   0  0  0  0  0  0  0  0  0  0  0  0
  1  2  1  0
  2  3  1  0
  2  4  1  0
  4  5  1  0
  5  6  1  0
  6  7  2  0
  7  8  1  0
  8  9  2  0
  8 10  1  0
 10 11  1  0
 11 12  2  0
 12 13  1  0
 13 14  2  0
 14 15  1  0
 15 16  1  0
 16 17  1  0
 14 18  1  0
  7 19  1  0
 19 20  2  0
 20 21  1  0
 21 22  2  0
 22 23  1  0
 23 24  2  0
 24 25  1  0
 25 26  2  0
 25  5  1  0
 18 11  1  0
 24 19  1  0
 17 15  1  0
  1 27  1  0
  1 28  1  0
  1 29  1  0
  2 30  1  0
  3 31  1  0
  3 32  1  0
  3 33  1  0
  4 34  1  0
  4 35  1  0
 10 36  1  0
 15 37  1  0
 16 38  1  0
 16 39  1  0
 17 40  1  0
 17 41  1  0
 20 42  1  0
 21 43  1  0
 22 44  1  0
 23 45  1  0
M  END
$$$$
