
     RDKit          3D

 52 55  0  0  0  0  0  0  0  0999 V2000
   -6.6099   -4.3569   -0.4878 C   0  0  0  0  0  0  0  0  0  0  0  0
   -5.5444   -4.2372   -1.4218 O   0  0  0  0  0  0  0  0  0  0  0  0
   -4.7314   -3.1452   -1.2910 C   0  0  0  0  0  0  0  0  0  0  0  0
   -3.6520   -3.1116   -2.1764 C   0  0  0  0  0  0  0  0  0  0  0  0
   -2.7379   -2.0549   -2.1477 C   0  0  0  0  0  0  0  0  0  0  0  0
   -2.8940   -1.0166   -1.2256 C   0  0  0  0  0  0  0  0  0  0  0  0
   -1.9432    0.0976   -1.2297 C   0  0  0  0  0  0  0  0  0  0  0  0
   -1.0566    0.4088   -0.2711 C   0  0  0  0  0  0  0  0  0  0  0  0
    0.0121    1.7547   -0.4455 S   0  0  0  0  0  0  0  0  0  0  0  0
    0.9739    1.2493    0.9307 C   0  0  0  0  0  0  0  0  0  0  0  0
    2.2313    1.7103    1.1155 C   0  0  0  0  0  0  0  0  0  0  0  0
    3.1767    1.2017    2.0443 C   0  0  0  0  0  0  0  0  0  0  0  0
    3.9889    0.7835    2.7602 N   0  0  0  0  0  0  0  0  0  0  0  0
    2.7613    2.7862    0.2417 C   0  0  0  0  0  0  0  0  0  0  0  0
    2.6516    3.9639    0.5583 O   0  0  0  0  0  0  0  0  0  0  0  0
    3.3758    2.3417   -0.8996 N   0  0  0  0  0  0  0  0  0  0  0  0
    4.0184    3.2618   -1.8097 C   0  0  0  0  0  0  0  0  0  0  0  0
    4.1402    2.6018   -3.1311 C   0  0  0  0  0  0  0  0  0  0  0  0
    3.6820    2.9159   -4.3939 C   0  0  0  0  0  0  0  0  0  0  0  0
    4.1230    1.8773   -5.2489 C   0  0  0  0  0  0  0  0  0  0  0  0
    4.8193    0.9961   -4.4556 C   0  0  0  0  0  0  0  0  0  0  0  0
    4.8313    1.4234   -3.1668 O   0  0  0  0  0  0  0  0  0  0  0  0
    0.3055    0.2631    1.6634 N   0  0  0  0  0  0  0  0  0  0  0  0
    0.5586   -0.0959    3.0270 C   0  0  0  0  0  0  0  0  0  0  0  0
    0.8250    0.8935    3.9871 C   0  0  0  0  0  0  0  0  0  0  0  0
    1.0565    0.5489    5.3216 C   0  0  0  0  0  0  0  0  0  0  0  0
    1.0124   -0.7854    5.7157 C   0  0  0  0  0  0  0  0  0  0  0  0
    0.7251   -1.7751    4.7794 C   0  0  0  0  0  0  0  0  0  0  0  0
    0.4927   -1.4319    3.4450 C   0  0  0  0  0  0  0  0  0  0  0  0
   -0.8287   -0.2882    1.0293 C   0  0  0  0  0  0  0  0  0  0  0  0
   -1.5630   -1.1663    1.4603 O   0  0  0  0  0  0  0  0  0  0  0  0
   -3.9842   -1.0409   -0.3508 C   0  0  0  0  0  0  0  0  0  0  0  0
   -4.8963   -2.1028   -0.3792 C   0  0  0  0  0  0  0  0  0  0  0  0
   -7.3286   -3.5388   -0.6036 H   0  0  0  0  0  0  0  0  0  0  0  0
   -7.1353   -5.2933   -0.6988 H   0  0  0  0  0  0  0  0  0  0  0  0
   -6.2334   -4.4111    0.5392 H   0  0  0  0  0  0  0  0  0  0  0  0
   -3.5200   -3.9190   -2.8923 H   0  0  0  0  0  0  0  0  0  0  0  0
   -1.9061   -2.0572   -2.8473 H   0  0  0  0  0  0  0  0  0  0  0  0
   -1.9841    0.6927   -2.1409 H   0  0  0  0  0  0  0  0  0  0  0  0
    3.5480    1.3557   -1.0566 H   0  0  0  0  0  0  0  0  0  0  0  0
    5.0062    3.5043   -1.4048 H   0  0  0  0  0  0  0  0  0  0  0  0
    3.4350    4.1857   -1.8776 H   0  0  0  0  0  0  0  0  0  0  0  0
    3.1017    3.7877   -4.6628 H   0  0  0  0  0  0  0  0  0  0  0  0
    3.9568    1.7822   -6.3128 H   0  0  0  0  0  0  0  0  0  0  0  0
    5.3390    0.0670   -4.6460 H   0  0  0  0  0  0  0  0  0  0  0  0
    0.8254    1.9485    3.7251 H   0  0  0  0  0  0  0  0  0  0  0  0
    1.2674    1.3239    6.0544 H   0  0  0  0  0  0  0  0  0  0  0  0
    1.1952   -1.0542    6.7532 H   0  0  0  0  0  0  0  0  0  0  0  0
    0.6817   -2.8171    5.0852 H   0  0  0  0  0  0  0  0  0  0  0  0
    0.2768   -2.2290    2.7371 H   0  0  0  0  0  0  0  0  0  0  0  0
   -4.1274   -0.2426    0.3741 H   0  0  0  0  0  0  0  0  0  0  0  0
   -5.7184   -2.0837    0.3279 H   0  0  0  0  0  0  0  0  0  0  0  0
  1  2  1  0
  2  3  1  0
  3  4  2  0
  4  5  1  0
  5  6  2  0
  6  7  1  0
  7  8  2  3
  8  9  1  0
  9 10  1  0
 10 11  2  3
 11 12  1  0
 12 13  3  0
 11 14  1  0
 14 15  2  0
 14 16  1  0
 16 17  1  0
 17 18  1  0
 18 19  2  0
 19 20  1  0
 20 21  2  0
 21 22  1  0
 10 23  1  0
 23 24  1  0
 24 25  2  0
 25 26  1  0
 26 27  2  0
 27 28  1  0
 28 29  2  0
 23 30  1  0
 30 31  2  0
  6 32  1  0
 32 33  2  0
 33  3  1  0
 30  8  1  0
 22 18  1  0
 29 24  1  0
  1 34  1  0
  1 35  1  0
  1 36  1  0
  4 37  1  0
  5 38  1  0
  7 39  1  0
 16 40  1  0
 17 41  1  0
 17 42  1  0
 19 43  1  0
 20 44  1  0
 21 45  1  0
 25 46  1  0
 26 47  1  0
 27 48  1  0
 28 49  1  0
 29 50  1  0
 32 51  1  0
 33 52  1  0
M  END
$$$$
