
     RDKit          3D

 43 46  0  0  0  0  0  0  0  0999 V2000
   -4.0915   -3.0998    0.8149 C   0  0  0  0  0  0  0  0  0  0  0  0
   -3.8569   -1.9287    1.7504 C   0  0  0  0  0  0  0  0  0  0  0  0
   -3.8435   -0.7002    1.0114 O   0  0  0  0  0  0  0  0  0  0  0  0
   -2.6415   -0.3361    0.4836 C   0  0  0  0  0  0  0  0  0  0  0  0
   -1.6099   -0.9895    0.5784 O   0  0  0  0  0  0  0  0  0  0  0  0
   -2.7698    0.9293   -0.2187 C   0  0  0  0  0  0  0  0  0  0  0  0
   -3.9143    1.6982   -0.3989 C   0  0  0  0  0  0  0  0  0  0  0  0
   -3.5230    2.8512   -1.1304 C   0  0  0  0  0  0  0  0  0  0  0  0
   -4.2302    4.2909   -1.7818 S   0  0  0  0  0  0  0  0  0  0  0  0
   -2.6893    4.7754   -2.3710 C   0  0  0  0  0  0  0  0  0  0  0  0
   -1.6730    3.8854   -2.0955 C   0  0  0  0  0  0  0  0  0  0  0  0
   -2.1858    2.7699   -1.3754 C   0  0  0  0  0  0  0  0  0  0  0  0
   -1.7178    1.5928   -0.8296 N   0  0  0  0  0  0  0  0  0  0  0  0
   -0.3324    1.1530   -0.9326 C   0  0  0  0  0  0  0  0  0  0  0  0
    0.4417    1.3391    0.3576 C   0  0  0  0  0  0  0  0  0  0  0  0
    0.1245    2.1624    1.2156 O   0  0  0  0  0  0  0  0  0  0  0  0
    1.6660    0.5131    0.5770 C   0  0  0  0  0  0  0  0  0  0  0  0
    2.2027    0.4494    1.8724 C   0  0  0  0  0  0  0  0  0  0  0  0
    3.3462   -0.3106    2.1299 C   0  0  0  0  0  0  0  0  0  0  0  0
    3.9598   -1.0086    1.0941 C   0  0  0  0  0  0  0  0  0  0  0  0
    3.4504   -0.9204   -0.2052 C   0  0  0  0  0  0  0  0  0  0  0  0
    2.2997   -0.1739   -0.4650 C   0  0  0  0  0  0  0  0  0  0  0  0
    4.0266   -1.5472   -1.2815 O   0  0  0  0  0  0  0  0  0  0  0  0
    5.3537   -1.9952   -0.9781 C   0  0  0  0  0  0  0  0  0  0  0  0
    5.3942   -2.6789    0.3785 C   0  0  0  0  0  0  0  0  0  0  0  0
    5.0642   -1.7522    1.4194 O   0  0  0  0  0  0  0  0  0  0  0  0
   -5.0160   -2.9577    0.2456 H   0  0  0  0  0  0  0  0  0  0  0  0
   -3.2798   -3.1899    0.0862 H   0  0  0  0  0  0  0  0  0  0  0  0
   -4.1626   -4.0359    1.3758 H   0  0  0  0  0  0  0  0  0  0  0  0
   -2.9357   -2.0563    2.3305 H   0  0  0  0  0  0  0  0  0  0  0  0
   -4.6809   -1.8611    2.4683 H   0  0  0  0  0  0  0  0  0  0  0  0
   -4.9091    1.4648   -0.0427 H   0  0  0  0  0  0  0  0  0  0  0  0
   -2.6084    5.7151   -2.9002 H   0  0  0  0  0  0  0  0  0  0  0  0
   -0.6419    4.0353   -2.3869 H   0  0  0  0  0  0  0  0  0  0  0  0
   -0.3594    0.1048   -1.2429 H   0  0  0  0  0  0  0  0  0  0  0  0
    0.1562    1.7318   -1.7231 H   0  0  0  0  0  0  0  0  0  0  0  0
    1.7258    0.9861    2.6913 H   0  0  0  0  0  0  0  0  0  0  0  0
    3.7481   -0.3651    3.1381 H   0  0  0  0  0  0  0  0  0  0  0  0
    1.9369   -0.1334   -1.4868 H   0  0  0  0  0  0  0  0  0  0  0  0
    6.0286   -1.1310   -1.0126 H   0  0  0  0  0  0  0  0  0  0  0  0
    5.6547   -2.6950   -1.7640 H   0  0  0  0  0  0  0  0  0  0  0  0
    6.3999   -3.0604    0.5805 H   0  0  0  0  0  0  0  0  0  0  0  0
    4.6928   -3.5211    0.4255 H   0  0  0  0  0  0  0  0  0  0  0  0
  1  2  1  0
  2  3  1  0
  3  4  1  0
  4  5  2  0
  4  6  1  0
  6  7  2  0
  7  8  1  0
  8  9  1  0
  9 10  1  0
 10 11  2  0
 11 12  1  0
 12 13  1  0
 13 14  1  0
 14 15  1  0
 15 16  2  0
 15 17  1  0
 17 18  2  0
 18 19  1  0
 19 20  2  0
 20 21  1  0
 21 22  2  0
 21 23  1  0
 23 24  1  0
 24 25  1  0
 25 26  1  0
 13  6  1  0
 22 17  1  0
 12  8  2  0
 26 20  1  0
  1 27  1  0
  1 28  1  0
  1 29  1  0
  2 30  1  0
  2 31  1  0
  7 32  1  0
 10 33  1  0
 11 34  1  0
 14 35  1  0
 14 36  1  0
 18 37  1  0
 19 38  1  0
 22 39  1  0
 24 40  1  0
 24 41  1  0
 25 42  1  0
 25 43  1  0
M  END
$$$$
