
     RDKit          3D

 37 39  0  0  0  0  0  0  0  0999 V2000
   -1.0802   -3.3553   -1.6031 C   0  0  0  0  0  0  0  0  0  0  0  0
   -2.2853   -2.6339   -1.3340 O   0  0  0  0  0  0  0  0  0  0  0  0
   -2.1452   -1.2831   -1.6026 C   0  0  0  0  0  0  0  0  0  0  0  0
   -3.0855   -0.7379   -2.4827 C   0  0  0  0  0  0  0  0  0  0  0  0
   -3.0693    0.6240   -2.7784 C   0  0  0  0  0  0  0  0  0  0  0  0
   -2.1314    1.4876   -2.1877 C   0  0  0  0  0  0  0  0  0  0  0  0
   -2.0471    2.8389   -2.4201 O   0  0  0  0  0  0  0  0  0  0  0  0
   -2.9608    3.3946   -3.3562 C   0  0  0  0  0  0  0  0  0  0  0  0
   -1.2161    0.9218   -1.2701 C   0  0  0  0  0  0  0  0  0  0  0  0
    0.0253    1.7002   -0.3609 S   0  0  0  0  0  0  0  0  0  0  0  0
    0.4323    0.2171    0.4267 C   0  0  0  0  0  0  0  0  0  0  0  0
    1.3952    0.1103    1.3951 N   0  0  0  0  0  0  0  0  0  0  0  0
    2.0076    1.2726    2.0228 C   0  0  0  0  0  0  0  0  0  0  0  0
    2.4792    0.9527    3.4395 C   0  0  0  0  0  0  0  0  0  0  0  0
    3.4380   -0.2348    3.4856 C   0  0  0  0  0  0  0  0  0  0  0  0
    3.1519   -1.2692    2.3997 C   0  0  0  0  0  0  0  0  0  0  0  0
    1.7040   -1.2186    1.9210 C   0  0  0  0  0  0  0  0  0  0  0  0
   -0.2567   -0.8138   -0.0139 N   0  0  0  0  0  0  0  0  0  0  0  0
   -1.2041   -0.4393   -0.9598 C   0  0  0  0  0  0  0  0  0  0  0  0
   -0.2796   -3.1173   -0.9005 H   0  0  0  0  0  0  0  0  0  0  0  0
   -0.7422   -3.1878   -2.6361 H   0  0  0  0  0  0  0  0  0  0  0  0
   -1.3057   -4.4209   -1.5017 H   0  0  0  0  0  0  0  0  0  0  0  0
   -3.8322   -1.3858   -2.9400 H   0  0  0  0  0  0  0  0  0  0  0  0
   -3.8120    0.9914   -3.4815 H   0  0  0  0  0  0  0  0  0  0  0  0
   -2.7239    4.4576   -3.4582 H   0  0  0  0  0  0  0  0  0  0  0  0
   -2.8460    2.9381   -4.3440 H   0  0  0  0  0  0  0  0  0  0  0  0
   -3.9898    3.3131   -2.9952 H   0  0  0  0  0  0  0  0  0  0  0  0
    1.3013    2.1073    2.0997 H   0  0  0  0  0  0  0  0  0  0  0  0
    2.8552    1.6085    1.4177 H   0  0  0  0  0  0  0  0  0  0  0  0
    1.6032    0.7295    4.0657 H   0  0  0  0  0  0  0  0  0  0  0  0
    2.9624    1.8327    3.8840 H   0  0  0  0  0  0  0  0  0  0  0  0
    3.3687   -0.7056    4.4746 H   0  0  0  0  0  0  0  0  0  0  0  0
    4.4743    0.1130    3.3843 H   0  0  0  0  0  0  0  0  0  0  0  0
    3.8145   -1.0828    1.5471 H   0  0  0  0  0  0  0  0  0  0  0  0
    3.3961   -2.2717    2.7686 H   0  0  0  0  0  0  0  0  0  0  0  0
    1.0203   -1.4607    2.7408 H   0  0  0  0  0  0  0  0  0  0  0  0
    1.5837   -1.9926    1.1537 H   0  0  0  0  0  0  0  0  0  0  0  0
  1  2  1  0
  2  3  1  0
  3  4  2  0
  4  5  1  0
  5  6  2  0
  6  7  1  0
  7  8  1  0
  6  9  1  0
  9 10  1  0
 10 11  1  0
 11 12  1  0
 12 13  1  0
 13 14  1  0
 14 15  1  0
 15 16  1  0
 16 17  1  0
 11 18  2  0
 18 19  1  0
 19  3  1  0
 19  9  2  0
 17 12  1  0
  1 20  1  0
  1 21  1  0
  1 22  1  0
  4 23  1  0
  5 24  1  0
  8 25  1  0
  8 26  1  0
  8 27  1  0
 13 28  1  0
 13 29  1  0
 14 30  1  0
 14 31  1  0
 15 32  1  0
 15 33  1  0
 16 34  1  0
 16 35  1  0
 17 36  1  0
 17 37  1  0
M  END
$$$$
