
     RDKit          3D

 53 57  0  0  0  0  0  0  0  0999 V2000
    8.4531    0.5884    0.8388 C   0  0  0  0  0  0  0  0  0  0  0  0
    7.6844    0.8064   -0.3376 O   0  0  0  0  0  0  0  0  0  0  0  0
    6.3320    0.6442   -0.2291 C   0  0  0  0  0  0  0  0  0  0  0  0
    5.6160    0.8893   -1.3988 C   0  0  0  0  0  0  0  0  0  0  0  0
    4.2215    0.7612   -1.4302 C   0  0  0  0  0  0  0  0  0  0  0  0
    3.5103    0.3830   -0.2806 C   0  0  0  0  0  0  0  0  0  0  0  0
    2.0783    0.2495   -0.3191 N   0  0  0  0  0  0  0  0  0  0  0  0
    1.3147    0.2599   -1.4769 C   0  0  0  0  0  0  0  0  0  0  0  0
   -0.0167    0.1039   -1.1587 C   0  0  0  0  0  0  0  0  0  0  0  0
   -1.0551    0.0957   -2.1700 C   0  0  0  0  0  0  0  0  0  0  0  0
   -2.0211    1.1088   -2.1907 C   0  0  0  0  0  0  0  0  0  0  0  0
   -3.0407    1.0862   -3.1436 C   0  0  0  0  0  0  0  0  0  0  0  0
   -3.0970    0.0548   -4.0802 C   0  0  0  0  0  0  0  0  0  0  0  0
   -2.1345   -0.9546   -4.0669 C   0  0  0  0  0  0  0  0  0  0  0  0
   -1.1140   -0.9351   -3.1142 C   0  0  0  0  0  0  0  0  0  0  0  0
   -0.1058   -0.0167    0.2561 C   0  0  0  0  0  0  0  0  0  0  0  0
   -1.1515   -0.2076    1.1898 C   0  0  0  0  0  0  0  0  0  0  0  0
   -2.5030   -0.3534    0.7737 N   0  0  0  0  0  0  0  0  0  0  0  0
   -3.4312   -0.9757    1.6595 N   0  0  0  0  0  0  0  0  0  0  0  0
   -3.9230    0.0434    2.6233 C   0  0  0  0  0  0  0  0  0  0  0  0
   -5.3428   -0.2710    3.1134 C   0  0  0  0  0  0  0  0  0  0  0  0
   -6.3158   -0.2528    2.0582 O   0  0  0  0  0  0  0  0  0  0  0  0
   -5.7594   -0.5997    0.7827 C   0  0  0  0  0  0  0  0  0  0  0  0
   -4.5614   -1.5508    0.8950 C   0  0  0  0  0  0  0  0  0  0  0  0
   -0.8252   -0.2269    2.5068 N   0  0  0  0  0  0  0  0  0  0  0  0
    0.4586   -0.0984    2.8610 C   0  0  0  0  0  0  0  0  0  0  0  0
    1.5181    0.0577    2.0615 N   0  0  0  0  0  0  0  0  0  0  0  0
    1.1935    0.0877    0.7532 C   0  0  0  0  0  0  0  0  0  0  0  0
    4.2395    0.1365    0.8900 C   0  0  0  0  0  0  0  0  0  0  0  0
    5.6372    0.2659    0.9154 C   0  0  0  0  0  0  0  0  0  0  0  0
    8.1739    1.2927    1.6295 H   0  0  0  0  0  0  0  0  0  0  0  0
    9.5034    0.7673    0.5894 H   0  0  0  0  0  0  0  0  0  0  0  0
    8.3641   -0.4477    1.1819 H   0  0  0  0  0  0  0  0  0  0  0  0
    6.1476    1.1898   -2.2990 H   0  0  0  0  0  0  0  0  0  0  0  0
    3.7331    0.9907   -2.3715 H   0  0  0  0  0  0  0  0  0  0  0  0
    1.7668    0.3655   -2.4522 H   0  0  0  0  0  0  0  0  0  0  0  0
   -1.9876    1.9200   -1.4657 H   0  0  0  0  0  0  0  0  0  0  0  0
   -3.7884    1.8754   -3.1571 H   0  0  0  0  0  0  0  0  0  0  0  0
   -3.8896    0.0397   -4.8245 H   0  0  0  0  0  0  0  0  0  0  0  0
   -2.1783   -1.7571   -4.7992 H   0  0  0  0  0  0  0  0  0  0  0  0
   -0.3733   -1.7317   -3.1103 H   0  0  0  0  0  0  0  0  0  0  0  0
   -2.5091   -0.6879   -0.1899 H   0  0  0  0  0  0  0  0  0  0  0  0
   -3.9389    1.0387    2.1579 H   0  0  0  0  0  0  0  0  0  0  0  0
   -3.2499    0.0859    3.4858 H   0  0  0  0  0  0  0  0  0  0  0  0
   -5.6561    0.4687    3.8574 H   0  0  0  0  0  0  0  0  0  0  0  0
   -5.3812   -1.2538    3.5985 H   0  0  0  0  0  0  0  0  0  0  0  0
   -5.4794    0.3254    0.2653 H   0  0  0  0  0  0  0  0  0  0  0  0
   -6.5570   -1.0690    0.1977 H   0  0  0  0  0  0  0  0  0  0  0  0
   -4.2487   -1.8909   -0.0997 H   0  0  0  0  0  0  0  0  0  0  0  0
   -4.8837   -2.4510    1.4339 H   0  0  0  0  0  0  0  0  0  0  0  0
    0.6618   -0.1255    3.9269 H   0  0  0  0  0  0  0  0  0  0  0  0
    3.7650   -0.1826    1.8119 H   0  0  0  0  0  0  0  0  0  0  0  0
    6.1461    0.0576    1.8510 H   0  0  0  0  0  0  0  0  0  0  0  0
  1  2  1  0
  2  3  1  0
  3  4  2  0
  4  5  1  0
  5  6  2  0
  6  7  1  0
  7  8  1  0
  8  9  2  0
  9 10  1  0
 10 11  2  0
 11 12  1  0
 12 13  2  0
 13 14  1  0
 14 15  2  0
  9 16  1  0
 16 17  2  0
 17 18  1  0
 18 19  1  0
 19 20  1  0
 20 21  1  0
 21 22  1  0
 22 23  1  0
 23 24  1  0
 17 25  1  0
 25 26  2  0
 26 27  1  0
 27 28  2  0
  6 29  1  0
 29 30  2  0
 30  3  1  0
 28  7  1  0
 15 10  1  0
 28 16  1  0
 24 19  1  0
  1 31  1  0
  1 32  1  0
  1 33  1  0
  4 34  1  0
  5 35  1  0
  8 36  1  0
 11 37  1  0
 12 38  1  0
 13 39  1  0
 14 40  1  0
 15 41  1  0
 18 42  1  0
 20 43  1  0
 20 44  1  0
 21 45  1  0
 21 46  1  0
 23 47  1  0
 23 48  1  0
 24 49  1  0
 24 50  1  0
 26 51  1  0
 29 52  1  0
 30 53  1  0
M  END
$$$$
