
     RDKit          3D

 53 58  0  0  0  0  0  0  0  0999 V2000
    1.4334    0.1162    1.1420 C   0  0  0  0  0  0  0  0  0  0  0  0
    0.6132    0.3265   -0.1405 C   0  0  0  0  0  0  0  0  0  0  0  0
    1.4713    1.0111   -1.2420 C   0  0  0  0  0  0  0  0  0  0  0  0
    1.3134    2.1754   -1.6118 O   0  0  0  0  0  0  0  0  0  0  0  0
    2.5716    0.3828   -1.7515 N   0  0  0  0  0  0  0  0  0  0  0  0
    3.0537   -0.9122   -1.5360 C   0  0  0  0  0  0  0  0  0  0  0  0
    4.4352   -1.0885   -1.7204 C   0  0  0  0  0  0  0  0  0  0  0  0
    5.0320   -2.3311   -1.4976 C   0  0  0  0  0  0  0  0  0  0  0  0
    6.7298   -2.5116   -1.6993 Cl  0  0  0  0  0  0  0  0  0  0  0  0
    4.2624   -3.4242   -1.1113 C   0  0  0  0  0  0  0  0  0  0  0  0
    2.8836   -3.2688   -0.9731 C   0  0  0  0  0  0  0  0  0  0  0  0
    2.2697   -2.0154   -1.1845 C   0  0  0  0  0  0  0  0  0  0  0  0
    0.7934   -2.0107   -1.1980 C   0  0  0  0  0  0  0  0  0  0  0  0
    0.2400   -2.9940   -1.6963 O   0  0  0  0  0  0  0  0  0  0  0  0
    0.0822   -0.9445   -0.6950 N   0  0  0  0  0  0  0  0  0  0  0  0
   -1.3803   -0.9126   -0.8332 C   0  0  0  0  0  0  0  0  0  0  0  0
   -2.1301   -1.6005    0.2990 C   0  0  0  0  0  0  0  0  0  0  0  0
   -1.8001   -2.8952    0.7347 C   0  0  0  0  0  0  0  0  0  0  0  0
   -2.4964   -3.5015    1.7824 C   0  0  0  0  0  0  0  0  0  0  0  0
   -2.0414   -5.0731    2.3190 Cl  0  0  0  0  0  0  0  0  0  0  0  0
   -3.5469   -2.8415    2.4065 C   0  0  0  0  0  0  0  0  0  0  0  0
   -3.8963   -1.5657    1.9802 C   0  0  0  0  0  0  0  0  0  0  0  0
   -3.2010   -0.9565    0.9330 C   0  0  0  0  0  0  0  0  0  0  0  0
   -3.6086    0.3144    0.6379 O   0  0  0  0  0  0  0  0  0  0  0  0
   -3.1638    0.8114   -0.6173 C   0  0  0  0  0  0  0  0  0  0  0  0
   -1.6858    0.5871   -0.8667 C   0  0  0  0  0  0  0  0  0  0  0  0
   -0.7069    1.1279    0.2058 C   0  0  0  0  0  0  0  0  0  0  0  0
   -0.6538    2.6288    0.4206 C   0  0  0  0  0  0  0  0  0  0  0  0
   -0.2104    3.1224    1.6584 C   0  0  0  0  0  0  0  0  0  0  0  0
   -0.1533    4.4939    1.9136 C   0  0  0  0  0  0  0  0  0  0  0  0
   -0.5567    5.4005    0.9407 C   0  0  0  0  0  0  0  0  0  0  0  0
   -1.0099    4.9341   -0.2872 C   0  0  0  0  0  0  0  0  0  0  0  0
   -1.0536    3.5607   -0.5445 C   0  0  0  0  0  0  0  0  0  0  0  0
    1.8204    1.0658    1.5228 H   0  0  0  0  0  0  0  0  0  0  0  0
    0.8304   -0.3493    1.9286 H   0  0  0  0  0  0  0  0  0  0  0  0
    2.3039   -0.5248    1.0033 H   0  0  0  0  0  0  0  0  0  0  0  0
    3.1616    1.0344   -2.2603 H   0  0  0  0  0  0  0  0  0  0  0  0
    5.0632   -0.2517   -2.0114 H   0  0  0  0  0  0  0  0  0  0  0  0
    4.7181   -4.3994   -0.9441 H   0  0  0  0  0  0  0  0  0  0  0  0
    2.2764   -4.1375   -0.7321 H   0  0  0  0  0  0  0  0  0  0  0  0
   -1.6817   -1.3841   -1.7760 H   0  0  0  0  0  0  0  0  0  0  0  0
   -0.9961   -3.4491    0.2668 H   0  0  0  0  0  0  0  0  0  0  0  0
   -4.0926   -3.3101    3.2198 H   0  0  0  0  0  0  0  0  0  0  0  0
   -4.7139   -1.0377    2.4627 H   0  0  0  0  0  0  0  0  0  0  0  0
   -3.7638    0.3428   -1.4062 H   0  0  0  0  0  0  0  0  0  0  0  0
   -3.4003    1.8801   -0.6430 H   0  0  0  0  0  0  0  0  0  0  0  0
   -1.4163    0.9885   -1.8522 H   0  0  0  0  0  0  0  0  0  0  0  0
   -1.0609    0.7467    1.1735 H   0  0  0  0  0  0  0  0  0  0  0  0
    0.0870    2.4415    2.4468 H   0  0  0  0  0  0  0  0  0  0  0  0
    0.2012    4.8498    2.8730 H   0  0  0  0  0  0  0  0  0  0  0  0
   -0.5189    6.4664    1.1324 H   0  0  0  0  0  0  0  0  0  0  0  0
   -1.3226    5.6396   -1.0503 H   0  0  0  0  0  0  0  0  0  0  0  0
   -1.3851    3.2427   -1.5216 H   0  0  0  0  0  0  0  0  0  0  0  0
  1  2  1  0
  2  3  1  0
  3  4  2  0
  3  5  1  0
  5  6  1  0
  6  7  2  0
  7  8  1  0
  8  9  1  0
  8 10  2  0
 10 11  1  0
 11 12  2  0
 12 13  1  0
 13 14  2  0
 13 15  1  0
 15 16  1  0
 16 17  1  0
 17 18  2  0
 18 19  1  0
 19 20  1  0
 19 21  2  0
 21 22  1  0
 22 23  2  0
 23 24  1  0
 24 25  1  0
 25 26  1  0
 26 27  1  0
 27 28  1  0
 28 29  2  0
 29 30  1  0
 30 31  2  0
 31 32  1  0
 32 33  2  0
 15  2  1  0
 26 16  1  0
 33 28  1  0
 27  2  1  0
 12  6  1  0
 23 17  1  0
  1 34  1  0
  1 35  1  0
  1 36  1  0
  5 37  1  0
  7 38  1  0
 10 39  1  0
 11 40  1  0
 16 41  1  0
 18 42  1  0
 21 43  1  0
 22 44  1  0
 25 45  1  0
 25 46  1  0
 26 47  1  0
 27 48  1  0
 29 49  1  0
 30 50  1  0
 31 51  1  0
 32 52  1  0
 33 53  1  0
M  END
$$$$
