
     RDKit          3D

 33 36  0  0  0  0  0  0  0  0999 V2000
    5.2133    0.1195    0.0762 C   0  0  0  0  0  0  0  0  0  0  0  0
    4.7914   -0.9555    0.8472 C   0  0  0  0  0  0  0  0  0  0  0  0
    3.4253   -1.1923    1.0090 C   0  0  0  0  0  0  0  0  0  0  0  0
    2.4717   -0.3746    0.4148 C   0  0  0  0  0  0  0  0  0  0  0  0
    1.1647   -0.6456    0.5968 N   0  0  0  0  0  0  0  0  0  0  0  0
    0.2667    0.1693   -0.0006 C   0  0  0  0  0  0  0  0  0  0  0  0
    0.7211    1.2699   -0.7613 C   0  0  0  0  0  0  0  0  0  0  0  0
    2.0275    1.5478   -0.9646 N   0  0  0  0  0  0  0  0  0  0  0  0
    2.9031    0.7227   -0.3701 C   0  0  0  0  0  0  0  0  0  0  0  0
    4.2654    0.9486   -0.5252 C   0  0  0  0  0  0  0  0  0  0  0  0
   -0.1357    2.1429   -1.3959 O   0  0  0  0  0  0  0  0  0  0  0  0
   -1.4402    2.1298   -0.8047 C   0  0  0  0  0  0  0  0  0  0  0  0
   -1.9880    0.6998   -0.6856 C   0  0  0  0  0  0  0  0  0  0  0  0
   -3.3826    0.7019   -0.0545 C   0  0  0  0  0  0  0  0  0  0  0  0
   -3.9248   -0.7114    0.1790 C   0  0  0  0  0  0  0  0  0  0  0  0
   -2.8546   -1.7970    0.0811 C   0  0  0  0  0  0  0  0  0  0  0  0
   -1.5226   -1.3695    0.6970 C   0  0  0  0  0  0  0  0  0  0  0  0
   -1.0930   -0.0843    0.1618 N   0  0  0  0  0  0  0  0  0  0  0  0
    6.2736    0.3170   -0.0594 H   0  0  0  0  0  0  0  0  0  0  0  0
    5.5178   -1.6098    1.3224 H   0  0  0  0  0  0  0  0  0  0  0  0
    3.0933   -2.0340    1.6121 H   0  0  0  0  0  0  0  0  0  0  0  0
    4.5927    1.7919   -1.1289 H   0  0  0  0  0  0  0  0  0  0  0  0
   -2.0937    2.7282   -1.4491 H   0  0  0  0  0  0  0  0  0  0  0  0
   -1.3924    2.6342    0.1698 H   0  0  0  0  0  0  0  0  0  0  0  0
   -2.0235    0.2463   -1.6855 H   0  0  0  0  0  0  0  0  0  0  0  0
   -4.0855    1.2681   -0.6772 H   0  0  0  0  0  0  0  0  0  0  0  0
   -3.3446    1.2194    0.9138 H   0  0  0  0  0  0  0  0  0  0  0  0
   -4.3993   -0.7494    1.1673 H   0  0  0  0  0  0  0  0  0  0  0  0
   -4.7173   -0.9287   -0.5472 H   0  0  0  0  0  0  0  0  0  0  0  0
   -3.2126   -2.7162    0.5587 H   0  0  0  0  0  0  0  0  0  0  0  0
   -2.6951   -2.0403   -0.9776 H   0  0  0  0  0  0  0  0  0  0  0  0
   -1.6269   -1.2840    1.7849 H   0  0  0  0  0  0  0  0  0  0  0  0
   -0.7948   -2.1649    0.4958 H   0  0  0  0  0  0  0  0  0  0  0  0
  1  2  2  0
  2  3  1  0
  3  4  2  0
  4  5  1  0
  5  6  2  0
  6  7  1  0
  7  8  2  0
  8  9  1  0
  9 10  2  0
  7 11  1  0
 11 12  1  0
 12 13  1  0
 13 14  1  0
 14 15  1  0
 15 16  1  0
 16 17  1  0
 17 18  1  0
 10  1  1  0
 18 13  1  0
  9  4  1  0
 18  6  1  0
  1 19  1  0
  2 20  1  0
  3 21  1  0
 10 22  1  0
 12 23  1  0
 12 24  1  0
 13 25  1  0
 14 26  1  0
 14 27  1  0
 15 28  1  0
 15 29  1  0
 16 30  1  0
 16 31  1  0
 17 32  1  0
 17 33  1  0
M  END
$$$$
