
     RDKit          3D

 45 49  0  0  0  0  0  0  0  0999 V2000
    0.7276    0.5115   -0.1402 O   0  0  0  0  0  0  0  0  0  0  0  0
    0.6347   -0.1248    0.9011 C   0  0  0  0  0  0  0  0  0  0  0  0
   -0.6254   -0.6482    1.5415 C   0  0  0  0  0  0  0  0  0  0  0  0
   -1.8083   -0.3740    0.7457 N   0  0  0  0  0  0  0  0  0  0  0  0
   -2.6100    0.7501    0.8859 C   0  0  0  0  0  0  0  0  0  0  0  0
   -2.3397    1.6903    1.7796 O   0  0  0  0  0  0  0  0  0  0  0  0
   -3.6004    0.6198   -0.0415 C   0  0  0  0  0  0  0  0  0  0  0  0
   -3.4079   -0.5921   -0.7420 C   0  0  0  0  0  0  0  0  0  0  0  0
   -2.2985   -1.2105   -0.2474 C   0  0  0  0  0  0  0  0  0  0  0  0
   -1.6968   -2.3502   -0.5558 O   0  0  0  0  0  0  0  0  0  0  0  0
   -4.5084   -0.6995   -1.7489 C   0  0  0  0  0  0  0  0  0  0  0  0
   -5.8360   -0.9280   -0.9809 C   0  0  0  0  0  0  0  0  0  0  0  0
   -6.0491    0.4137   -0.2054 C   0  0  0  0  0  0  0  0  0  0  0  0
   -4.8212    1.2695   -0.6108 C   0  0  0  0  0  0  0  0  0  0  0  0
   -4.6849    0.8146   -2.1017 C   0  0  0  0  0  0  0  0  0  0  0  0
    1.7018   -0.4951    1.7281 O   0  0  0  0  0  0  0  0  0  0  0  0
    2.9460   -0.0775    1.2529 C   0  0  0  0  0  0  0  0  0  0  0  0
    3.4771    1.1213    1.7152 C   0  0  0  0  0  0  0  0  0  0  0  0
    4.7436    1.5139    1.2820 C   0  0  0  0  0  0  0  0  0  0  0  0
    5.4840    0.7063    0.4006 C   0  0  0  0  0  0  0  0  0  0  0  0
    6.7600    1.0894   -0.0427 C   0  0  0  0  0  0  0  0  0  0  0  0
    7.4863    0.2775   -0.9156 C   0  0  0  0  0  0  0  0  0  0  0  0
    6.9473   -0.9274   -1.3571 C   0  0  0  0  0  0  0  0  0  0  0  0
    5.6801   -1.3244   -0.9272 C   0  0  0  0  0  0  0  0  0  0  0  0
    4.9357   -0.5200   -0.0496 C   0  0  0  0  0  0  0  0  0  0  0  0
    3.6613   -0.9069    0.3908 C   0  0  0  0  0  0  0  0  0  0  0  0
   -0.5506   -1.7328    1.6706 H   0  0  0  0  0  0  0  0  0  0  0  0
   -0.7584   -0.1833    2.5234 H   0  0  0  0  0  0  0  0  0  0  0  0
   -3.0013    2.3932    1.6491 H   0  0  0  0  0  0  0  0  0  0  0  0
   -2.1874   -2.7256   -1.3089 H   0  0  0  0  0  0  0  0  0  0  0  0
   -4.3228   -1.3646   -2.5920 H   0  0  0  0  0  0  0  0  0  0  0  0
   -6.6672   -1.0911   -1.6762 H   0  0  0  0  0  0  0  0  0  0  0  0
   -5.7831   -1.7802   -0.2947 H   0  0  0  0  0  0  0  0  0  0  0  0
   -6.1047    0.2441    0.8754 H   0  0  0  0  0  0  0  0  0  0  0  0
   -6.9815    0.8876   -0.5324 H   0  0  0  0  0  0  0  0  0  0  0  0
   -4.9118    2.3433   -0.4488 H   0  0  0  0  0  0  0  0  0  0  0  0
   -5.5768    1.0208   -2.7035 H   0  0  0  0  0  0  0  0  0  0  0  0
   -3.7996    1.2386   -2.5919 H   0  0  0  0  0  0  0  0  0  0  0  0
    2.9144    1.7488    2.3991 H   0  0  0  0  0  0  0  0  0  0  0  0
    5.1520    2.4573    1.6371 H   0  0  0  0  0  0  0  0  0  0  0  0
    7.1983    2.0277    0.2895 H   0  0  0  0  0  0  0  0  0  0  0  0
    8.4722    0.5879   -1.2514 H   0  0  0  0  0  0  0  0  0  0  0  0
    7.5115   -1.5589   -2.0383 H   0  0  0  0  0  0  0  0  0  0  0  0
    5.2748   -2.2679   -1.2858 H   0  0  0  0  0  0  0  0  0  0  0  0
    3.2228   -1.8444    0.0617 H   0  0  0  0  0  0  0  0  0  0  0  0
  1  2  2  0
  2  3  1  0
  3  4  1  0
  4  5  1  0
  5  6  1  0
  5  7  2  0
  7  8  1  0
  8  9  2  0
  9 10  1  0
  8 11  1  0
 11 12  1  0
 12 13  1  0
 13 14  1  0
 14 15  1  0
  2 16  1  0
 16 17  1  0
 17 18  2  0
 18 19  1  0
 19 20  2  0
 20 21  1  0
 21 22  2  0
 22 23  1  0
 23 24  2  0
 24 25  1  0
 25 26  2  0
  9  4  1  0
 15 11  1  0
 26 17  1  0
 14  7  1  0
 25 20  1  0
  3 27  1  0
  3 28  1  0
  6 29  1  0
 10 30  1  0
 11 31  1  0
 12 32  1  0
 12 33  1  0
 13 34  1  0
 13 35  1  0
 14 36  1  0
 15 37  1  0
 15 38  1  0
 18 39  1  0
 19 40  1  0
 21 41  1  0
 22 42  1  0
 23 43  1  0
 24 44  1  0
 26 45  1  0
M  END
$$$$
