
     RDKit          3D

 23 25  0  0  0  0  0  0  0  0999 V2000
    2.8416    1.1771   -0.1912 O   0  0  0  0  0  0  0  0  0  0  0  0
    2.2698    0.3240    0.4629 C   0  0  0  0  0  0  0  0  0  0  0  0
    2.9652   -0.6297    1.1099 O   0  0  0  0  0  0  0  0  0  0  0  0
    0.7832    0.1795    0.6719 C   0  0  0  0  0  0  0  0  0  0  0  0
    0.2239   -1.1105    0.0174 C   0  0  0  0  0  0  0  0  0  0  0  0
    0.0709   -0.6803   -1.4473 C   0  0  0  0  0  0  0  0  0  0  0  0
   -0.8066    0.5095   -1.1107 C   0  0  0  0  0  0  0  0  0  0  0  0
   -1.9258   -0.0611   -0.2418 C   0  0  0  0  0  0  0  0  0  0  0  0
   -2.2300    0.9877    0.6835 O   0  0  0  0  0  0  0  0  0  0  0  0
   -1.1211    1.7722    0.8496 C   0  0  0  0  0  0  0  0  0  0  0  0
   -1.0306    2.6777    1.6591 O   0  0  0  0  0  0  0  0  0  0  0  0
   -0.0240    1.2800   -0.0476 C   0  0  0  0  0  0  0  0  0  0  0  0
   -1.2489   -1.2598    0.4722 C   0  0  0  0  0  0  0  0  0  0  0  0
   -1.9345   -2.8113   -0.0773 Cl  0  0  0  0  0  0  0  0  0  0  0  0
    3.9051   -0.4206    0.9207 H   0  0  0  0  0  0  0  0  0  0  0  0
    0.6132    0.1935    1.7562 H   0  0  0  0  0  0  0  0  0  0  0  0
    0.8408   -2.0000    0.1672 H   0  0  0  0  0  0  0  0  0  0  0  0
   -0.4322   -1.4197   -2.0769 H   0  0  0  0  0  0  0  0  0  0  0  0
    1.0173   -0.3940   -1.9166 H   0  0  0  0  0  0  0  0  0  0  0  0
   -1.1511    1.1250   -1.9446 H   0  0  0  0  0  0  0  0  0  0  0  0
   -2.8227   -0.3254   -0.8098 H   0  0  0  0  0  0  0  0  0  0  0  0
    0.5509    2.1080   -0.4678 H   0  0  0  0  0  0  0  0  0  0  0  0
   -1.3544   -1.2217    1.5610 H   0  0  0  0  0  0  0  0  0  0  0  0
  1  2  2  0
  2  3  1  0
  2  4  1  0
  4  5  1  0
  5  6  1  0
  6  7  1  0
  7  8  1  0
  8  9  1  0
  9 10  1  0
 10 11  2  0
 10 12  1  0
  8 13  1  0
 13 14  1  0
 12  4  1  0
 13  5  1  0
 12  7  1  0
  3 15  1  0
  4 16  1  0
  5 17  1  0
  6 18  1  0
  6 19  1  0
  7 20  1  0
  8 21  1  0
 12 22  1  0
 13 23  1  0
M  END
$$$$
