
     RDKit          3D

 30 31  0  0  0  0  0  0  0  0999 V2000
    0.1959    1.2198   -2.6867 C   0  0  0  0  0  0  0  0  0  0  0  0
    0.4728    0.6124   -1.4280 O   0  0  0  0  0  0  0  0  0  0  0  0
   -0.5738    0.0701   -0.7239 C   0  0  0  0  0  0  0  0  0  0  0  0
   -1.9030    0.1038   -1.1794 C   0  0  0  0  0  0  0  0  0  0  0  0
   -2.9458   -0.4527   -0.4272 C   0  0  0  0  0  0  0  0  0  0  0  0
   -4.6056   -0.3848   -1.0803 S   0  0  0  0  0  0  0  0  0  0  0  0
   -5.4933    0.2993    0.3457 C   0  0  0  0  0  0  0  0  0  0  0  0
   -2.6552   -1.0742    0.7839 C   0  0  0  0  0  0  0  0  0  0  0  0
   -1.3398   -1.1143    1.2506 C   0  0  0  0  0  0  0  0  0  0  0  0
   -0.2840   -0.5446    0.5133 C   0  0  0  0  0  0  0  0  0  0  0  0
    1.0903   -0.6521    1.1296 C   0  0  0  0  0  0  0  0  0  0  0  0
    1.1843   -1.1779    2.2349 O   0  0  0  0  0  0  0  0  0  0  0  0
    2.1299   -0.1462    0.3901 N   0  0  0  0  0  0  0  0  0  0  0  0
    3.4609   -0.1186    0.7112 C   0  0  0  0  0  0  0  0  0  0  0  0
    4.3421    0.4106   -0.1082 N   0  0  0  0  0  0  0  0  0  0  0  0
    5.6041    0.3124    0.4449 C   0  0  0  0  0  0  0  0  0  0  0  0
    5.6637   -0.2923    1.6809 C   0  0  0  0  0  0  0  0  0  0  0  0
    4.0863   -0.7522    2.1645 S   0  0  0  0  0  0  0  0  0  0  0  0
   -0.4670    2.0832   -2.5698 H   0  0  0  0  0  0  0  0  0  0  0  0
    1.1440    1.5820   -3.0958 H   0  0  0  0  0  0  0  0  0  0  0  0
   -0.2148    0.4919   -3.3939 H   0  0  0  0  0  0  0  0  0  0  0  0
   -2.1587    0.5666   -2.1282 H   0  0  0  0  0  0  0  0  0  0  0  0
   -5.5307   -0.4220    1.1659 H   0  0  0  0  0  0  0  0  0  0  0  0
   -6.5194    0.5309    0.0472 H   0  0  0  0  0  0  0  0  0  0  0  0
   -5.0163    1.2212    0.6898 H   0  0  0  0  0  0  0  0  0  0  0  0
   -3.4354   -1.5468    1.3749 H   0  0  0  0  0  0  0  0  0  0  0  0
   -1.1411   -1.6056    2.2028 H   0  0  0  0  0  0  0  0  0  0  0  0
    1.9284    0.2724   -0.5098 H   0  0  0  0  0  0  0  0  0  0  0  0
    6.4545    0.7018   -0.1013 H   0  0  0  0  0  0  0  0  0  0  0  0
    6.5267   -0.4802    2.3024 H   0  0  0  0  0  0  0  0  0  0  0  0
  1  2  1  0
  2  3  1  0
  3  4  2  0
  4  5  1  0
  5  6  1  0
  6  7  1  0
  5  8  2  0
  8  9  1  0
  9 10  2  0
 10 11  1  0
 11 12  2  0
 11 13  1  0
 13 14  1  0
 14 15  2  0
 15 16  1  0
 16 17  2  0
 17 18  1  0
 10  3  1  0
 18 14  1  0
  1 19  1  0
  1 20  1  0
  1 21  1  0
  4 22  1  0
  7 23  1  0
  7 24  1  0
  7 25  1  0
  8 26  1  0
  9 27  1  0
 13 28  1  0
 16 29  1  0
 17 30  1  0
M  END
$$$$
