
     RDKit          3D

 53 56  0  0  0  0  0  0  0  0999 V2000
   -6.4223   -1.2511   -0.9841 C   0  0  0  0  0  0  0  0  0  0  0  0
   -5.0913   -0.5894   -0.6592 C   0  0  0  0  0  0  0  0  0  0  0  0
   -3.9052   -1.5692   -0.6257 C   0  0  0  0  0  0  0  0  0  0  0  0
   -3.9983   -2.6676    0.4621 C   0  0  0  0  0  0  0  0  0  0  0  0
   -3.8611   -2.1758    1.8876 C   0  0  0  0  0  0  0  0  0  0  0  0
   -2.6015   -2.1481    2.5046 C   0  0  0  0  0  0  0  0  0  0  0  0
   -2.4597   -1.6815    3.8119 C   0  0  0  0  0  0  0  0  0  0  0  0
   -3.5763   -1.2419    4.5191 C   0  0  0  0  0  0  0  0  0  0  0  0
   -4.8347   -1.2746    3.9213 C   0  0  0  0  0  0  0  0  0  0  0  0
   -4.9776   -1.7419    2.6134 C   0  0  0  0  0  0  0  0  0  0  0  0
   -2.6583   -0.8106   -0.5158 N   0  0  0  0  0  0  0  0  0  0  0  0
   -1.4609   -1.3070   -0.9834 C   0  0  0  0  0  0  0  0  0  0  0  0
   -1.3699   -2.3331   -1.6480 O   0  0  0  0  0  0  0  0  0  0  0  0
   -0.2357   -0.5228   -0.6587 C   0  0  0  0  0  0  0  0  0  0  0  0
   -0.1317    0.2511    0.5006 C   0  0  0  0  0  0  0  0  0  0  0  0
    1.0416    0.9674    0.7716 C   0  0  0  0  0  0  0  0  0  0  0  0
    2.1284    0.9036   -0.1236 C   0  0  0  0  0  0  0  0  0  0  0  0
    3.3361    1.5577    0.0217 N   0  0  0  0  0  0  0  0  0  0  0  0
    4.1492    1.2996   -0.9813 C   0  0  0  0  0  0  0  0  0  0  0  0
    5.4197    1.8106   -1.0647 N   0  0  0  0  0  0  0  0  0  0  0  0
    6.0116    2.0640   -2.3923 C   0  0  0  0  0  0  0  0  0  0  0  0
    7.5113    2.3746   -2.2648 C   0  0  0  0  0  0  0  0  0  0  0  0
    7.7523    3.4643   -1.3638 O   0  0  0  0  0  0  0  0  0  0  0  0
    7.2585    3.1319   -0.0577 C   0  0  0  0  0  0  0  0  0  0  0  0
    5.7480    2.8637   -0.0797 C   0  0  0  0  0  0  0  0  0  0  0  0
    3.4762    0.2133   -2.1522 S   0  0  0  0  0  0  0  0  0  0  0  0
    2.0124    0.1148   -1.2636 C   0  0  0  0  0  0  0  0  0  0  0  0
    0.8448   -0.6116   -1.5511 C   0  0  0  0  0  0  0  0  0  0  0  0
   -6.7382   -1.9386   -0.1951 H   0  0  0  0  0  0  0  0  0  0  0  0
   -7.2024   -0.4903   -1.0901 H   0  0  0  0  0  0  0  0  0  0  0  0
   -6.3642   -1.8075   -1.9249 H   0  0  0  0  0  0  0  0  0  0  0  0
   -4.8968    0.1709   -1.4275 H   0  0  0  0  0  0  0  0  0  0  0  0
   -5.1718   -0.0409    0.2861 H   0  0  0  0  0  0  0  0  0  0  0  0
   -3.8790   -2.0846   -1.5953 H   0  0  0  0  0  0  0  0  0  0  0  0
   -3.2091   -3.4109    0.2829 H   0  0  0  0  0  0  0  0  0  0  0  0
   -4.9353   -3.2282    0.3626 H   0  0  0  0  0  0  0  0  0  0  0  0
   -1.7219   -2.4993    1.9680 H   0  0  0  0  0  0  0  0  0  0  0  0
   -1.4791   -1.6696    4.2808 H   0  0  0  0  0  0  0  0  0  0  0  0
   -3.4679   -0.8833    5.5393 H   0  0  0  0  0  0  0  0  0  0  0  0
   -5.7077   -0.9412    4.4764 H   0  0  0  0  0  0  0  0  0  0  0  0
   -5.9694   -1.7678    2.1690 H   0  0  0  0  0  0  0  0  0  0  0  0
   -2.6690   -0.0021    0.0896 H   0  0  0  0  0  0  0  0  0  0  0  0
   -0.9366    0.2948    1.2288 H   0  0  0  0  0  0  0  0  0  0  0  0
    1.1289    1.5678    1.6722 H   0  0  0  0  0  0  0  0  0  0  0  0
    5.5005    2.9192   -2.8520 H   0  0  0  0  0  0  0  0  0  0  0  0
    5.9104    1.2004   -3.0577 H   0  0  0  0  0  0  0  0  0  0  0  0
    8.0661    1.4945   -1.9174 H   0  0  0  0  0  0  0  0  0  0  0  0
    7.9151    2.6568   -3.2423 H   0  0  0  0  0  0  0  0  0  0  0  0
    7.4760    3.9763    0.6040 H   0  0  0  0  0  0  0  0  0  0  0  0
    7.8077    2.2615    0.3212 H   0  0  0  0  0  0  0  0  0  0  0  0
    5.4397    2.5727    0.9317 H   0  0  0  0  0  0  0  0  0  0  0  0
    5.2185    3.7852   -0.3536 H   0  0  0  0  0  0  0  0  0  0  0  0
    0.7796   -1.2261   -2.4457 H   0  0  0  0  0  0  0  0  0  0  0  0
  1  2  1  0
  2  3  1  0
  3  4  1  0
  4  5  1  0
  5  6  2  0
  6  7  1  0
  7  8  2  0
  8  9  1  0
  9 10  2  0
  3 11  1  0
 11 12  1  0
 12 13  2  0
 12 14  1  0
 14 15  2  0
 15 16  1  0
 16 17  2  0
 17 18  1  0
 18 19  2  0
 19 20  1  0
 20 21  1  0
 21 22  1  0
 22 23  1  0
 23 24  1  0
 24 25  1  0
 19 26  1  0
 26 27  1  0
 27 28  2  0
 10  5  1  0
 28 14  1  0
 27 17  1  0
 25 20  1  0
  1 29  1  0
  1 30  1  0
  1 31  1  0
  2 32  1  0
  2 33  1  0
  3 34  1  0
  4 35  1  0
  4 36  1  0
  6 37  1  0
  7 38  1  0
  8 39  1  0
  9 40  1  0
 10 41  1  0
 11 42  1  0
 15 43  1  0
 16 44  1  0
 21 45  1  0
 21 46  1  0
 22 47  1  0
 22 48  1  0
 24 49  1  0
 24 50  1  0
 25 51  1  0
 25 52  1  0
 28 53  1  0
M  END
$$$$
