
     RDKit          3D

 42 43  0  0  0  0  0  0  0  0999 V2000
   -4.8441    0.5620    3.9410 C   0  0  0  0  0  0  0  0  0  0  0  0
   -4.5370   -0.8383    3.4043 C   0  0  0  0  0  0  0  0  0  0  0  0
   -4.1202   -1.7781    4.5383 C   0  0  0  0  0  0  0  0  0  0  0  0
   -3.4936   -0.7972    2.3023 C   0  0  0  0  0  0  0  0  0  0  0  0
   -2.1909   -0.3322    2.5339 C   0  0  0  0  0  0  0  0  0  0  0  0
   -1.2417   -0.3023    1.5045 C   0  0  0  0  0  0  0  0  0  0  0  0
   -1.5815   -0.7377    0.2248 C   0  0  0  0  0  0  0  0  0  0  0  0
   -0.7583   -0.7624   -0.8658 O   0  0  0  0  0  0  0  0  0  0  0  0
    0.5661   -0.2851   -0.6903 C   0  0  0  0  0  0  0  0  0  0  0  0
    1.3697   -0.3711   -1.9922 C   0  0  0  0  0  0  0  0  0  0  0  0
    0.9546   -0.8844   -3.0265 O   0  0  0  0  0  0  0  0  0  0  0  0
    2.6372    0.1836   -1.8870 N   0  0  0  0  0  0  0  0  0  0  0  0
    3.5002    0.2846   -3.0449 C   0  0  0  0  0  0  0  0  0  0  0  0
    4.9524    0.5548   -2.6695 C   0  0  0  0  0  0  0  0  0  0  0  0
    5.5462    1.0596   -3.9738 C   0  0  0  0  0  0  0  0  0  0  0  0
    4.4522    1.9373   -4.5726 C   0  0  0  0  0  0  0  0  0  0  0  0
    3.1348    1.4567   -3.9602 C   0  0  0  0  0  0  0  0  0  0  0  0
   -2.8753   -1.2028   -0.0127 C   0  0  0  0  0  0  0  0  0  0  0  0
   -3.8239   -1.2334    1.0129 C   0  0  0  0  0  0  0  0  0  0  0  0
   -5.6561    0.5229    4.6752 H   0  0  0  0  0  0  0  0  0  0  0  0
   -5.1560    1.2317    3.1317 H   0  0  0  0  0  0  0  0  0  0  0  0
   -3.9745    1.0133    4.4312 H   0  0  0  0  0  0  0  0  0  0  0  0
   -5.4718   -1.2341    2.9853 H   0  0  0  0  0  0  0  0  0  0  0  0
   -3.9146   -2.7844    4.1568 H   0  0  0  0  0  0  0  0  0  0  0  0
   -3.2196   -1.4259    5.0527 H   0  0  0  0  0  0  0  0  0  0  0  0
   -4.9185   -1.8591    5.2840 H   0  0  0  0  0  0  0  0  0  0  0  0
   -1.8994    0.0126    3.5236 H   0  0  0  0  0  0  0  0  0  0  0  0
   -0.2498    0.0655    1.7420 H   0  0  0  0  0  0  0  0  0  0  0  0
    1.0932   -0.8945    0.0538 H   0  0  0  0  0  0  0  0  0  0  0  0
    0.5476    0.7681   -0.3844 H   0  0  0  0  0  0  0  0  0  0  0  0
    2.8361    0.7776   -1.0924 H   0  0  0  0  0  0  0  0  0  0  0  0
    3.4355   -0.6519   -3.6142 H   0  0  0  0  0  0  0  0  0  0  0  0
    5.0254    1.3278   -1.8942 H   0  0  0  0  0  0  0  0  0  0  0  0
    5.4603   -0.3412   -2.2995 H   0  0  0  0  0  0  0  0  0  0  0  0
    5.7537    0.2159   -4.6427 H   0  0  0  0  0  0  0  0  0  0  0  0
    6.4808    1.6071   -3.8227 H   0  0  0  0  0  0  0  0  0  0  0  0
    4.4422    1.8694   -5.6654 H   0  0  0  0  0  0  0  0  0  0  0  0
    4.6203    2.9886   -4.3109 H   0  0  0  0  0  0  0  0  0  0  0  0
    2.4202    1.1496   -4.7316 H   0  0  0  0  0  0  0  0  0  0  0  0
    2.6688    2.2758   -3.3984 H   0  0  0  0  0  0  0  0  0  0  0  0
   -3.1482   -1.5458   -1.0082 H   0  0  0  0  0  0  0  0  0  0  0  0
   -4.8227   -1.6027    0.7916 H   0  0  0  0  0  0  0  0  0  0  0  0
  1  2  1  0
  2  3  1  0
  2  4  1  0
  4  5  2  0
  5  6  1  0
  6  7  2  0
  7  8  1  0
  8  9  1  0
  9 10  1  0
 10 11  2  0
 10 12  1  0
 12 13  1  0
 13 14  1  0
 14 15  1  0
 15 16  1  0
 16 17  1  0
  7 18  1  0
 18 19  2  0
 19  4  1  0
 17 13  1  0
  1 20  1  0
  1 21  1  0
  1 22  1  0
  2 23  1  0
  3 24  1  0
  3 25  1  0
  3 26  1  0
  5 27  1  0
  6 28  1  0
  9 29  1  0
  9 30  1  0
 12 31  1  0
 13 32  1  0
 14 33  1  0
 14 34  1  0
 15 35  1  0
 15 36  1  0
 16 37  1  0
 16 38  1  0
 17 39  1  0
 17 40  1  0
 18 41  1  0
 19 42  1  0
M  END
$$$$
