
     RDKit          3D

 51 52  0  0  0  0  0  0  0  0999 V2000
    3.8127   -1.3690   -1.6796 C   0  0  0  0  0  0  0  0  0  0  0  0
    4.5635   -1.3816   -0.4172 N   0  0  0  0  0  0  0  0  0  0  0  0
    4.8463   -2.7251    0.1000 C   0  0  0  0  0  0  0  0  0  0  0  0
    4.3380   -0.1358    0.6837 S   0  0  0  0  0  6  0  0  0  0  0  0
    4.1307    1.1021   -0.0271 O   0  0  0  0  0  0  0  0  0  0  0  0
    5.3689   -0.2558    1.6898 O   0  0  0  0  0  0  0  0  0  0  0  0
    2.9306   -0.5978    1.4571 N   0  0  0  0  0  0  0  0  0  0  0  0
    1.6599   -0.6981    0.8283 C   0  0  0  0  0  0  0  0  0  0  0  0
    0.8024   -1.7114    1.2576 C   0  0  0  0  0  0  0  0  0  0  0  0
   -0.4809   -1.8362    0.7144 C   0  0  0  0  0  0  0  0  0  0  0  0
   -0.9422   -0.9417   -0.2559 C   0  0  0  0  0  0  0  0  0  0  0  0
   -2.2937   -1.1027   -0.7319 N   0  0  0  0  0  0  0  0  0  0  0  0
   -3.5104   -0.5291    0.2982 S   0  0  0  0  0  6  0  0  0  0  0  0
   -4.7456   -0.5199   -0.4478 O   0  0  0  0  0  0  0  0  0  0  0  0
   -3.0191    0.6602    0.9548 O   0  0  0  0  0  0  0  0  0  0  0  0
   -3.5992   -1.7844    1.4357 N   0  0  0  0  0  0  0  0  0  0  0  0
   -4.1202   -3.0611    0.8954 C   0  0  0  0  0  0  0  0  0  0  0  0
   -4.3059   -1.3958    2.6763 C   0  0  0  0  0  0  0  0  0  0  0  0
   -0.0904    0.0934   -0.6584 C   0  0  0  0  0  0  0  0  0  0  0  0
   -0.5180    1.2326   -1.9489 S   0  0  0  0  0  6  0  0  0  0  0  0
    0.5755    1.1811   -2.9035 O   0  0  0  0  0  0  0  0  0  0  0  0
   -1.8639    0.9026   -2.3917 O   0  0  0  0  0  0  0  0  0  0  0  0
   -0.5639    2.8637   -1.2514 C   0  0  0  0  0  0  0  0  0  0  0  0
   -1.7480    3.3430   -0.6864 C   0  0  0  0  0  0  0  0  0  0  0  0
   -1.7816    4.6315   -0.1529 C   0  0  0  0  0  0  0  0  0  0  0  0
   -0.6431    5.4375   -0.1972 C   0  0  0  0  0  0  0  0  0  0  0  0
    0.5318    4.9617   -0.7807 C   0  0  0  0  0  0  0  0  0  0  0  0
    0.5740    3.6747   -1.3164 C   0  0  0  0  0  0  0  0  0  0  0  0
    1.1978    0.2210   -0.1084 C   0  0  0  0  0  0  0  0  0  0  0  0
    4.4017   -1.8687   -2.4560 H   0  0  0  0  0  0  0  0  0  0  0  0
    2.8614   -1.8977   -1.5770 H   0  0  0  0  0  0  0  0  0  0  0  0
    3.6262   -0.3526   -2.0350 H   0  0  0  0  0  0  0  0  0  0  0  0
    3.9311   -3.2005    0.4645 H   0  0  0  0  0  0  0  0  0  0  0  0
    5.2701   -3.3500   -0.6929 H   0  0  0  0  0  0  0  0  0  0  0  0
    5.5837   -2.6943    0.9067 H   0  0  0  0  0  0  0  0  0  0  0  0
    3.1348   -1.2339    2.2242 H   0  0  0  0  0  0  0  0  0  0  0  0
    1.1166   -2.4220    2.0179 H   0  0  0  0  0  0  0  0  0  0  0  0
   -1.1189   -2.6451    1.0616 H   0  0  0  0  0  0  0  0  0  0  0  0
   -2.4548   -0.6154   -1.6292 H   0  0  0  0  0  0  0  0  0  0  0  0
   -3.9611   -3.8584    1.6290 H   0  0  0  0  0  0  0  0  0  0  0  0
   -5.1913   -2.9938    0.6822 H   0  0  0  0  0  0  0  0  0  0  0  0
   -3.5854   -3.3532   -0.0126 H   0  0  0  0  0  0  0  0  0  0  0  0
   -4.3046   -2.2313    3.3842 H   0  0  0  0  0  0  0  0  0  0  0  0
   -3.7923   -0.5625    3.1645 H   0  0  0  0  0  0  0  0  0  0  0  0
   -5.3438   -1.1187    2.4681 H   0  0  0  0  0  0  0  0  0  0  0  0
   -2.6457    2.7302   -0.6539 H   0  0  0  0  0  0  0  0  0  0  0  0
   -2.6978    5.0081    0.2959 H   0  0  0  0  0  0  0  0  0  0  0  0
   -0.6736    6.4416    0.2192 H   0  0  0  0  0  0  0  0  0  0  0  0
    1.4145    5.5959   -0.8207 H   0  0  0  0  0  0  0  0  0  0  0  0
    1.4935    3.3193   -1.7777 H   0  0  0  0  0  0  0  0  0  0  0  0
    1.8295    1.0433   -0.4311 H   0  0  0  0  0  0  0  0  0  0  0  0
  1  2  1  0
  2  3  1  0
  2  4  1  0
  4  5  2  0
  4  6  2  0
  4  7  1  0
  7  8  1  0
  8  9  2  0
  9 10  1  0
 10 11  2  0
 11 12  1  0
 12 13  1  0
 13 14  2  0
 13 15  2  0
 13 16  1  0
 16 17  1  0
 16 18  1  0
 11 19  1  0
 19 20  1  0
 20 21  2  0
 20 22  2  0
 20 23  1  0
 23 24  2  0
 24 25  1  0
 25 26  2  0
 26 27  1  0
 27 28  2  0
 19 29  2  0
 29  8  1  0
 28 23  1  0
  1 30  1  0
  1 31  1  0
  1 32  1  0
  3 33  1  0
  3 34  1  0
  3 35  1  0
  7 36  1  0
  9 37  1  0
 10 38  1  0
 12 39  1  0
 17 40  1  0
 17 41  1  0
 17 42  1  0
 18 43  1  0
 18 44  1  0
 18 45  1  0
 24 46  1  0
 25 47  1  0
 26 48  1  0
 27 49  1  0
 28 50  1  0
 29 51  1  0
M  END
$$$$
