
     RDKit          3D

 37 37  0  0  0  0  0  0  0  0999 V2000
    5.4458    0.8816    0.2820 C   0  0  0  0  0  0  0  0  0  0  0  0
    4.4239   -0.2336    0.4358 C   0  0  0  0  0  0  0  0  0  0  0  0
    3.2540   -0.0590   -0.5329 C   0  0  0  0  0  0  0  0  0  0  0  0
    2.2305   -1.1878   -0.3754 C   0  0  0  0  0  0  0  0  0  0  0  0
    1.0571   -1.0504   -1.3450 C   0  0  0  0  0  0  0  0  0  0  0  0
    0.0684    0.0381   -0.9570 C   0  0  0  0  0  0  0  0  0  0  0  0
    0.1517    0.6842    0.0830 O   0  0  0  0  0  0  0  0  0  0  0  0
   -0.9414    0.1725   -1.9184 N   0  0  0  0  0  0  0  0  0  0  0  0
   -1.8092    1.2339   -1.8668 N   0  0  0  0  0  0  0  0  0  0  0  0
   -2.6315    1.3246   -0.8594 C   0  0  0  0  0  0  0  0  0  0  0  0
   -3.4452    2.5938   -0.7451 C   0  0  0  0  0  0  0  0  0  0  0  0
   -2.8897    0.2826    0.1669 C   0  0  0  0  0  0  0  0  0  0  0  0
   -3.2957   -0.9949   -0.2341 C   0  0  0  0  0  0  0  0  0  0  0  0
   -3.5580   -1.9713    0.7288 C   0  0  0  0  0  0  0  0  0  0  0  0
   -3.4151   -1.6647    2.0828 C   0  0  0  0  0  0  0  0  0  0  0  0
   -3.7360   -2.8708    3.2672 Cl  0  0  0  0  0  0  0  0  0  0  0  0
   -3.0147   -0.3897    2.4843 C   0  0  0  0  0  0  0  0  0  0  0  0
   -2.7543    0.5905    1.5242 C   0  0  0  0  0  0  0  0  0  0  0  0
    6.2732    0.7370    0.9838 H   0  0  0  0  0  0  0  0  0  0  0  0
    5.8589    0.8982   -0.7316 H   0  0  0  0  0  0  0  0  0  0  0  0
    4.9946    1.8580    0.4855 H   0  0  0  0  0  0  0  0  0  0  0  0
    4.0544   -0.2427    1.4678 H   0  0  0  0  0  0  0  0  0  0  0  0
    4.9145   -1.1976    0.2580 H   0  0  0  0  0  0  0  0  0  0  0  0
    3.6306   -0.0479   -1.5631 H   0  0  0  0  0  0  0  0  0  0  0  0
    2.7772    0.9116   -0.3552 H   0  0  0  0  0  0  0  0  0  0  0  0
    2.7296   -2.1453   -0.5695 H   0  0  0  0  0  0  0  0  0  0  0  0
    1.8673   -1.2217    0.6588 H   0  0  0  0  0  0  0  0  0  0  0  0
    1.4253   -0.8599   -2.3596 H   0  0  0  0  0  0  0  0  0  0  0  0
    0.5022   -1.9965   -1.3599 H   0  0  0  0  0  0  0  0  0  0  0  0
   -0.6494   -0.0400   -2.8682 H   0  0  0  0  0  0  0  0  0  0  0  0
   -4.2607    2.4903   -0.0244 H   0  0  0  0  0  0  0  0  0  0  0  0
   -3.8759    2.8383   -1.7209 H   0  0  0  0  0  0  0  0  0  0  0  0
   -2.7898    3.4114   -0.4314 H   0  0  0  0  0  0  0  0  0  0  0  0
   -3.4106   -1.2280   -1.2895 H   0  0  0  0  0  0  0  0  0  0  0  0
   -3.8720   -2.9646    0.4196 H   0  0  0  0  0  0  0  0  0  0  0  0
   -2.8941   -0.1559    3.5388 H   0  0  0  0  0  0  0  0  0  0  0  0
   -2.4160    1.5757    1.8357 H   0  0  0  0  0  0  0  0  0  0  0  0
  1  2  1  0
  2  3  1  0
  3  4  1  0
  4  5  1  0
  5  6  1  0
  6  7  2  0
  6  8  1  0
  8  9  1  0
  9 10  2  3
 10 11  1  0
 10 12  1  0
 12 13  2  0
 13 14  1  0
 14 15  2  0
 15 16  1  0
 15 17  1  0
 17 18  2  0
 18 12  1  0
  1 19  1  0
  1 20  1  0
  1 21  1  0
  2 22  1  0
  2 23  1  0
  3 24  1  0
  3 25  1  0
  4 26  1  0
  4 27  1  0
  5 28  1  0
  5 29  1  0
  8 30  1  0
 11 31  1  0
 11 32  1  0
 11 33  1  0
 13 34  1  0
 14 35  1  0
 17 36  1  0
 18 37  1  0
M  END
$$$$
