
     RDKit          3D

 48 48  0  0  0  0  0  0  0  0999 V2000
    2.8793    0.4194   -1.1364 C   0  0  0  0  0  0  0  0  0  0  0  0
    3.3508   -0.0790    0.2404 C   0  0  0  0  0  0  0  0  0  0  0  0
    2.5372    0.5551    1.3869 C   0  0  0  0  0  0  0  0  0  0  0  0
    1.1149    0.2906    1.2685 N   0  0  0  0  0  0  0  0  0  0  0  0
    0.2208    1.2847    0.9180 C   0  0  0  0  0  0  0  0  0  0  0  0
    0.5373    2.4581    0.7591 O   0  0  0  0  0  0  0  0  0  0  0  0
   -1.1872    0.8580    0.6882 C   0  0  0  0  0  0  0  0  0  0  0  0
   -1.9663    1.5936   -0.2062 C   0  0  0  0  0  0  0  0  0  0  0  0
   -3.2907    1.2219   -0.4619 C   0  0  0  0  0  0  0  0  0  0  0  0
   -3.8776    0.1079    0.1688 C   0  0  0  0  0  0  0  0  0  0  0  0
   -5.3329   -0.2807   -0.1511 C   0  0  0  0  0  0  0  0  0  0  0  0
   -6.2775    0.8769    0.2388 C   0  0  0  0  0  0  0  0  0  0  0  0
   -5.8207   -1.5476    0.5909 C   0  0  0  0  0  0  0  0  0  0  0  0
   -5.4775   -0.5606   -1.6654 C   0  0  0  0  0  0  0  0  0  0  0  0
   -3.0839   -0.6034    1.0855 C   0  0  0  0  0  0  0  0  0  0  0  0
   -1.7563   -0.2343    1.3473 C   0  0  0  0  0  0  0  0  0  0  0  0
    4.8479    0.2294    0.4639 C   0  0  0  0  0  0  0  0  0  0  0  0
    5.7394   -0.4067   -0.5237 N   0  0  0  0  0  0  0  0  0  0  0  0
    7.0490    0.2458   -0.5222 C   0  0  0  0  0  0  0  0  0  0  0  0
    5.8979   -1.8417   -0.2804 C   0  0  0  0  0  0  0  0  0  0  0  0
    3.4785   -0.0177   -1.9430 H   0  0  0  0  0  0  0  0  0  0  0  0
    1.8372    0.1330   -1.3267 H   0  0  0  0  0  0  0  0  0  0  0  0
    2.9480    1.5158   -1.2107 H   0  0  0  0  0  0  0  0  0  0  0  0
    3.1862   -1.1644    0.2775 H   0  0  0  0  0  0  0  0  0  0  0  0
    2.8472    0.1187    2.3447 H   0  0  0  0  0  0  0  0  0  0  0  0
    2.7178    1.6370    1.4410 H   0  0  0  0  0  0  0  0  0  0  0  0
    0.8207   -0.6754    1.2290 H   0  0  0  0  0  0  0  0  0  0  0  0
   -1.5434    2.4596   -0.7135 H   0  0  0  0  0  0  0  0  0  0  0  0
   -3.8586    1.8236   -1.1662 H   0  0  0  0  0  0  0  0  0  0  0  0
   -6.1753    1.1348    1.3017 H   0  0  0  0  0  0  0  0  0  0  0  0
   -6.0772    1.7883   -0.3355 H   0  0  0  0  0  0  0  0  0  0  0  0
   -7.3266    0.6102    0.0608 H   0  0  0  0  0  0  0  0  0  0  0  0
   -5.7879   -1.4164    1.6811 H   0  0  0  0  0  0  0  0  0  0  0  0
   -6.8591   -1.7827    0.3273 H   0  0  0  0  0  0  0  0  0  0  0  0
   -5.2147   -2.4234    0.3298 H   0  0  0  0  0  0  0  0  0  0  0  0
   -6.4975   -0.8784   -1.9151 H   0  0  0  0  0  0  0  0  0  0  0  0
   -4.7923   -1.3558   -1.9882 H   0  0  0  0  0  0  0  0  0  0  0  0
   -5.2635    0.3249   -2.2734 H   0  0  0  0  0  0  0  0  0  0  0  0
   -3.4776   -1.4601    1.6282 H   0  0  0  0  0  0  0  0  0  0  0  0
   -1.1949   -0.7948    2.0912 H   0  0  0  0  0  0  0  0  0  0  0  0
    5.1459   -0.0532    1.4810 H   0  0  0  0  0  0  0  0  0  0  0  0
    4.9667    1.3172    0.4008 H   0  0  0  0  0  0  0  0  0  0  0  0
    7.7061   -0.2182   -1.2639 H   0  0  0  0  0  0  0  0  0  0  0  0
    7.5408    0.1961    0.4583 H   0  0  0  0  0  0  0  0  0  0  0  0
    6.9487    1.3012   -0.8109 H   0  0  0  0  0  0  0  0  0  0  0  0
    6.3542   -2.0483    0.6912 H   0  0  0  0  0  0  0  0  0  0  0  0
    6.5294   -2.2911   -1.0551 H   0  0  0  0  0  0  0  0  0  0  0  0
    4.9368   -2.3678   -0.3304 H   0  0  0  0  0  0  0  0  0  0  0  0
  1  2  1  0
  2  3  1  0
  3  4  1  0
  4  5  1  0
  5  6  2  0
  5  7  1  0
  7  8  2  0
  8  9  1  0
  9 10  2  0
 10 11  1  0
 11 12  1  0
 11 13  1  0
 11 14  1  0
 10 15  1  0
 15 16  2  0
  2 17  1  0
 17 18  1  0
 18 19  1  0
 18 20  1  0
 16  7  1  0
  1 21  1  0
  1 22  1  0
  1 23  1  0
  2 24  1  0
  3 25  1  0
  3 26  1  0
  4 27  1  0
  8 28  1  0
  9 29  1  0
 12 30  1  0
 12 31  1  0
 12 32  1  0
 13 33  1  0
 13 34  1  0
 13 35  1  0
 14 36  1  0
 14 37  1  0
 14 38  1  0
 15 39  1  0
 16 40  1  0
 17 41  1  0
 17 42  1  0
 19 43  1  0
 19 44  1  0
 19 45  1  0
 20 46  1  0
 20 47  1  0
 20 48  1  0
M  END
$$$$
