
     RDKit          3D

 48 51  0  0  0  0  0  0  0  0999 V2000
   -7.4079   -2.2115   -1.9713 C   0  0  0  0  0  0  0  0  0  0  0  0
   -6.3679   -1.3824   -1.2738 C   0  0  0  0  0  0  0  0  0  0  0  0
   -6.7478   -0.2138   -0.6249 C   0  0  0  0  0  0  0  0  0  0  0  0
   -5.7899    0.5797    0.0301 C   0  0  0  0  0  0  0  0  0  0  0  0
   -6.2419    1.8420    0.7098 C   0  0  0  0  0  0  0  0  0  0  0  0
   -4.4421    0.1216    0.0080 C   0  0  0  0  0  0  0  0  0  0  0  0
   -3.2034    0.6195    0.5588 C   0  0  0  0  0  0  0  0  0  0  0  0
   -3.0983    1.7473    1.3019 N   0  0  0  0  0  0  0  0  0  0  0  0
   -2.1046   -0.1677    0.2530 C   0  0  0  0  0  0  0  0  0  0  0  0
   -0.7164    0.0370    0.6558 C   0  0  0  0  0  0  0  0  0  0  0  0
   -0.3646    0.9396    1.4204 O   0  0  0  0  0  0  0  0  0  0  0  0
    0.2090   -0.8699    0.1338 N   0  0  0  0  0  0  0  0  0  0  0  0
    1.5906   -0.5367    0.1479 N   0  0  0  0  0  0  0  0  0  0  0  0
    2.2142   -0.5934    1.4599 C   0  0  0  0  0  0  0  0  0  0  0  0
    3.7285   -0.7183    1.3032 C   0  0  0  0  0  0  0  0  0  0  0  0
    4.3882   -1.3050    2.1608 O   0  0  0  0  0  0  0  0  0  0  0  0
    4.2626   -0.0062    0.2115 N   0  0  0  0  0  0  0  0  0  0  0  0
    5.6800    0.0176   -0.0387 C   0  0  0  0  0  0  0  0  0  0  0  0
    6.4673   -1.1149    0.2241 C   0  0  0  0  0  0  0  0  0  0  0  0
    7.8433   -1.1231   -0.0383 C   0  0  0  0  0  0  0  0  0  0  0  0
    8.4638    0.0027   -0.5709 C   0  0  0  0  0  0  0  0  0  0  0  0
    7.7071    1.1383   -0.8379 C   0  0  0  0  0  0  0  0  0  0  0  0
    6.3362    1.1405   -0.5744 C   0  0  0  0  0  0  0  0  0  0  0  0
    5.6737    2.2852   -0.8028 F   0  0  0  0  0  0  0  0  0  0  0  0
    3.4006    0.9748   -0.4678 C   0  0  0  0  0  0  0  0  0  0  0  0
    2.0187    0.4060   -0.7796 C   0  0  0  0  0  0  0  0  0  0  0  0
    1.3245    0.8027   -1.7136 O   0  0  0  0  0  0  0  0  0  0  0  0
   -2.5649   -1.5182   -0.6918 S   0  0  0  0  0  0  0  0  0  0  0  0
   -4.2006   -1.0600   -0.6872 C   0  0  0  0  0  0  0  0  0  0  0  0
   -5.1018   -1.8316   -1.3263 N   0  0  0  0  0  0  0  0  0  0  0  0
   -6.9579   -3.0987   -2.4284 H   0  0  0  0  0  0  0  0  0  0  0  0
   -8.1671   -2.5448   -1.2569 H   0  0  0  0  0  0  0  0  0  0  0  0
   -7.8886   -1.6274   -2.7623 H   0  0  0  0  0  0  0  0  0  0  0  0
   -7.7930    0.0859   -0.6321 H   0  0  0  0  0  0  0  0  0  0  0  0
   -7.2903    2.0680    0.4882 H   0  0  0  0  0  0  0  0  0  0  0  0
   -5.6470    2.6932    0.3648 H   0  0  0  0  0  0  0  0  0  0  0  0
   -6.1426    1.7395    1.7947 H   0  0  0  0  0  0  0  0  0  0  0  0
   -3.8928    2.1734    1.7642 H   0  0  0  0  0  0  0  0  0  0  0  0
   -2.2090    1.9736    1.7566 H   0  0  0  0  0  0  0  0  0  0  0  0
   -0.0896   -1.3933   -0.6866 H   0  0  0  0  0  0  0  0  0  0  0  0
    1.8411   -1.4725    1.9951 H   0  0  0  0  0  0  0  0  0  0  0  0
    2.0048    0.3216    2.0223 H   0  0  0  0  0  0  0  0  0  0  0  0
    6.0248   -2.0274    0.6174 H   0  0  0  0  0  0  0  0  0  0  0  0
    8.4261   -2.0167    0.1749 H   0  0  0  0  0  0  0  0  0  0  0  0
    9.5321   -0.0042   -0.7710 H   0  0  0  0  0  0  0  0  0  0  0  0
    8.1745    2.0316   -1.2409 H   0  0  0  0  0  0  0  0  0  0  0  0
    3.8289    1.2369   -1.4403 H   0  0  0  0  0  0  0  0  0  0  0  0
    3.2894    1.8595    0.1671 H   0  0  0  0  0  0  0  0  0  0  0  0
  1  2  1  0
  2  3  2  0
  3  4  1  0
  4  5  1  0
  4  6  2  0
  6  7  1  0
  7  8  1  0
  7  9  2  0
  9 10  1  0
 10 11  2  0
 10 12  1  0
 12 13  1  0
 13 14  1  0
 14 15  1  0
 15 16  2  0
 15 17  1  0
 17 18  1  0
 18 19  2  0
 19 20  1  0
 20 21  2  0
 21 22  1  0
 22 23  2  0
 23 24  1  0
 17 25  1  0
 25 26  1  0
 26 27  2  0
  9 28  1  0
 28 29  1  0
 29 30  2  0
 30  2  1  0
 29  6  1  0
 26 13  1  0
 23 18  1  0
  1 31  1  0
  1 32  1  0
  1 33  1  0
  3 34  1  0
  5 35  1  0
  5 36  1  0
  5 37  1  0
  8 38  1  0
  8 39  1  0
 12 40  1  0
 14 41  1  0
 14 42  1  0
 19 43  1  0
 20 44  1  0
 21 45  1  0
 22 46  1  0
 25 47  1  0
 25 48  1  0
M  END
$$$$
