
     RDKit          3D

 37 40  0  0  0  0  0  0  0  0999 V2000
    5.2292   -1.0407    0.0409 C   0  0  0  0  0  0  0  0  0  0  0  0
    5.0125    0.3127   -0.3369 O   0  0  0  0  0  0  0  0  0  0  0  0
    3.7141    0.7477   -0.3732 C   0  0  0  0  0  0  0  0  0  0  0  0
    3.5653    2.0852   -0.7326 C   0  0  0  0  0  0  0  0  0  0  0  0
    2.3043    2.6766   -0.8288 C   0  0  0  0  0  0  0  0  0  0  0  0
    1.1931    1.8773   -0.5424 C   0  0  0  0  0  0  0  0  0  0  0  0
   -0.1390    2.1903   -0.5766 N   0  0  0  0  0  0  0  0  0  0  0  0
   -0.9267    1.1075   -0.2504 C   0  0  0  0  0  0  0  0  0  0  0  0
   -2.3327    1.0123   -0.2144 C   0  0  0  0  0  0  0  0  0  0  0  0
   -3.2172    2.1859   -0.5552 C   0  0  0  0  0  0  0  0  0  0  0  0
   -2.8885   -0.2506    0.1306 C   0  0  0  0  0  0  0  0  0  0  0  0
   -4.2834   -0.4648    0.1466 C   0  0  0  0  0  0  0  0  0  0  0  0
   -4.7988   -1.7067    0.4742 C   0  0  0  0  0  0  0  0  0  0  0  0
   -4.0351   -2.7606    0.7859 N   0  0  0  0  0  0  0  0  0  0  0  0
   -2.6977   -2.5474    0.7726 C   0  0  0  0  0  0  0  0  0  0  0  0
   -2.0460   -1.3346    0.4697 C   0  0  0  0  0  0  0  0  0  0  0  0
   -0.6195   -1.1797    0.4921 C   0  0  0  0  0  0  0  0  0  0  0  0
    0.2544   -2.3282    0.9375 C   0  0  0  0  0  0  0  0  0  0  0  0
   -0.0619    0.0583    0.0621 C   0  0  0  0  0  0  0  0  0  0  0  0
    1.2858    0.5422   -0.1606 C   0  0  0  0  0  0  0  0  0  0  0  0
    2.5820   -0.0288   -0.0915 C   0  0  0  0  0  0  0  0  0  0  0  0
    6.3085   -1.2208    0.0337 H   0  0  0  0  0  0  0  0  0  0  0  0
    4.8671   -1.2307    1.0567 H   0  0  0  0  0  0  0  0  0  0  0  0
    4.7726   -1.7287   -0.6782 H   0  0  0  0  0  0  0  0  0  0  0  0
    4.4495    2.6804   -0.9507 H   0  0  0  0  0  0  0  0  0  0  0  0
    2.2008    3.7166   -1.1204 H   0  0  0  0  0  0  0  0  0  0  0  0
   -0.4937    3.0977   -0.8367 H   0  0  0  0  0  0  0  0  0  0  0  0
   -2.6434    3.0937   -0.7599 H   0  0  0  0  0  0  0  0  0  0  0  0
   -3.8861    2.4133    0.2813 H   0  0  0  0  0  0  0  0  0  0  0  0
   -3.8094    1.9664   -1.4496 H   0  0  0  0  0  0  0  0  0  0  0  0
   -4.9860    0.3243   -0.0989 H   0  0  0  0  0  0  0  0  0  0  0  0
   -5.8700   -1.8836    0.4885 H   0  0  0  0  0  0  0  0  0  0  0  0
   -2.1377   -3.4456    1.0175 H   0  0  0  0  0  0  0  0  0  0  0  0
   -0.2071   -2.9011    1.7473 H   0  0  0  0  0  0  0  0  0  0  0  0
    1.1946   -1.9702    1.3607 H   0  0  0  0  0  0  0  0  0  0  0  0
    0.4648   -2.9920    0.0941 H   0  0  0  0  0  0  0  0  0  0  0  0
    2.6814   -1.0737    0.1652 H   0  0  0  0  0  0  0  0  0  0  0  0
  1  2  1  0
  2  3  1  0
  3  4  2  0
  4  5  1  0
  5  6  2  0
  6  7  1  0
  7  8  1  0
  8  9  2  0
  9 10  1  0
  9 11  1  0
 11 12  2  0
 12 13  1  0
 13 14  2  0
 14 15  1  0
 15 16  2  0
 16 17  1  0
 17 18  1  0
 17 19  2  0
 19 20  1  0
 20 21  2  0
 21  3  1  0
 20  6  1  0
 19  8  1  0
 16 11  1  0
  1 22  1  0
  1 23  1  0
  1 24  1  0
  4 25  1  0
  5 26  1  0
  7 27  1  0
 10 28  1  0
 10 29  1  0
 10 30  1  0
 12 31  1  0
 13 32  1  0
 15 33  1  0
 18 34  1  0
 18 35  1  0
 18 36  1  0
 21 37  1  0
M  END
$$$$
