
     RDKit          3D

 46 46  0  0  0  0  0  0  0  0999 V2000
   -1.5287    2.4718    0.5831 O   0  0  0  0  0  0  0  0  0  0  0  0
   -1.1926    1.3500    0.2223 C   0  0  0  0  0  0  0  0  0  0  0  0
    0.1938    1.0175   -0.2817 C   0  0  0  0  0  0  0  0  0  0  0  0
    1.0894    2.2447   -0.3047 C   0  0  0  0  0  0  0  0  0  0  0  0
    2.4548    1.8596   -0.7967 C   0  0  0  0  0  0  0  0  0  0  0  0
    2.7143    1.6084   -1.9655 O   0  0  0  0  0  0  0  0  0  0  0  0
    3.3288    1.7665    0.2412 O   0  0  0  0  0  0  0  0  0  0  0  0
    4.6837    1.4226   -0.0854 C   0  0  0  0  0  0  0  0  0  0  0  0
    4.9772   -0.0245    0.3096 C   0  0  0  0  0  0  0  0  0  0  0  0
    4.2043   -1.0376   -0.5373 C   0  0  0  0  0  0  0  0  0  0  0  0
    4.3884   -2.4922   -0.1104 C   0  0  0  0  0  0  0  0  0  0  0  0
    3.5457   -3.2461   -0.8820 F   0  0  0  0  0  0  0  0  0  0  0  0
    3.9299   -2.6286    1.1676 F   0  0  0  0  0  0  0  0  0  0  0  0
    5.8174   -3.0272   -0.2325 C   0  0  0  0  0  0  0  0  0  0  0  0
    5.8925   -4.3437    0.0788 F   0  0  0  0  0  0  0  0  0  0  0  0
    6.6791   -2.3794    0.5893 F   0  0  0  0  0  0  0  0  0  0  0  0
    6.2952   -2.8851   -1.4939 F   0  0  0  0  0  0  0  0  0  0  0  0
   -2.0303    0.2539    0.2438 N   0  0  0  0  0  0  0  0  0  0  0  0
   -3.4382    0.3784    0.5944 C   0  0  0  0  0  0  0  0  0  0  0  0
   -4.2514    0.9298   -0.5906 C   0  0  0  0  0  0  0  0  0  0  0  0
   -5.7210    0.5020   -0.5769 C   0  0  0  0  0  0  0  0  0  0  0  0
   -6.2305    0.2608    0.8370 C   0  0  0  0  0  0  0  0  0  0  0  0
   -5.4452   -0.8457    1.5429 C   0  0  0  0  0  0  0  0  0  0  0  0
   -3.9942   -0.9637    1.0713 C   0  0  0  0  0  0  0  0  0  0  0  0
    0.6252    0.2472    0.3692 H   0  0  0  0  0  0  0  0  0  0  0  0
    0.1068    0.5936   -1.2896 H   0  0  0  0  0  0  0  0  0  0  0  0
    0.6934    3.0224   -0.9682 H   0  0  0  0  0  0  0  0  0  0  0  0
    1.1674    2.6993    0.6901 H   0  0  0  0  0  0  0  0  0  0  0  0
    4.9214    1.6029   -1.1400 H   0  0  0  0  0  0  0  0  0  0  0  0
    5.3239    2.0901    0.5016 H   0  0  0  0  0  0  0  0  0  0  0  0
    6.0531   -0.1917    0.2013 H   0  0  0  0  0  0  0  0  0  0  0  0
    4.7180   -0.1689    1.3648 H   0  0  0  0  0  0  0  0  0  0  0  0
    4.4770   -0.9296   -1.5937 H   0  0  0  0  0  0  0  0  0  0  0  0
    3.1322   -0.8191   -0.4737 H   0  0  0  0  0  0  0  0  0  0  0  0
   -1.7392   -0.5791   -0.2528 H   0  0  0  0  0  0  0  0  0  0  0  0
   -3.5058    1.0940    1.4246 H   0  0  0  0  0  0  0  0  0  0  0  0
   -4.1902    2.0259   -0.5773 H   0  0  0  0  0  0  0  0  0  0  0  0
   -3.8094    0.6202   -1.5466 H   0  0  0  0  0  0  0  0  0  0  0  0
   -6.3299    1.2644   -1.0755 H   0  0  0  0  0  0  0  0  0  0  0  0
   -5.8354   -0.4193   -1.1615 H   0  0  0  0  0  0  0  0  0  0  0  0
   -6.1457    1.1910    1.4129 H   0  0  0  0  0  0  0  0  0  0  0  0
   -7.2951    0.0018    0.8191 H   0  0  0  0  0  0  0  0  0  0  0  0
   -5.4699   -0.6591    2.6233 H   0  0  0  0  0  0  0  0  0  0  0  0
   -5.9432   -1.8105    1.3887 H   0  0  0  0  0  0  0  0  0  0  0  0
   -3.3791   -1.3733    1.8821 H   0  0  0  0  0  0  0  0  0  0  0  0
   -3.9377   -1.6944    0.2531 H   0  0  0  0  0  0  0  0  0  0  0  0
  1  2  2  0
  2  3  1  0
  3  4  1  0
  4  5  1  0
  5  6  2  0
  5  7  1  0
  7  8  1  0
  8  9  1  0
  9 10  1  0
 10 11  1  0
 11 12  1  0
 11 13  1  0
 11 14  1  0
 14 15  1  0
 14 16  1  0
 14 17  1  0
  2 18  1  0
 18 19  1  0
 19 20  1  0
 20 21  1  0
 21 22  1  0
 22 23  1  0
 23 24  1  0
 24 19  1  0
  3 25  1  0
  3 26  1  0
  4 27  1  0
  4 28  1  0
  8 29  1  0
  8 30  1  0
  9 31  1  0
  9 32  1  0
 10 33  1  0
 10 34  1  0
 18 35  1  0
 19 36  1  0
 20 37  1  0
 20 38  1  0
 21 39  1  0
 21 40  1  0
 22 41  1  0
 22 42  1  0
 23 43  1  0
 23 44  1  0
 24 45  1  0
 24 46  1  0
M  END
$$$$
