
     RDKit          3D

 51 54  0  0  0  0  0  0  0  0999 V2000
    4.0129    0.9303    2.7204 C   0  0  0  0  0  0  0  0  0  0  0  0
    3.3155   -0.0763    1.7954 C   0  0  0  0  0  0  0  0  0  0  0  0
    2.0265   -0.6009    2.4637 C   0  0  0  0  0  0  0  0  0  0  0  0
    0.9791    0.2162    1.7735 C   0  0  0  0  0  0  0  0  0  0  0  0
   -0.3619    0.3238    2.1121 C   0  0  0  0  0  0  0  0  0  0  0  0
   -1.1849    1.0812    1.2737 C   0  0  0  0  0  0  0  0  0  0  0  0
   -2.8989    1.2924    1.6754 S   0  0  0  0  0  6  0  0  0  0  0  0
   -3.1439    0.7210    2.9813 O   0  0  0  0  0  0  0  0  0  0  0  0
   -3.2717    2.6502    1.3504 O   0  0  0  0  0  0  0  0  0  0  0  0
   -3.6312    0.2411    0.5733 N   0  0  0  0  0  0  0  0  0  0  0  0
   -4.9776    0.6750    0.1488 C   0  0  0  0  0  0  0  0  0  0  0  0
   -5.6730   -0.4256   -0.6150 C   0  0  0  0  0  0  0  0  0  0  0  0
   -6.6787   -1.1924   -0.0085 C   0  0  0  0  0  0  0  0  0  0  0  0
   -7.3037   -2.2226   -0.7132 C   0  0  0  0  0  0  0  0  0  0  0  0
   -6.9257   -2.5003   -2.0258 C   0  0  0  0  0  0  0  0  0  0  0  0
   -5.9201   -1.7514   -2.6348 C   0  0  0  0  0  0  0  0  0  0  0  0
   -5.2935   -0.7210   -1.9323 C   0  0  0  0  0  0  0  0  0  0  0  0
   -0.6727    1.7090    0.1251 C   0  0  0  0  0  0  0  0  0  0  0  0
    0.6813    1.5789   -0.2038 C   0  0  0  0  0  0  0  0  0  0  0  0
    1.5005    0.8384    0.6338 C   0  0  0  0  0  0  0  0  0  0  0  0
    2.8836    0.5711    0.5297 N   0  0  0  0  0  0  0  0  0  0  0  0
    3.6853    0.8805   -0.5675 C   0  0  0  0  0  0  0  0  0  0  0  0
    3.2706    1.5252   -1.5389 O   0  0  0  0  0  0  0  0  0  0  0  0
    5.1455    0.3256   -0.5314 C   0  0  0  0  0  0  0  0  0  0  0  0
    5.3424   -1.1553   -0.9614 C   0  0  0  0  0  0  0  0  0  0  0  0
    5.7123   -0.6465   -2.3649 C   0  0  0  0  0  0  0  0  0  0  0  0
    6.0884    0.6945   -1.7128 C   0  0  0  0  0  0  0  0  0  0  0  0
    4.3318    0.4412    3.6468 H   0  0  0  0  0  0  0  0  0  0  0  0
    3.3453    1.7576    2.9872 H   0  0  0  0  0  0  0  0  0  0  0  0
    4.8966    1.3729    2.2543 H   0  0  0  0  0  0  0  0  0  0  0  0
    4.0012   -0.9023    1.5805 H   0  0  0  0  0  0  0  0  0  0  0  0
    1.8734   -1.6588    2.2224 H   0  0  0  0  0  0  0  0  0  0  0  0
    2.0181   -0.4685    3.5496 H   0  0  0  0  0  0  0  0  0  0  0  0
   -0.7541   -0.1688    2.9970 H   0  0  0  0  0  0  0  0  0  0  0  0
   -3.6916   -0.6795    1.0131 H   0  0  0  0  0  0  0  0  0  0  0  0
   -4.9017    1.5615   -0.4913 H   0  0  0  0  0  0  0  0  0  0  0  0
   -5.5798    0.9424    1.0255 H   0  0  0  0  0  0  0  0  0  0  0  0
   -6.9833   -0.9922    1.0165 H   0  0  0  0  0  0  0  0  0  0  0  0
   -8.0858   -2.8102   -0.2377 H   0  0  0  0  0  0  0  0  0  0  0  0
   -7.4130   -3.3029   -2.5738 H   0  0  0  0  0  0  0  0  0  0  0  0
   -5.6216   -1.9714   -3.6566 H   0  0  0  0  0  0  0  0  0  0  0  0
   -4.5023   -0.1492   -2.4141 H   0  0  0  0  0  0  0  0  0  0  0  0
   -1.3238    2.3020   -0.5140 H   0  0  0  0  0  0  0  0  0  0  0  0
    1.0627    2.0719   -1.0915 H   0  0  0  0  0  0  0  0  0  0  0  0
    5.6392    0.5520    0.4191 H   0  0  0  0  0  0  0  0  0  0  0  0
    4.4571   -1.7952   -0.9182 H   0  0  0  0  0  0  0  0  0  0  0  0
    6.1653   -1.6563   -0.4384 H   0  0  0  0  0  0  0  0  0  0  0  0
    4.8588   -0.5802   -3.0493 H   0  0  0  0  0  0  0  0  0  0  0  0
    6.5271   -1.1774   -2.8634 H   0  0  0  0  0  0  0  0  0  0  0  0
    5.8297    1.5866   -2.2891 H   0  0  0  0  0  0  0  0  0  0  0  0
    7.1441    0.7631   -1.4230 H   0  0  0  0  0  0  0  0  0  0  0  0
  1  2  1  0
  2  3  1  0
  3  4  1  0
  4  5  2  0
  5  6  1  0
  6  7  1  0
  7  8  2  0
  7  9  2  0
  7 10  1  0
 10 11  1  0
 11 12  1  0
 12 13  2  0
 13 14  1  0
 14 15  2  0
 15 16  1  0
 16 17  2  0
  6 18  2  0
 18 19  1  0
 19 20  2  0
 20 21  1  0
 21 22  1  0
 22 23  2  0
 22 24  1  0
 24 25  1  0
 25 26  1  0
 26 27  1  0
 21  2  1  0
 27 24  1  0
 20  4  1  0
 17 12  1  0
  1 28  1  0
  1 29  1  0
  1 30  1  0
  2 31  1  0
  3 32  1  0
  3 33  1  0
  5 34  1  0
 10 35  1  0
 11 36  1  0
 11 37  1  0
 13 38  1  0
 14 39  1  0
 15 40  1  0
 16 41  1  0
 17 42  1  0
 18 43  1  0
 19 44  1  0
 24 45  1  0
 25 46  1  0
 25 47  1  0
 26 48  1  0
 26 49  1  0
 27 50  1  0
 27 51  1  0
M  END
$$$$
