
     RDKit          3D

 56 60  0  0  0  0  0  0  0  0999 V2000
    7.8529   -2.6032    0.5065 C   0  0  0  0  0  0  0  0  0  0  0  0
    6.4745   -2.5072   -0.0320 C   0  0  0  0  0  0  0  0  0  0  0  0
    6.1250   -1.4711   -0.8051 N   0  0  0  0  0  0  0  0  0  0  0  0
    4.8233   -1.6961   -1.1004 N   0  0  0  0  0  0  0  0  0  0  0  0
    4.1222   -0.7393   -1.9522 C   0  0  0  0  0  0  0  0  0  0  0  0
    3.2309    0.1816   -1.1543 C   0  0  0  0  0  0  0  0  0  0  0  0
    3.7788    1.0896   -0.2356 C   0  0  0  0  0  0  0  0  0  0  0  0
    2.9565    1.9538    0.4891 C   0  0  0  0  0  0  0  0  0  0  0  0
    1.5730    1.9185    0.3114 C   0  0  0  0  0  0  0  0  0  0  0  0
    1.0080    1.0091   -0.5901 C   0  0  0  0  0  0  0  0  0  0  0  0
   -0.4629    0.9289   -0.8147 C   0  0  0  0  0  0  0  0  0  0  0  0
   -0.8851    0.5447   -1.8984 O   0  0  0  0  0  0  0  0  0  0  0  0
   -1.2578    1.2645    0.2625 N   0  0  0  0  0  0  0  0  0  0  0  0
   -2.7223    1.1676    0.2745 C   0  0  0  0  0  0  0  0  0  0  0  0
   -3.1978   -0.2955    0.0984 C   0  0  0  0  0  0  0  0  0  0  0  0
   -4.7329   -0.3778    0.1717 C   0  0  0  0  0  0  0  0  0  0  0  0
   -5.2044    0.1347    1.5418 C   0  0  0  0  0  0  0  0  0  0  0  0
   -4.7651    1.5946    1.7360 C   0  0  0  0  0  0  0  0  0  0  0  0
   -5.3777    2.4626    0.6263 C   0  0  0  0  0  0  0  0  0  0  0  0
   -4.9063    1.9644   -0.7486 C   0  0  0  0  0  0  0  0  0  0  0  0
   -5.3411    0.5006   -0.9349 C   0  0  0  0  0  0  0  0  0  0  0  0
   -3.3713    2.0495   -0.8225 C   0  0  0  0  0  0  0  0  0  0  0  0
   -3.2328    1.6754    1.6508 C   0  0  0  0  0  0  0  0  0  0  0  0
    1.8393    0.1571   -1.3312 C   0  0  0  0  0  0  0  0  0  0  0  0
    4.3338   -2.8624   -0.5564 C   0  0  0  0  0  0  0  0  0  0  0  0
    2.9397   -3.3349   -0.7392 C   0  0  0  0  0  0  0  0  0  0  0  0
    5.3918   -3.3897    0.1470 C   0  0  0  0  0  0  0  0  0  0  0  0
    5.4346   -4.9647    1.1601 Br  0  0  0  0  0  0  0  0  0  0  0  0
    8.3316   -3.5294    0.1732 H   0  0  0  0  0  0  0  0  0  0  0  0
    7.8380   -2.5935    1.6010 H   0  0  0  0  0  0  0  0  0  0  0  0
    8.4745   -1.7660    0.1721 H   0  0  0  0  0  0  0  0  0  0  0  0
    3.5577   -1.3146   -2.6939 H   0  0  0  0  0  0  0  0  0  0  0  0
    4.8710   -0.1551   -2.5004 H   0  0  0  0  0  0  0  0  0  0  0  0
    4.8577    1.1290   -0.0836 H   0  0  0  0  0  0  0  0  0  0  0  0
    3.3992    2.6609    1.1868 H   0  0  0  0  0  0  0  0  0  0  0  0
    0.9557    2.6237    0.8605 H   0  0  0  0  0  0  0  0  0  0  0  0
   -0.8040    1.3259    1.1640 H   0  0  0  0  0  0  0  0  0  0  0  0
   -2.8628   -0.7024   -0.8631 H   0  0  0  0  0  0  0  0  0  0  0  0
   -2.7522   -0.9330    0.8732 H   0  0  0  0  0  0  0  0  0  0  0  0
   -5.0530   -1.4169    0.0365 H   0  0  0  0  0  0  0  0  0  0  0  0
   -6.2963    0.0591    1.6148 H   0  0  0  0  0  0  0  0  0  0  0  0
   -4.7879   -0.4918    2.3401 H   0  0  0  0  0  0  0  0  0  0  0  0
   -5.1010    1.9546    2.7148 H   0  0  0  0  0  0  0  0  0  0  0  0
   -5.0860    3.5108    0.7656 H   0  0  0  0  0  0  0  0  0  0  0  0
   -6.4725    2.4266    0.6832 H   0  0  0  0  0  0  0  0  0  0  0  0
   -5.3482    2.5842   -1.5368 H   0  0  0  0  0  0  0  0  0  0  0  0
   -6.4355    0.4299   -0.9087 H   0  0  0  0  0  0  0  0  0  0  0  0
   -5.0222    0.1373   -1.9195 H   0  0  0  0  0  0  0  0  0  0  0  0
   -3.0489    1.7374   -1.8223 H   0  0  0  0  0  0  0  0  0  0  0  0
   -3.0485    3.0926   -0.7077 H   0  0  0  0  0  0  0  0  0  0  0  0
   -2.9058    2.7108    1.8156 H   0  0  0  0  0  0  0  0  0  0  0  0
   -2.7878    1.0819    2.4608 H   0  0  0  0  0  0  0  0  0  0  0  0
    1.3891   -0.5309   -2.0460 H   0  0  0  0  0  0  0  0  0  0  0  0
    2.6395   -3.2887   -1.7904 H   0  0  0  0  0  0  0  0  0  0  0  0
    2.8233   -4.3739   -0.4163 H   0  0  0  0  0  0  0  0  0  0  0  0
    2.2486   -2.7242   -0.1503 H   0  0  0  0  0  0  0  0  0  0  0  0
  1  2  1  0
  2  3  2  0
  3  4  1  0
  4  5  1  0
  5  6  1  0
  6  7  2  0
  7  8  1  0
  8  9  2  0
  9 10  1  0
 10 11  1  0
 11 12  2  0
 11 13  1  0
 13 14  1  0
 14 15  1  0
 15 16  1  0
 16 17  1  0
 17 18  1  0
 18 19  1  0
 19 20  1  0
 20 21  1  0
 20 22  1  0
 18 23  1  0
 10 24  2  0
  4 25  1  0
 25 26  1  0
 25 27  2  0
 27 28  1  0
 27  2  1  0
 24  6  1  0
 22 14  1  0
 23 14  1  0
 21 16  1  0
  1 29  1  0
  1 30  1  0
  1 31  1  0
  5 32  1  0
  5 33  1  0
  7 34  1  0
  8 35  1  0
  9 36  1  0
 13 37  1  0
 15 38  1  0
 15 39  1  0
 16 40  1  0
 17 41  1  0
 17 42  1  0
 18 43  1  0
 19 44  1  0
 19 45  1  0
 20 46  1  0
 21 47  1  0
 21 48  1  0
 22 49  1  0
 22 50  1  0
 23 51  1  0
 23 52  1  0
 24 53  1  0
 26 54  1  0
 26 55  1  0
 26 56  1  0
M  END
$$$$
