
     RDKit          3D

 41 43  0  0  0  0  0  0  0  0999 V2000
   -1.9403   -1.4456   -0.4109 C   0  0  0  0  0  0  0  0  0  0  0  0
   -2.3921   -0.4871    0.6610 C   0  0  0  0  0  0  0  0  0  0  0  0
   -3.5451    0.2100    0.5696 C   0  0  0  0  0  0  0  0  0  0  0  0
   -4.4460    0.2273   -0.5889 C   0  0  0  0  0  0  0  0  0  0  0  0
   -5.7553   -0.2462   -0.4515 C   0  0  0  0  0  0  0  0  0  0  0  0
   -6.6308   -0.2210   -1.5392 C   0  0  0  0  0  0  0  0  0  0  0  0
   -6.2047    0.2838   -2.7670 C   0  0  0  0  0  0  0  0  0  0  0  0
   -4.9045    0.7662   -2.9085 C   0  0  0  0  0  0  0  0  0  0  0  0
   -4.0280    0.7416   -1.8219 C   0  0  0  0  0  0  0  0  0  0  0  0
   -1.6369   -0.4045    1.9083 C   0  0  0  0  0  0  0  0  0  0  0  0
   -0.3179   -0.4719    2.1534 C   0  0  0  0  0  0  0  0  0  0  0  0
    0.2824   -0.3965    3.7908 S   0  0  0  0  0  0  0  0  0  0  0  0
    1.9662   -0.5392    3.3081 C   0  0  0  0  0  0  0  0  0  0  0  0
    3.2293   -0.6296    4.3941 S   0  0  0  0  0  0  0  0  0  0  0  0
    2.0184   -0.6021    1.9335 N   0  0  0  0  0  0  0  0  0  0  0  0
    3.2385   -0.6029    1.2238 N   0  0  0  0  0  0  0  0  0  0  0  0
    3.7420    0.6448    0.8898 C   0  0  0  0  0  0  0  0  0  0  0  0
    3.3028    1.6981    1.3405 O   0  0  0  0  0  0  0  0  0  0  0  0
    4.8481    0.6578   -0.1015 C   0  0  0  0  0  0  0  0  0  0  0  0
    5.0211    1.7994   -0.8842 C   0  0  0  0  0  0  0  0  0  0  0  0
    6.0526    1.8054   -1.8035 C   0  0  0  0  0  0  0  0  0  0  0  0
    6.9030    0.7711   -1.9782 N   0  0  0  0  0  0  0  0  0  0  0  0
    6.7265   -0.3120   -1.1928 C   0  0  0  0  0  0  0  0  0  0  0  0
    5.7232   -0.4198   -0.2461 C   0  0  0  0  0  0  0  0  0  0  0  0
    0.8362   -0.5753    1.2097 C   0  0  0  0  0  0  0  0  0  0  0  0
    0.7729   -0.6456   -0.0096 O   0  0  0  0  0  0  0  0  0  0  0  0
   -2.7908   -1.9215   -0.9118 H   0  0  0  0  0  0  0  0  0  0  0  0
   -1.3481   -2.2671    0.0066 H   0  0  0  0  0  0  0  0  0  0  0  0
   -1.3521   -0.9284   -1.1742 H   0  0  0  0  0  0  0  0  0  0  0  0
   -3.8800    0.8447    1.3885 H   0  0  0  0  0  0  0  0  0  0  0  0
   -6.1001   -0.6432    0.5002 H   0  0  0  0  0  0  0  0  0  0  0  0
   -7.6453   -0.5948   -1.4279 H   0  0  0  0  0  0  0  0  0  0  0  0
   -6.8868    0.3036   -3.6131 H   0  0  0  0  0  0  0  0  0  0  0  0
   -4.5724    1.1644   -3.8637 H   0  0  0  0  0  0  0  0  0  0  0  0
   -3.0185    1.1282   -1.9426 H   0  0  0  0  0  0  0  0  0  0  0  0
   -2.2844   -0.2501    2.7757 H   0  0  0  0  0  0  0  0  0  0  0  0
    3.3152   -1.3450    0.5348 H   0  0  0  0  0  0  0  0  0  0  0  0
    4.3681    2.6605   -0.7825 H   0  0  0  0  0  0  0  0  0  0  0  0
    6.2301    2.6663   -2.4423 H   0  0  0  0  0  0  0  0  0  0  0  0
    7.4427   -1.1147   -1.3473 H   0  0  0  0  0  0  0  0  0  0  0  0
    5.6609   -1.3092    0.3693 H   0  0  0  0  0  0  0  0  0  0  0  0
  1  2  1  0
  2  3  2  3
  3  4  1  0
  4  5  2  0
  5  6  1  0
  6  7  2  0
  7  8  1  0
  8  9  2  0
  2 10  1  0
 10 11  2  3
 11 12  1  0
 12 13  1  0
 13 14  2  0
 13 15  1  0
 15 16  1  0
 16 17  1  0
 17 18  2  0
 17 19  1  0
 19 20  2  0
 20 21  1  0
 21 22  2  0
 22 23  1  0
 23 24  2  0
 15 25  1  0
 25 26  2  0
  9  4  1  0
 25 11  1  0
 24 19  1  0
  1 27  1  0
  1 28  1  0
  1 29  1  0
  3 30  1  0
  5 31  1  0
  6 32  1  0
  7 33  1  0
  8 34  1  0
  9 35  1  0
 10 36  1  0
 16 37  1  0
 20 38  1  0
 21 39  1  0
 23 40  1  0
 24 41  1  0
M  END
$$$$
