
     RDKit          3D

 51 54  0  0  0  0  0  0  0  0999 V2000
   -1.6563    4.1039    4.3777 C   0  0  0  0  0  0  0  0  0  0  0  0
   -0.7939    3.5206    3.2729 C   0  0  0  0  0  0  0  0  0  0  0  0
   -0.6638    2.1151    3.5168 O   0  0  0  0  0  0  0  0  0  0  0  0
    0.0550    1.5195    2.5099 C   0  0  0  0  0  0  0  0  0  0  0  0
   -0.6705    0.8143    1.5462 C   0  0  0  0  0  0  0  0  0  0  0  0
   -0.0077    0.1437    0.5080 C   0  0  0  0  0  0  0  0  0  0  0  0
   -0.8293   -0.6530   -0.5063 C   0  0  0  0  0  0  0  0  0  0  0  0
   -0.8866   -2.1278   -0.0765 C   0  0  0  0  0  0  0  0  0  0  0  0
   -2.2819   -2.5249    0.3832 C   0  0  0  0  0  0  0  0  0  0  0  0
   -3.1214   -1.6975    0.7339 O   0  0  0  0  0  0  0  0  0  0  0  0
   -2.6048   -4.0085    0.4157 C   0  0  0  0  0  0  0  0  0  0  0  0
   -1.3288   -4.8419    0.4547 C   0  0  0  0  0  0  0  0  0  0  0  0
   -0.4604   -4.5874   -0.7725 C   0  0  0  0  0  0  0  0  0  0  0  0
   -0.3989   -3.1101   -1.1252 C   0  0  0  0  0  0  0  0  0  0  0  0
    0.0713   -2.8047   -2.2916 N   0  0  0  0  0  0  0  0  0  0  0  0
    0.1011   -1.5071   -2.6603 C   0  0  0  0  0  0  0  0  0  0  0  0
    0.4930   -0.9855   -3.7997 N   0  0  0  0  0  0  0  0  0  0  0  0
    0.2576    0.3755   -3.6687 C   0  0  0  0  0  0  0  0  0  0  0  0
    0.5479    1.3587   -4.7309 C   0  0  0  0  0  0  0  0  0  0  0  0
    0.3599    2.5688   -4.6272 O   0  0  0  0  0  0  0  0  0  0  0  0
    1.0597    0.7696   -5.8582 O   0  0  0  0  0  0  0  0  0  0  0  0
    1.3572    1.6843   -6.9110 C   0  0  0  0  0  0  0  0  0  0  0  0
   -0.2690    0.7070   -2.4727 N   0  0  0  0  0  0  0  0  0  0  0  0
   -0.3178   -0.4869   -1.8562 N   0  0  0  0  0  0  0  0  0  0  0  0
    1.3966    0.1754    0.4838 C   0  0  0  0  0  0  0  0  0  0  0  0
    2.1187    0.8709    1.4636 C   0  0  0  0  0  0  0  0  0  0  0  0
    1.4562    1.5424    2.4929 C   0  0  0  0  0  0  0  0  0  0  0  0
    2.0680    2.2262    3.5090 O   0  0  0  0  0  0  0  0  0  0  0  0
    3.4886    2.2178    3.5423 C   0  0  0  0  0  0  0  0  0  0  0  0
   -1.2015    3.9170    5.3555 H   0  0  0  0  0  0  0  0  0  0  0  0
   -1.7864    5.1811    4.2457 H   0  0  0  0  0  0  0  0  0  0  0  0
   -2.6418    3.6258    4.3881 H   0  0  0  0  0  0  0  0  0  0  0  0
    0.1852    4.0130    3.2825 H   0  0  0  0  0  0  0  0  0  0  0  0
   -1.2763    3.6960    2.3038 H   0  0  0  0  0  0  0  0  0  0  0  0
   -1.7568    0.7931    1.6186 H   0  0  0  0  0  0  0  0  0  0  0  0
   -1.8303   -0.2047   -0.5585 H   0  0  0  0  0  0  0  0  0  0  0  0
   -0.2433   -2.2915    0.8008 H   0  0  0  0  0  0  0  0  0  0  0  0
   -3.2004   -4.2507   -0.4724 H   0  0  0  0  0  0  0  0  0  0  0  0
   -3.2039   -4.2134    1.3106 H   0  0  0  0  0  0  0  0  0  0  0  0
   -0.7599   -4.5979    1.3616 H   0  0  0  0  0  0  0  0  0  0  0  0
   -1.5772   -5.9074    0.5145 H   0  0  0  0  0  0  0  0  0  0  0  0
    0.5569   -4.9533   -0.6025 H   0  0  0  0  0  0  0  0  0  0  0  0
   -0.8711   -5.1240   -1.6352 H   0  0  0  0  0  0  0  0  0  0  0  0
    0.4464    2.1867   -7.2518 H   0  0  0  0  0  0  0  0  0  0  0  0
    1.7707    1.1147   -7.7473 H   0  0  0  0  0  0  0  0  0  0  0  0
    2.1057    2.4144   -6.5876 H   0  0  0  0  0  0  0  0  0  0  0  0
    1.9546   -0.3365   -0.2991 H   0  0  0  0  0  0  0  0  0  0  0  0
    3.2010    0.8651    1.3916 H   0  0  0  0  0  0  0  0  0  0  0  0
    3.8057    2.7971    4.4145 H   0  0  0  0  0  0  0  0  0  0  0  0
    3.9097    2.6986    2.6520 H   0  0  0  0  0  0  0  0  0  0  0  0
    3.8734    1.1987    3.6612 H   0  0  0  0  0  0  0  0  0  0  0  0
  1  2  1  0
  2  3  1  0
  3  4  1  0
  4  5  2  0
  5  6  1  0
  6  7  1  0
  7  8  1  0
  8  9  1  0
  9 10  2  0
  9 11  1  0
 11 12  1  0
 12 13  1  0
 13 14  1  0
 14 15  2  0
 15 16  1  0
 16 17  2  0
 17 18  1  0
 18 19  1  0
 19 20  2  0
 19 21  1  0
 21 22  1  0
 18 23  2  0
 23 24  1  0
  6 25  2  0
 25 26  1  0
 26 27  2  0
 27 28  1  0
 28 29  1  0
 27  4  1  0
 24  7  1  0
 14  8  1  0
 24 16  1  0
  1 30  1  0
  1 31  1  0
  1 32  1  0
  2 33  1  0
  2 34  1  0
  5 35  1  0
  7 36  1  0
  8 37  1  0
 11 38  1  0
 11 39  1  0
 12 40  1  0
 12 41  1  0
 13 42  1  0
 13 43  1  0
 22 44  1  0
 22 45  1  0
 22 46  1  0
 25 47  1  0
 26 48  1  0
 29 49  1  0
 29 50  1  0
 29 51  1  0
M  END
$$$$
