
     RDKit          3D

 53 56  0  0  0  0  0  0  0  0999 V2000
   -2.4633    6.0993   -0.3147 C   0  0  0  0  0  0  0  0  0  0  0  0
   -2.4077    5.3852    0.9137 O   0  0  0  0  0  0  0  0  0  0  0  0
   -1.9843    4.0863    0.8540 C   0  0  0  0  0  0  0  0  0  0  0  0
   -1.9018    3.4422    2.0898 C   0  0  0  0  0  0  0  0  0  0  0  0
   -1.4820    2.1123    2.1765 C   0  0  0  0  0  0  0  0  0  0  0  0
   -1.1303    1.4004    1.0208 C   0  0  0  0  0  0  0  0  0  0  0  0
   -0.6995   -0.0529    1.1352 C   0  0  0  0  0  0  0  0  0  0  0  0
   -1.8891   -0.9864    0.8941 C   0  0  0  0  0  0  0  0  0  0  0  0
   -1.3443   -1.8372   -0.2152 C   0  0  0  0  0  0  0  0  0  0  0  0
   -2.1170   -2.9663   -0.7734 C   0  0  0  0  0  0  0  0  0  0  0  0
   -3.4943   -2.7909   -0.9778 C   0  0  0  0  0  0  0  0  0  0  0  0
   -4.2622   -3.8142   -1.5335 C   0  0  0  0  0  0  0  0  0  0  0  0
   -3.6617   -5.0162   -1.8907 C   0  0  0  0  0  0  0  0  0  0  0  0
   -2.2936   -5.1988   -1.6861 C   0  0  0  0  0  0  0  0  0  0  0  0
   -1.4991   -4.1826   -1.1173 C   0  0  0  0  0  0  0  0  0  0  0  0
   -0.0306   -4.4488   -0.8769 C   0  0  0  0  0  0  0  0  0  0  0  0
    0.7907   -3.8539   -1.7820 F   0  0  0  0  0  0  0  0  0  0  0  0
    0.2677   -5.7827   -0.9593 F   0  0  0  0  0  0  0  0  0  0  0  0
    0.3907   -4.0828    0.3648 F   0  0  0  0  0  0  0  0  0  0  0  0
   -0.1584   -1.5274   -0.6285 N   0  0  0  0  0  0  0  0  0  0  0  0
    0.2681   -0.4562    0.1053 N   0  0  0  0  0  0  0  0  0  0  0  0
    1.6389   -0.1753    0.1660 C   0  0  0  0  0  0  0  0  0  0  0  0
    2.1823    0.7595    1.0640 C   0  0  0  0  0  0  0  0  0  0  0  0
    3.5544    1.0380    1.0974 C   0  0  0  0  0  0  0  0  0  0  0  0
    4.4114    0.3842    0.2144 C   0  0  0  0  0  0  0  0  0  0  0  0
    6.1445    0.7439    0.2516 S   0  0  0  0  0  6  0  0  0  0  0  0
    6.2354    2.0488   -0.8118 N   0  0  0  0  0  0  0  0  0  0  0  0
    6.4884    1.2220    1.5695 O   0  0  0  0  0  0  0  0  0  0  0  0
    6.8572   -0.3338   -0.3952 O   0  0  0  0  0  0  0  0  0  0  0  0
    3.9136   -0.5541   -0.6845 C   0  0  0  0  0  0  0  0  0  0  0  0
    2.5398   -0.8174   -0.7067 C   0  0  0  0  0  0  0  0  0  0  0  0
   -1.2270    2.0519   -0.2189 C   0  0  0  0  0  0  0  0  0  0  0  0
   -1.6466    3.3847   -0.3019 C   0  0  0  0  0  0  0  0  0  0  0  0
   -3.1904    5.6504   -0.9995 H   0  0  0  0  0  0  0  0  0  0  0  0
   -1.4732    6.1675   -0.7774 H   0  0  0  0  0  0  0  0  0  0  0  0
   -2.7986    7.1174   -0.0945 H   0  0  0  0  0  0  0  0  0  0  0  0
   -2.1664    3.9837    2.9951 H   0  0  0  0  0  0  0  0  0  0  0  0
   -1.4299    1.6420    3.1561 H   0  0  0  0  0  0  0  0  0  0  0  0
   -0.2870   -0.2485    2.1338 H   0  0  0  0  0  0  0  0  0  0  0  0
   -2.0989   -1.6067    1.7710 H   0  0  0  0  0  0  0  0  0  0  0  0
   -2.7997   -0.4659    0.5856 H   0  0  0  0  0  0  0  0  0  0  0  0
   -3.9854   -1.8513   -0.7373 H   0  0  0  0  0  0  0  0  0  0  0  0
   -5.3272   -3.6681   -1.7007 H   0  0  0  0  0  0  0  0  0  0  0  0
   -4.2571   -5.8136   -2.3303 H   0  0  0  0  0  0  0  0  0  0  0  0
   -1.8446   -6.1515   -1.9684 H   0  0  0  0  0  0  0  0  0  0  0  0
    1.5478    1.3000    1.7597 H   0  0  0  0  0  0  0  0  0  0  0  0
    3.9383    1.7638    1.8118 H   0  0  0  0  0  0  0  0  0  0  0  0
    6.7894    1.7689   -1.6231 H   0  0  0  0  0  0  0  0  0  0  0  0
    5.3187    2.4027   -1.0840 H   0  0  0  0  0  0  0  0  0  0  0  0
    4.5711   -1.0864   -1.3677 H   0  0  0  0  0  0  0  0  0  0  0  0
    2.1651   -1.5498   -1.4209 H   0  0  0  0  0  0  0  0  0  0  0  0
   -0.9657    1.5235   -1.1355 H   0  0  0  0  0  0  0  0  0  0  0  0
   -1.6966    3.8408   -1.2850 H   0  0  0  0  0  0  0  0  0  0  0  0
  1  2  1  0
  2  3  1  0
  3  4  2  0
  4  5  1  0
  5  6  2  0
  6  7  1  0
  7  8  1  0
  8  9  1  0
  9 10  1  0
 10 11  2  0
 11 12  1  0
 12 13  2  0
 13 14  1  0
 14 15  2  0
 15 16  1  0
 16 17  1  0
 16 18  1  0
 16 19  1  0
  9 20  2  0
 20 21  1  0
 21 22  1  0
 22 23  2  0
 23 24  1  0
 24 25  2  0
 25 26  1  0
 26 27  1  0
 26 28  2  0
 26 29  2  0
 25 30  1  0
 30 31  2  0
  6 32  1  0
 32 33  2  0
 33  3  1  0
 21  7  1  0
 31 22  1  0
 15 10  1  0
  1 34  1  0
  1 35  1  0
  1 36  1  0
  4 37  1  0
  5 38  1  0
  7 39  1  0
  8 40  1  0
  8 41  1  0
 11 42  1  0
 12 43  1  0
 13 44  1  0
 14 45  1  0
 23 46  1  0
 24 47  1  0
 27 48  1  0
 27 49  1  0
 30 50  1  0
 31 51  1  0
 32 52  1  0
 33 53  1  0
M  END
$$$$
