
     RDKit          3D

 68 71  0  0  0  0  0  0  0  0999 V2000
    5.4416   -5.0567   -3.0472 C   0  0  0  0  0  0  0  0  0  0  0  0
    4.9453   -4.2947   -1.9536 O   0  0  0  0  0  0  0  0  0  0  0  0
    4.6222   -2.9907   -2.2054 C   0  0  0  0  0  0  0  0  0  0  0  0
    4.7367   -2.3355   -3.4306 C   0  0  0  0  0  0  0  0  0  0  0  0
    4.3670   -0.9892   -3.5476 C   0  0  0  0  0  0  0  0  0  0  0  0
    3.8736   -0.2832   -2.4447 C   0  0  0  0  0  0  0  0  0  0  0  0
    3.5365    1.1377   -2.6039 C   0  0  0  0  0  0  0  0  0  0  0  0
    2.3786    1.7372   -2.2706 C   0  0  0  0  0  0  0  0  0  0  0  0
    2.1952    3.1339   -2.4571 C   0  0  0  0  0  0  0  0  0  0  0  0
    2.0712    4.2820   -2.5749 N   0  0  0  0  0  0  0  0  0  0  0  0
    1.2395    0.9778   -1.6916 C   0  0  0  0  0  0  0  0  0  0  0  0
    0.5809    0.2205   -2.3919 O   0  0  0  0  0  0  0  0  0  0  0  0
    1.0556    1.2612   -0.3589 N   0  0  0  0  0  0  0  0  0  0  0  0
    0.1140    0.7109    0.5366 C   0  0  0  0  0  0  0  0  0  0  0  0
   -0.7480   -0.3333    0.2057 C   0  0  0  0  0  0  0  0  0  0  0  0
   -1.6082   -0.8381    1.1832 C   0  0  0  0  0  0  0  0  0  0  0  0
   -2.7207   -2.1544    0.7544 S   0  0  0  0  0  6  0  0  0  0  0  0
   -1.9089   -3.2435    0.2560 O   0  0  0  0  0  0  0  0  0  0  0  0
   -3.6292   -2.3529    1.8653 O   0  0  0  0  0  0  0  0  0  0  0  0
   -3.6087   -1.4931   -0.5360 N   0  0  0  0  0  0  0  0  0  0  0  0
   -4.4403   -0.2924   -0.2767 C   0  0  0  0  0  0  0  0  0  0  0  0
   -5.8310   -0.6558    0.2338 C   0  0  0  0  0  0  0  0  0  0  0  0
   -6.5190   -1.6714   -0.6726 C   0  0  0  0  0  0  0  0  0  0  0  0
   -5.6268   -2.8859   -0.9071 C   0  0  0  0  0  0  0  0  0  0  0  0
   -4.2642   -2.4649   -1.4438 C   0  0  0  0  0  0  0  0  0  0  0  0
   -1.6055   -0.3236    2.4804 C   0  0  0  0  0  0  0  0  0  0  0  0
   -0.7396    0.7229    2.8067 C   0  0  0  0  0  0  0  0  0  0  0  0
    0.1226    1.2668    1.8478 C   0  0  0  0  0  0  0  0  0  0  0  0
    0.9782    2.3543    2.1117 N   0  0  0  0  0  0  0  0  0  0  0  0
    1.7929    2.3348    3.3362 C   0  0  0  0  0  0  0  0  0  0  0  0
    1.1668    3.1010    4.5011 C   0  0  0  0  0  0  0  0  0  0  0  0
    0.6502    4.4730    4.0813 C   0  0  0  0  0  0  0  0  0  0  0  0
   -0.2746    4.3562    2.8753 C   0  0  0  0  0  0  0  0  0  0  0  0
    0.4344    3.6666    1.7151 C   0  0  0  0  0  0  0  0  0  0  0  0
    3.7747   -0.9406   -1.2140 C   0  0  0  0  0  0  0  0  0  0  0  0
    4.1410   -2.2853   -1.1013 C   0  0  0  0  0  0  0  0  0  0  0  0
    4.7029   -5.1222   -3.8540 H   0  0  0  0  0  0  0  0  0  0  0  0
    6.3900   -4.6492   -3.4133 H   0  0  0  0  0  0  0  0  0  0  0  0
    5.6322   -6.0720   -2.6869 H   0  0  0  0  0  0  0  0  0  0  0  0
    5.1088   -2.8399   -4.3162 H   0  0  0  0  0  0  0  0  0  0  0  0
    4.4601   -0.5052   -4.5171 H   0  0  0  0  0  0  0  0  0  0  0  0
    4.3331    1.7301   -3.0539 H   0  0  0  0  0  0  0  0  0  0  0  0
    1.6556    1.9424    0.1018 H   0  0  0  0  0  0  0  0  0  0  0  0
   -0.7606   -0.7745   -0.7863 H   0  0  0  0  0  0  0  0  0  0  0  0
   -3.9466    0.3814    0.4299 H   0  0  0  0  0  0  0  0  0  0  0  0
   -4.5232    0.2675   -1.2170 H   0  0  0  0  0  0  0  0  0  0  0  0
   -6.4445    0.2499    0.3007 H   0  0  0  0  0  0  0  0  0  0  0  0
   -5.7659   -1.0634    1.2486 H   0  0  0  0  0  0  0  0  0  0  0  0
   -6.7571   -1.2004   -1.6338 H   0  0  0  0  0  0  0  0  0  0  0  0
   -7.4678   -1.9863   -0.2246 H   0  0  0  0  0  0  0  0  0  0  0  0
   -6.1100   -3.5644   -1.6190 H   0  0  0  0  0  0  0  0  0  0  0  0
   -5.5071   -3.4390    0.0319 H   0  0  0  0  0  0  0  0  0  0  0  0
   -4.3757   -1.9917   -2.4275 H   0  0  0  0  0  0  0  0  0  0  0  0
   -3.6292   -3.3419   -1.6039 H   0  0  0  0  0  0  0  0  0  0  0  0
   -2.2734   -0.7244    3.2400 H   0  0  0  0  0  0  0  0  0  0  0  0
   -0.7754    1.1161    3.8152 H   0  0  0  0  0  0  0  0  0  0  0  0
    2.7543    2.8048    3.0924 H   0  0  0  0  0  0  0  0  0  0  0  0
    2.0311    1.3079    3.6391 H   0  0  0  0  0  0  0  0  0  0  0  0
    0.3430    2.5286    4.9369 H   0  0  0  0  0  0  0  0  0  0  0  0
    1.9084    3.2175    5.2992 H   0  0  0  0  0  0  0  0  0  0  0  0
    0.1167    4.9393    4.9172 H   0  0  0  0  0  0  0  0  0  0  0  0
    1.4965    5.1260    3.8361 H   0  0  0  0  0  0  0  0  0  0  0  0
   -1.1764    3.7982    3.1557 H   0  0  0  0  0  0  0  0  0  0  0  0
   -0.6008    5.3551    2.5643 H   0  0  0  0  0  0  0  0  0  0  0  0
   -0.2471    3.5844    0.8589 H   0  0  0  0  0  0  0  0  0  0  0  0
    1.2716    4.2905    1.3767 H   0  0  0  0  0  0  0  0  0  0  0  0
    3.4145   -0.4290   -0.3244 H   0  0  0  0  0  0  0  0  0  0  0  0
    4.0481   -2.7879   -0.1411 H   0  0  0  0  0  0  0  0  0  0  0  0
  1  2  1  0
  2  3  1  0
  3  4  2  0
  4  5  1  0
  5  6  2  0
  6  7  1  0
  7  8  2  3
  8  9  1  0
  9 10  3  0
  8 11  1  0
 11 12  2  0
 11 13  1  0
 13 14  1  0
 14 15  2  0
 15 16  1  0
 16 17  1  0
 17 18  2  0
 17 19  2  0
 17 20  1  0
 20 21  1  0
 21 22  1  0
 22 23  1  0
 23 24  1  0
 24 25  1  0
 16 26  2  0
 26 27  1  0
 27 28  2  0
 28 29  1  0
 29 30  1  0
 30 31  1  0
 31 32  1  0
 32 33  1  0
 33 34  1  0
  6 35  1  0
 35 36  2  0
 36  3  1  0
 28 14  1  0
 34 29  1  0
 25 20  1  0
  1 37  1  0
  1 38  1  0
  1 39  1  0
  4 40  1  0
  5 41  1  0
  7 42  1  0
 13 43  1  0
 15 44  1  0
 21 45  1  0
 21 46  1  0
 22 47  1  0
 22 48  1  0
 23 49  1  0
 23 50  1  0
 24 51  1  0
 24 52  1  0
 25 53  1  0
 25 54  1  0
 26 55  1  0
 27 56  1  0
 30 57  1  0
 30 58  1  0
 31 59  1  0
 31 60  1  0
 32 61  1  0
 32 62  1  0
 33 63  1  0
 33 64  1  0
 34 65  1  0
 34 66  1  0
 35 67  1  0
 36 68  1  0
M  END
$$$$
