
     RDKit          3D

 39 41  0  0  0  0  0  0  0  0999 V2000
   -4.5768    1.7317    1.9418 C   0  0  0  0  0  0  0  0  0  0  0  0
   -3.6774    1.0149    1.1107 O   0  0  0  0  0  0  0  0  0  0  0  0
   -4.2019    0.0443    0.2993 C   0  0  0  0  0  0  0  0  0  0  0  0
   -5.5540   -0.3146    0.2656 C   0  0  0  0  0  0  0  0  0  0  0  0
   -6.0013   -1.3236   -0.5937 C   0  0  0  0  0  0  0  0  0  0  0  0
   -5.1030   -1.9820   -1.4278 C   0  0  0  0  0  0  0  0  0  0  0  0
   -3.7538   -1.6369   -1.3984 C   0  0  0  0  0  0  0  0  0  0  0  0
   -3.2868   -0.6255   -0.5369 C   0  0  0  0  0  0  0  0  0  0  0  0
   -1.8146   -0.2783   -0.5486 C   0  0  0  0  0  0  0  0  0  0  0  0
   -1.3968    0.8098   -1.9510 S   0  0  0  0  0  0  0  0  0  0  0  0
    0.3152    0.8694   -1.7901 C   0  0  0  0  0  0  0  0  0  0  0  0
    1.0576    0.3185   -0.8637 N   0  0  0  0  0  0  0  0  0  0  0  0
    2.3549    0.6506   -1.1954 C   0  0  0  0  0  0  0  0  0  0  0  0
    3.5038    0.2439   -0.4012 C   0  0  0  0  0  0  0  0  0  0  0  0
    4.8125    0.3096   -0.9013 C   0  0  0  0  0  0  0  0  0  0  0  0
    5.9005   -0.0804   -0.1122 C   0  0  0  0  0  0  0  0  0  0  0  0
    5.6796   -0.5434    1.1913 C   0  0  0  0  0  0  0  0  0  0  0  0
    6.8200   -0.9393    2.0265 N   0  0  0  0  0  4  0  0  0  0  0  0
    6.5981   -1.2202    3.2125 O   0  0  0  0  0  0  0  0  0  0  0  0
    7.9382   -0.9695    1.4936 O   0  0  0  0  0  1  0  0  0  0  0  0
    4.3811   -0.6266    1.7032 C   0  0  0  0  0  0  0  0  0  0  0  0
    3.3026   -0.2334    0.9043 C   0  0  0  0  0  0  0  0  0  0  0  0
    2.3739    1.4298   -2.3346 C   0  0  0  0  0  0  0  0  0  0  0  0
    1.0605    1.5546   -2.7014 N   0  0  0  0  0  0  0  0  0  0  0  0
   -5.3114    2.2807    1.3464 H   0  0  0  0  0  0  0  0  0  0  0  0
   -5.0645    1.0649    2.6576 H   0  0  0  0  0  0  0  0  0  0  0  0
   -3.9933    2.4622    2.5135 H   0  0  0  0  0  0  0  0  0  0  0  0
   -6.2906    0.1726    0.8963 H   0  0  0  0  0  0  0  0  0  0  0  0
   -7.0546   -1.5924   -0.6130 H   0  0  0  0  0  0  0  0  0  0  0  0
   -5.4516   -2.7608   -2.1012 H   0  0  0  0  0  0  0  0  0  0  0  0
   -3.0596   -2.1574   -2.0551 H   0  0  0  0  0  0  0  0  0  0  0  0
   -1.2360   -1.2079   -0.6143 H   0  0  0  0  0  0  0  0  0  0  0  0
   -1.5145    0.2082    0.3858 H   0  0  0  0  0  0  0  0  0  0  0  0
    5.0039    0.6528   -1.9158 H   0  0  0  0  0  0  0  0  0  0  0  0
    6.9044   -0.0190   -0.5276 H   0  0  0  0  0  0  0  0  0  0  0  0
    4.1890   -0.9869    2.7114 H   0  0  0  0  0  0  0  0  0  0  0  0
    2.2931   -0.2951    1.3086 H   0  0  0  0  0  0  0  0  0  0  0  0
    3.1660    1.9049   -2.8929 H   0  0  0  0  0  0  0  0  0  0  0  0
    0.6879    2.0697   -3.4855 H   0  0  0  0  0  0  0  0  0  0  0  0
  1  2  1  0
  2  3  1  0
  3  4  2  0
  4  5  1  0
  5  6  2  0
  6  7  1  0
  7  8  2  0
  8  9  1  0
  9 10  1  0
 10 11  1  0
 11 12  2  0
 12 13  1  0
 13 14  1  0
 14 15  2  0
 15 16  1  0
 16 17  2  0
 17 18  1  0
 18 19  2  0
 18 20  1  0
 17 21  1  0
 21 22  2  0
 13 23  2  0
 23 24  1  0
  8  3  1  0
 24 11  1  0
 22 14  1  0
  1 25  1  0
  1 26  1  0
  1 27  1  0
  4 28  1  0
  5 29  1  0
  6 30  1  0
  7 31  1  0
  9 32  1  0
  9 33  1  0
 15 34  1  0
 16 35  1  0
 21 36  1  0
 22 37  1  0
 23 38  1  0
 24 39  1  0
M  CHG  2  18   1  20  -1
M  END
$$$$
