
     RDKit          3D

 52 55  0  0  0  0  0  0  0  0999 V2000
    7.8383   -2.8508    0.0468 C   0  0  0  0  0  0  0  0  0  0  0  0
    7.3814   -1.5137    0.2039 O   0  0  0  0  0  0  0  0  0  0  0  0
    6.0358   -1.3023    0.0897 C   0  0  0  0  0  0  0  0  0  0  0  0
    5.6343    0.0235    0.2579 C   0  0  0  0  0  0  0  0  0  0  0  0
    4.2847    0.3843    0.1674 C   0  0  0  0  0  0  0  0  0  0  0  0
    3.3157   -0.5827   -0.0918 C   0  0  0  0  0  0  0  0  0  0  0  0
    1.9416   -0.3088   -0.2050 N   0  0  0  0  0  0  0  0  0  0  0  0
    1.2824    0.8918    0.0192 C   0  0  0  0  0  0  0  0  0  0  0  0
    1.7999    1.9411    0.3852 O   0  0  0  0  0  0  0  0  0  0  0  0
   -0.2241    0.7737   -0.3008 C   0  0  0  0  0  0  0  0  0  0  0  0
   -0.6192   -0.5812    0.0156 O   0  0  0  0  0  0  0  0  0  0  0  0
   -2.0219   -0.7324   -0.1089 C   0  0  0  0  0  0  0  0  0  0  0  0
   -2.4967   -2.0402    0.1910 O   0  0  0  0  0  0  0  0  0  0  0  0
   -3.8505   -1.8073    0.6418 C   0  0  0  0  0  0  0  0  0  0  0  0
   -4.0942   -2.6430    1.8922 C   0  0  0  0  0  0  0  0  0  0  0  0
   -4.8261   -2.1766   -0.4695 C   0  0  0  0  0  0  0  0  0  0  0  0
   -4.0255   -0.4082    0.9610 O   0  0  0  0  0  0  0  0  0  0  0  0
   -2.6919    0.0868    0.9581 C   0  0  0  0  0  0  0  0  0  0  0  0
   -2.4976    1.5508    0.6500 C   0  0  0  0  0  0  0  0  0  0  0  0
   -3.0795    1.9387   -0.6023 O   0  0  0  0  0  0  0  0  0  0  0  0
   -2.3415    3.1059   -0.9870 C   0  0  0  0  0  0  0  0  0  0  0  0
   -2.1498    3.0907   -2.4975 C   0  0  0  0  0  0  0  0  0  0  0  0
   -3.0905    4.3620   -0.5503 C   0  0  0  0  0  0  0  0  0  0  0  0
   -1.0628    3.0822   -0.3375 O   0  0  0  0  0  0  0  0  0  0  0  0
   -1.0241    1.8771    0.4495 C   0  0  0  0  0  0  0  0  0  0  0  0
    3.7197   -1.9118   -0.2646 C   0  0  0  0  0  0  0  0  0  0  0  0
    5.0707   -2.2718   -0.1734 C   0  0  0  0  0  0  0  0  0  0  0  0
    8.9257   -2.8492    0.1695 H   0  0  0  0  0  0  0  0  0  0  0  0
    7.6172   -3.2281   -0.9571 H   0  0  0  0  0  0  0  0  0  0  0  0
    7.4172   -3.5052    0.8172 H   0  0  0  0  0  0  0  0  0  0  0  0
    6.3781    0.7903    0.4617 H   0  0  0  0  0  0  0  0  0  0  0  0
    4.0292    1.4306    0.3009 H   0  0  0  0  0  0  0  0  0  0  0  0
    1.3226   -1.0981   -0.3756 H   0  0  0  0  0  0  0  0  0  0  0  0
   -0.3092    0.9025   -1.3867 H   0  0  0  0  0  0  0  0  0  0  0  0
   -2.3428   -0.4922   -1.1310 H   0  0  0  0  0  0  0  0  0  0  0  0
   -3.9587   -3.7105    1.6895 H   0  0  0  0  0  0  0  0  0  0  0  0
   -5.0999   -2.4762    2.2920 H   0  0  0  0  0  0  0  0  0  0  0  0
   -3.3833   -2.3716    2.6810 H   0  0  0  0  0  0  0  0  0  0  0  0
   -4.6493   -1.5613   -1.3590 H   0  0  0  0  0  0  0  0  0  0  0  0
   -4.7074   -3.2225   -0.7707 H   0  0  0  0  0  0  0  0  0  0  0  0
   -5.8627   -2.0052   -0.1610 H   0  0  0  0  0  0  0  0  0  0  0  0
   -2.2553   -0.1263    1.9444 H   0  0  0  0  0  0  0  0  0  0  0  0
   -2.9575    2.1734    1.4263 H   0  0  0  0  0  0  0  0  0  0  0  0
   -3.1123    3.1131   -3.0196 H   0  0  0  0  0  0  0  0  0  0  0  0
   -1.6363    2.1773   -2.8158 H   0  0  0  0  0  0  0  0  0  0  0  0
   -1.5401    3.9373   -2.8298 H   0  0  0  0  0  0  0  0  0  0  0  0
   -4.0961    4.3939   -0.9824 H   0  0  0  0  0  0  0  0  0  0  0  0
   -2.5457    5.2674   -0.8383 H   0  0  0  0  0  0  0  0  0  0  0  0
   -3.2050    4.3923    0.5389 H   0  0  0  0  0  0  0  0  0  0  0  0
   -0.5566    2.0958    1.4162 H   0  0  0  0  0  0  0  0  0  0  0  0
    2.9890   -2.6901   -0.4705 H   0  0  0  0  0  0  0  0  0  0  0  0
    5.3309   -3.3154   -0.3133 H   0  0  0  0  0  0  0  0  0  0  0  0
  1  2  1  0
  2  3  1  0
  3  4  2  0
  4  5  1  0
  5  6  2  0
  6  7  1  0
  7  8  1  0
  8  9  2  0
  8 10  1  0
 10 11  1  0
 11 12  1  0
 12 13  1  0
 13 14  1  0
 14 15  1  0
 14 16  1  0
 14 17  1  0
 17 18  1  0
 18 19  1  0
 19 20  1  0
 20 21  1  0
 21 22  1  0
 21 23  1  0
 21 24  1  0
 24 25  1  0
  6 26  1  0
 26 27  2  0
 27  3  1  0
 25 10  1  0
 18 12  1  0
 25 19  1  0
  1 28  1  0
  1 29  1  0
  1 30  1  0
  4 31  1  0
  5 32  1  0
  7 33  1  0
 10 34  1  0
 12 35  1  0
 15 36  1  0
 15 37  1  0
 15 38  1  0
 16 39  1  0
 16 40  1  0
 16 41  1  0
 18 42  1  0
 19 43  1  0
 22 44  1  0
 22 45  1  0
 22 46  1  0
 23 47  1  0
 23 48  1  0
 23 49  1  0
 25 50  1  0
 26 51  1  0
 27 52  1  0
M  END
$$$$
