
     RDKit          3D

 60 64  0  0  0  0  0  0  0  0999 V2000
   -6.1806   -3.0392    0.3505 C   0  0  0  0  0  0  0  0  0  0  0  0
   -5.1346   -2.4276    1.2742 C   0  0  0  0  0  0  0  0  0  0  0  0
   -4.0526   -1.6364    0.5228 C   0  0  0  0  0  0  0  0  0  0  0  0
   -3.2559   -2.5404   -0.2938 N   0  0  0  0  0  0  0  0  0  0  0  0
   -2.1820   -1.9017   -0.9179 C   0  0  0  0  0  0  0  0  0  0  0  0
   -1.9024   -2.3809   -2.1391 N   0  0  0  0  0  0  0  0  0  0  0  0
   -0.8185   -1.8783   -2.7240 C   0  0  0  0  0  0  0  0  0  0  0  0
    0.0247   -0.9984   -2.1800 N   0  0  0  0  0  0  0  0  0  0  0  0
   -0.2577   -0.5476   -0.9348 C   0  0  0  0  0  0  0  0  0  0  0  0
    0.7710    0.1896   -0.3026 N   0  0  0  0  0  0  0  0  0  0  0  0
    1.6122   -0.7643    0.4823 C   0  0  0  0  0  0  0  0  0  0  0  0
    3.0175   -0.1946    0.7835 C   0  0  0  0  0  0  0  0  0  0  0  0
    3.7451    0.1192   -0.4606 N   0  0  0  0  0  0  0  0  0  0  0  0
    5.1233    0.0134   -0.5376 C   0  0  0  0  0  0  0  0  0  0  0  0
    5.9353    0.1083    0.6051 C   0  0  0  0  0  0  0  0  0  0  0  0
    7.3306    0.0065    0.5375 C   0  0  0  0  0  0  0  0  0  0  0  0
    7.9558   -0.1936   -0.6864 C   0  0  0  0  0  0  0  0  0  0  0  0
    7.1838   -0.2878   -1.8371 C   0  0  0  0  0  0  0  0  0  0  0  0
    5.7892   -0.1827   -1.7586 C   0  0  0  0  0  0  0  0  0  0  0  0
    2.9143    0.3939   -1.6492 C   0  0  0  0  0  0  0  0  0  0  0  0
    1.5651    1.0265   -1.2430 C   0  0  0  0  0  0  0  0  0  0  0  0
   -1.4394   -0.9083   -0.2634 C   0  0  0  0  0  0  0  0  0  0  0  0
   -1.9382   -0.3867    0.9908 N   0  0  0  0  0  0  0  0  0  0  0  0
   -1.3664    0.7710    1.6694 C   0  0  0  0  0  0  0  0  0  0  0  0
   -2.0518    2.0681    1.2757 C   0  0  0  0  0  0  0  0  0  0  0  0
   -3.0708    2.6045    2.0785 C   0  0  0  0  0  0  0  0  0  0  0  0
   -3.7177    3.7876    1.7164 C   0  0  0  0  0  0  0  0  0  0  0  0
   -3.3564    4.4492    0.5456 C   0  0  0  0  0  0  0  0  0  0  0  0
   -2.3504    3.9270   -0.2637 C   0  0  0  0  0  0  0  0  0  0  0  0
   -1.7035    2.7434    0.0985 C   0  0  0  0  0  0  0  0  0  0  0  0
   -3.1625   -0.8476    1.5090 C   0  0  0  0  0  0  0  0  0  0  0  0
   -3.5599   -0.5518    2.6395 O   0  0  0  0  0  0  0  0  0  0  0  0
   -6.6483   -2.2720   -0.2748 H   0  0  0  0  0  0  0  0  0  0  0  0
   -5.7456   -3.8012   -0.3028 H   0  0  0  0  0  0  0  0  0  0  0  0
   -6.9672   -3.5197    0.9414 H   0  0  0  0  0  0  0  0  0  0  0  0
   -5.6559   -1.7672    1.9782 H   0  0  0  0  0  0  0  0  0  0  0  0
   -4.6737   -3.2227    1.8738 H   0  0  0  0  0  0  0  0  0  0  0  0
   -4.5429   -0.8908   -0.1190 H   0  0  0  0  0  0  0  0  0  0  0  0
   -3.7503   -3.0699   -1.0056 H   0  0  0  0  0  0  0  0  0  0  0  0
   -0.5870   -2.2310   -3.7228 H   0  0  0  0  0  0  0  0  0  0  0  0
    1.7412   -1.7117   -0.0612 H   0  0  0  0  0  0  0  0  0  0  0  0
    1.1138   -0.9970    1.4307 H   0  0  0  0  0  0  0  0  0  0  0  0
    2.9296    0.7167    1.3871 H   0  0  0  0  0  0  0  0  0  0  0  0
    3.5529   -0.9473    1.3744 H   0  0  0  0  0  0  0  0  0  0  0  0
    5.4935    0.2912    1.5807 H   0  0  0  0  0  0  0  0  0  0  0  0
    7.9228    0.0902    1.4445 H   0  0  0  0  0  0  0  0  0  0  0  0
    9.0374   -0.2738   -0.7436 H   0  0  0  0  0  0  0  0  0  0  0  0
    7.6597   -0.4471   -2.8009 H   0  0  0  0  0  0  0  0  0  0  0  0
    5.2290   -0.2830   -2.6837 H   0  0  0  0  0  0  0  0  0  0  0  0
    2.7522   -0.5374   -2.2038 H   0  0  0  0  0  0  0  0  0  0  0  0
    3.4191    1.1054   -2.3135 H   0  0  0  0  0  0  0  0  0  0  0  0
    0.9894    1.3090   -2.1338 H   0  0  0  0  0  0  0  0  0  0  0  0
    1.7732    1.9694   -0.7201 H   0  0  0  0  0  0  0  0  0  0  0  0
   -0.2909    0.8688    1.5566 H   0  0  0  0  0  0  0  0  0  0  0  0
   -1.4892    0.6302    2.7521 H   0  0  0  0  0  0  0  0  0  0  0  0
   -3.3727    2.0962    2.9931 H   0  0  0  0  0  0  0  0  0  0  0  0
   -4.5051    4.1892    2.3486 H   0  0  0  0  0  0  0  0  0  0  0  0
   -3.8597    5.3700    0.2635 H   0  0  0  0  0  0  0  0  0  0  0  0
   -2.0681    4.4408   -1.1788 H   0  0  0  0  0  0  0  0  0  0  0  0
   -0.9233    2.3539   -0.5475 H   0  0  0  0  0  0  0  0  0  0  0  0
  1  2  1  0
  2  3  1  0
  3  4  1  0
  4  5  1  0
  5  6  2  0
  6  7  1  0
  7  8  2  0
  8  9  1  0
  9 10  1  0
 10 11  1  0
 11 12  1  0
 12 13  1  0
 13 14  1  0
 14 15  2  0
 15 16  1  0
 16 17  2  0
 17 18  1  0
 18 19  2  0
 13 20  1  0
 20 21  1  0
  9 22  2  0
 22 23  1  0
 23 24  1  0
 24 25  1  0
 25 26  2  0
 26 27  1  0
 27 28  2  0
 28 29  1  0
 29 30  2  0
 23 31  1  0
 31 32  2  0
 31  3  1  0
 22  5  1  0
 30 25  1  0
 21 10  1  0
 19 14  1  0
  1 33  1  0
  1 34  1  0
  1 35  1  0
  2 36  1  0
  2 37  1  0
  3 38  1  0
  4 39  1  0
  7 40  1  0
 11 41  1  0
 11 42  1  0
 12 43  1  0
 12 44  1  0
 15 45  1  0
 16 46  1  0
 17 47  1  0
 18 48  1  0
 19 49  1  0
 20 50  1  0
 20 51  1  0
 21 52  1  0
 21 53  1  0
 24 54  1  0
 24 55  1  0
 26 56  1  0
 27 57  1  0
 28 58  1  0
 29 59  1  0
 30 60  1  0
M  END
$$$$
