
     RDKit          3D

 41 43  0  0  0  0  0  0  0  0999 V2000
    3.1506   -3.6570   -2.4126 Cl  0  0  0  0  0  0  0  0  0  0  0  0
    3.3142   -1.9455   -2.5748 C   0  0  0  0  0  0  0  0  0  0  0  0
    4.6136   -1.4469   -2.7280 C   0  0  0  0  0  0  0  0  0  0  0  0
    4.8318   -0.0817   -2.9044 C   0  0  0  0  0  0  0  0  0  0  0  0
    3.7494    0.7907   -2.9368 C   0  0  0  0  0  0  0  0  0  0  0  0
    2.4521    0.2982   -2.7829 C   0  0  0  0  0  0  0  0  0  0  0  0
    2.2100   -1.0772   -2.5839 C   0  0  0  0  0  0  0  0  0  0  0  0
    0.7829   -1.5523   -2.4198 C   0  0  0  0  0  0  0  0  0  0  0  0
   -0.0412   -0.8454   -0.9559 S   0  0  0  0  0  0  0  0  0  0  0  0
    0.6425   -1.8081    0.3056 C   0  0  0  0  0  0  0  0  0  0  0  0
    1.0167   -3.0653    0.2343 N   0  0  0  0  0  0  0  0  0  0  0  0
    1.5153   -3.4237    1.4715 N   0  0  0  0  0  0  0  0  0  0  0  0
    1.4215   -2.3732    2.2572 C   0  0  0  0  0  0  0  0  0  0  0  0
    0.8486   -1.3372    1.5785 N   0  0  0  0  0  0  0  0  0  0  0  0
    0.5915   -0.0231    2.1062 N   0  0  0  0  0  0  0  0  0  0  0  0
   -0.7401    0.0168    2.7123 C   0  0  0  0  0  0  0  0  0  0  0  0
   -0.9914    1.3975    3.2414 C   0  0  0  0  0  0  0  0  0  0  0  0
   -1.9289    2.2646    2.8253 C   0  0  0  0  0  0  0  0  0  0  0  0
   -2.8646    1.9994    1.7333 C   0  0  0  0  0  0  0  0  0  0  0  0
   -4.1351    1.4836    2.0083 C   0  0  0  0  0  0  0  0  0  0  0  0
   -5.0188    1.2039    0.9642 C   0  0  0  0  0  0  0  0  0  0  0  0
   -4.6358    1.4375   -0.3562 C   0  0  0  0  0  0  0  0  0  0  0  0
   -3.3703    1.9524   -0.6351 C   0  0  0  0  0  0  0  0  0  0  0  0
   -2.4853    2.2336    0.4073 C   0  0  0  0  0  0  0  0  0  0  0  0
    5.4641   -2.1249   -2.7151 H   0  0  0  0  0  0  0  0  0  0  0  0
    5.8439    0.2967   -3.0235 H   0  0  0  0  0  0  0  0  0  0  0  0
    3.9131    1.8556   -3.0836 H   0  0  0  0  0  0  0  0  0  0  0  0
    1.6212    1.0012   -2.8191 H   0  0  0  0  0  0  0  0  0  0  0  0
    0.2187   -1.2252   -3.3018 H   0  0  0  0  0  0  0  0  0  0  0  0
    0.6855   -2.6404   -2.4011 H   0  0  0  0  0  0  0  0  0  0  0  0
    1.7359   -2.3073    3.2875 H   0  0  0  0  0  0  0  0  0  0  0  0
    0.6001    0.6554    1.3434 H   0  0  0  0  0  0  0  0  0  0  0  0
   -1.5061   -0.2899    1.9921 H   0  0  0  0  0  0  0  0  0  0  0  0
   -0.7935   -0.6821    3.5561 H   0  0  0  0  0  0  0  0  0  0  0  0
   -0.3452    1.7063    4.0618 H   0  0  0  0  0  0  0  0  0  0  0  0
   -2.0249    3.2385    3.2992 H   0  0  0  0  0  0  0  0  0  0  0  0
   -4.4421    1.2922    3.0338 H   0  0  0  0  0  0  0  0  0  0  0  0
   -6.0048    0.8005    1.1810 H   0  0  0  0  0  0  0  0  0  0  0  0
   -5.3236    1.2170   -1.1687 H   0  0  0  0  0  0  0  0  0  0  0  0
   -3.0713    2.1322   -1.6645 H   0  0  0  0  0  0  0  0  0  0  0  0
   -1.5001    2.6325    0.1786 H   0  0  0  0  0  0  0  0  0  0  0  0
  1  2  1  0
  2  3  2  0
  3  4  1  0
  4  5  2  0
  5  6  1  0
  6  7  2  0
  7  8  1  0
  8  9  1  0
  9 10  1  0
 10 11  2  0
 11 12  1  0
 12 13  2  0
 13 14  1  0
 14 15  1  0
 15 16  1  0
 16 17  1  0
 17 18  2  3
 18 19  1  0
 19 20  2  0
 20 21  1  0
 21 22  2  0
 22 23  1  0
 23 24  2  0
  7  2  1  0
 14 10  1  0
 24 19  1  0
  3 25  1  0
  4 26  1  0
  5 27  1  0
  6 28  1  0
  8 29  1  0
  8 30  1  0
 13 31  1  0
 15 32  1  0
 16 33  1  0
 16 34  1  0
 17 35  1  0
 18 36  1  0
 20 37  1  0
 21 38  1  0
 22 39  1  0
 23 40  1  0
 24 41  1  0
M  END
$$$$
