
     RDKit          3D

 45 47  0  0  0  0  0  0  0  0999 V2000
    8.3467   -0.6037    1.0572 C   0  0  0  0  0  0  0  0  0  0  0  0
    6.9259   -0.1840    1.3890 C   0  0  0  0  0  0  0  0  0  0  0  0
    6.1031   -0.4891    0.2648 O   0  0  0  0  0  0  0  0  0  0  0  0
    4.7761   -0.1764    0.3600 C   0  0  0  0  0  0  0  0  0  0  0  0
    4.1433    0.3997    1.4590 C   0  0  0  0  0  0  0  0  0  0  0  0
    2.7682    0.6665    1.4185 C   0  0  0  0  0  0  0  0  0  0  0  0
    2.0092    0.3654    0.2809 C   0  0  0  0  0  0  0  0  0  0  0  0
    0.6319    0.6567    0.3272 N   0  0  0  0  0  0  0  0  0  0  0  0
   -0.2840    0.5626   -0.6988 C   0  0  0  0  0  0  0  0  0  0  0  0
   -0.0486    0.2858   -1.8663 O   0  0  0  0  0  0  0  0  0  0  0  0
   -1.5537    0.8448   -0.2400 N   0  0  0  0  0  0  0  0  0  0  0  0
   -2.7220    0.7604   -1.1115 C   0  0  0  0  0  0  0  0  0  0  0  0
   -3.4867    2.0888   -1.0046 C   0  0  0  0  0  0  0  0  0  0  0  0
   -4.8746    1.9768   -1.6163 C   0  0  0  0  0  0  0  0  0  0  0  0
   -5.7022    0.9598   -0.8376 C   0  0  0  0  0  0  0  0  0  0  0  0
   -4.9810   -0.3515   -0.6468 C   0  0  0  0  0  0  0  0  0  0  0  0
   -5.7337   -1.4910   -0.3186 C   0  0  0  0  0  0  0  0  0  0  0  0
   -5.1150   -2.7275   -0.1439 C   0  0  0  0  0  0  0  0  0  0  0  0
   -3.7380   -2.8405   -0.2984 C   0  0  0  0  0  0  0  0  0  0  0  0
   -2.9777   -1.7132   -0.6099 C   0  0  0  0  0  0  0  0  0  0  0  0
   -3.5793   -0.4496   -0.7597 C   0  0  0  0  0  0  0  0  0  0  0  0
    2.6463   -0.2157   -0.8139 C   0  0  0  0  0  0  0  0  0  0  0  0
    4.0199   -0.4820   -0.7721 C   0  0  0  0  0  0  0  0  0  0  0  0
    8.3898   -1.6746    0.8322 H   0  0  0  0  0  0  0  0  0  0  0  0
    9.0211   -0.3905    1.8912 H   0  0  0  0  0  0  0  0  0  0  0  0
    8.7066   -0.0764    0.1675 H   0  0  0  0  0  0  0  0  0  0  0  0
    6.9093    0.8930    1.5920 H   0  0  0  0  0  0  0  0  0  0  0  0
    6.5858   -0.7390    2.2709 H   0  0  0  0  0  0  0  0  0  0  0  0
    4.6858    0.6539    2.3630 H   0  0  0  0  0  0  0  0  0  0  0  0
    2.3035    1.1157    2.2922 H   0  0  0  0  0  0  0  0  0  0  0  0
    0.2934    1.1002    1.1668 H   0  0  0  0  0  0  0  0  0  0  0  0
   -1.7309    0.6540    0.7339 H   0  0  0  0  0  0  0  0  0  0  0  0
   -2.4039    0.6345   -2.1542 H   0  0  0  0  0  0  0  0  0  0  0  0
   -2.9171    2.8815   -1.5052 H   0  0  0  0  0  0  0  0  0  0  0  0
   -3.5807    2.3949    0.0466 H   0  0  0  0  0  0  0  0  0  0  0  0
   -5.3756    2.9511   -1.5966 H   0  0  0  0  0  0  0  0  0  0  0  0
   -4.7939    1.6754   -2.6683 H   0  0  0  0  0  0  0  0  0  0  0  0
   -5.9479    1.3640    0.1523 H   0  0  0  0  0  0  0  0  0  0  0  0
   -6.6454    0.7937   -1.3718 H   0  0  0  0  0  0  0  0  0  0  0  0
   -6.8138   -1.4204   -0.2086 H   0  0  0  0  0  0  0  0  0  0  0  0
   -5.7093   -3.6041    0.0992 H   0  0  0  0  0  0  0  0  0  0  0  0
   -3.2535   -3.8066   -0.1843 H   0  0  0  0  0  0  0  0  0  0  0  0
   -1.9040   -1.8300   -0.7486 H   0  0  0  0  0  0  0  0  0  0  0  0
    2.1054   -0.4795   -1.7173 H   0  0  0  0  0  0  0  0  0  0  0  0
    4.5013   -0.9339   -1.6363 H   0  0  0  0  0  0  0  0  0  0  0  0
  1  2  1  0
  2  3  1  0
  3  4  1  0
  4  5  2  0
  5  6  1  0
  6  7  2  0
  7  8  1  0
  8  9  1  0
  9 10  2  0
  9 11  1  0
 11 12  1  0
 12 13  1  0
 13 14  1  0
 14 15  1  0
 15 16  1  0
 16 17  2  0
 17 18  1  0
 18 19  2  0
 19 20  1  0
 20 21  2  0
  7 22  1  0
 22 23  2  0
 23  4  1  0
 21 12  1  0
 21 16  1  0
  1 24  1  0
  1 25  1  0
  1 26  1  0
  2 27  1  0
  2 28  1  0
  5 29  1  0
  6 30  1  0
  8 31  1  0
 11 32  1  0
 12 33  1  0
 13 34  1  0
 13 35  1  0
 14 36  1  0
 14 37  1  0
 15 38  1  0
 15 39  1  0
 17 40  1  0
 18 41  1  0
 19 42  1  0
 20 43  1  0
 22 44  1  0
 23 45  1  0
M  END
$$$$
