
     RDKit          3D

 38 40  0  0  0  0  0  0  0  0999 V2000
   -4.4205    1.8454   -2.2373 C   0  0  0  0  0  0  0  0  0  0  0  0
   -3.2580    1.0999   -1.8932 O   0  0  0  0  0  0  0  0  0  0  0  0
   -3.3560    0.2637   -0.8153 C   0  0  0  0  0  0  0  0  0  0  0  0
   -4.4676    0.1255    0.0168 C   0  0  0  0  0  0  0  0  0  0  0  0
   -4.4380   -0.7800    1.0806 C   0  0  0  0  0  0  0  0  0  0  0  0
   -3.2960   -1.5385    1.3189 C   0  0  0  0  0  0  0  0  0  0  0  0
   -3.3568   -2.4216    2.3628 O   0  0  0  0  0  0  0  0  0  0  0  0
   -2.1595   -1.3839    0.5157 C   0  0  0  0  0  0  0  0  0  0  0  0
   -0.9453   -2.1866    0.8057 C   0  0  0  0  0  0  0  0  0  0  0  0
   -1.0779   -3.2689    1.3759 O   0  0  0  0  0  0  0  0  0  0  0  0
    0.4142   -1.7246    0.4652 C   0  0  0  0  0  0  0  0  0  0  0  0
    1.3553   -2.6582    0.0524 C   0  0  0  0  0  0  0  0  0  0  0  0
    2.6302   -2.3437   -0.2842 N   0  0  0  0  0  0  0  0  0  0  0  0
    2.9880   -1.0499   -0.1663 C   0  0  0  0  0  0  0  0  0  0  0  0
    2.1318   -0.0479    0.2573 C   0  0  0  0  0  0  0  0  0  0  0  0
    0.8154   -0.3925    0.5809 C   0  0  0  0  0  0  0  0  0  0  0  0
    2.6212    1.3608    0.2667 C   0  0  0  0  0  0  0  0  0  0  0  0
    4.0683    1.4710    0.2696 N   0  0  0  0  0  0  0  0  0  0  0  0
    4.6250    2.7984    0.4524 C   0  0  0  0  0  0  0  0  0  0  0  0
    4.8673    0.4907   -0.2859 C   0  0  0  0  0  0  0  0  0  0  0  0
    6.0527    0.6581   -0.5645 O   0  0  0  0  0  0  0  0  0  0  0  0
    4.2890   -0.7225   -0.4912 N   0  0  0  0  0  0  0  0  0  0  0  0
   -2.2075   -0.4964   -0.5669 C   0  0  0  0  0  0  0  0  0  0  0  0
   -4.1881    2.4326   -3.1309 H   0  0  0  0  0  0  0  0  0  0  0  0
   -4.6891    2.5452   -1.4392 H   0  0  0  0  0  0  0  0  0  0  0  0
   -5.2573    1.1827   -2.4818 H   0  0  0  0  0  0  0  0  0  0  0  0
   -5.3769    0.6975   -0.1380 H   0  0  0  0  0  0  0  0  0  0  0  0
   -5.3096   -0.9013    1.7191 H   0  0  0  0  0  0  0  0  0  0  0  0
   -2.5835   -3.0261    2.2909 H   0  0  0  0  0  0  0  0  0  0  0  0
    1.1065   -3.7139   -0.0298 H   0  0  0  0  0  0  0  0  0  0  0  0
    0.1256    0.3727    0.9271 H   0  0  0  0  0  0  0  0  0  0  0  0
    2.2466    1.8729    1.1606 H   0  0  0  0  0  0  0  0  0  0  0  0
    2.2474    1.8807   -0.6232 H   0  0  0  0  0  0  0  0  0  0  0  0
    4.1731    3.2616    1.3342 H   0  0  0  0  0  0  0  0  0  0  0  0
    4.4027    3.3983   -0.4352 H   0  0  0  0  0  0  0  0  0  0  0  0
    5.7089    2.7595    0.5925 H   0  0  0  0  0  0  0  0  0  0  0  0
    4.8842   -1.4693   -0.8167 H   0  0  0  0  0  0  0  0  0  0  0  0
   -1.3658   -0.3913   -1.2468 H   0  0  0  0  0  0  0  0  0  0  0  0
  1  2  1  0
  2  3  1  0
  3  4  2  0
  4  5  1  0
  5  6  2  0
  6  7  1  0
  6  8  1  0
  8  9  1  0
  9 10  2  0
  9 11  1  0
 11 12  2  0
 12 13  1  0
 13 14  2  0
 14 15  1  0
 15 16  2  0
 15 17  1  0
 17 18  1  0
 18 19  1  0
 18 20  1  0
 20 21  2  0
 20 22  1  0
  8 23  2  0
 23  3  1  0
 16 11  1  0
 22 14  1  0
  1 24  1  0
  1 25  1  0
  1 26  1  0
  4 27  1  0
  5 28  1  0
  7 29  1  0
 12 30  1  0
 16 31  1  0
 17 32  1  0
 17 33  1  0
 19 34  1  0
 19 35  1  0
 19 36  1  0
 22 37  1  0
 23 38  1  0
M  END
$$$$
