
     RDKit          3D

 42 44  0  0  0  0  0  0  0  0999 V2000
    7.6965   -0.8690   -2.7204 C   0  0  0  0  0  0  0  0  0  0  0  0
    7.3773   -0.9525   -1.3373 O   0  0  0  0  0  0  0  0  0  0  0  0
    6.0523   -0.9278   -1.0022 C   0  0  0  0  0  0  0  0  0  0  0  0
    5.7950   -1.0494    0.3657 C   0  0  0  0  0  0  0  0  0  0  0  0
    4.4842   -1.0397    0.8485 C   0  0  0  0  0  0  0  0  0  0  0  0
    3.4131   -0.8942   -0.0381 C   0  0  0  0  0  0  0  0  0  0  0  0
    2.0271   -0.8845    0.5117 C   0  0  0  0  0  0  0  0  0  0  0  0
    1.7978   -1.4797    1.5556 O   0  0  0  0  0  0  0  0  0  0  0  0
    1.1260   -0.1167   -0.1932 N   0  0  0  0  0  0  0  0  0  0  0  0
   -0.2111   -0.0014    0.1221 C   0  0  0  0  0  0  0  0  0  0  0  0
   -0.8965    1.3829   -0.6114 S   0  0  0  0  0  0  0  0  0  0  0  0
   -2.4107    1.0919    0.1018 C   0  0  0  0  0  0  0  0  0  0  0  0
   -2.4143   -0.0627    0.8601 C   0  0  0  0  0  0  0  0  0  0  0  0
   -1.1349   -0.7237    0.8504 C   0  0  0  0  0  0  0  0  0  0  0  0
   -0.9294   -2.0014    1.4732 C   0  0  0  0  0  0  0  0  0  0  0  0
   -0.9019   -3.0523    1.9673 N   0  0  0  0  0  0  0  0  0  0  0  0
   -3.6723   -0.5178    1.5375 C   0  0  0  0  0  0  0  0  0  0  0  0
   -4.6551    0.6527    1.7036 C   0  0  0  0  0  0  0  0  0  0  0  0
   -4.7970    1.4428    0.4668 N   0  0  0  0  0  0  0  0  0  0  0  0
   -5.9891    2.0321    0.0640 C   0  0  0  0  0  0  0  0  0  0  0  0
   -7.2605    1.5372    0.7041 C   0  0  0  0  0  0  0  0  0  0  0  0
   -6.0306    2.9187   -0.7896 O   0  0  0  0  0  0  0  0  0  0  0  0
   -3.5711    2.0174   -0.1060 C   0  0  0  0  0  0  0  0  0  0  0  0
    3.6658   -0.7878   -1.4121 C   0  0  0  0  0  0  0  0  0  0  0  0
    4.9828   -0.8011   -1.8902 C   0  0  0  0  0  0  0  0  0  0  0  0
    8.7857   -0.9137   -2.8157 H   0  0  0  0  0  0  0  0  0  0  0  0
    7.3637    0.0840   -3.1448 H   0  0  0  0  0  0  0  0  0  0  0  0
    7.2785   -1.7163   -3.2740 H   0  0  0  0  0  0  0  0  0  0  0  0
    6.6231   -1.1590    1.0626 H   0  0  0  0  0  0  0  0  0  0  0  0
    4.3041   -1.1453    1.9167 H   0  0  0  0  0  0  0  0  0  0  0  0
    1.4797    0.5701   -0.8476 H   0  0  0  0  0  0  0  0  0  0  0  0
   -3.4550   -0.9516    2.5196 H   0  0  0  0  0  0  0  0  0  0  0  0
   -4.1352   -1.2974    0.9199 H   0  0  0  0  0  0  0  0  0  0  0  0
   -5.6165    0.2609    2.0429 H   0  0  0  0  0  0  0  0  0  0  0  0
   -4.3000    1.3444    2.4783 H   0  0  0  0  0  0  0  0  0  0  0  0
   -7.3426    0.4522    0.5986 H   0  0  0  0  0  0  0  0  0  0  0  0
   -8.1191    1.9895    0.1981 H   0  0  0  0  0  0  0  0  0  0  0  0
   -7.2899    1.8286    1.7571 H   0  0  0  0  0  0  0  0  0  0  0  0
   -3.7232    2.2111   -1.1740 H   0  0  0  0  0  0  0  0  0  0  0  0
   -3.3880    2.9736    0.3988 H   0  0  0  0  0  0  0  0  0  0  0  0
    2.8527   -0.7243   -2.1303 H   0  0  0  0  0  0  0  0  0  0  0  0
    5.1384   -0.7207   -2.9613 H   0  0  0  0  0  0  0  0  0  0  0  0
  1  2  1  0
  2  3  1  0
  3  4  2  0
  4  5  1  0
  5  6  2  0
  6  7  1  0
  7  8  2  0
  7  9  1  0
  9 10  1  0
 10 11  1  0
 11 12  1  0
 12 13  2  0
 13 14  1  0
 14 15  1  0
 15 16  3  0
 13 17  1  0
 17 18  1  0
 18 19  1  0
 19 20  1  0
 20 21  1  0
 20 22  2  0
 19 23  1  0
  6 24  1  0
 24 25  2  0
 25  3  1  0
 14 10  2  0
 23 12  1  0
  1 26  1  0
  1 27  1  0
  1 28  1  0
  4 29  1  0
  5 30  1  0
  9 31  1  0
 17 32  1  0
 17 33  1  0
 18 34  1  0
 18 35  1  0
 21 36  1  0
 21 37  1  0
 21 38  1  0
 23 39  1  0
 23 40  1  0
 24 41  1  0
 25 42  1  0
M  END
$$$$
