
     RDKit          3D

 46 49  0  0  0  0  0  0  0  0999 V2000
    5.2544   -1.4359   -1.8752 C   0  0  0  0  0  0  0  0  0  0  0  0
    4.7212   -0.3822   -1.2431 C   0  0  0  0  0  0  0  0  0  0  0  0
    3.2593   -0.0015   -1.1394 C   0  0  0  0  0  0  0  0  0  0  0  0
    2.8654    0.3100    0.3348 C   0  0  0  0  0  0  0  0  0  0  0  0
    1.5134   -0.2093    0.6719 N   0  0  0  0  0  0  0  0  0  0  0  0
    1.5942   -1.6844    0.6294 C   0  0  0  0  0  0  0  0  0  0  0  0
    2.0536   -2.1927   -0.7454 C   0  0  0  0  0  0  0  0  0  0  0  0
    2.2160   -1.0024   -1.7085 C   0  0  0  0  0  0  0  0  0  0  0  0
    0.8503   -0.2816   -1.7417 C   0  0  0  0  0  0  0  0  0  0  0  0
    0.5585    0.3067   -0.3419 C   0  0  0  0  0  0  0  0  0  0  0  0
   -0.8705    0.1584    0.1200 C   0  0  0  0  0  0  0  0  0  0  0  0
   -1.6167   -0.9759   -0.1006 N   0  0  0  0  0  0  0  0  0  0  0  0
   -2.8851   -0.8417    0.4074 C   0  0  0  0  0  0  0  0  0  0  0  0
   -3.9623   -1.7359    0.3893 C   0  0  0  0  0  0  0  0  0  0  0  0
   -5.1500   -1.3315    1.0051 C   0  0  0  0  0  0  0  0  0  0  0  0
   -5.2510   -0.0847    1.6166 C   0  0  0  0  0  0  0  0  0  0  0  0
   -4.1618    0.7944    1.6266 C   0  0  0  0  0  0  0  0  0  0  0  0
   -2.9534    0.4120    1.0076 C   0  0  0  0  0  0  0  0  0  0  0  0
   -1.6782    1.0419    0.8317 C   0  0  0  0  0  0  0  0  0  0  0  0
   -1.2954    2.4061    1.3338 C   0  0  0  0  0  0  0  0  0  0  0  0
   -1.8269    3.5325    0.4469 C   0  0  0  0  0  0  0  0  0  0  0  0
   -1.2065    3.5218   -0.8373 O   0  0  0  0  0  0  0  0  0  0  0  0
    4.6568   -2.1702   -2.4033 H   0  0  0  0  0  0  0  0  0  0  0  0
    6.3308   -1.5845   -1.8828 H   0  0  0  0  0  0  0  0  0  0  0  0
    5.4118    0.3107   -0.7608 H   0  0  0  0  0  0  0  0  0  0  0  0
    3.1602    0.9323   -1.7121 H   0  0  0  0  0  0  0  0  0  0  0  0
    3.5965   -0.0981    1.0457 H   0  0  0  0  0  0  0  0  0  0  0  0
    2.8856    1.3961    0.4951 H   0  0  0  0  0  0  0  0  0  0  0  0
    2.2908   -2.0355    1.4019 H   0  0  0  0  0  0  0  0  0  0  0  0
    0.6337   -2.1361    0.9001 H   0  0  0  0  0  0  0  0  0  0  0  0
    2.9932   -2.7456   -0.6429 H   0  0  0  0  0  0  0  0  0  0  0  0
    1.3126   -2.8960   -1.1444 H   0  0  0  0  0  0  0  0  0  0  0  0
    2.4789   -1.3422   -2.7156 H   0  0  0  0  0  0  0  0  0  0  0  0
    0.8824    0.5318   -2.4781 H   0  0  0  0  0  0  0  0  0  0  0  0
    0.0802   -0.9796   -2.0876 H   0  0  0  0  0  0  0  0  0  0  0  0
    0.7234    1.3909   -0.4240 H   0  0  0  0  0  0  0  0  0  0  0  0
   -1.2828   -1.8091   -0.5620 H   0  0  0  0  0  0  0  0  0  0  0  0
   -3.8842   -2.7102   -0.0814 H   0  0  0  0  0  0  0  0  0  0  0  0
   -6.0057   -2.0028    1.0095 H   0  0  0  0  0  0  0  0  0  0  0  0
   -6.1823    0.2096    2.0939 H   0  0  0  0  0  0  0  0  0  0  0  0
   -4.2519    1.7617    2.1111 H   0  0  0  0  0  0  0  0  0  0  0  0
   -1.6873    2.5330    2.3502 H   0  0  0  0  0  0  0  0  0  0  0  0
   -0.2043    2.4805    1.4053 H   0  0  0  0  0  0  0  0  0  0  0  0
   -1.6052    4.5001    0.9079 H   0  0  0  0  0  0  0  0  0  0  0  0
   -2.9109    3.4670    0.3067 H   0  0  0  0  0  0  0  0  0  0  0  0
   -1.4510    2.6720   -1.2469 H   0  0  0  0  0  0  0  0  0  0  0  0
  1  2  2  0
  2  3  1  0
  3  4  1  0
  4  5  1  0
  5  6  1  0
  6  7  1  0
  7  8  1  0
  8  9  1  0
  9 10  1  0
 10 11  1  0
 11 12  1  0
 12 13  1  0
 13 14  2  0
 14 15  1  0
 15 16  2  0
 16 17  1  0
 17 18  2  0
 18 19  1  0
 19 20  1  0
 20 21  1  0
 21 22  1  0
  8  3  1  0
 19 11  2  0
 10  5  1  0
 18 13  1  0
  1 23  1  0
  1 24  1  0
  2 25  1  0
  3 26  1  0
  4 27  1  0
  4 28  1  0
  6 29  1  0
  6 30  1  0
  7 31  1  0
  7 32  1  0
  8 33  1  0
  9 34  1  0
  9 35  1  0
 10 36  1  0
 12 37  1  0
 14 38  1  0
 15 39  1  0
 16 40  1  0
 17 41  1  0
 20 42  1  0
 20 43  1  0
 21 44  1  0
 21 45  1  0
 22 46  1  0
M  END
$$$$
