
     RDKit          3D

 67 70  0  0  0  0  0  0  0  0999 V2000
    0.2788    4.1310   -0.5962 C   0  0  0  0  0  0  0  0  0  0  0  0
    0.2680    2.8027   -0.0913 O   0  0  0  0  0  0  0  0  0  0  0  0
   -0.7856    2.4167    0.6991 C   0  0  0  0  0  0  0  0  0  0  0  0
   -1.7075    3.3226    1.2496 C   0  0  0  0  0  0  0  0  0  0  0  0
   -2.7665    2.8822    2.0524 C   0  0  0  0  0  0  0  0  0  0  0  0
   -3.7040    3.7088    2.6210 O   0  0  0  0  0  0  0  0  0  0  0  0
   -3.6405    5.0961    2.3164 C   0  0  0  0  0  0  0  0  0  0  0  0
   -2.9017    1.5117    2.3179 C   0  0  0  0  0  0  0  0  0  0  0  0
   -3.9867    0.9769    3.1403 C   0  0  0  0  0  0  0  0  0  0  0  0
   -4.0882   -0.3349    3.3677 C   0  0  0  0  0  0  0  0  0  0  0  0
   -3.1248   -1.2954    2.8174 C   0  0  0  0  0  0  0  0  0  0  0  0
   -3.2245   -2.4951    3.0449 O   0  0  0  0  0  0  0  0  0  0  0  0
   -2.1035   -0.7662    2.0463 O   0  0  0  0  0  0  0  0  0  0  0  0
   -1.9699    0.6177    1.7753 C   0  0  0  0  0  0  0  0  0  0  0  0
   -0.8963    1.0344    0.9642 C   0  0  0  0  0  0  0  0  0  0  0  0
    0.1055    0.0387    0.3535 C   0  0  0  0  0  0  0  0  0  0  0  0
    0.8491   -0.7816    1.4410 C   0  0  0  0  0  0  0  0  0  0  0  0
    2.1102   -1.5032    0.9276 C   0  0  0  0  0  0  0  0  0  0  0  0
    3.1599   -0.6193    0.3954 N   0  0  0  0  0  0  0  0  0  0  0  0
    3.6497    0.3396    1.3980 C   0  0  0  0  0  0  0  0  0  0  0  0
    5.0171    0.9153    1.0344 C   0  0  0  0  0  0  0  0  0  0  0  0
    6.0796   -0.1799    0.9622 C   0  0  0  0  0  0  0  0  0  0  0  0
    5.4873   -1.5378    0.5888 C   0  0  0  0  0  0  0  0  0  0  0  0
    4.2313   -1.3817   -0.2650 C   0  0  0  0  0  0  0  0  0  0  0  0
   -0.5213   -0.7659   -0.7855 C   0  0  0  0  0  0  0  0  0  0  0  0
   -1.0792   -2.0346   -0.6211 C   0  0  0  0  0  0  0  0  0  0  0  0
   -1.6592   -2.7169   -1.7038 C   0  0  0  0  0  0  0  0  0  0  0  0
   -1.7024   -2.1793   -3.0006 C   0  0  0  0  0  0  0  0  0  0  0  0
   -2.2923   -2.8564   -4.0771 N   0  0  0  0  0  0  0  0  0  0  0  0
   -2.6825   -4.2540   -3.9065 C   0  0  0  0  0  0  0  0  0  0  0  0
   -1.8996   -2.4730   -5.4321 C   0  0  0  0  0  0  0  0  0  0  0  0
   -1.1567   -0.8931   -3.1404 C   0  0  0  0  0  0  0  0  0  0  0  0
   -0.5786   -0.2017   -2.0648 C   0  0  0  0  0  0  0  0  0  0  0  0
   -0.6462    4.3615   -1.1350 H   0  0  0  0  0  0  0  0  0  0  0  0
    1.1063    4.2106   -1.3079 H   0  0  0  0  0  0  0  0  0  0  0  0
    0.4616    4.8522    0.2067 H   0  0  0  0  0  0  0  0  0  0  0  0
   -1.5907    4.3808    1.0561 H   0  0  0  0  0  0  0  0  0  0  0  0
   -4.4791    5.5870    2.8197 H   0  0  0  0  0  0  0  0  0  0  0  0
   -3.7498    5.2708    1.2410 H   0  0  0  0  0  0  0  0  0  0  0  0
   -2.7166    5.5410    2.7000 H   0  0  0  0  0  0  0  0  0  0  0  0
   -4.7126    1.6659    3.5592 H   0  0  0  0  0  0  0  0  0  0  0  0
   -4.8850   -0.7517    3.9703 H   0  0  0  0  0  0  0  0  0  0  0  0
    0.9012    0.6238   -0.1227 H   0  0  0  0  0  0  0  0  0  0  0  0
    0.1984   -1.5412    1.8866 H   0  0  0  0  0  0  0  0  0  0  0  0
    1.1256   -0.1195    2.2720 H   0  0  0  0  0  0  0  0  0  0  0  0
    1.7979   -2.2060    0.1458 H   0  0  0  0  0  0  0  0  0  0  0  0
    2.5190   -2.1135    1.7437 H   0  0  0  0  0  0  0  0  0  0  0  0
    2.9366    1.1673    1.4841 H   0  0  0  0  0  0  0  0  0  0  0  0
    3.7253   -0.1314    2.3872 H   0  0  0  0  0  0  0  0  0  0  0  0
    5.3176    1.6732    1.7669 H   0  0  0  0  0  0  0  0  0  0  0  0
    4.9516    1.4283    0.0662 H   0  0  0  0  0  0  0  0  0  0  0  0
    6.5946   -0.2695    1.9261 H   0  0  0  0  0  0  0  0  0  0  0  0
    6.8427    0.1126    0.2311 H   0  0  0  0  0  0  0  0  0  0  0  0
    5.2411   -2.0950    1.5017 H   0  0  0  0  0  0  0  0  0  0  0  0
    6.2379   -2.1319    0.0554 H   0  0  0  0  0  0  0  0  0  0  0  0
    3.8848   -2.3693   -0.5936 H   0  0  0  0  0  0  0  0  0  0  0  0
    4.4986   -0.8484   -1.1865 H   0  0  0  0  0  0  0  0  0  0  0  0
   -1.0899   -2.5229    0.3495 H   0  0  0  0  0  0  0  0  0  0  0  0
   -2.0788   -3.6946   -1.4882 H   0  0  0  0  0  0  0  0  0  0  0  0
   -3.4161   -4.3670   -3.1008 H   0  0  0  0  0  0  0  0  0  0  0  0
   -3.1695   -4.6395   -4.8094 H   0  0  0  0  0  0  0  0  0  0  0  0
   -1.8106   -4.8857   -3.7038 H   0  0  0  0  0  0  0  0  0  0  0  0
   -2.2256   -1.4542   -5.6666 H   0  0  0  0  0  0  0  0  0  0  0  0
   -2.3726   -3.1185   -6.1809 H   0  0  0  0  0  0  0  0  0  0  0  0
   -0.8152   -2.5535   -5.5673 H   0  0  0  0  0  0  0  0  0  0  0  0
   -1.1750   -0.3794   -4.0960 H   0  0  0  0  0  0  0  0  0  0  0  0
   -0.1729    0.7930   -2.2393 H   0  0  0  0  0  0  0  0  0  0  0  0
  1  2  1  0
  2  3  1  0
  3  4  2  0
  4  5  1  0
  5  6  1  0
  6  7  1  0
  5  8  2  0
  8  9  1  0
  9 10  2  0
 10 11  1  0
 11 12  2  0
 11 13  1  0
 13 14  1  0
 14 15  2  0
 15 16  1  0
 16 17  1  0
 17 18  1  0
 18 19  1  0
 19 20  1  0
 20 21  1  0
 21 22  1  0
 22 23  1  0
 23 24  1  0
 16 25  1  0
 25 26  2  0
 26 27  1  0
 27 28  2  0
 28 29  1  0
 29 30  1  0
 29 31  1  0
 28 32  1  0
 32 33  2  0
 15  3  1  0
 24 19  1  0
 33 25  1  0
 14  8  1  0
  1 34  1  0
  1 35  1  0
  1 36  1  0
  4 37  1  0
  7 38  1  0
  7 39  1  0
  7 40  1  0
  9 41  1  0
 10 42  1  0
 16 43  1  0
 17 44  1  0
 17 45  1  0
 18 46  1  0
 18 47  1  0
 20 48  1  0
 20 49  1  0
 21 50  1  0
 21 51  1  0
 22 52  1  0
 22 53  1  0
 23 54  1  0
 23 55  1  0
 24 56  1  0
 24 57  1  0
 26 58  1  0
 27 59  1  0
 30 60  1  0
 30 61  1  0
 30 62  1  0
 31 63  1  0
 31 64  1  0
 31 65  1  0
 32 66  1  0
 33 67  1  0
M  END
$$$$
