
     RDKit          3D

 49 52  0  0  0  0  0  0  0  0999 V2000
   -5.8497   -2.9586    0.6331 C   0  0  0  0  0  0  0  0  0  0  0  0
   -5.1313   -1.6796    0.3193 C   0  0  0  0  0  0  0  0  0  0  0  0
   -5.7684   -0.4491    0.5012 C   0  0  0  0  0  0  0  0  0  0  0  0
   -5.0923    0.7482    0.2438 C   0  0  0  0  0  0  0  0  0  0  0  0
   -5.8002    2.0633    0.3938 C   0  0  0  0  0  0  0  0  0  0  0  0
   -3.7636    0.7101   -0.2111 C   0  0  0  0  0  0  0  0  0  0  0  0
   -3.0948   -0.5089   -0.3714 C   0  0  0  0  0  0  0  0  0  0  0  0
   -1.7352   -0.5965   -0.8085 N   0  0  0  0  0  0  0  0  0  0  0  0
   -1.2359   -1.8196   -1.1640 N   0  0  0  0  0  0  0  0  0  0  0  0
    0.0028   -1.5926   -1.5923 C   0  0  0  0  0  0  0  0  0  0  0  0
    0.3629   -0.2469   -1.4828 C   0  0  0  0  0  0  0  0  0  0  0  0
   -0.7533    0.3776   -0.9519 C   0  0  0  0  0  0  0  0  0  0  0  0
   -0.8124    1.8288   -0.6148 C   0  0  0  0  0  0  0  0  0  0  0  0
    0.6013    2.4441   -0.6029 C   0  0  0  0  0  0  0  0  0  0  0  0
    1.4571    1.9694   -1.7928 C   0  0  0  0  0  0  0  0  0  0  0  0
    1.6501    0.4359   -1.7938 C   0  0  0  0  0  0  0  0  0  0  0  0
    2.6026    0.0267   -0.7912 N   0  0  0  0  0  0  0  0  0  0  0  0
    3.9611    0.1251   -0.9711 C   0  0  0  0  0  0  0  0  0  0  0  0
    4.4853    0.4868   -2.0197 O   0  0  0  0  0  0  0  0  0  0  0  0
    4.7311   -0.2449    0.2267 C   0  0  0  0  0  0  0  0  0  0  0  0
    6.1429   -0.2774    0.3591 C   0  0  0  0  0  0  0  0  0  0  0  0
    6.3846   -0.6927    1.6486 C   0  0  0  0  0  0  0  0  0  0  0  0
    7.6402   -0.9356    2.3918 C   0  0  0  0  0  0  0  0  0  0  0  0
    5.1526   -0.8812    2.2091 N   0  0  0  0  0  0  0  0  0  0  0  0
    4.1306   -0.6070    1.3800 N   0  0  0  0  0  0  0  0  0  0  0  0
   -3.7960   -1.7001   -0.1067 C   0  0  0  0  0  0  0  0  0  0  0  0
   -6.9019   -2.8952    0.3353 H   0  0  0  0  0  0  0  0  0  0  0  0
   -5.7946   -3.1637    1.7066 H   0  0  0  0  0  0  0  0  0  0  0  0
   -5.4097   -3.8028    0.0922 H   0  0  0  0  0  0  0  0  0  0  0  0
   -6.8013   -0.4251    0.8425 H   0  0  0  0  0  0  0  0  0  0  0  0
   -6.6133    1.9897    1.1221 H   0  0  0  0  0  0  0  0  0  0  0  0
   -6.2150    2.3782   -0.5674 H   0  0  0  0  0  0  0  0  0  0  0  0
   -5.1111    2.8346    0.7540 H   0  0  0  0  0  0  0  0  0  0  0  0
   -3.2988    1.6554   -0.4561 H   0  0  0  0  0  0  0  0  0  0  0  0
    0.5975   -2.4253   -1.9469 H   0  0  0  0  0  0  0  0  0  0  0  0
   -1.2654    1.9924    0.3677 H   0  0  0  0  0  0  0  0  0  0  0  0
   -1.4093    2.3498   -1.3724 H   0  0  0  0  0  0  0  0  0  0  0  0
    1.1071    2.1790    0.3347 H   0  0  0  0  0  0  0  0  0  0  0  0
    0.5189    3.5367   -0.6172 H   0  0  0  0  0  0  0  0  0  0  0  0
    0.9547    2.2678   -2.7225 H   0  0  0  0  0  0  0  0  0  0  0  0
    2.4262    2.4822   -1.7737 H   0  0  0  0  0  0  0  0  0  0  0  0
    2.0230    0.1240   -2.7768 H   0  0  0  0  0  0  0  0  0  0  0  0
    2.3012   -0.2104    0.1509 H   0  0  0  0  0  0  0  0  0  0  0  0
    6.8720   -0.0335   -0.4017 H   0  0  0  0  0  0  0  0  0  0  0  0
    7.8021   -2.0098    2.5275 H   0  0  0  0  0  0  0  0  0  0  0  0
    8.5005   -0.5284    1.8507 H   0  0  0  0  0  0  0  0  0  0  0  0
    7.6085   -0.4635    3.3789 H   0  0  0  0  0  0  0  0  0  0  0  0
    4.9366   -1.1939    3.1503 H   0  0  0  0  0  0  0  0  0  0  0  0
   -3.2999   -2.6637   -0.2220 H   0  0  0  0  0  0  0  0  0  0  0  0
  1  2  1  0
  2  3  2  0
  3  4  1  0
  4  5  1  0
  4  6  2  0
  6  7  1  0
  7  8  1  0
  8  9  1  0
  9 10  2  0
 10 11  1  0
 11 12  2  0
 12 13  1  0
 13 14  1  0
 14 15  1  0
 15 16  1  0
 16 17  1  0
 17 18  1  0
 18 19  2  0
 18 20  1  0
 20 21  1  0
 21 22  2  0
 22 23  1  0
 22 24  1  0
 24 25  1  0
  7 26  2  0
 26  2  1  0
 12  8  1  0
 25 20  2  0
 16 11  1  0
  1 27  1  0
  1 28  1  0
  1 29  1  0
  3 30  1  0
  5 31  1  0
  5 32  1  0
  5 33  1  0
  6 34  1  0
 10 35  1  0
 13 36  1  0
 13 37  1  0
 14 38  1  0
 14 39  1  0
 15 40  1  0
 15 41  1  0
 16 42  1  0
 17 43  1  0
 21 44  1  0
 23 45  1  0
 23 46  1  0
 23 47  1  0
 24 48  1  0
 26 49  1  0
M  END
$$$$
