
     RDKit          3D

 52 55  0  0  0  0  0  0  0  0999 V2000
   -8.1774   -1.8717    1.7896 C   0  0  0  0  0  0  0  0  0  0  0  0
   -7.8848   -0.9905    0.7120 O   0  0  0  0  0  0  0  0  0  0  0  0
   -6.5833   -0.9378    0.2935 C   0  0  0  0  0  0  0  0  0  0  0  0
   -5.5189   -1.6672    0.8238 C   0  0  0  0  0  0  0  0  0  0  0  0
   -4.2292   -1.5123    0.3011 C   0  0  0  0  0  0  0  0  0  0  0  0
   -3.9916   -0.6233   -0.7522 C   0  0  0  0  0  0  0  0  0  0  0  0
   -2.6501   -0.4505   -1.3159 C   0  0  0  0  0  0  0  0  0  0  0  0
   -1.6052    0.1218   -0.6992 C   0  0  0  0  0  0  0  0  0  0  0  0
   -1.5753    0.8080    0.8727 S   0  0  0  0  0  0  0  0  0  0  0  0
    0.1627    1.0568    0.7958 C   0  0  0  0  0  0  0  0  0  0  0  0
    0.8673    1.2938    1.9284 C   0  0  0  0  0  0  0  0  0  0  0  0
    0.2409    1.5564    3.1843 C   0  0  0  0  0  0  0  0  0  0  0  0
   -0.2825    1.7546    4.2007 N   0  0  0  0  0  0  0  0  0  0  0  0
    2.3502    1.2516    2.0063 C   0  0  0  0  0  0  0  0  0  0  0  0
    2.9858    2.1922    2.4699 O   0  0  0  0  0  0  0  0  0  0  0  0
    2.9198    0.0771    1.5857 N   0  0  0  0  0  0  0  0  0  0  0  0
    4.3506   -0.1188    1.6130 C   0  0  0  0  0  0  0  0  0  0  0  0
    4.7002   -1.1990    0.6591 C   0  0  0  0  0  0  0  0  0  0  0  0
    5.6486   -1.3085   -0.3357 C   0  0  0  0  0  0  0  0  0  0  0  0
    5.4736   -2.5871   -0.9157 C   0  0  0  0  0  0  0  0  0  0  0  0
    4.4342   -3.1785   -0.2377 C   0  0  0  0  0  0  0  0  0  0  0  0
    3.9548   -2.3444    0.7197 O   0  0  0  0  0  0  0  0  0  0  0  0
    0.6354    0.8583   -0.5102 N   0  0  0  0  0  0  0  0  0  0  0  0
    1.8673    1.3511   -1.0577 C   0  0  0  0  0  0  0  0  0  0  0  0
    2.5900    0.6074   -2.0015 C   0  0  0  0  0  0  0  0  0  0  0  0
    3.7861    1.0954   -2.5381 C   0  0  0  0  0  0  0  0  0  0  0  0
    4.2734    2.3382   -2.1453 C   0  0  0  0  0  0  0  0  0  0  0  0
    3.5592    3.0990   -1.2252 C   0  0  0  0  0  0  0  0  0  0  0  0
    2.3604    2.6138   -0.6927 C   0  0  0  0  0  0  0  0  0  0  0  0
   -0.2976    0.2753   -1.3915 C   0  0  0  0  0  0  0  0  0  0  0  0
   -0.1411   -0.0455   -2.5627 O   0  0  0  0  0  0  0  0  0  0  0  0
   -5.0604    0.0973   -1.2900 C   0  0  0  0  0  0  0  0  0  0  0  0
   -6.3463   -0.0588   -0.7657 C   0  0  0  0  0  0  0  0  0  0  0  0
   -7.9767   -2.9132    1.5126 H   0  0  0  0  0  0  0  0  0  0  0  0
   -7.6275   -1.5891    2.6943 H   0  0  0  0  0  0  0  0  0  0  0  0
   -9.2477   -1.7862    2.0090 H   0  0  0  0  0  0  0  0  0  0  0  0
   -5.6555   -2.3641    1.6438 H   0  0  0  0  0  0  0  0  0  0  0  0
   -3.4144   -2.0940    0.7275 H   0  0  0  0  0  0  0  0  0  0  0  0
   -2.5451   -0.8101   -2.3388 H   0  0  0  0  0  0  0  0  0  0  0  0
    2.3607   -0.7111    1.2857 H   0  0  0  0  0  0  0  0  0  0  0  0
    4.6349   -0.3968    2.6298 H   0  0  0  0  0  0  0  0  0  0  0  0
    4.8543    0.8160    1.3511 H   0  0  0  0  0  0  0  0  0  0  0  0
    6.3716   -0.5539   -0.6134 H   0  0  0  0  0  0  0  0  0  0  0  0
    6.0357   -3.0254   -1.7288 H   0  0  0  0  0  0  0  0  0  0  0  0
    3.9402   -4.1377   -0.3122 H   0  0  0  0  0  0  0  0  0  0  0  0
    2.2509   -0.3756   -2.3197 H   0  0  0  0  0  0  0  0  0  0  0  0
    4.3335    0.5004   -3.2643 H   0  0  0  0  0  0  0  0  0  0  0  0
    5.2029    2.7194   -2.5630 H   0  0  0  0  0  0  0  0  0  0  0  0
    3.9276    4.0779   -0.9248 H   0  0  0  0  0  0  0  0  0  0  0  0
    1.8135    3.2590   -0.0086 H   0  0  0  0  0  0  0  0  0  0  0  0
   -4.9050    0.7901   -2.1138 H   0  0  0  0  0  0  0  0  0  0  0  0
   -7.1706    0.5124   -1.1848 H   0  0  0  0  0  0  0  0  0  0  0  0
  1  2  1  0
  2  3  1  0
  3  4  2  0
  4  5  1  0
  5  6  2  0
  6  7  1  0
  7  8  2  3
  8  9  1  0
  9 10  1  0
 10 11  2  3
 11 12  1  0
 12 13  3  0
 11 14  1  0
 14 15  2  0
 14 16  1  0
 16 17  1  0
 17 18  1  0
 18 19  2  0
 19 20  1  0
 20 21  2  0
 21 22  1  0
 10 23  1  0
 23 24  1  0
 24 25  2  0
 25 26  1  0
 26 27  2  0
 27 28  1  0
 28 29  2  0
 23 30  1  0
 30 31  2  0
  6 32  1  0
 32 33  2  0
 33  3  1  0
 30  8  1  0
 22 18  1  0
 29 24  1  0
  1 34  1  0
  1 35  1  0
  1 36  1  0
  4 37  1  0
  5 38  1  0
  7 39  1  0
 16 40  1  0
 17 41  1  0
 17 42  1  0
 19 43  1  0
 20 44  1  0
 21 45  1  0
 25 46  1  0
 26 47  1  0
 27 48  1  0
 28 49  1  0
 29 50  1  0
 32 51  1  0
 33 52  1  0
M  END
$$$$
