
     RDKit          3D

 31 32  0  0  0  0  0  0  0  0999 V2000
    5.5753    2.6741   -5.2309 N   0  0  0  0  0  0  0  0  0  0  0  0
    4.8471    2.0668   -4.2744 C   0  0  0  0  0  0  0  0  0  0  0  0
    5.0308    0.8298   -3.8699 N   0  0  0  0  0  0  0  0  0  0  0  0
    4.1486    0.4650   -2.8715 N   0  0  0  0  0  0  0  0  0  0  0  0
    3.3305    1.4452   -2.5598 C   0  0  0  0  0  0  0  0  0  0  0  0
    2.0922    1.2884   -1.3375 S   0  0  0  0  0  0  0  0  0  0  0  0
    2.4587   -0.3789   -0.7233 C   0  0  0  0  0  0  0  0  0  0  0  0
    1.4808   -0.7235    0.3784 C   0  0  0  0  0  0  0  0  0  0  0  0
    1.6990   -0.5076    1.5708 O   0  0  0  0  0  0  0  0  0  0  0  0
    0.3062   -1.3075   -0.0659 N   0  0  0  0  0  0  0  0  0  0  0  0
   -0.7383   -1.4104    0.8780 N   0  0  0  0  0  0  0  0  0  0  0  0
   -1.9959   -1.0271    0.4468 C   0  0  0  0  0  0  0  0  0  0  0  0
   -2.2408   -0.7893   -0.7338 O   0  0  0  0  0  0  0  0  0  0  0  0
   -3.0454   -0.8757    1.4926 C   0  0  0  0  0  0  0  0  0  0  0  0
   -2.9623   -1.5192    2.7356 C   0  0  0  0  0  0  0  0  0  0  0  0
   -3.9780   -1.3465    3.6822 C   0  0  0  0  0  0  0  0  0  0  0  0
   -5.0764   -0.5398    3.3865 C   0  0  0  0  0  0  0  0  0  0  0  0
   -6.3222   -0.3323    4.5540 Cl  0  0  0  0  0  0  0  0  0  0  0  0
   -5.1739    0.0933    2.1492 C   0  0  0  0  0  0  0  0  0  0  0  0
   -4.1613   -0.0777    1.2014 C   0  0  0  0  0  0  0  0  0  0  0  0
    3.5785    2.8842   -3.4531 S   0  0  0  0  0  0  0  0  0  0  0  0
    6.4616    2.2316   -5.4517 H   0  0  0  0  0  0  0  0  0  0  0  0
    5.6187    3.6863   -5.2176 H   0  0  0  0  0  0  0  0  0  0  0  0
    3.4728   -0.4286   -0.3137 H   0  0  0  0  0  0  0  0  0  0  0  0
    2.3751   -1.1147   -1.5302 H   0  0  0  0  0  0  0  0  0  0  0  0
   -0.0116   -1.1350   -1.0224 H   0  0  0  0  0  0  0  0  0  0  0  0
   -0.4500   -1.2586    1.8449 H   0  0  0  0  0  0  0  0  0  0  0  0
   -2.1322   -2.1762    2.9804 H   0  0  0  0  0  0  0  0  0  0  0  0
   -3.9103   -1.8494    4.6440 H   0  0  0  0  0  0  0  0  0  0  0  0
   -6.0325    0.7171    1.9140 H   0  0  0  0  0  0  0  0  0  0  0  0
   -4.2445    0.4160    0.2343 H   0  0  0  0  0  0  0  0  0  0  0  0
  1  2  1  0
  2  3  2  0
  3  4  1  0
  4  5  2  0
  5  6  1  0
  6  7  1  0
  7  8  1  0
  8  9  2  0
  8 10  1  0
 10 11  1  0
 11 12  1  0
 12 13  2  0
 12 14  1  0
 14 15  2  0
 15 16  1  0
 16 17  2  0
 17 18  1  0
 17 19  1  0
 19 20  2  0
  5 21  1  0
 21  2  1  0
 20 14  1  0
  1 22  1  0
  1 23  1  0
  7 24  1  0
  7 25  1  0
 10 26  1  0
 11 27  1  0
 15 28  1  0
 16 29  1  0
 19 30  1  0
 20 31  1  0
M  END
$$$$
