
     RDKit          3D

 48 50  0  0  0  0  0  0  0  0999 V2000
    5.2675   -1.3654   -2.2984 C   0  0  0  0  0  0  0  0  0  0  0  0
    3.9039   -0.8801   -2.7801 C   0  0  0  0  0  0  0  0  0  0  0  0
    2.8446   -0.8519   -1.6835 C   0  0  0  0  0  0  0  0  0  0  0  0
    3.0525    0.5102   -0.5444 S   0  0  0  0  0  6  0  0  0  0  0  0
    4.1714    0.2337    0.3406 O   0  0  0  0  0  0  0  0  0  0  0  0
    2.9411    1.7591   -1.2749 O   0  0  0  0  0  0  0  0  0  0  0  0
    1.5730    0.4073    0.4397 C   0  0  0  0  0  0  0  0  0  0  0  0
    0.3796    0.0941   -0.0256 N   0  0  0  0  0  0  0  0  0  0  0  0
   -0.5399    0.1509    1.0270 C   0  0  0  0  0  0  0  0  0  0  0  0
   -2.2417   -0.0850    0.7169 S   0  0  0  0  0  6  0  0  0  0  0  0
   -2.7326   -0.8588    1.8436 O   0  0  0  0  0  0  0  0  0  0  0  0
   -2.7507    1.2467    0.4396 O   0  0  0  0  0  0  0  0  0  0  0  0
   -2.3405   -1.0676   -0.7508 C   0  0  0  0  0  0  0  0  0  0  0  0
   -2.3132   -0.4457   -2.0025 C   0  0  0  0  0  0  0  0  0  0  0  0
   -2.4079   -1.2248   -3.1569 C   0  0  0  0  0  0  0  0  0  0  0  0
   -2.5553   -2.6170   -3.0661 C   0  0  0  0  0  0  0  0  0  0  0  0
   -2.6252   -3.4535   -4.3105 C   0  0  0  0  0  0  0  0  0  0  0  0
   -2.5851   -3.2253   -1.8047 C   0  0  0  0  0  0  0  0  0  0  0  0
   -2.4876   -2.4536   -0.6453 C   0  0  0  0  0  0  0  0  0  0  0  0
   -0.0205    0.4583    2.2851 C   0  0  0  0  0  0  0  0  0  0  0  0
   -0.6666    0.5089    3.4921 N   0  0  0  0  0  0  0  0  0  0  0  0
   -0.3111    1.4935    4.5165 C   0  0  0  0  0  0  0  0  0  0  0  0
   -0.7008    2.9050    4.2140 C   0  0  0  0  0  0  0  0  0  0  0  0
   -1.6031    3.4852    3.3397 C   0  0  0  0  0  0  0  0  0  0  0  0
   -1.5083    4.8830    3.5388 C   0  0  0  0  0  0  0  0  0  0  0  0
   -0.5580    5.0696    4.5126 C   0  0  0  0  0  0  0  0  0  0  0  0
   -0.0607    3.8753    4.9306 O   0  0  0  0  0  0  0  0  0  0  0  0
    1.6758    0.7495    2.1033 S   0  0  0  0  0  0  0  0  0  0  0  0
    5.9504   -1.4578   -3.1519 H   0  0  0  0  0  0  0  0  0  0  0  0
    5.1911   -2.3493   -1.8195 H   0  0  0  0  0  0  0  0  0  0  0  0
    5.7164   -0.6639   -1.5850 H   0  0  0  0  0  0  0  0  0  0  0  0
    3.5568   -1.5592   -3.5728 H   0  0  0  0  0  0  0  0  0  0  0  0
    4.0124    0.1109   -3.2366 H   0  0  0  0  0  0  0  0  0  0  0  0
    1.8593   -0.7245   -2.1536 H   0  0  0  0  0  0  0  0  0  0  0  0
    2.8426   -1.7852   -1.1016 H   0  0  0  0  0  0  0  0  0  0  0  0
   -2.2092    0.6350   -2.0875 H   0  0  0  0  0  0  0  0  0  0  0  0
   -2.3709   -0.7402   -4.1312 H   0  0  0  0  0  0  0  0  0  0  0  0
   -1.6169   -3.7099   -4.6421 H   0  0  0  0  0  0  0  0  0  0  0  0
   -3.1825   -4.3774   -4.1353 H   0  0  0  0  0  0  0  0  0  0  0  0
   -3.1349   -2.9171   -5.1161 H   0  0  0  0  0  0  0  0  0  0  0  0
   -2.6905   -4.3083   -1.7173 H   0  0  0  0  0  0  0  0  0  0  0  0
   -2.5251   -2.9442    0.3262 H   0  0  0  0  0  0  0  0  0  0  0  0
   -1.6694    0.2933    3.5035 H   0  0  0  0  0  0  0  0  0  0  0  0
    0.7620    1.4378    4.7496 H   0  0  0  0  0  0  0  0  0  0  0  0
   -0.8262    1.1970    5.4413 H   0  0  0  0  0  0  0  0  0  0  0  0
   -2.2507    2.9645    2.6465 H   0  0  0  0  0  0  0  0  0  0  0  0
   -2.0645    5.6535    3.0224 H   0  0  0  0  0  0  0  0  0  0  0  0
   -0.1510    5.9436    5.0021 H   0  0  0  0  0  0  0  0  0  0  0  0
  1  2  1  0
  2  3  1  0
  3  4  1  0
  4  5  2  0
  4  6  2  0
  4  7  1  0
  7  8  2  0
  8  9  1  0
  9 10  1  0
 10 11  2  0
 10 12  2  0
 10 13  1  0
 13 14  2  0
 14 15  1  0
 15 16  2  0
 16 17  1  0
 16 18  1  0
 18 19  2  0
  9 20  2  0
 20 21  1  0
 21 22  1  0
 22 23  1  0
 23 24  2  0
 24 25  1  0
 25 26  2  0
 26 27  1  0
 20 28  1  0
 28  7  1  0
 19 13  1  0
 27 23  1  0
  1 29  1  0
  1 30  1  0
  1 31  1  0
  2 32  1  0
  2 33  1  0
  3 34  1  0
  3 35  1  0
 14 36  1  0
 15 37  1  0
 17 38  1  0
 17 39  1  0
 17 40  1  0
 18 41  1  0
 19 42  1  0
 21 43  1  0
 22 44  1  0
 22 45  1  0
 24 46  1  0
 25 47  1  0
 26 48  1  0
M  END
$$$$
