
     RDKit          3D

 53 56  0  0  0  0  0  0  0  0999 V2000
    7.3859    0.6055    1.3114 C   0  0  0  0  0  0  0  0  0  0  0  0
    6.8759    0.2708    0.0277 O   0  0  0  0  0  0  0  0  0  0  0  0
    5.6531    0.7842   -0.3061 C   0  0  0  0  0  0  0  0  0  0  0  0
    4.8926    1.6636    0.4650 C   0  0  0  0  0  0  0  0  0  0  0  0
    3.6520    2.1167   -0.0001 C   0  0  0  0  0  0  0  0  0  0  0  0
    3.1598    1.7018   -1.2449 C   0  0  0  0  0  0  0  0  0  0  0  0
    1.8139    2.1645   -1.7384 C   0  0  0  0  0  0  0  0  0  0  0  0
    0.7749    1.2540   -1.3196 N   0  0  0  0  0  0  0  0  0  0  0  0
    0.3194    0.2293   -2.1148 C   0  0  0  0  0  0  0  0  0  0  0  0
    0.6856    0.1182   -3.2878 O   0  0  0  0  0  0  0  0  0  0  0  0
   -0.6510   -0.7801   -1.5050 C   0  0  0  0  0  0  0  0  0  0  0  0
    0.0363   -2.0683   -1.3313 C   0  0  0  0  0  0  0  0  0  0  0  0
    0.5357   -3.1068   -1.1704 N   0  0  0  0  0  0  0  0  0  0  0  0
   -1.3312   -0.3707   -0.2101 C   0  0  0  0  0  0  0  0  0  0  0  0
   -0.5699    0.2236    0.7611 N   0  0  0  0  0  0  0  0  0  0  0  0
   -1.1816    0.5402    1.9170 C   0  0  0  0  0  0  0  0  0  0  0  0
   -0.4540    1.1408    2.9378 C   0  0  0  0  0  0  0  0  0  0  0  0
   -1.0545    1.4885    4.1484 C   0  0  0  0  0  0  0  0  0  0  0  0
   -2.4054    1.2300    4.3411 C   0  0  0  0  0  0  0  0  0  0  0  0
   -3.1425    0.6255    3.3216 C   0  0  0  0  0  0  0  0  0  0  0  0
   -2.5538    0.2753    2.1121 C   0  0  0  0  0  0  0  0  0  0  0  0
   -3.2965   -0.3122    1.1557 N   0  0  0  0  0  0  0  0  0  0  0  0
   -2.6921   -0.6514   -0.0063 C   0  0  0  0  0  0  0  0  0  0  0  0
   -3.4354   -1.3332   -0.9898 N   0  0  0  0  0  0  0  0  0  0  0  0
   -3.5109   -2.7762   -0.6535 C   0  0  0  0  0  0  0  0  0  0  0  0
   -4.9313   -3.1866   -1.0222 C   0  0  0  0  0  0  0  0  0  0  0  0
   -5.7268   -1.9501   -0.6554 C   0  0  0  0  0  0  0  0  0  0  0  0
   -4.8179   -0.8237   -1.1322 C   0  0  0  0  0  0  0  0  0  0  0  0
    3.9226    0.8097   -2.0082 C   0  0  0  0  0  0  0  0  0  0  0  0
    5.1606    0.3614   -1.5426 C   0  0  0  0  0  0  0  0  0  0  0  0
    7.5681    1.6828    1.3949 H   0  0  0  0  0  0  0  0  0  0  0  0
    6.7195    0.2534    2.1077 H   0  0  0  0  0  0  0  0  0  0  0  0
    8.3462    0.0950    1.4318 H   0  0  0  0  0  0  0  0  0  0  0  0
    5.2351    2.0154    1.4314 H   0  0  0  0  0  0  0  0  0  0  0  0
    3.0724    2.7975    0.6183 H   0  0  0  0  0  0  0  0  0  0  0  0
    1.8195    2.2705   -2.8291 H   0  0  0  0  0  0  0  0  0  0  0  0
    1.5749    3.1478   -1.3186 H   0  0  0  0  0  0  0  0  0  0  0  0
    0.5949    1.1788   -0.3183 H   0  0  0  0  0  0  0  0  0  0  0  0
   -1.4165   -0.8919   -2.2840 H   0  0  0  0  0  0  0  0  0  0  0  0
    0.6053    1.3373    2.7895 H   0  0  0  0  0  0  0  0  0  0  0  0
   -0.4674    1.9557    4.9355 H   0  0  0  0  0  0  0  0  0  0  0  0
   -2.8862    1.4918    5.2804 H   0  0  0  0  0  0  0  0  0  0  0  0
   -4.1995    0.4186    3.4724 H   0  0  0  0  0  0  0  0  0  0  0  0
   -2.7744   -3.3463   -1.2285 H   0  0  0  0  0  0  0  0  0  0  0  0
   -3.3427   -2.9707    0.4146 H   0  0  0  0  0  0  0  0  0  0  0  0
   -5.0041   -3.3807   -2.0994 H   0  0  0  0  0  0  0  0  0  0  0  0
   -5.2621   -4.0806   -0.4864 H   0  0  0  0  0  0  0  0  0  0  0  0
   -5.8658   -1.8943    0.4312 H   0  0  0  0  0  0  0  0  0  0  0  0
   -6.7114   -1.9223   -1.1308 H   0  0  0  0  0  0  0  0  0  0  0  0
   -5.0226    0.1185   -0.6112 H   0  0  0  0  0  0  0  0  0  0  0  0
   -4.9917   -0.6404   -2.1995 H   0  0  0  0  0  0  0  0  0  0  0  0
    3.5528    0.4514   -2.9684 H   0  0  0  0  0  0  0  0  0  0  0  0
    5.7423   -0.3314   -2.1476 H   0  0  0  0  0  0  0  0  0  0  0  0
  1  2  1  0
  2  3  1  0
  3  4  2  0
  4  5  1  0
  5  6  2  0
  6  7  1  0
  7  8  1  0
  8  9  1  0
  9 10  2  0
  9 11  1  0
 11 12  1  0
 12 13  3  0
 11 14  1  0
 14 15  2  0
 15 16  1  0
 16 17  2  0
 17 18  1  0
 18 19  2  0
 19 20  1  0
 20 21  2  0
 21 22  1  0
 22 23  2  0
 23 24  1  0
 24 25  1  0
 25 26  1  0
 26 27  1  0
 27 28  1  0
  6 29  1  0
 29 30  2  0
 30  3  1  0
 23 14  1  0
 28 24  1  0
 21 16  1  0
  1 31  1  0
  1 32  1  0
  1 33  1  0
  4 34  1  0
  5 35  1  0
  7 36  1  0
  7 37  1  0
  8 38  1  0
 11 39  1  0
 17 40  1  0
 18 41  1  0
 19 42  1  0
 20 43  1  0
 25 44  1  0
 25 45  1  0
 26 46  1  0
 26 47  1  0
 27 48  1  0
 27 49  1  0
 28 50  1  0
 28 51  1  0
 29 52  1  0
 30 53  1  0
M  END
$$$$
