
     RDKit          3D

 65 69  0  0  0  0  0  0  0  0999 V2000
   -7.0654    5.1172    2.3736 C   0  0  0  0  0  0  0  0  0  0  0  0
   -7.0707    3.7024    2.5161 O   0  0  0  0  0  0  0  0  0  0  0  0
   -5.9537    3.0305    2.0970 C   0  0  0  0  0  0  0  0  0  0  0  0
   -4.8094    3.6066    1.5620 C   0  0  0  0  0  0  0  0  0  0  0  0
   -3.7292    2.8045    1.1690 C   0  0  0  0  0  0  0  0  0  0  0  0
   -3.7773    1.3939    1.3102 C   0  0  0  0  0  0  0  0  0  0  0  0
   -2.8072    0.3736    0.9802 C   0  0  0  0  0  0  0  0  0  0  0  0
   -1.4828    0.5976    0.4116 C   0  0  0  0  0  0  0  0  0  0  0  0
   -0.4814    1.1962    1.1807 C   0  0  0  0  0  0  0  0  0  0  0  0
    0.7891    1.3980    0.6356 C   0  0  0  0  0  0  0  0  0  0  0  0
    1.0735    1.0053   -0.6752 C   0  0  0  0  0  0  0  0  0  0  0  0
    2.3566    1.2515   -1.0790 O   0  0  0  0  0  0  0  0  0  0  0  0
    2.7508    0.7213   -2.3470 C   0  0  0  0  0  0  0  0  0  0  0  0
    4.2583    0.9579   -2.5726 C   0  0  0  0  0  0  0  0  0  0  0  0
    5.1127   -0.1420   -2.0833 N   0  0  0  0  0  0  0  0  0  0  0  0
    5.1573   -0.2442   -0.6160 C   0  0  0  0  0  0  0  0  0  0  0  0
    6.5285    0.0477   -0.0040 C   0  0  0  0  0  0  0  0  0  0  0  0
    7.6194   -0.8353   -0.6034 C   0  0  0  0  0  0  0  0  0  0  0  0
    7.3813   -1.1262   -2.0840 C   0  0  0  0  0  0  0  0  0  0  0  0
    6.4382   -0.1037   -2.7151 C   0  0  0  0  0  0  0  0  0  0  0  0
    0.0686    0.4224   -1.4477 C   0  0  0  0  0  0  0  0  0  0  0  0
   -1.2053    0.2198   -0.9063 C   0  0  0  0  0  0  0  0  0  0  0  0
   -3.2612   -0.9013    1.2772 C   0  0  0  0  0  0  0  0  0  0  0  0
   -2.5896   -2.1996    1.1288 C   0  0  0  0  0  0  0  0  0  0  0  0
   -1.6910   -2.6081    2.1280 C   0  0  0  0  0  0  0  0  0  0  0  0
   -1.0223   -3.8263    2.0247 C   0  0  0  0  0  0  0  0  0  0  0  0
   -1.2425   -4.6438    0.9202 C   0  0  0  0  0  0  0  0  0  0  0  0
   -2.1304   -4.2477   -0.0844 C   0  0  0  0  0  0  0  0  0  0  0  0
   -2.8119   -3.0282    0.0092 C   0  0  0  0  0  0  0  0  0  0  0  0
   -3.6833   -2.5545   -0.9397 O   0  0  0  0  0  0  0  0  0  0  0  0
   -4.0505   -3.4362   -1.9914 C   0  0  0  0  0  0  0  0  0  0  0  0
   -4.8333   -0.8741    1.9472 S   0  0  0  0  0  0  0  0  0  0  0  0
   -4.9390    0.8384    1.8490 C   0  0  0  0  0  0  0  0  0  0  0  0
   -6.0272    1.6417    2.2447 C   0  0  0  0  0  0  0  0  0  0  0  0
   -6.2730    5.5721    2.9773 H   0  0  0  0  0  0  0  0  0  0  0  0
   -8.0236    5.4941    2.7445 H   0  0  0  0  0  0  0  0  0  0  0  0
   -6.9782    5.4071    1.3213 H   0  0  0  0  0  0  0  0  0  0  0  0
   -4.7144    4.6794    1.4305 H   0  0  0  0  0  0  0  0  0  0  0  0
   -2.8435    3.2738    0.7459 H   0  0  0  0  0  0  0  0  0  0  0  0
   -0.6795    1.4979    2.2061 H   0  0  0  0  0  0  0  0  0  0  0  0
    1.5682    1.8566    1.2392 H   0  0  0  0  0  0  0  0  0  0  0  0
    2.5277   -0.3511   -2.4149 H   0  0  0  0  0  0  0  0  0  0  0  0
    2.2014    1.2535   -3.1333 H   0  0  0  0  0  0  0  0  0  0  0  0
    4.3959    1.0313   -3.6594 H   0  0  0  0  0  0  0  0  0  0  0  0
    4.5737    1.9131   -2.1350 H   0  0  0  0  0  0  0  0  0  0  0  0
    4.4260    0.4070   -0.1280 H   0  0  0  0  0  0  0  0  0  0  0  0
    4.8687   -1.2694   -0.3512 H   0  0  0  0  0  0  0  0  0  0  0  0
    6.7801    1.1033   -0.1689 H   0  0  0  0  0  0  0  0  0  0  0  0
    6.4955   -0.0955    1.0820 H   0  0  0  0  0  0  0  0  0  0  0  0
    7.6789   -1.7851   -0.0569 H   0  0  0  0  0  0  0  0  0  0  0  0
    8.5903   -0.3421   -0.4693 H   0  0  0  0  0  0  0  0  0  0  0  0
    6.9546   -2.1328   -2.1925 H   0  0  0  0  0  0  0  0  0  0  0  0
    8.3386   -1.1397   -2.6174 H   0  0  0  0  0  0  0  0  0  0  0  0
    6.8819    0.8983   -2.6405 H   0  0  0  0  0  0  0  0  0  0  0  0
    6.3369   -0.3342   -3.7829 H   0  0  0  0  0  0  0  0  0  0  0  0
    0.2393    0.1131   -2.4729 H   0  0  0  0  0  0  0  0  0  0  0  0
   -1.9786   -0.2412   -1.5178 H   0  0  0  0  0  0  0  0  0  0  0  0
   -1.5104   -1.9715    2.9913 H   0  0  0  0  0  0  0  0  0  0  0  0
   -0.3283   -4.1340    2.8020 H   0  0  0  0  0  0  0  0  0  0  0  0
   -0.7167   -5.5918    0.8357 H   0  0  0  0  0  0  0  0  0  0  0  0
   -2.2602   -4.9116   -0.9325 H   0  0  0  0  0  0  0  0  0  0  0  0
   -3.1961   -3.6455   -2.6433 H   0  0  0  0  0  0  0  0  0  0  0  0
   -4.8137   -2.9353   -2.5954 H   0  0  0  0  0  0  0  0  0  0  0  0
   -4.4897   -4.3608   -1.6025 H   0  0  0  0  0  0  0  0  0  0  0  0
   -6.9215    1.1859    2.6615 H   0  0  0  0  0  0  0  0  0  0  0  0
  1  2  1  0
  2  3  1  0
  3  4  2  0
  4  5  1  0
  5  6  2  0
  6  7  1  0
  7  8  1  0
  8  9  2  0
  9 10  1  0
 10 11  2  0
 11 12  1  0
 12 13  1  0
 13 14  1  0
 14 15  1  0
 15 16  1  0
 16 17  1  0
 17 18  1  0
 18 19  1  0
 19 20  1  0
 11 21  1  0
 21 22  2  0
  7 23  2  0
 23 24  1  0
 24 25  2  0
 25 26  1  0
 26 27  2  0
 27 28  1  0
 28 29  2  0
 29 30  1  0
 30 31  1  0
 23 32  1  0
 32 33  1  0
 33 34  2  0
 34  3  1  0
 33  6  1  0
 22  8  1  0
 29 24  1  0
 20 15  1  0
  1 35  1  0
  1 36  1  0
  1 37  1  0
  4 38  1  0
  5 39  1  0
  9 40  1  0
 10 41  1  0
 13 42  1  0
 13 43  1  0
 14 44  1  0
 14 45  1  0
 16 46  1  0
 16 47  1  0
 17 48  1  0
 17 49  1  0
 18 50  1  0
 18 51  1  0
 19 52  1  0
 19 53  1  0
 20 54  1  0
 20 55  1  0
 21 56  1  0
 22 57  1  0
 25 58  1  0
 26 59  1  0
 27 60  1  0
 28 61  1  0
 31 62  1  0
 31 63  1  0
 31 64  1  0
 34 65  1  0
M  END
$$$$
