
     RDKit          3D

 47 49  0  0  0  0  0  0  0  0999 V2000
    6.6640   -1.7109   -0.6686 C   0  0  0  0  0  0  0  0  0  0  0  0
    5.4742   -1.5204   -1.5970 C   0  0  0  0  0  0  0  0  0  0  0  0
    5.0712   -0.0541   -1.7688 C   0  0  0  0  0  0  0  0  0  0  0  0
    4.4431    0.5987   -0.5314 C   0  0  0  0  0  0  0  0  0  0  0  0
    3.1552    0.0270   -0.1379 N   0  0  0  0  0  0  0  0  0  0  0  0
    2.0319    0.2015   -1.0460 C   0  0  0  0  0  0  0  0  0  0  0  0
    0.7143   -0.1460   -0.4423 C   0  0  0  0  0  0  0  0  0  0  0  0
   -0.5018    0.2412   -1.0116 C   0  0  0  0  0  0  0  0  0  0  0  0
   -1.6953   -0.1854   -0.4277 C   0  0  0  0  0  0  0  0  0  0  0  0
   -2.9839    0.2115   -1.0279 C   0  0  0  0  0  0  0  0  0  0  0  0
   -3.0656    0.2873   -2.2534 O   0  0  0  0  0  0  0  0  0  0  0  0
   -4.1906    0.5030   -0.2125 C   0  0  0  0  0  0  0  0  0  0  0  0
   -4.0836    1.0170    1.0907 C   0  0  0  0  0  0  0  0  0  0  0  0
   -5.2350    1.2624    1.8431 C   0  0  0  0  0  0  0  0  0  0  0  0
   -5.2706    1.7468    3.1212 O   0  0  0  0  0  0  0  0  0  0  0  0
   -4.0250    1.9836    3.7659 C   0  0  0  0  0  0  0  0  0  0  0  0
   -6.4907    1.0113    1.2827 C   0  0  0  0  0  0  0  0  0  0  0  0
   -6.6059    0.5314   -0.0218 C   0  0  0  0  0  0  0  0  0  0  0  0
   -5.4592    0.2915   -0.7695 C   0  0  0  0  0  0  0  0  0  0  0  0
   -5.6463   -0.1518   -2.0508 O   0  0  0  0  0  0  0  0  0  0  0  0
   -1.6196   -1.0297    0.6716 C   0  0  0  0  0  0  0  0  0  0  0  0
   -0.4535   -1.4144    1.2432 N   0  0  0  0  0  0  0  0  0  0  0  0
    0.6826   -0.9592    0.6757 C   0  0  0  0  0  0  0  0  0  0  0  0
    1.8741   -1.3322    1.2624 N   0  0  0  0  0  0  0  0  0  0  0  0
    3.0993   -0.8478    0.9287 C   0  0  0  0  0  0  0  0  0  0  0  0
    4.0789   -1.1739    1.5956 O   0  0  0  0  0  0  0  0  0  0  0  0
    7.5327   -1.1492   -1.0267 H   0  0  0  0  0  0  0  0  0  0  0  0
    6.9413   -2.7691   -0.6266 H   0  0  0  0  0  0  0  0  0  0  0  0
    6.4421   -1.3840    0.3502 H   0  0  0  0  0  0  0  0  0  0  0  0
    5.7440   -1.9203   -2.5820 H   0  0  0  0  0  0  0  0  0  0  0  0
    4.6260   -2.1155   -1.2424 H   0  0  0  0  0  0  0  0  0  0  0  0
    4.3737    0.0164   -2.6117 H   0  0  0  0  0  0  0  0  0  0  0  0
    5.9558    0.5272   -2.0576 H   0  0  0  0  0  0  0  0  0  0  0  0
    4.2684    1.6614   -0.7390 H   0  0  0  0  0  0  0  0  0  0  0  0
    5.1425    0.5631    0.3104 H   0  0  0  0  0  0  0  0  0  0  0  0
    2.2004   -0.4382   -1.9195 H   0  0  0  0  0  0  0  0  0  0  0  0
    2.0218    1.2492   -1.3675 H   0  0  0  0  0  0  0  0  0  0  0  0
   -0.5223    0.8609   -1.9057 H   0  0  0  0  0  0  0  0  0  0  0  0
   -3.1055    1.2394    1.5020 H   0  0  0  0  0  0  0  0  0  0  0  0
   -3.4415    1.0607    3.8491 H   0  0  0  0  0  0  0  0  0  0  0  0
   -3.4579    2.7651    3.2498 H   0  0  0  0  0  0  0  0  0  0  0  0
   -4.2350    2.3381    4.7796 H   0  0  0  0  0  0  0  0  0  0  0  0
   -7.3896    1.2026    1.8649 H   0  0  0  0  0  0  0  0  0  0  0  0
   -7.5867    0.3547   -0.4553 H   0  0  0  0  0  0  0  0  0  0  0  0
   -4.7884   -0.0743   -2.5257 H   0  0  0  0  0  0  0  0  0  0  0  0
   -2.5060   -1.4497    1.1397 H   0  0  0  0  0  0  0  0  0  0  0  0
    1.8221   -1.9270    2.0755 H   0  0  0  0  0  0  0  0  0  0  0  0
  1  2  1  0
  2  3  1  0
  3  4  1  0
  4  5  1  0
  5  6  1  0
  6  7  1  0
  7  8  2  0
  8  9  1  0
  9 10  1  0
 10 11  2  0
 10 12  1  0
 12 13  2  0
 13 14  1  0
 14 15  1  0
 15 16  1  0
 14 17  2  0
 17 18  1  0
 18 19  2  0
 19 20  1  0
  9 21  2  0
 21 22  1  0
 22 23  2  0
 23 24  1  0
 24 25  1  0
 25 26  2  0
 25  5  1  0
 23  7  1  0
 19 12  1  0
  1 27  1  0
  1 28  1  0
  1 29  1  0
  2 30  1  0
  2 31  1  0
  3 32  1  0
  3 33  1  0
  4 34  1  0
  4 35  1  0
  6 36  1  0
  6 37  1  0
  8 38  1  0
 13 39  1  0
 16 40  1  0
 16 41  1  0
 16 42  1  0
 17 43  1  0
 18 44  1  0
 20 45  1  0
 21 46  1  0
 24 47  1  0
M  END
$$$$
