
     RDKit          3D

 72 77  0  0  0  0  0  0  0  0999 V2000
    5.7763   -0.5924   -3.4139 O   0  0  0  0  0  0  0  0  0  0  0  0
    5.1196   -0.1004   -2.4983 C   0  0  0  0  0  0  0  0  0  0  0  0
    3.6021   -0.0190   -2.5702 C   0  0  0  0  0  0  0  0  0  0  0  0
    2.9583    1.6064   -2.0876 S   0  0  0  0  0  0  0  0  0  0  0  0
    2.6377    1.2698   -0.3971 C   0  0  0  0  0  0  0  0  0  0  0  0
    3.6649    1.3941    0.4005 N   0  0  0  0  0  0  0  0  0  0  0  0
    3.5021    1.1736    1.7884 C   0  0  0  0  0  0  0  0  0  0  0  0
    4.6091    1.3029    2.6270 C   0  0  0  0  0  0  0  0  0  0  0  0
    4.4789    1.0997    4.0039 C   0  0  0  0  0  0  0  0  0  0  0  0
    3.2395    0.7645    4.5494 C   0  0  0  0  0  0  0  0  0  0  0  0
    2.1252    0.6297    3.7227 C   0  0  0  0  0  0  0  0  0  0  0  0
    2.2588    0.8325    2.3472 C   0  0  0  0  0  0  0  0  0  0  0  0
    1.1477    0.6953    1.4244 C   0  0  0  0  0  0  0  0  0  0  0  0
   -0.1037    0.3825    1.6779 N   0  0  0  0  0  0  0  0  0  0  0  0
   -0.7397    0.3589    0.4511 C   0  0  0  0  0  0  0  0  0  0  0  0
   -2.1830   -0.0387    0.4147 C   0  0  0  0  0  0  0  0  0  0  0  0
   -3.0247    0.6520   -0.6508 C   0  0  0  0  0  0  0  0  0  0  0  0
   -2.5213    1.0658   -1.7009 O   0  0  0  0  0  0  0  0  0  0  0  0
   -4.3884    0.7855   -0.4116 N   0  0  0  0  0  0  0  0  0  0  0  0
   -5.2116    1.4151   -1.4562 C   0  0  0  0  0  0  0  0  0  0  0  0
   -6.4532    2.1245   -0.8888 C   0  0  0  0  0  0  0  0  0  0  0  0
   -7.2102    1.2553    0.0345 N   0  0  0  0  0  0  0  0  0  0  0  0
   -8.2796    0.4837   -0.4159 C   0  0  0  0  0  0  0  0  0  0  0  0
   -9.2022   -0.0443    0.5051 C   0  0  0  0  0  0  0  0  0  0  0  0
  -10.3130   -0.7943    0.0978 C   0  0  0  0  0  0  0  0  0  0  0  0
  -10.5292   -1.0380   -1.2532 C   0  0  0  0  0  0  0  0  0  0  0  0
   -9.6407   -0.5253   -2.1893 C   0  0  0  0  0  0  0  0  0  0  0  0
   -8.5352    0.2313   -1.7729 C   0  0  0  0  0  0  0  0  0  0  0  0
   -6.3688    0.7050    1.1178 C   0  0  0  0  0  0  0  0  0  0  0  0
   -5.1547   -0.0483    0.5350 C   0  0  0  0  0  0  0  0  0  0  0  0
    0.1644    0.6543   -0.5587 C   0  0  0  0  0  0  0  0  0  0  0  0
    0.0291    0.7226   -1.8793 O   0  0  0  0  0  0  0  0  0  0  0  0
    1.3691    0.8976    0.0779 N   0  0  0  0  0  0  0  0  0  0  0  0
    5.6939    0.3109   -1.3175 N   0  0  0  0  0  0  0  0  0  0  0  0
    7.1310    0.3587   -1.1303 C   0  0  0  0  0  0  0  0  0  0  0  0
    7.8030   -1.0114   -1.0284 C   0  0  0  0  0  0  0  0  0  0  0  0
    7.1849   -1.9372    0.0094 C   0  0  0  0  0  0  0  0  0  0  0  0
    8.3331   -2.8735    0.2945 C   0  0  0  0  0  0  0  0  0  0  0  0
    9.5211   -1.9343    0.2568 C   0  0  0  0  0  0  0  0  0  0  0  0
    9.1807   -0.8534   -0.6264 O   0  0  0  0  0  0  0  0  0  0  0  0
    3.1686   -0.8214   -1.9645 H   0  0  0  0  0  0  0  0  0  0  0  0
    3.3060   -0.1853   -3.6099 H   0  0  0  0  0  0  0  0  0  0  0  0
    5.5758    1.5711    2.2090 H   0  0  0  0  0  0  0  0  0  0  0  0
    5.3470    1.2028    4.6507 H   0  0  0  0  0  0  0  0  0  0  0  0
    3.1395    0.6075    5.6206 H   0  0  0  0  0  0  0  0  0  0  0  0
    1.1582    0.3667    4.1453 H   0  0  0  0  0  0  0  0  0  0  0  0
   -2.2525   -1.1205    0.2485 H   0  0  0  0  0  0  0  0  0  0  0  0
   -2.5927    0.1930    1.4042 H   0  0  0  0  0  0  0  0  0  0  0  0
   -5.5028    0.6170   -2.1483 H   0  0  0  0  0  0  0  0  0  0  0  0
   -4.6171    2.1390   -2.0241 H   0  0  0  0  0  0  0  0  0  0  0  0
   -7.0794    2.5218   -1.6944 H   0  0  0  0  0  0  0  0  0  0  0  0
   -6.1188    2.9993   -0.3162 H   0  0  0  0  0  0  0  0  0  0  0  0
   -9.0944    0.1671    1.5668 H   0  0  0  0  0  0  0  0  0  0  0  0
  -11.0110   -1.1703    0.8396 H   0  0  0  0  0  0  0  0  0  0  0  0
  -11.3979   -1.6082   -1.5763 H   0  0  0  0  0  0  0  0  0  0  0  0
   -9.8073   -0.7016   -3.2506 H   0  0  0  0  0  0  0  0  0  0  0  0
   -7.8763    0.6058   -2.5493 H   0  0  0  0  0  0  0  0  0  0  0  0
   -6.9135    0.0473    1.8005 H   0  0  0  0  0  0  0  0  0  0  0  0
   -6.0061    1.5472    1.7202 H   0  0  0  0  0  0  0  0  0  0  0  0
   -5.4910   -0.9314   -0.0253 H   0  0  0  0  0  0  0  0  0  0  0  0
   -4.5285   -0.4085    1.3524 H   0  0  0  0  0  0  0  0  0  0  0  0
   -0.9257    0.8697   -2.0764 H   0  0  0  0  0  0  0  0  0  0  0  0
    5.1234    0.8620   -0.6759 H   0  0  0  0  0  0  0  0  0  0  0  0
    7.3223    0.9401   -0.2225 H   0  0  0  0  0  0  0  0  0  0  0  0
    7.5713    0.9230   -1.9596 H   0  0  0  0  0  0  0  0  0  0  0  0
    7.8071   -1.5066   -2.0064 H   0  0  0  0  0  0  0  0  0  0  0  0
    6.9262   -1.3829    0.9196 H   0  0  0  0  0  0  0  0  0  0  0  0
    6.2897   -2.4492   -0.3517 H   0  0  0  0  0  0  0  0  0  0  0  0
    8.2421   -3.4081    1.2452 H   0  0  0  0  0  0  0  0  0  0  0  0
    8.4160   -3.6155   -0.5101 H   0  0  0  0  0  0  0  0  0  0  0  0
    9.7160   -1.5018    1.2452 H   0  0  0  0  0  0  0  0  0  0  0  0
   10.4349   -2.4241   -0.0945 H   0  0  0  0  0  0  0  0  0  0  0  0
  1  2  2  0
  2  3  1  0
  3  4  1  0
  4  5  1  0
  5  6  2  0
  6  7  1  0
  7  8  2  0
  8  9  1  0
  9 10  2  0
 10 11  1  0
 11 12  2  0
 12 13  1  0
 13 14  2  0
 14 15  1  0
 15 16  1  0
 16 17  1  0
 17 18  2  0
 17 19  1  0
 19 20  1  0
 20 21  1  0
 21 22  1  0
 22 23  1  0
 23 24  2  0
 24 25  1  0
 25 26  2  0
 26 27  1  0
 27 28  2  0
 22 29  1  0
 29 30  1  0
 15 31  2  0
 31 32  1  0
 31 33  1  0
  2 34  1  0
 34 35  1  0
 35 36  1  0
 36 37  1  0
 37 38  1  0
 38 39  1  0
 39 40  1  0
 33  5  1  0
 40 36  1  0
 12  7  1  0
 33 13  1  0
 30 19  1  0
 28 23  1  0
  3 41  1  0
  3 42  1  0
  8 43  1  0
  9 44  1  0
 10 45  1  0
 11 46  1  0
 16 47  1  0
 16 48  1  0
 20 49  1  0
 20 50  1  0
 21 51  1  0
 21 52  1  0
 24 53  1  0
 25 54  1  0
 26 55  1  0
 27 56  1  0
 28 57  1  0
 29 58  1  0
 29 59  1  0
 30 60  1  0
 30 61  1  0
 32 62  1  0
 34 63  1  0
 35 64  1  0
 35 65  1  0
 36 66  1  0
 37 67  1  0
 37 68  1  0
 38 69  1  0
 38 70  1  0
 39 71  1  0
 39 72  1  0
M  END
$$$$
