
     RDKit          3D

 55 58  0  0  0  0  0  0  0  0999 V2000
    3.0572   -0.0459    2.8377 C   0  0  0  0  0  0  0  0  0  0  0  0
    3.1655    0.2338    1.4454 O   0  0  0  0  0  0  0  0  0  0  0  0
    4.3843    0.6612    0.9829 C   0  0  0  0  0  0  0  0  0  0  0  0
    5.5479    0.7367    1.7564 C   0  0  0  0  0  0  0  0  0  0  0  0
    6.7531    1.1591    1.1868 C   0  0  0  0  0  0  0  0  0  0  0  0
    6.8089    1.5019   -0.1603 C   0  0  0  0  0  0  0  0  0  0  0  0
    5.6563    1.4309   -0.9397 C   0  0  0  0  0  0  0  0  0  0  0  0
    4.4332    1.0254   -0.3760 C   0  0  0  0  0  0  0  0  0  0  0  0
    3.2111    0.9436   -1.2608 C   0  0  0  0  0  0  0  0  0  0  0  0
    3.1336   -0.3599   -1.9160 N   0  0  0  0  0  0  0  0  0  0  0  0
    1.9753   -0.5988   -3.0952 S   0  0  0  0  0  6  0  0  0  0  0  0
    2.0327   -1.9948   -3.4679 O   0  0  0  0  0  0  0  0  0  0  0  0
    2.1032    0.4590   -4.0726 O   0  0  0  0  0  0  0  0  0  0  0  0
    0.4542   -0.3493   -2.2089 C   0  0  0  0  0  0  0  0  0  0  0  0
   -0.0133   -1.3635   -1.3580 C   0  0  0  0  0  0  0  0  0  0  0  0
   -1.2131   -1.1992   -0.6522 C   0  0  0  0  0  0  0  0  0  0  0  0
   -1.9316   -0.0257   -0.8103 C   0  0  0  0  0  0  0  0  0  0  0  0
   -1.4629    0.9639   -1.6864 C   0  0  0  0  0  0  0  0  0  0  0  0
   -0.2741    0.8265   -2.3904 C   0  0  0  0  0  0  0  0  0  0  0  0
   -2.3684    2.1562   -1.6967 C   0  0  0  0  0  0  0  0  0  0  0  0
   -3.6050    1.6077   -0.9632 C   0  0  0  0  0  0  0  0  0  0  0  0
   -4.7324    1.2850   -1.9509 C   0  0  0  0  0  0  0  0  0  0  0  0
   -3.1532    0.3907   -0.2450 N   0  0  0  0  0  0  0  0  0  0  0  0
   -3.9306   -0.1363    0.7853 C   0  0  0  0  0  0  0  0  0  0  0  0
   -5.0248    0.3888    1.0518 O   0  0  0  0  0  0  0  0  0  0  0  0
   -3.4012   -1.3290    1.6230 C   0  0  0  0  0  0  0  0  0  0  0  0
   -4.1388   -1.6535    2.9568 C   0  0  0  0  0  0  0  0  0  0  0  0
   -4.9586   -2.7044    2.1898 C   0  0  0  0  0  0  0  0  0  0  0  0
   -3.8131   -2.7575    1.1648 C   0  0  0  0  0  0  0  0  0  0  0  0
    3.2871    0.8420    3.4395 H   0  0  0  0  0  0  0  0  0  0  0  0
    3.6918   -0.8934    3.1189 H   0  0  0  0  0  0  0  0  0  0  0  0
    2.0190   -0.3274    3.0422 H   0  0  0  0  0  0  0  0  0  0  0  0
    5.5566    0.4666    2.8069 H   0  0  0  0  0  0  0  0  0  0  0  0
    7.6522    1.2109    1.7956 H   0  0  0  0  0  0  0  0  0  0  0  0
    7.7496    1.8182   -0.6062 H   0  0  0  0  0  0  0  0  0  0  0  0
    5.7124    1.6866   -1.9968 H   0  0  0  0  0  0  0  0  0  0  0  0
    3.2594    1.7425   -2.0098 H   0  0  0  0  0  0  0  0  0  0  0  0
    2.3115    1.1272   -0.6648 H   0  0  0  0  0  0  0  0  0  0  0  0
    3.3088   -1.1719   -1.3269 H   0  0  0  0  0  0  0  0  0  0  0  0
    0.5468   -2.2912   -1.2508 H   0  0  0  0  0  0  0  0  0  0  0  0
   -1.5491   -2.0193   -0.0347 H   0  0  0  0  0  0  0  0  0  0  0  0
    0.0723    1.6107   -3.0578 H   0  0  0  0  0  0  0  0  0  0  0  0
   -2.5890    2.5060   -2.7098 H   0  0  0  0  0  0  0  0  0  0  0  0
   -1.9047    2.9663   -1.1219 H   0  0  0  0  0  0  0  0  0  0  0  0
   -3.9747    2.3427   -0.2379 H   0  0  0  0  0  0  0  0  0  0  0  0
   -5.6118    0.8853   -1.4371 H   0  0  0  0  0  0  0  0  0  0  0  0
   -4.4168    0.5378   -2.6875 H   0  0  0  0  0  0  0  0  0  0  0  0
   -5.0414    2.1864   -2.4902 H   0  0  0  0  0  0  0  0  0  0  0  0
   -2.3305   -1.2156    1.8335 H   0  0  0  0  0  0  0  0  0  0  0  0
   -4.7170   -0.8436    3.4092 H   0  0  0  0  0  0  0  0  0  0  0  0
   -3.4838   -2.0827    3.7248 H   0  0  0  0  0  0  0  0  0  0  0  0
   -5.8991   -2.3197    1.7800 H   0  0  0  0  0  0  0  0  0  0  0  0
   -5.1595   -3.6352    2.7257 H   0  0  0  0  0  0  0  0  0  0  0  0
   -4.1267   -2.8593    0.1224 H   0  0  0  0  0  0  0  0  0  0  0  0
   -3.0589   -3.5225    1.3836 H   0  0  0  0  0  0  0  0  0  0  0  0
  1  2  1  0
  2  3  1  0
  3  4  2  0
  4  5  1  0
  5  6  2  0
  6  7  1  0
  7  8  2  0
  8  9  1  0
  9 10  1  0
 10 11  1  0
 11 12  2  0
 11 13  2  0
 11 14  1  0
 14 15  2  0
 15 16  1  0
 16 17  2  0
 17 18  1  0
 18 19  2  0
 18 20  1  0
 20 21  1  0
 21 22  1  0
 21 23  1  0
 23 24  1  0
 24 25  2  0
 24 26  1  0
 26 27  1  0
 27 28  1  0
 28 29  1  0
  8  3  1  0
 19 14  1  0
 29 26  1  0
 23 17  1  0
  1 30  1  0
  1 31  1  0
  1 32  1  0
  4 33  1  0
  5 34  1  0
  6 35  1  0
  7 36  1  0
  9 37  1  0
  9 38  1  0
 10 39  1  0
 15 40  1  0
 16 41  1  0
 19 42  1  0
 20 43  1  0
 20 44  1  0
 21 45  1  0
 22 46  1  0
 22 47  1  0
 22 48  1  0
 26 49  1  0
 27 50  1  0
 27 51  1  0
 28 52  1  0
 28 53  1  0
 29 54  1  0
 29 55  1  0
M  END
$$$$
