
     RDKit          3D

 52 55  0  0  0  0  0  0  0  0999 V2000
   -4.4198    1.8789    1.7465 C   0  0  0  0  0  0  0  0  0  0  0  0
   -5.1592    1.8544    0.4363 C   0  0  0  0  0  0  0  0  0  0  0  0
   -5.8513    3.0131    0.0408 C   0  0  0  0  0  0  0  0  0  0  0  0
   -6.5652    3.0491   -1.1560 C   0  0  0  0  0  0  0  0  0  0  0  0
   -6.5913    1.9297   -1.9793 C   0  0  0  0  0  0  0  0  0  0  0  0
   -5.8953    0.7781   -1.6087 C   0  0  0  0  0  0  0  0  0  0  0  0
   -5.1657    0.7251   -0.4076 C   0  0  0  0  0  0  0  0  0  0  0  0
   -4.4484   -0.4589   -0.0988 N   0  0  0  0  0  0  0  0  0  0  0  0
   -3.0297   -0.5340    0.0315 C   0  0  0  0  0  0  0  0  0  0  0  0
   -2.2646    0.5224   -0.3165 N   0  0  0  0  0  0  0  0  0  0  0  0
   -0.9024    0.4662   -0.2227 N   0  0  0  0  0  0  0  0  0  0  0  0
   -0.2957   -0.6545    0.2259 C   0  0  0  0  0  0  0  0  0  0  0  0
    1.1695   -0.5458    0.2911 C   0  0  0  0  0  0  0  0  0  0  0  0
    1.8504   -0.5801    1.5198 C   0  0  0  0  0  0  0  0  0  0  0  0
    3.2438   -0.4721    1.5713 C   0  0  0  0  0  0  0  0  0  0  0  0
    3.9831   -0.3072    0.3948 C   0  0  0  0  0  0  0  0  0  0  0  0
    5.4653   -0.1985    0.4983 C   0  0  0  0  0  0  0  0  0  0  0  0
    6.0522   -0.6751    1.4635 O   0  0  0  0  0  0  0  0  0  0  0  0
    6.1011    0.4779   -0.5198 N   0  0  0  0  0  0  0  0  0  0  0  0
    7.5091    0.8194   -0.4204 C   0  0  0  0  0  0  0  0  0  0  0  0
    8.0814    1.1745   -1.7894 C   0  0  0  0  0  0  0  0  0  0  0  0
    7.3498    2.2670   -2.3478 O   0  0  0  0  0  0  0  0  0  0  0  0
    3.3187   -0.2696   -0.8361 C   0  0  0  0  0  0  0  0  0  0  0  0
    1.9244   -0.3811   -0.8829 C   0  0  0  0  0  0  0  0  0  0  0  0
   -1.0307   -1.7987    0.5921 C   0  0  0  0  0  0  0  0  0  0  0  0
   -0.4366   -3.0108    1.0292 C   0  0  0  0  0  0  0  0  0  0  0  0
   -1.2056   -4.1132    1.4015 C   0  0  0  0  0  0  0  0  0  0  0  0
   -2.5882   -4.0353    1.3482 C   0  0  0  0  0  0  0  0  0  0  0  0
   -3.1976   -2.8605    0.9071 C   0  0  0  0  0  0  0  0  0  0  0  0
   -2.4413   -1.7294    0.5061 C   0  0  0  0  0  0  0  0  0  0  0  0
   -3.3812    2.1849    1.5923 H   0  0  0  0  0  0  0  0  0  0  0  0
   -4.4446    0.9015    2.2382 H   0  0  0  0  0  0  0  0  0  0  0  0
   -4.8849    2.5866    2.4419 H   0  0  0  0  0  0  0  0  0  0  0  0
   -5.8373    3.8984    0.6731 H   0  0  0  0  0  0  0  0  0  0  0  0
   -7.0961    3.9522   -1.4448 H   0  0  0  0  0  0  0  0  0  0  0  0
   -7.1422    1.9552   -2.9155 H   0  0  0  0  0  0  0  0  0  0  0  0
   -5.9131   -0.0756   -2.2807 H   0  0  0  0  0  0  0  0  0  0  0  0
   -4.7315   -1.2184   -0.7102 H   0  0  0  0  0  0  0  0  0  0  0  0
    1.2958   -0.6848    2.4512 H   0  0  0  0  0  0  0  0  0  0  0  0
    3.7509   -0.5062    2.5340 H   0  0  0  0  0  0  0  0  0  0  0  0
    5.5538    1.1060   -1.0973 H   0  0  0  0  0  0  0  0  0  0  0  0
    8.0604   -0.0161    0.0231 H   0  0  0  0  0  0  0  0  0  0  0  0
    7.5750    1.6788    0.2560 H   0  0  0  0  0  0  0  0  0  0  0  0
    9.1318    1.4671   -1.6987 H   0  0  0  0  0  0  0  0  0  0  0  0
    8.0021    0.3251   -2.4758 H   0  0  0  0  0  0  0  0  0  0  0  0
    7.7699    2.4789   -3.2000 H   0  0  0  0  0  0  0  0  0  0  0  0
    3.8670   -0.1728   -1.7690 H   0  0  0  0  0  0  0  0  0  0  0  0
    1.4206   -0.3397   -1.8481 H   0  0  0  0  0  0  0  0  0  0  0  0
    0.6465   -3.1109    1.0809 H   0  0  0  0  0  0  0  0  0  0  0  0
   -0.7211   -5.0267    1.7377 H   0  0  0  0  0  0  0  0  0  0  0  0
   -3.1958   -4.8851    1.6497 H   0  0  0  0  0  0  0  0  0  0  0  0
   -4.2859   -2.8298    0.8926 H   0  0  0  0  0  0  0  0  0  0  0  0
  1  2  1  0
  2  3  2  0
  3  4  1  0
  4  5  2  0
  5  6  1  0
  6  7  2  0
  7  8  1  0
  8  9  1  0
  9 10  2  0
 10 11  1  0
 11 12  2  0
 12 13  1  0
 13 14  2  0
 14 15  1  0
 15 16  2  0
 16 17  1  0
 17 18  2  0
 17 19  1  0
 19 20  1  0
 20 21  1  0
 21 22  1  0
 16 23  1  0
 23 24  2  0
 12 25  1  0
 25 26  2  0
 26 27  1  0
 27 28  2  0
 28 29  1  0
 29 30  2  0
  7  2  1  0
 30  9  1  0
 24 13  1  0
 30 25  1  0
  1 31  1  0
  1 32  1  0
  1 33  1  0
  3 34  1  0
  4 35  1  0
  5 36  1  0
  6 37  1  0
  8 38  1  0
 14 39  1  0
 15 40  1  0
 19 41  1  0
 20 42  1  0
 20 43  1  0
 21 44  1  0
 21 45  1  0
 22 46  1  0
 23 47  1  0
 24 48  1  0
 26 49  1  0
 27 50  1  0
 28 51  1  0
 29 52  1  0
M  END
$$$$
