
     RDKit          3D

 46 48  0  0  0  0  0  0  0  0999 V2000
    2.3559   -0.0187   -3.0711 C   0  0  0  0  0  0  0  0  0  0  0  0
    2.8429    0.6090   -1.7788 C   0  0  0  0  0  0  0  0  0  0  0  0
    3.0779   -0.4136   -0.7954 O   0  0  0  0  0  0  0  0  0  0  0  0
    4.3137   -0.9782   -0.8080 C   0  0  0  0  0  0  0  0  0  0  0  0
    5.2088   -0.6785   -1.5839 O   0  0  0  0  0  0  0  0  0  0  0  0
    4.4645   -2.0276    0.2514 C   0  0  0  0  0  0  0  0  0  0  0  0
    5.7467   -2.6084    0.3343 C   0  0  0  0  0  0  0  0  0  0  0  0
    6.0284   -3.5997    1.2714 C   0  0  0  0  0  0  0  0  0  0  0  0
    5.0308   -4.0247    2.1376 C   0  0  0  0  0  0  0  0  0  0  0  0
    3.7529   -3.4614    2.0693 C   0  0  0  0  0  0  0  0  0  0  0  0
    3.4455   -2.4600    1.1360 C   0  0  0  0  0  0  0  0  0  0  0  0
    2.1498   -1.8949    1.0648 N   0  0  0  0  0  0  0  0  0  0  0  0
    1.0442   -2.1276    1.8662 C   0  0  0  0  0  0  0  0  0  0  0  0
    0.9829   -2.8950    2.8222 O   0  0  0  0  0  0  0  0  0  0  0  0
   -0.1742   -1.3311    1.4232 C   0  0  0  0  0  0  0  0  0  0  0  0
    0.1022    0.4422    1.7500 S   0  0  0  0  0  0  0  0  0  0  0  0
   -1.4348    1.1076    1.1584 C   0  0  0  0  0  0  0  0  0  0  0  0
   -1.7964    2.4034    1.4792 C   0  0  0  0  0  0  0  0  0  0  0  0
   -3.0014    2.9125    0.9909 C   0  0  0  0  0  0  0  0  0  0  0  0
   -3.8090    2.1141    0.1879 C   0  0  0  0  0  0  0  0  0  0  0  0
   -5.0976    2.5432   -0.3776 C   0  0  0  0  0  0  0  0  0  0  0  0
   -6.1041    1.6204   -0.7051 C   0  0  0  0  0  0  0  0  0  0  0  0
   -7.3217    2.0470   -1.2356 C   0  0  0  0  0  0  0  0  0  0  0  0
   -7.5114    3.4020   -1.4327 C   0  0  0  0  0  0  0  0  0  0  0  0
   -6.5794    4.3321   -1.1442 N   0  0  0  0  0  0  0  0  0  0  0  0
   -5.4050    3.8809   -0.6346 C   0  0  0  0  0  0  0  0  0  0  0  0
   -3.4174    0.8516   -0.1033 N   0  0  0  0  0  0  0  0  0  0  0  0
   -2.2268    0.3485    0.3793 N   0  0  0  0  0  0  0  0  0  0  0  0
    3.1195   -0.6770   -3.4986 H   0  0  0  0  0  0  0  0  0  0  0  0
    2.1074    0.7510   -3.8071 H   0  0  0  0  0  0  0  0  0  0  0  0
    1.4689   -0.6355   -2.8898 H   0  0  0  0  0  0  0  0  0  0  0  0
    3.7361    1.2232   -1.9400 H   0  0  0  0  0  0  0  0  0  0  0  0
    2.0666    1.2672   -1.3741 H   0  0  0  0  0  0  0  0  0  0  0  0
    6.5408   -2.2874   -0.3391 H   0  0  0  0  0  0  0  0  0  0  0  0
    7.0220   -4.0377    1.3225 H   0  0  0  0  0  0  0  0  0  0  0  0
    5.2393   -4.7990    2.8726 H   0  0  0  0  0  0  0  0  0  0  0  0
    3.0119   -3.8367    2.7691 H   0  0  0  0  0  0  0  0  0  0  0  0
    2.0398   -1.1619    0.3665 H   0  0  0  0  0  0  0  0  0  0  0  0
   -0.3403   -1.5113    0.3557 H   0  0  0  0  0  0  0  0  0  0  0  0
   -1.0478   -1.6844    1.9809 H   0  0  0  0  0  0  0  0  0  0  0  0
   -1.1617    3.0211    2.1077 H   0  0  0  0  0  0  0  0  0  0  0  0
   -3.2931    3.9214    1.2649 H   0  0  0  0  0  0  0  0  0  0  0  0
   -5.9464    0.5547   -0.5447 H   0  0  0  0  0  0  0  0  0  0  0  0
   -8.1003    1.3354   -1.4871 H   0  0  0  0  0  0  0  0  0  0  0  0
   -8.4417    3.7853   -1.8420 H   0  0  0  0  0  0  0  0  0  0  0  0
   -4.6887    4.6765   -0.4471 H   0  0  0  0  0  0  0  0  0  0  0  0
  1  2  1  0
  2  3  1  0
  3  4  1  0
  4  5  2  0
  4  6  1  0
  6  7  2  0
  7  8  1  0
  8  9  2  0
  9 10  1  0
 10 11  2  0
 11 12  1  0
 12 13  1  0
 13 14  2  0
 13 15  1  0
 15 16  1  0
 16 17  1  0
 17 18  2  0
 18 19  1  0
 19 20  2  0
 20 21  1  0
 21 22  2  0
 22 23  1  0
 23 24  2  0
 24 25  1  0
 25 26  2  0
 20 27  1  0
 27 28  2  0
 11  6  1  0
 28 17  1  0
 26 21  1  0
  1 29  1  0
  1 30  1  0
  1 31  1  0
  2 32  1  0
  2 33  1  0
  7 34  1  0
  8 35  1  0
  9 36  1  0
 10 37  1  0
 12 38  1  0
 15 39  1  0
 15 40  1  0
 18 41  1  0
 19 42  1  0
 22 43  1  0
 23 44  1  0
 24 45  1  0
 26 46  1  0
M  END
$$$$
