
     RDKit          3D

 48 50  0  0  0  0  0  0  0  0999 V2000
   -0.3891   -0.4317    2.2702 C   0  0  0  0  0  0  0  0  0  0  0  0
   -0.0823   -0.0715    1.0157 C   0  0  0  0  0  0  0  0  0  0  0  0
    1.2844    0.1241    0.4765 C   0  0  0  0  0  0  0  0  0  0  0  0
    2.4339    0.0344    1.1689 C   0  0  0  0  0  0  0  0  0  0  0  0
    3.7198    0.2641    0.6037 C   0  0  0  0  0  0  0  0  0  0  0  0
    4.9342   -0.9545    0.7370 S   0  0  0  0  0  0  0  0  0  0  0  0
    6.0265    0.0325   -0.1101 C   0  0  0  0  0  0  0  0  0  0  0  0
    7.3098   -0.3458   -0.4094 N   0  0  0  0  0  0  0  0  0  0  0  0
    7.9214   -1.5369   -0.0981 C   0  0  0  0  0  0  0  0  0  0  0  0
    9.3424   -1.5931   -0.6028 C   0  0  0  0  0  0  0  0  0  0  0  0
    7.4350   -2.4953    0.4907 O   0  0  0  0  0  0  0  0  0  0  0  0
    5.5800    1.2107   -0.4678 N   0  0  0  0  0  0  0  0  0  0  0  0
    4.2798    1.3553   -0.0487 C   0  0  0  0  0  0  0  0  0  0  0  0
    3.6128    2.5065   -0.2591 O   0  0  0  0  0  0  0  0  0  0  0  0
    1.1459    0.4222   -0.9473 C   0  0  0  0  0  0  0  0  0  0  0  0
   -0.1723    0.4324   -1.2291 C   0  0  0  0  0  0  0  0  0  0  0  0
   -0.7530    0.7590   -2.5640 C   0  0  0  0  0  0  0  0  0  0  0  0
   -0.9370    0.1533   -0.0770 N   0  0  0  0  0  0  0  0  0  0  0  0
   -2.3526    0.1556   -0.0245 C   0  0  0  0  0  0  0  0  0  0  0  0
   -3.0399    1.0033    0.8537 C   0  0  0  0  0  0  0  0  0  0  0  0
   -4.4389    1.0100    0.9019 C   0  0  0  0  0  0  0  0  0  0  0  0
   -5.1865    0.1651    0.0739 C   0  0  0  0  0  0  0  0  0  0  0  0
   -6.5910    0.2320    0.1848 N   0  0  0  0  0  0  0  0  0  0  0  0
   -7.5267   -0.4958   -0.5268 C   0  0  0  0  0  0  0  0  0  0  0  0
   -8.9487   -0.1650   -0.1418 C   0  0  0  0  0  0  0  0  0  0  0  0
   -7.3033   -1.3324   -1.3953 O   0  0  0  0  0  0  0  0  0  0  0  0
   -4.5099   -0.6847   -0.7998 C   0  0  0  0  0  0  0  0  0  0  0  0
   -3.1092   -0.6873   -0.8475 C   0  0  0  0  0  0  0  0  0  0  0  0
   -1.4187   -0.5960    2.5685 H   0  0  0  0  0  0  0  0  0  0  0  0
    0.3598   -0.6024    3.0331 H   0  0  0  0  0  0  0  0  0  0  0  0
    2.4185   -0.2512    2.2168 H   0  0  0  0  0  0  0  0  0  0  0  0
    7.8174    0.3655   -0.9168 H   0  0  0  0  0  0  0  0  0  0  0  0
    9.8123   -0.6059   -0.5717 H   0  0  0  0  0  0  0  0  0  0  0  0
    9.3460   -1.9684   -1.6295 H   0  0  0  0  0  0  0  0  0  0  0  0
    9.9264   -2.2650    0.0332 H   0  0  0  0  0  0  0  0  0  0  0  0
    2.7264    2.4610    0.1352 H   0  0  0  0  0  0  0  0  0  0  0  0
    1.9463    0.6030   -1.6472 H   0  0  0  0  0  0  0  0  0  0  0  0
   -1.4995    1.5552   -2.4811 H   0  0  0  0  0  0  0  0  0  0  0  0
    0.0196    1.1089   -3.2576 H   0  0  0  0  0  0  0  0  0  0  0  0
   -1.2201   -0.1216   -3.0141 H   0  0  0  0  0  0  0  0  0  0  0  0
   -2.4834    1.6812    1.4963 H   0  0  0  0  0  0  0  0  0  0  0  0
   -4.9279    1.6894    1.5947 H   0  0  0  0  0  0  0  0  0  0  0  0
   -6.9450    0.8943    0.8626 H   0  0  0  0  0  0  0  0  0  0  0  0
   -9.0010    0.5464    0.6867 H   0  0  0  0  0  0  0  0  0  0  0  0
   -9.4566   -1.0843    0.1630 H   0  0  0  0  0  0  0  0  0  0  0  0
   -9.4587    0.2691   -1.0061 H   0  0  0  0  0  0  0  0  0  0  0  0
   -5.0374   -1.3671   -1.4587 H   0  0  0  0  0  0  0  0  0  0  0  0
   -2.6103   -1.3788   -1.5222 H   0  0  0  0  0  0  0  0  0  0  0  0
  1  2  2  0
  2  3  1  0
  3  4  2  3
  4  5  1  0
  5  6  1  0
  6  7  1  0
  7  8  1  0
  8  9  1  0
  9 10  1  0
  9 11  2  0
  7 12  2  0
 12 13  1  0
 13 14  1  0
  3 15  1  0
 15 16  2  0
 16 17  1  0
 16 18  1  0
 18 19  1  0
 19 20  2  0
 20 21  1  0
 21 22  2  0
 22 23  1  0
 23 24  1  0
 24 25  1  0
 24 26  2  0
 22 27  1  0
 27 28  2  0
 18  2  1  0
 28 19  1  0
 13  5  2  0
  1 29  1  0
  1 30  1  0
  4 31  1  0
  8 32  1  0
 10 33  1  0
 10 34  1  0
 10 35  1  0
 14 36  1  0
 15 37  1  0
 17 38  1  0
 17 39  1  0
 17 40  1  0
 20 41  1  0
 21 42  1  0
 23 43  1  0
 25 44  1  0
 25 45  1  0
 25 46  1  0
 27 47  1  0
 28 48  1  0
M  END
$$$$
