
     RDKit          3D

 52 55  0  0  0  0  0  0  0  0999 V2000
    7.8794   -1.6328    1.1315 C   0  0  0  0  0  0  0  0  0  0  0  0
    6.8849   -2.4939    0.5909 O   0  0  0  0  0  0  0  0  0  0  0  0
    5.6610   -1.9400    0.3388 C   0  0  0  0  0  0  0  0  0  0  0  0
    5.2975   -0.6128    0.5581 C   0  0  0  0  0  0  0  0  0  0  0  0
    4.0010   -0.1725    0.2542 C   0  0  0  0  0  0  0  0  0  0  0  0
    3.0547   -1.0534   -0.2696 C   0  0  0  0  0  0  0  0  0  0  0  0
    1.7382   -0.6872   -0.6030 N   0  0  0  0  0  0  0  0  0  0  0  0
    1.1101    0.5319   -0.3923 C   0  0  0  0  0  0  0  0  0  0  0  0
    1.5941    1.5142    0.1579 O   0  0  0  0  0  0  0  0  0  0  0  0
   -0.3222    0.5231   -0.9589 C   0  0  0  0  0  0  0  0  0  0  0  0
   -0.9398   -0.7497   -0.6441 O   0  0  0  0  0  0  0  0  0  0  0  0
   -1.6148   -0.7310    0.6240 C   0  0  0  0  0  0  0  0  0  0  0  0
   -2.1456   -2.0132    0.9165 O   0  0  0  0  0  0  0  0  0  0  0  0
   -3.5090   -1.9804    0.4850 C   0  0  0  0  0  0  0  0  0  0  0  0
   -3.6581   -2.8214   -0.7773 C   0  0  0  0  0  0  0  0  0  0  0  0
   -4.3820   -2.5216    1.6103 C   0  0  0  0  0  0  0  0  0  0  0  0
   -3.9150   -0.6392    0.1897 O   0  0  0  0  0  0  0  0  0  0  0  0
   -2.8254    0.1973    0.6049 C   0  0  0  0  0  0  0  0  0  0  0  0
   -2.6060    1.2987   -0.4133 C   0  0  0  0  0  0  0  0  0  0  0  0
   -3.2441    2.5485   -0.1403 O   0  0  0  0  0  0  0  0  0  0  0  0
   -2.4406    3.4957   -0.8839 C   0  0  0  0  0  0  0  0  0  0  0  0
   -3.1842    3.9150   -2.1458 C   0  0  0  0  0  0  0  0  0  0  0  0
   -2.1462    4.6933    0.0109 C   0  0  0  0  0  0  0  0  0  0  0  0
   -1.1965    2.8619   -1.2687 O   0  0  0  0  0  0  0  0  0  0  0  0
   -1.1537    1.6964   -0.4445 C   0  0  0  0  0  0  0  0  0  0  0  0
    3.4244   -2.3834   -0.4922 C   0  0  0  0  0  0  0  0  0  0  0  0
    4.7170   -2.8212   -0.1884 C   0  0  0  0  0  0  0  0  0  0  0  0
    8.1164   -0.8191    0.4381 H   0  0  0  0  0  0  0  0  0  0  0  0
    7.5763   -1.2445    2.1095 H   0  0  0  0  0  0  0  0  0  0  0  0
    8.7897   -2.2228    1.2755 H   0  0  0  0  0  0  0  0  0  0  0  0
    5.9946    0.1132    0.9633 H   0  0  0  0  0  0  0  0  0  0  0  0
    3.7676    0.8720    0.4359 H   0  0  0  0  0  0  0  0  0  0  0  0
    1.1372   -1.4219   -0.9686 H   0  0  0  0  0  0  0  0  0  0  0  0
   -0.2254    0.5756   -2.0500 H   0  0  0  0  0  0  0  0  0  0  0  0
   -0.8952   -0.4610    1.4049 H   0  0  0  0  0  0  0  0  0  0  0  0
   -4.6932   -2.8221   -1.1348 H   0  0  0  0  0  0  0  0  0  0  0  0
   -3.3340   -3.8535   -0.6084 H   0  0  0  0  0  0  0  0  0  0  0  0
   -3.0397   -2.4162   -1.5862 H   0  0  0  0  0  0  0  0  0  0  0  0
   -4.2665   -1.9092    2.5121 H   0  0  0  0  0  0  0  0  0  0  0  0
   -5.4425   -2.4991    1.3383 H   0  0  0  0  0  0  0  0  0  0  0  0
   -4.0996   -3.5455    1.8769 H   0  0  0  0  0  0  0  0  0  0  0  0
   -3.0687    0.5743    1.6041 H   0  0  0  0  0  0  0  0  0  0  0  0
   -2.9590    0.9787   -1.4045 H   0  0  0  0  0  0  0  0  0  0  0  0
   -3.3809    3.0471   -2.7853 H   0  0  0  0  0  0  0  0  0  0  0  0
   -2.5943    4.6231   -2.7372 H   0  0  0  0  0  0  0  0  0  0  0  0
   -4.1526    4.3653   -1.9046 H   0  0  0  0  0  0  0  0  0  0  0  0
   -3.0702    5.1869    0.3298 H   0  0  0  0  0  0  0  0  0  0  0  0
   -1.5055    5.4208   -0.4979 H   0  0  0  0  0  0  0  0  0  0  0  0
   -1.6199    4.3777    0.9188 H   0  0  0  0  0  0  0  0  0  0  0  0
   -0.8203    2.0168    0.5526 H   0  0  0  0  0  0  0  0  0  0  0  0
    2.7169   -3.1001   -0.9008 H   0  0  0  0  0  0  0  0  0  0  0  0
    4.9897   -3.8589   -0.3646 H   0  0  0  0  0  0  0  0  0  0  0  0
  1  2  1  0
  2  3  1  0
  3  4  2  0
  4  5  1  0
  5  6  2  0
  6  7  1  0
  7  8  1  0
  8  9  2  0
  8 10  1  0
 10 11  1  0
 11 12  1  0
 12 13  1  0
 13 14  1  0
 14 15  1  0
 14 16  1  0
 14 17  1  0
 17 18  1  0
 18 19  1  0
 19 20  1  0
 20 21  1  0
 21 22  1  0
 21 23  1  0
 21 24  1  0
 24 25  1  0
  6 26  1  0
 26 27  2  0
 27  3  1  0
 25 10  1  0
 18 12  1  0
 25 19  1  0
  1 28  1  0
  1 29  1  0
  1 30  1  0
  4 31  1  0
  5 32  1  0
  7 33  1  0
 10 34  1  0
 12 35  1  0
 15 36  1  0
 15 37  1  0
 15 38  1  0
 16 39  1  0
 16 40  1  0
 16 41  1  0
 18 42  1  0
 19 43  1  0
 22 44  1  0
 22 45  1  0
 22 46  1  0
 23 47  1  0
 23 48  1  0
 23 49  1  0
 25 50  1  0
 26 51  1  0
 27 52  1  0
M  END
$$$$
