
     RDKit          3D

 46 48  0  0  0  0  0  0  0  0999 V2000
   -4.0049    4.2536    0.1262 C   0  0  0  0  0  0  0  0  0  0  0  0
   -2.7876    3.8690   -0.6917 C   0  0  0  0  0  0  0  0  0  0  0  0
   -1.8302    3.2703    0.1860 O   0  0  0  0  0  0  0  0  0  0  0  0
   -0.6992    2.8735   -0.4258 C   0  0  0  0  0  0  0  0  0  0  0  0
   -0.4138    2.9398   -1.6081 O   0  0  0  0  0  0  0  0  0  0  0  0
    0.2212    2.2272    0.5698 C   0  0  0  0  0  0  0  0  0  0  0  0
    0.6544    2.8220    1.6404 N   0  0  0  0  0  0  0  0  0  0  0  0
    1.4466    1.9121    2.2936 N   0  0  0  0  0  0  0  0  0  0  0  0
    1.6362    0.6753    1.5241 C   0  0  0  0  0  0  0  0  0  0  0  0
    3.1120    0.5144    1.1449 C   0  0  0  0  0  0  0  0  0  0  0  0
    3.9714    1.3327    1.4742 O   0  0  0  0  0  0  0  0  0  0  0  0
    3.5259   -0.6851    0.3596 C   0  0  0  0  0  0  0  0  0  0  0  0
    4.6969   -0.6027   -0.4056 C   0  0  0  0  0  0  0  0  0  0  0  0
    5.1176   -1.6928   -1.1687 C   0  0  0  0  0  0  0  0  0  0  0  0
    4.3752   -2.8722   -1.1661 C   0  0  0  0  0  0  0  0  0  0  0  0
    3.2170   -2.9659   -0.3958 C   0  0  0  0  0  0  0  0  0  0  0  0
    2.7924   -1.8774    0.3707 C   0  0  0  0  0  0  0  0  0  0  0  0
    0.7221    0.8412    0.3035 C   0  0  0  0  0  0  0  0  0  0  0  0
   -0.3926   -0.1776    0.2080 C   0  0  0  0  0  0  0  0  0  0  0  0
   -1.2957   -0.3823    1.2599 C   0  0  0  0  0  0  0  0  0  0  0  0
   -2.3141   -1.3307    1.1431 C   0  0  0  0  0  0  0  0  0  0  0  0
   -2.4564   -2.0871   -0.0212 C   0  0  0  0  0  0  0  0  0  0  0  0
   -3.4930   -2.9780   -0.0016 O   0  0  0  0  0  0  0  0  0  0  0  0
   -3.7066   -3.7436   -1.1807 C   0  0  0  0  0  0  0  0  0  0  0  0
   -1.5666   -1.8849   -1.0747 C   0  0  0  0  0  0  0  0  0  0  0  0
   -0.5440   -0.9360   -0.9616 C   0  0  0  0  0  0  0  0  0  0  0  0
   -3.7295    4.9545    0.9211 H   0  0  0  0  0  0  0  0  0  0  0  0
   -4.4357    3.3727    0.6134 H   0  0  0  0  0  0  0  0  0  0  0  0
   -4.7683    4.7173   -0.5048 H   0  0  0  0  0  0  0  0  0  0  0  0
   -3.0764    3.1527   -1.4693 H   0  0  0  0  0  0  0  0  0  0  0  0
   -2.3557    4.7625   -1.1565 H   0  0  0  0  0  0  0  0  0  0  0  0
    2.2582    2.3222    2.7657 H   0  0  0  0  0  0  0  0  0  0  0  0
    1.3629   -0.1429    2.1983 H   0  0  0  0  0  0  0  0  0  0  0  0
    5.2865    0.3129   -0.4122 H   0  0  0  0  0  0  0  0  0  0  0  0
    6.0264   -1.6216   -1.7617 H   0  0  0  0  0  0  0  0  0  0  0  0
    4.7054   -3.7226   -1.7583 H   0  0  0  0  0  0  0  0  0  0  0  0
    2.6471   -3.8926   -0.3857 H   0  0  0  0  0  0  0  0  0  0  0  0
    1.8985   -1.9990    0.9757 H   0  0  0  0  0  0  0  0  0  0  0  0
    1.2957    0.8683   -0.6310 H   0  0  0  0  0  0  0  0  0  0  0  0
   -1.2240    0.1964    2.1808 H   0  0  0  0  0  0  0  0  0  0  0  0
   -3.0083   -1.4779    1.9676 H   0  0  0  0  0  0  0  0  0  0  0  0
   -2.8484   -4.3902   -1.3915 H   0  0  0  0  0  0  0  0  0  0  0  0
   -4.5742   -4.3878   -1.0083 H   0  0  0  0  0  0  0  0  0  0  0  0
   -3.9355   -3.0981   -2.0351 H   0  0  0  0  0  0  0  0  0  0  0  0
   -1.6407   -2.4455   -2.0008 H   0  0  0  0  0  0  0  0  0  0  0  0
    0.1316   -0.7958   -1.8045 H   0  0  0  0  0  0  0  0  0  0  0  0
  1  2  1  0
  2  3  1  0
  3  4  1  0
  4  5  2  0
  4  6  1  0
  6  7  2  0
  7  8  1  0
  8  9  1  0
  9 10  1  0
 10 11  2  0
 10 12  1  0
 12 13  2  0
 13 14  1  0
 14 15  2  0
 15 16  1  0
 16 17  2  0
  9 18  1  0
 18 19  1  0
 19 20  2  0
 20 21  1  0
 21 22  2  0
 22 23  1  0
 23 24  1  0
 22 25  1  0
 25 26  2  0
 18  6  1  0
 26 19  1  0
 17 12  1  0
  1 27  1  0
  1 28  1  0
  1 29  1  0
  2 30  1  0
  2 31  1  0
  8 32  1  0
  9 33  1  0
 13 34  1  0
 14 35  1  0
 15 36  1  0
 16 37  1  0
 17 38  1  0
 18 39  1  0
 20 40  1  0
 21 41  1  0
 24 42  1  0
 24 43  1  0
 24 44  1  0
 25 45  1  0
 26 46  1  0
M  END
$$$$
