
     RDKit          3D

 43 44  0  0  0  0  0  0  0  0999 V2000
    5.3032   -0.9388   -1.9322 C   0  0  0  0  0  0  0  0  0  0  0  0
    3.8488   -0.5762   -2.1633 C   0  0  0  0  0  0  0  0  0  0  0  0
    3.4137    0.3568   -1.1637 O   0  0  0  0  0  0  0  0  0  0  0  0
    3.5617    1.6781   -1.4694 C   0  0  0  0  0  0  0  0  0  0  0  0
    4.0517    2.1096   -2.5054 O   0  0  0  0  0  0  0  0  0  0  0  0
    3.0025    2.5671   -0.3630 C   0  0  0  0  0  0  0  0  0  0  0  0
    2.5704    1.8373    0.8201 N   0  0  0  0  0  0  0  0  0  0  0  0
    1.7960    2.4417    1.7825 C   0  0  0  0  0  0  0  0  0  0  0  0
    1.4848    3.6288    1.7348 O   0  0  0  0  0  0  0  0  0  0  0  0
    1.3518    1.5286    2.9107 C   0  0  0  0  0  0  0  0  0  0  0  0
   -0.3104    0.8745    2.5901 S   0  0  0  0  0  0  0  0  0  0  0  0
    0.0072   -0.3189    1.3726 C   0  0  0  0  0  0  0  0  0  0  0  0
    1.2133   -0.7231    1.0349 N   0  0  0  0  0  0  0  0  0  0  0  0
    1.0376   -1.7768    0.1890 N   0  0  0  0  0  0  0  0  0  0  0  0
   -0.2476   -2.0417    0.0206 N   0  0  0  0  0  0  0  0  0  0  0  0
   -0.9403   -1.1002    0.7170 N   0  0  0  0  0  0  0  0  0  0  0  0
   -2.3608   -1.0118    0.6268 C   0  0  0  0  0  0  0  0  0  0  0  0
   -2.9767    0.2508    0.7223 C   0  0  0  0  0  0  0  0  0  0  0  0
   -4.3650    0.3976    0.5906 C   0  0  0  0  0  0  0  0  0  0  0  0
   -4.9930    1.7549    0.7128 C   0  0  0  0  0  0  0  0  0  0  0  0
   -5.1486   -0.7328    0.3695 C   0  0  0  0  0  0  0  0  0  0  0  0
   -4.5532   -1.9888    0.2609 C   0  0  0  0  0  0  0  0  0  0  0  0
   -3.1617   -2.1545    0.3916 C   0  0  0  0  0  0  0  0  0  0  0  0
   -2.6282   -3.5608    0.2902 C   0  0  0  0  0  0  0  0  0  0  0  0
    5.4377   -1.3596   -0.9295 H   0  0  0  0  0  0  0  0  0  0  0  0
    5.9434   -0.0537   -1.9931 H   0  0  0  0  0  0  0  0  0  0  0  0
    5.6436   -1.6704   -2.6694 H   0  0  0  0  0  0  0  0  0  0  0  0
    3.6904   -0.1852   -3.1749 H   0  0  0  0  0  0  0  0  0  0  0  0
    3.2238   -1.4692   -2.0632 H   0  0  0  0  0  0  0  0  0  0  0  0
    3.7800    3.2685   -0.0472 H   0  0  0  0  0  0  0  0  0  0  0  0
    2.1456    3.1167   -0.7645 H   0  0  0  0  0  0  0  0  0  0  0  0
    2.5624    0.8184    0.7539 H   0  0  0  0  0  0  0  0  0  0  0  0
    1.3224    2.1247    3.8285 H   0  0  0  0  0  0  0  0  0  0  0  0
    2.0777    0.7260    3.0752 H   0  0  0  0  0  0  0  0  0  0  0  0
   -2.3951    1.1615    0.8411 H   0  0  0  0  0  0  0  0  0  0  0  0
   -6.0207    1.7548    0.3351 H   0  0  0  0  0  0  0  0  0  0  0  0
   -4.4314    2.4917    0.1288 H   0  0  0  0  0  0  0  0  0  0  0  0
   -5.0083    2.0655    1.7629 H   0  0  0  0  0  0  0  0  0  0  0  0
   -6.2285   -0.6468    0.2708 H   0  0  0  0  0  0  0  0  0  0  0  0
   -5.1937   -2.8517    0.0778 H   0  0  0  0  0  0  0  0  0  0  0  0
   -3.4306   -4.3008    0.3903 H   0  0  0  0  0  0  0  0  0  0  0  0
   -2.1546   -3.7212   -0.6836 H   0  0  0  0  0  0  0  0  0  0  0  0
   -1.9213   -3.7705    1.0986 H   0  0  0  0  0  0  0  0  0  0  0  0
  1  2  1  0
  2  3  1  0
  3  4  1  0
  4  5  2  0
  4  6  1  0
  6  7  1  0
  7  8  1  0
  8  9  2  0
  8 10  1  0
 10 11  1  0
 11 12  1  0
 12 13  2  0
 13 14  1  0
 14 15  2  0
 15 16  1  0
 16 17  1  0
 17 18  2  0
 18 19  1  0
 19 20  1  0
 19 21  2  0
 21 22  1  0
 22 23  2  0
 23 24  1  0
 16 12  1  0
 23 17  1  0
  1 25  1  0
  1 26  1  0
  1 27  1  0
  2 28  1  0
  2 29  1  0
  6 30  1  0
  6 31  1  0
  7 32  1  0
 10 33  1  0
 10 34  1  0
 18 35  1  0
 20 36  1  0
 20 37  1  0
 20 38  1  0
 21 39  1  0
 22 40  1  0
 24 41  1  0
 24 42  1  0
 24 43  1  0
M  END
$$$$
