
     RDKit          3D

 52 55  0  0  0  0  0  0  0  0999 V2000
   -4.5668   -2.3157    0.1100 C   0  0  0  0  0  0  0  0  0  0  0  0
   -4.1422   -0.9867   -0.4380 C   0  0  0  0  0  0  0  0  0  0  0  0
   -3.6925    0.0343    0.4094 C   0  0  0  0  0  0  0  0  0  0  0  0
   -3.2707    1.2543   -0.1350 C   0  0  0  0  0  0  0  0  0  0  0  0
   -2.6923    2.5550    0.9349 S   0  0  0  0  0  6  0  0  0  0  0  0
   -3.0076    2.1911    2.2985 O   0  0  0  0  0  0  0  0  0  0  0  0
   -3.1194    3.8069    0.3524 O   0  0  0  0  0  0  0  0  0  0  0  0
   -1.0283    2.4610    0.7407 N   0  0  0  0  0  0  0  0  0  0  0  0
   -0.3206    1.2786    1.2884 C   0  0  0  0  0  0  0  0  0  0  0  0
    1.1184    1.2261    0.6865 C   0  0  0  0  0  0  0  0  0  0  0  0
    1.9760    0.1060    1.2710 C   0  0  0  0  0  0  0  0  0  0  0  0
    3.3247    0.3767    1.6212 C   0  0  0  0  0  0  0  0  0  0  0  0
    4.1557   -0.6134    2.1575 C   0  0  0  0  0  0  0  0  0  0  0  0
    3.6205   -1.8677    2.3392 C   0  0  0  0  0  0  0  0  0  0  0  0
    2.3169   -2.1478    2.0126 C   0  0  0  0  0  0  0  0  0  0  0  0
    1.4741   -1.1918    1.4827 C   0  0  0  0  0  0  0  0  0  0  0  0
    1.9837   -3.4416    2.2676 O   0  0  0  0  0  0  0  0  0  0  0  0
    3.2281   -3.9410    2.8021 C   0  0  0  0  0  0  0  0  0  0  0  0
    4.2742   -2.9474    2.8431 O   0  0  0  0  0  0  0  0  0  0  0  0
    1.0694    1.2901   -0.7990 N   0  0  0  0  0  0  0  0  0  0  0  0
    2.3301    1.7202   -1.4355 C   0  0  0  0  0  0  0  0  0  0  0  0
    2.9825    0.6316   -2.3030 C   0  0  0  0  0  0  0  0  0  0  0  0
    2.1223    0.1658   -3.3512 O   0  0  0  0  0  0  0  0  0  0  0  0
    0.7327    0.1885   -2.9967 C   0  0  0  0  0  0  0  0  0  0  0  0
    0.4989    0.1127   -1.4786 C   0  0  0  0  0  0  0  0  0  0  0  0
   -3.3161    1.4804   -1.5157 C   0  0  0  0  0  0  0  0  0  0  0  0
   -3.7545    0.4613   -2.3595 C   0  0  0  0  0  0  0  0  0  0  0  0
   -4.1535   -0.7595   -1.8185 C   0  0  0  0  0  0  0  0  0  0  0  0
   -4.5561   -1.7311   -2.6495 F   0  0  0  0  0  0  0  0  0  0  0  0
   -4.7709   -2.2555    1.1848 H   0  0  0  0  0  0  0  0  0  0  0  0
   -5.4858   -2.6574   -0.3777 H   0  0  0  0  0  0  0  0  0  0  0  0
   -3.7777   -3.0569   -0.0516 H   0  0  0  0  0  0  0  0  0  0  0  0
   -3.6702   -0.1203    1.4872 H   0  0  0  0  0  0  0  0  0  0  0  0
   -0.7192    2.7103   -0.2039 H   0  0  0  0  0  0  0  0  0  0  0  0
   -0.2708    1.3665    2.3796 H   0  0  0  0  0  0  0  0  0  0  0  0
   -0.8699    0.3659    1.0436 H   0  0  0  0  0  0  0  0  0  0  0  0
    1.5702    2.1736    1.0180 H   0  0  0  0  0  0  0  0  0  0  0  0
    3.7360    1.3755    1.4813 H   0  0  0  0  0  0  0  0  0  0  0  0
    5.1846   -0.4010    2.4252 H   0  0  0  0  0  0  0  0  0  0  0  0
    0.4560   -1.4692    1.2315 H   0  0  0  0  0  0  0  0  0  0  0  0
    3.0507   -4.3063    3.8204 H   0  0  0  0  0  0  0  0  0  0  0  0
    3.5650   -4.7792    2.1807 H   0  0  0  0  0  0  0  0  0  0  0  0
    2.0752    2.5649   -2.0887 H   0  0  0  0  0  0  0  0  0  0  0  0
    3.0559    2.1075   -0.7133 H   0  0  0  0  0  0  0  0  0  0  0  0
    3.8893    1.0227   -2.7757 H   0  0  0  0  0  0  0  0  0  0  0  0
    3.2806   -0.2295   -1.6933 H   0  0  0  0  0  0  0  0  0  0  0  0
    0.2530   -0.6608   -3.4941 H   0  0  0  0  0  0  0  0  0  0  0  0
    0.2887    1.1008   -3.4130 H   0  0  0  0  0  0  0  0  0  0  0  0
    0.9582   -0.8151   -1.1229 H   0  0  0  0  0  0  0  0  0  0  0  0
   -0.5762    0.0536   -1.2875 H   0  0  0  0  0  0  0  0  0  0  0  0
   -3.0158    2.4391   -1.9338 H   0  0  0  0  0  0  0  0  0  0  0  0
   -3.7939    0.6084   -3.4348 H   0  0  0  0  0  0  0  0  0  0  0  0
  1  2  1  0
  2  3  2  0
  3  4  1  0
  4  5  1  0
  5  6  2  0
  5  7  2  0
  5  8  1  0
  8  9  1  0
  9 10  1  0
 10 11  1  0
 11 12  2  0
 12 13  1  0
 13 14  2  0
 14 15  1  0
 15 16  2  0
 15 17  1  0
 17 18  1  0
 18 19  1  0
 10 20  1  0
 20 21  1  0
 21 22  1  0
 22 23  1  0
 23 24  1  0
 24 25  1  0
  4 26  2  0
 26 27  1  0
 27 28  2  0
 28 29  1  0
 28  2  1  0
 16 11  1  0
 25 20  1  0
 19 14  1  0
  1 30  1  0
  1 31  1  0
  1 32  1  0
  3 33  1  0
  8 34  1  0
  9 35  1  0
  9 36  1  0
 10 37  1  0
 12 38  1  0
 13 39  1  0
 16 40  1  0
 18 41  1  0
 18 42  1  0
 21 43  1  0
 21 44  1  0
 22 45  1  0
 22 46  1  0
 24 47  1  0
 24 48  1  0
 25 49  1  0
 25 50  1  0
 26 51  1  0
 27 52  1  0
M  END
$$$$
