
     RDKit          3D

 42 43  0  0  0  0  0  0  0  0999 V2000
   -4.8575    1.1798   -2.5789 C   0  0  0  0  0  0  0  0  0  0  0  0
   -4.2211    1.5579   -1.2747 C   0  0  0  0  0  0  0  0  0  0  0  0
   -4.9939    2.0928   -0.2405 C   0  0  0  0  0  0  0  0  0  0  0  0
   -4.4053    2.4141    0.9851 C   0  0  0  0  0  0  0  0  0  0  0  0
   -3.0423    2.2003    1.2029 C   0  0  0  0  0  0  0  0  0  0  0  0
   -2.6066    2.5621    2.4476 O   0  0  0  0  0  0  0  0  0  0  0  0
   -1.2406    2.3556    2.7638 C   0  0  0  0  0  0  0  0  0  0  0  0
   -0.8614    0.9011    3.0524 C   0  0  0  0  0  0  0  0  0  0  0  0
   -1.6038    0.0827    3.5936 O   0  0  0  0  0  0  0  0  0  0  0  0
    0.4244    0.5675    2.6462 N   0  0  0  0  0  0  0  0  0  0  0  0
    0.6888   -0.8206    2.5483 N   0  0  0  0  0  0  0  0  0  0  0  0
    0.8684   -1.3087    1.2628 C   0  0  0  0  0  0  0  0  0  0  0  0
    1.0738   -0.5614    0.3048 O   0  0  0  0  0  0  0  0  0  0  0  0
    0.8091   -2.8199    1.1499 C   0  0  0  0  0  0  0  0  0  0  0  0
    2.4376   -3.5442    1.4817 S   0  0  0  0  0  0  0  0  0  0  0  0
    3.3078   -2.8476    0.1061 C   0  0  0  0  0  0  0  0  0  0  0  0
    2.8392   -3.1047   -1.1244 N   0  0  0  0  0  0  0  0  0  0  0  0
    3.5090   -2.5268   -2.1411 C   0  0  0  0  0  0  0  0  0  0  0  0
    4.6107   -1.7189   -1.9675 C   0  0  0  0  0  0  0  0  0  0  0  0
    5.2686   -1.1362   -3.0868 C   0  0  0  0  0  0  0  0  0  0  0  0
    5.7725   -0.6518   -4.0134 N   0  0  0  0  0  0  0  0  0  0  0  0
    5.0129   -1.5218   -0.6590 C   0  0  0  0  0  0  0  0  0  0  0  0
    6.1367   -0.7675   -0.3216 N   0  0  0  0  0  0  0  0  0  0  0  0
    4.3797   -2.0872    0.3819 N   0  0  0  0  0  0  0  0  0  0  0  0
   -2.2705    1.6558    0.1768 C   0  0  0  0  0  0  0  0  0  0  0  0
   -2.8590    1.3312   -1.0516 C   0  0  0  0  0  0  0  0  0  0  0  0
   -5.3195    0.1913   -2.4976 H   0  0  0  0  0  0  0  0  0  0  0  0
   -4.1180    1.1557   -3.3860 H   0  0  0  0  0  0  0  0  0  0  0  0
   -5.6233    1.9095   -2.8618 H   0  0  0  0  0  0  0  0  0  0  0  0
   -6.0593    2.2620   -0.3788 H   0  0  0  0  0  0  0  0  0  0  0  0
   -5.0187    2.8302    1.7812 H   0  0  0  0  0  0  0  0  0  0  0  0
   -0.5895    2.8042    2.0043 H   0  0  0  0  0  0  0  0  0  0  0  0
   -1.0439    2.9069    3.6912 H   0  0  0  0  0  0  0  0  0  0  0  0
    0.8694    1.1186    1.9115 H   0  0  0  0  0  0  0  0  0  0  0  0
    0.1832   -1.3890    3.2305 H   0  0  0  0  0  0  0  0  0  0  0  0
    0.4398   -3.0953    0.1570 H   0  0  0  0  0  0  0  0  0  0  0  0
    0.0931   -3.2145    1.8781 H   0  0  0  0  0  0  0  0  0  0  0  0
    3.1127   -2.7450   -3.1303 H   0  0  0  0  0  0  0  0  0  0  0  0
    6.2088   -0.7422    0.6941 H   0  0  0  0  0  0  0  0  0  0  0  0
    6.1385    0.1652   -0.7217 H   0  0  0  0  0  0  0  0  0  0  0  0
   -1.2099    1.4608    0.2835 H   0  0  0  0  0  0  0  0  0  0  0  0
   -2.2405    0.8977   -1.8350 H   0  0  0  0  0  0  0  0  0  0  0  0
  1  2  1  0
  2  3  2  0
  3  4  1  0
  4  5  2  0
  5  6  1  0
  6  7  1  0
  7  8  1  0
  8  9  2  0
  8 10  1  0
 10 11  1  0
 11 12  1  0
 12 13  2  0
 12 14  1  0
 14 15  1  0
 15 16  1  0
 16 17  2  0
 17 18  1  0
 18 19  2  0
 19 20  1  0
 20 21  3  0
 19 22  1  0
 22 23  1  0
 22 24  2  0
  5 25  1  0
 25 26  2  0
 26  2  1  0
 24 16  1  0
  1 27  1  0
  1 28  1  0
  1 29  1  0
  3 30  1  0
  4 31  1  0
  7 32  1  0
  7 33  1  0
 10 34  1  0
 11 35  1  0
 14 36  1  0
 14 37  1  0
 18 38  1  0
 23 39  1  0
 23 40  1  0
 25 41  1  0
 26 42  1  0
M  END
$$$$
