
     RDKit          3D

 57 59  0  0  0  0  0  0  0  0999 V2000
   -8.1296   -2.4648    1.6717 C   0  0  0  0  0  0  0  0  0  0  0  0
   -7.1177   -1.4234    1.2902 C   0  0  0  0  0  0  0  0  0  0  0  0
   -6.7885   -1.2140   -0.0564 C   0  0  0  0  0  0  0  0  0  0  0  0
   -5.8763   -0.2206   -0.4139 C   0  0  0  0  0  0  0  0  0  0  0  0
   -5.2963    0.5706    0.5807 C   0  0  0  0  0  0  0  0  0  0  0  0
   -4.1430    1.8335    0.1088 S   0  0  0  0  0  6  0  0  0  0  0  0
   -4.7623    2.6008   -0.9514 O   0  0  0  0  0  0  0  0  0  0  0  0
   -3.6431    2.4781    1.3056 O   0  0  0  0  0  0  0  0  0  0  0  0
   -2.8457    0.9355   -0.5698 N   0  0  0  0  0  0  0  0  0  0  0  0
   -2.1372    0.0436    0.3922 C   0  0  0  0  0  0  0  0  0  0  0  0
   -1.1962   -0.8811   -0.3810 C   0  0  0  0  0  0  0  0  0  0  0  0
   -0.2081   -0.1071   -1.2646 C   0  0  0  0  0  0  0  0  0  0  0  0
    0.8905    0.5553   -0.4331 C   0  0  0  0  0  0  0  0  0  0  0  0
    0.9302    0.5073    0.7925 O   0  0  0  0  0  0  0  0  0  0  0  0
    1.8452    1.2091   -1.1834 N   0  0  0  0  0  0  0  0  0  0  0  0
    3.0701    1.6827   -0.5457 C   0  0  0  0  0  0  0  0  0  0  0  0
    3.5569    2.9636   -1.2092 C   0  0  0  0  0  0  0  0  0  0  0  0
    4.1468    0.5844   -0.6878 C   0  0  0  0  0  0  0  0  0  0  0  0
    4.0945   -0.2281   -1.6105 O   0  0  0  0  0  0  0  0  0  0  0  0
    5.1454    0.6817    0.2683 N   0  0  0  0  0  0  0  0  0  0  0  0
    6.3062   -0.1104    0.3820 C   0  0  0  0  0  0  0  0  0  0  0  0
    7.1337    0.1259    1.4908 C   0  0  0  0  0  0  0  0  0  0  0  0
    8.3065   -0.6113    1.6740 C   0  0  0  0  0  0  0  0  0  0  0  0
    8.6539   -1.5840    0.7470 C   0  0  0  0  0  0  0  0  0  0  0  0
    9.7786   -2.2898    0.9193 F   0  0  0  0  0  0  0  0  0  0  0  0
    7.8502   -1.8313   -0.3570 C   0  0  0  0  0  0  0  0  0  0  0  0
    6.6754   -1.0940   -0.5403 C   0  0  0  0  0  0  0  0  0  0  0  0
   -0.9565    0.9084   -2.1366 C   0  0  0  0  0  0  0  0  0  0  0  0
   -1.8808    1.7962   -1.3065 C   0  0  0  0  0  0  0  0  0  0  0  0
   -5.6275    0.3872    1.9243 C   0  0  0  0  0  0  0  0  0  0  0  0
   -6.5400   -0.6092    2.2749 C   0  0  0  0  0  0  0  0  0  0  0  0
   -9.1207   -2.0090    1.7555 H   0  0  0  0  0  0  0  0  0  0  0  0
   -7.8676   -2.9275    2.6296 H   0  0  0  0  0  0  0  0  0  0  0  0
   -8.1717   -3.2651    0.9254 H   0  0  0  0  0  0  0  0  0  0  0  0
   -7.2448   -1.8225   -0.8345 H   0  0  0  0  0  0  0  0  0  0  0  0
   -5.6256   -0.0620   -1.4605 H   0  0  0  0  0  0  0  0  0  0  0  0
   -2.8554   -0.5827    0.9294 H   0  0  0  0  0  0  0  0  0  0  0  0
   -1.5929    0.6404    1.1310 H   0  0  0  0  0  0  0  0  0  0  0  0
   -1.7967   -1.5395   -1.0229 H   0  0  0  0  0  0  0  0  0  0  0  0
   -0.6615   -1.5297    0.3231 H   0  0  0  0  0  0  0  0  0  0  0  0
    0.2995   -0.8299   -1.9173 H   0  0  0  0  0  0  0  0  0  0  0  0
    1.9750    0.8580   -2.1271 H   0  0  0  0  0  0  0  0  0  0  0  0
    2.8821    1.8689    0.5174 H   0  0  0  0  0  0  0  0  0  0  0  0
    3.7801    2.8017   -2.2701 H   0  0  0  0  0  0  0  0  0  0  0  0
    2.7951    3.7478   -1.1455 H   0  0  0  0  0  0  0  0  0  0  0  0
    4.4699    3.3335   -0.7311 H   0  0  0  0  0  0  0  0  0  0  0  0
    4.9990    1.3567    1.0096 H   0  0  0  0  0  0  0  0  0  0  0  0
    6.8778    0.8822    2.2284 H   0  0  0  0  0  0  0  0  0  0  0  0
    8.9474   -0.4338    2.5312 H   0  0  0  0  0  0  0  0  0  0  0  0
    8.1379   -2.5954   -1.0722 H   0  0  0  0  0  0  0  0  0  0  0  0
    6.0751   -1.3117   -1.4171 H   0  0  0  0  0  0  0  0  0  0  0  0
   -0.2632    1.5391   -2.7037 H   0  0  0  0  0  0  0  0  0  0  0  0
   -1.5571    0.3606   -2.8745 H   0  0  0  0  0  0  0  0  0  0  0  0
   -1.3086    2.4155   -0.6065 H   0  0  0  0  0  0  0  0  0  0  0  0
   -2.4157    2.4612   -1.9925 H   0  0  0  0  0  0  0  0  0  0  0  0
   -5.1890    1.0134    2.6977 H   0  0  0  0  0  0  0  0  0  0  0  0
   -6.8036   -0.7449    3.3219 H   0  0  0  0  0  0  0  0  0  0  0  0
  1  2  1  0
  2  3  2  0
  3  4  1  0
  4  5  2  0
  5  6  1  0
  6  7  2  0
  6  8  2  0
  6  9  1  0
  9 10  1  0
 10 11  1  0
 11 12  1  0
 12 13  1  0
 13 14  2  0
 13 15  1  0
 15 16  1  0
 16 17  1  0
 16 18  1  0
 18 19  2  0
 18 20  1  0
 20 21  1  0
 21 22  2  0
 22 23  1  0
 23 24  2  0
 24 25  1  0
 24 26  1  0
 26 27  2  0
 12 28  1  0
 28 29  1  0
  5 30  1  0
 30 31  2  0
 31  2  1  0
 29  9  1  0
 27 21  1  0
  1 32  1  0
  1 33  1  0
  1 34  1  0
  3 35  1  0
  4 36  1  0
 10 37  1  0
 10 38  1  0
 11 39  1  0
 11 40  1  0
 12 41  1  0
 15 42  1  0
 16 43  1  0
 17 44  1  0
 17 45  1  0
 17 46  1  0
 20 47  1  0
 22 48  1  0
 23 49  1  0
 26 50  1  0
 27 51  1  0
 28 52  1  0
 28 53  1  0
 29 54  1  0
 29 55  1  0
 30 56  1  0
 31 57  1  0
M  END
$$$$
