
     RDKit          3D

 69 73  0  0  0  0  0  0  0  0999 V2000
   -4.3226   -5.4227   -2.0127 C   0  0  0  0  0  0  0  0  0  0  0  0
   -3.0444   -5.9022   -1.6142 O   0  0  0  0  0  0  0  0  0  0  0  0
   -2.4061   -5.2110   -0.6208 C   0  0  0  0  0  0  0  0  0  0  0  0
   -1.1823   -5.7561   -0.2261 C   0  0  0  0  0  0  0  0  0  0  0  0
   -0.4243   -5.1508    0.7756 C   0  0  0  0  0  0  0  0  0  0  0  0
   -0.8889   -3.9896    1.3910 C   0  0  0  0  0  0  0  0  0  0  0  0
   -2.1132   -3.4268    1.0080 C   0  0  0  0  0  0  0  0  0  0  0  0
   -2.5889   -2.1906    1.6444 C   0  0  0  0  0  0  0  0  0  0  0  0
   -4.0414   -2.2475    2.5473 S   0  0  0  0  0  0  0  0  0  0  0  0
   -3.9534   -0.5852    2.9710 C   0  0  0  0  0  0  0  0  0  0  0  0
   -4.8783    0.1309    3.7590 C   0  0  0  0  0  0  0  0  0  0  0  0
   -4.6598    1.4919    4.0051 C   0  0  0  0  0  0  0  0  0  0  0  0
   -5.4973    2.2811    4.7575 O   0  0  0  0  0  0  0  0  0  0  0  0
   -6.6375    1.6674    5.3411 C   0  0  0  0  0  0  0  0  0  0  0  0
   -3.5332    2.1319    3.4681 C   0  0  0  0  0  0  0  0  0  0  0  0
   -3.4027    3.4688    3.7570 O   0  0  0  0  0  0  0  0  0  0  0  0
   -2.2715    4.1508    3.2344 C   0  0  0  0  0  0  0  0  0  0  0  0
   -2.6245    1.4034    2.6883 C   0  0  0  0  0  0  0  0  0  0  0  0
   -2.8211    0.0199    2.4310 C   0  0  0  0  0  0  0  0  0  0  0  0
   -2.0284   -0.9222    1.6681 C   0  0  0  0  0  0  0  0  0  0  0  0
   -0.7771   -0.6182    0.9795 C   0  0  0  0  0  0  0  0  0  0  0  0
   -0.7062   -0.6495   -0.4174 C   0  0  0  0  0  0  0  0  0  0  0  0
    0.4955   -0.3559   -1.0725 C   0  0  0  0  0  0  0  0  0  0  0  0
    1.6325   -0.0231   -0.3359 C   0  0  0  0  0  0  0  0  0  0  0  0
    2.8631    0.2815   -0.8460 O   0  0  0  0  0  0  0  0  0  0  0  0
    3.0022    0.2792   -2.2679 C   0  0  0  0  0  0  0  0  0  0  0  0
    4.4544    0.6350   -2.6464 C   0  0  0  0  0  0  0  0  0  0  0  0
    4.9044    1.9828   -2.2426 N   0  0  0  0  0  0  0  0  0  0  0  0
    4.1927    3.0841   -2.9040 C   0  0  0  0  0  0  0  0  0  0  0  0
    4.5563    3.2580   -4.3806 C   0  0  0  0  0  0  0  0  0  0  0  0
    6.0636    3.4041   -4.5642 C   0  0  0  0  0  0  0  0  0  0  0  0
    6.8138    2.2820   -3.8538 C   0  0  0  0  0  0  0  0  0  0  0  0
    6.3587    2.1424   -2.3985 C   0  0  0  0  0  0  0  0  0  0  0  0
    1.5576    0.0130    1.0589 C   0  0  0  0  0  0  0  0  0  0  0  0
    0.3616   -0.2817    1.7172 C   0  0  0  0  0  0  0  0  0  0  0  0
   -2.8671   -4.0458   -0.0042 C   0  0  0  0  0  0  0  0  0  0  0  0
   -4.7065   -6.0966   -2.7847 H   0  0  0  0  0  0  0  0  0  0  0  0
   -4.2484   -4.4222   -2.4514 H   0  0  0  0  0  0  0  0  0  0  0  0
   -5.0295   -5.4375   -1.1764 H   0  0  0  0  0  0  0  0  0  0  0  0
   -0.8173   -6.6619   -0.7044 H   0  0  0  0  0  0  0  0  0  0  0  0
    0.5269   -5.5827    1.0746 H   0  0  0  0  0  0  0  0  0  0  0  0
   -0.2892   -3.5257    2.1709 H   0  0  0  0  0  0  0  0  0  0  0  0
   -5.7404   -0.3932    4.1545 H   0  0  0  0  0  0  0  0  0  0  0  0
   -7.3175    1.2861    4.5723 H   0  0  0  0  0  0  0  0  0  0  0  0
   -7.1751    2.4328    5.9091 H   0  0  0  0  0  0  0  0  0  0  0  0
   -6.3468    0.8775    6.0415 H   0  0  0  0  0  0  0  0  0  0  0  0
   -1.3399    3.7294    3.6260 H   0  0  0  0  0  0  0  0  0  0  0  0
   -2.2795    4.1480    2.1395 H   0  0  0  0  0  0  0  0  0  0  0  0
   -2.3281    5.1929    3.5636 H   0  0  0  0  0  0  0  0  0  0  0  0
   -1.7489    1.8757    2.2570 H   0  0  0  0  0  0  0  0  0  0  0  0
   -1.5835   -0.9052   -1.0072 H   0  0  0  0  0  0  0  0  0  0  0  0
    0.5067   -0.3989   -2.1560 H   0  0  0  0  0  0  0  0  0  0  0  0
    2.7960   -0.7292   -2.6483 H   0  0  0  0  0  0  0  0  0  0  0  0
    2.2987    0.9805   -2.7290 H   0  0  0  0  0  0  0  0  0  0  0  0
    4.5798    0.4826   -3.7242 H   0  0  0  0  0  0  0  0  0  0  0  0
    5.0954   -0.0997   -2.1417 H   0  0  0  0  0  0  0  0  0  0  0  0
    4.4351    4.0140   -2.3719 H   0  0  0  0  0  0  0  0  0  0  0  0
    3.1084    2.9785   -2.7982 H   0  0  0  0  0  0  0  0  0  0  0  0
    4.1936    2.4031   -4.9632 H   0  0  0  0  0  0  0  0  0  0  0  0
    4.0529    4.1461   -4.7800 H   0  0  0  0  0  0  0  0  0  0  0  0
    6.3142    3.4082   -5.6307 H   0  0  0  0  0  0  0  0  0  0  0  0
    6.3860    4.3700   -4.1559 H   0  0  0  0  0  0  0  0  0  0  0  0
    6.6585    1.3384   -4.3901 H   0  0  0  0  0  0  0  0  0  0  0  0
    7.8903    2.4862   -3.8834 H   0  0  0  0  0  0  0  0  0  0  0  0
    6.6689    3.0369   -1.8423 H   0  0  0  0  0  0  0  0  0  0  0  0
    6.8887    1.3083   -1.9225 H   0  0  0  0  0  0  0  0  0  0  0  0
    2.4419    0.2723    1.6364 H   0  0  0  0  0  0  0  0  0  0  0  0
    0.3302   -0.2520    2.8037 H   0  0  0  0  0  0  0  0  0  0  0  0
   -3.8079   -3.5923   -0.2989 H   0  0  0  0  0  0  0  0  0  0  0  0
  1  2  1  0
  2  3  1  0
  3  4  2  0
  4  5  1  0
  5  6  2  0
  6  7  1  0
  7  8  1  0
  8  9  1  0
  9 10  1  0
 10 11  2  0
 11 12  1  0
 12 13  1  0
 13 14  1  0
 12 15  2  0
 15 16  1  0
 16 17  1  0
 15 18  1  0
 18 19  2  0
 19 20  1  0
 20 21  1  0
 21 22  2  0
 22 23  1  0
 23 24  2  0
 24 25  1  0
 25 26  1  0
 26 27  1  0
 27 28  1  0
 28 29  1  0
 29 30  1  0
 30 31  1  0
 31 32  1  0
 32 33  1  0
 24 34  1  0
 34 35  2  0
  7 36  2  0
 36  3  1  0
 20  8  2  0
 35 21  1  0
 19 10  1  0
 33 28  1  0
  1 37  1  0
  1 38  1  0
  1 39  1  0
  4 40  1  0
  5 41  1  0
  6 42  1  0
 11 43  1  0
 14 44  1  0
 14 45  1  0
 14 46  1  0
 17 47  1  0
 17 48  1  0
 17 49  1  0
 18 50  1  0
 22 51  1  0
 23 52  1  0
 26 53  1  0
 26 54  1  0
 27 55  1  0
 27 56  1  0
 29 57  1  0
 29 58  1  0
 30 59  1  0
 30 60  1  0
 31 61  1  0
 31 62  1  0
 32 63  1  0
 32 64  1  0
 33 65  1  0
 33 66  1  0
 34 67  1  0
 35 68  1  0
 36 69  1  0
M  END
$$$$
