
     RDKit          3D

 60 61  0  0  0  0  0  0  0  0999 V2000
   -0.1264   -4.0400   -2.0128 C   0  0  0  0  0  0  0  0  0  0  0  0
    0.3161   -3.6805   -0.7035 O   0  0  0  0  0  0  0  0  0  0  0  0
    0.9441   -2.4597   -0.7029 C   0  0  0  0  0  0  0  0  0  0  0  0
    2.1642   -2.3162   -1.3729 C   0  0  0  0  0  0  0  0  0  0  0  0
    2.8439   -1.0986   -1.3440 C   0  0  0  0  0  0  0  0  0  0  0  0
    2.3156   -0.0179   -0.6264 C   0  0  0  0  0  0  0  0  0  0  0  0
    3.0235    1.2917   -0.5795 C   0  0  0  0  0  0  0  0  0  0  0  0
    2.7822    2.0683    0.3414 O   0  0  0  0  0  0  0  0  0  0  0  0
    3.9284    1.6430   -1.7075 C   0  0  0  0  0  0  0  0  0  0  0  0
    5.0220    2.4143   -1.6095 C   0  0  0  0  0  0  0  0  0  0  0  0
    5.5662    3.0048   -0.3856 C   0  0  0  0  0  0  0  0  0  0  0  0
    5.0601    4.2103    0.1151 C   0  0  0  0  0  0  0  0  0  0  0  0
    5.5974    4.7679    1.2777 C   0  0  0  0  0  0  0  0  0  0  0  0
    6.6418    4.1248    1.9300 C   0  0  0  0  0  0  0  0  0  0  0  0
    7.1380    4.7081    3.0578 O   0  0  0  0  0  0  0  0  0  0  0  0
    7.1598    2.9265    1.4440 C   0  0  0  0  0  0  0  0  0  0  0  0
    6.6190    2.3655    0.2850 C   0  0  0  0  0  0  0  0  0  0  0  0
    1.1134   -0.1884    0.0906 C   0  0  0  0  0  0  0  0  0  0  0  0
    0.6041    0.8239    0.8701 O   0  0  0  0  0  0  0  0  0  0  0  0
    0.3978   -1.4027    0.0484 C   0  0  0  0  0  0  0  0  0  0  0  0
   -0.8982   -1.5687    0.8188 C   0  0  0  0  0  0  0  0  0  0  0  0
   -2.0947   -1.9231   -0.0308 C   0  0  0  0  0  0  0  0  0  0  0  0
   -2.9242   -1.0903   -0.6930 C   0  0  0  0  0  0  0  0  0  0  0  0
   -2.7441    0.4035   -0.7544 C   0  0  0  0  0  0  0  0  0  0  0  0
   -4.1048   -1.6411   -1.4731 C   0  0  0  0  0  0  0  0  0  0  0  0
   -5.4848   -1.2029   -0.9526 C   0  0  0  0  0  0  0  0  0  0  0  0
   -5.7783   -1.7229    0.4325 C   0  0  0  0  0  0  0  0  0  0  0  0
   -6.0239   -1.0170    1.5556 C   0  0  0  0  0  0  0  0  0  0  0  0
   -6.0639    0.4853    1.6527 C   0  0  0  0  0  0  0  0  0  0  0  0
   -6.2675   -1.7238    2.8661 C   0  0  0  0  0  0  0  0  0  0  0  0
   -0.8057   -4.8901   -1.9148 H   0  0  0  0  0  0  0  0  0  0  0  0
   -0.6817   -3.2194   -2.4887 H   0  0  0  0  0  0  0  0  0  0  0  0
    0.7128   -4.3491   -2.6430 H   0  0  0  0  0  0  0  0  0  0  0  0
    2.6003   -3.1580   -1.9019 H   0  0  0  0  0  0  0  0  0  0  0  0
    3.7984   -1.0283   -1.8573 H   0  0  0  0  0  0  0  0  0  0  0  0
    3.6616    1.2343   -2.6781 H   0  0  0  0  0  0  0  0  0  0  0  0
    5.6168    2.6083   -2.5010 H   0  0  0  0  0  0  0  0  0  0  0  0
    4.2326    4.7127   -0.3837 H   0  0  0  0  0  0  0  0  0  0  0  0
    5.1933    5.6947    1.6759 H   0  0  0  0  0  0  0  0  0  0  0  0
    7.8734    4.1656    3.3881 H   0  0  0  0  0  0  0  0  0  0  0  0
    7.9731    2.4176    1.9511 H   0  0  0  0  0  0  0  0  0  0  0  0
    7.0223    1.4261   -0.0886 H   0  0  0  0  0  0  0  0  0  0  0  0
    1.2807    1.5348    0.9426 H   0  0  0  0  0  0  0  0  0  0  0  0
   -1.1367   -0.6782    1.4118 H   0  0  0  0  0  0  0  0  0  0  0  0
   -0.7520   -2.3595    1.5666 H   0  0  0  0  0  0  0  0  0  0  0  0
   -2.3084   -2.9908   -0.0493 H   0  0  0  0  0  0  0  0  0  0  0  0
   -3.5665    0.9126   -0.2440 H   0  0  0  0  0  0  0  0  0  0  0  0
   -2.7242    0.7359   -1.7994 H   0  0  0  0  0  0  0  0  0  0  0  0
   -1.8148    0.7470   -0.2937 H   0  0  0  0  0  0  0  0  0  0  0  0
   -4.0699   -2.7383   -1.4978 H   0  0  0  0  0  0  0  0  0  0  0  0
   -4.0039   -1.3222   -2.5165 H   0  0  0  0  0  0  0  0  0  0  0  0
   -6.2518   -1.6094   -1.6262 H   0  0  0  0  0  0  0  0  0  0  0  0
   -5.5778   -0.1154   -1.0237 H   0  0  0  0  0  0  0  0  0  0  0  0
   -5.7706   -2.8115    0.5042 H   0  0  0  0  0  0  0  0  0  0  0  0
   -5.2158    0.8458    2.2504 H   0  0  0  0  0  0  0  0  0  0  0  0
   -6.9897    0.8075    2.1415 H   0  0  0  0  0  0  0  0  0  0  0  0
   -6.0274    0.9868    0.6814 H   0  0  0  0  0  0  0  0  0  0  0  0
   -5.5345   -1.3982    3.6125 H   0  0  0  0  0  0  0  0  0  0  0  0
   -7.2714   -1.4923    3.2398 H   0  0  0  0  0  0  0  0  0  0  0  0
   -6.1891   -2.8133    2.7759 H   0  0  0  0  0  0  0  0  0  0  0  0
  1  2  1  0
  2  3  1  0
  3  4  2  0
  4  5  1  0
  5  6  2  0
  6  7  1  0
  7  8  2  0
  7  9  1  0
  9 10  2  3
 10 11  1  0
 11 12  2  0
 12 13  1  0
 13 14  2  0
 14 15  1  0
 14 16  1  0
 16 17  2  0
  6 18  1  0
 18 19  1  0
 18 20  2  0
 20 21  1  0
 21 22  1  0
 22 23  2  3
 23 24  1  0
 23 25  1  0
 25 26  1  0
 26 27  1  0
 27 28  2  3
 28 29  1  0
 28 30  1  0
 20  3  1  0
 17 11  1  0
  1 31  1  0
  1 32  1  0
  1 33  1  0
  4 34  1  0
  5 35  1  0
  9 36  1  0
 10 37  1  0
 12 38  1  0
 13 39  1  0
 15 40  1  0
 16 41  1  0
 17 42  1  0
 19 43  1  0
 21 44  1  0
 21 45  1  0
 22 46  1  0
 24 47  1  0
 24 48  1  0
 24 49  1  0
 25 50  1  0
 25 51  1  0
 26 52  1  0
 26 53  1  0
 27 54  1  0
 29 55  1  0
 29 56  1  0
 29 57  1  0
 30 58  1  0
 30 59  1  0
 30 60  1  0
M  END
$$$$
