
     RDKit          3D

 40 42  0  0  0  0  0  0  0  0999 V2000
    0.7393   -4.3361    0.0837 C   0  0  0  0  0  0  0  0  0  0  0  0
    0.0859   -3.0664    0.0903 O   0  0  0  0  0  0  0  0  0  0  0  0
    0.9299   -1.9992    0.1547 C   0  0  0  0  0  0  0  0  0  0  0  0
    2.1542   -2.0958    0.2026 O   0  0  0  0  0  0  0  0  0  0  0  0
    0.2405   -0.7035    0.1436 C   0  0  0  0  0  0  0  0  0  0  0  0
    0.9488    0.4953    0.1028 C   0  0  0  0  0  0  0  0  0  0  0  0
    2.3324    0.6194    0.0946 N   0  0  0  0  0  0  0  0  0  0  0  0
    3.0917    1.7803    0.0544 C   0  0  0  0  0  0  0  0  0  0  0  0
    2.6363    2.9190    0.0170 O   0  0  0  0  0  0  0  0  0  0  0  0
    4.5309    1.5295    0.0606 C   0  0  0  0  0  0  0  0  0  0  0  0
    5.3059    0.3793    0.0957 C   0  0  0  0  0  0  0  0  0  0  0  0
    6.6624    0.7910    0.0810 C   0  0  0  0  0  0  0  0  0  0  0  0
    6.6433    2.1626    0.0379 C   0  0  0  0  0  0  0  0  0  0  0  0
    5.3672    2.6180    0.0256 O   0  0  0  0  0  0  0  0  0  0  0  0
   -0.0646    1.8534    0.0506 S   0  0  0  0  0  0  0  0  0  0  0  0
   -1.4673    0.9031    0.0859 C   0  0  0  0  0  0  0  0  0  0  0  0
   -1.1851   -0.4479    0.1669 C   0  0  0  0  0  0  0  0  0  0  0  0
   -2.3121   -1.4388    0.2297 C   0  0  0  0  0  0  0  0  0  0  0  0
   -3.6222   -0.7619    0.6629 C   0  0  0  0  0  0  0  0  0  0  0  0
   -3.8672    0.4978   -0.0532 N   0  0  0  0  0  0  0  0  0  0  0  0
   -5.1742    0.7930   -0.4220 C   0  0  0  0  0  0  0  0  0  0  0  0
   -5.4321    2.1547   -1.0180 C   0  0  0  0  0  0  0  0  0  0  0  0
   -6.1001   -0.0083   -0.2936 O   0  0  0  0  0  0  0  0  0  0  0  0
   -2.8265    1.5314    0.0482 C   0  0  0  0  0  0  0  0  0  0  0  0
   -0.0295   -5.1119    0.0304 H   0  0  0  0  0  0  0  0  0  0  0  0
    1.3109   -4.4778    1.0062 H   0  0  0  0  0  0  0  0  0  0  0  0
    1.3869   -4.4294   -0.7936 H   0  0  0  0  0  0  0  0  0  0  0  0
    2.8279   -0.2667    0.1290 H   0  0  0  0  0  0  0  0  0  0  0  0
    4.9519   -0.6418    0.1282 H   0  0  0  0  0  0  0  0  0  0  0  0
    7.5438    0.1653    0.0994 H   0  0  0  0  0  0  0  0  0  0  0  0
    7.4103    2.9244    0.0129 H   0  0  0  0  0  0  0  0  0  0  0  0
   -2.4405   -1.8817   -0.7655 H   0  0  0  0  0  0  0  0  0  0  0  0
   -2.0905   -2.2438    0.9373 H   0  0  0  0  0  0  0  0  0  0  0  0
   -4.4495   -1.4651    0.5205 H   0  0  0  0  0  0  0  0  0  0  0  0
   -3.5898   -0.5162    1.7323 H   0  0  0  0  0  0  0  0  0  0  0  0
   -4.8730    2.2693   -1.9502 H   0  0  0  0  0  0  0  0  0  0  0  0
   -6.4981    2.2534   -1.2456 H   0  0  0  0  0  0  0  0  0  0  0  0
   -5.1640    2.9404   -0.3071 H   0  0  0  0  0  0  0  0  0  0  0  0
   -3.0137    2.0948    0.9698 H   0  0  0  0  0  0  0  0  0  0  0  0
   -2.9004    2.2170   -0.8011 H   0  0  0  0  0  0  0  0  0  0  0  0
  1  2  1  0
  2  3  1  0
  3  4  2  0
  3  5  1  0
  5  6  2  0
  6  7  1  0
  7  8  1  0
  8  9  2  0
  8 10  1  0
 10 11  2  0
 11 12  1  0
 12 13  2  0
 13 14  1  0
  6 15  1  0
 15 16  1  0
 16 17  2  0
 17 18  1  0
 18 19  1  0
 19 20  1  0
 20 21  1  0
 21 22  1  0
 21 23  2  0
 20 24  1  0
 17  5  1  0
 14 10  1  0
 24 16  1  0
  1 25  1  0
  1 26  1  0
  1 27  1  0
  7 28  1  0
 11 29  1  0
 12 30  1  0
 13 31  1  0
 18 32  1  0
 18 33  1  0
 19 34  1  0
 19 35  1  0
 22 36  1  0
 22 37  1  0
 22 38  1  0
 24 39  1  0
 24 40  1  0
M  END
$$$$
