
     RDKit          3D

 43 46  0  0  0  0  0  0  0  0999 V2000
    5.3832    1.2834    0.9033 C   0  0  0  0  0  0  0  0  0  0  0  0
    3.9689    1.3011    1.0994 O   0  0  0  0  0  0  0  0  0  0  0  0
    3.3787    0.0902    0.9554 C   0  0  0  0  0  0  0  0  0  0  0  0
    3.9374   -0.9603    0.6804 O   0  0  0  0  0  0  0  0  0  0  0  0
    1.9146    0.2082    1.0894 C   0  0  0  0  0  0  0  0  0  0  0  0
    1.2946    0.8388    2.1076 C   0  0  0  0  0  0  0  0  0  0  0  0
    2.0044    1.4750    3.2753 C   0  0  0  0  0  0  0  0  0  0  0  0
   -0.0819    0.9047    2.1952 N   0  0  0  0  0  0  0  0  0  0  0  0
   -0.7636    0.2016    1.3574 C   0  0  0  0  0  0  0  0  0  0  0  0
   -2.4951    0.0709    1.4294 S   0  0  0  0  0  0  0  0  0  0  0  0
   -2.5337   -1.0922    0.1608 C   0  0  0  0  0  0  0  0  0  0  0  0
   -3.5751   -1.7551   -0.3637 C   0  0  0  0  0  0  0  0  0  0  0  0
   -4.9683   -1.6985   -0.0518 C   0  0  0  0  0  0  0  0  0  0  0  0
   -5.9426   -2.6411   -0.4831 C   0  0  0  0  0  0  0  0  0  0  0  0
   -7.1489   -2.2130    0.0189 C   0  0  0  0  0  0  0  0  0  0  0  0
   -6.9859   -1.0651    0.7223 O   0  0  0  0  0  0  0  0  0  0  0  0
   -5.6622   -0.7547    0.6729 C   0  0  0  0  0  0  0  0  0  0  0  0
   -1.1469   -1.3351   -0.3429 C   0  0  0  0  0  0  0  0  0  0  0  0
   -0.8710   -2.1371   -1.2239 O   0  0  0  0  0  0  0  0  0  0  0  0
   -0.2574   -0.5453    0.3417 N   0  0  0  0  0  0  0  0  0  0  0  0
    1.1474   -0.4636   -0.0147 C   0  0  0  0  0  0  0  0  0  0  0  0
    1.3249    0.2692   -1.3457 C   0  0  0  0  0  0  0  0  0  0  0  0
    0.9308    1.6098   -1.5076 C   0  0  0  0  0  0  0  0  0  0  0  0
    1.1063    2.2591   -2.7306 C   0  0  0  0  0  0  0  0  0  0  0  0
    1.6748    1.5807   -3.8061 C   0  0  0  0  0  0  0  0  0  0  0  0
    2.0688    0.2525   -3.6614 C   0  0  0  0  0  0  0  0  0  0  0  0
    1.8958   -0.4003   -2.4399 C   0  0  0  0  0  0  0  0  0  0  0  0
    5.6246    0.9622   -0.1148 H   0  0  0  0  0  0  0  0  0  0  0  0
    5.8642    0.6327    1.6403 H   0  0  0  0  0  0  0  0  0  0  0  0
    5.7573    2.3012    1.0434 H   0  0  0  0  0  0  0  0  0  0  0  0
    3.0042    1.0637    3.4410 H   0  0  0  0  0  0  0  0  0  0  0  0
    2.0860    2.5558    3.1231 H   0  0  0  0  0  0  0  0  0  0  0  0
    1.4436    1.3030    4.2012 H   0  0  0  0  0  0  0  0  0  0  0  0
   -3.3322   -2.4697   -1.1531 H   0  0  0  0  0  0  0  0  0  0  0  0
   -5.7894   -3.5272   -1.0835 H   0  0  0  0  0  0  0  0  0  0  0  0
   -8.1608   -2.5898   -0.0345 H   0  0  0  0  0  0  0  0  0  0  0  0
   -5.3985    0.1569    1.1898 H   0  0  0  0  0  0  0  0  0  0  0  0
    1.4930   -1.5004   -0.1241 H   0  0  0  0  0  0  0  0  0  0  0  0
    0.4873    2.1644   -0.6826 H   0  0  0  0  0  0  0  0  0  0  0  0
    0.7992    3.2958   -2.8444 H   0  0  0  0  0  0  0  0  0  0  0  0
    1.8094    2.0866   -4.7587 H   0  0  0  0  0  0  0  0  0  0  0  0
    2.5088   -0.2785   -4.5020 H   0  0  0  0  0  0  0  0  0  0  0  0
    2.2054   -1.4406   -2.3517 H   0  0  0  0  0  0  0  0  0  0  0  0
  1  2  1  0
  2  3  1  0
  3  4  2  0
  3  5  1  0
  5  6  2  0
  6  7  1  0
  6  8  1  0
  8  9  2  0
  9 10  1  0
 10 11  1  0
 11 12  2  3
 12 13  1  0
 13 14  1  0
 14 15  2  0
 15 16  1  0
 16 17  1  0
 11 18  1  0
 18 19  2  0
 18 20  1  0
 20 21  1  0
 21 22  1  0
 22 23  2  0
 23 24  1  0
 24 25  2  0
 25 26  1  0
 26 27  2  0
 21  5  1  0
 27 22  1  0
 20  9  1  0
 17 13  2  0
  1 28  1  0
  1 29  1  0
  1 30  1  0
  7 31  1  0
  7 32  1  0
  7 33  1  0
 12 34  1  0
 14 35  1  0
 15 36  1  0
 17 37  1  0
 21 38  1  0
 23 39  1  0
 24 40  1  0
 25 41  1  0
 26 42  1  0
 27 43  1  0
M  END
$$$$
