
     RDKit          3D

 48 51  0  0  0  0  0  0  0  0999 V2000
    4.7685   -1.9850   -1.3530 O   0  0  0  0  0  0  0  0  0  0  0  0
    4.4646   -0.9165   -0.8386 C   0  0  0  0  0  0  0  0  0  0  0  0
    3.1716   -0.4611   -0.5887 N   0  0  0  0  0  0  0  0  0  0  0  0
    1.9825   -0.7556   -1.2673 C   0  0  0  0  0  0  0  0  0  0  0  0
    1.8965   -1.6258   -2.6984 S   0  0  0  0  0  0  0  0  0  0  0  0
    0.8620   -0.1773   -0.6131 N   0  0  0  0  0  0  0  0  0  0  0  0
    0.7606   -0.2729    0.8564 C   0  0  0  0  0  0  0  0  0  0  0  0
   -0.2514    0.7223    1.4565 C   0  0  0  0  0  0  0  0  0  0  0  0
   -1.5870    0.7077    0.8308 N   0  0  0  0  0  0  0  0  0  0  0  0
   -2.3380   -0.5057    1.1960 C   0  0  0  0  0  0  0  0  0  0  0  0
   -3.7940   -0.4533    0.7795 C   0  0  0  0  0  0  0  0  0  0  0  0
   -4.6321    0.5876    1.2470 C   0  0  0  0  0  0  0  0  0  0  0  0
   -5.9799    0.6499    0.8802 C   0  0  0  0  0  0  0  0  0  0  0  0
   -6.4630   -0.3380    0.0513 C   0  0  0  0  0  0  0  0  0  0  0  0
   -5.6596   -1.3554   -0.4063 C   0  0  0  0  0  0  0  0  0  0  0  0
   -4.3270   -1.4441   -0.0619 C   0  0  0  0  0  0  0  0  0  0  0  0
   -6.3297   -2.2244   -1.2099 O   0  0  0  0  0  0  0  0  0  0  0  0
   -7.6464   -1.6343   -1.2079 C   0  0  0  0  0  0  0  0  0  0  0  0
   -7.7393   -0.4380   -0.4070 O   0  0  0  0  0  0  0  0  0  0  0  0
   -1.4254    0.8643   -0.6308 C   0  0  0  0  0  0  0  0  0  0  0  0
   -0.4517   -0.1324   -1.2888 C   0  0  0  0  0  0  0  0  0  0  0  0
    5.5591   -0.0384   -0.3418 C   0  0  0  0  0  0  0  0  0  0  0  0
    5.4576    0.6737    0.8613 C   0  0  0  0  0  0  0  0  0  0  0  0
    6.5173    1.4837    1.2818 C   0  0  0  0  0  0  0  0  0  0  0  0
    7.6753    1.5738    0.5085 C   0  0  0  0  0  0  0  0  0  0  0  0
    8.9740    2.5723    1.0323 Cl  0  0  0  0  0  0  0  0  0  0  0  0
    7.7896    0.8544   -0.6796 C   0  0  0  0  0  0  0  0  0  0  0  0
    6.7335    0.0434   -1.1023 C   0  0  0  0  0  0  0  0  0  0  0  0
    3.1094    0.4430   -0.1475 H   0  0  0  0  0  0  0  0  0  0  0  0
    1.7338   -0.1120    1.3289 H   0  0  0  0  0  0  0  0  0  0  0  0
    0.4709   -1.3049    1.0891 H   0  0  0  0  0  0  0  0  0  0  0  0
   -0.3360    0.5560    2.5373 H   0  0  0  0  0  0  0  0  0  0  0  0
    0.1568    1.7360    1.3472 H   0  0  0  0  0  0  0  0  0  0  0  0
   -2.3370   -0.6216    2.2883 H   0  0  0  0  0  0  0  0  0  0  0  0
   -1.8663   -1.4115    0.7973 H   0  0  0  0  0  0  0  0  0  0  0  0
   -4.2196    1.3592    1.8952 H   0  0  0  0  0  0  0  0  0  0  0  0
   -6.6222    1.4485    1.2330 H   0  0  0  0  0  0  0  0  0  0  0  0
   -3.7203   -2.2599   -0.4399 H   0  0  0  0  0  0  0  0  0  0  0  0
   -8.3599   -2.3711   -0.8212 H   0  0  0  0  0  0  0  0  0  0  0  0
   -7.9211   -1.3874   -2.2398 H   0  0  0  0  0  0  0  0  0  0  0  0
   -2.3936    0.8253   -1.1428 H   0  0  0  0  0  0  0  0  0  0  0  0
   -1.0483    1.8802   -0.8110 H   0  0  0  0  0  0  0  0  0  0  0  0
   -0.8716   -1.1452   -1.2805 H   0  0  0  0  0  0  0  0  0  0  0  0
   -0.3096    0.1652   -2.3334 H   0  0  0  0  0  0  0  0  0  0  0  0
    4.5831    0.5859    1.4995 H   0  0  0  0  0  0  0  0  0  0  0  0
    6.4414    2.0322    2.2178 H   0  0  0  0  0  0  0  0  0  0  0  0
    8.6953    0.9146   -1.2778 H   0  0  0  0  0  0  0  0  0  0  0  0
    6.8267   -0.5260   -2.0263 H   0  0  0  0  0  0  0  0  0  0  0  0
  1  2  2  0
  2  3  1  0
  3  4  1  0
  4  5  2  0
  4  6  1  0
  6  7  1  0
  7  8  1  0
  8  9  1  0
  9 10  1  0
 10 11  1  0
 11 12  2  0
 12 13  1  0
 13 14  2  0
 14 15  1  0
 15 16  2  0
 15 17  1  0
 17 18  1  0
 18 19  1  0
  9 20  1  0
 20 21  1  0
  2 22  1  0
 22 23  2  0
 23 24  1  0
 24 25  2  0
 25 26  1  0
 25 27  1  0
 27 28  2  0
 21  6  1  0
 28 22  1  0
 16 11  1  0
 19 14  1  0
  3 29  1  0
  7 30  1  0
  7 31  1  0
  8 32  1  0
  8 33  1  0
 10 34  1  0
 10 35  1  0
 12 36  1  0
 13 37  1  0
 16 38  1  0
 18 39  1  0
 18 40  1  0
 20 41  1  0
 20 42  1  0
 21 43  1  0
 21 44  1  0
 23 45  1  0
 24 46  1  0
 27 47  1  0
 28 48  1  0
M  END
$$$$
