
     RDKit          3D

 58 60  0  0  0  0  0  0  0  0999 V2000
    1.5622    3.8601   -1.6243 C   0  0  0  0  0  0  0  0  0  0  0  0
    2.0386    2.7443   -0.7077 C   0  0  0  0  0  0  0  0  0  0  0  0
    2.2417    1.4388   -1.4780 C   0  0  0  0  0  0  0  0  0  0  0  0
    2.6925    0.3251   -0.5777 C   0  0  0  0  0  0  0  0  0  0  0  0
    4.0550    0.1373   -0.3523 N   0  0  0  0  0  0  0  0  0  0  0  0
    4.1645   -0.9113    0.5726 N   0  0  0  0  0  0  0  0  0  0  0  0
    5.4287   -1.3816    0.9880 C   0  0  0  0  0  0  0  0  0  0  0  0
    6.6084   -0.8282    0.4586 C   0  0  0  0  0  0  0  0  0  0  0  0
    7.8695   -1.2799    0.8679 C   0  0  0  0  0  0  0  0  0  0  0  0
    7.9608   -2.3018    1.8178 C   0  0  0  0  0  0  0  0  0  0  0  0
    9.2787   -2.7766    2.2551 N   0  0  0  0  0  4  0  0  0  0  0  0
    9.3189   -3.7860    2.9727 O   0  0  0  0  0  0  0  0  0  0  0  0
   10.2724   -2.1361    1.8839 O   0  0  0  0  0  1  0  0  0  0  0  0
    6.8023   -2.8715    2.3532 C   0  0  0  0  0  0  0  0  0  0  0  0
    5.5467   -2.4091    1.9363 C   0  0  0  0  0  0  0  0  0  0  0  0
    2.8899   -1.4079    0.8539 C   0  0  0  0  0  0  0  0  0  0  0  0
    2.5402   -2.3263    1.5777 O   0  0  0  0  0  0  0  0  0  0  0  0
    1.9344   -0.5736    0.0760 C   0  0  0  0  0  0  0  0  0  0  0  0
    0.4754   -0.7335    0.1305 C   0  0  0  0  0  0  0  0  0  0  0  0
   -0.3589    0.0431   -0.4710 N   0  0  0  0  0  0  0  0  0  0  0  0
   -1.7640   -0.3245   -0.2493 C   0  0  0  0  0  0  0  0  0  0  0  0
   -2.6375    0.5195   -1.1806 C   0  0  0  0  0  0  0  0  0  0  0  0
   -4.1077    0.2438   -0.9823 C   0  0  0  0  0  0  0  0  0  0  0  0
   -4.7306   -0.8049   -1.6652 C   0  0  0  0  0  0  0  0  0  0  0  0
   -6.0884   -1.0703   -1.4704 C   0  0  0  0  0  0  0  0  0  0  0  0
   -6.8439   -0.2909   -0.5883 C   0  0  0  0  0  0  0  0  0  0  0  0
   -8.1813   -0.4773   -0.3380 O   0  0  0  0  0  0  0  0  0  0  0  0
   -8.8398   -1.5303   -1.0274 C   0  0  0  0  0  0  0  0  0  0  0  0
   -6.2247    0.7664    0.1084 C   0  0  0  0  0  0  0  0  0  0  0  0
   -7.0315    1.4823    0.9594 O   0  0  0  0  0  0  0  0  0  0  0  0
   -6.4610    2.5992    1.6265 C   0  0  0  0  0  0  0  0  0  0  0  0
   -4.8618    1.0213   -0.0902 C   0  0  0  0  0  0  0  0  0  0  0  0
    1.4357    4.7875   -1.0582 H   0  0  0  0  0  0  0  0  0  0  0  0
    0.6003    3.6075   -2.0815 H   0  0  0  0  0  0  0  0  0  0  0  0
    2.2850    4.0460   -2.4242 H   0  0  0  0  0  0  0  0  0  0  0  0
    2.9773    3.0496   -0.2300 H   0  0  0  0  0  0  0  0  0  0  0  0
    1.3025    2.6019    0.0926 H   0  0  0  0  0  0  0  0  0  0  0  0
    2.9926    1.5888   -2.2648 H   0  0  0  0  0  0  0  0  0  0  0  0
    1.3223    1.1637   -2.0056 H   0  0  0  0  0  0  0  0  0  0  0  0
    4.5019    1.0017   -0.0395 H   0  0  0  0  0  0  0  0  0  0  0  0
    6.5692   -0.0476   -0.2975 H   0  0  0  0  0  0  0  0  0  0  0  0
    8.7601   -0.8303    0.4334 H   0  0  0  0  0  0  0  0  0  0  0  0
    6.8521   -3.6685    3.0935 H   0  0  0  0  0  0  0  0  0  0  0  0
    4.6677   -2.8721    2.3791 H   0  0  0  0  0  0  0  0  0  0  0  0
    0.1283   -1.5823    0.7488 H   0  0  0  0  0  0  0  0  0  0  0  0
   -1.9248   -1.3917   -0.4533 H   0  0  0  0  0  0  0  0  0  0  0  0
   -2.0359   -0.1318    0.7965 H   0  0  0  0  0  0  0  0  0  0  0  0
   -2.3662    0.3281   -2.2273 H   0  0  0  0  0  0  0  0  0  0  0  0
   -2.4372    1.5870   -1.0188 H   0  0  0  0  0  0  0  0  0  0  0  0
   -4.1627   -1.4240   -2.3568 H   0  0  0  0  0  0  0  0  0  0  0  0
   -6.5263   -1.8938   -2.0237 H   0  0  0  0  0  0  0  0  0  0  0  0
   -8.4164   -2.5040   -0.7579 H   0  0  0  0  0  0  0  0  0  0  0  0
   -8.8140   -1.3721   -2.1111 H   0  0  0  0  0  0  0  0  0  0  0  0
   -9.8897   -1.5283   -0.7175 H   0  0  0  0  0  0  0  0  0  0  0  0
   -6.0914    3.3425    0.9114 H   0  0  0  0  0  0  0  0  0  0  0  0
   -7.2494    3.0744    2.2192 H   0  0  0  0  0  0  0  0  0  0  0  0
   -5.6712    2.2841    2.3165 H   0  0  0  0  0  0  0  0  0  0  0  0
   -4.3594    1.8239    0.4408 H   0  0  0  0  0  0  0  0  0  0  0  0
  1  2  1  0
  2  3  1  0
  3  4  1  0
  4  5  1  0
  5  6  1  0
  6  7  1  0
  7  8  2  0
  8  9  1  0
  9 10  2  0
 10 11  1  0
 11 12  2  0
 11 13  1  0
 10 14  1  0
 14 15  2  0
  6 16  1  0
 16 17  2  0
 16 18  1  0
 18 19  1  0
 19 20  2  3
 20 21  1  0
 21 22  1  0
 22 23  1  0
 23 24  2  0
 24 25  1  0
 25 26  2  0
 26 27  1  0
 27 28  1  0
 26 29  1  0
 29 30  1  0
 30 31  1  0
 29 32  2  0
 18  4  2  0
 32 23  1  0
 15  7  1  0
  1 33  1  0
  1 34  1  0
  1 35  1  0
  2 36  1  0
  2 37  1  0
  3 38  1  0
  3 39  1  0
  5 40  1  0
  8 41  1  0
  9 42  1  0
 14 43  1  0
 15 44  1  0
 19 45  1  0
 21 46  1  0
 21 47  1  0
 22 48  1  0
 22 49  1  0
 24 50  1  0
 25 51  1  0
 28 52  1  0
 28 53  1  0
 28 54  1  0
 31 55  1  0
 31 56  1  0
 31 57  1  0
 32 58  1  0
M  CHG  2  11   1  13  -1
M  END
$$$$
