
     RDKit          3D

 36 37  0  0  0  0  0  0  0  0999 V2000
   -6.5412    2.1898   -0.3895 C   0  0  0  0  0  0  0  0  0  0  0  0
   -5.3629    1.3618   -0.8386 C   0  0  0  0  0  0  0  0  0  0  0  0
   -5.3810    0.7711   -1.9116 O   0  0  0  0  0  0  0  0  0  0  0  0
   -4.3382    1.3798    0.0907 N   0  0  0  0  0  0  0  0  0  0  0  0
   -3.0865    0.7380    0.0012 C   0  0  0  0  0  0  0  0  0  0  0  0
   -2.2184    0.8724    1.0896 C   0  0  0  0  0  0  0  0  0  0  0  0
   -0.9562    0.2666    1.0761 C   0  0  0  0  0  0  0  0  0  0  0  0
   -0.5349   -0.4819   -0.0277 C   0  0  0  0  0  0  0  0  0  0  0  0
    0.7493   -1.0582    0.0377 N   0  0  0  0  0  0  0  0  0  0  0  0
    1.4046   -1.7827   -0.9450 C   0  0  0  0  0  0  0  0  0  0  0  0
    0.9671   -2.0635   -2.0571 O   0  0  0  0  0  0  0  0  0  0  0  0
    2.7746   -2.2872   -0.5084 C   0  0  0  0  0  0  0  0  0  0  0  0
    3.6902   -1.2108    0.0320 C   0  0  0  0  0  0  0  0  0  0  0  0
    4.0355   -0.1073   -0.7655 C   0  0  0  0  0  0  0  0  0  0  0  0
    4.8773    0.8876   -0.2667 C   0  0  0  0  0  0  0  0  0  0  0  0
    5.3804    0.7764    1.0233 C   0  0  0  0  0  0  0  0  0  0  0  0
    6.1881    1.7317    1.5022 F   0  0  0  0  0  0  0  0  0  0  0  0
    5.0596   -0.3130    1.8240 C   0  0  0  0  0  0  0  0  0  0  0  0
    4.2161   -1.3093    1.3300 C   0  0  0  0  0  0  0  0  0  0  0  0
   -1.4004   -0.6150   -1.1120 C   0  0  0  0  0  0  0  0  0  0  0  0
   -2.6669   -0.0105   -1.0972 C   0  0  0  0  0  0  0  0  0  0  0  0
   -7.3530    2.0985   -1.1169 H   0  0  0  0  0  0  0  0  0  0  0  0
   -6.2487    3.2411   -0.3173 H   0  0  0  0  0  0  0  0  0  0  0  0
   -6.9007    1.8343    0.5803 H   0  0  0  0  0  0  0  0  0  0  0  0
   -4.5079    1.9055    0.9388 H   0  0  0  0  0  0  0  0  0  0  0  0
   -2.5079    1.4468    1.9660 H   0  0  0  0  0  0  0  0  0  0  0  0
   -0.3106    0.3948    1.9412 H   0  0  0  0  0  0  0  0  0  0  0  0
    1.2731   -0.8746    0.8853 H   0  0  0  0  0  0  0  0  0  0  0  0
    2.6132   -3.0755    0.2372 H   0  0  0  0  0  0  0  0  0  0  0  0
    3.2658   -2.7587   -1.3683 H   0  0  0  0  0  0  0  0  0  0  0  0
    3.6494   -0.0151   -1.7799 H   0  0  0  0  0  0  0  0  0  0  0  0
    5.1447    1.7451   -0.8762 H   0  0  0  0  0  0  0  0  0  0  0  0
    5.4732   -0.3802    2.8256 H   0  0  0  0  0  0  0  0  0  0  0  0
    3.9791   -2.1617    1.9630 H   0  0  0  0  0  0  0  0  0  0  0  0
   -1.1288   -1.1852   -1.9953 H   0  0  0  0  0  0  0  0  0  0  0  0
   -3.2971   -0.1471   -1.9711 H   0  0  0  0  0  0  0  0  0  0  0  0
  1  2  1  0
  2  3  2  0
  2  4  1  0
  4  5  1  0
  5  6  2  0
  6  7  1  0
  7  8  2  0
  8  9  1  0
  9 10  1  0
 10 11  2  0
 10 12  1  0
 12 13  1  0
 13 14  2  0
 14 15  1  0
 15 16  2  0
 16 17  1  0
 16 18  1  0
 18 19  2  0
  8 20  1  0
 20 21  2  0
 21  5  1  0
 19 13  1  0
  1 22  1  0
  1 23  1  0
  1 24  1  0
  4 25  1  0
  6 26  1  0
  7 27  1  0
  9 28  1  0
 12 29  1  0
 12 30  1  0
 14 31  1  0
 15 32  1  0
 18 33  1  0
 19 34  1  0
 20 35  1  0
 21 36  1  0
M  END
$$$$
