
     RDKit          3D

 54 58  0  0  0  0  0  0  0  0999 V2000
   -4.7626   -4.0659    2.0024 C   0  0  0  0  0  0  0  0  0  0  0  0
   -3.6623   -3.3448    1.2366 C   0  0  0  0  0  0  0  0  0  0  0  0
   -4.1284   -2.0229    0.5943 C   0  0  0  0  0  0  0  0  0  0  0  0
   -5.1891   -2.2328   -0.4918 C   0  0  0  0  0  0  0  0  0  0  0  0
   -2.9803   -1.2609    0.0717 N   0  0  0  0  0  0  0  0  0  0  0  0
   -2.2105   -1.7747   -0.9691 C   0  0  0  0  0  0  0  0  0  0  0  0
   -1.1736   -1.2115   -1.5120 N   0  0  0  0  0  0  0  0  0  0  0  0
   -0.8647   -0.0176   -0.9563 C   0  0  0  0  0  0  0  0  0  0  0  0
   -1.5275    0.6201    0.0711 C   0  0  0  0  0  0  0  0  0  0  0  0
   -2.6777   -0.0191    0.6594 C   0  0  0  0  0  0  0  0  0  0  0  0
   -3.3220    0.4763    1.5785 O   0  0  0  0  0  0  0  0  0  0  0  0
   -0.8701    1.8414    0.3114 C   0  0  0  0  0  0  0  0  0  0  0  0
   -1.1181    2.8394    1.1946 N   0  0  0  0  0  0  0  0  0  0  0  0
   -0.2662    3.8738    1.1247 C   0  0  0  0  0  0  0  0  0  0  0  0
   -0.4516    4.9365    1.9995 C   0  0  0  0  0  0  0  0  0  0  0  0
    0.3905    6.0492    1.9881 C   0  0  0  0  0  0  0  0  0  0  0  0
    1.4407    6.1020    1.0827 C   0  0  0  0  0  0  0  0  0  0  0  0
    1.6393    5.0412    0.1975 C   0  0  0  0  0  0  0  0  0  0  0  0
    0.8099    3.9268    0.1973 C   0  0  0  0  0  0  0  0  0  0  0  0
    1.0643    2.9442   -0.6847 N   0  0  0  0  0  0  0  0  0  0  0  0
    0.1946    1.9173   -0.5842 C   0  0  0  0  0  0  0  0  0  0  0  0
    0.1979    0.7658   -1.3340 N   0  0  0  0  0  0  0  0  0  0  0  0
    1.1547    0.4584   -2.3825 C   0  0  0  0  0  0  0  0  0  0  0  0
    2.3371   -0.3089   -1.8441 C   0  0  0  0  0  0  0  0  0  0  0  0
    3.4391    0.3651   -1.3000 C   0  0  0  0  0  0  0  0  0  0  0  0
    4.5304   -0.3443   -0.7858 C   0  0  0  0  0  0  0  0  0  0  0  0
    4.5329   -1.7386   -0.8051 C   0  0  0  0  0  0  0  0  0  0  0  0
    5.5305   -2.5492   -0.3374 O   0  0  0  0  0  0  0  0  0  0  0  0
    6.6594   -1.9073    0.2415 C   0  0  0  0  0  0  0  0  0  0  0  0
    3.4342   -2.4140   -1.3401 C   0  0  0  0  0  0  0  0  0  0  0  0
    2.3427   -1.7089   -1.8526 C   0  0  0  0  0  0  0  0  0  0  0  0
   -4.3518   -4.9445    2.5103 H   0  0  0  0  0  0  0  0  0  0  0  0
   -5.5563   -4.4117    1.3339 H   0  0  0  0  0  0  0  0  0  0  0  0
   -5.2064   -3.4139    2.7613 H   0  0  0  0  0  0  0  0  0  0  0  0
   -2.8406   -3.1328    1.9327 H   0  0  0  0  0  0  0  0  0  0  0  0
   -3.2571   -4.0233    0.4768 H   0  0  0  0  0  0  0  0  0  0  0  0
   -4.6061   -1.4306    1.3836 H   0  0  0  0  0  0  0  0  0  0  0  0
   -5.4366   -1.2823   -0.9773 H   0  0  0  0  0  0  0  0  0  0  0  0
   -6.1139   -2.6364   -0.0680 H   0  0  0  0  0  0  0  0  0  0  0  0
   -4.8474   -2.9243   -1.2686 H   0  0  0  0  0  0  0  0  0  0  0  0
   -2.5440   -2.7545   -1.3438 H   0  0  0  0  0  0  0  0  0  0  0  0
   -1.2754    4.8946    2.7090 H   0  0  0  0  0  0  0  0  0  0  0  0
    0.2217    6.8666    2.6845 H   0  0  0  0  0  0  0  0  0  0  0  0
    2.1050    6.9621    1.0611 H   0  0  0  0  0  0  0  0  0  0  0  0
    2.4628    5.0849   -0.5116 H   0  0  0  0  0  0  0  0  0  0  0  0
    0.6394   -0.1096   -3.1659 H   0  0  0  0  0  0  0  0  0  0  0  0
    1.4783    1.3981   -2.8455 H   0  0  0  0  0  0  0  0  0  0  0  0
    3.4510    1.4535   -1.2648 H   0  0  0  0  0  0  0  0  0  0  0  0
    5.3573    0.2246   -0.3746 H   0  0  0  0  0  0  0  0  0  0  0  0
    7.1809   -1.2865   -0.4945 H   0  0  0  0  0  0  0  0  0  0  0  0
    7.3539   -2.6860    0.5712 H   0  0  0  0  0  0  0  0  0  0  0  0
    6.3733   -1.3223    1.1218 H   0  0  0  0  0  0  0  0  0  0  0  0
    3.4254   -3.5011   -1.3528 H   0  0  0  0  0  0  0  0  0  0  0  0
    1.4934   -2.2607   -2.2508 H   0  0  0  0  0  0  0  0  0  0  0  0
  1  2  1  0
  2  3  1  0
  3  4  1  0
  3  5  1  0
  5  6  1  0
  6  7  2  0
  7  8  1  0
  8  9  2  0
  9 10  1  0
 10 11  2  0
  9 12  1  0
 12 13  2  0
 13 14  1  0
 14 15  2  0
 15 16  1  0
 16 17  2  0
 17 18  1  0
 18 19  2  0
 19 20  1  0
 20 21  2  0
 21 22  1  0
 22 23  1  0
 23 24  1  0
 24 25  2  0
 25 26  1  0
 26 27  2  0
 27 28  1  0
 28 29  1  0
 27 30  1  0
 30 31  2  0
 10  5  1  0
 21 12  1  0
 31 24  1  0
 22  8  1  0
 19 14  1  0
  1 32  1  0
  1 33  1  0
  1 34  1  0
  2 35  1  0
  2 36  1  0
  3 37  1  0
  4 38  1  0
  4 39  1  0
  4 40  1  0
  6 41  1  0
 15 42  1  0
 16 43  1  0
 17 44  1  0
 18 45  1  0
 23 46  1  0
 23 47  1  0
 25 48  1  0
 26 49  1  0
 29 50  1  0
 29 51  1  0
 29 52  1  0
 30 53  1  0
 31 54  1  0
M  END
$$$$
