
     RDKit          3D

 30 32  0  0  0  0  0  0  0  0999 V2000
    0.0898    1.0723   -1.0346 O   0  0  0  0  0  0  0  0  0  0  0  0
    0.8151    0.3741   -0.3612 C   0  0  0  0  0  0  0  0  0  0  0  0
    0.4927   -0.6859    0.6424 C   0  0  0  0  0  0  0  0  0  0  0  0
   -0.7015   -1.1660    1.0156 C   0  0  0  0  0  0  0  0  0  0  0  0
   -2.0336   -0.7743    0.5389 C   0  0  0  0  0  0  0  0  0  0  0  0
   -2.9497   -1.7880    0.2069 C   0  0  0  0  0  0  0  0  0  0  0  0
   -4.2470   -1.4735   -0.2073 C   0  0  0  0  0  0  0  0  0  0  0  0
   -4.6264   -0.1437   -0.2845 C   0  0  0  0  0  0  0  0  0  0  0  0
   -5.8906    0.1687   -0.6938 O   0  0  0  0  0  0  0  0  0  0  0  0
   -3.7328    0.8695    0.0482 C   0  0  0  0  0  0  0  0  0  0  0  0
   -4.1655    2.1631   -0.0630 O   0  0  0  0  0  0  0  0  0  0  0  0
   -2.4445    0.5638    0.4769 C   0  0  0  0  0  0  0  0  0  0  0  0
    1.6775   -1.1995    1.1889 O   0  0  0  0  0  0  0  0  0  0  0  0
    2.7065   -0.5274    0.5759 C   0  0  0  0  0  0  0  0  0  0  0  0
    4.0490   -0.7235    0.8144 C   0  0  0  0  0  0  0  0  0  0  0  0
    4.9470    0.0593    0.0877 C   0  0  0  0  0  0  0  0  0  0  0  0
    6.2775   -0.1344    0.3229 O   0  0  0  0  0  0  0  0  0  0  0  0
    4.5117    1.0120   -0.8514 C   0  0  0  0  0  0  0  0  0  0  0  0
    3.1450    1.1974   -1.0796 C   0  0  0  0  0  0  0  0  0  0  0  0
    2.2715    0.4127   -0.3509 C   0  0  0  0  0  0  0  0  0  0  0  0
   -0.7124   -1.9724    1.7474 H   0  0  0  0  0  0  0  0  0  0  0  0
   -2.6588   -2.8350    0.2625 H   0  0  0  0  0  0  0  0  0  0  0  0
   -4.9504   -2.2577   -0.4688 H   0  0  0  0  0  0  0  0  0  0  0  0
   -5.9164    1.1463   -0.6722 H   0  0  0  0  0  0  0  0  0  0  0  0
   -3.3877    2.7402    0.0376 H   0  0  0  0  0  0  0  0  0  0  0  0
   -1.7603    1.3586    0.7567 H   0  0  0  0  0  0  0  0  0  0  0  0
    4.3973   -1.4544    1.5348 H   0  0  0  0  0  0  0  0  0  0  0  0
    6.7914    0.4617   -0.2471 H   0  0  0  0  0  0  0  0  0  0  0  0
    5.2262    1.6121   -1.4082 H   0  0  0  0  0  0  0  0  0  0  0  0
    2.7792    1.9238   -1.7977 H   0  0  0  0  0  0  0  0  0  0  0  0
  1  2  2  0
  2  3  1  0
  3  4  2  3
  4  5  1  0
  5  6  2  0
  6  7  1  0
  7  8  2  0
  8  9  1  0
  8 10  1  0
 10 11  1  0
 10 12  2  0
  3 13  1  0
 13 14  1  0
 14 15  2  0
 15 16  1  0
 16 17  1  0
 16 18  2  0
 18 19  1  0
 19 20  2  0
 20  2  1  0
 12  5  1  0
 20 14  1  0
  4 21  1  0
  6 22  1  0
  7 23  1  0
  9 24  1  0
 11 25  1  0
 12 26  1  0
 15 27  1  0
 17 28  1  0
 18 29  1  0
 19 30  1  0
M  END
$$$$
