
     RDKit          3D

 43 44  0  0  0  0  0  0  0  0999 V2000
    5.3324   -3.2546   -3.4041 C   0  0  0  0  0  0  0  0  0  0  0  0
    4.7024   -2.8512   -2.1952 O   0  0  0  0  0  0  0  0  0  0  0  0
    3.9771   -1.6886   -2.2308 C   0  0  0  0  0  0  0  0  0  0  0  0
    3.7282   -0.9189   -3.3662 C   0  0  0  0  0  0  0  0  0  0  0  0
    2.9599    0.2440   -3.2689 C   0  0  0  0  0  0  0  0  0  0  0  0
    2.4411    0.6366   -2.0347 C   0  0  0  0  0  0  0  0  0  0  0  0
    2.6902   -0.1224   -0.8839 C   0  0  0  0  0  0  0  0  0  0  0  0
    2.1546    0.3624    0.3251 N   0  0  0  0  0  0  0  0  0  0  0  0
    2.2394   -0.2094    1.5825 C   0  0  0  0  0  0  0  0  0  0  0  0
    2.7411   -1.2925    1.8762 O   0  0  0  0  0  0  0  0  0  0  0  0
    1.5933    0.6499    2.6440 C   0  0  0  0  0  0  0  0  0  0  0  0
    0.0917    0.5215    2.5858 C   0  0  0  0  0  0  0  0  0  0  0  0
   -0.5708   -0.4740    3.5021 C   0  0  0  0  0  0  0  0  0  0  0  0
   -0.5152    1.2325    1.6830 N   0  0  0  0  0  0  0  0  0  0  0  0
   -1.8593    1.0949    1.5301 N   0  0  0  0  0  0  0  0  0  0  0  0
   -2.4872    1.7278    0.4687 C   0  0  0  0  0  0  0  0  0  0  0  0
   -1.9189    2.4327   -0.3641 O   0  0  0  0  0  0  0  0  0  0  0  0
   -3.9396    1.4468    0.3052 C   0  0  0  0  0  0  0  0  0  0  0  0
   -4.3983    1.3019   -1.0162 C   0  0  0  0  0  0  0  0  0  0  0  0
   -5.7394    1.0220   -1.2751 C   0  0  0  0  0  0  0  0  0  0  0  0
   -6.6376    0.8913   -0.2158 C   0  0  0  0  0  0  0  0  0  0  0  0
   -6.1961    1.0381    1.0971 C   0  0  0  0  0  0  0  0  0  0  0  0
   -4.8540    1.3332    1.3627 C   0  0  0  0  0  0  0  0  0  0  0  0
   -4.4258    1.5690    3.0221 Cl  0  0  0  0  0  0  0  0  0  0  0  0
    3.4587   -1.2851   -0.9924 C   0  0  0  0  0  0  0  0  0  0  0  0
    6.0142   -2.4819   -3.7725 H   0  0  0  0  0  0  0  0  0  0  0  0
    4.5920   -3.5231   -4.1619 H   0  0  0  0  0  0  0  0  0  0  0  0
    5.9309   -4.1457   -3.1866 H   0  0  0  0  0  0  0  0  0  0  0  0
    4.1155   -1.1948   -4.3399 H   0  0  0  0  0  0  0  0  0  0  0  0
    2.7788    0.8533   -4.1523 H   0  0  0  0  0  0  0  0  0  0  0  0
    1.8491    1.5508   -1.9835 H   0  0  0  0  0  0  0  0  0  0  0  0
    1.5616    1.1845    0.2497 H   0  0  0  0  0  0  0  0  0  0  0  0
    1.9700    0.3556    3.6283 H   0  0  0  0  0  0  0  0  0  0  0  0
    1.8836    1.6986    2.4962 H   0  0  0  0  0  0  0  0  0  0  0  0
   -1.0224   -1.2825    2.9125 H   0  0  0  0  0  0  0  0  0  0  0  0
   -1.3367    0.0213    4.0972 H   0  0  0  0  0  0  0  0  0  0  0  0
    0.1660   -0.9073    4.1800 H   0  0  0  0  0  0  0  0  0  0  0  0
   -2.3799    0.4793    2.1456 H   0  0  0  0  0  0  0  0  0  0  0  0
   -3.6947    1.3812   -1.8495 H   0  0  0  0  0  0  0  0  0  0  0  0
   -6.0802    0.8968   -2.3015 H   0  0  0  0  0  0  0  0  0  0  0  0
   -7.6822    0.6650   -0.4121 H   0  0  0  0  0  0  0  0  0  0  0  0
   -6.9122    0.9413    1.9096 H   0  0  0  0  0  0  0  0  0  0  0  0
    3.6787   -1.9005   -0.1264 H   0  0  0  0  0  0  0  0  0  0  0  0
  1  2  1  0
  2  3  1  0
  3  4  2  0
  4  5  1  0
  5  6  2  0
  6  7  1  0
  7  8  1  0
  8  9  1  0
  9 10  2  0
  9 11  1  0
 11 12  1  0
 12 13  1  0
 12 14  2  3
 14 15  1  0
 15 16  1  0
 16 17  2  0
 16 18  1  0
 18 19  2  0
 19 20  1  0
 20 21  2  0
 21 22  1  0
 22 23  2  0
 23 24  1  0
  7 25  2  0
 25  3  1  0
 23 18  1  0
  1 26  1  0
  1 27  1  0
  1 28  1  0
  4 29  1  0
  5 30  1  0
  6 31  1  0
  8 32  1  0
 11 33  1  0
 11 34  1  0
 13 35  1  0
 13 36  1  0
 13 37  1  0
 15 38  1  0
 19 39  1  0
 20 40  1  0
 21 41  1  0
 22 42  1  0
 25 43  1  0
M  END
$$$$
