
     RDKit          3D

 56 60  0  0  0  0  0  0  0  0999 V2000
    4.5298    1.9486    1.8307 C   0  0  0  0  0  0  0  0  0  0  0  0
    4.5753    0.7860    0.9111 C   0  0  0  0  0  0  0  0  0  0  0  0
    3.9555   -0.3557    1.2375 N   0  0  0  0  0  0  0  0  0  0  0  0
    4.1921   -1.1767    0.1883 N   0  0  0  0  0  0  0  0  0  0  0  0
    3.6477   -2.5319    0.2218 C   0  0  0  0  0  0  0  0  0  0  0  0
    2.4312   -2.6904   -0.6614 C   0  0  0  0  0  0  0  0  0  0  0  0
    2.3614   -3.7493   -1.5792 C   0  0  0  0  0  0  0  0  0  0  0  0
    1.2407   -3.9094   -2.3949 C   0  0  0  0  0  0  0  0  0  0  0  0
    0.1689   -3.0230   -2.2922 C   0  0  0  0  0  0  0  0  0  0  0  0
    0.2046   -1.9767   -1.3636 C   0  0  0  0  0  0  0  0  0  0  0  0
   -0.9647   -1.0533   -1.2922 C   0  0  0  0  0  0  0  0  0  0  0  0
   -1.6860   -0.9190   -2.2734 O   0  0  0  0  0  0  0  0  0  0  0  0
   -1.1720   -0.4254   -0.0807 N   0  0  0  0  0  0  0  0  0  0  0  0
   -2.2943    0.4744    0.2091 C   0  0  0  0  0  0  0  0  0  0  0  0
   -3.6543   -0.2595    0.1117 C   0  0  0  0  0  0  0  0  0  0  0  0
   -4.8091    0.6911    0.4744 C   0  0  0  0  0  0  0  0  0  0  0  0
   -4.7989    1.8915   -0.4874 C   0  0  0  0  0  0  0  0  0  0  0  0
   -3.4664    2.6514   -0.3722 C   0  0  0  0  0  0  0  0  0  0  0  0
   -3.2861    3.1432    1.0720 C   0  0  0  0  0  0  0  0  0  0  0  0
   -3.2861    1.9473    2.0363 C   0  0  0  0  0  0  0  0  0  0  0  0
   -4.6201    1.1943    1.9141 C   0  0  0  0  0  0  0  0  0  0  0  0
   -2.1360    0.9988    1.6625 C   0  0  0  0  0  0  0  0  0  0  0  0
   -2.3099    1.7031   -0.7354 C   0  0  0  0  0  0  0  0  0  0  0  0
    1.3383   -1.8105   -0.5560 C   0  0  0  0  0  0  0  0  0  0  0  0
    4.9586   -0.5988   -0.7974 C   0  0  0  0  0  0  0  0  0  0  0  0
    5.3462   -1.2943   -2.0491 C   0  0  0  0  0  0  0  0  0  0  0  0
    5.2076    0.6752   -0.3427 C   0  0  0  0  0  0  0  0  0  0  0  0
    6.1814    2.0336   -1.1884 Br  0  0  0  0  0  0  0  0  0  0  0  0
    4.0229    2.7934    1.3541 H   0  0  0  0  0  0  0  0  0  0  0  0
    3.9903    1.7104    2.7533 H   0  0  0  0  0  0  0  0  0  0  0  0
    5.5421    2.2607    2.1064 H   0  0  0  0  0  0  0  0  0  0  0  0
    4.4577   -3.2063   -0.0762 H   0  0  0  0  0  0  0  0  0  0  0  0
    3.3855   -2.7703    1.2593 H   0  0  0  0  0  0  0  0  0  0  0  0
    3.1843   -4.4554   -1.6750 H   0  0  0  0  0  0  0  0  0  0  0  0
    1.2005   -4.7240   -3.1144 H   0  0  0  0  0  0  0  0  0  0  0  0
   -0.6993   -3.1503   -2.9365 H   0  0  0  0  0  0  0  0  0  0  0  0
   -0.6513   -0.7663    0.7156 H   0  0  0  0  0  0  0  0  0  0  0  0
   -3.6623   -1.1294    0.7813 H   0  0  0  0  0  0  0  0  0  0  0  0
   -3.8166   -0.6502   -0.8998 H   0  0  0  0  0  0  0  0  0  0  0  0
   -5.7637    0.1597    0.3916 H   0  0  0  0  0  0  0  0  0  0  0  0
   -4.9461    1.5469   -1.5183 H   0  0  0  0  0  0  0  0  0  0  0  0
   -5.6336    2.5640   -0.2544 H   0  0  0  0  0  0  0  0  0  0  0  0
   -3.4692    3.5078   -1.0558 H   0  0  0  0  0  0  0  0  0  0  0  0
   -2.3453    3.6996    1.1641 H   0  0  0  0  0  0  0  0  0  0  0  0
   -4.0936    3.8373    1.3354 H   0  0  0  0  0  0  0  0  0  0  0  0
   -3.1544    2.3017    3.0646 H   0  0  0  0  0  0  0  0  0  0  0  0
   -5.4502    1.8552    2.1921 H   0  0  0  0  0  0  0  0  0  0  0  0
   -4.6389    0.3486    2.6123 H   0  0  0  0  0  0  0  0  0  0  0  0
   -2.1102    0.1564    2.3669 H   0  0  0  0  0  0  0  0  0  0  0  0
   -1.1751    1.5190    1.7730 H   0  0  0  0  0  0  0  0  0  0  0  0
   -2.4212    1.3954   -1.7813 H   0  0  0  0  0  0  0  0  0  0  0  0
   -1.3534    2.2385   -0.6734 H   0  0  0  0  0  0  0  0  0  0  0  0
    1.3976   -0.9751    0.1389 H   0  0  0  0  0  0  0  0  0  0  0  0
    6.0898   -0.7230   -2.6125 H   0  0  0  0  0  0  0  0  0  0  0  0
    4.4744   -1.4343   -2.6958 H   0  0  0  0  0  0  0  0  0  0  0  0
    5.7838   -2.2744   -1.8352 H   0  0  0  0  0  0  0  0  0  0  0  0
  1  2  1  0
  2  3  2  0
  3  4  1  0
  4  5  1  0
  5  6  1  0
  6  7  2  0
  7  8  1  0
  8  9  2  0
  9 10  1  0
 10 11  1  0
 11 12  2  0
 11 13  1  0
 13 14  1  0
 14 15  1  0
 15 16  1  0
 16 17  1  0
 17 18  1  0
 18 19  1  0
 19 20  1  0
 20 21  1  0
 20 22  1  0
 18 23  1  0
 10 24  2  0
  4 25  1  0
 25 26  1  0
 25 27  2  0
 27 28  1  0
 27  2  1  0
 24  6  1  0
 22 14  1  0
 23 14  1  0
 21 16  1  0
  1 29  1  0
  1 30  1  0
  1 31  1  0
  5 32  1  0
  5 33  1  0
  7 34  1  0
  8 35  1  0
  9 36  1  0
 13 37  1  0
 15 38  1  0
 15 39  1  0
 16 40  1  0
 17 41  1  0
 17 42  1  0
 18 43  1  0
 19 44  1  0
 19 45  1  0
 20 46  1  0
 21 47  1  0
 21 48  1  0
 22 49  1  0
 22 50  1  0
 23 51  1  0
 23 52  1  0
 24 53  1  0
 26 54  1  0
 26 55  1  0
 26 56  1  0
M  END
$$$$
