
     RDKit          3D

 55 56  0  0  0  0  0  0  0  0999 V2000
   -6.1272    3.5926    0.3961 C   0  0  0  0  0  0  0  0  0  0  0  0
   -4.8551    2.9068    0.0537 C   0  0  0  0  0  0  0  0  0  0  0  0
   -3.8953    3.3086   -0.8541 C   0  0  0  0  0  0  0  0  0  0  0  0
   -2.8974    2.3122   -0.8352 C   0  0  0  0  0  0  0  0  0  0  0  0
   -1.6644    2.2714   -1.6284 C   0  0  0  0  0  0  0  0  0  0  0  0
   -1.3322    3.1455   -2.4289 O   0  0  0  0  0  0  0  0  0  0  0  0
   -0.8940    1.1457   -1.3802 N   0  0  0  0  0  0  0  0  0  0  0  0
    0.5768    1.1936   -1.8166 N   0  0  0  0  0  0  0  0  0  0  0  0
    1.6750    1.6662   -0.5871 S   0  0  0  0  0  6  0  0  0  0  0  0
    0.9702    1.6553    0.6794 O   0  0  0  0  0  0  0  0  0  0  0  0
    2.3690    2.8381   -1.0707 O   0  0  0  0  0  0  0  0  0  0  0  0
    2.8066    0.3000   -0.6106 C   0  0  0  0  0  0  0  0  0  0  0  0
    2.6470   -0.7486    0.2943 C   0  0  0  0  0  0  0  0  0  0  0  0
    3.5485   -1.8203    0.2807 C   0  0  0  0  0  0  0  0  0  0  0  0
    4.6261   -1.8608   -0.6255 C   0  0  0  0  0  0  0  0  0  0  0  0
    5.6294   -3.0296   -0.6734 C   0  0  0  0  0  0  0  0  0  0  0  0
    7.0520   -2.5075   -0.3774 C   0  0  0  0  0  0  0  0  0  0  0  0
    5.6097   -3.6732   -2.0768 C   0  0  0  0  0  0  0  0  0  0  0  0
    5.3315   -4.1535    0.3465 C   0  0  0  0  0  0  0  0  0  0  0  0
    4.7714   -0.7722   -1.5132 C   0  0  0  0  0  0  0  0  0  0  0  0
    3.8768    0.3028   -1.5069 C   0  0  0  0  0  0  0  0  0  0  0  0
   -3.2114    1.3374    0.0375 N   0  0  0  0  0  0  0  0  0  0  0  0
   -4.3878    1.7234    0.5982 N   0  0  0  0  0  0  0  0  0  0  0  0
   -5.0100    0.8301    1.6044 C   0  0  0  0  0  0  0  0  0  0  0  0
   -5.5981    1.6098    2.8021 C   0  0  0  0  0  0  0  0  0  0  0  0
   -3.9639   -0.1546    2.2033 C   0  0  0  0  0  0  0  0  0  0  0  0
   -6.1124   -0.0041    0.9288 C   0  0  0  0  0  0  0  0  0  0  0  0
   -6.3473    4.3884   -0.3265 H   0  0  0  0  0  0  0  0  0  0  0  0
   -6.9782    2.9038    0.3813 H   0  0  0  0  0  0  0  0  0  0  0  0
   -6.0539    4.0648    1.3837 H   0  0  0  0  0  0  0  0  0  0  0  0
   -3.9100    4.2040   -1.4642 H   0  0  0  0  0  0  0  0  0  0  0  0
   -1.1032    0.6595   -0.5031 H   0  0  0  0  0  0  0  0  0  0  0  0
    0.7050    1.8389   -2.6114 H   0  0  0  0  0  0  0  0  0  0  0  0
    1.8255   -0.7474    1.0113 H   0  0  0  0  0  0  0  0  0  0  0  0
    3.3817   -2.6191    1.0011 H   0  0  0  0  0  0  0  0  0  0  0  0
    7.3984   -1.7950   -1.1376 H   0  0  0  0  0  0  0  0  0  0  0  0
    7.7801   -3.3315   -0.3542 H   0  0  0  0  0  0  0  0  0  0  0  0
    7.0906   -1.9999    0.5964 H   0  0  0  0  0  0  0  0  0  0  0  0
    5.9218   -2.9710   -2.8600 H   0  0  0  0  0  0  0  0  0  0  0  0
    6.2909   -4.5335   -2.1309 H   0  0  0  0  0  0  0  0  0  0  0  0
    4.6042   -4.0261   -2.3325 H   0  0  0  0  0  0  0  0  0  0  0  0
    6.0684   -4.9611    0.2687 H   0  0  0  0  0  0  0  0  0  0  0  0
    5.3638   -3.7827    1.3726 H   0  0  0  0  0  0  0  0  0  0  0  0
    4.3466   -4.6034    0.1787 H   0  0  0  0  0  0  0  0  0  0  0  0
    5.5950   -0.7480   -2.2271 H   0  0  0  0  0  0  0  0  0  0  0  0
    4.0246    1.1275   -2.2012 H   0  0  0  0  0  0  0  0  0  0  0  0
   -5.8772    0.9294    3.6178 H   0  0  0  0  0  0  0  0  0  0  0  0
   -6.5124    2.1541    2.5389 H   0  0  0  0  0  0  0  0  0  0  0  0
   -4.8733    2.3273    3.2025 H   0  0  0  0  0  0  0  0  0  0  0  0
   -4.4176   -0.7914    2.9709 H   0  0  0  0  0  0  0  0  0  0  0  0
   -3.1299    0.3849    2.6753 H   0  0  0  0  0  0  0  0  0  0  0  0
   -3.5431   -0.8193    1.4390 H   0  0  0  0  0  0  0  0  0  0  0  0
   -6.8906    0.6265    0.4846 H   0  0  0  0  0  0  0  0  0  0  0  0
   -5.6989   -0.6270    0.1269 H   0  0  0  0  0  0  0  0  0  0  0  0
   -6.6020   -0.6679    1.6535 H   0  0  0  0  0  0  0  0  0  0  0  0
  1  2  1  0
  2  3  2  0
  3  4  1  0
  4  5  1  0
  5  6  2  0
  5  7  1  0
  7  8  1  0
  8  9  1  0
  9 10  2  0
  9 11  2  0
  9 12  1  0
 12 13  2  0
 13 14  1  0
 14 15  2  0
 15 16  1  0
 16 17  1  0
 16 18  1  0
 16 19  1  0
 15 20  1  0
 20 21  2  0
  4 22  2  0
 22 23  1  0
 23 24  1  0
 24 25  1  0
 24 26  1  0
 24 27  1  0
 23  2  1  0
 21 12  1  0
  1 28  1  0
  1 29  1  0
  1 30  1  0
  3 31  1  0
  7 32  1  0
  8 33  1  0
 13 34  1  0
 14 35  1  0
 17 36  1  0
 17 37  1  0
 17 38  1  0
 18 39  1  0
 18 40  1  0
 18 41  1  0
 19 42  1  0
 19 43  1  0
 19 44  1  0
 20 45  1  0
 21 46  1  0
 25 47  1  0
 25 48  1  0
 25 49  1  0
 26 50  1  0
 26 51  1  0
 26 52  1  0
 27 53  1  0
 27 54  1  0
 27 55  1  0
M  END
$$$$
