
     RDKit          3D

 56 61  0  0  0  0  0  0  0  0999 V2000
   -0.0800    3.2551    1.3657 C   0  0  0  0  0  0  0  0  0  0  0  0
    0.7415    2.0927    0.9501 C   0  0  0  0  0  0  0  0  0  0  0  0
    2.0408    2.2601    0.6866 N   0  0  0  0  0  0  0  0  0  0  0  0
    2.5119    1.0209    0.3391 N   0  0  0  0  0  0  0  0  0  0  0  0
    3.8884    0.8645   -0.0173 C   0  0  0  0  0  0  0  0  0  0  0  0
    4.4248   -0.3760   -0.3916 C   0  0  0  0  0  0  0  0  0  0  0  0
    5.7783   -0.4911   -0.7351 C   0  0  0  0  0  0  0  0  0  0  0  0
    6.6025    0.6394   -0.7059 C   0  0  0  0  0  0  0  0  0  0  0  0
    8.0205    0.5189   -1.0657 N   0  0  0  0  0  4  0  0  0  0  0  0
    8.7143    1.5455   -1.0287 O   0  0  0  0  0  0  0  0  0  0  0  0
    8.4428   -0.6015   -1.3856 O   0  0  0  0  0  1  0  0  0  0  0  0
    6.0831    1.8844   -0.3365 C   0  0  0  0  0  0  0  0  0  0  0  0
    4.7309    1.9925    0.0054 C   0  0  0  0  0  0  0  0  0  0  0  0
    1.4922    0.0761    0.4112 C   0  0  0  0  0  0  0  0  0  0  0  0
    0.3514    0.7549    0.7719 C   0  0  0  0  0  0  0  0  0  0  0  0
   -0.9248    0.0063    0.9330 C   0  0  0  0  0  0  0  0  0  0  0  0
   -1.8247    0.5417   -0.1827 C   0  0  0  0  0  0  0  0  0  0  0  0
   -2.8747    1.4266    0.1216 C   0  0  0  0  0  0  0  0  0  0  0  0
   -3.7131    1.9280   -0.8818 C   0  0  0  0  0  0  0  0  0  0  0  0
   -3.5143    1.5587   -2.2115 C   0  0  0  0  0  0  0  0  0  0  0  0
   -4.2647    1.9645   -3.2785 O   0  0  0  0  0  0  0  0  0  0  0  0
   -5.0532    3.1268   -3.0897 C   0  0  0  0  0  0  0  0  0  0  0  0
   -5.5491    3.4823   -4.3017 F   0  0  0  0  0  0  0  0  0  0  0  0
   -6.1202    2.8218   -2.3099 F   0  0  0  0  0  0  0  0  0  0  0  0
   -2.4826    0.6729   -2.5245 C   0  0  0  0  0  0  0  0  0  0  0  0
   -1.6419    0.1738   -1.5265 C   0  0  0  0  0  0  0  0  0  0  0  0
   -0.7463   -1.4597    0.8417 N   0  0  0  0  0  0  0  0  0  0  0  0
    0.5012   -1.9521    0.4117 C   0  0  0  0  0  0  0  0  0  0  0  0
    1.5887   -1.2575    0.1842 N   0  0  0  0  0  0  0  0  0  0  0  0
    0.6574   -3.4725    0.1678 C   0  0  0  0  0  0  0  0  0  0  0  0
    1.6846   -3.9553   -0.2882 O   0  0  0  0  0  0  0  0  0  0  0  0
   -0.4243   -4.2444    0.4967 N   0  0  0  0  0  0  0  0  0  0  0  0
   -1.6219   -3.7330    1.0033 C   0  0  0  0  0  0  0  0  0  0  0  0
   -2.6336   -4.6484    1.3179 C   0  0  0  0  0  0  0  0  0  0  0  0
   -3.8453   -4.1969    1.8278 C   0  0  0  0  0  0  0  0  0  0  0  0
   -4.0405   -2.8355    2.0230 C   0  0  0  0  0  0  0  0  0  0  0  0
   -3.0263   -1.9230    1.7056 C   0  0  0  0  0  0  0  0  0  0  0  0
   -1.7919   -2.3426    1.1810 C   0  0  0  0  0  0  0  0  0  0  0  0
   -0.6064    3.6757    0.5032 H   0  0  0  0  0  0  0  0  0  0  0  0
    0.5396    4.0441    1.8048 H   0  0  0  0  0  0  0  0  0  0  0  0
   -0.8208    2.9602    2.1156 H   0  0  0  0  0  0  0  0  0  0  0  0
    3.8238   -1.2803   -0.4317 H   0  0  0  0  0  0  0  0  0  0  0  0
    6.1653   -1.4676   -1.0211 H   0  0  0  0  0  0  0  0  0  0  0  0
    6.7077    2.7748   -0.3085 H   0  0  0  0  0  0  0  0  0  0  0  0
    4.3459    2.9713    0.2900 H   0  0  0  0  0  0  0  0  0  0  0  0
   -1.3309    0.2635    1.9200 H   0  0  0  0  0  0  0  0  0  0  0  0
   -3.0587    1.7306    1.1507 H   0  0  0  0  0  0  0  0  0  0  0  0
   -4.5254    2.5843   -0.5831 H   0  0  0  0  0  0  0  0  0  0  0  0
   -4.4934    3.9719   -2.6737 H   0  0  0  0  0  0  0  0  0  0  0  0
   -2.3247    0.3686   -3.5573 H   0  0  0  0  0  0  0  0  0  0  0  0
   -0.8410   -0.5061   -1.8121 H   0  0  0  0  0  0  0  0  0  0  0  0
   -0.3087   -5.2378    0.3503 H   0  0  0  0  0  0  0  0  0  0  0  0
   -2.4872   -5.7151    1.1698 H   0  0  0  0  0  0  0  0  0  0  0  0
   -4.6341   -4.9038    2.0725 H   0  0  0  0  0  0  0  0  0  0  0  0
   -4.9866   -2.4762    2.4224 H   0  0  0  0  0  0  0  0  0  0  0  0
   -3.2464   -0.8769    1.8873 H   0  0  0  0  0  0  0  0  0  0  0  0
  1  2  1  0
  2  3  2  0
  3  4  1  0
  4  5  1  0
  5  6  2  0
  6  7  1  0
  7  8  2  0
  8  9  1  0
  9 10  2  0
  9 11  1  0
  8 12  1  0
 12 13  2  0
  4 14  1  0
 14 15  2  0
 15 16  1  0
 16 17  1  0
 17 18  2  0
 18 19  1  0
 19 20  2  0
 20 21  1  0
 21 22  1  0
 22 23  1  0
 22 24  1  0
 20 25  1  0
 25 26  2  0
 16 27  1  0
 27 28  1  0
 28 29  2  0
 28 30  1  0
 30 31  2  0
 30 32  1  0
 32 33  1  0
 33 34  2  0
 34 35  1  0
 35 36  2  0
 36 37  1  0
 37 38  2  0
 15  2  1  0
 26 17  1  0
 38 27  1  0
 13  5  1  0
 29 14  1  0
 38 33  1  0
  1 39  1  0
  1 40  1  0
  1 41  1  0
  6 42  1  0
  7 43  1  0
 12 44  1  0
 13 45  1  0
 16 46  1  0
 18 47  1  0
 19 48  1  0
 22 49  1  0
 25 50  1  0
 26 51  1  0
 32 52  1  0
 34 53  1  0
 35 54  1  0
 36 55  1  0
 37 56  1  0
M  CHG  2   9   1  11  -1
M  END
$$$$
