
     RDKit          3D

 40 42  0  0  0  0  0  0  0  0999 V2000
    2.2317   -3.5320    0.4533 C   0  0  0  0  0  0  0  0  0  0  0  0
    1.8167   -2.1756    0.2714 O   0  0  0  0  0  0  0  0  0  0  0  0
    0.4559   -2.0195    0.1977 C   0  0  0  0  0  0  0  0  0  0  0  0
   -0.3320   -2.9542    0.2849 O   0  0  0  0  0  0  0  0  0  0  0  0
    0.0357   -0.6246    0.0073 C   0  0  0  0  0  0  0  0  0  0  0  0
    0.8921    0.4718   -0.0737 C   0  0  0  0  0  0  0  0  0  0  0  0
    2.2793    0.4493    0.0007 N   0  0  0  0  0  0  0  0  0  0  0  0
    3.1666    1.5097   -0.1350 C   0  0  0  0  0  0  0  0  0  0  0  0
    2.8517    2.6674   -0.3885 O   0  0  0  0  0  0  0  0  0  0  0  0
    4.5635    1.1180    0.0390 C   0  0  0  0  0  0  0  0  0  0  0  0
    5.1922   -0.0593    0.4173 C   0  0  0  0  0  0  0  0  0  0  0  0
    6.5878    0.1903    0.4017 C   0  0  0  0  0  0  0  0  0  0  0  0
    6.7355    1.5001    0.0192 C   0  0  0  0  0  0  0  0  0  0  0  0
    5.5251    2.0681   -0.2001 O   0  0  0  0  0  0  0  0  0  0  0  0
    0.0535    1.9392   -0.2559 S   0  0  0  0  0  0  0  0  0  0  0  0
   -1.4568    1.1749   -0.2400 C   0  0  0  0  0  0  0  0  0  0  0  0
   -1.3434   -0.1956   -0.1211 C   0  0  0  0  0  0  0  0  0  0  0  0
   -2.5780   -1.0489   -0.0978 C   0  0  0  0  0  0  0  0  0  0  0  0
   -3.7832   -0.2947   -0.6831 C   0  0  0  0  0  0  0  0  0  0  0  0
   -3.8917    1.0792   -0.1657 N   0  0  0  0  0  0  0  0  0  0  0  0
   -5.1018    1.7141    0.0827 C   0  0  0  0  0  0  0  0  0  0  0  0
   -6.3294    0.8472    0.1971 C   0  0  0  0  0  0  0  0  0  0  0  0
   -5.1938    2.9343    0.2192 O   0  0  0  0  0  0  0  0  0  0  0  0
   -2.7292    1.9572   -0.3640 C   0  0  0  0  0  0  0  0  0  0  0  0
    3.3243   -3.5467    0.4955 H   0  0  0  0  0  0  0  0  0  0  0  0
    1.8438   -3.9284    1.3968 H   0  0  0  0  0  0  0  0  0  0  0  0
    1.9100   -4.1485   -0.3919 H   0  0  0  0  0  0  0  0  0  0  0  0
    2.6738   -0.4727    0.1363 H   0  0  0  0  0  0  0  0  0  0  0  0
    4.7174   -0.9919    0.6846 H   0  0  0  0  0  0  0  0  0  0  0  0
    7.3869   -0.4965    0.6434 H   0  0  0  0  0  0  0  0  0  0  0  0
    7.5885    2.1469   -0.1346 H   0  0  0  0  0  0  0  0  0  0  0  0
   -2.4323   -1.9700   -0.6709 H   0  0  0  0  0  0  0  0  0  0  0  0
   -2.7892   -1.3241    0.9427 H   0  0  0  0  0  0  0  0  0  0  0  0
   -3.6884   -0.2116   -1.7736 H   0  0  0  0  0  0  0  0  0  0  0  0
   -4.6894   -0.8723   -0.4874 H   0  0  0  0  0  0  0  0  0  0  0  0
   -6.5806    0.4203   -0.7772 H   0  0  0  0  0  0  0  0  0  0  0  0
   -7.1730    1.4585    0.5326 H   0  0  0  0  0  0  0  0  0  0  0  0
   -6.1715    0.0590    0.9380 H   0  0  0  0  0  0  0  0  0  0  0  0
   -2.7561    2.7698    0.3711 H   0  0  0  0  0  0  0  0  0  0  0  0
   -2.8121    2.3921   -1.3673 H   0  0  0  0  0  0  0  0  0  0  0  0
  1  2  1  0
  2  3  1  0
  3  4  2  0
  3  5  1  0
  5  6  2  0
  6  7  1  0
  7  8  1  0
  8  9  2  0
  8 10  1  0
 10 11  2  0
 11 12  1  0
 12 13  2  0
 13 14  1  0
  6 15  1  0
 15 16  1  0
 16 17  2  0
 17 18  1  0
 18 19  1  0
 19 20  1  0
 20 21  1  0
 21 22  1  0
 21 23  2  0
 20 24  1  0
 17  5  1  0
 14 10  1  0
 24 16  1  0
  1 25  1  0
  1 26  1  0
  1 27  1  0
  7 28  1  0
 11 29  1  0
 12 30  1  0
 13 31  1  0
 18 32  1  0
 18 33  1  0
 19 34  1  0
 19 35  1  0
 22 36  1  0
 22 37  1  0
 22 38  1  0
 24 39  1  0
 24 40  1  0
M  END
$$$$
