
     RDKit          3D

 36 38  0  0  0  0  0  0  0  0999 V2000
    5.1917    1.2224    1.3141 C   0  0  0  0  0  0  0  0  0  0  0  0
    4.0353    0.4448    0.7559 C   0  0  0  0  0  0  0  0  0  0  0  0
    3.3967   -0.5295    1.5354 C   0  0  0  0  0  0  0  0  0  0  0  0
    2.3061   -1.2380    1.0289 C   0  0  0  0  0  0  0  0  0  0  0  0
    1.8341   -0.9504   -0.2545 C   0  0  0  0  0  0  0  0  0  0  0  0
    0.4546   -1.8655   -0.9122 S   0  0  0  0  0  6  0  0  0  0  0  0
    0.3961   -3.1270   -0.2057 O   0  0  0  0  0  0  0  0  0  0  0  0
    0.5554   -1.8195   -2.3552 O   0  0  0  0  0  0  0  0  0  0  0  0
   -0.8825   -0.9414   -0.4497 N   0  0  0  0  0  0  0  0  0  0  0  0
   -1.1867   -0.8823    0.9984 C   0  0  0  0  0  0  0  0  0  0  0  0
   -2.5903   -0.3524    1.2662 C   0  0  0  0  0  0  0  0  0  0  0  0
   -3.2524   -0.7702    2.2177 O   0  0  0  0  0  0  0  0  0  0  0  0
   -3.0485    0.6714    0.4451 N   0  0  0  0  0  0  0  0  0  0  0  0
   -4.4696    0.8316    0.2933 C   0  0  0  0  0  0  0  0  0  0  0  0
   -4.6767    0.2436   -1.0898 C   0  0  0  0  0  0  0  0  0  0  0  0
   -3.4323    0.4447   -1.7991 O   0  0  0  0  0  0  0  0  0  0  0  0
   -2.4668    0.9308   -0.8490 C   0  0  0  0  0  0  0  0  0  0  0  0
   -1.0535    0.3815   -1.1015 C   0  0  0  0  0  0  0  0  0  0  0  0
    2.4682    0.0100   -1.0472 C   0  0  0  0  0  0  0  0  0  0  0  0
    3.5587    0.7142   -0.5344 C   0  0  0  0  0  0  0  0  0  0  0  0
    5.8802    1.5244    0.5179 H   0  0  0  0  0  0  0  0  0  0  0  0
    4.8270    2.1183    1.8257 H   0  0  0  0  0  0  0  0  0  0  0  0
    5.7634    0.6163    2.0247 H   0  0  0  0  0  0  0  0  0  0  0  0
    3.7555   -0.7508    2.5390 H   0  0  0  0  0  0  0  0  0  0  0  0
    1.8381   -2.0102    1.6358 H   0  0  0  0  0  0  0  0  0  0  0  0
   -1.1399   -1.8879    1.4287 H   0  0  0  0  0  0  0  0  0  0  0  0
   -0.4786   -0.2311    1.5206 H   0  0  0  0  0  0  0  0  0  0  0  0
   -5.0723    0.3399    1.0610 H   0  0  0  0  0  0  0  0  0  0  0  0
   -4.6851    1.9058    0.2943 H   0  0  0  0  0  0  0  0  0  0  0  0
   -5.4989    0.7144   -1.6354 H   0  0  0  0  0  0  0  0  0  0  0  0
   -4.8524   -0.8364   -1.0426 H   0  0  0  0  0  0  0  0  0  0  0  0
   -2.4410    2.0198   -0.9840 H   0  0  0  0  0  0  0  0  0  0  0  0
   -0.3226    1.0764   -0.6721 H   0  0  0  0  0  0  0  0  0  0  0  0
   -0.8835    0.3050   -2.1798 H   0  0  0  0  0  0  0  0  0  0  0  0
    2.1270    0.2104   -2.0605 H   0  0  0  0  0  0  0  0  0  0  0  0
    4.0454    1.4665   -1.1524 H   0  0  0  0  0  0  0  0  0  0  0  0
  1  2  1  0
  2  3  2  0
  3  4  1  0
  4  5  2  0
  5  6  1  0
  6  7  2  0
  6  8  2  0
  6  9  1  0
  9 10  1  0
 10 11  1  0
 11 12  2  0
 11 13  1  0
 13 14  1  0
 14 15  1  0
 15 16  1  0
 16 17  1  0
 17 18  1  0
  5 19  1  0
 19 20  2  0
 20  2  1  0
 18  9  1  0
 17 13  1  0
  1 21  1  0
  1 22  1  0
  1 23  1  0
  3 24  1  0
  4 25  1  0
 10 26  1  0
 10 27  1  0
 14 28  1  0
 14 29  1  0
 15 30  1  0
 15 31  1  0
 17 32  1  0
 18 33  1  0
 18 34  1  0
 19 35  1  0
 20 36  1  0
M  END
$$$$
