
     RDKit          3D

 48 50  0  0  0  0  0  0  0  0999 V2000
    5.1529   -0.0364    4.5467 C   0  0  0  0  0  0  0  0  0  0  0  0
    4.1580   -0.3940    3.4730 C   0  0  0  0  0  0  0  0  0  0  0  0
    4.1619   -1.6958    2.9527 C   0  0  0  0  0  0  0  0  0  0  0  0
    3.2613   -2.0876    1.9612 C   0  0  0  0  0  0  0  0  0  0  0  0
    2.3492   -1.1360    1.4881 C   0  0  0  0  0  0  0  0  0  0  0  0
    1.1303   -1.3180    0.2915 S   0  0  0  0  0  0  0  0  0  0  0  0
    0.6412    0.3136    0.5084 C   0  0  0  0  0  0  0  0  0  0  0  0
   -0.4134    0.8263   -0.2653 N   0  0  0  0  0  0  0  0  0  0  0  0
   -1.0861    0.0549   -1.3298 C   0  0  0  0  0  0  0  0  0  0  0  0
   -2.2780   -0.7457   -0.7896 C   0  0  0  0  0  0  0  0  0  0  0  0
   -3.0842   -1.4169   -1.9080 C   0  0  0  0  0  0  0  0  0  0  0  0
   -2.2821   -2.2914   -2.7773 N   0  0  0  0  0  0  0  0  0  0  0  0
   -3.0569   -2.6652   -3.9656 C   0  0  0  0  0  0  0  0  0  0  0  0
   -1.8500   -3.5059   -2.0797 C   0  0  0  0  0  0  0  0  0  0  0  0
   -0.9265    2.0767    0.1592 C   0  0  0  0  0  0  0  0  0  0  0  0
   -0.7560    2.5542    1.2787 O   0  0  0  0  0  0  0  0  0  0  0  0
   -1.7257    2.8146   -0.8121 C   0  0  0  0  0  0  0  0  0  0  0  0
   -1.3449    3.3317   -2.0381 C   0  0  0  0  0  0  0  0  0  0  0  0
   -2.4138    4.0173   -2.6900 C   0  0  0  0  0  0  0  0  0  0  0  0
   -3.5465    4.0131   -1.9158 C   0  0  0  0  0  0  0  0  0  0  0  0
   -5.1856    4.8472   -2.4368 Br  0  0  0  0  0  0  0  0  0  0  0  0
   -3.3525    3.2018   -0.4421 S   0  0  0  0  0  0  0  0  0  0  0  0
    1.3612    0.9780    1.3797 N   0  0  0  0  0  0  0  0  0  0  0  0
    2.3238    0.1705    1.9664 C   0  0  0  0  0  0  0  0  0  0  0  0
    3.2408    0.5689    2.9763 C   0  0  0  0  0  0  0  0  0  0  0  0
    3.2281    1.9698    3.5283 C   0  0  0  0  0  0  0  0  0  0  0  0
    5.7316   -0.9102    4.8657 H   0  0  0  0  0  0  0  0  0  0  0  0
    4.6382    0.3529    5.4309 H   0  0  0  0  0  0  0  0  0  0  0  0
    5.8603    0.7100    4.1708 H   0  0  0  0  0  0  0  0  0  0  0  0
    4.8695   -2.4307    3.3311 H   0  0  0  0  0  0  0  0  0  0  0  0
    3.2635   -3.1022    1.5786 H   0  0  0  0  0  0  0  0  0  0  0  0
   -0.3593   -0.5918   -1.8321 H   0  0  0  0  0  0  0  0  0  0  0  0
   -1.4411    0.7266   -2.1146 H   0  0  0  0  0  0  0  0  0  0  0  0
   -1.9427   -1.4884   -0.0583 H   0  0  0  0  0  0  0  0  0  0  0  0
   -2.9519   -0.0765   -0.2407 H   0  0  0  0  0  0  0  0  0  0  0  0
   -3.5212   -0.6120   -2.5133 H   0  0  0  0  0  0  0  0  0  0  0  0
   -3.9263   -1.9678   -1.4688 H   0  0  0  0  0  0  0  0  0  0  0  0
   -2.4519   -3.2768   -4.6416 H   0  0  0  0  0  0  0  0  0  0  0  0
   -3.9634   -3.2254   -3.7091 H   0  0  0  0  0  0  0  0  0  0  0  0
   -3.3491   -1.7757   -4.5328 H   0  0  0  0  0  0  0  0  0  0  0  0
   -2.6963   -4.0975   -1.7147 H   0  0  0  0  0  0  0  0  0  0  0  0
   -1.2548   -4.1352   -2.7480 H   0  0  0  0  0  0  0  0  0  0  0  0
   -1.2026   -3.2690   -1.2317 H   0  0  0  0  0  0  0  0  0  0  0  0
   -0.3452    3.2305   -2.4409 H   0  0  0  0  0  0  0  0  0  0  0  0
   -2.3367    4.5000   -3.6580 H   0  0  0  0  0  0  0  0  0  0  0  0
    4.2201    2.4239    3.4407 H   0  0  0  0  0  0  0  0  0  0  0  0
    2.9259    1.9575    4.5806 H   0  0  0  0  0  0  0  0  0  0  0  0
    2.5271    2.6122    2.9862 H   0  0  0  0  0  0  0  0  0  0  0  0
  1  2  1  0
  2  3  2  0
  3  4  1  0
  4  5  2  0
  5  6  1  0
  6  7  1  0
  7  8  1  0
  8  9  1  0
  9 10  1  0
 10 11  1  0
 11 12  1  0
 12 13  1  0
 12 14  1  0
  8 15  1  0
 15 16  2  0
 15 17  1  0
 17 18  2  0
 18 19  1  0
 19 20  2  0
 20 21  1  0
 20 22  1  0
  7 23  2  0
 23 24  1  0
 24 25  2  0
 25 26  1  0
 25  2  1  0
 24  5  1  0
 22 17  1  0
  1 27  1  0
  1 28  1  0
  1 29  1  0
  3 30  1  0
  4 31  1  0
  9 32  1  0
  9 33  1  0
 10 34  1  0
 10 35  1  0
 11 36  1  0
 11 37  1  0
 13 38  1  0
 13 39  1  0
 13 40  1  0
 14 41  1  0
 14 42  1  0
 14 43  1  0
 18 44  1  0
 19 45  1  0
 26 46  1  0
 26 47  1  0
 26 48  1  0
M  END
$$$$
