
     RDKit          3D

 54 58  0  0  0  0  0  0  0  0999 V2000
    6.0491   -2.6235    0.5201 C   0  0  0  0  0  0  0  0  0  0  0  0
    4.5903   -2.2435    0.3201 C   0  0  0  0  0  0  0  0  0  0  0  0
    4.3393   -0.7604    0.5513 C   0  0  0  0  0  0  0  0  0  0  0  0
    5.2645    0.0119    0.8036 O   0  0  0  0  0  0  0  0  0  0  0  0
    3.0101   -0.3280    0.4756 N   0  0  0  0  0  0  0  0  0  0  0  0
    1.9772   -1.0901   -0.2188 C   0  0  0  0  0  0  0  0  0  0  0  0
    0.5686   -0.7438    0.2608 C   0  0  0  0  0  0  0  0  0  0  0  0
    0.2806    0.7773    0.2128 C   0  0  0  0  0  0  0  0  0  0  0  0
    1.3879    1.4538    1.0644 C   0  0  0  0  0  0  0  0  0  0  0  0
    2.7882    1.1107    0.5663 C   0  0  0  0  0  0  0  0  0  0  0  0
    0.4074    1.1588   -1.1787 O   0  0  0  0  0  0  0  0  0  0  0  0
    0.0005    2.4264   -1.4883 C   0  0  0  0  0  0  0  0  0  0  0  0
    0.4734    2.9463   -2.6927 C   0  0  0  0  0  0  0  0  0  0  0  0
    0.1214    4.2415   -3.0801 C   0  0  0  0  0  0  0  0  0  0  0  0
   -0.7078    5.0114   -2.2635 C   0  0  0  0  0  0  0  0  0  0  0  0
   -1.1375    6.6046   -2.7468 Cl  0  0  0  0  0  0  0  0  0  0  0  0
   -1.1960    4.4955   -1.0658 C   0  0  0  0  0  0  0  0  0  0  0  0
   -0.8443    3.1954   -0.6883 C   0  0  0  0  0  0  0  0  0  0  0  0
   -1.3809    2.6075    0.5546 C   0  0  0  0  0  0  0  0  0  0  0  0
   -2.0137    3.3116    1.3341 O   0  0  0  0  0  0  0  0  0  0  0  0
   -1.1477    1.1110    0.7298 C   0  0  0  0  0  0  0  0  0  0  0  0
   -2.2940    0.3883    0.0294 C   0  0  0  0  0  0  0  0  0  0  0  0
   -2.6218   -0.6166    1.0775 C   0  0  0  0  0  0  0  0  0  0  0  0
   -3.5375   -1.7530    0.8211 C   0  0  0  0  0  0  0  0  0  0  0  0
   -3.7458   -2.6974    1.8360 C   0  0  0  0  0  0  0  0  0  0  0  0
   -4.6026   -3.7818    1.6268 C   0  0  0  0  0  0  0  0  0  0  0  0
   -5.2525   -3.9227    0.4031 C   0  0  0  0  0  0  0  0  0  0  0  0
   -6.3057   -5.2567    0.1414 Cl  0  0  0  0  0  0  0  0  0  0  0  0
   -5.0546   -2.9870   -0.6118 C   0  0  0  0  0  0  0  0  0  0  0  0
   -4.1984   -1.8998   -0.4046 C   0  0  0  0  0  0  0  0  0  0  0  0
   -2.0490   -0.4154    2.2199 N   0  0  0  0  0  0  0  0  0  0  0  0
   -1.2788    0.7650    2.1118 O   0  0  0  0  0  0  0  0  0  0  0  0
    6.6943   -2.0896   -0.1853 H   0  0  0  0  0  0  0  0  0  0  0  0
    6.1875   -3.6976    0.3637 H   0  0  0  0  0  0  0  0  0  0  0  0
    6.3843   -2.3786    1.5330 H   0  0  0  0  0  0  0  0  0  0  0  0
    4.3006   -2.4958   -0.7054 H   0  0  0  0  0  0  0  0  0  0  0  0
    3.9765   -2.8185    1.0221 H   0  0  0  0  0  0  0  0  0  0  0  0
    2.0873   -0.8878   -1.2910 H   0  0  0  0  0  0  0  0  0  0  0  0
    2.1312   -2.1635   -0.0808 H   0  0  0  0  0  0  0  0  0  0  0  0
    0.4508   -1.1170    1.2854 H   0  0  0  0  0  0  0  0  0  0  0  0
   -0.1341   -1.2935   -0.3753 H   0  0  0  0  0  0  0  0  0  0  0  0
    1.2965    1.1345    2.1106 H   0  0  0  0  0  0  0  0  0  0  0  0
    1.2922    2.5450    1.0570 H   0  0  0  0  0  0  0  0  0  0  0  0
    2.9667    1.5361   -0.4286 H   0  0  0  0  0  0  0  0  0  0  0  0
    3.5222    1.5619    1.2433 H   0  0  0  0  0  0  0  0  0  0  0  0
    1.1280    2.3517   -3.3262 H   0  0  0  0  0  0  0  0  0  0  0  0
    0.5007    4.6462   -4.0160 H   0  0  0  0  0  0  0  0  0  0  0  0
   -1.8490    5.0944   -0.4343 H   0  0  0  0  0  0  0  0  0  0  0  0
   -3.1724    1.0240   -0.1289 H   0  0  0  0  0  0  0  0  0  0  0  0
   -2.0077   -0.0697   -0.9198 H   0  0  0  0  0  0  0  0  0  0  0  0
   -3.2464   -2.5945    2.7984 H   0  0  0  0  0  0  0  0  0  0  0  0
   -4.7580   -4.5066    2.4223 H   0  0  0  0  0  0  0  0  0  0  0  0
   -5.5678   -3.0960   -1.5642 H   0  0  0  0  0  0  0  0  0  0  0  0
   -4.0732   -1.1823   -1.2102 H   0  0  0  0  0  0  0  0  0  0  0  0
  1  2  1  0
  2  3  1  0
  3  4  2  0
  3  5  1  0
  5  6  1  0
  6  7  1  0
  7  8  1  0
  8  9  1  0
  9 10  1  0
  8 11  1  0
 11 12  1  0
 12 13  2  0
 13 14  1  0
 14 15  2  0
 15 16  1  0
 15 17  1  0
 17 18  2  0
 18 19  1  0
 19 20  2  0
 19 21  1  0
 21 22  1  0
 22 23  1  0
 23 24  1  0
 24 25  2  0
 25 26  1  0
 26 27  2  0
 27 28  1  0
 27 29  1  0
 29 30  2  0
 23 31  2  0
 31 32  1  0
 10  5  1  0
 18 12  1  0
 32 21  1  0
 21  8  1  0
 30 24  1  0
  1 33  1  0
  1 34  1  0
  1 35  1  0
  2 36  1  0
  2 37  1  0
  6 38  1  0
  6 39  1  0
  7 40  1  0
  7 41  1  0
  9 42  1  0
  9 43  1  0
 10 44  1  0
 10 45  1  0
 13 46  1  0
 14 47  1  0
 17 48  1  0
 22 49  1  0
 22 50  1  0
 25 51  1  0
 26 52  1  0
 29 53  1  0
 30 54  1  0
M  END
$$$$
