
     RDKit          3D

 45 47  0  0  0  0  0  0  0  0999 V2000
    6.4811   -1.8076    0.6023 C   0  0  0  0  0  0  0  0  0  0  0  0
    5.1984   -1.0628    0.5173 C   0  0  0  0  0  0  0  0  0  0  0  0
    4.5663   -0.5912    1.6410 N   0  0  0  0  0  0  0  0  0  0  0  0
    3.4028    0.0601    1.3064 C   0  0  0  0  0  0  0  0  0  0  0  0
    2.4581    0.6935    2.1222 C   0  0  0  0  0  0  0  0  0  0  0  0
    1.3541    1.2848    1.4975 C   0  0  0  0  0  0  0  0  0  0  0  0
    1.2007    1.2350    0.1074 C   0  0  0  0  0  0  0  0  0  0  0  0
    0.0303    1.8570   -0.5738 C   0  0  0  0  0  0  0  0  0  0  0  0
    0.1137    2.2256   -1.7403 O   0  0  0  0  0  0  0  0  0  0  0  0
   -1.1307    1.9454    0.1692 N   0  0  0  0  0  0  0  0  0  0  0  0
   -2.3829    2.3175   -0.4668 C   0  0  0  0  0  0  0  0  0  0  0  0
   -3.0806    1.0964   -1.0975 C   0  0  0  0  0  0  0  0  0  0  0  0
   -3.3474    0.0120   -0.1244 N   0  0  0  0  0  0  0  0  0  0  0  0
   -4.3414    0.4223    0.8943 C   0  0  0  0  0  0  0  0  0  0  0  0
   -5.0899   -0.7799    1.4899 C   0  0  0  0  0  0  0  0  0  0  0  0
   -5.8740   -1.4771    0.5129 O   0  0  0  0  0  0  0  0  0  0  0  0
   -5.3115   -1.4193   -0.8053 C   0  0  0  0  0  0  0  0  0  0  0  0
   -3.7869   -1.2274   -0.8056 C   0  0  0  0  0  0  0  0  0  0  0  0
    2.1711    0.6081   -0.6906 C   0  0  0  0  0  0  0  0  0  0  0  0
    3.2900    0.0045   -0.0810 C   0  0  0  0  0  0  0  0  0  0  0  0
    4.4296   -0.7057   -0.5790 C   0  0  0  0  0  0  0  0  0  0  0  0
    4.7146   -0.9952   -2.0108 C   0  0  0  0  0  0  0  0  0  0  0  0
    6.3764   -2.7987    0.1493 H   0  0  0  0  0  0  0  0  0  0  0  0
    6.8027   -1.9432    1.6400 H   0  0  0  0  0  0  0  0  0  0  0  0
    7.2705   -1.2663    0.0713 H   0  0  0  0  0  0  0  0  0  0  0  0
    4.9043   -0.7022    2.5866 H   0  0  0  0  0  0  0  0  0  0  0  0
    2.5772    0.7363    3.2000 H   0  0  0  0  0  0  0  0  0  0  0  0
    0.6293    1.8071    2.1165 H   0  0  0  0  0  0  0  0  0  0  0  0
   -1.2235    1.3078    0.9498 H   0  0  0  0  0  0  0  0  0  0  0  0
   -3.0117    2.7799    0.3005 H   0  0  0  0  0  0  0  0  0  0  0  0
   -2.1906    3.0708   -1.2385 H   0  0  0  0  0  0  0  0  0  0  0  0
   -4.0073    1.4155   -1.5904 H   0  0  0  0  0  0  0  0  0  0  0  0
   -2.4168    0.7109   -1.8822 H   0  0  0  0  0  0  0  0  0  0  0  0
   -5.0866    1.0964    0.4519 H   0  0  0  0  0  0  0  0  0  0  0  0
   -3.8298    0.9629    1.6978 H   0  0  0  0  0  0  0  0  0  0  0  0
   -4.3916   -1.4915    1.9461 H   0  0  0  0  0  0  0  0  0  0  0  0
   -5.7723   -0.4450    2.2779 H   0  0  0  0  0  0  0  0  0  0  0  0
   -5.8044   -0.6057   -1.3499 H   0  0  0  0  0  0  0  0  0  0  0  0
   -5.5725   -2.3539   -1.3121 H   0  0  0  0  0  0  0  0  0  0  0  0
   -3.3992   -1.2888   -1.8292 H   0  0  0  0  0  0  0  0  0  0  0  0
   -3.3350   -2.0655   -0.2598 H   0  0  0  0  0  0  0  0  0  0  0  0
    2.0590    0.5841   -1.7715 H   0  0  0  0  0  0  0  0  0  0  0  0
    5.6724   -1.5091   -2.1375 H   0  0  0  0  0  0  0  0  0  0  0  0
    4.7533   -0.0653   -2.5876 H   0  0  0  0  0  0  0  0  0  0  0  0
    3.9305   -1.6325   -2.4326 H   0  0  0  0  0  0  0  0  0  0  0  0
  1  2  1  0
  2  3  1  0
  3  4  1  0
  4  5  2  0
  5  6  1  0
  6  7  2  0
  7  8  1  0
  8  9  2  0
  8 10  1  0
 10 11  1  0
 11 12  1  0
 12 13  1  0
 13 14  1  0
 14 15  1  0
 15 16  1  0
 16 17  1  0
 17 18  1  0
  7 19  1  0
 19 20  2  0
 20 21  1  0
 21 22  1  0
 21  2  2  0
 20  4  1  0
 18 13  1  0
  1 23  1  0
  1 24  1  0
  1 25  1  0
  3 26  1  0
  5 27  1  0
  6 28  1  0
 10 29  1  0
 11 30  1  0
 11 31  1  0
 12 32  1  0
 12 33  1  0
 14 34  1  0
 14 35  1  0
 15 36  1  0
 15 37  1  0
 17 38  1  0
 17 39  1  0
 18 40  1  0
 18 41  1  0
 19 42  1  0
 22 43  1  0
 22 44  1  0
 22 45  1  0
M  END
$$$$
