
     RDKit          3D

 49 52  0  0  0  0  0  0  0  0999 V2000
    1.1037    2.4013    1.2380 O   0  0  0  0  0  0  0  0  0  0  0  0
    1.0855    1.2097    1.5389 C   0  0  0  0  0  0  0  0  0  0  0  0
    2.2888    0.5551    2.2241 C   0  0  0  0  0  0  0  0  0  0  0  0
    2.8319   -0.5555    1.4451 N   0  0  0  0  0  0  0  0  0  0  0  0
    3.9542   -0.2810    0.6967 N   0  0  0  0  0  0  0  0  0  0  0  0
    4.4928   -1.2486    0.0201 C   0  0  0  0  0  0  0  0  0  0  0  0
    5.7052   -0.9662   -0.8008 C   0  0  0  0  0  0  0  0  0  0  0  0
    5.8291    0.2991   -1.3961 C   0  0  0  0  0  0  0  0  0  0  0  0
    6.9515    0.6063   -2.1676 C   0  0  0  0  0  0  0  0  0  0  0  0
    7.9496   -0.3463   -2.3329 C   0  0  0  0  0  0  0  0  0  0  0  0
    9.0278   -0.0522   -3.0705 F   0  0  0  0  0  0  0  0  0  0  0  0
    7.8499   -1.5990   -1.7368 C   0  0  0  0  0  0  0  0  0  0  0  0
    6.7277   -1.9121   -0.9646 C   0  0  0  0  0  0  0  0  0  0  0  0
    3.9622   -2.6300   -0.0081 C   0  0  0  0  0  0  0  0  0  0  0  0
    2.8763   -2.8762    0.7266 C   0  0  0  0  0  0  0  0  0  0  0  0
    2.2394   -1.8044    1.5142 C   0  0  0  0  0  0  0  0  0  0  0  0
    1.2131   -2.0445    2.1494 O   0  0  0  0  0  0  0  0  0  0  0  0
    0.0010    0.3560    1.4022 N   0  0  0  0  0  0  0  0  0  0  0  0
   -1.2490    0.6277    0.8157 C   0  0  0  0  0  0  0  0  0  0  0  0
   -2.2011   -0.4005    0.8469 C   0  0  0  0  0  0  0  0  0  0  0  0
   -3.4712   -0.2198    0.2879 C   0  0  0  0  0  0  0  0  0  0  0  0
   -3.8026    1.0007   -0.3090 C   0  0  0  0  0  0  0  0  0  0  0  0
   -5.1377    1.2422   -0.9201 C   0  0  0  0  0  0  0  0  0  0  0  0
   -5.2451    1.9946   -1.8823 O   0  0  0  0  0  0  0  0  0  0  0  0
   -6.2031    0.5970   -0.3186 N   0  0  0  0  0  0  0  0  0  0  0  0
   -7.5485    0.7946   -0.7576 C   0  0  0  0  0  0  0  0  0  0  0  0
   -8.4597    1.7355   -0.0198 C   0  0  0  0  0  0  0  0  0  0  0  0
   -8.7049    0.2564    0.0400 C   0  0  0  0  0  0  0  0  0  0  0  0
   -2.8477    2.0208   -0.3633 C   0  0  0  0  0  0  0  0  0  0  0  0
   -1.5799    1.8365    0.2019 C   0  0  0  0  0  0  0  0  0  0  0  0
    3.0712    1.3080    2.3714 H   0  0  0  0  0  0  0  0  0  0  0  0
    1.9757    0.1933    3.2102 H   0  0  0  0  0  0  0  0  0  0  0  0
    5.0509    1.0493   -1.2643 H   0  0  0  0  0  0  0  0  0  0  0  0
    7.0528    1.5809   -2.6348 H   0  0  0  0  0  0  0  0  0  0  0  0
    8.6517   -2.3190   -1.8707 H   0  0  0  0  0  0  0  0  0  0  0  0
    6.6846   -2.8835   -0.4805 H   0  0  0  0  0  0  0  0  0  0  0  0
    4.4175   -3.3939   -0.6223 H   0  0  0  0  0  0  0  0  0  0  0  0
    2.4059   -3.8503    0.7607 H   0  0  0  0  0  0  0  0  0  0  0  0
    0.1222   -0.5827    1.7848 H   0  0  0  0  0  0  0  0  0  0  0  0
   -1.9625   -1.3593    1.3030 H   0  0  0  0  0  0  0  0  0  0  0  0
   -4.1730   -1.0487    0.3018 H   0  0  0  0  0  0  0  0  0  0  0  0
   -6.0568    0.1312    0.5671 H   0  0  0  0  0  0  0  0  0  0  0  0
   -7.6509    0.7653   -1.8412 H   0  0  0  0  0  0  0  0  0  0  0  0
   -8.0789    2.2310    0.8653 H   0  0  0  0  0  0  0  0  0  0  0  0
   -9.1320    2.3454   -0.6127 H   0  0  0  0  0  0  0  0  0  0  0  0
   -9.5531   -0.1388   -0.5076 H   0  0  0  0  0  0  0  0  0  0  0  0
   -8.5068   -0.2510    0.9760 H   0  0  0  0  0  0  0  0  0  0  0  0
   -3.0861    2.9681   -0.8438 H   0  0  0  0  0  0  0  0  0  0  0  0
   -0.8719    2.6573    0.1357 H   0  0  0  0  0  0  0  0  0  0  0  0
  1  2  2  0
  2  3  1  0
  3  4  1  0
  4  5  1  0
  5  6  2  0
  6  7  1  0
  7  8  2  0
  8  9  1  0
  9 10  2  0
 10 11  1  0
 10 12  1  0
 12 13  2  0
  6 14  1  0
 14 15  2  0
 15 16  1  0
 16 17  2  0
  2 18  1  0
 18 19  1  0
 19 20  2  0
 20 21  1  0
 21 22  2  0
 22 23  1  0
 23 24  2  0
 23 25  1  0
 25 26  1  0
 26 27  1  0
 27 28  1  0
 22 29  1  0
 29 30  2  0
 16  4  1  0
 30 19  1  0
 13  7  1  0
 28 26  1  0
  3 31  1  0
  3 32  1  0
  8 33  1  0
  9 34  1  0
 12 35  1  0
 13 36  1  0
 14 37  1  0
 15 38  1  0
 18 39  1  0
 20 40  1  0
 21 41  1  0
 25 42  1  0
 26 43  1  0
 27 44  1  0
 27 45  1  0
 28 46  1  0
 28 47  1  0
 29 48  1  0
 30 49  1  0
M  END
$$$$
