
     RDKit          3D

 35 37  0  0  0  0  0  0  0  0999 V2000
   -4.6039    0.9481   -1.9822 C   0  0  0  0  0  0  0  0  0  0  0  0
   -4.1027    0.3285   -0.8057 O   0  0  0  0  0  0  0  0  0  0  0  0
   -3.4856   -0.9279   -1.0900 C   0  0  0  0  0  0  0  0  0  0  0  0
   -2.9548   -1.5535    0.2078 C   0  0  0  0  0  0  0  0  0  0  0  0
   -1.8609   -0.7684    0.8061 N   0  0  0  0  0  0  0  0  0  0  0  0
   -2.0747    0.0756    1.9140 C   0  0  0  0  0  0  0  0  0  0  0  0
   -3.5013    0.2772    2.7792 S   0  0  0  0  0  0  0  0  0  0  0  0
   -0.9995    0.8062    2.3636 N   0  0  0  0  0  0  0  0  0  0  0  0
    0.2044    0.6949    1.7462 C   0  0  0  0  0  0  0  0  0  0  0  0
    1.5098    1.5843    2.3111 S   0  0  0  0  0  0  0  0  0  0  0  0
    2.5112    0.9069    1.1025 C   0  0  0  0  0  0  0  0  0  0  0  0
    1.8306    0.0226    0.2760 C   0  0  0  0  0  0  0  0  0  0  0  0
    0.4598   -0.1047    0.6753 C   0  0  0  0  0  0  0  0  0  0  0  0
   -0.6198   -0.9081    0.1397 C   0  0  0  0  0  0  0  0  0  0  0  0
   -0.4488   -1.6520   -0.8247 O   0  0  0  0  0  0  0  0  0  0  0  0
    2.5151   -0.6966   -0.8494 C   0  0  0  0  0  0  0  0  0  0  0  0
    3.8721   -0.0607   -1.1936 C   0  0  0  0  0  0  0  0  0  0  0  0
    4.6848    0.2709    0.0663 C   0  0  0  0  0  0  0  0  0  0  0  0
    3.9543    1.2808    0.9649 C   0  0  0  0  0  0  0  0  0  0  0  0
   -5.3616    0.3161   -2.4552 H   0  0  0  0  0  0  0  0  0  0  0  0
   -3.7897    1.1509   -2.6845 H   0  0  0  0  0  0  0  0  0  0  0  0
   -5.0668    1.8977   -1.7007 H   0  0  0  0  0  0  0  0  0  0  0  0
   -4.2318   -1.5996   -1.5299 H   0  0  0  0  0  0  0  0  0  0  0  0
   -2.6799   -0.7791   -1.8167 H   0  0  0  0  0  0  0  0  0  0  0  0
   -3.7780   -1.6793    0.9148 H   0  0  0  0  0  0  0  0  0  0  0  0
   -2.5759   -2.5590   -0.0126 H   0  0  0  0  0  0  0  0  0  0  0  0
   -1.1104    1.4249    3.1577 H   0  0  0  0  0  0  0  0  0  0  0  0
    1.8843   -0.6969   -1.7451 H   0  0  0  0  0  0  0  0  0  0  0  0
    2.6688   -1.7413   -0.5523 H   0  0  0  0  0  0  0  0  0  0  0  0
    4.4404   -0.7411   -1.8378 H   0  0  0  0  0  0  0  0  0  0  0  0
    3.7095    0.8613   -1.7666 H   0  0  0  0  0  0  0  0  0  0  0  0
    5.6638    0.6748   -0.2151 H   0  0  0  0  0  0  0  0  0  0  0  0
    4.8692   -0.6545    0.6271 H   0  0  0  0  0  0  0  0  0  0  0  0
    4.4468    1.3209    1.9430 H   0  0  0  0  0  0  0  0  0  0  0  0
    4.0210    2.2801    0.5174 H   0  0  0  0  0  0  0  0  0  0  0  0
  1  2  1  0
  2  3  1  0
  3  4  1  0
  4  5  1  0
  5  6  1  0
  6  7  2  0
  6  8  1  0
  8  9  1  0
  9 10  1  0
 10 11  1  0
 11 12  2  0
 12 13  1  0
 13 14  1  0
 14 15  2  0
 12 16  1  0
 16 17  1  0
 17 18  1  0
 18 19  1  0
 14  5  1  0
 13  9  2  0
 19 11  1  0
  1 20  1  0
  1 21  1  0
  1 22  1  0
  3 23  1  0
  3 24  1  0
  4 25  1  0
  4 26  1  0
  8 27  1  0
 16 28  1  0
 16 29  1  0
 17 30  1  0
 17 31  1  0
 18 32  1  0
 18 33  1  0
 19 34  1  0
 19 35  1  0
M  END
$$$$
