
     RDKit          3D

 43 46  0  0  0  0  0  0  0  0999 V2000
    3.9711   -2.6086   -1.0925 O   0  0  0  0  0  0  0  0  0  0  0  0
    2.9891   -2.0840   -0.6139 C   0  0  0  0  0  0  0  0  0  0  0  0
    2.8230   -0.7052   -0.0889 C   0  0  0  0  0  0  0  0  0  0  0  0
    3.8231    0.1847   -0.0907 C   0  0  0  0  0  0  0  0  0  0  0  0
    3.6865    1.5070    0.4115 C   0  0  0  0  0  0  0  0  0  0  0  0
    4.6382    2.5223    0.4261 C   0  0  0  0  0  0  0  0  0  0  0  0
    4.0536    3.6649    1.0220 C   0  0  0  0  0  0  0  0  0  0  0  0
    2.7734    3.3001    1.3473 C   0  0  0  0  0  0  0  0  0  0  0  0
    2.5443    2.0146    0.9909 O   0  0  0  0  0  0  0  0  0  0  0  0
    1.5302   -0.5108    0.3775 O   0  0  0  0  0  0  0  0  0  0  0  0
    0.8634   -1.6997    0.1697 C   0  0  0  0  0  0  0  0  0  0  0  0
    1.6732   -2.6748   -0.4095 C   0  0  0  0  0  0  0  0  0  0  0  0
    1.2211   -3.9463   -0.6961 C   0  0  0  0  0  0  0  0  0  0  0  0
   -0.1078   -4.2328   -0.3782 C   0  0  0  0  0  0  0  0  0  0  0  0
   -0.9318   -3.2474    0.2056 C   0  0  0  0  0  0  0  0  0  0  0  0
   -2.2317   -3.5548    0.5048 O   0  0  0  0  0  0  0  0  0  0  0  0
   -0.4624   -1.9536    0.4897 C   0  0  0  0  0  0  0  0  0  0  0  0
   -1.3303   -0.8796    1.0945 C   0  0  0  0  0  0  0  0  0  0  0  0
   -1.6855    0.1838    0.1345 N   0  0  0  0  0  0  0  0  0  0  0  0
   -2.6852   -0.2838   -0.8383 C   0  0  0  0  0  0  0  0  0  0  0  0
   -3.0236    0.8093   -1.8544 C   0  0  0  0  0  0  0  0  0  0  0  0
   -3.4938    2.0841   -1.1654 C   0  0  0  0  0  0  0  0  0  0  0  0
   -2.4875    2.5153   -0.1061 C   0  0  0  0  0  0  0  0  0  0  0  0
   -2.1689    1.3702    0.8556 C   0  0  0  0  0  0  0  0  0  0  0  0
    4.7888   -0.1075   -0.4945 H   0  0  0  0  0  0  0  0  0  0  0  0
    5.6459    2.4390    0.0420 H   0  0  0  0  0  0  0  0  0  0  0  0
    4.5083    4.6304    1.1908 H   0  0  0  0  0  0  0  0  0  0  0  0
    1.9416    3.8101    1.8122 H   0  0  0  0  0  0  0  0  0  0  0  0
    1.8746   -4.6856   -1.1466 H   0  0  0  0  0  0  0  0  0  0  0  0
   -0.4941   -5.2263   -0.5903 H   0  0  0  0  0  0  0  0  0  0  0  0
   -2.4123   -4.4713    0.2379 H   0  0  0  0  0  0  0  0  0  0  0  0
   -0.7547   -0.4518    1.9276 H   0  0  0  0  0  0  0  0  0  0  0  0
   -2.2295   -1.3045    1.5588 H   0  0  0  0  0  0  0  0  0  0  0  0
   -2.3024   -1.1434   -1.3996 H   0  0  0  0  0  0  0  0  0  0  0  0
   -3.6025   -0.6083   -0.3295 H   0  0  0  0  0  0  0  0  0  0  0  0
   -3.8016    0.4506   -2.5378 H   0  0  0  0  0  0  0  0  0  0  0  0
   -2.1384    1.0288   -2.4649 H   0  0  0  0  0  0  0  0  0  0  0  0
   -3.6303    2.8826   -1.9028 H   0  0  0  0  0  0  0  0  0  0  0  0
   -4.4690    1.9084   -0.6950 H   0  0  0  0  0  0  0  0  0  0  0  0
   -1.5642    2.8530   -0.5939 H   0  0  0  0  0  0  0  0  0  0  0  0
   -2.8837    3.3699    0.4540 H   0  0  0  0  0  0  0  0  0  0  0  0
   -3.0599    1.1286    1.4502 H   0  0  0  0  0  0  0  0  0  0  0  0
   -1.3980    1.7224    1.5520 H   0  0  0  0  0  0  0  0  0  0  0  0
  1  2  2  0
  2  3  1  0
  3  4  2  3
  4  5  1  0
  5  6  2  0
  6  7  1  0
  7  8  2  0
  8  9  1  0
  3 10  1  0
 10 11  1  0
 11 12  2  0
 12 13  1  0
 13 14  2  0
 14 15  1  0
 15 16  1  0
 15 17  2  0
 17 18  1  0
 18 19  1  0
 19 20  1  0
 20 21  1  0
 21 22  1  0
 22 23  1  0
 23 24  1  0
 12  2  1  0
 24 19  1  0
  9  5  1  0
 17 11  1  0
  4 25  1  0
  6 26  1  0
  7 27  1  0
  8 28  1  0
 13 29  1  0
 14 30  1  0
 16 31  1  0
 18 32  1  0
 18 33  1  0
 20 34  1  0
 20 35  1  0
 21 36  1  0
 21 37  1  0
 22 38  1  0
 22 39  1  0
 23 40  1  0
 23 41  1  0
 24 42  1  0
 24 43  1  0
M  END
$$$$
