
     RDKit          3D

 41 42  0  0  0  0  0  0  0  0999 V2000
   -6.1593   -2.0908   -0.4643 C   0  0  0  0  0  0  0  0  0  0  0  0
   -5.4077   -1.9701    0.7364 O   0  0  0  0  0  0  0  0  0  0  0  0
   -4.6866   -0.8205    0.9031 C   0  0  0  0  0  0  0  0  0  0  0  0
   -4.6022    0.2354   -0.0037 C   0  0  0  0  0  0  0  0  0  0  0  0
   -3.8191    1.3572    0.2915 C   0  0  0  0  0  0  0  0  0  0  0  0
   -3.1136    1.4384    1.4998 C   0  0  0  0  0  0  0  0  0  0  0  0
   -2.2443    2.6376    1.7954 C   0  0  0  0  0  0  0  0  0  0  0  0
   -0.9439    2.6571    1.0233 C   0  0  0  0  0  0  0  0  0  0  0  0
   -0.4910    3.6728    0.5042 O   0  0  0  0  0  0  0  0  0  0  0  0
   -0.3685    1.4109    1.0476 O   0  0  0  0  0  0  0  0  0  0  0  0
    0.8791    1.4285    0.3991 N   0  0  0  0  0  0  0  0  0  0  0  0
    1.3390    0.2215    0.2441 C   0  0  0  0  0  0  0  0  0  0  0  0
    0.6498   -0.9046    0.6417 N   0  0  0  0  0  0  0  0  0  0  0  0
    2.6747    0.0573   -0.4154 C   0  0  0  0  0  0  0  0  0  0  0  0
    3.2035    1.0937   -1.1912 C   0  0  0  0  0  0  0  0  0  0  0  0
    4.4464    0.9393   -1.8112 C   0  0  0  0  0  0  0  0  0  0  0  0
    5.1798   -0.2398   -1.6566 C   0  0  0  0  0  0  0  0  0  0  0  0
    6.3783   -0.2577   -2.3143 O   0  0  0  0  0  0  0  0  0  0  0  0
    7.2134   -1.3884   -2.0997 C   0  0  0  0  0  0  0  0  0  0  0  0
    4.6572   -1.2713   -0.8753 C   0  0  0  0  0  0  0  0  0  0  0  0
    3.4100   -1.1230   -0.2547 C   0  0  0  0  0  0  0  0  0  0  0  0
   -3.2005    0.3758    2.4076 C   0  0  0  0  0  0  0  0  0  0  0  0
   -3.9826   -0.7425    2.1075 C   0  0  0  0  0  0  0  0  0  0  0  0
   -6.6772   -3.0543   -0.4394 H   0  0  0  0  0  0  0  0  0  0  0  0
   -6.9200   -1.3061   -0.5333 H   0  0  0  0  0  0  0  0  0  0  0  0
   -5.5042   -2.0867   -1.3415 H   0  0  0  0  0  0  0  0  0  0  0  0
   -5.1316    0.2206   -0.9510 H   0  0  0  0  0  0  0  0  0  0  0  0
   -3.7642    2.1676   -0.4345 H   0  0  0  0  0  0  0  0  0  0  0  0
   -2.8071    3.5478    1.5535 H   0  0  0  0  0  0  0  0  0  0  0  0
   -2.0044    2.6932    2.8644 H   0  0  0  0  0  0  0  0  0  0  0  0
   -0.3230   -0.6978    0.8504 H   0  0  0  0  0  0  0  0  0  0  0  0
    0.7304   -1.6995    0.0166 H   0  0  0  0  0  0  0  0  0  0  0  0
    2.6538    2.0232   -1.3220 H   0  0  0  0  0  0  0  0  0  0  0  0
    4.8488    1.7504   -2.4143 H   0  0  0  0  0  0  0  0  0  0  0  0
    7.4723   -1.4936   -1.0415 H   0  0  0  0  0  0  0  0  0  0  0  0
    8.1426   -1.2269   -2.6551 H   0  0  0  0  0  0  0  0  0  0  0  0
    6.7496   -2.3022   -2.4852 H   0  0  0  0  0  0  0  0  0  0  0  0
    5.1939   -2.2023   -0.7250 H   0  0  0  0  0  0  0  0  0  0  0  0
    3.0365   -1.9296    0.3699 H   0  0  0  0  0  0  0  0  0  0  0  0
   -2.6621    0.4046    3.3526 H   0  0  0  0  0  0  0  0  0  0  0  0
   -4.0461   -1.5610    2.8203 H   0  0  0  0  0  0  0  0  0  0  0  0
  1  2  1  0
  2  3  1  0
  3  4  2  0
  4  5  1  0
  5  6  2  0
  6  7  1  0
  7  8  1  0
  8  9  2  0
  8 10  1  0
 10 11  1  0
 11 12  2  3
 12 13  1  0
 12 14  1  0
 14 15  2  0
 15 16  1  0
 16 17  2  0
 17 18  1  0
 18 19  1  0
 17 20  1  0
 20 21  2  0
  6 22  1  0
 22 23  2  0
 23  3  1  0
 21 14  1  0
  1 24  1  0
  1 25  1  0
  1 26  1  0
  4 27  1  0
  5 28  1  0
  7 29  1  0
  7 30  1  0
 13 31  1  0
 13 32  1  0
 15 33  1  0
 16 34  1  0
 19 35  1  0
 19 36  1  0
 19 37  1  0
 20 38  1  0
 21 39  1  0
 22 40  1  0
 23 41  1  0
M  END
$$$$
