
     RDKit          3D

 50 53  0  0  0  0  0  0  0  0999 V2000
   -8.2492   -0.4069    1.5444 C   0  0  0  0  0  0  0  0  0  0  0  0
   -6.8977    0.0906    1.1232 C   0  0  0  0  0  0  0  0  0  0  0  0
   -6.7001    1.4424    0.8331 C   0  0  0  0  0  0  0  0  0  0  0  0
   -5.4319    1.9132    0.4780 C   0  0  0  0  0  0  0  0  0  0  0  0
   -4.3373    1.0410    0.4072 C   0  0  0  0  0  0  0  0  0  0  0  0
   -3.0911    1.5960    0.0363 N   0  0  0  0  0  0  0  0  0  0  0  0
   -1.9176    0.9060   -0.2224 C   0  0  0  0  0  0  0  0  0  0  0  0
   -1.7747   -0.3152   -0.2146 O   0  0  0  0  0  0  0  0  0  0  0  0
   -0.7430    1.8283   -0.5886 C   0  0  0  0  0  0  0  0  0  0  0  0
    0.5188    1.0809   -0.6837 N   0  0  0  0  0  4  0  0  0  0  0  0
    1.5844    1.1090    0.2155 C   0  0  0  0  0  0  0  0  0  0  0  0
    2.5366    0.1768   -0.1810 C   0  0  0  0  0  0  0  0  0  0  0  0
    3.9129   -0.1095    0.5205 C   0  0  0  0  0  0  0  0  0  0  0  0
    4.8151   -1.0227   -0.0258 C   0  0  0  0  0  0  0  0  0  0  0  0
    6.0401   -1.2685    0.6046 C   0  0  0  0  0  0  0  0  0  0  0  0
    6.3782   -0.6028    1.7846 C   0  0  0  0  0  0  0  0  0  0  0  0
    7.6900   -0.8586    2.4684 C   0  0  0  0  0  0  0  0  0  0  0  0
    5.4736    0.3149    2.3268 C   0  0  0  0  0  0  0  0  0  0  0  0
    4.2487    0.5633    1.6997 C   0  0  0  0  0  0  0  0  0  0  0  0
    1.9686   -0.3989   -1.3030 N   0  0  0  0  0  0  0  0  0  0  0  0
    0.7913    0.1477   -1.5918 C   0  0  0  0  0  0  0  0  0  0  0  0
    0.1633   -0.4288   -2.8037 C   0  0  0  0  0  0  0  0  0  0  0  0
    0.9939   -1.7078   -3.0184 C   0  0  0  0  0  0  0  0  0  0  0  0
    2.3092   -1.4726   -2.2238 C   0  0  0  0  0  0  0  0  0  0  0  0
   -4.5333   -0.3052    0.7128 C   0  0  0  0  0  0  0  0  0  0  0  0
   -5.8016   -0.7749    1.0753 C   0  0  0  0  0  0  0  0  0  0  0  0
   -8.3930   -0.2312    2.6167 H   0  0  0  0  0  0  0  0  0  0  0  0
   -9.0411    0.1069    0.9906 H   0  0  0  0  0  0  0  0  0  0  0  0
   -8.3529   -1.4799    1.3480 H   0  0  0  0  0  0  0  0  0  0  0  0
   -7.5354    2.1394    0.8822 H   0  0  0  0  0  0  0  0  0  0  0  0
   -5.3262    2.9705    0.2533 H   0  0  0  0  0  0  0  0  0  0  0  0
   -3.0999    2.6011   -0.0947 H   0  0  0  0  0  0  0  0  0  0  0  0
   -0.9396    2.2914   -1.5612 H   0  0  0  0  0  0  0  0  0  0  0  0
   -0.6400    2.6098    0.1715 H   0  0  0  0  0  0  0  0  0  0  0  0
    1.5321    1.8029    1.0362 H   0  0  0  0  0  0  0  0  0  0  0  0
    4.6094   -1.5557   -0.9441 H   0  0  0  0  0  0  0  0  0  0  0  0
    6.7331   -1.9837    0.1639 H   0  0  0  0  0  0  0  0  0  0  0  0
    8.2843   -1.6055    1.9317 H   0  0  0  0  0  0  0  0  0  0  0  0
    8.2754    0.0653    2.5163 H   0  0  0  0  0  0  0  0  0  0  0  0
    7.5188   -1.2306    3.4837 H   0  0  0  0  0  0  0  0  0  0  0  0
    5.7222    0.8427    3.2453 H   0  0  0  0  0  0  0  0  0  0  0  0
    3.5813    1.2820    2.1643 H   0  0  0  0  0  0  0  0  0  0  0  0
    0.3124    0.2992   -3.6036 H   0  0  0  0  0  0  0  0  0  0  0  0
   -0.8926   -0.6226   -2.6251 H   0  0  0  0  0  0  0  0  0  0  0  0
    0.4594   -2.5637   -2.5865 H   0  0  0  0  0  0  0  0  0  0  0  0
    1.1711   -1.9256   -4.0742 H   0  0  0  0  0  0  0  0  0  0  0  0
    2.6081   -2.3703   -1.6805 H   0  0  0  0  0  0  0  0  0  0  0  0
    3.1115   -1.1290   -2.8829 H   0  0  0  0  0  0  0  0  0  0  0  0
   -3.7204   -1.0238    0.7041 H   0  0  0  0  0  0  0  0  0  0  0  0
   -5.9246   -1.8270    1.3218 H   0  0  0  0  0  0  0  0  0  0  0  0
  1  2  1  0
  2  3  2  0
  3  4  1  0
  4  5  2  0
  5  6  1  0
  6  7  1  0
  7  8  2  0
  7  9  1  0
  9 10  1  0
 10 11  1  0
 11 12  2  0
 12 13  1  0
 13 14  2  0
 14 15  1  0
 15 16  2  0
 16 17  1  0
 16 18  1  0
 18 19  2  0
 12 20  1  0
 20 21  1  0
 21 22  1  0
 22 23  1  0
 23 24  1  0
  5 25  1  0
 25 26  2  0
 26  2  1  0
 21 10  2  0
 19 13  1  0
 24 20  1  0
  1 27  1  0
  1 28  1  0
  1 29  1  0
  3 30  1  0
  4 31  1  0
  6 32  1  0
  9 33  1  0
  9 34  1  0
 11 35  1  0
 14 36  1  0
 15 37  1  0
 17 38  1  0
 17 39  1  0
 17 40  1  0
 18 41  1  0
 19 42  1  0
 22 43  1  0
 22 44  1  0
 23 45  1  0
 23 46  1  0
 24 47  1  0
 24 48  1  0
 25 49  1  0
 26 50  1  0
M  CHG  1  10   1
M  END
$$$$
