
     RDKit          3D

 69 71  0  0  0  0  0  0  0  0999 V2000
    9.4024   -2.7283    2.4818 C   0  0  0  0  0  0  0  0  0  0  0  0
    8.6885   -3.3037    1.2683 C   0  0  0  0  0  0  0  0  0  0  0  0
    7.1956   -2.9672    1.2172 C   0  0  0  0  0  0  0  0  0  0  0  0
    6.9197   -1.4740    1.0159 C   0  0  0  0  0  0  0  0  0  0  0  0
    5.4272   -1.1288    0.9489 C   0  0  0  0  0  0  0  0  0  0  0  0
    4.7294   -1.6905   -0.2932 C   0  0  0  0  0  0  0  0  0  0  0  0
    3.2571   -1.2766   -0.4045 C   0  0  0  0  0  0  0  0  0  0  0  0
    3.0677    0.2210   -0.6629 C   0  0  0  0  0  0  0  0  0  0  0  0
    1.6343    0.5882   -1.0505 C   0  0  0  0  0  0  0  0  0  0  0  0
    0.6192    0.3543    0.0647 C   0  0  0  0  0  0  0  0  0  0  0  0
   -0.6946    0.7413   -0.3856 O   0  0  0  0  0  0  0  0  0  0  0  0
   -1.0203    2.0554   -0.2203 C   0  0  0  0  0  0  0  0  0  0  0  0
   -0.2969    2.8951    0.2984 O   0  0  0  0  0  0  0  0  0  0  0  0
   -2.3925    2.3784   -0.7990 C   0  0  0  0  0  0  0  0  0  0  0  0
   -3.2140    1.1845   -1.1388 N   0  0  0  0  0  0  0  0  0  0  0  0
   -3.6321    0.2475   -0.2507 C   0  0  0  0  0  0  0  0  0  0  0  0
   -3.4461    0.2463    1.2610 C   0  0  0  0  0  0  0  0  0  0  0  0
   -3.4477    1.5442    1.8404 O   0  0  0  0  0  0  0  0  0  0  0  0
   -4.6512    2.1490    2.0737 C   0  0  0  0  0  0  0  0  0  0  0  0
   -5.9049    1.6833    1.6732 C   0  0  0  0  0  0  0  0  0  0  0  0
   -7.0543    2.4275    1.9668 C   0  0  0  0  0  0  0  0  0  0  0  0
   -6.9510    3.6349    2.6554 C   0  0  0  0  0  0  0  0  0  0  0  0
   -8.3672    4.5426    3.0064 Cl  0  0  0  0  0  0  0  0  0  0  0  0
   -5.7052    4.1071    3.0551 C   0  0  0  0  0  0  0  0  0  0  0  0
   -4.5591    3.3637    2.7623 C   0  0  0  0  0  0  0  0  0  0  0  0
   -4.2492   -0.7259   -0.9648 N   0  0  0  0  0  4  0  0  0  0  0  0
   -4.7666   -1.9729   -0.4025 C   0  0  0  0  0  0  0  0  0  0  0  0
   -4.3243   -0.3610   -2.3055 C   0  0  0  0  0  0  0  0  0  0  0  0
   -4.9055   -0.9949   -3.4027 C   0  0  0  0  0  0  0  0  0  0  0  0
   -4.7907   -0.3340   -4.6317 C   0  0  0  0  0  0  0  0  0  0  0  0
   -4.1244    0.8986   -4.7466 C   0  0  0  0  0  0  0  0  0  0  0  0
   -3.5407    1.5268   -3.6382 C   0  0  0  0  0  0  0  0  0  0  0  0
   -3.6608    0.8633   -2.4183 C   0  0  0  0  0  0  0  0  0  0  0  0
    9.4409   -1.6356    2.4454 H   0  0  0  0  0  0  0  0  0  0  0  0
    8.9047   -3.0283    3.4093 H   0  0  0  0  0  0  0  0  0  0  0  0
   10.4343   -3.0937    2.5190 H   0  0  0  0  0  0  0  0  0  0  0  0
    9.1815   -2.9540    0.3541 H   0  0  0  0  0  0  0  0  0  0  0  0
    8.7963   -4.3951    1.2880 H   0  0  0  0  0  0  0  0  0  0  0  0
    6.7575   -3.5382    0.3909 H   0  0  0  0  0  0  0  0  0  0  0  0
    6.7092   -3.3132    2.1370 H   0  0  0  0  0  0  0  0  0  0  0  0
    7.4174   -1.1235    0.1035 H   0  0  0  0  0  0  0  0  0  0  0  0
    7.3520   -0.9087    1.8498 H   0  0  0  0  0  0  0  0  0  0  0  0
    5.3422   -0.0361    0.9553 H   0  0  0  0  0  0  0  0  0  0  0  0
    4.9233   -1.4912    1.8533 H   0  0  0  0  0  0  0  0  0  0  0  0
    5.2666   -1.3779   -1.1966 H   0  0  0  0  0  0  0  0  0  0  0  0
    4.7635   -2.7854   -0.2676 H   0  0  0  0  0  0  0  0  0  0  0  0
    2.7278   -1.5736    0.5079 H   0  0  0  0  0  0  0  0  0  0  0  0
    2.8086   -1.8418   -1.2313 H   0  0  0  0  0  0  0  0  0  0  0  0
    3.3592    0.7983    0.2219 H   0  0  0  0  0  0  0  0  0  0  0  0
    3.7322    0.5320   -1.4783 H   0  0  0  0  0  0  0  0  0  0  0  0
    1.6101    1.6449   -1.3445 H   0  0  0  0  0  0  0  0  0  0  0  0
    1.3289    0.0307   -1.9451 H   0  0  0  0  0  0  0  0  0  0  0  0
    0.8914    0.8843    0.9846 H   0  0  0  0  0  0  0  0  0  0  0  0
    0.5559   -0.7098    0.3127 H   0  0  0  0  0  0  0  0  0  0  0  0
   -2.9552    2.9937   -0.0951 H   0  0  0  0  0  0  0  0  0  0  0  0
   -2.2247    2.9697   -1.7033 H   0  0  0  0  0  0  0  0  0  0  0  0
   -2.4616   -0.2037    1.4171 H   0  0  0  0  0  0  0  0  0  0  0  0
   -4.1946   -0.4109    1.7121 H   0  0  0  0  0  0  0  0  0  0  0  0
   -6.0439    0.7547    1.1323 H   0  0  0  0  0  0  0  0  0  0  0  0
   -8.0310    2.0611    1.6573 H   0  0  0  0  0  0  0  0  0  0  0  0
   -5.6187    5.0471    3.5955 H   0  0  0  0  0  0  0  0  0  0  0  0
   -3.5882    3.7387    3.0829 H   0  0  0  0  0  0  0  0  0  0  0  0
   -4.8889   -2.7313   -1.1787 H   0  0  0  0  0  0  0  0  0  0  0  0
   -5.7297   -1.7700    0.0714 H   0  0  0  0  0  0  0  0  0  0  0  0
   -4.0630   -2.3563    0.3422 H   0  0  0  0  0  0  0  0  0  0  0  0
   -5.4212   -1.9427   -3.3162 H   0  0  0  0  0  0  0  0  0  0  0  0
   -5.2293   -0.7844   -5.5233 H   0  0  0  0  0  0  0  0  0  0  0  0
   -4.0629    1.3778   -5.7243 H   0  0  0  0  0  0  0  0  0  0  0  0
   -3.0325    2.4775   -3.7366 H   0  0  0  0  0  0  0  0  0  0  0  0
  1  2  1  0
  2  3  1  0
  3  4  1  0
  4  5  1  0
  5  6  1  0
  6  7  1  0
  7  8  1  0
  8  9  1  0
  9 10  1  0
 10 11  1  0
 11 12  1  0
 12 13  2  0
 12 14  1  0
 14 15  1  0
 15 16  1  0
 16 17  1  0
 17 18  1  0
 18 19  1  0
 19 20  2  0
 20 21  1  0
 21 22  2  0
 22 23  1  0
 22 24  1  0
 24 25  2  0
 16 26  2  0
 26 27  1  0
 26 28  1  0
 28 29  2  0
 29 30  1  0
 30 31  2  0
 31 32  1  0
 32 33  2  0
 33 15  1  0
 25 19  1  0
 33 28  1  0
  1 34  1  0
  1 35  1  0
  1 36  1  0
  2 37  1  0
  2 38  1  0
  3 39  1  0
  3 40  1  0
  4 41  1  0
  4 42  1  0
  5 43  1  0
  5 44  1  0
  6 45  1  0
  6 46  1  0
  7 47  1  0
  7 48  1  0
  8 49  1  0
  8 50  1  0
  9 51  1  0
  9 52  1  0
 10 53  1  0
 10 54  1  0
 14 55  1  0
 14 56  1  0
 17 57  1  0
 17 58  1  0
 20 59  1  0
 21 60  1  0
 24 61  1  0
 25 62  1  0
 27 63  1  0
 27 64  1  0
 27 65  1  0
 29 66  1  0
 30 67  1  0
 31 68  1  0
 32 69  1  0
M  CHG  1  26   1
M  END
$$$$
