
     RDKit          3D

 45 47  0  0  0  0  0  0  0  0999 V2000
    2.8753   -0.7492   -3.4064 O   0  0  0  0  0  0  0  0  0  0  0  0
    2.0982    0.0771   -2.9185 C   0  0  0  0  0  0  0  0  0  0  0  0
    2.3412    1.5744   -3.0945 C   0  0  0  0  0  0  0  0  0  0  0  0
    3.9616    2.0561   -2.3950 S   0  0  0  0  0  0  0  0  0  0  0  0
    3.7264    1.5036   -0.7152 C   0  0  0  0  0  0  0  0  0  0  0  0
    2.9305    2.2336    0.1727 C   0  0  0  0  0  0  0  0  0  0  0  0
    2.7136    1.7594    1.4689 C   0  0  0  0  0  0  0  0  0  0  0  0
    3.3033    0.5641    1.8794 C   0  0  0  0  0  0  0  0  0  0  0  0
    2.9957   -0.0820    3.6287 Br  0  0  0  0  0  0  0  0  0  0  0  0
    4.1140   -0.1601    1.0079 C   0  0  0  0  0  0  0  0  0  0  0  0
    4.3254    0.3128   -0.2891 C   0  0  0  0  0  0  0  0  0  0  0  0
    0.9949   -0.3244   -2.1758 N   0  0  0  0  0  0  0  0  0  0  0  0
   -0.0598    0.5667   -1.6826 C   0  0  0  0  0  0  0  0  0  0  0  0
   -1.2891   -0.1924   -1.1657 C   0  0  0  0  0  0  0  0  0  0  0  0
   -0.9387   -1.1947   -0.1105 N   0  0  0  0  0  0  0  0  0  0  0  0
   -1.2085   -0.6967    1.5017 S   0  0  0  0  0  6  0  0  0  0  0  0
   -0.6128    0.6178    1.6378 O   0  0  0  0  0  0  0  0  0  0  0  0
   -0.8536   -1.7916    2.3797 O   0  0  0  0  0  0  0  0  0  0  0  0
   -2.9759   -0.5234    1.5633 C   0  0  0  0  0  0  0  0  0  0  0  0
   -3.7767   -1.6194    1.2248 C   0  0  0  0  0  0  0  0  0  0  0  0
   -5.1639   -1.4842    1.2378 C   0  0  0  0  0  0  0  0  0  0  0  0
   -5.7416   -0.2662    1.6018 C   0  0  0  0  0  0  0  0  0  0  0  0
   -4.9373    0.8220    1.9505 C   0  0  0  0  0  0  0  0  0  0  0  0
   -3.5478    0.6987    1.9282 C   0  0  0  0  0  0  0  0  0  0  0  0
    0.4066   -1.8371   -0.3088 C   0  0  0  0  0  0  0  0  0  0  0  0
    0.8921   -1.7270   -1.7604 C   0  0  0  0  0  0  0  0  0  0  0  0
    2.3295    1.7942   -4.1673 H   0  0  0  0  0  0  0  0  0  0  0  0
    1.5758    2.1978   -2.6290 H   0  0  0  0  0  0  0  0  0  0  0  0
    2.4621    3.1656   -0.1353 H   0  0  0  0  0  0  0  0  0  0  0  0
    2.0757    2.3219    2.1465 H   0  0  0  0  0  0  0  0  0  0  0  0
    4.5783   -1.0906    1.3235 H   0  0  0  0  0  0  0  0  0  0  0  0
    4.9464   -0.2649   -0.9718 H   0  0  0  0  0  0  0  0  0  0  0  0
   -0.3631    1.2347   -2.4958 H   0  0  0  0  0  0  0  0  0  0  0  0
    0.3719    1.1760   -0.8842 H   0  0  0  0  0  0  0  0  0  0  0  0
   -2.0359    0.5230   -0.8085 H   0  0  0  0  0  0  0  0  0  0  0  0
   -1.7649   -0.7413   -1.9872 H   0  0  0  0  0  0  0  0  0  0  0  0
   -3.3244   -2.5707    0.9523 H   0  0  0  0  0  0  0  0  0  0  0  0
   -5.7973   -2.3296    0.9725 H   0  0  0  0  0  0  0  0  0  0  0  0
   -6.8246   -0.1666    1.6219 H   0  0  0  0  0  0  0  0  0  0  0  0
   -5.3951    1.7635    2.2432 H   0  0  0  0  0  0  0  0  0  0  0  0
   -2.9250    1.5490    2.1963 H   0  0  0  0  0  0  0  0  0  0  0  0
    1.1445   -1.3572    0.3475 H   0  0  0  0  0  0  0  0  0  0  0  0
    0.3287   -2.8921   -0.0269 H   0  0  0  0  0  0  0  0  0  0  0  0
    1.8582   -2.2347   -1.8617 H   0  0  0  0  0  0  0  0  0  0  0  0
    0.1860   -2.2159   -2.4422 H   0  0  0  0  0  0  0  0  0  0  0  0
  1  2  2  0
  2  3  1  0
  3  4  1  0
  4  5  1  0
  5  6  2  0
  6  7  1  0
  7  8  2  0
  8  9  1  0
  8 10  1  0
 10 11  2  0
  2 12  1  0
 12 13  1  0
 13 14  1  0
 14 15  1  0
 15 16  1  0
 16 17  2  0
 16 18  2  0
 16 19  1  0
 19 20  2  0
 20 21  1  0
 21 22  2  0
 22 23  1  0
 23 24  2  0
 15 25  1  0
 25 26  1  0
 11  5  1  0
 26 12  1  0
 24 19  1  0
  3 27  1  0
  3 28  1  0
  6 29  1  0
  7 30  1  0
 10 31  1  0
 11 32  1  0
 13 33  1  0
 13 34  1  0
 14 35  1  0
 14 36  1  0
 20 37  1  0
 21 38  1  0
 22 39  1  0
 23 40  1  0
 24 41  1  0
 25 42  1  0
 25 43  1  0
 26 44  1  0
 26 45  1  0
M  END
$$$$
