
     RDKit          3D

 67 71  0  0  0  0  0  0  0  0999 V2000
    7.8744   -2.5910   -0.2534 O   0  0  0  0  0  0  0  0  0  0  0  0
    8.4232   -1.7932    0.4894 C   0  0  0  0  0  0  0  0  0  0  0  0
    9.9124   -1.6614    0.6937 C   0  0  0  0  0  0  0  0  0  0  0  0
   10.0202   -0.6984    1.8710 C   0  0  0  0  0  0  0  0  0  0  0  0
    8.7591    0.1363    1.7688 C   0  0  0  0  0  0  0  0  0  0  0  0
    7.8007   -0.7955    1.2336 N   0  0  0  0  0  0  0  0  0  0  0  0
    6.3998   -0.4611    1.0513 C   0  0  0  0  0  0  0  0  0  0  0  0
    6.1712    0.3716   -0.2105 C   0  0  0  0  0  0  0  0  0  0  0  0
    4.7046    0.3921   -0.6310 C   0  0  0  0  0  0  0  0  0  0  0  0
    4.2879   -0.9201   -1.0918 N   0  0  0  0  0  0  0  0  0  0  0  0
    3.0212   -1.1915   -1.5501 C   0  0  0  0  0  0  0  0  0  0  0  0
    2.7678   -2.5559   -2.1228 C   0  0  0  0  0  0  0  0  0  0  0  0
    1.5502   -2.8455   -2.5964 C   0  0  0  0  0  0  0  0  0  0  0  0
    0.5494   -1.8601   -2.5379 C   0  0  0  0  0  0  0  0  0  0  0  0
   -0.7019   -1.8347   -2.9404 N   0  0  0  0  0  0  0  0  0  0  0  0
   -1.2149   -0.5981   -2.6239 N   0  0  0  0  0  0  0  0  0  0  0  0
   -0.2662    0.0993   -2.0248 C   0  0  0  0  0  0  0  0  0  0  0  0
   -0.3585    1.4914   -1.5039 C   0  0  0  0  0  0  0  0  0  0  0  0
   -1.7921    1.8776   -1.1442 C   0  0  0  0  0  0  0  0  0  0  0  0
   -2.2727    1.1867    0.1230 C   0  0  0  0  0  0  0  0  0  0  0  0
   -1.4758    0.7221    0.9395 O   0  0  0  0  0  0  0  0  0  0  0  0
   -3.6412    1.1605    0.3395 N   0  0  0  0  0  0  0  0  0  0  0  0
   -4.6417    1.7386   -0.5627 C   0  0  0  0  0  0  0  0  0  0  0  0
   -6.0094    1.9767    0.1064 C   0  0  0  0  0  0  0  0  0  0  0  0
   -6.5221    0.7585    0.7497 N   0  0  0  0  0  0  0  0  0  0  0  0
   -7.8829    0.5317    0.8874 C   0  0  0  0  0  0  0  0  0  0  0  0
   -8.4050   -0.7591    1.0780 C   0  0  0  0  0  0  0  0  0  0  0  0
   -9.7804   -0.9941    1.2167 C   0  0  0  0  0  0  0  0  0  0  0  0
  -10.6764    0.0661    1.1676 C   0  0  0  0  0  0  0  0  0  0  0  0
  -10.1946    1.3562    0.9816 C   0  0  0  0  0  0  0  0  0  0  0  0
   -8.8182    1.5802    0.8453 C   0  0  0  0  0  0  0  0  0  0  0  0
   -5.5305   -0.2292    1.2123 C   0  0  0  0  0  0  0  0  0  0  0  0
   -4.1650    0.4235    1.4914 C   0  0  0  0  0  0  0  0  0  0  0  0
    0.8835   -0.6525   -1.9653 N   0  0  0  0  0  0  0  0  0  0  0  0
    2.0984   -0.2700   -1.4737 N   0  0  0  0  0  0  0  0  0  0  0  0
   10.3549   -1.2355   -0.2119 H   0  0  0  0  0  0  0  0  0  0  0  0
   10.3649   -2.6292    0.9179 H   0  0  0  0  0  0  0  0  0  0  0  0
   10.0159   -1.2680    2.8089 H   0  0  0  0  0  0  0  0  0  0  0  0
   10.9322   -0.0967    1.8484 H   0  0  0  0  0  0  0  0  0  0  0  0
    8.4279    0.5161    2.7392 H   0  0  0  0  0  0  0  0  0  0  0  0
    8.8817    0.9640    1.0616 H   0  0  0  0  0  0  0  0  0  0  0  0
    6.0477    0.0683    1.9430 H   0  0  0  0  0  0  0  0  0  0  0  0
    5.8520   -1.4073    0.9893 H   0  0  0  0  0  0  0  0  0  0  0  0
    6.5120    1.3977   -0.0255 H   0  0  0  0  0  0  0  0  0  0  0  0
    6.7790   -0.0126   -1.0394 H   0  0  0  0  0  0  0  0  0  0  0  0
    4.0775    0.7179    0.2065 H   0  0  0  0  0  0  0  0  0  0  0  0
    4.5820    1.1157   -1.4451 H   0  0  0  0  0  0  0  0  0  0  0  0
    5.0316   -1.5727   -1.3242 H   0  0  0  0  0  0  0  0  0  0  0  0
    3.5773   -3.2732   -2.1333 H   0  0  0  0  0  0  0  0  0  0  0  0
    1.3127   -3.8138   -3.0193 H   0  0  0  0  0  0  0  0  0  0  0  0
    0.2998    1.6249   -0.6388 H   0  0  0  0  0  0  0  0  0  0  0  0
    0.0018    2.1689   -2.2860 H   0  0  0  0  0  0  0  0  0  0  0  0
   -2.4587    1.6488   -1.9818 H   0  0  0  0  0  0  0  0  0  0  0  0
   -1.8357    2.9572   -0.9578 H   0  0  0  0  0  0  0  0  0  0  0  0
   -4.2669    2.6832   -0.9687 H   0  0  0  0  0  0  0  0  0  0  0  0
   -4.7557    1.0353   -1.3967 H   0  0  0  0  0  0  0  0  0  0  0  0
   -6.6949    2.3321   -0.6713 H   0  0  0  0  0  0  0  0  0  0  0  0
   -5.9153    2.7646    0.8632 H   0  0  0  0  0  0  0  0  0  0  0  0
   -7.7461   -1.6230    1.0976 H   0  0  0  0  0  0  0  0  0  0  0  0
  -10.1449   -2.0089    1.3569 H   0  0  0  0  0  0  0  0  0  0  0  0
  -11.7429   -0.1099    1.2735 H   0  0  0  0  0  0  0  0  0  0  0  0
  -10.8850    2.1949    0.9466 H   0  0  0  0  0  0  0  0  0  0  0  0
   -8.4905    2.6101    0.7280 H   0  0  0  0  0  0  0  0  0  0  0  0
   -5.8643   -0.7076    2.1400 H   0  0  0  0  0  0  0  0  0  0  0  0
   -5.4141   -1.0053    0.4457 H   0  0  0  0  0  0  0  0  0  0  0  0
   -3.4508   -0.3426    1.8111 H   0  0  0  0  0  0  0  0  0  0  0  0
   -4.2593    1.1491    2.3084 H   0  0  0  0  0  0  0  0  0  0  0  0
  1  2  2  0
  2  3  1  0
  3  4  1  0
  4  5  1  0
  5  6  1  0
  6  7  1  0
  7  8  1  0
  8  9  1  0
  9 10  1  0
 10 11  1  0
 11 12  1  0
 12 13  2  0
 13 14  1  0
 14 15  2  0
 15 16  1  0
 16 17  2  0
 17 18  1  0
 18 19  1  0
 19 20  1  0
 20 21  2  0
 20 22  1  0
 22 23  1  0
 23 24  1  0
 24 25  1  0
 25 26  1  0
 26 27  2  0
 27 28  1  0
 28 29  2  0
 29 30  1  0
 30 31  2  0
 25 32  1  0
 32 33  1  0
 17 34  1  0
 34 35  1  0
  6  2  1  0
 35 11  2  0
 34 14  1  0
 33 22  1  0
 31 26  1  0
  3 36  1  0
  3 37  1  0
  4 38  1  0
  4 39  1  0
  5 40  1  0
  5 41  1  0
  7 42  1  0
  7 43  1  0
  8 44  1  0
  8 45  1  0
  9 46  1  0
  9 47  1  0
 10 48  1  0
 12 49  1  0
 13 50  1  0
 18 51  1  0
 18 52  1  0
 19 53  1  0
 19 54  1  0
 23 55  1  0
 23 56  1  0
 24 57  1  0
 24 58  1  0
 27 59  1  0
 28 60  1  0
 29 61  1  0
 30 62  1  0
 31 63  1  0
 32 64  1  0
 32 65  1  0
 33 66  1  0
 33 67  1  0
M  END
$$$$
