
     RDKit          3D

 55 57  0  0  0  0  0  0  0  0999 V2000
    3.7251   -0.7142    1.3745 O   0  0  0  0  0  0  0  0  0  0  0  0
    2.8358    0.1093    1.2005 C   0  0  0  0  0  0  0  0  0  0  0  0
    2.7775    1.3993    1.6871 N   0  0  0  0  0  0  0  0  0  0  0  0
    3.7203    2.0693    2.4877 C   0  0  0  0  0  0  0  0  0  0  0  0
    4.9181    1.4998    2.9228 C   0  0  0  0  0  0  0  0  0  0  0  0
    5.8050    2.2359    3.7157 C   0  0  0  0  0  0  0  0  0  0  0  0
    5.5011    3.5457    4.0795 C   0  0  0  0  0  0  0  0  0  0  0  0
    4.3083    4.1221    3.6515 C   0  0  0  0  0  0  0  0  0  0  0  0
    3.4232    3.3872    2.8582 C   0  0  0  0  0  0  0  0  0  0  0  0
    1.6148   -0.2126    0.3717 C   0  0  0  0  0  0  0  0  0  0  0  0
    1.4639   -1.4560   -0.1145 C   0  0  0  0  0  0  0  0  0  0  0  0
    0.2461   -1.8772   -0.8872 C   0  0  0  0  0  0  0  0  0  0  0  0
   -0.2819   -3.2376   -0.4613 C   0  0  0  0  0  0  0  0  0  0  0  0
   -0.6222   -3.5056    0.8740 C   0  0  0  0  0  0  0  0  0  0  0  0
   -1.1136   -4.7587    1.2488 C   0  0  0  0  0  0  0  0  0  0  0  0
   -1.2717   -5.7758    0.2979 C   0  0  0  0  0  0  0  0  0  0  0  0
   -1.8205   -7.1249    0.6904 C   0  0  0  0  0  0  0  0  0  0  0  0
   -1.2138   -8.1550    0.0354 F   0  0  0  0  0  0  0  0  0  0  0  0
   -3.1499   -7.2418    0.4175 F   0  0  0  0  0  0  0  0  0  0  0  0
   -1.6861   -7.4001    2.0183 F   0  0  0  0  0  0  0  0  0  0  0  0
   -0.9410   -5.5076   -1.0382 C   0  0  0  0  0  0  0  0  0  0  0  0
   -0.4498   -4.2540   -1.4129 C   0  0  0  0  0  0  0  0  0  0  0  0
   -0.8500   -0.8094   -0.8055 C   0  0  0  0  0  0  0  0  0  0  0  0
   -0.2137    0.5728   -0.9195 C   0  0  0  0  0  0  0  0  0  0  0  0
   -1.2345    1.5712   -0.8525 O   0  0  0  0  0  0  0  0  0  0  0  0
   -1.7523    1.9254   -2.1328 C   0  0  0  0  0  0  0  0  0  0  0  0
   -2.8891    2.9201   -1.9296 C   0  0  0  0  0  0  0  0  0  0  0  0
   -3.4579    3.4044   -3.2640 C   0  0  0  0  0  0  0  0  0  0  0  0
   -4.6114    4.3811   -3.0736 C   0  0  0  0  0  0  0  0  0  0  0  0
   -5.7077    3.7119   -2.4681 O   0  0  0  0  0  0  0  0  0  0  0  0
    0.7002    0.8055    0.1616 O   0  0  0  0  0  0  0  0  0  0  0  0
    1.9409    1.9152    1.4326 H   0  0  0  0  0  0  0  0  0  0  0  0
    5.1920    0.4820    2.6649 H   0  0  0  0  0  0  0  0  0  0  0  0
    6.7343    1.7797    4.0477 H   0  0  0  0  0  0  0  0  0  0  0  0
    6.1924    4.1138    4.6962 H   0  0  0  0  0  0  0  0  0  0  0  0
    4.0659    5.1433    3.9338 H   0  0  0  0  0  0  0  0  0  0  0  0
    2.4997    3.8598    2.5349 H   0  0  0  0  0  0  0  0  0  0  0  0
    2.2297   -2.2091    0.0665 H   0  0  0  0  0  0  0  0  0  0  0  0
    0.5684   -1.9486   -1.9359 H   0  0  0  0  0  0  0  0  0  0  0  0
   -0.5053   -2.7378    1.6374 H   0  0  0  0  0  0  0  0  0  0  0  0
   -1.3700   -4.9375    2.2924 H   0  0  0  0  0  0  0  0  0  0  0  0
   -1.0631   -6.2804   -1.7962 H   0  0  0  0  0  0  0  0  0  0  0  0
   -0.1989   -4.0803   -2.4576 H   0  0  0  0  0  0  0  0  0  0  0  0
   -1.6006   -0.9705   -1.5884 H   0  0  0  0  0  0  0  0  0  0  0  0
   -1.3939   -0.8694    0.1472 H   0  0  0  0  0  0  0  0  0  0  0  0
    0.3478    0.6793   -1.8581 H   0  0  0  0  0  0  0  0  0  0  0  0
   -0.9542    2.3810   -2.7301 H   0  0  0  0  0  0  0  0  0  0  0  0
   -2.1210    1.0341   -2.6518 H   0  0  0  0  0  0  0  0  0  0  0  0
   -3.6717    2.4487   -1.3224 H   0  0  0  0  0  0  0  0  0  0  0  0
   -2.5268    3.7732   -1.3424 H   0  0  0  0  0  0  0  0  0  0  0  0
   -2.6662    3.8919   -3.8446 H   0  0  0  0  0  0  0  0  0  0  0  0
   -3.8079    2.5378   -3.8378 H   0  0  0  0  0  0  0  0  0  0  0  0
   -4.3143    5.2228   -2.4398 H   0  0  0  0  0  0  0  0  0  0  0  0
   -4.9391    4.7686   -4.0434 H   0  0  0  0  0  0  0  0  0  0  0  0
   -6.4104    4.3719   -2.3384 H   0  0  0  0  0  0  0  0  0  0  0  0
  1  2  2  0
  2  3  1  0
  3  4  1  0
  4  5  2  0
  5  6  1  0
  6  7  2  0
  7  8  1  0
  8  9  2  0
  2 10  1  0
 10 11  2  0
 11 12  1  0
 12 13  1  0
 13 14  2  0
 14 15  1  0
 15 16  2  0
 16 17  1  0
 17 18  1  0
 17 19  1  0
 17 20  1  0
 16 21  1  0
 21 22  2  0
 12 23  1  0
 23 24  1  0
 24 25  1  0
 25 26  1  0
 26 27  1  0
 27 28  1  0
 28 29  1  0
 29 30  1  0
 24 31  1  0
  9  4  1  0
 31 10  1  0
 22 13  1  0
  3 32  1  0
  5 33  1  0
  6 34  1  0
  7 35  1  0
  8 36  1  0
  9 37  1  0
 11 38  1  0
 12 39  1  0
 14 40  1  0
 15 41  1  0
 21 42  1  0
 22 43  1  0
 23 44  1  0
 23 45  1  0
 24 46  1  0
 26 47  1  0
 26 48  1  0
 27 49  1  0
 27 50  1  0
 28 51  1  0
 28 52  1  0
 29 53  1  0
 29 54  1  0
 30 55  1  0
M  END
$$$$
