
     RDKit          3D

 65 69  0  0  0  0  0  0  0  0999 V2000
   -4.5394    6.4306    1.1922 C   0  0  0  0  0  0  0  0  0  0  0  0
   -3.8775    5.1106    1.5458 C   0  0  0  0  0  0  0  0  0  0  0  0
   -3.4616    4.4883    0.3315 O   0  0  0  0  0  0  0  0  0  0  0  0
   -2.8552    3.2679    0.4300 C   0  0  0  0  0  0  0  0  0  0  0  0
   -2.4922    2.6984   -0.7913 C   0  0  0  0  0  0  0  0  0  0  0  0
   -1.8669    1.4506   -0.8404 C   0  0  0  0  0  0  0  0  0  0  0  0
   -1.5972    0.7437    0.3399 C   0  0  0  0  0  0  0  0  0  0  0  0
   -0.8955   -0.6021    0.2604 C   0  0  0  0  0  0  0  0  0  0  0  0
    0.6174   -0.4453    0.5401 C   0  0  0  0  0  0  0  0  0  0  0  0
    1.4331   -0.7217   -0.6990 C   0  0  0  0  0  0  0  0  0  0  0  0
    1.0290   -1.4871   -1.5743 O   0  0  0  0  0  0  0  0  0  0  0  0
    2.7522   -0.0441   -0.8801 C   0  0  0  0  0  0  0  0  0  0  0  0
    3.2636    0.0608   -2.1928 C   0  0  0  0  0  0  0  0  0  0  0  0
    4.4840    0.6973   -2.4395 C   0  0  0  0  0  0  0  0  0  0  0  0
    5.1781    1.2007   -1.3608 C   0  0  0  0  0  0  0  0  0  0  0  0
    4.6959    1.0952   -0.0680 C   0  0  0  0  0  0  0  0  0  0  0  0
    3.4805    0.4818    0.1972 C   0  0  0  0  0  0  0  0  0  0  0  0
    5.6384    1.7568    0.8639 C   0  0  0  0  0  0  0  0  0  0  0  0
    6.8336    1.9746   -0.0785 C   0  0  0  0  0  0  0  0  0  0  0  0
    7.9644    0.9780    0.1613 C   0  0  0  0  0  0  0  0  0  0  0  0
    6.3846    1.8400   -1.4529 O   0  0  0  0  0  0  0  0  0  0  0  0
    0.8591   -1.4582    1.6121 C   0  0  0  0  0  0  0  0  0  0  0  0
    1.9317   -1.7112    2.1310 O   0  0  0  0  0  0  0  0  0  0  0  0
   -0.4453   -2.1339    1.9973 C   0  0  0  0  0  0  0  0  0  0  0  0
   -0.5521   -2.9991    2.8390 O   0  0  0  0  0  0  0  0  0  0  0  0
   -1.4222   -1.5738    1.2110 N   0  0  0  0  0  0  0  0  0  0  0  0
   -2.7927   -2.0655    1.1777 C   0  0  0  0  0  0  0  0  0  0  0  0
   -2.9487   -3.4408    0.5262 C   0  0  0  0  0  0  0  0  0  0  0  0
   -2.6098   -3.4409   -0.9616 C   0  0  0  0  0  0  0  0  0  0  0  0
   -2.9553   -4.6970   -1.5968 N   0  0  0  0  0  0  0  0  0  0  0  0
   -2.1552   -5.7993   -1.6971 C   0  0  0  0  0  0  0  0  0  0  0  0
   -2.9112   -6.7213   -2.3832 C   0  0  0  0  0  0  0  0  0  0  0  0
   -4.1407   -6.2029   -2.7026 N   0  0  0  0  0  0  0  0  0  0  0  0
   -4.1364   -4.9809   -2.2200 C   0  0  0  0  0  0  0  0  0  0  0  0
   -1.9536    1.3267    1.5659 C   0  0  0  0  0  0  0  0  0  0  0  0
   -2.5808    2.5778    1.6095 C   0  0  0  0  0  0  0  0  0  0  0  0
   -5.4089    6.2649    0.5467 H   0  0  0  0  0  0  0  0  0  0  0  0
   -3.8485    7.0738    0.6362 H   0  0  0  0  0  0  0  0  0  0  0  0
   -4.8645    6.9570    2.0938 H   0  0  0  0  0  0  0  0  0  0  0  0
   -4.6014    4.4768    2.0710 H   0  0  0  0  0  0  0  0  0  0  0  0
   -3.0114    5.3056    2.1886 H   0  0  0  0  0  0  0  0  0  0  0  0
   -2.7006    3.2338   -1.7157 H   0  0  0  0  0  0  0  0  0  0  0  0
   -1.5975    1.0405   -1.8123 H   0  0  0  0  0  0  0  0  0  0  0  0
   -1.0960   -1.0197   -0.7318 H   0  0  0  0  0  0  0  0  0  0  0  0
    0.8388    0.5520    0.9353 H   0  0  0  0  0  0  0  0  0  0  0  0
    2.7086   -0.3548   -3.0329 H   0  0  0  0  0  0  0  0  0  0  0  0
    4.8787    0.7851   -3.4458 H   0  0  0  0  0  0  0  0  0  0  0  0
    3.1420    0.4066    1.2249 H   0  0  0  0  0  0  0  0  0  0  0  0
    5.8857    1.1469    1.7368 H   0  0  0  0  0  0  0  0  0  0  0  0
    5.2228    2.7158    1.1900 H   0  0  0  0  0  0  0  0  0  0  0  0
    7.2316    2.9881    0.0496 H   0  0  0  0  0  0  0  0  0  0  0  0
    8.3573    1.0620    1.1793 H   0  0  0  0  0  0  0  0  0  0  0  0
    7.6288   -0.0515   -0.0015 H   0  0  0  0  0  0  0  0  0  0  0  0
    8.7818    1.1584   -0.5445 H   0  0  0  0  0  0  0  0  0  0  0  0
   -3.1256   -2.1444    2.2200 H   0  0  0  0  0  0  0  0  0  0  0  0
   -3.4343   -1.3267    0.6859 H   0  0  0  0  0  0  0  0  0  0  0  0
   -2.3258   -4.1805    1.0437 H   0  0  0  0  0  0  0  0  0  0  0  0
   -3.9880   -3.7665    0.6632 H   0  0  0  0  0  0  0  0  0  0  0  0
   -3.1510   -2.6465   -1.4885 H   0  0  0  0  0  0  0  0  0  0  0  0
   -1.5379   -3.2835   -1.1245 H   0  0  0  0  0  0  0  0  0  0  0  0
   -1.1549   -5.8400   -1.2889 H   0  0  0  0  0  0  0  0  0  0  0  0
   -2.6359   -7.7292   -2.6652 H   0  0  0  0  0  0  0  0  0  0  0  0
   -4.9524   -4.2733   -2.2930 H   0  0  0  0  0  0  0  0  0  0  0  0
   -1.7556    0.8118    2.5049 H   0  0  0  0  0  0  0  0  0  0  0  0
   -2.8418    2.9831    2.5816 H   0  0  0  0  0  0  0  0  0  0  0  0
  1  2  1  0
  2  3  1  0
  3  4  1  0
  4  5  2  0
  5  6  1  0
  6  7  2  0
  7  8  1  0
  8  9  1  0
  9 10  1  0
 10 11  2  0
 10 12  1  0
 12 13  2  0
 13 14  1  0
 14 15  2  0
 15 16  1  0
 16 17  2  0
 16 18  1  0
 18 19  1  0
 19 20  1  0
 19 21  1  0
  9 22  1  0
 22 23  2  0
 22 24  1  0
 24 25  2  0
 24 26  1  0
 26 27  1  0
 27 28  1  0
 28 29  1  0
 29 30  1  0
 30 31  1  0
 31 32  2  0
 32 33  1  0
 33 34  2  0
  7 35  1  0
 35 36  2  0
 36  4  1  0
 26  8  1  0
 34 30  1  0
 17 12  1  0
 21 15  1  0
  1 37  1  0
  1 38  1  0
  1 39  1  0
  2 40  1  0
  2 41  1  0
  5 42  1  0
  6 43  1  0
  8 44  1  0
  9 45  1  0
 13 46  1  0
 14 47  1  0
 17 48  1  0
 18 49  1  0
 18 50  1  0
 19 51  1  0
 20 52  1  0
 20 53  1  0
 20 54  1  0
 27 55  1  0
 27 56  1  0
 28 57  1  0
 28 58  1  0
 29 59  1  0
 29 60  1  0
 31 61  1  0
 32 62  1  0
 34 63  1  0
 35 64  1  0
 36 65  1  0
M  END
$$$$
