
     RDKit          3D

 47 49  0  0  0  0  0  0  0  0999 V2000
    0.1143    2.0696    1.5811 C   0  0  0  0  0  0  0  0  0  0  0  0
   -0.4836    0.7289    1.6594 N   0  0  0  0  0  0  0  0  0  0  0  0
   -0.7209    0.3080    3.0472 C   0  0  0  0  0  0  0  0  0  0  0  0
   -0.1637   -0.2646    0.6861 C   0  0  0  0  0  0  0  0  0  0  0  0
   -1.3151   -1.2215    0.3412 C   0  0  0  0  0  0  0  0  0  0  0  0
   -2.0062   -0.8553   -0.9105 N   0  0  0  0  0  0  0  0  0  0  0  0
   -2.9457   -1.9209   -1.3251 C   0  0  0  0  0  0  0  0  0  0  0  0
   -4.2067   -2.0475   -0.4479 C   0  0  0  0  0  0  0  0  0  0  0  0
   -4.8619   -0.7620   -0.2155 N   0  0  0  0  0  0  0  0  0  0  0  0
   -6.1703   -0.7573    0.2254 C   0  0  0  0  0  0  0  0  0  0  0  0
   -6.8956   -1.7381    0.3241 O   0  0  0  0  0  0  0  0  0  0  0  0
   -3.9943    0.3728    0.0902 C   0  0  0  0  0  0  0  0  0  0  0  0
   -2.7495    0.4189   -0.8134 C   0  0  0  0  0  0  0  0  0  0  0  0
    1.0311   -0.3811    0.0550 C   0  0  0  0  0  0  0  0  0  0  0  0
    2.1208    0.4391    0.2665 N   0  0  0  0  0  0  0  0  0  0  0  0
    2.9999   -0.0133   -0.5658 C   0  0  0  0  0  0  0  0  0  0  0  0
    4.3616    0.5032   -0.7760 C   0  0  0  0  0  0  0  0  0  0  0  0
    5.2205   -0.0643   -1.7255 C   0  0  0  0  0  0  0  0  0  0  0  0
    6.5073    0.4506   -1.8984 C   0  0  0  0  0  0  0  0  0  0  0  0
    6.9388    1.5295   -1.1269 C   0  0  0  0  0  0  0  0  0  0  0  0
    6.0866    2.0978   -0.1807 C   0  0  0  0  0  0  0  0  0  0  0  0
    4.7995    1.5867   -0.0042 C   0  0  0  0  0  0  0  0  0  0  0  0
    2.6587   -1.0742   -1.3262 O   0  0  0  0  0  0  0  0  0  0  0  0
    1.3858   -1.4139   -0.9741 C   0  0  0  0  0  0  0  0  0  0  0  0
    0.7706   -2.3698   -1.4004 O   0  0  0  0  0  0  0  0  0  0  0  0
    1.1094    2.0900    2.0375 H   0  0  0  0  0  0  0  0  0  0  0  0
    0.1805    2.4130    0.5430 H   0  0  0  0  0  0  0  0  0  0  0  0
   -0.5163    2.7902    2.1139 H   0  0  0  0  0  0  0  0  0  0  0  0
    0.2328    0.1454    3.5616 H   0  0  0  0  0  0  0  0  0  0  0  0
   -1.2814    1.0780    3.5883 H   0  0  0  0  0  0  0  0  0  0  0  0
   -1.3026   -0.6163    3.1054 H   0  0  0  0  0  0  0  0  0  0  0  0
   -0.9185   -2.2418    0.2774 H   0  0  0  0  0  0  0  0  0  0  0  0
   -2.0254   -1.2699    1.1731 H   0  0  0  0  0  0  0  0  0  0  0  0
   -2.4300   -2.8878   -1.3754 H   0  0  0  0  0  0  0  0  0  0  0  0
   -3.2612   -1.7025   -2.3540 H   0  0  0  0  0  0  0  0  0  0  0  0
   -3.9545   -2.4676    0.5332 H   0  0  0  0  0  0  0  0  0  0  0  0
   -4.9178   -2.7350   -0.9200 H   0  0  0  0  0  0  0  0  0  0  0  0
   -6.5339    0.2549    0.4684 H   0  0  0  0  0  0  0  0  0  0  0  0
   -4.5693    1.2997   -0.0182 H   0  0  0  0  0  0  0  0  0  0  0  0
   -3.7108    0.2947    1.1462 H   0  0  0  0  0  0  0  0  0  0  0  0
   -2.0957    1.2417   -0.5072 H   0  0  0  0  0  0  0  0  0  0  0  0
   -3.0751    0.6843   -1.8289 H   0  0  0  0  0  0  0  0  0  0  0  0
    4.9047   -0.9055   -2.3379 H   0  0  0  0  0  0  0  0  0  0  0  0
    7.1741    0.0096   -2.6357 H   0  0  0  0  0  0  0  0  0  0  0  0
    7.9414    1.9281   -1.2636 H   0  0  0  0  0  0  0  0  0  0  0  0
    6.4246    2.9387    0.4204 H   0  0  0  0  0  0  0  0  0  0  0  0
    4.1432    2.0370    0.7381 H   0  0  0  0  0  0  0  0  0  0  0  0
  1  2  1  0
  2  3  1  0
  2  4  1  0
  4  5  1  0
  5  6  1  0
  6  7  1  0
  7  8  1  0
  8  9  1  0
  9 10  1  0
 10 11  2  0
  9 12  1  0
 12 13  1  0
  4 14  2  3
 14 15  1  0
 15 16  2  0
 16 17  1  0
 17 18  2  0
 18 19  1  0
 19 20  2  0
 20 21  1  0
 21 22  2  0
 16 23  1  0
 23 24  1  0
 24 25  2  0
 13  6  1  0
 24 14  1  0
 22 17  1  0
  1 26  1  0
  1 27  1  0
  1 28  1  0
  3 29  1  0
  3 30  1  0
  3 31  1  0
  5 32  1  0
  5 33  1  0
  7 34  1  0
  7 35  1  0
  8 36  1  0
  8 37  1  0
 10 38  1  0
 12 39  1  0
 12 40  1  0
 13 41  1  0
 13 42  1  0
 18 43  1  0
 19 44  1  0
 20 45  1  0
 21 46  1  0
 22 47  1  0
M  END
$$$$
