
     RDKit          3D

 45 47  0  0  0  0  0  0  0  0999 V2000
    3.9277    1.5527    3.7406 C   0  0  0  0  0  0  0  0  0  0  0  0
    3.3415    0.9918    2.4785 C   0  0  0  0  0  0  0  0  0  0  0  0
    4.1705    0.4529    1.4874 C   0  0  0  0  0  0  0  0  0  0  0  0
    3.6236   -0.0981    0.3242 C   0  0  0  0  0  0  0  0  0  0  0  0
    2.2367   -0.1287    0.1481 C   0  0  0  0  0  0  0  0  0  0  0  0
    1.6188   -0.7091   -1.0791 C   0  0  0  0  0  0  0  0  0  0  0  0
    0.4528   -0.2834   -1.4648 N   0  0  0  0  0  0  0  0  0  0  0  0
   -0.1143   -0.8305   -2.5968 N   0  0  0  0  0  0  0  0  0  0  0  0
   -1.3092   -0.1572   -3.1123 C   0  0  0  0  0  0  0  0  0  0  0  0
   -2.5602   -0.4341   -2.2720 C   0  0  0  0  0  0  0  0  0  0  0  0
   -3.6843   -0.1025   -2.6458 O   0  0  0  0  0  0  0  0  0  0  0  0
   -2.3194   -0.9905   -1.0362 N   0  0  0  0  0  0  0  0  0  0  0  0
   -3.3370   -1.0677   -0.0132 C   0  0  0  0  0  0  0  0  0  0  0  0
   -3.3272    0.1625    0.8657 C   0  0  0  0  0  0  0  0  0  0  0  0
   -4.0917    1.2758    0.5215 C   0  0  0  0  0  0  0  0  0  0  0  0
   -4.0370    2.4063    1.3311 C   0  0  0  0  0  0  0  0  0  0  0  0
   -3.2204    2.3999    2.4549 C   0  0  0  0  0  0  0  0  0  0  0  0
   -2.4826    1.2590    2.7205 C   0  0  0  0  0  0  0  0  0  0  0  0
   -2.5082    0.1481    1.9514 N   0  0  0  0  0  0  0  0  0  0  0  0
    0.2761   -2.0474   -3.1467 C   0  0  0  0  0  0  0  0  0  0  0  0
   -0.2676   -2.5707   -4.1177 O   0  0  0  0  0  0  0  0  0  0  0  0
    1.3855   -2.7498   -2.4103 C   0  0  0  0  0  0  0  0  0  0  0  0
    2.3774   -1.7500   -1.8641 C   0  0  0  0  0  0  0  0  0  0  0  0
    1.4042    0.4062    1.1388 C   0  0  0  0  0  0  0  0  0  0  0  0
    1.9542    0.9547    2.2998 C   0  0  0  0  0  0  0  0  0  0  0  0
    3.3216    2.3847    4.1147 H   0  0  0  0  0  0  0  0  0  0  0  0
    4.9373    1.9394    3.5661 H   0  0  0  0  0  0  0  0  0  0  0  0
    3.9755    0.7746    4.5086 H   0  0  0  0  0  0  0  0  0  0  0  0
    5.2515    0.4650    1.6126 H   0  0  0  0  0  0  0  0  0  0  0  0
    4.3004   -0.4807   -0.4340 H   0  0  0  0  0  0  0  0  0  0  0  0
   -1.5095   -0.4801   -4.1385 H   0  0  0  0  0  0  0  0  0  0  0  0
   -1.1221    0.9220   -3.1087 H   0  0  0  0  0  0  0  0  0  0  0  0
   -1.3509   -0.9344   -0.7255 H   0  0  0  0  0  0  0  0  0  0  0  0
   -3.1138   -1.9502    0.5959 H   0  0  0  0  0  0  0  0  0  0  0  0
   -4.3245   -1.2143   -0.4645 H   0  0  0  0  0  0  0  0  0  0  0  0
   -4.7133    1.2659   -0.3699 H   0  0  0  0  0  0  0  0  0  0  0  0
   -4.6252    3.2850    1.0822 H   0  0  0  0  0  0  0  0  0  0  0  0
   -3.1583    3.2645    3.1059 H   0  0  0  0  0  0  0  0  0  0  0  0
   -1.8292    1.2064    3.5864 H   0  0  0  0  0  0  0  0  0  0  0  0
    0.9326   -3.3376   -1.6035 H   0  0  0  0  0  0  0  0  0  0  0  0
    1.8913   -3.4366   -3.0970 H   0  0  0  0  0  0  0  0  0  0  0  0
    3.1089   -2.2715   -1.2406 H   0  0  0  0  0  0  0  0  0  0  0  0
    2.9071   -1.2408   -2.6776 H   0  0  0  0  0  0  0  0  0  0  0  0
    0.3217    0.3946    1.0233 H   0  0  0  0  0  0  0  0  0  0  0  0
    1.2891    1.3539    3.0625 H   0  0  0  0  0  0  0  0  0  0  0  0
  1  2  1  0
  2  3  2  0
  3  4  1  0
  4  5  2  0
  5  6  1  0
  6  7  2  0
  7  8  1  0
  8  9  1  0
  9 10  1  0
 10 11  2  0
 10 12  1  0
 12 13  1  0
 13 14  1  0
 14 15  2  0
 15 16  1  0
 16 17  2  0
 17 18  1  0
 18 19  2  0
  8 20  1  0
 20 21  2  0
 20 22  1  0
 22 23  1  0
  5 24  1  0
 24 25  2  0
 25  2  1  0
 23  6  1  0
 19 14  1  0
  1 26  1  0
  1 27  1  0
  1 28  1  0
  3 29  1  0
  4 30  1  0
  9 31  1  0
  9 32  1  0
 12 33  1  0
 13 34  1  0
 13 35  1  0
 15 36  1  0
 16 37  1  0
 17 38  1  0
 18 39  1  0
 22 40  1  0
 22 41  1  0
 23 42  1  0
 23 43  1  0
 24 44  1  0
 25 45  1  0
M  END
$$$$
