
     RDKit          3D

 59 62  0  0  0  0  0  0  0  0999 V2000
   -5.2173    1.8217   -2.1555 C   0  0  0  0  0  0  0  0  0  0  0  0
   -5.5743    2.4091   -0.8011 C   0  0  0  0  0  0  0  0  0  0  0  0
   -5.6713    1.3958    0.2325 N   0  0  0  0  0  0  0  0  0  0  0  0
   -4.6378    0.7832    0.9193 C   0  0  0  0  0  0  0  0  0  0  0  0
   -3.2260    1.0872    0.7198 C   0  0  0  0  0  0  0  0  0  0  0  0
   -2.8345    2.2407    0.5470 O   0  0  0  0  0  0  0  0  0  0  0  0
   -2.3195    0.0211    0.7239 N   0  0  0  0  0  0  0  0  0  0  0  0
   -2.7007   -1.3682    0.4590 C   0  0  0  0  0  0  0  0  0  0  0  0
   -1.6215   -2.1145   -0.3198 C   0  0  0  0  0  0  0  0  0  0  0  0
   -0.2900   -2.1216    0.4295 C   0  0  0  0  0  0  0  0  0  0  0  0
   -0.0228   -0.8099    1.1850 C   0  0  0  0  0  0  0  0  0  0  0  0
    1.4474   -0.4226    1.1483 C   0  0  0  0  0  0  0  0  0  0  0  0
    2.1274   -0.3890    2.1703 O   0  0  0  0  0  0  0  0  0  0  0  0
    1.9566   -0.1285   -0.0969 N   0  0  0  0  0  0  0  0  0  0  0  0
    3.3548    0.2193   -0.2818 C   0  0  0  0  0  0  0  0  0  0  0  0
    4.2601   -1.0144   -0.2870 C   0  0  0  0  0  0  0  0  0  0  0  0
    5.7005   -0.6478   -0.5390 C   0  0  0  0  0  0  0  0  0  0  0  0
    6.5194   -0.2371    0.5199 C   0  0  0  0  0  0  0  0  0  0  0  0
    7.8489    0.1228    0.2893 C   0  0  0  0  0  0  0  0  0  0  0  0
    8.3782    0.0920   -1.0054 C   0  0  0  0  0  0  0  0  0  0  0  0
    9.8153    0.4457   -1.2484 C   0  0  0  0  0  0  0  0  0  0  0  0
    7.5631   -0.3280   -2.0625 C   0  0  0  0  0  0  0  0  0  0  0  0
    6.2331   -0.6883   -1.8330 C   0  0  0  0  0  0  0  0  0  0  0  0
   -0.8927    0.3451    0.6892 C   0  0  0  0  0  0  0  0  0  0  0  0
   -5.2020   -0.0901    1.8423 C   0  0  0  0  0  0  0  0  0  0  0  0
   -6.6073   -0.0441    1.6419 C   0  0  0  0  0  0  0  0  0  0  0  0
   -8.0450   -0.7751    2.2708 S   0  0  0  0  0  0  0  0  0  0  0  0
   -8.9904    0.1508    1.1728 C   0  0  0  0  0  0  0  0  0  0  0  0
   -8.2553    0.9886    0.3610 C   0  0  0  0  0  0  0  0  0  0  0  0
   -6.8691    0.8583    0.6565 C   0  0  0  0  0  0  0  0  0  0  0  0
   -5.9646    1.0878   -2.4756 H   0  0  0  0  0  0  0  0  0  0  0  0
   -4.2454    1.3181   -2.1291 H   0  0  0  0  0  0  0  0  0  0  0  0
   -5.1699    2.6121   -2.9111 H   0  0  0  0  0  0  0  0  0  0  0  0
   -6.5364    2.9300   -0.8606 H   0  0  0  0  0  0  0  0  0  0  0  0
   -4.8382    3.1540   -0.4871 H   0  0  0  0  0  0  0  0  0  0  0  0
   -3.6366   -1.4017   -0.1076 H   0  0  0  0  0  0  0  0  0  0  0  0
   -2.8628   -1.8543    1.4275 H   0  0  0  0  0  0  0  0  0  0  0  0
   -1.4811   -1.6332   -1.2962 H   0  0  0  0  0  0  0  0  0  0  0  0
   -1.9403   -3.1441   -0.5164 H   0  0  0  0  0  0  0  0  0  0  0  0
    0.5138   -2.3721   -0.2725 H   0  0  0  0  0  0  0  0  0  0  0  0
   -0.2998   -2.9400    1.1618 H   0  0  0  0  0  0  0  0  0  0  0  0
   -0.2754   -0.9820    2.2413 H   0  0  0  0  0  0  0  0  0  0  0  0
    1.3938   -0.2792   -0.9233 H   0  0  0  0  0  0  0  0  0  0  0  0
    3.4254    0.7568   -1.2341 H   0  0  0  0  0  0  0  0  0  0  0  0
    3.6509    0.9126    0.5144 H   0  0  0  0  0  0  0  0  0  0  0  0
    4.1834   -1.5538    0.6656 H   0  0  0  0  0  0  0  0  0  0  0  0
    3.9195   -1.7245   -1.0517 H   0  0  0  0  0  0  0  0  0  0  0  0
    6.1260   -0.1977    1.5343 H   0  0  0  0  0  0  0  0  0  0  0  0
    8.4681    0.4292    1.1295 H   0  0  0  0  0  0  0  0  0  0  0  0
   10.1691    1.1751   -0.5122 H   0  0  0  0  0  0  0  0  0  0  0  0
    9.9437    0.8960   -2.2384 H   0  0  0  0  0  0  0  0  0  0  0  0
   10.4377   -0.4520   -1.1836 H   0  0  0  0  0  0  0  0  0  0  0  0
    7.9599   -0.3765   -3.0741 H   0  0  0  0  0  0  0  0  0  0  0  0
    5.6188   -1.0048   -2.6726 H   0  0  0  0  0  0  0  0  0  0  0  0
   -0.7087    1.2418    1.2938 H   0  0  0  0  0  0  0  0  0  0  0  0
   -0.6536    0.6128   -0.3477 H   0  0  0  0  0  0  0  0  0  0  0  0
   -4.6730   -0.6879    2.5720 H   0  0  0  0  0  0  0  0  0  0  0  0
  -10.0651    0.0306    1.1841 H   0  0  0  0  0  0  0  0  0  0  0  0
   -8.6862    1.6450   -0.3834 H   0  0  0  0  0  0  0  0  0  0  0  0
  1  2  1  0
  2  3  1  0
  3  4  1  0
  4  5  1  0
  5  6  2  0
  5  7  1  0
  7  8  1  0
  8  9  1  0
  9 10  1  0
 10 11  1  0
 11 12  1  0
 12 13  2  0
 12 14  1  0
 14 15  1  0
 15 16  1  0
 16 17  1  0
 17 18  2  0
 18 19  1  0
 19 20  2  0
 20 21  1  0
 20 22  1  0
 22 23  2  0
 11 24  1  0
  4 25  2  0
 25 26  1  0
 26 27  1  0
 27 28  1  0
 28 29  2  0
 29 30  1  0
 30  3  1  0
 24  7  1  0
 30 26  2  0
 23 17  1  0
  1 31  1  0
  1 32  1  0
  1 33  1  0
  2 34  1  0
  2 35  1  0
  8 36  1  0
  8 37  1  0
  9 38  1  0
  9 39  1  0
 10 40  1  0
 10 41  1  0
 11 42  1  0
 14 43  1  0
 15 44  1  0
 15 45  1  0
 16 46  1  0
 16 47  1  0
 18 48  1  0
 19 49  1  0
 21 50  1  0
 21 51  1  0
 21 52  1  0
 22 53  1  0
 23 54  1  0
 24 55  1  0
 24 56  1  0
 25 57  1  0
 28 58  1  0
 29 59  1  0
M  END
$$$$
