
     RDKit          3D

 51 55  0  0  0  0  0  0  0  0999 V2000
    2.0528    0.7102   -2.1764 C   0  0  0  0  0  0  0  0  0  0  0  0
    1.5370    0.8001   -0.7438 C   0  0  0  0  0  0  0  0  0  0  0  0
    2.0535   -0.2762    0.1254 N   0  0  0  0  0  0  0  0  0  0  0  0
    1.5917   -1.5995    0.0350 C   0  0  0  0  0  0  0  0  0  0  0  0
    0.3308   -2.0606    0.1487 C   0  0  0  0  0  0  0  0  0  0  0  0
   -0.8552   -1.2599    0.4784 C   0  0  0  0  0  0  0  0  0  0  0  0
   -0.8383   -0.5181    1.6633 C   0  0  0  0  0  0  0  0  0  0  0  0
   -1.9357    0.2335    2.0346 C   0  0  0  0  0  0  0  0  0  0  0  0
   -3.0580    0.2473    1.2187 C   0  0  0  0  0  0  0  0  0  0  0  0
   -4.1689    1.0218    1.5892 C   0  0  0  0  0  0  0  0  0  0  0  0
   -5.3170    1.0637    0.7946 C   0  0  0  0  0  0  0  0  0  0  0  0
   -6.4852    1.9224    1.1873 C   0  0  0  0  0  0  0  0  0  0  0  0
   -5.3358    0.3436   -0.3974 C   0  0  0  0  0  0  0  0  0  0  0  0
   -4.2352   -0.4348   -0.7771 C   0  0  0  0  0  0  0  0  0  0  0  0
   -3.0751   -0.5145    0.0186 C   0  0  0  0  0  0  0  0  0  0  0  0
   -1.9723   -1.2734   -0.3149 N   0  0  0  0  0  4  0  0  0  0  0  0
   -1.9886   -2.1145   -1.5513 C   0  0  0  0  0  0  0  0  0  0  0  0
   -1.5350   -1.2943   -2.7433 C   0  0  0  0  0  0  0  0  0  0  0  0
    2.8634   -2.8286   -0.1296 S   0  0  0  0  0  0  0  0  0  0  0  0
    4.0800   -1.5495    0.1420 C   0  0  0  0  0  0  0  0  0  0  0  0
    5.4408   -1.7748    0.2041 C   0  0  0  0  0  0  0  0  0  0  0  0
    6.2884   -0.6954    0.4300 C   0  0  0  0  0  0  0  0  0  0  0  0
    5.7382    0.5905    0.6300 C   0  0  0  0  0  0  0  0  0  0  0  0
    6.6375    2.0255    0.9582 S   0  0  0  0  0  0  0  0  0  0  0  0
    5.2280    2.9589    1.1260 C   0  0  0  0  0  0  0  0  0  0  0  0
    4.0916    2.2132    0.9182 C   0  0  0  0  0  0  0  0  0  0  0  0
    4.3567    0.8368    0.5822 C   0  0  0  0  0  0  0  0  0  0  0  0
    3.4973   -0.2586    0.2813 C   0  0  0  0  0  0  0  0  0  0  0  0
    3.1312    0.8876   -2.2317 H   0  0  0  0  0  0  0  0  0  0  0  0
    1.5615    1.4654   -2.7984 H   0  0  0  0  0  0  0  0  0  0  0  0
    1.8516   -0.2722   -2.6147 H   0  0  0  0  0  0  0  0  0  0  0  0
    0.4435    0.7518   -0.7778 H   0  0  0  0  0  0  0  0  0  0  0  0
    1.7513    1.7871   -0.3311 H   0  0  0  0  0  0  0  0  0  0  0  0
    0.1545   -3.1340    0.1082 H   0  0  0  0  0  0  0  0  0  0  0  0
    0.0414   -0.5241    2.3078 H   0  0  0  0  0  0  0  0  0  0  0  0
   -1.9009    0.8059    2.9613 H   0  0  0  0  0  0  0  0  0  0  0  0
   -4.1480    1.6056    2.5109 H   0  0  0  0  0  0  0  0  0  0  0  0
   -6.3551    2.9342    0.7911 H   0  0  0  0  0  0  0  0  0  0  0  0
   -7.4222    1.5082    0.8004 H   0  0  0  0  0  0  0  0  0  0  0  0
   -6.5799    1.9769    2.2769 H   0  0  0  0  0  0  0  0  0  0  0  0
   -6.2130    0.3837   -1.0439 H   0  0  0  0  0  0  0  0  0  0  0  0
   -4.3343   -0.9555   -1.7243 H   0  0  0  0  0  0  0  0  0  0  0  0
   -2.9920   -2.5259   -1.6892 H   0  0  0  0  0  0  0  0  0  0  0  0
   -1.3504   -2.9901   -1.4161 H   0  0  0  0  0  0  0  0  0  0  0  0
   -2.1698   -0.4170   -2.8975 H   0  0  0  0  0  0  0  0  0  0  0  0
   -0.5103   -0.9389   -2.6090 H   0  0  0  0  0  0  0  0  0  0  0  0
   -1.5661   -1.9010   -3.6533 H   0  0  0  0  0  0  0  0  0  0  0  0
    5.8520   -2.7721    0.0773 H   0  0  0  0  0  0  0  0  0  0  0  0
    7.3647   -0.8456    0.4781 H   0  0  0  0  0  0  0  0  0  0  0  0
    5.2958    4.0082    1.3805 H   0  0  0  0  0  0  0  0  0  0  0  0
    3.1072    2.6469    1.0216 H   0  0  0  0  0  0  0  0  0  0  0  0
  1  2  1  0
  2  3  1  0
  3  4  1  0
  4  5  2  3
  5  6  1  0
  6  7  2  0
  7  8  1  0
  8  9  2  0
  9 10  1  0
 10 11  2  0
 11 12  1  0
 11 13  1  0
 13 14  2  0
 14 15  1  0
 15 16  2  0
 16 17  1  0
 17 18  1  0
  4 19  1  0
 19 20  1  0
 20 21  2  0
 21 22  1  0
 22 23  2  0
 23 24  1  0
 24 25  1  0
 25 26  2  0
 26 27  1  0
 27 28  2  0
 28  3  1  0
 16  6  1  0
 28 20  1  0
 15  9  1  0
 27 23  1  0
  1 29  1  0
  1 30  1  0
  1 31  1  0
  2 32  1  0
  2 33  1  0
  5 34  1  0
  7 35  1  0
  8 36  1  0
 10 37  1  0
 12 38  1  0
 12 39  1  0
 12 40  1  0
 13 41  1  0
 14 42  1  0
 17 43  1  0
 17 44  1  0
 18 45  1  0
 18 46  1  0
 18 47  1  0
 21 48  1  0
 22 49  1  0
 25 50  1  0
 26 51  1  0
M  CHG  1  16   1
M  END
$$$$
