
     RDKit          3D

 54 58  0  0  0  0  0  0  0  0999 V2000
   -8.4760    1.1256    2.2242 O   0  0  0  0  0  0  0  0  0  0  0  0
   -7.5579    0.6291    2.8504 C   0  0  0  0  0  0  0  0  0  0  0  0
   -7.7187    0.2220    4.1216 O   0  0  0  0  0  0  0  0  0  0  0  0
   -6.1844    0.4006    2.3418 C   0  0  0  0  0  0  0  0  0  0  0  0
   -5.1837   -0.1735    3.1265 C   0  0  0  0  0  0  0  0  0  0  0  0
   -3.8993   -0.3688    2.5989 C   0  0  0  0  0  0  0  0  0  0  0  0
   -3.5829   -0.0057    1.2795 C   0  0  0  0  0  0  0  0  0  0  0  0
   -2.2689   -0.2178    0.7538 N   0  0  0  0  0  0  0  0  0  0  0  0
   -1.1220   -0.2243    1.5892 C   0  0  0  0  0  0  0  0  0  0  0  0
   -1.0029   -0.0939    2.7951 O   0  0  0  0  0  0  0  0  0  0  0  0
    0.0255   -0.4030    0.6368 C   0  0  0  0  0  0  0  0  0  0  0  0
    1.2869   -0.4403    1.0836 C   0  0  0  0  0  0  0  0  0  0  0  0
    2.4379   -0.6201    0.2706 C   0  0  0  0  0  0  0  0  0  0  0  0
    2.6600   -1.4042   -0.8548 C   0  0  0  0  0  0  0  0  0  0  0  0
    4.0067   -1.2253   -1.2556 C   0  0  0  0  0  0  0  0  0  0  0  0
    4.5694   -0.3512   -0.3526 C   0  0  0  0  0  0  0  0  0  0  0  0
    5.8961    0.2388   -0.1837 C   0  0  0  0  0  0  0  0  0  0  0  0
    6.1603    1.1499    0.8537 C   0  0  0  0  0  0  0  0  0  0  0  0
    7.4296    1.7176    1.0148 C   0  0  0  0  0  0  0  0  0  0  0  0
    8.4550    1.3728    0.1287 C   0  0  0  0  0  0  0  0  0  0  0  0
    9.7889    1.9646    0.2888 N   0  0  0  0  0  4  0  0  0  0  0  0
    9.9536    2.7764    1.2107 O   0  0  0  0  0  0  0  0  0  0  0  0
   10.6721    1.6180   -0.5088 O   0  0  0  0  0  1  0  0  0  0  0  0
    8.2164    0.4673   -0.9112 C   0  0  0  0  0  0  0  0  0  0  0  0
    6.9418   -0.0928   -1.0613 C   0  0  0  0  0  0  0  0  0  0  0  0
    3.6299    0.0004    0.5707 O   0  0  0  0  0  0  0  0  0  0  0  0
   -0.5347   -0.4884   -0.6827 C   0  0  0  0  0  0  0  0  0  0  0  0
   -1.8686   -0.3780   -0.5763 C   0  0  0  0  0  0  0  0  0  0  0  0
   -2.7407   -0.5527   -1.7389 C   0  0  0  0  0  0  0  0  0  0  0  0
   -2.6873    0.3485   -2.8121 C   0  0  0  0  0  0  0  0  0  0  0  0
   -3.5083    0.1689   -3.9273 C   0  0  0  0  0  0  0  0  0  0  0  0
   -4.3825   -0.9154   -3.9830 C   0  0  0  0  0  0  0  0  0  0  0  0
   -4.4362   -1.8231   -2.9264 C   0  0  0  0  0  0  0  0  0  0  0  0
   -3.6158   -1.6458   -1.8107 C   0  0  0  0  0  0  0  0  0  0  0  0
   -4.5999    0.5818    0.5124 C   0  0  0  0  0  0  0  0  0  0  0  0
   -5.8864    0.7808    1.0323 C   0  0  0  0  0  0  0  0  0  0  0  0
   -8.6544    0.4346    4.3207 H   0  0  0  0  0  0  0  0  0  0  0  0
   -5.3844   -0.4775    4.1513 H   0  0  0  0  0  0  0  0  0  0  0  0
   -3.1633   -0.8409    3.2456 H   0  0  0  0  0  0  0  0  0  0  0  0
    1.4763   -0.2880    2.1447 H   0  0  0  0  0  0  0  0  0  0  0  0
    1.9359   -2.0533   -1.3270 H   0  0  0  0  0  0  0  0  0  0  0  0
    4.5007   -1.6914   -2.0958 H   0  0  0  0  0  0  0  0  0  0  0  0
    5.3723    1.4294    1.5522 H   0  0  0  0  0  0  0  0  0  0  0  0
    7.5949    2.4195    1.8298 H   0  0  0  0  0  0  0  0  0  0  0  0
    9.0029    0.1875   -1.6093 H   0  0  0  0  0  0  0  0  0  0  0  0
    6.7792   -0.7946   -1.8765 H   0  0  0  0  0  0  0  0  0  0  0  0
    0.0162   -0.6410   -1.5961 H   0  0  0  0  0  0  0  0  0  0  0  0
   -2.0136    1.2026   -2.7831 H   0  0  0  0  0  0  0  0  0  0  0  0
   -3.4661    0.8751   -4.7529 H   0  0  0  0  0  0  0  0  0  0  0  0
   -5.0224   -1.0541   -4.8510 H   0  0  0  0  0  0  0  0  0  0  0  0
   -5.1167   -2.6697   -2.9707 H   0  0  0  0  0  0  0  0  0  0  0  0
   -3.6673   -2.3640   -0.9947 H   0  0  0  0  0  0  0  0  0  0  0  0
   -4.4147    0.9426   -0.4940 H   0  0  0  0  0  0  0  0  0  0  0  0
   -6.6483    1.2443    0.4080 H   0  0  0  0  0  0  0  0  0  0  0  0
  1  2  2  0
  2  3  1  0
  2  4  1  0
  4  5  2  0
  5  6  1  0
  6  7  2  0
  7  8  1  0
  8  9  1  0
  9 10  2  0
  9 11  1  0
 11 12  2  3
 12 13  1  0
 13 14  2  0
 14 15  1  0
 15 16  2  0
 16 17  1  0
 17 18  2  0
 18 19  1  0
 19 20  2  0
 20 21  1  0
 21 22  2  0
 21 23  1  0
 20 24  1  0
 24 25  2  0
 16 26  1  0
 11 27  1  0
 27 28  2  0
 28 29  1  0
 29 30  2  0
 30 31  1  0
 31 32  2  0
 32 33  1  0
 33 34  2  0
  7 35  1  0
 35 36  2  0
 36  4  1  0
 28  8  1  0
 34 29  1  0
 26 13  1  0
 25 17  1  0
  3 37  1  0
  5 38  1  0
  6 39  1  0
 12 40  1  0
 14 41  1  0
 15 42  1  0
 18 43  1  0
 19 44  1  0
 24 45  1  0
 25 46  1  0
 27 47  1  0
 30 48  1  0
 31 49  1  0
 32 50  1  0
 33 51  1  0
 34 52  1  0
 35 53  1  0
 36 54  1  0
M  CHG  2  21   1  23  -1
M  END
$$$$
