
     RDKit          3D

 50 52  0  0  0  0  0  0  0  0999 V2000
    1.9469    0.6073   -2.3828 O   0  0  0  0  0  0  0  0  0  0  0  0
    2.0346   -0.7642   -1.9513 C   0  0  0  0  0  0  0  0  0  0  0  0
    3.5171   -1.1783   -1.9582 C   0  0  0  0  0  0  0  0  0  0  0  0
    4.2360   -0.2855   -1.1011 O   0  0  0  0  0  0  0  0  0  0  0  0
    5.3015   -0.9587   -0.3968 C   0  0  0  0  0  0  0  0  0  0  0  0
    6.2377    0.1056    0.0801 C   0  0  0  0  0  0  0  0  0  0  0  0
    6.7373    1.1913   -0.6171 C   0  0  0  0  0  0  0  0  0  0  0  0
    7.6338    1.9766    0.1703 C   0  0  0  0  0  0  0  0  0  0  0  0
    7.7660    1.4892    1.4578 C   0  0  0  0  0  0  0  0  0  0  0  0
    6.8627    0.0505    1.6835 S   0  0  0  0  0  0  0  0  0  0  0  0
    1.4315   -0.9056   -0.5266 C   0  0  0  0  0  0  0  0  0  0  0  0
   -0.0367   -1.0843   -0.4877 N   0  0  0  0  0  0  0  0  0  0  0  0
   -0.4807   -1.2936    0.9163 C   0  0  0  0  0  0  0  0  0  0  0  0
   -2.0078   -1.4513    1.0465 C   0  0  0  0  0  0  0  0  0  0  0  0
   -2.6909   -0.2657    0.4909 N   0  0  0  0  0  0  0  0  0  0  0  0
   -4.0731   -0.1558    0.7026 C   0  0  0  0  0  0  0  0  0  0  0  0
   -4.9137   -1.2508    0.9463 C   0  0  0  0  0  0  0  0  0  0  0  0
   -6.2849   -1.0823    1.1623 C   0  0  0  0  0  0  0  0  0  0  0  0
   -6.8402    0.1928    1.1467 C   0  0  0  0  0  0  0  0  0  0  0  0
   -6.0318    1.3123    0.9071 C   0  0  0  0  0  0  0  0  0  0  0  0
   -6.6304    2.6935    0.9266 C   0  0  0  0  0  0  0  0  0  0  0  0
   -7.8492    2.7517    0.3088 F   0  0  0  0  0  0  0  0  0  0  0  0
   -6.8443    3.1420    2.1914 F   0  0  0  0  0  0  0  0  0  0  0  0
   -5.8647    3.6403    0.3115 F   0  0  0  0  0  0  0  0  0  0  0  0
   -4.6571    1.1228    0.6863 C   0  0  0  0  0  0  0  0  0  0  0  0
   -2.2989   -0.0093   -0.9159 C   0  0  0  0  0  0  0  0  0  0  0  0
   -0.7577    0.0844   -1.0561 C   0  0  0  0  0  0  0  0  0  0  0  0
    2.7077    1.0589   -1.9651 H   0  0  0  0  0  0  0  0  0  0  0  0
    1.4865   -1.3844   -2.6722 H   0  0  0  0  0  0  0  0  0  0  0  0
    3.6246   -2.2259   -1.6488 H   0  0  0  0  0  0  0  0  0  0  0  0
    3.9379   -1.0673   -2.9604 H   0  0  0  0  0  0  0  0  0  0  0  0
    5.8521   -1.6752   -1.0540 H   0  0  0  0  0  0  0  0  0  0  0  0
    4.8389   -1.5114    0.4566 H   0  0  0  0  0  0  0  0  0  0  0  0
    6.4683    1.3991   -1.6551 H   0  0  0  0  0  0  0  0  0  0  0  0
    8.1405    2.8699   -0.1790 H   0  0  0  0  0  0  0  0  0  0  0  0
    8.3730    1.8939    2.2733 H   0  0  0  0  0  0  0  0  0  0  0  0
    1.8743   -1.7986   -0.0583 H   0  0  0  0  0  0  0  0  0  0  0  0
    1.7162   -0.0330    0.0847 H   0  0  0  0  0  0  0  0  0  0  0  0
   -0.0116   -2.2063    1.3168 H   0  0  0  0  0  0  0  0  0  0  0  0
   -0.1573   -0.4522    1.5497 H   0  0  0  0  0  0  0  0  0  0  0  0
   -2.3173   -2.3661    0.5244 H   0  0  0  0  0  0  0  0  0  0  0  0
   -2.2523   -1.5610    2.1124 H   0  0  0  0  0  0  0  0  0  0  0  0
   -4.5237   -2.2624    0.9528 H   0  0  0  0  0  0  0  0  0  0  0  0
   -6.9155   -1.9507    1.3418 H   0  0  0  0  0  0  0  0  0  0  0  0
   -7.9092    0.3143    1.3218 H   0  0  0  0  0  0  0  0  0  0  0  0
   -4.0173    1.9915    0.5219 H   0  0  0  0  0  0  0  0  0  0  0  0
   -2.7252    0.9335   -1.2762 H   0  0  0  0  0  0  0  0  0  0  0  0
   -2.6752   -0.8154   -1.5618 H   0  0  0  0  0  0  0  0  0  0  0  0
   -0.5416    0.1641   -2.1291 H   0  0  0  0  0  0  0  0  0  0  0  0
   -0.4166    1.0096   -0.5706 H   0  0  0  0  0  0  0  0  0  0  0  0
  1  2  1  0
  2  3  1  0
  3  4  1  0
  4  5  1  0
  5  6  1  0
  6  7  2  0
  7  8  1  0
  8  9  2  0
  9 10  1  0
  2 11  1  0
 11 12  1  0
 12 13  1  0
 13 14  1  0
 14 15  1  0
 15 16  1  0
 16 17  2  0
 17 18  1  0
 18 19  2  0
 19 20  1  0
 20 21  1  0
 21 22  1  0
 21 23  1  0
 21 24  1  0
 20 25  2  0
 15 26  1  0
 26 27  1  0
 10  6  1  0
 27 12  1  0
 25 16  1  0
  1 28  1  0
  2 29  1  0
  3 30  1  0
  3 31  1  0
  5 32  1  0
  5 33  1  0
  7 34  1  0
  8 35  1  0
  9 36  1  0
 11 37  1  0
 11 38  1  0
 13 39  1  0
 13 40  1  0
 14 41  1  0
 14 42  1  0
 17 43  1  0
 18 44  1  0
 19 45  1  0
 25 46  1  0
 26 47  1  0
 26 48  1  0
 27 49  1  0
 27 50  1  0
M  END
$$$$
