
     RDKit          3D

 49 51  0  0  0  0  0  0  0  0999 V2000
    8.9980   -2.4255    3.0870 N   0  0  0  0  0  0  0  0  0  0  0  0
    7.9520   -2.2419    2.6173 C   0  0  0  0  0  0  0  0  0  0  0  0
    6.6588   -2.0439    2.0326 C   0  0  0  0  0  0  0  0  0  0  0  0
    6.2157   -0.7580    1.9937 N   0  0  0  0  0  0  0  0  0  0  0  0
    4.9883   -0.5715    1.4393 C   0  0  0  0  0  0  0  0  0  0  0  0
    4.2033   -1.6095    0.9374 C   0  0  0  0  0  0  0  0  0  0  0  0
    2.8672   -1.4191    0.3385 C   0  0  0  0  0  0  0  0  0  0  0  0
    2.3743   -2.3271   -0.6182 C   0  0  0  0  0  0  0  0  0  0  0  0
    1.1066   -2.1743   -1.1891 C   0  0  0  0  0  0  0  0  0  0  0  0
    0.2901   -1.1136   -0.8072 C   0  0  0  0  0  0  0  0  0  0  0  0
    0.7707   -0.1702    0.1030 C   0  0  0  0  0  0  0  0  0  0  0  0
    2.0304   -0.3439    0.6919 C   0  0  0  0  0  0  0  0  0  0  0  0
    0.0543    0.9097    0.5435 O   0  0  0  0  0  0  0  0  0  0  0  0
   -0.2309    1.8588   -0.4933 C   0  0  0  0  0  0  0  0  0  0  0  0
   -1.0680    2.9782    0.1329 C   0  0  0  0  0  0  0  0  0  0  0  0
   -1.7082    3.8128   -0.8338 O   0  0  0  0  0  0  0  0  0  0  0  0
   -2.9136    3.2637   -1.3758 C   0  0  0  0  0  0  0  0  0  0  0  0
   -4.1048    3.3817   -0.4139 C   0  0  0  0  0  0  0  0  0  0  0  0
   -5.3047    2.7461   -0.8588 O   0  0  0  0  0  0  0  0  0  0  0  0
   -5.2112    1.3594   -1.1915 C   0  0  0  0  0  0  0  0  0  0  0  0
   -4.6500    0.4621   -0.0787 C   0  0  0  0  0  0  0  0  0  0  0  0
   -4.4709   -0.8940   -0.4989 O   0  0  0  0  0  0  0  0  0  0  0  0
   -3.3158   -1.1063   -1.3130 C   0  0  0  0  0  0  0  0  0  0  0  0
   -2.0201   -1.2272   -0.5052 C   0  0  0  0  0  0  0  0  0  0  0  0
   -0.9301   -1.0401   -1.4185 O   0  0  0  0  0  0  0  0  0  0  0  0
    4.6691   -2.8879    0.9773 N   0  0  0  0  0  0  0  0  0  0  0  0
    5.9000   -3.0877    1.5321 C   0  0  0  0  0  0  0  0  0  0  0  0
    6.3520   -4.4471    1.5583 C   0  0  0  0  0  0  0  0  0  0  0  0
    6.7361   -5.5425    1.5863 N   0  0  0  0  0  0  0  0  0  0  0  0
    4.6651    0.4644    1.4031 H   0  0  0  0  0  0  0  0  0  0  0  0
    2.9811   -3.1774   -0.9294 H   0  0  0  0  0  0  0  0  0  0  0  0
    0.7546   -2.8959   -1.9222 H   0  0  0  0  0  0  0  0  0  0  0  0
    2.3370    0.3801    1.4436 H   0  0  0  0  0  0  0  0  0  0  0  0
    0.7023    2.2762   -0.8918 H   0  0  0  0  0  0  0  0  0  0  0  0
   -0.7707    1.4002   -1.3248 H   0  0  0  0  0  0  0  0  0  0  0  0
   -1.7932    2.5704    0.8446 H   0  0  0  0  0  0  0  0  0  0  0  0
   -0.4036    3.6185    0.7248 H   0  0  0  0  0  0  0  0  0  0  0  0
   -2.7407    2.2330   -1.6936 H   0  0  0  0  0  0  0  0  0  0  0  0
   -3.1470    3.8224   -2.2892 H   0  0  0  0  0  0  0  0  0  0  0  0
   -4.3363    4.4450   -0.2802 H   0  0  0  0  0  0  0  0  0  0  0  0
   -3.8660    3.0232    0.5912 H   0  0  0  0  0  0  0  0  0  0  0  0
   -6.2254    1.0185   -1.4313 H   0  0  0  0  0  0  0  0  0  0  0  0
   -4.6571    1.2569   -2.1285 H   0  0  0  0  0  0  0  0  0  0  0  0
   -5.3605    0.4562    0.7555 H   0  0  0  0  0  0  0  0  0  0  0  0
   -3.7140    0.8495    0.3302 H   0  0  0  0  0  0  0  0  0  0  0  0
   -3.4725   -2.0434   -1.8596 H   0  0  0  0  0  0  0  0  0  0  0  0
   -3.2265   -0.3301   -2.0799 H   0  0  0  0  0  0  0  0  0  0  0  0
   -1.9655   -2.2218   -0.0452 H   0  0  0  0  0  0  0  0  0  0  0  0
   -1.9994   -0.4872    0.2989 H   0  0  0  0  0  0  0  0  0  0  0  0
  1  2  3  0
  2  3  1  0
  3  4  2  0
  4  5  1  0
  5  6  2  0
  6  7  1  0
  7  8  2  0
  8  9  1  0
  9 10  2  0
 10 11  1  0
 11 12  2  0
 11 13  1  0
 13 14  1  0
 14 15  1  0
 15 16  1  0
 16 17  1  0
 17 18  1  0
 18 19  1  0
 19 20  1  0
 20 21  1  0
 21 22  1  0
 22 23  1  0
 23 24  1  0
 24 25  1  0
  6 26  1  0
 26 27  2  0
 27 28  1  0
 28 29  3  0
 27  3  1  0
 12  7  1  0
 25 10  1  0
  5 30  1  0
  8 31  1  0
  9 32  1  0
 12 33  1  0
 14 34  1  0
 14 35  1  0
 15 36  1  0
 15 37  1  0
 17 38  1  0
 17 39  1  0
 18 40  1  0
 18 41  1  0
 20 42  1  0
 20 43  1  0
 21 44  1  0
 21 45  1  0
 23 46  1  0
 23 47  1  0
 24 48  1  0
 24 49  1  0
M  END
$$$$
