
     RDKit          3D

 40 41  0  0  0  0  0  0  0  0999 V2000
   -1.5583    0.9976    2.6828 C   0  0  0  0  0  0  0  0  0  0  0  0
   -2.7271    1.1853    1.7801 C   0  0  0  0  0  0  0  0  0  0  0  0
   -3.7906    1.8797    2.2036 N   0  0  0  0  0  0  0  0  0  0  0  0
   -4.6322    1.8702    1.1608 N   0  0  0  0  0  0  0  0  0  0  0  0
   -5.9135    2.5294    1.2967 C   0  0  0  0  0  0  0  0  0  0  0  0
   -4.1500    1.1893    0.0691 C   0  0  0  0  0  0  0  0  0  0  0  0
   -4.9409    1.0457   -1.1772 C   0  0  0  0  0  0  0  0  0  0  0  0
   -2.8864    0.7401    0.4334 C   0  0  0  0  0  0  0  0  0  0  0  0
   -1.9743   -0.0167   -0.3962 C   0  0  0  0  0  0  0  0  0  0  0  0
   -0.8735   -0.4470    0.1184 N   0  0  0  0  0  0  0  0  0  0  0  0
   -0.0445   -1.1627   -0.6921 N   0  0  0  0  0  0  0  0  0  0  0  0
    1.1485   -1.6354   -0.1712 C   0  0  0  0  0  0  0  0  0  0  0  0
    1.5269   -1.4734    0.9816 O   0  0  0  0  0  0  0  0  0  0  0  0
    1.9640   -2.4019   -1.1869 C   0  0  0  0  0  0  0  0  0  0  0  0
    3.3150   -2.8354   -0.6227 C   0  0  0  0  0  0  0  0  0  0  0  0
    4.3711   -1.8430   -0.7599 N   0  0  0  0  0  0  0  0  0  0  0  0
    4.3602   -0.5301   -0.3809 C   0  0  0  0  0  0  0  0  0  0  0  0
    5.5982   -0.0247   -0.7099 C   0  0  0  0  0  0  0  0  0  0  0  0
    6.0703    1.3128   -0.5378 N   0  0  0  0  0  4  0  0  0  0  0  0
    7.2735    1.5101   -0.7585 O   0  0  0  0  0  0  0  0  0  0  0  0
    5.2390    2.1694   -0.2036 O   0  0  0  0  0  1  0  0  0  0  0  0
    6.2959   -1.1159   -1.2641 C   0  0  0  0  0  0  0  0  0  0  0  0
    5.5483   -2.2249   -1.3078 N   0  0  0  0  0  0  0  0  0  0  0  0
   -0.6702    1.4824    2.2530 H   0  0  0  0  0  0  0  0  0  0  0  0
   -1.7294    1.4369    3.6753 H   0  0  0  0  0  0  0  0  0  0  0  0
   -1.3462   -0.0700    2.8224 H   0  0  0  0  0  0  0  0  0  0  0  0
   -5.9831    2.9821    2.2881 H   0  0  0  0  0  0  0  0  0  0  0  0
   -6.7029    1.7805    1.1753 H   0  0  0  0  0  0  0  0  0  0  0  0
   -5.9900    3.3032    0.5266 H   0  0  0  0  0  0  0  0  0  0  0  0
   -5.9563    0.7055   -0.9633 H   0  0  0  0  0  0  0  0  0  0  0  0
   -4.4943    0.3226   -1.8559 H   0  0  0  0  0  0  0  0  0  0  0  0
   -4.9958    2.0020   -1.7062 H   0  0  0  0  0  0  0  0  0  0  0  0
   -2.2602   -0.2080   -1.4455 H   0  0  0  0  0  0  0  0  0  0  0  0
   -0.3056   -1.3227   -1.6573 H   0  0  0  0  0  0  0  0  0  0  0  0
    2.0844   -1.7937   -2.0905 H   0  0  0  0  0  0  0  0  0  0  0  0
    1.3877   -3.2976   -1.4476 H   0  0  0  0  0  0  0  0  0  0  0  0
    3.6478   -3.7149   -1.1839 H   0  0  0  0  0  0  0  0  0  0  0  0
    3.2780   -3.1148    0.4355 H   0  0  0  0  0  0  0  0  0  0  0  0
    3.5041   -0.0626    0.0947 H   0  0  0  0  0  0  0  0  0  0  0  0
    7.3123   -1.1493   -1.6305 H   0  0  0  0  0  0  0  0  0  0  0  0
  1  2  1  0
  2  3  2  0
  3  4  1  0
  4  5  1  0
  4  6  1  0
  6  7  1  0
  6  8  2  0
  8  9  1  0
  9 10  2  3
 10 11  1  0
 11 12  1  0
 12 13  2  0
 12 14  1  0
 14 15  1  0
 15 16  1  0
 16 17  1  0
 17 18  2  0
 18 19  1  0
 19 20  2  0
 19 21  1  0
 18 22  1  0
 22 23  2  0
  8  2  1  0
 23 16  1  0
  1 24  1  0
  1 25  1  0
  1 26  1  0
  5 27  1  0
  5 28  1  0
  5 29  1  0
  7 30  1  0
  7 31  1  0
  7 32  1  0
  9 33  1  0
 11 34  1  0
 14 35  1  0
 14 36  1  0
 15 37  1  0
 15 38  1  0
 17 39  1  0
 22 40  1  0
M  CHG  2  19   1  21  -1
M  END
$$$$
