
     RDKit          3D

 44 46  0  0  0  0  0  0  0  0999 V2000
    7.2081   -2.0066   -2.3282 C   0  0  0  0  0  0  0  0  0  0  0  0
    6.0259   -1.3579   -1.6697 C   0  0  0  0  0  0  0  0  0  0  0  0
    5.4982   -1.8874   -0.4858 C   0  0  0  0  0  0  0  0  0  0  0  0
    4.3779   -1.3059    0.1154 C   0  0  0  0  0  0  0  0  0  0  0  0
    3.7653   -0.1902   -0.4688 C   0  0  0  0  0  0  0  0  0  0  0  0
    2.5706    0.4667    0.1258 C   0  0  0  0  0  0  0  0  0  0  0  0
    1.9756    1.3973   -0.3989 O   0  0  0  0  0  0  0  0  0  0  0  0
    2.2394   -0.1099    1.3053 O   0  0  0  0  0  0  0  0  0  0  0  0
    1.1263    0.4705    1.9871 C   0  0  0  0  0  0  0  0  0  0  0  0
   -0.2390    0.0145    1.4642 C   0  0  0  0  0  0  0  0  0  0  0  0
   -0.9759   -0.7157    2.1206 O   0  0  0  0  0  0  0  0  0  0  0  0
   -0.5577    0.5048    0.2169 N   0  0  0  0  0  0  0  0  0  0  0  0
   -1.8492    0.2829   -0.4155 C   0  0  0  0  0  0  0  0  0  0  0  0
   -2.7676    1.5141   -0.2883 C   0  0  0  0  0  0  0  0  0  0  0  0
   -3.9815    1.4374   -1.2123 C   0  0  0  0  0  0  0  0  0  0  0  0
   -4.8327    0.3377   -0.8813 O   0  0  0  0  0  0  0  0  0  0  0  0
   -5.0777    0.3001    0.4678 C   0  0  0  0  0  0  0  0  0  0  0  0
   -6.1608   -0.4702    0.8875 C   0  0  0  0  0  0  0  0  0  0  0  0
   -6.4726   -0.5485    2.2457 C   0  0  0  0  0  0  0  0  0  0  0  0
   -5.6970    0.1379    3.1815 C   0  0  0  0  0  0  0  0  0  0  0  0
   -4.6036    0.8975    2.7615 C   0  0  0  0  0  0  0  0  0  0  0  0
   -4.2872    0.9706    1.4064 C   0  0  0  0  0  0  0  0  0  0  0  0
   -3.1838    1.7135    1.0732 O   0  0  0  0  0  0  0  0  0  0  0  0
    4.2824    0.3309   -1.6617 C   0  0  0  0  0  0  0  0  0  0  0  0
    5.4024   -0.2526   -2.2600 C   0  0  0  0  0  0  0  0  0  0  0  0
    7.7712   -1.2818   -2.9254 H   0  0  0  0  0  0  0  0  0  0  0  0
    7.8953   -2.4137   -1.5791 H   0  0  0  0  0  0  0  0  0  0  0  0
    6.8735   -2.8180   -2.9818 H   0  0  0  0  0  0  0  0  0  0  0  0
    5.9570   -2.7589   -0.0226 H   0  0  0  0  0  0  0  0  0  0  0  0
    3.9937   -1.7394    1.0356 H   0  0  0  0  0  0  0  0  0  0  0  0
    1.1797    1.5662    1.9752 H   0  0  0  0  0  0  0  0  0  0  0  0
    1.1993    0.1686    3.0378 H   0  0  0  0  0  0  0  0  0  0  0  0
    0.1250    1.1034   -0.2487 H   0  0  0  0  0  0  0  0  0  0  0  0
   -2.3081   -0.6095    0.0214 H   0  0  0  0  0  0  0  0  0  0  0  0
   -1.6380    0.0797   -1.4706 H   0  0  0  0  0  0  0  0  0  0  0  0
   -2.1918    2.4066   -0.5634 H   0  0  0  0  0  0  0  0  0  0  0  0
   -4.5743    2.3599   -1.1562 H   0  0  0  0  0  0  0  0  0  0  0  0
   -3.6658    1.3123   -2.2536 H   0  0  0  0  0  0  0  0  0  0  0  0
   -6.7635   -1.0035    0.1581 H   0  0  0  0  0  0  0  0  0  0  0  0
   -7.3179   -1.1472    2.5748 H   0  0  0  0  0  0  0  0  0  0  0  0
   -5.9356    0.0724    4.2398 H   0  0  0  0  0  0  0  0  0  0  0  0
   -3.9865    1.4149    3.4905 H   0  0  0  0  0  0  0  0  0  0  0  0
    3.8159    1.1935   -2.1336 H   0  0  0  0  0  0  0  0  0  0  0  0
    5.7851    0.1630   -3.1901 H   0  0  0  0  0  0  0  0  0  0  0  0
  1  2  1  0
  2  3  2  0
  3  4  1  0
  4  5  2  0
  5  6  1  0
  6  7  2  0
  6  8  1  0
  8  9  1  0
  9 10  1  0
 10 11  2  0
 10 12  1  0
 12 13  1  0
 13 14  1  0
 14 15  1  0
 15 16  1  0
 16 17  1  0
 17 18  2  0
 18 19  1  0
 19 20  2  0
 20 21  1  0
 21 22  2  0
 22 23  1  0
  5 24  1  0
 24 25  2  0
 25  2  1  0
 23 14  1  0
 22 17  1  0
  1 26  1  0
  1 27  1  0
  1 28  1  0
  3 29  1  0
  4 30  1  0
  9 31  1  0
  9 32  1  0
 12 33  1  0
 13 34  1  0
 13 35  1  0
 14 36  1  0
 15 37  1  0
 15 38  1  0
 18 39  1  0
 19 40  1  0
 20 41  1  0
 21 42  1  0
 24 43  1  0
 25 44  1  0
M  END
$$$$
