
     RDKit          3D

 49 52  0  0  0  0  0  0  0  0999 V2000
    6.1011   -2.2668    1.9814 C   0  0  0  0  0  0  0  0  0  0  0  0
    6.3065   -1.1770    0.9688 C   0  0  0  0  0  0  0  0  0  0  0  0
    7.5962   -0.6893    0.7086 C   0  0  0  0  0  0  0  0  0  0  0  0
    7.7898    0.3210   -0.2347 C   0  0  0  0  0  0  0  0  0  0  0  0
    9.3785    0.9065   -0.5437 Cl  0  0  0  0  0  0  0  0  0  0  0  0
    6.7095    0.8541   -0.9333 C   0  0  0  0  0  0  0  0  0  0  0  0
    5.4221    0.3775   -0.6833 C   0  0  0  0  0  0  0  0  0  0  0  0
    5.2180   -0.6201    0.2770 C   0  0  0  0  0  0  0  0  0  0  0  0
    3.9686   -1.1465    0.5118 O   0  0  0  0  0  0  0  0  0  0  0  0
    2.9208   -0.3607    0.7762 C   0  0  0  0  0  0  0  0  0  0  0  0
    2.9950    0.9363    0.9836 N   0  0  0  0  0  0  0  0  0  0  0  0
    1.7347    1.4373    1.2430 C   0  0  0  0  0  0  0  0  0  0  0  0
    0.7082    0.5139    1.2412 C   0  0  0  0  0  0  0  0  0  0  0  0
   -0.7520    0.7201    1.4998 C   0  0  0  0  0  0  0  0  0  0  0  0
   -1.3302    1.7451    0.6160 N   0  0  0  0  0  0  0  0  0  0  0  0
   -2.6932    2.1209    1.0614 C   0  0  0  0  0  0  0  0  0  0  0  0
   -3.7913    1.0516    0.8378 C   0  0  0  0  0  0  0  0  0  0  0  0
   -3.8020    0.5881   -0.5682 N   0  0  0  0  0  0  0  0  0  0  0  0
   -4.9018   -0.2201   -0.9016 C   0  0  0  0  0  0  0  0  0  0  0  0
   -4.7794   -1.5078   -1.4462 C   0  0  0  0  0  0  0  0  0  0  0  0
   -5.9033   -2.2781   -1.7721 C   0  0  0  0  0  0  0  0  0  0  0  0
   -7.1820   -1.7707   -1.5719 C   0  0  0  0  0  0  0  0  0  0  0  0
   -7.3352   -0.4910   -1.0531 C   0  0  0  0  0  0  0  0  0  0  0  0
   -6.2079    0.2714   -0.7281 C   0  0  0  0  0  0  0  0  0  0  0  0
   -2.4722    0.1947   -1.0747 C   0  0  0  0  0  0  0  0  0  0  0  0
   -1.4258    1.3001   -0.7966 C   0  0  0  0  0  0  0  0  0  0  0  0
    1.3498   -1.0406    0.9025 S   0  0  0  0  0  0  0  0  0  0  0  0
    5.6291   -3.1364    1.5128 H   0  0  0  0  0  0  0  0  0  0  0  0
    7.0511   -2.5981    2.4135 H   0  0  0  0  0  0  0  0  0  0  0  0
    5.4693   -1.9078    2.8001 H   0  0  0  0  0  0  0  0  0  0  0  0
    8.4524   -1.0973    1.2405 H   0  0  0  0  0  0  0  0  0  0  0  0
    6.8602    1.6371   -1.6711 H   0  0  0  0  0  0  0  0  0  0  0  0
    4.5826    0.7919   -1.2353 H   0  0  0  0  0  0  0  0  0  0  0  0
    1.6125    2.4985    1.4276 H   0  0  0  0  0  0  0  0  0  0  0  0
   -0.8350    1.0590    2.5416 H   0  0  0  0  0  0  0  0  0  0  0  0
   -1.2998   -0.2276    1.4452 H   0  0  0  0  0  0  0  0  0  0  0  0
   -2.6752    2.4100    2.1195 H   0  0  0  0  0  0  0  0  0  0  0  0
   -2.9813    3.0298    0.5160 H   0  0  0  0  0  0  0  0  0  0  0  0
   -4.7463    1.5065    1.1225 H   0  0  0  0  0  0  0  0  0  0  0  0
   -3.6249    0.1973    1.5061 H   0  0  0  0  0  0  0  0  0  0  0  0
   -3.8055   -1.9546   -1.6186 H   0  0  0  0  0  0  0  0  0  0  0  0
   -5.7732   -3.2750   -2.1847 H   0  0  0  0  0  0  0  0  0  0  0  0
   -8.0539   -2.3657   -1.8286 H   0  0  0  0  0  0  0  0  0  0  0  0
   -8.3287   -0.0751   -0.9103 H   0  0  0  0  0  0  0  0  0  0  0  0
   -6.3632    1.2834   -0.3635 H   0  0  0  0  0  0  0  0  0  0  0  0
   -2.1457   -0.7435   -0.6101 H   0  0  0  0  0  0  0  0  0  0  0  0
   -2.5149    0.0412   -2.1602 H   0  0  0  0  0  0  0  0  0  0  0  0
   -0.4470    0.9770   -1.1692 H   0  0  0  0  0  0  0  0  0  0  0  0
   -1.6852    2.1798   -1.4015 H   0  0  0  0  0  0  0  0  0  0  0  0
  1  2  1  0
  2  3  2  0
  3  4  1  0
  4  5  1  0
  4  6  2  0
  6  7  1  0
  7  8  2  0
  8  9  1  0
  9 10  1  0
 10 11  2  0
 11 12  1  0
 12 13  2  0
 13 14  1  0
 14 15  1  0
 15 16  1  0
 16 17  1  0
 17 18  1  0
 18 19  1  0
 19 20  2  0
 20 21  1  0
 21 22  2  0
 22 23  1  0
 23 24  2  0
 18 25  1  0
 25 26  1  0
 13 27  1  0
  8  2  1  0
 27 10  1  0
 26 15  1  0
 24 19  1  0
  1 28  1  0
  1 29  1  0
  1 30  1  0
  3 31  1  0
  6 32  1  0
  7 33  1  0
 12 34  1  0
 14 35  1  0
 14 36  1  0
 16 37  1  0
 16 38  1  0
 17 39  1  0
 17 40  1  0
 20 41  1  0
 21 42  1  0
 22 43  1  0
 23 44  1  0
 24 45  1  0
 25 46  1  0
 25 47  1  0
 26 48  1  0
 26 49  1  0
M  END
$$$$
