
     RDKit          3D

 67 72  0  0  0  0  0  0  0  0999 V2000
    1.9034    2.3075    1.0718 O   0  0  0  0  0  0  0  0  0  0  0  0
    1.9582    1.1814    0.5714 C   0  0  0  0  0  0  0  0  0  0  0  0
    0.7088    0.3010    0.4864 C   0  0  0  0  0  0  0  0  0  0  0  0
   -0.4260    0.8461    1.3787 C   0  0  0  0  0  0  0  0  0  0  0  0
   -1.2425    1.9888    0.7604 C   0  0  0  0  0  0  0  0  0  0  0  0
   -1.3297    1.9272   -0.7642 C   0  0  0  0  0  0  0  0  0  0  0  0
   -1.0756    0.5671   -1.2379 N   0  0  0  0  0  0  0  0  0  0  0  0
   -2.0826   -0.3980   -1.1178 C   0  0  0  0  0  0  0  0  0  0  0  0
   -1.7294   -1.7208   -1.1945 N   0  0  0  0  0  0  0  0  0  0  0  0
   -2.6731   -2.6791   -1.1002 C   0  0  0  0  0  0  0  0  0  0  0  0
   -3.9933   -2.5292   -0.9170 N   0  0  0  0  0  0  0  0  0  0  0  0
   -4.3183   -1.2293   -0.8424 C   0  0  0  0  0  0  0  0  0  0  0  0
   -3.4682   -0.1361   -0.9320 C   0  0  0  0  0  0  0  0  0  0  0  0
   -4.1987    1.0332   -0.7968 N   0  0  0  0  0  0  0  0  0  0  0  0
   -5.4535    0.6646   -0.6306 C   0  0  0  0  0  0  0  0  0  0  0  0
   -5.5674   -0.7038   -0.6561 N   0  0  0  0  0  0  0  0  0  0  0  0
   -6.7924   -1.4551   -0.4952 C   0  0  0  0  0  0  0  0  0  0  0  0
   -7.4614   -1.2201    0.8572 C   0  0  0  0  0  0  0  0  0  0  0  0
   -8.1974    0.1179    0.9610 C   0  0  0  0  0  0  0  0  0  0  0  0
   -7.3008    1.3577    0.9179 C   0  0  0  0  0  0  0  0  0  0  0  0
   -6.6122    1.5789   -0.4275 C   0  0  0  0  0  0  0  0  0  0  0  0
    0.3027    0.1289   -0.9915 C   0  0  0  0  0  0  0  0  0  0  0  0
    3.1442    0.6935    0.0289 N   0  0  0  0  0  0  0  0  0  0  0  0
    3.4628   -0.7332   -0.1415 C   0  0  0  0  0  0  0  0  0  0  0  0
    4.3305   -1.2399    1.0339 C   0  0  0  0  0  0  0  0  0  0  0  0
    5.5322   -0.3937    1.2288 N   0  0  0  0  0  0  0  0  0  0  0  0
    6.7284   -0.6954    0.5705 C   0  0  0  0  0  0  0  0  0  0  0  0
    7.9272   -0.0781    0.9714 C   0  0  0  0  0  0  0  0  0  0  0  0
    9.1501   -0.3478    0.3467 C   0  0  0  0  0  0  0  0  0  0  0  0
    9.2093   -1.2614   -0.6970 C   0  0  0  0  0  0  0  0  0  0  0  0
    8.0485   -1.9102   -1.1004 C   0  0  0  0  0  0  0  0  0  0  0  0
    6.8289   -1.6346   -0.4672 C   0  0  0  0  0  0  0  0  0  0  0  0
    5.1983    1.0538    1.3640 C   0  0  0  0  0  0  0  0  0  0  0  0
    4.3505    1.5244    0.1630 C   0  0  0  0  0  0  0  0  0  0  0  0
    0.9724   -0.6735    0.9137 H   0  0  0  0  0  0  0  0  0  0  0  0
   -1.1139    0.0159    1.5901 H   0  0  0  0  0  0  0  0  0  0  0  0
   -0.0423    1.1599    2.3575 H   0  0  0  0  0  0  0  0  0  0  0  0
   -0.8162    2.9557    1.0526 H   0  0  0  0  0  0  0  0  0  0  0  0
   -2.2508    1.9675    1.1915 H   0  0  0  0  0  0  0  0  0  0  0  0
   -0.5476    2.5788   -1.1781 H   0  0  0  0  0  0  0  0  0  0  0  0
   -2.2604    2.3574   -1.1443 H   0  0  0  0  0  0  0  0  0  0  0  0
   -2.3164   -3.7014   -1.1808 H   0  0  0  0  0  0  0  0  0  0  0  0
   -6.5540   -2.5192   -0.5967 H   0  0  0  0  0  0  0  0  0  0  0  0
   -7.4546   -1.1891   -1.3271 H   0  0  0  0  0  0  0  0  0  0  0  0
   -8.1993   -2.0165    1.0142 H   0  0  0  0  0  0  0  0  0  0  0  0
   -6.7286   -1.3047    1.6694 H   0  0  0  0  0  0  0  0  0  0  0  0
   -8.9552    0.1832    0.1700 H   0  0  0  0  0  0  0  0  0  0  0  0
   -8.7439    0.1289    1.9127 H   0  0  0  0  0  0  0  0  0  0  0  0
   -7.9350    2.2298    1.1207 H   0  0  0  0  0  0  0  0  0  0  0  0
   -6.5619    1.3121    1.7279 H   0  0  0  0  0  0  0  0  0  0  0  0
   -6.2444    2.6117   -0.4649 H   0  0  0  0  0  0  0  0  0  0  0  0
   -7.3261    1.4713   -1.2524 H   0  0  0  0  0  0  0  0  0  0  0  0
    0.4794   -0.9053   -1.3119 H   0  0  0  0  0  0  0  0  0  0  0  0
    0.9536    0.7246   -1.6457 H   0  0  0  0  0  0  0  0  0  0  0  0
    4.0035   -0.8258   -1.0900 H   0  0  0  0  0  0  0  0  0  0  0  0
    2.5649   -1.3462   -0.2215 H   0  0  0  0  0  0  0  0  0  0  0  0
    3.7354   -1.1832    1.9549 H   0  0  0  0  0  0  0  0  0  0  0  0
    4.5861   -2.2983    0.9098 H   0  0  0  0  0  0  0  0  0  0  0  0
    7.9305    0.6103    1.8134 H   0  0  0  0  0  0  0  0  0  0  0  0
   10.0527    0.1521    0.6886 H   0  0  0  0  0  0  0  0  0  0  0  0
   10.1555   -1.4754   -1.1848 H   0  0  0  0  0  0  0  0  0  0  0  0
    8.0850   -2.6366   -1.9080 H   0  0  0  0  0  0  0  0  0  0  0  0
    5.9588   -2.1717   -0.8279 H   0  0  0  0  0  0  0  0  0  0  0  0
    4.6203    1.1796    2.2884 H   0  0  0  0  0  0  0  0  0  0  0  0
    6.0804    1.6945    1.4604 H   0  0  0  0  0  0  0  0  0  0  0  0
    4.0899    2.5813    0.2781 H   0  0  0  0  0  0  0  0  0  0  0  0
    4.9204    1.4258   -0.7688 H   0  0  0  0  0  0  0  0  0  0  0  0
  1  2  2  0
  2  3  1  0
  3  4  1  0
  4  5  1  0
  5  6  1  0
  6  7  1  0
  7  8  1  0
  8  9  2  0
  9 10  1  0
 10 11  2  0
 11 12  1  0
 12 13  2  0
 13 14  1  0
 14 15  2  0
 15 16  1  0
 16 17  1  0
 17 18  1  0
 18 19  1  0
 19 20  1  0
 20 21  1  0
  7 22  1  0
  2 23  1  0
 23 24  1  0
 24 25  1  0
 25 26  1  0
 26 27  1  0
 27 28  2  0
 28 29  1  0
 29 30  2  0
 30 31  1  0
 31 32  2  0
 26 33  1  0
 33 34  1  0
 22  3  1  0
 34 23  1  0
 13  8  1  0
 21 15  1  0
 32 27  1  0
 16 12  1  0
  3 35  1  0
  4 36  1  0
  4 37  1  0
  5 38  1  0
  5 39  1  0
  6 40  1  0
  6 41  1  0
 10 42  1  0
 17 43  1  0
 17 44  1  0
 18 45  1  0
 18 46  1  0
 19 47  1  0
 19 48  1  0
 20 49  1  0
 20 50  1  0
 21 51  1  0
 21 52  1  0
 22 53  1  0
 22 54  1  0
 24 55  1  0
 24 56  1  0
 25 57  1  0
 25 58  1  0
 28 59  1  0
 29 60  1  0
 30 61  1  0
 31 62  1  0
 32 63  1  0
 33 64  1  0
 33 65  1  0
 34 66  1  0
 34 67  1  0
M  END
$$$$
