
     RDKit          3D

 34 36  0  0  0  0  0  0  0  0999 V2000
    3.2906   -2.0531   -1.6275 C   0  0  0  0  0  0  0  0  0  0  0  0
    3.5598   -1.0320   -0.5629 C   0  0  0  0  0  0  0  0  0  0  0  0
    4.6143   -0.1513   -0.6952 C   0  0  0  0  0  0  0  0  0  0  0  0
    4.7827    0.7516    0.3287 C   0  0  0  0  0  0  0  0  0  0  0  0
    3.9869    0.8062    1.4102 N   0  0  0  0  0  0  0  0  0  0  0  0
    2.9810   -0.0815    1.4496 C   0  0  0  0  0  0  0  0  0  0  0  0
    1.9180   -0.0592    2.8689 S   0  0  0  0  0  0  0  0  0  0  0  0
    0.3783    0.4416    2.2031 C   0  0  0  0  0  0  0  0  0  0  0  0
   -0.3916    1.4838    2.7509 C   0  0  0  0  0  0  0  0  0  0  0  0
   -1.5706    1.5508    2.0435 C   0  0  0  0  0  0  0  0  0  0  0  0
   -2.6312    2.3096    2.3238 O   0  0  0  0  0  0  0  0  0  0  0  0
   -1.5089    0.6272    0.9933 N   0  0  0  0  0  0  0  0  0  0  0  0
   -2.4701    0.4838   -0.0593 C   0  0  0  0  0  0  0  0  0  0  0  0
   -2.7083   -0.7657   -0.6472 C   0  0  0  0  0  0  0  0  0  0  0  0
   -3.6498   -0.8962   -1.6733 C   0  0  0  0  0  0  0  0  0  0  0  0
   -4.3477    0.2223   -2.1215 C   0  0  0  0  0  0  0  0  0  0  0  0
   -5.6162    0.0439   -3.5110 Br  0  0  0  0  0  0  0  0  0  0  0  0
   -4.1115    1.4730   -1.5565 C   0  0  0  0  0  0  0  0  0  0  0  0
   -3.1728    1.6055   -0.5287 C   0  0  0  0  0  0  0  0  0  0  0  0
   -0.3259   -0.1042    1.1460 C   0  0  0  0  0  0  0  0  0  0  0  0
    0.0051   -1.0964    0.3163 O   0  0  0  0  0  0  0  0  0  0  0  0
    2.7327   -1.0149    0.5050 N   0  0  0  0  0  0  0  0  0  0  0  0
    3.0747   -1.5585   -2.5796 H   0  0  0  0  0  0  0  0  0  0  0  0
    4.1578   -2.7094   -1.7506 H   0  0  0  0  0  0  0  0  0  0  0  0
    2.4285   -2.6738   -1.3626 H   0  0  0  0  0  0  0  0  0  0  0  0
    5.2756   -0.1637   -1.5516 H   0  0  0  0  0  0  0  0  0  0  0  0
    5.5882    1.4803    0.3082 H   0  0  0  0  0  0  0  0  0  0  0  0
   -0.1545    2.0932    3.6133 H   0  0  0  0  0  0  0  0  0  0  0  0
   -3.4263    1.8863    1.9528 H   0  0  0  0  0  0  0  0  0  0  0  0
   -2.1975   -1.6621   -0.3042 H   0  0  0  0  0  0  0  0  0  0  0  0
   -3.8285   -1.8749   -2.1112 H   0  0  0  0  0  0  0  0  0  0  0  0
   -4.6389    2.3525   -1.9174 H   0  0  0  0  0  0  0  0  0  0  0  0
   -2.9685    2.6046   -0.1478 H   0  0  0  0  0  0  0  0  0  0  0  0
    0.9446   -1.3241    0.4945 H   0  0  0  0  0  0  0  0  0  0  0  0
  1  2  1  0
  2  3  2  0
  3  4  1  0
  4  5  2  0
  5  6  1  0
  6  7  1  0
  7  8  1  0
  8  9  1  0
  9 10  2  0
 10 11  1  0
 10 12  1  0
 12 13  1  0
 13 14  2  0
 14 15  1  0
 15 16  2  0
 16 17  1  0
 16 18  1  0
 18 19  2  0
 12 20  1  0
 20 21  1  0
  6 22  2  0
 22  2  1  0
 20  8  2  0
 19 13  1  0
  1 23  1  0
  1 24  1  0
  1 25  1  0
  3 26  1  0
  4 27  1  0
  9 28  1  0
 11 29  1  0
 14 30  1  0
 15 31  1  0
 18 32  1  0
 19 33  1  0
 21 34  1  0
M  END
$$$$
