
     RDKit          3D

 55 59  0  0  0  0  0  0  0  0999 V2000
    3.9640    2.2225   -0.1696 C   0  0  0  0  0  0  0  0  0  0  0  0
    3.8613    0.8051    0.0746 N   0  0  0  0  0  0  0  0  0  0  0  0
    2.7328    0.1199    0.4731 C   0  0  0  0  0  0  0  0  0  0  0  0
    1.5190    0.7324    0.5948 N   0  0  0  0  0  0  0  0  0  0  0  0
    0.5942    0.0924    1.5620 C   0  0  0  0  0  0  0  0  0  0  0  0
   -0.2298   -1.0539    0.9262 C   0  0  0  0  0  0  0  0  0  0  0  0
   -0.9761   -0.6904   -0.3135 N   0  0  0  0  0  0  0  0  0  0  0  0
   -2.1213    0.2278   -0.0406 C   0  0  0  0  0  0  0  0  0  0  0  0
   -2.8495    0.6885   -1.3120 C   0  0  0  0  0  0  0  0  0  0  0  0
   -3.1744    2.0459   -1.4809 C   0  0  0  0  0  0  0  0  0  0  0  0
   -3.8479    2.4812   -2.6241 C   0  0  0  0  0  0  0  0  0  0  0  0
   -4.2106    1.5677   -3.6115 C   0  0  0  0  0  0  0  0  0  0  0  0
   -3.9037    0.2178   -3.4570 C   0  0  0  0  0  0  0  0  0  0  0  0
   -3.2313   -0.2197   -2.3147 C   0  0  0  0  0  0  0  0  0  0  0  0
   -3.1446   -0.3514    0.9472 C   0  0  0  0  0  0  0  0  0  0  0  0
   -3.6074   -1.6746    0.8419 C   0  0  0  0  0  0  0  0  0  0  0  0
   -4.5492   -2.1764    1.7417 C   0  0  0  0  0  0  0  0  0  0  0  0
   -5.0480   -1.3621    2.7557 C   0  0  0  0  0  0  0  0  0  0  0  0
   -4.6075   -0.0454    2.8705 C   0  0  0  0  0  0  0  0  0  0  0  0
   -3.6648    0.4585    1.9719 C   0  0  0  0  0  0  0  0  0  0  0  0
    0.0257   -0.1035   -1.2441 C   0  0  0  0  0  0  0  0  0  0  0  0
    0.8435    1.0819   -0.6762 C   0  0  0  0  0  0  0  0  0  0  0  0
    3.0236   -1.1316    0.7481 N   0  0  0  0  0  0  0  0  0  0  0  0
    4.3522   -1.2845    0.4481 C   0  0  0  0  0  0  0  0  0  0  0  0
    5.1576   -2.4305    0.5271 C   0  0  0  0  0  0  0  0  0  0  0  0
    6.5052   -2.3347    0.1600 C   0  0  0  0  0  0  0  0  0  0  0  0
    7.0411   -1.1212   -0.2750 C   0  0  0  0  0  0  0  0  0  0  0  0
    6.2537    0.0334   -0.3570 C   0  0  0  0  0  0  0  0  0  0  0  0
    4.9082   -0.0863    0.0129 C   0  0  0  0  0  0  0  0  0  0  0  0
    3.8650    2.3922   -1.2445 H   0  0  0  0  0  0  0  0  0  0  0  0
    3.1811    2.7553    0.3751 H   0  0  0  0  0  0  0  0  0  0  0  0
    4.9361    2.5793    0.1809 H   0  0  0  0  0  0  0  0  0  0  0  0
   -0.0804    0.8652    1.9491 H   0  0  0  0  0  0  0  0  0  0  0  0
    1.1420   -0.2845    2.4356 H   0  0  0  0  0  0  0  0  0  0  0  0
    0.4453   -1.8807    0.6695 H   0  0  0  0  0  0  0  0  0  0  0  0
   -0.8992   -1.4741    1.6841 H   0  0  0  0  0  0  0  0  0  0  0  0
   -1.7128    1.1315    0.4289 H   0  0  0  0  0  0  0  0  0  0  0  0
   -2.9104    2.7741   -0.7177 H   0  0  0  0  0  0  0  0  0  0  0  0
   -4.0955    3.5329   -2.7415 H   0  0  0  0  0  0  0  0  0  0  0  0
   -4.7377    1.9063   -4.4995 H   0  0  0  0  0  0  0  0  0  0  0  0
   -4.1893   -0.4975   -4.2237 H   0  0  0  0  0  0  0  0  0  0  0  0
   -2.9947   -1.2764   -2.2094 H   0  0  0  0  0  0  0  0  0  0  0  0
   -3.2225   -2.3242    0.0587 H   0  0  0  0  0  0  0  0  0  0  0  0
   -4.8924   -3.2033    1.6488 H   0  0  0  0  0  0  0  0  0  0  0  0
   -5.7826   -1.7534    3.4544 H   0  0  0  0  0  0  0  0  0  0  0  0
   -5.0016    0.5912    3.6583 H   0  0  0  0  0  0  0  0  0  0  0  0
   -3.3414    1.4915    2.0748 H   0  0  0  0  0  0  0  0  0  0  0  0
   -0.4381    0.2017   -2.1877 H   0  0  0  0  0  0  0  0  0  0  0  0
    0.7220   -0.9048   -1.5274 H   0  0  0  0  0  0  0  0  0  0  0  0
    1.5643    1.4111   -1.4342 H   0  0  0  0  0  0  0  0  0  0  0  0
    0.1876    1.9410   -0.4936 H   0  0  0  0  0  0  0  0  0  0  0  0
    4.7328   -3.3685    0.8663 H   0  0  0  0  0  0  0  0  0  0  0  0
    7.1383   -3.2168    0.2160 H   0  0  0  0  0  0  0  0  0  0  0  0
    8.0916   -1.0711   -0.5542 H   0  0  0  0  0  0  0  0  0  0  0  0
    6.6764    0.9735   -0.6936 H   0  0  0  0  0  0  0  0  0  0  0  0
  1  2  1  0
  2  3  1  0
  3  4  1  0
  4  5  1  0
  5  6  1  0
  6  7  1  0
  7  8  1  0
  8  9  1  0
  9 10  2  0
 10 11  1  0
 11 12  2  0
 12 13  1  0
 13 14  2  0
  8 15  1  0
 15 16  2  0
 16 17  1  0
 17 18  2  0
 18 19  1  0
 19 20  2  0
  7 21  1  0
 21 22  1  0
  3 23  2  0
 23 24  1  0
 24 25  2  0
 25 26  1  0
 26 27  2  0
 27 28  1  0
 28 29  2  0
 29  2  1  0
 22  4  1  0
 29 24  1  0
 14  9  1  0
 20 15  1  0
  1 30  1  0
  1 31  1  0
  1 32  1  0
  5 33  1  0
  5 34  1  0
  6 35  1  0
  6 36  1  0
  8 37  1  0
 10 38  1  0
 11 39  1  0
 12 40  1  0
 13 41  1  0
 14 42  1  0
 16 43  1  0
 17 44  1  0
 18 45  1  0
 19 46  1  0
 20 47  1  0
 21 48  1  0
 21 49  1  0
 22 50  1  0
 22 51  1  0
 25 52  1  0
 26 53  1  0
 27 54  1  0
 28 55  1  0
M  END
$$$$
