
     RDKit          3D

 54 58  0  0  0  0  0  0  0  0999 V2000
   -7.8578    1.9615    3.5256 O   0  0  0  0  0  0  0  0  0  0  0  0
   -7.5762    1.0725    2.7437 C   0  0  0  0  0  0  0  0  0  0  0  0
   -8.5201    0.2486    2.2552 O   0  0  0  0  0  0  0  0  0  0  0  0
   -6.2215    0.7668    2.2251 C   0  0  0  0  0  0  0  0  0  0  0  0
   -5.1477    1.5415    2.6656 C   0  0  0  0  0  0  0  0  0  0  0  0
   -3.8517    1.2852    2.1972 C   0  0  0  0  0  0  0  0  0  0  0  0
   -3.5951    0.2586    1.2743 C   0  0  0  0  0  0  0  0  0  0  0  0
   -2.2685    0.0108    0.7982 N   0  0  0  0  0  0  0  0  0  0  0  0
   -1.1234    0.3221    1.5757 C   0  0  0  0  0  0  0  0  0  0  0  0
   -1.0119    0.8272    2.6793 O   0  0  0  0  0  0  0  0  0  0  0  0
    0.0285   -0.1678    0.7456 C   0  0  0  0  0  0  0  0  0  0  0  0
    1.2884   -0.0321    1.1775 C   0  0  0  0  0  0  0  0  0  0  0  0
    2.4478   -0.4631    0.4783 C   0  0  0  0  0  0  0  0  0  0  0  0
    2.6792   -1.5580   -0.3451 C   0  0  0  0  0  0  0  0  0  0  0  0
    4.0328   -1.5172   -0.7606 C   0  0  0  0  0  0  0  0  0  0  0  0
    4.5907   -0.4092   -0.1635 C   0  0  0  0  0  0  0  0  0  0  0  0
    5.9199    0.1988   -0.1641 C   0  0  0  0  0  0  0  0  0  0  0  0
    6.1881    1.3618    0.5787 C   0  0  0  0  0  0  0  0  0  0  0  0
    7.4603    1.9454    0.5788 C   0  0  0  0  0  0  0  0  0  0  0  0
    8.4846    1.3621   -0.1735 C   0  0  0  0  0  0  0  0  0  0  0  0
    9.8220    1.9676   -0.1799 N   0  0  0  0  0  4  0  0  0  0  0  0
    9.9934    2.9960    0.4897 O   0  0  0  0  0  0  0  0  0  0  0  0
   10.7013    1.4141   -0.8557 O   0  0  0  0  0  1  0  0  0  0  0  0
    8.2419    0.2041   -0.9208 C   0  0  0  0  0  0  0  0  0  0  0  0
    6.9646   -0.3694   -0.9119 C   0  0  0  0  0  0  0  0  0  0  0  0
    3.6413    0.2149    0.5899 O   0  0  0  0  0  0  0  0  0  0  0  0
   -0.5260   -0.7008   -0.4672 C   0  0  0  0  0  0  0  0  0  0  0  0
   -1.8619   -0.5843   -0.4000 C   0  0  0  0  0  0  0  0  0  0  0  0
   -2.7118   -0.9114   -1.5464 C   0  0  0  0  0  0  0  0  0  0  0  0
   -2.7960   -2.2297   -2.0175 C   0  0  0  0  0  0  0  0  0  0  0  0
   -3.5940   -2.5358   -3.1219 C   0  0  0  0  0  0  0  0  0  0  0  0
   -4.3067   -1.5276   -3.7687 C   0  0  0  0  0  0  0  0  0  0  0  0
   -4.2222   -0.2124   -3.3148 C   0  0  0  0  0  0  0  0  0  0  0  0
   -3.4250    0.0961   -2.2110 C   0  0  0  0  0  0  0  0  0  0  0  0
   -4.6864   -0.5172    0.8541 C   0  0  0  0  0  0  0  0  0  0  0  0
   -5.9859   -0.2677    1.3184 C   0  0  0  0  0  0  0  0  0  0  0  0
   -9.3456    0.5635    2.6798 H   0  0  0  0  0  0  0  0  0  0  0  0
   -5.3075    2.3522    3.3743 H   0  0  0  0  0  0  0  0  0  0  0  0
   -3.0562    1.9341    2.5560 H   0  0  0  0  0  0  0  0  0  0  0  0
    1.4696    0.4749    2.1237 H   0  0  0  0  0  0  0  0  0  0  0  0
    1.9569   -2.3190   -0.6048 H   0  0  0  0  0  0  0  0  0  0  0  0
    4.5345   -2.2229   -1.4069 H   0  0  0  0  0  0  0  0  0  0  0  0
    5.4011    1.8285    1.1701 H   0  0  0  0  0  0  0  0  0  0  0  0
    7.6287    2.8454    1.1667 H   0  0  0  0  0  0  0  0  0  0  0  0
    9.0275   -0.2628   -1.5117 H   0  0  0  0  0  0  0  0  0  0  0  0
    6.7988   -1.2693   -1.5004 H   0  0  0  0  0  0  0  0  0  0  0  0
    0.0351   -1.0617   -1.3136 H   0  0  0  0  0  0  0  0  0  0  0  0
   -2.2498   -3.0290   -1.5216 H   0  0  0  0  0  0  0  0  0  0  0  0
   -3.6602   -3.5610   -3.4776 H   0  0  0  0  0  0  0  0  0  0  0  0
   -4.9281   -1.7663   -4.6284 H   0  0  0  0  0  0  0  0  0  0  0  0
   -4.7765    0.5745   -3.8205 H   0  0  0  0  0  0  0  0  0  0  0  0
   -3.3667    1.1280   -1.8700 H   0  0  0  0  0  0  0  0  0  0  0  0
   -4.5556   -1.3643    0.1886 H   0  0  0  0  0  0  0  0  0  0  0  0
   -6.8010   -0.8966    0.9682 H   0  0  0  0  0  0  0  0  0  0  0  0
  1  2  2  0
  2  3  1  0
  2  4  1  0
  4  5  2  0
  5  6  1  0
  6  7  2  0
  7  8  1  0
  8  9  1  0
  9 10  2  0
  9 11  1  0
 11 12  2  3
 12 13  1  0
 13 14  2  0
 14 15  1  0
 15 16  2  0
 16 17  1  0
 17 18  2  0
 18 19  1  0
 19 20  2  0
 20 21  1  0
 21 22  2  0
 21 23  1  0
 20 24  1  0
 24 25  2  0
 16 26  1  0
 11 27  1  0
 27 28  2  0
 28 29  1  0
 29 30  2  0
 30 31  1  0
 31 32  2  0
 32 33  1  0
 33 34  2  0
  7 35  1  0
 35 36  2  0
 36  4  1  0
 28  8  1  0
 34 29  1  0
 26 13  1  0
 25 17  1  0
  3 37  1  0
  5 38  1  0
  6 39  1  0
 12 40  1  0
 14 41  1  0
 15 42  1  0
 18 43  1  0
 19 44  1  0
 24 45  1  0
 25 46  1  0
 27 47  1  0
 30 48  1  0
 31 49  1  0
 32 50  1  0
 33 51  1  0
 34 52  1  0
 35 53  1  0
 36 54  1  0
M  CHG  2  21   1  23  -1
M  END
$$$$
