
     RDKit          3D

 63 67  0  0  0  0  0  0  0  0999 V2000
    9.0119    1.8411   -2.4625 C   0  0  0  0  0  0  0  0  0  0  0  0
    8.5364    1.6748   -1.1349 O   0  0  0  0  0  0  0  0  0  0  0  0
    7.2073    1.3759   -0.9663 C   0  0  0  0  0  0  0  0  0  0  0  0
    6.2926    1.2239   -2.0112 C   0  0  0  0  0  0  0  0  0  0  0  0
    4.9546    0.9182   -1.7418 C   0  0  0  0  0  0  0  0  0  0  0  0
    4.4993    0.7565   -0.4262 C   0  0  0  0  0  0  0  0  0  0  0  0
    3.0901    0.4338   -0.1486 C   0  0  0  0  0  0  0  0  0  0  0  0
    2.0511    1.2356   -0.6554 C   0  0  0  0  0  0  0  0  0  0  0  0
    0.7086    0.9345   -0.3967 C   0  0  0  0  0  0  0  0  0  0  0  0
    0.3791   -0.1844    0.3709 C   0  0  0  0  0  0  0  0  0  0  0  0
    1.3992   -0.9674    0.8916 C   0  0  0  0  0  0  0  0  0  0  0  0
    2.7444   -0.6786    0.6344 C   0  0  0  0  0  0  0  0  0  0  0  0
    0.9832   -2.3379    1.9010 S   0  0  0  0  0  6  0  0  0  0  0  0
    1.8223   -3.4401    1.4730 O   0  0  0  0  0  0  0  0  0  0  0  0
    0.9731   -1.8698    3.2709 O   0  0  0  0  0  0  0  0  0  0  0  0
   -0.6673   -2.7909    1.5076 C   0  0  0  0  0  0  0  0  0  0  0  0
   -1.1098   -4.0822    1.8214 C   0  0  0  0  0  0  0  0  0  0  0  0
   -2.4029   -4.4687    1.4754 C   0  0  0  0  0  0  0  0  0  0  0  0
   -3.2322   -3.5783    0.7933 C   0  0  0  0  0  0  0  0  0  0  0  0
   -2.7723   -2.2894    0.4783 C   0  0  0  0  0  0  0  0  0  0  0  0
   -3.6190   -1.4569   -0.3971 C   0  0  0  0  0  0  0  0  0  0  0  0
   -3.2165   -1.1826   -1.5199 O   0  0  0  0  0  0  0  0  0  0  0  0
   -4.8363   -1.0965    0.1367 N   0  0  0  0  0  0  0  0  0  0  0  0
   -5.7071   -0.1570   -0.5556 C   0  0  0  0  0  0  0  0  0  0  0  0
   -7.1624   -0.3413   -0.0963 C   0  0  0  0  0  0  0  0  0  0  0  0
   -8.0263    0.9102   -0.2727 C   0  0  0  0  0  0  0  0  0  0  0  0
   -7.5240    1.7970   -1.4027 C   0  0  0  0  0  0  0  0  0  0  0  0
   -6.0944    2.2786   -1.1521 C   0  0  0  0  0  0  0  0  0  0  0  0
   -5.2431    1.2881   -0.3537 C   0  0  0  0  0  0  0  0  0  0  0  0
   -1.4882   -1.8755    0.8541 C   0  0  0  0  0  0  0  0  0  0  0  0
   -1.0427   -0.4830    0.6307 C   0  0  0  0  0  0  0  0  0  0  0  0
   -1.8456    0.4382    0.7103 O   0  0  0  0  0  0  0  0  0  0  0  0
    5.4264    0.9114    0.6196 C   0  0  0  0  0  0  0  0  0  0  0  0
    6.7705    1.2171    0.3630 C   0  0  0  0  0  0  0  0  0  0  0  0
    7.7268    1.3854    1.3346 O   0  0  0  0  0  0  0  0  0  0  0  0
    7.3415    1.1791    2.6859 C   0  0  0  0  0  0  0  0  0  0  0  0
    8.5133    2.6802   -2.9588 H   0  0  0  0  0  0  0  0  0  0  0  0
    8.9030    0.9173   -3.0400 H   0  0  0  0  0  0  0  0  0  0  0  0
   10.0796    2.0748   -2.4087 H   0  0  0  0  0  0  0  0  0  0  0  0
    6.5866    1.3338   -3.0495 H   0  0  0  0  0  0  0  0  0  0  0  0
    4.2686    0.7958   -2.5782 H   0  0  0  0  0  0  0  0  0  0  0  0
    2.2829    2.1178   -1.2515 H   0  0  0  0  0  0  0  0  0  0  0  0
   -0.0752    1.5752   -0.7995 H   0  0  0  0  0  0  0  0  0  0  0  0
    3.5228   -1.3233    1.0422 H   0  0  0  0  0  0  0  0  0  0  0  0
   -0.4506   -4.7862    2.3281 H   0  0  0  0  0  0  0  0  0  0  0  0
   -2.7534   -5.4723    1.7085 H   0  0  0  0  0  0  0  0  0  0  0  0
   -4.2212   -3.9011    0.4716 H   0  0  0  0  0  0  0  0  0  0  0  0
   -4.9467   -1.1827    1.1392 H   0  0  0  0  0  0  0  0  0  0  0  0
   -5.6477   -0.3872   -1.6279 H   0  0  0  0  0  0  0  0  0  0  0  0
   -7.2076   -0.6449    0.9575 H   0  0  0  0  0  0  0  0  0  0  0  0
   -7.6022   -1.1735   -0.6611 H   0  0  0  0  0  0  0  0  0  0  0  0
   -9.0664    0.6159   -0.4536 H   0  0  0  0  0  0  0  0  0  0  0  0
   -8.0238    1.4857    0.6619 H   0  0  0  0  0  0  0  0  0  0  0  0
   -8.1852    2.6612   -1.5314 H   0  0  0  0  0  0  0  0  0  0  0  0
   -7.5593    1.2348   -2.3443 H   0  0  0  0  0  0  0  0  0  0  0  0
   -5.6186    2.4809   -2.1195 H   0  0  0  0  0  0  0  0  0  0  0  0
   -6.1136    3.2354   -0.6160 H   0  0  0  0  0  0  0  0  0  0  0  0
   -4.1909    1.4092   -0.6368 H   0  0  0  0  0  0  0  0  0  0  0  0
   -5.2975    1.5402    0.7139 H   0  0  0  0  0  0  0  0  0  0  0  0
    5.0706    0.8020    1.6395 H   0  0  0  0  0  0  0  0  0  0  0  0
    8.2269    1.3248    3.3122 H   0  0  0  0  0  0  0  0  0  0  0  0
    6.9875    0.1551    2.8449 H   0  0  0  0  0  0  0  0  0  0  0  0
    6.5901    1.9122    2.9982 H   0  0  0  0  0  0  0  0  0  0  0  0
  1  2  1  0
  2  3  1  0
  3  4  2  0
  4  5  1  0
  5  6  2  0
  6  7  1  0
  7  8  2  0
  8  9  1  0
  9 10  2  0
 10 11  1  0
 11 12  2  0
 11 13  1  0
 13 14  2  0
 13 15  2  0
 13 16  1  0
 16 17  2  0
 17 18  1  0
 18 19  2  0
 19 20  1  0
 20 21  1  0
 21 22  2  0
 21 23  1  0
 23 24  1  0
 24 25  1  0
 25 26  1  0
 26 27  1  0
 27 28  1  0
 28 29  1  0
 20 30  2  0
 30 31  1  0
 31 32  2  0
  6 33  1  0
 33 34  2  0
 34 35  1  0
 35 36  1  0
 34  3  1  0
 12  7  1  0
 30 16  1  0
 31 10  1  0
 29 24  1  0
  1 37  1  0
  1 38  1  0
  1 39  1  0
  4 40  1  0
  5 41  1  0
  8 42  1  0
  9 43  1  0
 12 44  1  0
 17 45  1  0
 18 46  1  0
 19 47  1  0
 23 48  1  0
 24 49  1  0
 25 50  1  0
 25 51  1  0
 26 52  1  0
 26 53  1  0
 27 54  1  0
 27 55  1  0
 28 56  1  0
 28 57  1  0
 29 58  1  0
 29 59  1  0
 33 60  1  0
 36 61  1  0
 36 62  1  0
 36 63  1  0
M  END
$$$$
