
     RDKit          3D

 49 52  0  0  0  0  0  0  0  0999 V2000
    7.0931    0.2757    0.6840 C   0  0  0  0  0  0  0  0  0  0  0  0
    5.8796   -0.3598    1.3451 C   0  0  0  0  0  0  0  0  0  0  0  0
    4.6472   -0.2408    0.4865 C   0  0  0  0  0  0  0  0  0  0  0  0
    3.8079    0.8735    0.5917 C   0  0  0  0  0  0  0  0  0  0  0  0
    2.6690    0.9943   -0.2175 C   0  0  0  0  0  0  0  0  0  0  0  0
    2.3362    0.0062   -1.1525 C   0  0  0  0  0  0  0  0  0  0  0  0
    1.1529    0.0575   -2.0309 C   0  0  0  0  0  0  0  0  0  0  0  0
    0.1609    1.2016   -1.9820 C   0  0  0  0  0  0  0  0  0  0  0  0
   -1.0319    1.0348   -1.1476 N   0  0  0  0  0  0  0  0  0  0  0  0
   -0.7596    0.9171    0.2861 C   0  0  0  0  0  0  0  0  0  0  0  0
   -1.9960    0.6853    1.1118 C   0  0  0  0  0  0  0  0  0  0  0  0
   -3.1803    0.3176    0.5868 C   0  0  0  0  0  0  0  0  0  0  0  0
   -4.3745    0.1075    1.4306 C   0  0  0  0  0  0  0  0  0  0  0  0
   -5.6263    0.6002    1.0356 C   0  0  0  0  0  0  0  0  0  0  0  0
   -6.7612    0.3884    1.8238 C   0  0  0  0  0  0  0  0  0  0  0  0
   -6.6606   -0.3246    3.0158 C   0  0  0  0  0  0  0  0  0  0  0  0
   -5.4264   -0.8270    3.4197 C   0  0  0  0  0  0  0  0  0  0  0  0
   -4.2920   -0.6137    2.6316 C   0  0  0  0  0  0  0  0  0  0  0  0
   -3.3110    0.1172   -0.9047 C   0  0  0  0  0  0  0  0  0  0  0  0
   -1.9451   -0.0170   -1.6029 C   0  0  0  0  0  0  0  0  0  0  0  0
    1.0167   -0.9148   -2.9479 C   0  0  0  0  0  0  0  0  0  0  0  0
    1.9248   -2.0616   -3.0735 C   0  0  0  0  0  0  0  0  0  0  0  0
    1.7311   -2.9208   -3.9257 O   0  0  0  0  0  0  0  0  0  0  0  0
    2.9816   -2.1197   -2.1870 O   0  0  0  0  0  0  0  0  0  0  0  0
    3.1994   -1.0880   -1.2538 C   0  0  0  0  0  0  0  0  0  0  0  0
    4.3375   -1.2248   -0.4543 C   0  0  0  0  0  0  0  0  0  0  0  0
    6.9306    1.3425    0.4969 H   0  0  0  0  0  0  0  0  0  0  0  0
    7.3193   -0.2027   -0.2750 H   0  0  0  0  0  0  0  0  0  0  0  0
    7.9717    0.1745    1.3290 H   0  0  0  0  0  0  0  0  0  0  0  0
    6.0827   -1.4172    1.5543 H   0  0  0  0  0  0  0  0  0  0  0  0
    5.6980    0.1123    2.3183 H   0  0  0  0  0  0  0  0  0  0  0  0
    4.0352    1.6628    1.3062 H   0  0  0  0  0  0  0  0  0  0  0  0
    2.0603    1.8843   -0.0890 H   0  0  0  0  0  0  0  0  0  0  0  0
    0.6618    2.1375   -1.7080 H   0  0  0  0  0  0  0  0  0  0  0  0
   -0.1796    1.4084   -3.0074 H   0  0  0  0  0  0  0  0  0  0  0  0
   -0.2951    1.8462    0.6357 H   0  0  0  0  0  0  0  0  0  0  0  0
   -0.0715    0.0922    0.5020 H   0  0  0  0  0  0  0  0  0  0  0  0
   -1.8837    0.8381    2.1816 H   0  0  0  0  0  0  0  0  0  0  0  0
   -5.7310    1.1704    0.1160 H   0  0  0  0  0  0  0  0  0  0  0  0
   -7.7225    0.7834    1.5059 H   0  0  0  0  0  0  0  0  0  0  0  0
   -7.5431   -0.4898    3.6280 H   0  0  0  0  0  0  0  0  0  0  0  0
   -5.3445   -1.3893    4.3461 H   0  0  0  0  0  0  0  0  0  0  0  0
   -3.3428   -1.0311    2.9592 H   0  0  0  0  0  0  0  0  0  0  0  0
   -3.8492    0.9705   -1.3368 H   0  0  0  0  0  0  0  0  0  0  0  0
   -3.8965   -0.7856   -1.1175 H   0  0  0  0  0  0  0  0  0  0  0  0
   -1.5279   -1.0136   -1.4077 H   0  0  0  0  0  0  0  0  0  0  0  0
   -2.1142    0.0596   -2.6840 H   0  0  0  0  0  0  0  0  0  0  0  0
    0.1921   -0.9217   -3.6523 H   0  0  0  0  0  0  0  0  0  0  0  0
    4.9768   -2.0958   -0.5759 H   0  0  0  0  0  0  0  0  0  0  0  0
  1  2  1  0
  2  3  1  0
  3  4  2  0
  4  5  1  0
  5  6  2  0
  6  7  1  0
  7  8  1  0
  8  9  1  0
  9 10  1  0
 10 11  1  0
 11 12  2  0
 12 13  1  0
 13 14  2  0
 14 15  1  0
 15 16  2  0
 16 17  1  0
 17 18  2  0
 12 19  1  0
 19 20  1  0
  7 21  2  0
 21 22  1  0
 22 23  2  0
 22 24  1  0
 24 25  1  0
 25 26  2  0
 26  3  1  0
 25  6  1  0
 20  9  1  0
 18 13  1  0
  1 27  1  0
  1 28  1  0
  1 29  1  0
  2 30  1  0
  2 31  1  0
  4 32  1  0
  5 33  1  0
  8 34  1  0
  8 35  1  0
 10 36  1  0
 10 37  1  0
 11 38  1  0
 14 39  1  0
 15 40  1  0
 16 41  1  0
 17 42  1  0
 18 43  1  0
 19 44  1  0
 19 45  1  0
 20 46  1  0
 20 47  1  0
 21 48  1  0
 26 49  1  0
M  END
$$$$
