
     RDKit          3D

 69 71  0  0  0  0  0  0  0  0999 V2000
   -6.3092    0.4858    2.6094 C   0  0  0  0  0  0  0  0  0  0  0  0
   -6.1777    0.1041    1.1433 C   0  0  0  0  0  0  0  0  0  0  0  0
   -6.1500    1.3046    0.1905 C   0  0  0  0  0  0  0  0  0  0  0  0
   -4.9369    2.1209    0.3009 N   0  0  0  0  0  0  0  0  0  0  0  0
   -5.0126    3.3360    1.1192 C   0  0  0  0  0  0  0  0  0  0  0  0
   -5.6312    4.5227    0.3730 C   0  0  0  0  0  0  0  0  0  0  0  0
   -4.7838    5.0192   -0.7888 C   0  0  0  0  0  0  0  0  0  0  0  0
   -3.7231    1.8216   -0.3272 C   0  0  0  0  0  0  0  0  0  0  0  0
   -2.7189    2.5176   -0.1528 O   0  0  0  0  0  0  0  0  0  0  0  0
   -3.7097    0.6385   -1.3098 C   0  0  0  0  0  0  0  0  0  0  0  0
   -2.3504    0.3249   -1.7520 N   0  0  0  0  0  0  0  0  0  0  0  0
   -1.6148   -0.5667   -0.9640 C   0  0  0  0  0  0  0  0  0  0  0  0
   -2.1268   -1.1194    0.0153 O   0  0  0  0  0  0  0  0  0  0  0  0
   -0.2878   -0.8216   -1.3377 N   0  0  0  0  0  0  0  0  0  0  0  0
    0.4764   -1.7450   -0.5010 C   0  0  0  0  0  0  0  0  0  0  0  0
    0.9641   -1.1060    0.8079 C   0  0  0  0  0  0  0  0  0  0  0  0
    2.0400   -0.0271    0.6440 C   0  0  0  0  0  0  0  0  0  0  0  0
    3.4019   -0.5183    0.1416 C   0  0  0  0  0  0  0  0  0  0  0  0
    4.0740   -1.5146    1.0866 C   0  0  0  0  0  0  0  0  0  0  0  0
    5.5099   -1.8305    0.6863 C   0  0  0  0  0  0  0  0  0  0  0  0
    6.0492   -1.3123   -0.2833 O   0  0  0  0  0  0  0  0  0  0  0  0
    6.0805   -2.7494    1.5554 N   0  0  0  0  0  0  0  0  0  0  0  0
    7.3852   -3.2836    1.5081 C   0  0  0  0  0  0  0  0  0  0  0  0
    7.7385   -4.1978    2.5104 C   0  0  0  0  0  0  0  0  0  0  0  0
    9.0118   -4.7734    2.5362 C   0  0  0  0  0  0  0  0  0  0  0  0
    9.9451   -4.4404    1.5591 C   0  0  0  0  0  0  0  0  0  0  0  0
    9.6037   -3.5337    0.5587 C   0  0  0  0  0  0  0  0  0  0  0  0
    8.3290   -2.9578    0.5328 C   0  0  0  0  0  0  0  0  0  0  0  0
    0.3509   -0.2742   -2.4574 C   0  0  0  0  0  0  0  0  0  0  0  0
    1.4955   -0.5807   -2.7859 O   0  0  0  0  0  0  0  0  0  0  0  0
   -0.4629    0.6632   -3.1788 C   0  0  0  0  0  0  0  0  0  0  0  0
    0.0869    1.5197   -4.5378 S   0  0  0  0  0  0  0  0  0  0  0  0
   -1.4100    2.3381   -4.6838 C   0  0  0  0  0  0  0  0  0  0  0  0
   -2.3073    1.9479   -3.7104 C   0  0  0  0  0  0  0  0  0  0  0  0
   -1.7545    0.9628   -2.8396 C   0  0  0  0  0  0  0  0  0  0  0  0
   -7.1733    1.1369    2.7727 H   0  0  0  0  0  0  0  0  0  0  0  0
   -5.4110    0.9967    2.9686 H   0  0  0  0  0  0  0  0  0  0  0  0
   -6.4428   -0.4126    3.2205 H   0  0  0  0  0  0  0  0  0  0  0  0
   -7.0347   -0.5254    0.8754 H   0  0  0  0  0  0  0  0  0  0  0  0
   -5.2810   -0.5120    1.0230 H   0  0  0  0  0  0  0  0  0  0  0  0
   -6.2276    0.9377   -0.8381 H   0  0  0  0  0  0  0  0  0  0  0  0
   -7.0266    1.9409    0.3564 H   0  0  0  0  0  0  0  0  0  0  0  0
   -5.6159    3.1176    2.0057 H   0  0  0  0  0  0  0  0  0  0  0  0
   -4.0160    3.6111    1.4818 H   0  0  0  0  0  0  0  0  0  0  0  0
   -5.7628    5.3472    1.0836 H   0  0  0  0  0  0  0  0  0  0  0  0
   -6.6283    4.2614    0.0011 H   0  0  0  0  0  0  0  0  0  0  0  0
   -5.2358    5.9147   -1.2272 H   0  0  0  0  0  0  0  0  0  0  0  0
   -4.7080    4.2662   -1.5790 H   0  0  0  0  0  0  0  0  0  0  0  0
   -3.7740    5.2785   -0.4562 H   0  0  0  0  0  0  0  0  0  0  0  0
   -4.3287    0.8850   -2.1785 H   0  0  0  0  0  0  0  0  0  0  0  0
   -4.1399   -0.2463   -0.8364 H   0  0  0  0  0  0  0  0  0  0  0  0
    1.3196   -2.1688   -1.0553 H   0  0  0  0  0  0  0  0  0  0  0  0
   -0.1762   -2.5904   -0.2494 H   0  0  0  0  0  0  0  0  0  0  0  0
    0.1132   -0.6534    1.3314 H   0  0  0  0  0  0  0  0  0  0  0  0
    1.3338   -1.8977    1.4689 H   0  0  0  0  0  0  0  0  0  0  0  0
    2.1866    0.4582    1.6175 H   0  0  0  0  0  0  0  0  0  0  0  0
    1.6749    0.7563   -0.0302 H   0  0  0  0  0  0  0  0  0  0  0  0
    4.0502    0.3590    0.0213 H   0  0  0  0  0  0  0  0  0  0  0  0
    3.3084   -0.9632   -0.8545 H   0  0  0  0  0  0  0  0  0  0  0  0
    4.0898   -1.1078    2.1046 H   0  0  0  0  0  0  0  0  0  0  0  0
    3.5148   -2.4568    1.0982 H   0  0  0  0  0  0  0  0  0  0  0  0
    5.4994   -3.0741    2.3172 H   0  0  0  0  0  0  0  0  0  0  0  0
    7.0301   -4.4759    3.2859 H   0  0  0  0  0  0  0  0  0  0  0  0
    9.2738   -5.4807    3.3188 H   0  0  0  0  0  0  0  0  0  0  0  0
   10.9365   -4.8850    1.5751 H   0  0  0  0  0  0  0  0  0  0  0  0
   10.3280   -3.2695   -0.2080 H   0  0  0  0  0  0  0  0  0  0  0  0
    8.1071   -2.2572   -0.2661 H   0  0  0  0  0  0  0  0  0  0  0  0
   -1.5568    3.0661   -5.4700 H   0  0  0  0  0  0  0  0  0  0  0  0
   -3.3020    2.3681   -3.6396 H   0  0  0  0  0  0  0  0  0  0  0  0
  1  2  1  0
  2  3  1  0
  3  4  1  0
  4  5  1  0
  5  6  1  0
  6  7  1  0
  4  8  1  0
  8  9  2  0
  8 10  1  0
 10 11  1  0
 11 12  1  0
 12 13  2  0
 12 14  1  0
 14 15  1  0
 15 16  1  0
 16 17  1  0
 17 18  1  0
 18 19  1  0
 19 20  1  0
 20 21  2  0
 20 22  1  0
 22 23  1  0
 23 24  2  0
 24 25  1  0
 25 26  2  0
 26 27  1  0
 27 28  2  0
 14 29  1  0
 29 30  2  0
 29 31  1  0
 31 32  1  0
 32 33  1  0
 33 34  2  0
 34 35  1  0
 35 11  1  0
 28 23  1  0
 35 31  2  0
  1 36  1  0
  1 37  1  0
  1 38  1  0
  2 39  1  0
  2 40  1  0
  3 41  1  0
  3 42  1  0
  5 43  1  0
  5 44  1  0
  6 45  1  0
  6 46  1  0
  7 47  1  0
  7 48  1  0
  7 49  1  0
 10 50  1  0
 10 51  1  0
 15 52  1  0
 15 53  1  0
 16 54  1  0
 16 55  1  0
 17 56  1  0
 17 57  1  0
 18 58  1  0
 18 59  1  0
 19 60  1  0
 19 61  1  0
 22 62  1  0
 24 63  1  0
 25 64  1  0
 26 65  1  0
 27 66  1  0
 28 67  1  0
 33 68  1  0
 34 69  1  0
M  END
$$$$
