
     RDKit          3D

 42 44  0  0  0  0  0  0  0  0999 V2000
   -1.8869   -5.3974   -1.2165 C   0  0  0  0  0  0  0  0  0  0  0  0
   -1.2956   -4.0424   -0.8680 C   0  0  0  0  0  0  0  0  0  0  0  0
   -2.6351   -2.8454   -0.5616 S   0  0  0  0  0  0  0  0  0  0  0  0
   -1.6865   -1.3790   -0.1729 C   0  0  0  0  0  0  0  0  0  0  0  0
   -2.3665   -0.2260    0.1564 C   0  0  0  0  0  0  0  0  0  0  0  0
   -1.6179    0.8946    0.4476 C   0  0  0  0  0  0  0  0  0  0  0  0
   -2.2065    2.0869    0.8003 N   0  0  0  0  0  0  0  0  0  0  0  0
   -3.5701    2.4604    0.4425 C   0  0  0  0  0  0  0  0  0  0  0  0
   -3.5422    3.9890    0.4006 C   0  0  0  0  0  0  0  0  0  0  0  0
   -2.3990    4.3524    1.3346 C   0  0  0  0  0  0  0  0  0  0  0  0
   -1.3747    3.2589    1.0482 C   0  0  0  0  0  0  0  0  0  0  0  0
   -0.2757    0.8341    0.4249 N   0  0  0  0  0  0  0  0  0  0  0  0
    0.3136   -0.3296    0.0931 C   0  0  0  0  0  0  0  0  0  0  0  0
    1.7908   -0.3709    0.0661 C   0  0  0  0  0  0  0  0  0  0  0  0
    2.5647    0.7575    0.3963 C   0  0  0  0  0  0  0  0  0  0  0  0
    3.9641    0.7224    0.3715 C   0  0  0  0  0  0  0  0  0  0  0  0
    4.6368   -0.4451    0.0037 C   0  0  0  0  0  0  0  0  0  0  0  0
    6.1354   -0.4954    0.0092 C   0  0  0  0  0  0  0  0  0  0  0  0
    3.8890   -1.5815   -0.3132 C   0  0  0  0  0  0  0  0  0  0  0  0
    2.4897   -1.5408   -0.2866 C   0  0  0  0  0  0  0  0  0  0  0  0
   -0.3503   -1.4530   -0.2164 N   0  0  0  0  0  0  0  0  0  0  0  0
   -2.5018   -5.7904   -0.3996 H   0  0  0  0  0  0  0  0  0  0  0  0
   -1.0828   -6.1176   -1.4007 H   0  0  0  0  0  0  0  0  0  0  0  0
   -2.5003   -5.3479   -2.1226 H   0  0  0  0  0  0  0  0  0  0  0  0
   -0.6728   -4.1358    0.0275 H   0  0  0  0  0  0  0  0  0  0  0  0
   -0.6714   -3.6930   -1.6967 H   0  0  0  0  0  0  0  0  0  0  0  0
   -3.4467   -0.2139    0.1966 H   0  0  0  0  0  0  0  0  0  0  0  0
   -4.2641    2.1068    1.2128 H   0  0  0  0  0  0  0  0  0  0  0  0
   -3.8839    2.0667   -0.5306 H   0  0  0  0  0  0  0  0  0  0  0  0
   -3.3134    4.3297   -0.6166 H   0  0  0  0  0  0  0  0  0  0  0  0
   -4.4956    4.4327    0.7007 H   0  0  0  0  0  0  0  0  0  0  0  0
   -2.0038    5.3558    1.1539 H   0  0  0  0  0  0  0  0  0  0  0  0
   -2.7343    4.2943    2.3772 H   0  0  0  0  0  0  0  0  0  0  0  0
   -0.7006    3.1203    1.9002 H   0  0  0  0  0  0  0  0  0  0  0  0
   -0.7878    3.5159    0.1578 H   0  0  0  0  0  0  0  0  0  0  0  0
    2.0738    1.6863    0.6835 H   0  0  0  0  0  0  0  0  0  0  0  0
    4.5207    1.6169    0.6420 H   0  0  0  0  0  0  0  0  0  0  0  0
    6.5599    0.4829   -0.2396 H   0  0  0  0  0  0  0  0  0  0  0  0
    6.5052   -1.2082   -0.7353 H   0  0  0  0  0  0  0  0  0  0  0  0
    6.4961   -0.7968    0.9974 H   0  0  0  0  0  0  0  0  0  0  0  0
    4.3865   -2.5098   -0.5847 H   0  0  0  0  0  0  0  0  0  0  0  0
    1.9403   -2.4446   -0.5451 H   0  0  0  0  0  0  0  0  0  0  0  0
  1  2  1  0
  2  3  1  0
  3  4  1  0
  4  5  2  0
  5  6  1  0
  6  7  1  0
  7  8  1  0
  8  9  1  0
  9 10  1  0
 10 11  1  0
  6 12  2  0
 12 13  1  0
 13 14  1  0
 14 15  2  0
 15 16  1  0
 16 17  2  0
 17 18  1  0
 17 19  1  0
 19 20  2  0
 13 21  2  0
 21  4  1  0
 11  7  1  0
 20 14  1  0
  1 22  1  0
  1 23  1  0
  1 24  1  0
  2 25  1  0
  2 26  1  0
  5 27  1  0
  8 28  1  0
  8 29  1  0
  9 30  1  0
  9 31  1  0
 10 32  1  0
 10 33  1  0
 11 34  1  0
 11 35  1  0
 15 36  1  0
 16 37  1  0
 18 38  1  0
 18 39  1  0
 18 40  1  0
 19 41  1  0
 20 42  1  0
M  END
$$$$
