
     RDKit          3D

 46 48  0  0  0  0  0  0  0  0999 V2000
   -4.1348    0.1415    2.9123 C   0  0  0  0  0  0  0  0  0  0  0  0
   -5.3614   -0.0350    2.1031 C   0  0  0  0  0  0  0  0  0  0  0  0
   -6.5266   -0.0022    2.8124 O   0  0  0  0  0  0  0  0  0  0  0  0
   -7.5375   -0.2355    1.9418 C   0  0  0  0  0  0  0  0  0  0  0  0
   -7.0412   -0.4135    0.6752 C   0  0  0  0  0  0  0  0  0  0  0  0
   -5.6227   -0.2594    0.7580 C   0  0  0  0  0  0  0  0  0  0  0  0
   -4.6898   -0.3691   -0.3546 C   0  0  0  0  0  0  0  0  0  0  0  0
   -4.9945   -0.9355   -1.3996 O   0  0  0  0  0  0  0  0  0  0  0  0
   -3.4710    0.2409   -0.1736 N   0  0  0  0  0  0  0  0  0  0  0  0
   -2.5255    0.3185   -1.2598 C   0  0  0  0  0  0  0  0  0  0  0  0
   -1.1898    0.7969   -0.7582 C   0  0  0  0  0  0  0  0  0  0  0  0
   -0.8167    2.1405   -0.8899 C   0  0  0  0  0  0  0  0  0  0  0  0
    0.4112    2.5829   -0.3989 C   0  0  0  0  0  0  0  0  0  0  0  0
    1.2734    1.6899    0.2363 C   0  0  0  0  0  0  0  0  0  0  0  0
    0.9146    0.3446    0.3947 C   0  0  0  0  0  0  0  0  0  0  0  0
    1.8616   -0.6193    1.0620 C   0  0  0  0  0  0  0  0  0  0  0  0
    2.8627   -1.0800    0.1291 N   0  0  0  0  0  0  0  0  0  0  0  0
    4.1254   -0.5317    0.0958 C   0  0  0  0  0  0  0  0  0  0  0  0
    4.5103    0.2959    0.9161 O   0  0  0  0  0  0  0  0  0  0  0  0
    4.9690   -1.0014   -0.9972 C   0  0  0  0  0  0  0  0  0  0  0  0
    4.7415   -2.0168   -1.9775 C   0  0  0  0  0  0  0  0  0  0  0  0
    5.8605   -2.0593   -2.7742 C   0  0  0  0  0  0  0  0  0  0  0  0
    6.7698   -1.1459   -2.3596 O   0  0  0  0  0  0  0  0  0  0  0  0
    6.2339   -0.5067   -1.2828 C   0  0  0  0  0  0  0  0  0  0  0  0
    7.0775    0.5417   -0.6667 C   0  0  0  0  0  0  0  0  0  0  0  0
   -0.3188   -0.0932   -0.1097 C   0  0  0  0  0  0  0  0  0  0  0  0
   -3.7663    1.1682    2.8283 H   0  0  0  0  0  0  0  0  0  0  0  0
   -3.3471   -0.5429    2.5831 H   0  0  0  0  0  0  0  0  0  0  0  0
   -4.3282   -0.0626    3.9705 H   0  0  0  0  0  0  0  0  0  0  0  0
   -8.5310   -0.2502    2.3680 H   0  0  0  0  0  0  0  0  0  0  0  0
   -7.6176   -0.6229   -0.2159 H   0  0  0  0  0  0  0  0  0  0  0  0
   -3.3868    0.9281    0.5605 H   0  0  0  0  0  0  0  0  0  0  0  0
   -2.9296    1.0010   -2.0167 H   0  0  0  0  0  0  0  0  0  0  0  0
   -2.4275   -0.6650   -1.7347 H   0  0  0  0  0  0  0  0  0  0  0  0
   -1.4781    2.8519   -1.3801 H   0  0  0  0  0  0  0  0  0  0  0  0
    0.7003    3.6249   -0.5128 H   0  0  0  0  0  0  0  0  0  0  0  0
    2.2336    2.0465    0.6079 H   0  0  0  0  0  0  0  0  0  0  0  0
    2.3241   -0.1520    1.9386 H   0  0  0  0  0  0  0  0  0  0  0  0
    1.3189   -1.5026    1.4165 H   0  0  0  0  0  0  0  0  0  0  0  0
    2.5434   -1.6198   -0.6595 H   0  0  0  0  0  0  0  0  0  0  0  0
    3.8757   -2.6516   -2.0943 H   0  0  0  0  0  0  0  0  0  0  0  0
    6.1514   -2.6534   -3.6295 H   0  0  0  0  0  0  0  0  0  0  0  0
    7.3210    0.2786    0.3672 H   0  0  0  0  0  0  0  0  0  0  0  0
    6.5563    1.5039   -0.6687 H   0  0  0  0  0  0  0  0  0  0  0  0
    8.0177    0.6674   -1.2130 H   0  0  0  0  0  0  0  0  0  0  0  0
   -0.6114   -1.1362    0.0037 H   0  0  0  0  0  0  0  0  0  0  0  0
  1  2  1  0
  2  3  1  0
  3  4  1  0
  4  5  2  0
  5  6  1  0
  6  7  1  0
  7  8  2  0
  7  9  1  0
  9 10  1  0
 10 11  1  0
 11 12  2  0
 12 13  1  0
 13 14  2  0
 14 15  1  0
 15 16  1  0
 16 17  1  0
 17 18  1  0
 18 19  2  0
 18 20  1  0
 20 21  1  0
 21 22  2  0
 22 23  1  0
 23 24  1  0
 24 25  1  0
 15 26  2  0
  6  2  2  0
 26 11  1  0
 24 20  2  0
  1 27  1  0
  1 28  1  0
  1 29  1  0
  4 30  1  0
  5 31  1  0
  9 32  1  0
 10 33  1  0
 10 34  1  0
 12 35  1  0
 13 36  1  0
 14 37  1  0
 16 38  1  0
 16 39  1  0
 17 40  1  0
 21 41  1  0
 22 42  1  0
 25 43  1  0
 25 44  1  0
 25 45  1  0
 26 46  1  0
M  END
$$$$
