
     RDKit          3D

 74 78  0  0  0  0  0  0  0  0999 V2000
    0.6467   -4.3848    2.8883 C   0  0  0  0  0  0  0  0  0  0  0  0
    0.4830   -2.9637    3.4131 C   0  0  0  0  0  0  0  0  0  0  0  0
   -0.8002   -2.3122    2.9641 C   0  0  0  0  0  0  0  0  0  0  0  0
   -2.0788   -2.5636    3.7393 C   0  0  0  0  0  0  0  0  0  0  0  0
   -2.0403   -3.4843    4.9417 C   0  0  0  0  0  0  0  0  0  0  0  0
   -3.2375   -2.0391    3.4684 N   0  0  0  0  0  0  0  0  0  0  0  0
   -3.2906   -1.1801    2.4169 C   0  0  0  0  0  0  0  0  0  0  0  0
   -4.3451   -0.4826    1.8804 C   0  0  0  0  0  0  0  0  0  0  0  0
   -3.8176    0.2640    0.8023 C   0  0  0  0  0  0  0  0  0  0  0  0
   -4.5242    1.1810   -0.1022 C   0  0  0  0  0  0  0  0  0  0  0  0
   -3.8236    1.8884   -1.0898 C   0  0  0  0  0  0  0  0  0  0  0  0
   -4.4784    2.7701   -1.9557 C   0  0  0  0  0  0  0  0  0  0  0  0
   -3.6593    3.3873   -2.8626 O   0  0  0  0  0  0  0  0  0  0  0  0
   -4.2660    4.2869   -3.7805 C   0  0  0  0  0  0  0  0  0  0  0  0
   -5.8581    2.9532   -1.8404 C   0  0  0  0  0  0  0  0  0  0  0  0
   -6.5757    2.2571   -0.8650 C   0  0  0  0  0  0  0  0  0  0  0  0
   -7.9250    2.3418   -0.6462 O   0  0  0  0  0  0  0  0  0  0  0  0
   -8.6606    3.2410   -1.4659 C   0  0  0  0  0  0  0  0  0  0  0  0
   -5.9074    1.3779   -0.0052 C   0  0  0  0  0  0  0  0  0  0  0  0
   -2.5029    0.0387    0.6754 N   0  0  0  0  0  0  0  0  0  0  0  0
   -2.1690   -0.8412    1.6636 N   0  0  0  0  0  0  0  0  0  0  0  0
   -0.8914   -1.4148    1.9475 C   0  0  0  0  0  0  0  0  0  0  0  0
    0.2246   -1.0354    1.1608 N   0  0  0  0  0  0  0  0  0  0  0  0
    0.8203   -1.9957    0.2004 C   0  0  0  0  0  0  0  0  0  0  0  0
    1.3185   -1.3127   -1.0937 C   0  0  0  0  0  0  0  0  0  0  0  0
    2.2638   -0.1894   -0.8975 N   0  0  0  0  0  0  0  0  0  0  0  0
    3.6660   -0.6475   -0.9135 C   0  0  0  0  0  0  0  0  0  0  0  0
    4.6920    0.5156   -0.9338 C   0  0  0  0  0  0  0  0  0  0  0  0
    6.0994    0.0677   -0.9347 N   0  0  0  0  0  0  0  0  0  0  0  0
    6.4312   -0.7109   -2.1501 C   0  0  0  0  0  0  0  0  0  0  0  0
    7.9320   -0.6616   -2.4766 C   0  0  0  0  0  0  0  0  0  0  0  0
    8.3865    0.6628   -2.7876 O   0  0  0  0  0  0  0  0  0  0  0  0
    7.6376    1.6845   -2.1155 C   0  0  0  0  0  0  0  0  0  0  0  0
    7.0298    1.2108   -0.7862 C   0  0  0  0  0  0  0  0  0  0  0  0
    1.9385    0.5552    0.3453 C   0  0  0  0  0  0  0  0  0  0  0  0
    0.4759    0.3847    0.8157 C   0  0  0  0  0  0  0  0  0  0  0  0
   -0.1216   -5.0565    3.2794 H   0  0  0  0  0  0  0  0  0  0  0  0
    0.5928   -4.4215    1.7968 H   0  0  0  0  0  0  0  0  0  0  0  0
    1.6203   -4.7840    3.1901 H   0  0  0  0  0  0  0  0  0  0  0  0
    0.5518   -2.9660    4.5060 H   0  0  0  0  0  0  0  0  0  0  0  0
    1.3477   -2.3718    3.0903 H   0  0  0  0  0  0  0  0  0  0  0  0
   -1.7768   -4.4978    4.6353 H   0  0  0  0  0  0  0  0  0  0  0  0
   -3.0247   -3.5228    5.4197 H   0  0  0  0  0  0  0  0  0  0  0  0
   -1.3251   -3.1140    5.6798 H   0  0  0  0  0  0  0  0  0  0  0  0
   -5.3614   -0.5207    2.2421 H   0  0  0  0  0  0  0  0  0  0  0  0
   -2.7477    1.7570   -1.1934 H   0  0  0  0  0  0  0  0  0  0  0  0
   -4.7242    5.1337   -3.2590 H   0  0  0  0  0  0  0  0  0  0  0  0
   -4.9941    3.7716   -4.4159 H   0  0  0  0  0  0  0  0  0  0  0  0
   -3.4798    4.6828   -4.4304 H   0  0  0  0  0  0  0  0  0  0  0  0
   -6.3706    3.6337   -2.5066 H   0  0  0  0  0  0  0  0  0  0  0  0
   -8.3195    4.2720   -1.3247 H   0  0  0  0  0  0  0  0  0  0  0  0
   -9.7095    3.1922   -1.1579 H   0  0  0  0  0  0  0  0  0  0  0  0
   -8.6092    2.9474   -2.5195 H   0  0  0  0  0  0  0  0  0  0  0  0
   -6.4952    0.8506    0.7414 H   0  0  0  0  0  0  0  0  0  0  0  0
    1.6640   -2.4997    0.6850 H   0  0  0  0  0  0  0  0  0  0  0  0
    0.0842   -2.7618   -0.0721 H   0  0  0  0  0  0  0  0  0  0  0  0
    1.7384   -2.0683   -1.7691 H   0  0  0  0  0  0  0  0  0  0  0  0
    0.4453   -0.9106   -1.6251 H   0  0  0  0  0  0  0  0  0  0  0  0
    3.8682   -1.3075   -0.0598 H   0  0  0  0  0  0  0  0  0  0  0  0
    3.8163   -1.2435   -1.8216 H   0  0  0  0  0  0  0  0  0  0  0  0
    4.5344    1.1216   -0.0336 H   0  0  0  0  0  0  0  0  0  0  0  0
    4.4948    1.1657   -1.7964 H   0  0  0  0  0  0  0  0  0  0  0  0
    5.8849   -0.3169   -3.0173 H   0  0  0  0  0  0  0  0  0  0  0  0
    6.1300   -1.7536   -2.0023 H   0  0  0  0  0  0  0  0  0  0  0  0
    8.1492   -1.2934   -3.3438 H   0  0  0  0  0  0  0  0  0  0  0  0
    8.5284   -1.0434   -1.6395 H   0  0  0  0  0  0  0  0  0  0  0  0
    8.3176    2.5244   -1.9397 H   0  0  0  0  0  0  0  0  0  0  0  0
    6.8545    2.0377   -2.7968 H   0  0  0  0  0  0  0  0  0  0  0  0
    6.5592    2.0533   -0.2662 H   0  0  0  0  0  0  0  0  0  0  0  0
    7.8469    0.8714   -0.1371 H   0  0  0  0  0  0  0  0  0  0  0  0
    2.5869    0.2291    1.1701 H   0  0  0  0  0  0  0  0  0  0  0  0
    2.1350    1.6196    0.1742 H   0  0  0  0  0  0  0  0  0  0  0  0
    0.3126    1.0115    1.7004 H   0  0  0  0  0  0  0  0  0  0  0  0
   -0.1981    0.7294    0.0242 H   0  0  0  0  0  0  0  0  0  0  0  0
  1  2  1  0
  2  3  1  0
  3  4  1  0
  4  5  1  0
  4  6  2  0
  6  7  1  0
  7  8  2  0
  8  9  1  0
  9 10  1  0
 10 11  2  0
 11 12  1  0
 12 13  1  0
 13 14  1  0
 12 15  2  0
 15 16  1  0
 16 17  1  0
 17 18  1  0
 16 19  2  0
  9 20  2  0
 20 21  1  0
 21 22  1  0
 22 23  1  0
 23 24  1  0
 24 25  1  0
 25 26  1  0
 26 27  1  0
 27 28  1  0
 28 29  1  0
 29 30  1  0
 30 31  1  0
 31 32  1  0
 32 33  1  0
 33 34  1  0
 26 35  1  0
 35 36  1  0
 22  3  2  0
 36 23  1  0
 21  7  1  0
 34 29  1  0
 19 10  1  0
  1 37  1  0
  1 38  1  0
  1 39  1  0
  2 40  1  0
  2 41  1  0
  5 42  1  0
  5 43  1  0
  5 44  1  0
  8 45  1  0
 11 46  1  0
 14 47  1  0
 14 48  1  0
 14 49  1  0
 15 50  1  0
 18 51  1  0
 18 52  1  0
 18 53  1  0
 19 54  1  0
 24 55  1  0
 24 56  1  0
 25 57  1  0
 25 58  1  0
 27 59  1  0
 27 60  1  0
 28 61  1  0
 28 62  1  0
 30 63  1  0
 30 64  1  0
 31 65  1  0
 31 66  1  0
 33 67  1  0
 33 68  1  0
 34 69  1  0
 34 70  1  0
 35 71  1  0
 35 72  1  0
 36 73  1  0
 36 74  1  0
M  END
$$$$
