
     RDKit          3D

 60 63  0  0  0  0  0  0  0  0999 V2000
   -5.3597   -0.4162    3.7718 C   0  0  0  0  0  0  0  0  0  0  0  0
   -4.6659    0.5083    2.7884 C   0  0  0  0  0  0  0  0  0  0  0  0
   -4.0452   -0.2545    1.7435 O   0  0  0  0  0  0  0  0  0  0  0  0
   -4.8434   -0.5769    0.6816 C   0  0  0  0  0  0  0  0  0  0  0  0
   -6.0249   -0.2652    0.5849 O   0  0  0  0  0  0  0  0  0  0  0  0
   -4.0772   -1.4273   -0.3336 C   0  0  0  0  0  0  0  0  0  0  0  0
   -4.8151   -1.5589   -1.6708 C   0  0  0  0  0  0  0  0  0  0  0  0
   -4.7693   -0.2754   -2.4955 C   0  0  0  0  0  0  0  0  0  0  0  0
   -3.3332    0.1933   -2.6848 C   0  0  0  0  0  0  0  0  0  0  0  0
   -2.6122    0.3298   -1.3509 C   0  0  0  0  0  0  0  0  0  0  0  0
   -2.6866   -0.9127   -0.5447 N   0  0  0  0  0  0  0  0  0  0  0  0
   -1.4965   -2.0968   -0.7638 S   0  0  0  0  0  6  0  0  0  0  0  0
   -1.4167   -2.3828   -2.1802 O   0  0  0  0  0  0  0  0  0  0  0  0
   -1.7112   -3.1502    0.2047 O   0  0  0  0  0  0  0  0  0  0  0  0
   -0.0100   -1.2549   -0.2771 C   0  0  0  0  0  0  0  0  0  0  0  0
    1.0647   -1.1521   -1.1722 C   0  0  0  0  0  0  0  0  0  0  0  0
    2.2350   -0.4781   -0.7958 C   0  0  0  0  0  0  0  0  0  0  0  0
    2.3116    0.0870    0.4667 C   0  0  0  0  0  0  0  0  0  0  0  0
    1.2350   -0.0462    1.3549 C   0  0  0  0  0  0  0  0  0  0  0  0
    0.0648   -0.7041    1.0030 C   0  0  0  0  0  0  0  0  0  0  0  0
    1.5083    0.6494    2.6522 C   0  0  0  0  0  0  0  0  0  0  0  0
    3.0168    0.9307    2.5357 C   0  0  0  0  0  0  0  0  0  0  0  0
    3.8279   -0.0511    3.3896 C   0  0  0  0  0  0  0  0  0  0  0  0
    3.3516    0.7991    1.0960 N   0  0  0  0  0  0  0  0  0  0  0  0
    4.5420    1.3370    0.6088 C   0  0  0  0  0  0  0  0  0  0  0  0
    5.3448    1.8535    1.4053 O   0  0  0  0  0  0  0  0  0  0  0  0
    4.8317    1.3441   -0.9111 C   0  0  0  0  0  0  0  0  0  0  0  0
    5.7709    0.2294   -1.4631 C   0  0  0  0  0  0  0  0  0  0  0  0
    6.3314    1.2732   -2.4460 C   0  0  0  0  0  0  0  0  0  0  0  0
    5.9106    2.3487   -1.4285 C   0  0  0  0  0  0  0  0  0  0  0  0
   -4.6519   -1.1480    4.1766 H   0  0  0  0  0  0  0  0  0  0  0  0
   -6.1586   -0.9824    3.2826 H   0  0  0  0  0  0  0  0  0  0  0  0
   -5.7919    0.1526    4.6005 H   0  0  0  0  0  0  0  0  0  0  0  0
   -5.3577    1.2535    2.3795 H   0  0  0  0  0  0  0  0  0  0  0  0
   -3.8683    1.0568    3.2997 H   0  0  0  0  0  0  0  0  0  0  0  0
   -4.0479   -2.4217    0.1283 H   0  0  0  0  0  0  0  0  0  0  0  0
   -4.3564   -2.3672   -2.2549 H   0  0  0  0  0  0  0  0  0  0  0  0
   -5.8605   -1.8467   -1.5076 H   0  0  0  0  0  0  0  0  0  0  0  0
   -5.3517    0.5108   -2.0006 H   0  0  0  0  0  0  0  0  0  0  0  0
   -5.2346   -0.4464   -3.4728 H   0  0  0  0  0  0  0  0  0  0  0  0
   -2.8032   -0.5142   -3.3321 H   0  0  0  0  0  0  0  0  0  0  0  0
   -3.3277    1.1580   -3.2051 H   0  0  0  0  0  0  0  0  0  0  0  0
   -3.0569    1.1447   -0.7660 H   0  0  0  0  0  0  0  0  0  0  0  0
   -1.5713    0.6220   -1.5210 H   0  0  0  0  0  0  0  0  0  0  0  0
    1.0035   -1.6035   -2.1610 H   0  0  0  0  0  0  0  0  0  0  0  0
    3.0508   -0.4556   -1.5027 H   0  0  0  0  0  0  0  0  0  0  0  0
   -0.7664   -0.7856    1.6975 H   0  0  0  0  0  0  0  0  0  0  0  0
    0.9417    1.5868    2.6857 H   0  0  0  0  0  0  0  0  0  0  0  0
    1.2509    0.0345    3.5198 H   0  0  0  0  0  0  0  0  0  0  0  0
    3.2392    1.9521    2.8695 H   0  0  0  0  0  0  0  0  0  0  0  0
    3.5573    0.0439    4.4464 H   0  0  0  0  0  0  0  0  0  0  0  0
    4.9025    0.1360    3.3027 H   0  0  0  0  0  0  0  0  0  0  0  0
    3.6513   -1.0883    3.0840 H   0  0  0  0  0  0  0  0  0  0  0  0
    3.9211    1.4903   -1.5068 H   0  0  0  0  0  0  0  0  0  0  0  0
    5.2877   -0.6321   -1.9291 H   0  0  0  0  0  0  0  0  0  0  0  0
    6.5086   -0.1350   -0.7374 H   0  0  0  0  0  0  0  0  0  0  0  0
    5.7842    1.3244   -3.3943 H   0  0  0  0  0  0  0  0  0  0  0  0
    7.4022    1.2066   -2.6548 H   0  0  0  0  0  0  0  0  0  0  0  0
    5.5255    3.2772   -1.8614 H   0  0  0  0  0  0  0  0  0  0  0  0
    6.6983    2.5964   -0.7071 H   0  0  0  0  0  0  0  0  0  0  0  0
  1  2  1  0
  2  3  1  0
  3  4  1  0
  4  5  2  0
  4  6  1  0
  6  7  1  0
  7  8  1  0
  8  9  1  0
  9 10  1  0
 10 11  1  0
 11 12  1  0
 12 13  2  0
 12 14  2  0
 12 15  1  0
 15 16  2  0
 16 17  1  0
 17 18  2  0
 18 19  1  0
 19 20  2  0
 19 21  1  0
 21 22  1  0
 22 23  1  0
 22 24  1  0
 24 25  1  0
 25 26  2  0
 25 27  1  0
 27 28  1  0
 28 29  1  0
 29 30  1  0
 11  6  1  0
 20 15  1  0
 30 27  1  0
 24 18  1  0
  1 31  1  0
  1 32  1  0
  1 33  1  0
  2 34  1  0
  2 35  1  0
  6 36  1  0
  7 37  1  0
  7 38  1  0
  8 39  1  0
  8 40  1  0
  9 41  1  0
  9 42  1  0
 10 43  1  0
 10 44  1  0
 16 45  1  0
 17 46  1  0
 20 47  1  0
 21 48  1  0
 21 49  1  0
 22 50  1  0
 23 51  1  0
 23 52  1  0
 23 53  1  0
 27 54  1  0
 28 55  1  0
 28 56  1  0
 29 57  1  0
 29 58  1  0
 30 59  1  0
 30 60  1  0
M  END
$$$$
