
     RDKit          3D

 44 46  0  0  0  0  0  0  0  0999 V2000
   -6.1513   -3.0908   -0.9521 C   0  0  0  0  0  0  0  0  0  0  0  0
   -5.4406   -2.0330   -0.1592 C   0  0  0  0  0  0  0  0  0  0  0  0
   -6.1013   -1.3637    0.8775 C   0  0  0  0  0  0  0  0  0  0  0  0
   -5.4312   -0.4143    1.6567 C   0  0  0  0  0  0  0  0  0  0  0  0
   -4.0827   -0.1240    1.4211 C   0  0  0  0  0  0  0  0  0  0  0  0
   -3.3685    0.8931    2.2622 C   0  0  0  0  0  0  0  0  0  0  0  0
   -3.4363   -0.7770    0.3641 C   0  0  0  0  0  0  0  0  0  0  0  0
   -2.1107   -0.5192    0.1198 O   0  0  0  0  0  0  0  0  0  0  0  0
   -1.9784    0.3696   -0.9962 C   0  0  0  0  0  0  0  0  0  0  0  0
   -0.5534    0.7610   -1.0411 C   0  0  0  0  0  0  0  0  0  0  0  0
    0.6054    0.1198   -1.3998 C   0  0  0  0  0  0  0  0  0  0  0  0
    1.6376    1.0761   -1.1857 C   0  0  0  0  0  0  0  0  0  0  0  0
    3.0686    0.8579   -1.4573 C   0  0  0  0  0  0  0  0  0  0  0  0
    3.4034   -0.0629   -2.2071 O   0  0  0  0  0  0  0  0  0  0  0  0
    4.0332    1.6914   -0.8790 N   0  0  0  0  0  0  0  0  0  0  0  0
    3.7678    2.6134    0.2187 C   0  0  0  0  0  0  0  0  0  0  0  0
    5.4338    1.4186   -1.1923 C   0  0  0  0  0  0  0  0  0  0  0  0
    6.0060    0.3798   -0.2615 C   0  0  0  0  0  0  0  0  0  0  0  0
    5.7260    0.2638    1.0243 N   0  0  0  0  0  0  0  0  0  0  0  0
    6.4170   -0.8011    1.5646 C   0  0  0  0  0  0  0  0  0  0  0  0
    7.2362   -1.4788    0.6908 C   0  0  0  0  0  0  0  0  0  0  0  0
    7.1584   -0.7525   -0.8599 S   0  0  0  0  0  0  0  0  0  0  0  0
    1.1078    2.2366   -0.7580 N   0  0  0  0  0  0  0  0  0  0  0  0
   -0.2534    2.0283   -0.6530 O   0  0  0  0  0  0  0  0  0  0  0  0
   -4.0939   -1.7417   -0.4021 C   0  0  0  0  0  0  0  0  0  0  0  0
   -5.6782   -3.2410   -1.9293 H   0  0  0  0  0  0  0  0  0  0  0  0
   -7.1920   -2.8018   -1.1358 H   0  0  0  0  0  0  0  0  0  0  0  0
   -6.1333   -4.0404   -0.4076 H   0  0  0  0  0  0  0  0  0  0  0  0
   -7.1432   -1.5835    1.0909 H   0  0  0  0  0  0  0  0  0  0  0  0
   -5.9668    0.0871    2.4568 H   0  0  0  0  0  0  0  0  0  0  0  0
   -3.9181    1.1039    3.1839 H   0  0  0  0  0  0  0  0  0  0  0  0
   -2.3798    0.5276    2.5544 H   0  0  0  0  0  0  0  0  0  0  0  0
   -3.2585    1.8288    1.7063 H   0  0  0  0  0  0  0  0  0  0  0  0
   -2.6152    1.2569   -0.8761 H   0  0  0  0  0  0  0  0  0  0  0  0
   -2.2488   -0.1442   -1.9267 H   0  0  0  0  0  0  0  0  0  0  0  0
    0.7148   -0.8954   -1.7544 H   0  0  0  0  0  0  0  0  0  0  0  0
    3.3470    3.5322   -0.1945 H   0  0  0  0  0  0  0  0  0  0  0  0
    3.0749    2.1638    0.9363 H   0  0  0  0  0  0  0  0  0  0  0  0
    4.6942    2.8705    0.7421 H   0  0  0  0  0  0  0  0  0  0  0  0
    6.0033    2.3523   -1.1065 H   0  0  0  0  0  0  0  0  0  0  0  0
    5.5096    1.0898   -2.2365 H   0  0  0  0  0  0  0  0  0  0  0  0
    6.2809   -1.0473    2.6131 H   0  0  0  0  0  0  0  0  0  0  0  0
    7.8593   -2.3380    0.8823 H   0  0  0  0  0  0  0  0  0  0  0  0
   -3.5500   -2.2713   -1.1822 H   0  0  0  0  0  0  0  0  0  0  0  0
  1  2  1  0
  2  3  2  0
  3  4  1  0
  4  5  2  0
  5  6  1  0
  5  7  1  0
  7  8  1  0
  8  9  1  0
  9 10  1  0
 10 11  2  0
 11 12  1  0
 12 13  1  0
 13 14  2  0
 13 15  1  0
 15 16  1  0
 15 17  1  0
 17 18  1  0
 18 19  2  0
 19 20  1  0
 20 21  2  0
 21 22  1  0
 12 23  2  0
 23 24  1  0
  7 25  2  0
 25  2  1  0
 24 10  1  0
 22 18  1  0
  1 26  1  0
  1 27  1  0
  1 28  1  0
  3 29  1  0
  4 30  1  0
  6 31  1  0
  6 32  1  0
  6 33  1  0
  9 34  1  0
  9 35  1  0
 11 36  1  0
 16 37  1  0
 16 38  1  0
 16 39  1  0
 17 40  1  0
 17 41  1  0
 20 42  1  0
 21 43  1  0
 25 44  1  0
M  END
$$$$
