
     RDKit          3D

 48 51  0  0  0  0  0  0  0  0999 V2000
    2.5881    0.1651   -3.5811 C   0  0  0  0  0  0  0  0  0  0  0  0
    1.9575   -0.3697   -2.2974 C   0  0  0  0  0  0  0  0  0  0  0  0
    0.7274   -1.2192   -2.6229 C   0  0  0  0  0  0  0  0  0  0  0  0
    2.9883   -1.1693   -1.4878 C   0  0  0  0  0  0  0  0  0  0  0  0
    2.4307   -1.6029   -0.2363 O   0  0  0  0  0  0  0  0  0  0  0  0
    2.5043   -0.7051    0.7686 C   0  0  0  0  0  0  0  0  0  0  0  0
    3.0127    0.4027    0.7712 O   0  0  0  0  0  0  0  0  0  0  0  0
    1.7886   -1.2374    1.9287 C   0  0  0  0  0  0  0  0  0  0  0  0
    2.5057   -2.0541    2.8125 C   0  0  0  0  0  0  0  0  0  0  0  0
    1.8531   -2.6483    3.8930 C   0  0  0  0  0  0  0  0  0  0  0  0
    0.4882   -2.4342    4.0878 C   0  0  0  0  0  0  0  0  0  0  0  0
   -0.2290   -1.6204    3.2080 C   0  0  0  0  0  0  0  0  0  0  0  0
    0.4236   -1.0038    2.1287 C   0  0  0  0  0  0  0  0  0  0  0  0
   -0.3473   -0.2003    1.2445 N   0  0  0  0  0  0  0  0  0  0  0  0
   -0.1236    1.1567    0.9188 C   0  0  0  0  0  0  0  0  0  0  0  0
    0.8706    1.9159    1.3721 O   0  0  0  0  0  0  0  0  0  0  0  0
   -1.1879    1.5436    0.1600 C   0  0  0  0  0  0  0  0  0  0  0  0
   -2.0646    0.4602   -0.0037 C   0  0  0  0  0  0  0  0  0  0  0  0
   -1.5587   -0.6224    0.6475 C   0  0  0  0  0  0  0  0  0  0  0  0
   -2.0471   -1.8603    0.7074 O   0  0  0  0  0  0  0  0  0  0  0  0
   -3.2083    0.9343   -0.8418 C   0  0  0  0  0  0  0  0  0  0  0  0
   -4.0340    1.9357    0.0068 C   0  0  0  0  0  0  0  0  0  0  0  0
   -3.0608    3.1454    0.1986 C   0  0  0  0  0  0  0  0  0  0  0  0
   -1.7820    2.7104   -0.5629 C   0  0  0  0  0  0  0  0  0  0  0  0
   -2.4518    1.9533   -1.7577 C   0  0  0  0  0  0  0  0  0  0  0  0
    3.4437    0.8099   -3.3541 H   0  0  0  0  0  0  0  0  0  0  0  0
    2.9385   -0.6506   -4.2225 H   0  0  0  0  0  0  0  0  0  0  0  0
    1.8654    0.7584   -4.1511 H   0  0  0  0  0  0  0  0  0  0  0  0
    1.6174    0.4832   -1.6979 H   0  0  0  0  0  0  0  0  0  0  0  0
   -0.0106   -0.6339   -3.1817 H   0  0  0  0  0  0  0  0  0  0  0  0
    0.9977   -2.0907   -3.2290 H   0  0  0  0  0  0  0  0  0  0  0  0
    0.2421   -1.5806   -1.7116 H   0  0  0  0  0  0  0  0  0  0  0  0
    3.9038   -0.5887   -1.3188 H   0  0  0  0  0  0  0  0  0  0  0  0
    3.2854   -2.0722   -2.0336 H   0  0  0  0  0  0  0  0  0  0  0  0
    3.5668   -2.2365    2.6564 H   0  0  0  0  0  0  0  0  0  0  0  0
    2.4072   -3.2815    4.5824 H   0  0  0  0  0  0  0  0  0  0  0  0
   -0.0180   -2.8959    4.9333 H   0  0  0  0  0  0  0  0  0  0  0  0
   -1.2890   -1.4476    3.3937 H   0  0  0  0  0  0  0  0  0  0  0  0
    1.7184    1.4285    1.3559 H   0  0  0  0  0  0  0  0  0  0  0  0
   -1.3669   -2.4622    1.0552 H   0  0  0  0  0  0  0  0  0  0  0  0
   -3.7770    0.1622   -1.3594 H   0  0  0  0  0  0  0  0  0  0  0  0
   -4.3417    1.5160    0.9705 H   0  0  0  0  0  0  0  0  0  0  0  0
   -4.9298    2.2614   -0.5339 H   0  0  0  0  0  0  0  0  0  0  0  0
   -2.8719    3.3402    1.2597 H   0  0  0  0  0  0  0  0  0  0  0  0
   -3.4956    4.0460   -0.2492 H   0  0  0  0  0  0  0  0  0  0  0  0
   -1.0913    3.5083   -0.8346 H   0  0  0  0  0  0  0  0  0  0  0  0
   -1.7177    1.4666   -2.4120 H   0  0  0  0  0  0  0  0  0  0  0  0
   -3.1203    2.5837   -2.3538 H   0  0  0  0  0  0  0  0  0  0  0  0
  1  2  1  0
  2  3  1  0
  2  4  1  0
  4  5  1  0
  5  6  1  0
  6  7  2  0
  6  8  1  0
  8  9  2  0
  9 10  1  0
 10 11  2  0
 11 12  1  0
 12 13  2  0
 13 14  1  0
 14 15  1  0
 15 16  1  0
 15 17  2  0
 17 18  1  0
 18 19  2  0
 19 20  1  0
 18 21  1  0
 21 22  1  0
 22 23  1  0
 23 24  1  0
 24 25  1  0
 13  8  1  0
 19 14  1  0
 25 21  1  0
 24 17  1  0
  1 26  1  0
  1 27  1  0
  1 28  1  0
  2 29  1  0
  3 30  1  0
  3 31  1  0
  3 32  1  0
  4 33  1  0
  4 34  1  0
  9 35  1  0
 10 36  1  0
 11 37  1  0
 12 38  1  0
 16 39  1  0
 20 40  1  0
 21 41  1  0
 22 42  1  0
 22 43  1  0
 23 44  1  0
 23 45  1  0
 24 46  1  0
 25 47  1  0
 25 48  1  0
M  END
$$$$
