
     RDKit          3D

 42 45  0  0  0  0  0  0  0  0999 V2000
   -3.4892   -2.1181   -1.4693 O   0  0  0  0  0  0  0  0  0  0  0  0
   -3.1380   -1.0582   -0.9643 C   0  0  0  0  0  0  0  0  0  0  0  0
   -1.8242   -0.6902   -0.7828 N   0  0  0  0  0  0  0  0  0  0  0  0
   -0.7201   -1.5794   -1.0586 C   0  0  0  0  0  0  0  0  0  0  0  0
   -0.5114   -2.5989    0.0842 C   0  0  0  0  0  0  0  0  0  0  0  0
    0.0958   -1.9465    1.3406 C   0  0  0  0  0  0  0  0  0  0  0  0
    1.4609   -1.2774    1.0751 C   0  0  0  0  0  0  0  0  0  0  0  0
    1.4447   -0.5382   -0.2233 C   0  0  0  0  0  0  0  0  0  0  0  0
    0.4964   -0.7365   -1.2131 C   0  0  0  0  0  0  0  0  0  0  0  0
    0.9948   -0.0617   -2.3311 C   0  0  0  0  0  0  0  0  0  0  0  0
    2.1787    0.4996   -2.0940 N   0  0  0  0  0  0  0  0  0  0  0  0
    2.4187    0.2889   -0.7648 N   0  0  0  0  0  0  0  0  0  0  0  0
    3.5872    0.8518   -0.1914 C   0  0  0  0  0  0  0  0  0  0  0  0
    4.7033    1.0792   -1.0168 C   0  0  0  0  0  0  0  0  0  0  0  0
    5.8805    1.6157   -0.4877 C   0  0  0  0  0  0  0  0  0  0  0  0
    5.9482    1.9525    0.8620 C   0  0  0  0  0  0  0  0  0  0  0  0
    4.8308    1.7719    1.6749 C   0  0  0  0  0  0  0  0  0  0  0  0
    3.6560    1.2348    1.1455 C   0  0  0  0  0  0  0  0  0  0  0  0
    2.5803    1.2210    1.9415 F   0  0  0  0  0  0  0  0  0  0  0  0
   -4.1312   -0.0475   -0.4763 C   0  0  0  0  0  0  0  0  0  0  0  0
   -5.4912   -0.2774   -0.6395 C   0  0  0  0  0  0  0  0  0  0  0  0
   -6.3786    0.6857   -0.1692 C   0  0  0  0  0  0  0  0  0  0  0  0
   -5.8800    1.8327    0.4421 C   0  0  0  0  0  0  0  0  0  0  0  0
   -4.5056    1.9756    0.5629 C   0  0  0  0  0  0  0  0  0  0  0  0
   -3.6130    1.0641    0.1211 N   0  0  0  0  0  0  0  0  0  0  0  0
   -1.6675    0.1755   -0.2717 H   0  0  0  0  0  0  0  0  0  0  0  0
   -0.9352   -2.1231   -1.9861 H   0  0  0  0  0  0  0  0  0  0  0  0
    0.1693   -3.3894   -0.2583 H   0  0  0  0  0  0  0  0  0  0  0  0
   -1.4588   -3.0839    0.3465 H   0  0  0  0  0  0  0  0  0  0  0  0
   -0.6048   -1.1946    1.7265 H   0  0  0  0  0  0  0  0  0  0  0  0
    0.2113   -2.6998    2.1285 H   0  0  0  0  0  0  0  0  0  0  0  0
    1.6870   -0.6515    1.9349 H   0  0  0  0  0  0  0  0  0  0  0  0
    2.2345   -2.0533    1.0223 H   0  0  0  0  0  0  0  0  0  0  0  0
    0.5644    0.0154   -3.3216 H   0  0  0  0  0  0  0  0  0  0  0  0
    4.6736    0.8209   -2.0748 H   0  0  0  0  0  0  0  0  0  0  0  0
    6.7414    1.7725   -1.1337 H   0  0  0  0  0  0  0  0  0  0  0  0
    6.8605    2.3767    1.2736 H   0  0  0  0  0  0  0  0  0  0  0  0
    4.8554    2.0737    2.7179 H   0  0  0  0  0  0  0  0  0  0  0  0
   -5.8490   -1.1818   -1.1207 H   0  0  0  0  0  0  0  0  0  0  0  0
   -7.4502    0.5428   -0.2793 H   0  0  0  0  0  0  0  0  0  0  0  0
   -6.5492    2.6001    0.8169 H   0  0  0  0  0  0  0  0  0  0  0  0
   -4.0763    2.8563    1.0334 H   0  0  0  0  0  0  0  0  0  0  0  0
  1  2  2  0
  2  3  1  0
  3  4  1  0
  4  5  1  0
  5  6  1  0
  6  7  1  0
  7  8  1  0
  8  9  2  0
  9 10  1  0
 10 11  2  0
 11 12  1  0
 12 13  1  0
 13 14  2  0
 14 15  1  0
 15 16  2  0
 16 17  1  0
 17 18  2  0
 18 19  1  0
  2 20  1  0
 20 21  2  0
 21 22  1  0
 22 23  2  0
 23 24  1  0
 24 25  2  0
  9  4  1  0
 18 13  1  0
 25 20  1  0
 12  8  1  0
  3 26  1  0
  4 27  1  0
  5 28  1  0
  5 29  1  0
  6 30  1  0
  6 31  1  0
  7 32  1  0
  7 33  1  0
 10 34  1  0
 14 35  1  0
 15 36  1  0
 16 37  1  0
 17 38  1  0
 21 39  1  0
 22 40  1  0
 23 41  1  0
 24 42  1  0
M  END
$$$$
