
     RDKit          3D

 41 43  0  0  0  0  0  0  0  0999 V2000
   -2.4325   -0.3635    1.3183 O   0  0  0  0  0  0  0  0  0  0  0  0
   -2.8702   -0.2433    0.1750 C   0  0  0  0  0  0  0  0  0  0  0  0
   -4.3090   -0.5561   -0.1896 C   0  0  0  0  0  0  0  0  0  0  0  0
   -5.2058    0.6491   -0.0608 C   0  0  0  0  0  0  0  0  0  0  0  0
   -5.5012    1.1750    1.2060 C   0  0  0  0  0  0  0  0  0  0  0  0
   -6.3147    2.3018    1.3350 C   0  0  0  0  0  0  0  0  0  0  0  0
   -6.8421    2.9143    0.1990 C   0  0  0  0  0  0  0  0  0  0  0  0
   -6.5565    2.3997   -1.0648 C   0  0  0  0  0  0  0  0  0  0  0  0
   -5.7412    1.2721   -1.1957 C   0  0  0  0  0  0  0  0  0  0  0  0
   -2.1048    0.2101   -0.8899 N   0  0  0  0  0  0  0  0  0  0  0  0
   -0.7181    0.2852   -0.6645 N   0  0  0  0  0  0  0  0  0  0  0  0
    0.0358   -0.8714   -0.7683 C   0  0  0  0  0  0  0  0  0  0  0  0
   -0.3563   -1.9562   -1.1815 O   0  0  0  0  0  0  0  0  0  0  0  0
    1.4313   -0.5794   -0.3388 C   0  0  0  0  0  0  0  0  0  0  0  0
    2.3663   -1.5400   -0.3061 C   0  0  0  0  0  0  0  0  0  0  0  0
    3.7702   -1.3896    0.0957 C   0  0  0  0  0  0  0  0  0  0  0  0
    4.1272   -0.9067    1.3608 C   0  0  0  0  0  0  0  0  0  0  0  0
    5.4731   -0.7979    1.7271 C   0  0  0  0  0  0  0  0  0  0  0  0
    6.4763   -1.1899    0.8353 C   0  0  0  0  0  0  0  0  0  0  0  0
    7.9157   -1.1042    1.1811 C   0  0  0  0  0  0  0  0  0  0  0  0
    8.8386   -1.4839    0.4857 O   0  0  0  0  0  0  0  0  0  0  0  0
    8.1317   -0.5458    2.3857 O   0  0  0  0  0  0  0  0  0  0  0  0
    6.1235   -1.6933   -0.4231 C   0  0  0  0  0  0  0  0  0  0  0  0
    4.7771   -1.7941   -0.7884 C   0  0  0  0  0  0  0  0  0  0  0  0
    1.6019    1.0963    0.0463 S   0  0  0  0  0  0  0  0  0  0  0  0
   -0.0972    1.4495   -0.2612 C   0  0  0  0  0  0  0  0  0  0  0  0
   -0.7609    2.9727   -0.1095 S   0  0  0  0  0  0  0  0  0  0  0  0
   -4.6671   -1.3595    0.4667 H   0  0  0  0  0  0  0  0  0  0  0  0
   -4.3472   -0.9643   -1.2078 H   0  0  0  0  0  0  0  0  0  0  0  0
   -5.0892    0.7148    2.1018 H   0  0  0  0  0  0  0  0  0  0  0  0
   -6.5295    2.7060    2.3206 H   0  0  0  0  0  0  0  0  0  0  0  0
   -7.4715    3.7953    0.3006 H   0  0  0  0  0  0  0  0  0  0  0  0
   -6.9649    2.8836   -1.9488 H   0  0  0  0  0  0  0  0  0  0  0  0
   -5.5321    0.8899   -2.1930 H   0  0  0  0  0  0  0  0  0  0  0  0
   -2.3741   -0.0505   -1.8327 H   0  0  0  0  0  0  0  0  0  0  0  0
    2.0992   -2.5516   -0.6151 H   0  0  0  0  0  0  0  0  0  0  0  0
    3.3650   -0.6138    2.0785 H   0  0  0  0  0  0  0  0  0  0  0  0
    5.7248   -0.4094    2.7120 H   0  0  0  0  0  0  0  0  0  0  0  0
    9.1076   -0.5552    2.4779 H   0  0  0  0  0  0  0  0  0  0  0  0
    6.8952   -2.0083   -1.1239 H   0  0  0  0  0  0  0  0  0  0  0  0
    4.5257   -2.1875   -1.7712 H   0  0  0  0  0  0  0  0  0  0  0  0
  1  2  2  0
  2  3  1  0
  3  4  1  0
  4  5  2  0
  5  6  1  0
  6  7  2  0
  7  8  1  0
  8  9  2  0
  2 10  1  0
 10 11  1  0
 11 12  1  0
 12 13  2  0
 12 14  1  0
 14 15  2  3
 15 16  1  0
 16 17  2  0
 17 18  1  0
 18 19  2  0
 19 20  1  0
 20 21  2  0
 20 22  1  0
 19 23  1  0
 23 24  2  0
 14 25  1  0
 25 26  1  0
 26 27  2  0
  9  4  1  0
 26 11  1  0
 24 16  1  0
  3 28  1  0
  3 29  1  0
  5 30  1  0
  6 31  1  0
  7 32  1  0
  8 33  1  0
  9 34  1  0
 10 35  1  0
 15 36  1  0
 17 37  1  0
 18 38  1  0
 22 39  1  0
 23 40  1  0
 24 41  1  0
M  END
$$$$
