
     RDKit          3D

 29 31  0  0  0  0  0  0  0  0999 V2000
    0.1876   -1.5298   -0.4974 O   0  0  0  0  0  0  0  0  0  0  0  0
   -0.0811   -0.4268   -0.0343 C   0  0  0  0  0  0  0  0  0  0  0  0
   -1.4929    0.0294    0.1249 C   0  0  0  0  0  0  0  0  0  0  0  0
   -2.5016   -0.7652   -0.2574 C   0  0  0  0  0  0  0  0  0  0  0  0
   -3.8959   -0.4948   -0.1614 C   0  0  0  0  0  0  0  0  0  0  0  0
   -4.6327    0.6857   -0.1260 C   0  0  0  0  0  0  0  0  0  0  0  0
   -6.0064    0.3507   -0.0435 C   0  0  0  0  0  0  0  0  0  0  0  0
   -6.0562   -1.0173   -0.0478 C   0  0  0  0  0  0  0  0  0  0  0  0
   -4.8077   -1.5322   -0.1288 O   0  0  0  0  0  0  0  0  0  0  0  0
   -1.5310    1.5695    0.8646 S   0  0  0  0  0  0  0  0  0  0  0  0
    0.2258    1.7211    0.8868 C   0  0  0  0  0  0  0  0  0  0  0  0
    0.9172    3.1852    1.3141 S   0  0  0  0  0  0  0  0  0  0  0  0
    0.8076    0.5422    0.4342 N   0  0  0  0  0  0  0  0  0  0  0  0
    2.2200    0.2848    0.4108 C   0  0  0  0  0  0  0  0  0  0  0  0
    3.0538    0.6658    1.4738 C   0  0  0  0  0  0  0  0  0  0  0  0
    4.4267    0.3982    1.4460 C   0  0  0  0  0  0  0  0  0  0  0  0
    4.9799   -0.2634    0.3601 C   0  0  0  0  0  0  0  0  0  0  0  0
    6.3199   -0.5058    0.3766 O   0  0  0  0  0  0  0  0  0  0  0  0
    4.1808   -0.6678   -0.6996 C   0  0  0  0  0  0  0  0  0  0  0  0
    2.8076   -0.3981   -0.6689 C   0  0  0  0  0  0  0  0  0  0  0  0
   -2.2641   -1.7494   -0.6598 H   0  0  0  0  0  0  0  0  0  0  0  0
   -4.2345    1.6894   -0.1684 H   0  0  0  0  0  0  0  0  0  0  0  0
   -6.8501    1.0244    0.0035 H   0  0  0  0  0  0  0  0  0  0  0  0
   -6.8593   -1.7399   -0.0069 H   0  0  0  0  0  0  0  0  0  0  0  0
    2.6569    1.1376    2.3686 H   0  0  0  0  0  0  0  0  0  0  0  0
    5.0581    0.6972    2.2786 H   0  0  0  0  0  0  0  0  0  0  0  0
    6.5613   -0.9833   -0.4341 H   0  0  0  0  0  0  0  0  0  0  0  0
    4.5984   -1.1911   -1.5542 H   0  0  0  0  0  0  0  0  0  0  0  0
    2.2120   -0.7160   -1.5223 H   0  0  0  0  0  0  0  0  0  0  0  0
  1  2  2  0
  2  3  1  0
  3  4  2  3
  4  5  1  0
  5  6  2  0
  6  7  1  0
  7  8  2  0
  8  9  1  0
  3 10  1  0
 10 11  1  0
 11 12  2  0
 11 13  1  0
 13 14  1  0
 14 15  2  0
 15 16  1  0
 16 17  2  0
 17 18  1  0
 17 19  1  0
 19 20  2  0
 13  2  1  0
 20 14  1  0
  9  5  1  0
  4 21  1  0
  6 22  1  0
  7 23  1  0
  8 24  1  0
 15 25  1  0
 16 26  1  0
 18 27  1  0
 19 28  1  0
 20 29  1  0
M  END
$$$$
