
     RDKit          3D

 56 60  0  0  0  0  0  0  0  0999 V2000
    3.4169   -0.8605    5.1915 C   0  0  0  0  0  0  0  0  0  0  0  0
    3.7408   -2.1140    4.3952 C   0  0  0  0  0  0  0  0  0  0  0  0
    3.8829   -1.8372    2.9869 N   0  0  0  0  0  0  0  0  0  0  0  0
    5.0811   -1.5101    2.3580 C   0  0  0  0  0  0  0  0  0  0  0  0
    6.2018   -1.4401    2.8208 O   0  0  0  0  0  0  0  0  0  0  0  0
    4.7157   -1.2421    0.9517 C   0  0  0  0  0  0  0  0  0  0  0  0
    5.4940   -0.8928   -0.1303 C   0  0  0  0  0  0  0  0  0  0  0  0
    4.8380   -0.6982   -1.3498 C   0  0  0  0  0  0  0  0  0  0  0  0
    3.4342   -0.8484   -1.4589 C   0  0  0  0  0  0  0  0  0  0  0  0
    2.6254   -1.2090   -0.3387 C   0  0  0  0  0  0  0  0  0  0  0  0
    1.2219   -1.4122   -0.1780 C   0  0  0  0  0  0  0  0  0  0  0  0
    0.0482   -1.2255   -1.5111 S   0  0  0  0  0  6  0  0  0  0  0  0
    0.7110   -0.8111   -2.7285 O   0  0  0  0  0  0  0  0  0  0  0  0
   -0.7450   -2.4422   -1.4912 O   0  0  0  0  0  0  0  0  0  0  0  0
   -0.9486    0.0638   -0.9657 N   0  0  0  0  0  0  0  0  0  0  0  0
   -0.3380    1.2762   -0.5200 C   0  0  0  0  0  0  0  0  0  0  0  0
    0.8587    1.5125   -0.6252 O   0  0  0  0  0  0  0  0  0  0  0  0
   -1.2002    2.2536    0.1912 C   0  0  0  0  0  0  0  0  0  0  0  0
   -2.3549    1.9016    0.8953 C   0  0  0  0  0  0  0  0  0  0  0  0
   -3.1001    2.8947    1.5284 C   0  0  0  0  0  0  0  0  0  0  0  0
   -2.6596    4.2059    1.4426 C   0  0  0  0  0  0  0  0  0  0  0  0
   -1.5423    4.5780    0.7815 N   0  0  0  0  0  0  0  0  0  0  0  0
   -0.8340    3.5941    0.1745 C   0  0  0  0  0  0  0  0  0  0  0  0
   -2.0926    0.2585   -1.8354 C   0  0  0  0  0  0  0  0  0  0  0  0
   -2.0348    1.1078   -2.9434 C   0  0  0  0  0  0  0  0  0  0  0  0
   -3.1476    1.2409   -3.7779 C   0  0  0  0  0  0  0  0  0  0  0  0
   -4.3144    0.5097   -3.5370 C   0  0  0  0  0  0  0  0  0  0  0  0
   -5.3225    0.7354   -4.4298 O   0  0  0  0  0  0  0  0  0  0  0  0
   -6.5235   -0.0038   -4.2483 C   0  0  0  0  0  0  0  0  0  0  0  0
   -4.3564   -0.3698   -2.4558 C   0  0  0  0  0  0  0  0  0  0  0  0
   -3.2448   -0.5037   -1.6161 C   0  0  0  0  0  0  0  0  0  0  0  0
    0.6712   -1.7937    1.0805 C   0  0  0  0  0  0  0  0  0  0  0  0
    1.4806   -1.9572    2.2125 C   0  0  0  0  0  0  0  0  0  0  0  0
    2.8333   -1.7490    2.0600 C   0  0  0  0  0  0  0  0  0  0  0  0
    3.3538   -1.3950    0.8380 C   0  0  0  0  0  0  0  0  0  0  0  0
    2.4704   -0.4167    4.8622 H   0  0  0  0  0  0  0  0  0  0  0  0
    4.2006   -0.1054    5.0721 H   0  0  0  0  0  0  0  0  0  0  0  0
    3.3294   -1.0985    6.2560 H   0  0  0  0  0  0  0  0  0  0  0  0
    2.9667   -2.8738    4.5402 H   0  0  0  0  0  0  0  0  0  0  0  0
    4.6855   -2.5339    4.7610 H   0  0  0  0  0  0  0  0  0  0  0  0
    6.5685   -0.7744   -0.0331 H   0  0  0  0  0  0  0  0  0  0  0  0
    5.4120   -0.4241   -2.2324 H   0  0  0  0  0  0  0  0  0  0  0  0
    2.9911   -0.6719   -2.4355 H   0  0  0  0  0  0  0  0  0  0  0  0
   -2.6760    0.8681    0.9741 H   0  0  0  0  0  0  0  0  0  0  0  0
   -4.0009    2.6519    2.0822 H   0  0  0  0  0  0  0  0  0  0  0  0
   -3.2064    5.0142    1.9199 H   0  0  0  0  0  0  0  0  0  0  0  0
    0.0613    3.9339   -0.3424 H   0  0  0  0  0  0  0  0  0  0  0  0
   -1.1296    1.6610   -3.1825 H   0  0  0  0  0  0  0  0  0  0  0  0
   -3.1003    1.9103   -4.6346 H   0  0  0  0  0  0  0  0  0  0  0  0
   -6.3412   -1.0796   -4.3248 H   0  0  0  0  0  0  0  0  0  0  0  0
   -6.9992    0.2516   -3.2956 H   0  0  0  0  0  0  0  0  0  0  0  0
   -7.2126    0.2738   -5.0511 H   0  0  0  0  0  0  0  0  0  0  0  0
   -5.2317   -0.9761   -2.2453 H   0  0  0  0  0  0  0  0  0  0  0  0
   -3.2846   -1.2145   -0.7941 H   0  0  0  0  0  0  0  0  0  0  0  0
   -0.4010   -1.9698    1.1722 H   0  0  0  0  0  0  0  0  0  0  0  0
    1.0477   -2.2430    3.1640 H   0  0  0  0  0  0  0  0  0  0  0  0
  1  2  1  0
  2  3  1  0
  3  4  1  0
  4  5  2  0
  4  6  1  0
  6  7  2  0
  7  8  1  0
  8  9  2  0
  9 10  1  0
 10 11  2  0
 11 12  1  0
 12 13  2  0
 12 14  2  0
 12 15  1  0
 15 16  1  0
 16 17  2  0
 16 18  1  0
 18 19  2  0
 19 20  1  0
 20 21  2  0
 21 22  1  0
 22 23  2  0
 15 24  1  0
 24 25  2  0
 25 26  1  0
 26 27  2  0
 27 28  1  0
 28 29  1  0
 27 30  1  0
 30 31  2  0
 11 32  1  0
 32 33  2  0
 33 34  1  0
 34 35  2  0
 34  3  1  0
 35  6  1  0
 35 10  1  0
 23 18  1  0
 31 24  1  0
  1 36  1  0
  1 37  1  0
  1 38  1  0
  2 39  1  0
  2 40  1  0
  7 41  1  0
  8 42  1  0
  9 43  1  0
 19 44  1  0
 20 45  1  0
 21 46  1  0
 23 47  1  0
 25 48  1  0
 26 49  1  0
 29 50  1  0
 29 51  1  0
 29 52  1  0
 30 53  1  0
 31 54  1  0
 32 55  1  0
 33 56  1  0
M  END
$$$$
