
     RDKit          3D

 44 46  0  0  0  0  0  0  0  0999 V2000
    1.1622    0.6765   -2.2965 O   0  0  0  0  0  0  0  0  0  0  0  0
    0.9052   -0.1448   -1.4153 C   0  0  0  0  0  0  0  0  0  0  0  0
   -0.3405   -1.0277   -1.4411 C   0  0  0  0  0  0  0  0  0  0  0  0
   -1.2297   -0.8079   -0.3447 O   0  0  0  0  0  0  0  0  0  0  0  0
   -0.9433   -1.4965    0.7917 C   0  0  0  0  0  0  0  0  0  0  0  0
    0.0602   -2.1882    0.9327 O   0  0  0  0  0  0  0  0  0  0  0  0
   -1.9631   -1.2719    1.9016 C   0  0  0  0  0  0  0  0  0  0  0  0
   -3.1001   -0.4558    1.4967 N   0  0  0  0  0  0  0  0  0  0  0  0
   -3.0879    0.9016    1.7027 C   0  0  0  0  0  0  0  0  0  0  0  0
   -4.0337    1.7090    1.3616 N   0  0  0  0  0  0  0  0  0  0  0  0
   -5.1581    1.1618    0.7257 C   0  0  0  0  0  0  0  0  0  0  0  0
   -6.2047    2.0096    0.3572 C   0  0  0  0  0  0  0  0  0  0  0  0
   -7.3399    1.5029   -0.2826 C   0  0  0  0  0  0  0  0  0  0  0  0
   -7.4376    0.1393   -0.5608 C   0  0  0  0  0  0  0  0  0  0  0  0
   -6.4001   -0.7191   -0.1990 C   0  0  0  0  0  0  0  0  0  0  0  0
   -5.2693   -0.2008    0.4423 C   0  0  0  0  0  0  0  0  0  0  0  0
   -4.1514   -1.0766    0.8393 C   0  0  0  0  0  0  0  0  0  0  0  0
   -4.1725   -2.2757    0.5759 O   0  0  0  0  0  0  0  0  0  0  0  0
    1.7379   -0.3481   -0.3321 N   0  0  0  0  0  0  0  0  0  0  0  0
    3.0029    0.2671   -0.3720 N   0  0  0  0  0  0  0  0  0  0  0  0
    4.0764   -0.4677    0.0968 C   0  0  0  0  0  0  0  0  0  0  0  0
    3.9424   -1.5383    0.6834 O   0  0  0  0  0  0  0  0  0  0  0  0
    5.4325    0.0864   -0.1748 C   0  0  0  0  0  0  0  0  0  0  0  0
    6.5245   -0.7931   -0.1511 C   0  0  0  0  0  0  0  0  0  0  0  0
    7.8169   -0.3223   -0.3969 C   0  0  0  0  0  0  0  0  0  0  0  0
    8.0194    1.0311   -0.6589 C   0  0  0  0  0  0  0  0  0  0  0  0
    9.7667    1.6715   -0.9896 Br  0  0  0  0  0  0  0  0  0  0  0  0
    6.9436    1.9185   -0.6719 C   0  0  0  0  0  0  0  0  0  0  0  0
    5.6491    1.4486   -0.4263 C   0  0  0  0  0  0  0  0  0  0  0  0
   -0.0449   -2.0809   -1.5201 H   0  0  0  0  0  0  0  0  0  0  0  0
   -0.8978   -0.7904   -2.3540 H   0  0  0  0  0  0  0  0  0  0  0  0
   -1.4448   -0.7751    2.7286 H   0  0  0  0  0  0  0  0  0  0  0  0
   -2.3213   -2.2521    2.2330 H   0  0  0  0  0  0  0  0  0  0  0  0
   -2.1849    1.2879    2.2022 H   0  0  0  0  0  0  0  0  0  0  0  0
   -6.1317    3.0733    0.5701 H   0  0  0  0  0  0  0  0  0  0  0  0
   -8.1469    2.1753   -0.5642 H   0  0  0  0  0  0  0  0  0  0  0  0
   -8.3206   -0.2534   -1.0594 H   0  0  0  0  0  0  0  0  0  0  0  0
   -6.4721   -1.7825   -0.4149 H   0  0  0  0  0  0  0  0  0  0  0  0
    1.6786   -1.2162    0.2150 H   0  0  0  0  0  0  0  0  0  0  0  0
    3.1194    0.9504   -1.1200 H   0  0  0  0  0  0  0  0  0  0  0  0
    6.3710   -1.8508    0.0579 H   0  0  0  0  0  0  0  0  0  0  0  0
    8.6529   -1.0171   -0.3783 H   0  0  0  0  0  0  0  0  0  0  0  0
    7.1029    2.9770   -0.8640 H   0  0  0  0  0  0  0  0  0  0  0  0
    4.8324    2.1652   -0.4123 H   0  0  0  0  0  0  0  0  0  0  0  0
  1  2  2  0
  2  3  1  0
  3  4  1  0
  4  5  1  0
  5  6  2  0
  5  7  1  0
  7  8  1  0
  8  9  1  0
  9 10  2  0
 10 11  1  0
 11 12  2  0
 12 13  1  0
 13 14  2  0
 14 15  1  0
 15 16  2  0
 16 17  1  0
 17 18  2  0
  2 19  1  0
 19 20  1  0
 20 21  1  0
 21 22  2  0
 21 23  1  0
 23 24  2  0
 24 25  1  0
 25 26  2  0
 26 27  1  0
 26 28  1  0
 28 29  2  0
 17  8  1  0
 29 23  1  0
 16 11  1  0
  3 30  1  0
  3 31  1  0
  7 32  1  0
  7 33  1  0
  9 34  1  0
 12 35  1  0
 13 36  1  0
 14 37  1  0
 15 38  1  0
 19 39  1  0
 20 40  1  0
 24 41  1  0
 25 42  1  0
 28 43  1  0
 29 44  1  0
M  END
$$$$
