
     RDKit          3D

 53 57  0  0  0  0  0  0  0  0999 V2000
    3.2647    1.7736    2.6662 C   0  0  0  0  0  0  0  0  0  0  0  0
    2.7060    0.6170    3.4481 C   0  0  0  0  0  0  0  0  0  0  0  0
    3.4880    0.0625    4.4762 C   0  0  0  0  0  0  0  0  0  0  0  0
    3.0173   -1.0024    5.2473 C   0  0  0  0  0  0  0  0  0  0  0  0
    1.7521   -1.5305    5.0109 C   0  0  0  0  0  0  0  0  0  0  0  0
    0.9547   -0.9943    4.0015 C   0  0  0  0  0  0  0  0  0  0  0  0
    1.4267    0.0728    3.2198 C   0  0  0  0  0  0  0  0  0  0  0  0
    0.3416    0.7170    1.9508 S   0  0  0  0  0  6  0  0  0  0  0  0
    0.3323    2.1572    2.0705 O   0  0  0  0  0  0  0  0  0  0  0  0
   -0.8978   -0.0329    2.0125 O   0  0  0  0  0  0  0  0  0  0  0  0
    1.1420    0.1913    0.5518 N   0  0  0  0  0  0  0  0  0  0  0  0
    0.8212    0.9991   -0.5824 C   0  0  0  0  0  0  0  0  0  0  0  0
    1.4834    2.1633   -0.6833 N   0  0  0  0  0  0  0  0  0  0  0  0
    1.1258    2.9420   -1.7186 C   0  0  0  0  0  0  0  0  0  0  0  0
    1.7442    4.1745   -1.8835 C   0  0  0  0  0  0  0  0  0  0  0  0
    1.4092    5.0199   -2.9421 C   0  0  0  0  0  0  0  0  0  0  0  0
    0.4373    4.6267   -3.8529 C   0  0  0  0  0  0  0  0  0  0  0  0
   -0.1933    3.3910   -3.6985 C   0  0  0  0  0  0  0  0  0  0  0  0
    0.1293    2.5392   -2.6498 C   0  0  0  0  0  0  0  0  0  0  0  0
   -0.5062    1.3534   -2.5452 N   0  0  0  0  0  0  0  0  0  0  0  0
   -0.1598    0.5729   -1.5007 C   0  0  0  0  0  0  0  0  0  0  0  0
   -0.7421   -0.7083   -1.3307 N   0  0  0  0  0  0  0  0  0  0  0  0
   -0.3788   -1.6076   -2.4524 C   0  0  0  0  0  0  0  0  0  0  0  0
   -1.4991   -2.5705   -2.8921 C   0  0  0  0  0  0  0  0  0  0  0  0
   -2.4112   -2.9529   -1.7586 C   0  0  0  0  0  0  0  0  0  0  0  0
   -2.9482   -4.2343   -1.6217 C   0  0  0  0  0  0  0  0  0  0  0  0
   -3.8120   -4.5120   -0.5615 C   0  0  0  0  0  0  0  0  0  0  0  0
   -4.1475   -3.5121    0.3534 C   0  0  0  0  0  0  0  0  0  0  0  0
   -3.6257   -2.2259    0.2113 C   0  0  0  0  0  0  0  0  0  0  0  0
   -2.7581   -1.9410   -0.8459 C   0  0  0  0  0  0  0  0  0  0  0  0
   -2.1845   -0.5627   -1.0775 C   0  0  0  0  0  0  0  0  0  0  0  0
    2.7203    2.6932    2.8979 H   0  0  0  0  0  0  0  0  0  0  0  0
    4.3168    1.9497    2.9168 H   0  0  0  0  0  0  0  0  0  0  0  0
    3.2320    1.5769    1.5925 H   0  0  0  0  0  0  0  0  0  0  0  0
    4.4786    0.4621    4.6880 H   0  0  0  0  0  0  0  0  0  0  0  0
    3.6396   -1.4152    6.0377 H   0  0  0  0  0  0  0  0  0  0  0  0
    1.3838   -2.3555    5.6153 H   0  0  0  0  0  0  0  0  0  0  0  0
   -0.0357   -1.4140    3.8357 H   0  0  0  0  0  0  0  0  0  0  0  0
    0.7475   -0.7359    0.3515 H   0  0  0  0  0  0  0  0  0  0  0  0
    2.5012    4.4838   -1.1662 H   0  0  0  0  0  0  0  0  0  0  0  0
    1.9058    5.9812   -3.0484 H   0  0  0  0  0  0  0  0  0  0  0  0
    0.1665    5.2771   -4.6811 H   0  0  0  0  0  0  0  0  0  0  0  0
   -0.9555    3.0851   -4.4113 H   0  0  0  0  0  0  0  0  0  0  0  0
    0.4723   -2.2079   -2.1043 H   0  0  0  0  0  0  0  0  0  0  0  0
   -0.0253   -1.0677   -3.3409 H   0  0  0  0  0  0  0  0  0  0  0  0
   -2.1110   -2.0864   -3.6643 H   0  0  0  0  0  0  0  0  0  0  0  0
   -1.0496   -3.4582   -3.3524 H   0  0  0  0  0  0  0  0  0  0  0  0
   -2.6994   -5.0188   -2.3314 H   0  0  0  0  0  0  0  0  0  0  0  0
   -4.2266   -5.5102   -0.4478 H   0  0  0  0  0  0  0  0  0  0  0  0
   -4.8182   -3.7353    1.1795 H   0  0  0  0  0  0  0  0  0  0  0  0
   -3.8909   -1.4542    0.9306 H   0  0  0  0  0  0  0  0  0  0  0  0
   -2.7078   -0.0999   -1.9256 H   0  0  0  0  0  0  0  0  0  0  0  0
   -2.3556    0.0643   -0.1947 H   0  0  0  0  0  0  0  0  0  0  0  0
  1  2  1  0
  2  3  2  0
  3  4  1  0
  4  5  2  0
  5  6  1  0
  6  7  2  0
  7  8  1  0
  8  9  2  0
  8 10  2  0
  8 11  1  0
 11 12  1  0
 12 13  2  0
 13 14  1  0
 14 15  2  0
 15 16  1  0
 16 17  2  0
 17 18  1  0
 18 19  2  0
 19 20  1  0
 20 21  2  0
 21 22  1  0
 22 23  1  0
 23 24  1  0
 24 25  1  0
 25 26  2  0
 26 27  1  0
 27 28  2  0
 28 29  1  0
 29 30  2  0
 30 31  1  0
  7  2  1  0
 21 12  1  0
 31 22  1  0
 19 14  1  0
 30 25  1  0
  1 32  1  0
  1 33  1  0
  1 34  1  0
  3 35  1  0
  4 36  1  0
  5 37  1  0
  6 38  1  0
 11 39  1  0
 15 40  1  0
 16 41  1  0
 17 42  1  0
 18 43  1  0
 23 44  1  0
 23 45  1  0
 24 46  1  0
 24 47  1  0
 26 48  1  0
 27 49  1  0
 28 50  1  0
 29 51  1  0
 31 52  1  0
 31 53  1  0
M  END
$$$$
