
     RDKit          3D

 48 51  0  0  0  0  0  0  0  0999 V2000
    3.9151    2.5544   -1.3469 C   0  0  0  0  0  0  0  0  0  0  0  0
    3.1991    1.2235   -1.1267 C   0  0  0  0  0  0  0  0  0  0  0  0
    3.3971    0.3071   -2.3358 C   0  0  0  0  0  0  0  0  0  0  0  0
    3.6956    0.5575    0.1635 C   0  0  0  0  0  0  0  0  0  0  0  0
    2.9764   -0.6564    0.4310 O   0  0  0  0  0  0  0  0  0  0  0  0
    1.8148   -0.5065    1.1175 C   0  0  0  0  0  0  0  0  0  0  0  0
    1.3417    0.5388    1.5319 O   0  0  0  0  0  0  0  0  0  0  0  0
    1.2038   -1.8381    1.3507 C   0  0  0  0  0  0  0  0  0  0  0  0
    2.0354   -2.8712    1.8177 C   0  0  0  0  0  0  0  0  0  0  0  0
    1.4918   -4.0898    2.2286 C   0  0  0  0  0  0  0  0  0  0  0  0
    0.1132   -4.2851    2.1927 C   0  0  0  0  0  0  0  0  0  0  0  0
   -0.7257   -3.2692    1.7323 C   0  0  0  0  0  0  0  0  0  0  0  0
   -0.1847   -2.0454    1.2994 C   0  0  0  0  0  0  0  0  0  0  0  0
   -1.0745   -1.0765    0.7550 N   0  0  0  0  0  0  0  0  0  0  0  0
   -0.9099   -0.4329   -0.4869 C   0  0  0  0  0  0  0  0  0  0  0  0
    0.1409   -0.6480   -1.2717 O   0  0  0  0  0  0  0  0  0  0  0  0
   -2.0232    0.3287   -0.6836 C   0  0  0  0  0  0  0  0  0  0  0  0
   -2.8986    0.1396    0.4006 C   0  0  0  0  0  0  0  0  0  0  0  0
   -2.3248   -0.7091    1.2987 C   0  0  0  0  0  0  0  0  0  0  0  0
   -2.7798   -1.1006    2.4875 O   0  0  0  0  0  0  0  0  0  0  0  0
   -4.1112    0.9773    0.1493 C   0  0  0  0  0  0  0  0  0  0  0  0
   -3.6943    2.4669    0.2618 C   0  0  0  0  0  0  0  0  0  0  0  0
   -2.7278    2.6719   -0.9510 C   0  0  0  0  0  0  0  0  0  0  0  0
   -2.6913    1.2772   -1.6281 C   0  0  0  0  0  0  0  0  0  0  0  0
   -4.1828    0.8579   -1.4091 C   0  0  0  0  0  0  0  0  0  0  0  0
    3.7431    3.2320   -0.5039 H   0  0  0  0  0  0  0  0  0  0  0  0
    4.9960    2.4124   -1.4531 H   0  0  0  0  0  0  0  0  0  0  0  0
    3.5477    3.0487   -2.2525 H   0  0  0  0  0  0  0  0  0  0  0  0
    2.1241    1.4204   -1.0354 H   0  0  0  0  0  0  0  0  0  0  0  0
    4.4564    0.0717   -2.4853 H   0  0  0  0  0  0  0  0  0  0  0  0
    2.8560   -0.6363   -2.2125 H   0  0  0  0  0  0  0  0  0  0  0  0
    3.0253    0.7851   -3.2483 H   0  0  0  0  0  0  0  0  0  0  0  0
    3.6290    1.2411    1.0191 H   0  0  0  0  0  0  0  0  0  0  0  0
    4.7526    0.2837    0.0669 H   0  0  0  0  0  0  0  0  0  0  0  0
    3.1107   -2.7215    1.8897 H   0  0  0  0  0  0  0  0  0  0  0  0
    2.1445   -4.8823    2.5872 H   0  0  0  0  0  0  0  0  0  0  0  0
   -0.3093   -5.2363    2.5085 H   0  0  0  0  0  0  0  0  0  0  0  0
   -1.7954   -3.4649    1.6660 H   0  0  0  0  0  0  0  0  0  0  0  0
    0.0252   -0.0815   -2.0549 H   0  0  0  0  0  0  0  0  0  0  0  0
   -2.0274   -1.4178    3.0176 H   0  0  0  0  0  0  0  0  0  0  0  0
   -5.0132    0.6902    0.6891 H   0  0  0  0  0  0  0  0  0  0  0  0
   -3.1956    2.6928    1.2106 H   0  0  0  0  0  0  0  0  0  0  0  0
   -4.5640    3.1256    0.1592 H   0  0  0  0  0  0  0  0  0  0  0  0
   -3.1393    3.4265   -1.6307 H   0  0  0  0  0  0  0  0  0  0  0  0
   -1.7379    3.0040   -0.6194 H   0  0  0  0  0  0  0  0  0  0  0  0
   -2.3383    1.2550   -2.6588 H   0  0  0  0  0  0  0  0  0  0  0  0
   -4.3853   -0.1671   -1.7441 H   0  0  0  0  0  0  0  0  0  0  0  0
   -4.9012    1.5468   -1.8668 H   0  0  0  0  0  0  0  0  0  0  0  0
  1  2  1  0
  2  3  1  0
  2  4  1  0
  4  5  1  0
  5  6  1  0
  6  7  2  0
  6  8  1  0
  8  9  2  0
  9 10  1  0
 10 11  2  0
 11 12  1  0
 12 13  2  0
 13 14  1  0
 14 15  1  0
 15 16  1  0
 15 17  2  0
 17 18  1  0
 18 19  2  0
 19 20  1  0
 18 21  1  0
 21 22  1  0
 22 23  1  0
 23 24  1  0
 24 25  1  0
 13  8  1  0
 19 14  1  0
 25 21  1  0
 24 17  1  0
  1 26  1  0
  1 27  1  0
  1 28  1  0
  2 29  1  0
  3 30  1  0
  3 31  1  0
  3 32  1  0
  4 33  1  0
  4 34  1  0
  9 35  1  0
 10 36  1  0
 11 37  1  0
 12 38  1  0
 16 39  1  0
 20 40  1  0
 21 41  1  0
 22 42  1  0
 22 43  1  0
 23 44  1  0
 23 45  1  0
 24 46  1  0
 25 47  1  0
 25 48  1  0
M  END
$$$$
