
     RDKit          3D

 60 62  0  0  0  0  0  0  0  0999 V2000
    5.7037    3.6942   -2.7080 C   0  0  0  0  0  0  0  0  0  0  0  0
    5.5965    2.9316   -1.5124 O   0  0  0  0  0  0  0  0  0  0  0  0
    4.6355    1.9574   -1.4835 C   0  0  0  0  0  0  0  0  0  0  0  0
    4.6040    1.2071   -0.3043 C   0  0  0  0  0  0  0  0  0  0  0  0
    3.6735    0.1798   -0.1392 C   0  0  0  0  0  0  0  0  0  0  0  0
    2.7559   -0.0921   -1.1550 C   0  0  0  0  0  0  0  0  0  0  0  0
    1.7747   -1.1843   -0.9493 C   0  0  0  0  0  0  0  0  0  0  0  0
    2.1478   -2.2280   -0.4157 O   0  0  0  0  0  0  0  0  0  0  0  0
    0.3495   -0.9543   -1.3892 C   0  0  0  0  0  0  0  0  0  0  0  0
   -0.0833   -2.0404   -2.3139 C   0  0  0  0  0  0  0  0  0  0  0  0
    0.2116   -2.1327   -3.4921 O   0  0  0  0  0  0  0  0  0  0  0  0
   -0.9355   -3.0452   -1.5460 C   0  0  0  0  0  0  0  0  0  0  0  0
   -1.3383   -4.0921   -2.0088 O   0  0  0  0  0  0  0  0  0  0  0  0
   -1.1459   -2.5016   -0.2878 N   0  0  0  0  0  0  0  0  0  0  0  0
   -2.2392   -2.9924    0.5526 C   0  0  0  0  0  0  0  0  0  0  0  0
   -3.5215   -2.1253    0.5285 C   0  0  0  0  0  0  0  0  0  0  0  0
   -4.0170   -1.7781   -0.8188 N   0  0  0  0  0  0  0  0  0  0  0  0
   -4.6064   -2.9449   -1.4879 C   0  0  0  0  0  0  0  0  0  0  0  0
   -5.0183   -0.7122   -0.7300 C   0  0  0  0  0  0  0  0  0  0  0  0
   -0.6896   -1.1132   -0.2629 C   0  0  0  0  0  0  0  0  0  0  0  0
   -0.2464   -0.5682    1.0810 C   0  0  0  0  0  0  0  0  0  0  0  0
    0.3630   -1.3879    2.0420 C   0  0  0  0  0  0  0  0  0  0  0  0
    0.7985   -0.8612    3.2558 C   0  0  0  0  0  0  0  0  0  0  0  0
    0.6576    0.5005    3.5228 C   0  0  0  0  0  0  0  0  0  0  0  0
    0.0874    1.3527    2.5738 C   0  0  0  0  0  0  0  0  0  0  0  0
   -0.0384    2.7073    2.7329 O   0  0  0  0  0  0  0  0  0  0  0  0
    0.6216    3.3020    3.8424 C   0  0  0  0  0  0  0  0  0  0  0  0
   -0.3832    0.8061    1.3634 C   0  0  0  0  0  0  0  0  0  0  0  0
   -0.9094    1.5837    0.3559 O   0  0  0  0  0  0  0  0  0  0  0  0
   -2.0592    2.3244    0.7684 C   0  0  0  0  0  0  0  0  0  0  0  0
    2.7900    0.6417   -2.3439 C   0  0  0  0  0  0  0  0  0  0  0  0
    3.7281    1.6678   -2.5045 C   0  0  0  0  0  0  0  0  0  0  0  0
    4.7867    4.2665   -2.8928 H   0  0  0  0  0  0  0  0  0  0  0  0
    6.5235    4.4091   -2.5766 H   0  0  0  0  0  0  0  0  0  0  0  0
    5.9536    3.0558   -3.5639 H   0  0  0  0  0  0  0  0  0  0  0  0
    5.3160    1.4216    0.4904 H   0  0  0  0  0  0  0  0  0  0  0  0
    3.6646   -0.3990    0.7819 H   0  0  0  0  0  0  0  0  0  0  0  0
    0.2189    0.0213   -1.8648 H   0  0  0  0  0  0  0  0  0  0  0  0
   -1.8707   -3.0478    1.5819 H   0  0  0  0  0  0  0  0  0  0  0  0
   -2.4810   -4.0186    0.2527 H   0  0  0  0  0  0  0  0  0  0  0  0
   -3.2834   -1.1954    1.0630 H   0  0  0  0  0  0  0  0  0  0  0  0
   -4.3023   -2.6235    1.1184 H   0  0  0  0  0  0  0  0  0  0  0  0
   -4.9360   -2.6780   -2.4990 H   0  0  0  0  0  0  0  0  0  0  0  0
   -5.4699   -3.3394   -0.9387 H   0  0  0  0  0  0  0  0  0  0  0  0
   -3.8809   -3.7530   -1.6069 H   0  0  0  0  0  0  0  0  0  0  0  0
   -5.3731   -0.4318   -1.7288 H   0  0  0  0  0  0  0  0  0  0  0  0
   -5.8841   -1.0067   -0.1252 H   0  0  0  0  0  0  0  0  0  0  0  0
   -4.5809    0.1916   -0.2914 H   0  0  0  0  0  0  0  0  0  0  0  0
   -1.5746   -0.5425   -0.5779 H   0  0  0  0  0  0  0  0  0  0  0  0
    0.5273   -2.4456    1.8406 H   0  0  0  0  0  0  0  0  0  0  0  0
    1.2669   -1.5133    3.9899 H   0  0  0  0  0  0  0  0  0  0  0  0
    1.0191    0.8667    4.4775 H   0  0  0  0  0  0  0  0  0  0  0  0
    0.5080    4.3865    3.7549 H   0  0  0  0  0  0  0  0  0  0  0  0
    0.1574    2.9937    4.7842 H   0  0  0  0  0  0  0  0  0  0  0  0
    1.6937    3.0798    3.8358 H   0  0  0  0  0  0  0  0  0  0  0  0
   -2.7336    2.3918   -0.0914 H   0  0  0  0  0  0  0  0  0  0  0  0
   -1.7726    3.3428    1.0450 H   0  0  0  0  0  0  0  0  0  0  0  0
   -2.6080    1.8405    1.5855 H   0  0  0  0  0  0  0  0  0  0  0  0
    2.1182    0.4102   -3.1680 H   0  0  0  0  0  0  0  0  0  0  0  0
    3.7299    2.2143   -3.4427 H   0  0  0  0  0  0  0  0  0  0  0  0
  1  2  1  0
  2  3  1  0
  3  4  2  0
  4  5  1  0
  5  6  2  0
  6  7  1  0
  7  8  2  0
  7  9  1  0
  9 10  1  0
 10 11  2  0
 10 12  1  0
 12 13  2  0
 12 14  1  0
 14 15  1  0
 15 16  1  0
 16 17  1  0
 17 18  1  0
 17 19  1  0
 14 20  1  0
 20 21  1  0
 21 22  2  0
 22 23  1  0
 23 24  2  0
 24 25  1  0
 25 26  1  0
 26 27  1  0
 25 28  2  0
 28 29  1  0
 29 30  1  0
  6 31  1  0
 31 32  2  0
 32  3  1  0
 20  9  1  0
 28 21  1  0
  1 33  1  0
  1 34  1  0
  1 35  1  0
  4 36  1  0
  5 37  1  0
  9 38  1  0
 15 39  1  0
 15 40  1  0
 16 41  1  0
 16 42  1  0
 18 43  1  0
 18 44  1  0
 18 45  1  0
 19 46  1  0
 19 47  1  0
 19 48  1  0
 20 49  1  0
 22 50  1  0
 23 51  1  0
 24 52  1  0
 27 53  1  0
 27 54  1  0
 27 55  1  0
 30 56  1  0
 30 57  1  0
 30 58  1  0
 31 59  1  0
 32 60  1  0
M  END
$$$$
