
     RDKit          3D

 48 50  0  0  0  0  0  0  0  0999 V2000
    5.6757   -4.0016   -0.9593 C   0  0  0  0  0  0  0  0  0  0  0  0
    5.2199   -3.2614    0.2869 C   0  0  0  0  0  0  0  0  0  0  0  0
    4.0709   -2.3099   -0.0216 C   0  0  0  0  0  0  0  0  0  0  0  0
    3.5393   -1.4408    1.4429 S   0  0  0  0  0  6  0  0  0  0  0  0
    4.5974   -0.5481    1.8755 O   0  0  0  0  0  0  0  0  0  0  0  0
    2.9026   -2.3806    2.3467 O   0  0  0  0  0  0  0  0  0  0  0  0
    2.2387   -0.4004    0.8405 C   0  0  0  0  0  0  0  0  0  0  0  0
    1.7361   -0.4293   -0.3737 N   0  0  0  0  0  0  0  0  0  0  0  0
    0.7465    0.5553   -0.4711 C   0  0  0  0  0  0  0  0  0  0  0  0
   -0.1570    0.7442   -1.9583 S   0  0  0  0  0  6  0  0  0  0  0  0
   -0.6162    2.1216   -1.9700 O   0  0  0  0  0  0  0  0  0  0  0  0
    0.6999    0.2135   -3.0021 O   0  0  0  0  0  0  0  0  0  0  0  0
   -1.5475   -0.3317   -1.7540 C   0  0  0  0  0  0  0  0  0  0  0  0
   -2.7475    0.1731   -1.2480 C   0  0  0  0  0  0  0  0  0  0  0  0
   -3.8406   -0.6816   -1.0975 C   0  0  0  0  0  0  0  0  0  0  0  0
   -3.7456   -2.0313   -1.4656 C   0  0  0  0  0  0  0  0  0  0  0  0
   -4.9188   -2.9474   -1.2698 C   0  0  0  0  0  0  0  0  0  0  0  0
   -2.5352   -2.5222   -1.9733 C   0  0  0  0  0  0  0  0  0  0  0  0
   -1.4380   -1.6740   -2.1275 C   0  0  0  0  0  0  0  0  0  0  0  0
    0.5036    1.2998    0.6826 C   0  0  0  0  0  0  0  0  0  0  0  0
   -0.4107    2.2993    0.8662 N   0  0  0  0  0  0  0  0  0  0  0  0
   -0.3296    3.2418    1.9800 C   0  0  0  0  0  0  0  0  0  0  0  0
   -1.4210    4.2581    1.9596 C   0  0  0  0  0  0  0  0  0  0  0  0
   -2.4804    4.5360    2.7987 C   0  0  0  0  0  0  0  0  0  0  0  0
   -3.1735    5.6263    2.2179 C   0  0  0  0  0  0  0  0  0  0  0  0
   -2.4963    5.9411    1.0630 C   0  0  0  0  0  0  0  0  0  0  0  0
   -1.4316    5.1154    0.8967 O   0  0  0  0  0  0  0  0  0  0  0  0
    1.5600    0.7194    1.9237 S   0  0  0  0  0  0  0  0  0  0  0  0
    6.0312   -3.3011   -1.7219 H   0  0  0  0  0  0  0  0  0  0  0  0
    4.8588   -4.5913   -1.3882 H   0  0  0  0  0  0  0  0  0  0  0  0
    6.4964   -4.6836   -0.7160 H   0  0  0  0  0  0  0  0  0  0  0  0
    4.9111   -3.9887    1.0472 H   0  0  0  0  0  0  0  0  0  0  0  0
    6.0660   -2.7053    0.7076 H   0  0  0  0  0  0  0  0  0  0  0  0
    4.3775   -1.5611   -0.7580 H   0  0  0  0  0  0  0  0  0  0  0  0
    3.2075   -2.8630   -0.4052 H   0  0  0  0  0  0  0  0  0  0  0  0
   -2.8422    1.2195   -0.9644 H   0  0  0  0  0  0  0  0  0  0  0  0
   -4.7713   -0.2896   -0.6927 H   0  0  0  0  0  0  0  0  0  0  0  0
   -5.8497   -2.4479   -1.5592 H   0  0  0  0  0  0  0  0  0  0  0  0
   -4.9856   -3.2499   -0.2195 H   0  0  0  0  0  0  0  0  0  0  0  0
   -4.8257   -3.8477   -1.8871 H   0  0  0  0  0  0  0  0  0  0  0  0
   -2.4424   -3.5689   -2.2553 H   0  0  0  0  0  0  0  0  0  0  0  0
   -0.5078   -2.0661   -2.5340 H   0  0  0  0  0  0  0  0  0  0  0  0
   -0.7535    2.7734    0.0202 H   0  0  0  0  0  0  0  0  0  0  0  0
   -0.3827    2.7002    2.9318 H   0  0  0  0  0  0  0  0  0  0  0  0
    0.6316    3.7699    1.9487 H   0  0  0  0  0  0  0  0  0  0  0  0
   -2.7241    4.0129    3.7133 H   0  0  0  0  0  0  0  0  0  0  0  0
   -4.0593    6.1205    2.5916 H   0  0  0  0  0  0  0  0  0  0  0  0
   -2.6368    6.6835    0.2895 H   0  0  0  0  0  0  0  0  0  0  0  0
  1  2  1  0
  2  3  1  0
  3  4  1  0
  4  5  2  0
  4  6  2  0
  4  7  1  0
  7  8  2  0
  8  9  1  0
  9 10  1  0
 10 11  2  0
 10 12  2  0
 10 13  1  0
 13 14  2  0
 14 15  1  0
 15 16  2  0
 16 17  1  0
 16 18  1  0
 18 19  2  0
  9 20  2  0
 20 21  1  0
 21 22  1  0
 22 23  1  0
 23 24  2  0
 24 25  1  0
 25 26  2  0
 26 27  1  0
 20 28  1  0
 28  7  1  0
 19 13  1  0
 27 23  1  0
  1 29  1  0
  1 30  1  0
  1 31  1  0
  2 32  1  0
  2 33  1  0
  3 34  1  0
  3 35  1  0
 14 36  1  0
 15 37  1  0
 17 38  1  0
 17 39  1  0
 17 40  1  0
 18 41  1  0
 19 42  1  0
 21 43  1  0
 22 44  1  0
 22 45  1  0
 24 46  1  0
 25 47  1  0
 26 48  1  0
M  END
$$$$
