
     RDKit          3D

 36 37  0  0  0  0  0  0  0  0999 V2000
   -4.6020    0.7628    2.0258 C   0  0  0  0  0  0  0  0  0  0  0  0
   -4.0192    0.5856    0.7083 N   0  0  0  0  0  0  0  0  0  0  0  0
   -4.7185   -0.1772   -0.2171 C   0  0  0  0  0  0  0  0  0  0  0  0
   -5.7946   -0.7206    0.0234 O   0  0  0  0  0  0  0  0  0  0  0  0
   -4.0923   -0.3301   -1.5482 C   0  0  0  0  0  0  0  0  0  0  0  0
   -4.7651   -1.0426   -2.5739 C   0  0  0  0  0  0  0  0  0  0  0  0
   -5.2581   -1.6124   -3.4567 N   0  0  0  0  0  0  0  0  0  0  0  0
   -2.8845    0.2062   -1.7488 C   0  0  0  0  0  0  0  0  0  0  0  0
   -2.2074    0.8947   -0.7658 N   0  0  0  0  0  0  0  0  0  0  0  0
   -0.8630    1.4172   -1.0483 C   0  0  0  0  0  0  0  0  0  0  0  0
    0.2525    0.5259   -0.4747 C   0  0  0  0  0  0  0  0  0  0  0  0
    1.5544    0.9544   -1.0080 N   0  0  0  0  0  0  0  0  0  0  0  0
    2.6242    0.2973   -0.3820 C   0  0  0  0  0  0  0  0  0  0  0  0
    3.2152   -0.6415   -1.1547 N   0  0  0  0  0  0  0  0  0  0  0  0
    4.2555   -1.3321   -0.6295 C   0  0  0  0  0  0  0  0  0  0  0  0
    4.7562   -1.1321    0.6477 C   0  0  0  0  0  0  0  0  0  0  0  0
    5.8969   -1.9648    1.1417 C   0  0  0  0  0  0  0  0  0  0  0  0
    6.8862   -2.1030    0.2164 F   0  0  0  0  0  0  0  0  0  0  0  0
    6.4942   -1.4561    2.2547 F   0  0  0  0  0  0  0  0  0  0  0  0
    5.5087   -3.2283    1.4673 F   0  0  0  0  0  0  0  0  0  0  0  0
    4.1415   -0.1533    1.4328 C   0  0  0  0  0  0  0  0  0  0  0  0
    3.0699    0.5772    0.9169 C   0  0  0  0  0  0  0  0  0  0  0  0
    2.3961    1.8311    1.8917 Cl  0  0  0  0  0  0  0  0  0  0  0  0
   -2.7335    1.0841    0.5115 C   0  0  0  0  0  0  0  0  0  0  0  0
   -2.0921    1.6382    1.4030 O   0  0  0  0  0  0  0  0  0  0  0  0
   -4.1875   -0.0018    2.6909 H   0  0  0  0  0  0  0  0  0  0  0  0
   -4.3496    1.7501    2.4257 H   0  0  0  0  0  0  0  0  0  0  0  0
   -5.6910    0.6618    2.0009 H   0  0  0  0  0  0  0  0  0  0  0  0
   -2.3844    0.1113   -2.7108 H   0  0  0  0  0  0  0  0  0  0  0  0
   -0.7418    1.5349   -2.1326 H   0  0  0  0  0  0  0  0  0  0  0  0
   -0.7807    2.4233   -0.6176 H   0  0  0  0  0  0  0  0  0  0  0  0
    0.0705   -0.5178   -0.7633 H   0  0  0  0  0  0  0  0  0  0  0  0
    0.2182    0.5638    0.6186 H   0  0  0  0  0  0  0  0  0  0  0  0
    1.6347    0.6214   -1.9712 H   0  0  0  0  0  0  0  0  0  0  0  0
    4.6867   -2.0773   -1.2965 H   0  0  0  0  0  0  0  0  0  0  0  0
    4.5033    0.0495    2.4392 H   0  0  0  0  0  0  0  0  0  0  0  0
  1  2  1  0
  2  3  1  0
  3  4  2  0
  3  5  1  0
  5  6  1  0
  6  7  3  0
  5  8  2  0
  8  9  1  0
  9 10  1  0
 10 11  1  0
 11 12  1  0
 12 13  1  0
 13 14  2  0
 14 15  1  0
 15 16  2  0
 16 17  1  0
 17 18  1  0
 17 19  1  0
 17 20  1  0
 16 21  1  0
 21 22  2  0
 22 23  1  0
  9 24  1  0
 24 25  2  0
 24  2  1  0
 22 13  1  0
  1 26  1  0
  1 27  1  0
  1 28  1  0
  8 29  1  0
 10 30  1  0
 10 31  1  0
 11 32  1  0
 11 33  1  0
 12 34  1  0
 15 35  1  0
 21 36  1  0
M  END
$$$$
