
     RDKit          3D

 48 49  0  0  0  0  0  0  0  0999 V2000
   -4.6631   -2.2801    0.0668 C   0  0  0  0  0  0  0  0  0  0  0  0
   -3.4449   -1.5472   -0.4104 C   0  0  0  0  0  0  0  0  0  0  0  0
   -2.3747   -2.2451   -0.9791 C   0  0  0  0  0  0  0  0  0  0  0  0
   -1.2535   -1.5593   -1.4506 C   0  0  0  0  0  0  0  0  0  0  0  0
   -1.1852   -0.1621   -1.3710 C   0  0  0  0  0  0  0  0  0  0  0  0
    0.0449    0.5696   -1.8630 C   0  0  0  0  0  0  0  0  0  0  0  0
    1.1035    0.8497   -0.7796 C   0  0  0  0  0  0  0  0  0  0  0  0
    1.5232   -0.3514   -0.0665 N   0  0  0  0  0  0  0  0  0  0  0  0
    2.3552   -1.2866   -0.6281 C   0  0  0  0  0  0  0  0  0  0  0  0
    2.8560   -1.1495   -1.7390 O   0  0  0  0  0  0  0  0  0  0  0  0
    2.6431   -2.4973    0.1886 C   0  0  0  0  0  0  0  0  0  0  0  0
    1.7383   -2.9849    1.1412 C   0  0  0  0  0  0  0  0  0  0  0  0
    2.0497   -4.1309    1.8771 C   0  0  0  0  0  0  0  0  0  0  0  0
    3.2563   -4.7963    1.6599 C   0  0  0  0  0  0  0  0  0  0  0  0
    4.1523   -4.3244    0.7014 C   0  0  0  0  0  0  0  0  0  0  0  0
    3.8451   -3.1801   -0.0368 C   0  0  0  0  0  0  0  0  0  0  0  0
    0.6220    1.8844    0.2558 C   0  0  0  0  0  0  0  0  0  0  0  0
    0.4584    1.6053    1.4434 O   0  0  0  0  0  0  0  0  0  0  0  0
    0.3951    3.1455   -0.2463 N   0  0  0  0  0  0  0  0  0  0  0  0
    0.0348    4.2704    0.6176 C   0  0  0  0  0  0  0  0  0  0  0  0
   -1.4476    4.2393    0.9651 C   0  0  0  0  0  0  0  0  0  0  0  0
    0.3739    5.5972   -0.0683 C   0  0  0  0  0  0  0  0  0  0  0  0
    0.1829    6.7173    0.3765 O   0  0  0  0  0  0  0  0  0  0  0  0
    0.9386    5.4427   -1.2909 O   0  0  0  0  0  0  0  0  0  0  0  0
   -2.2656    0.5360   -0.8191 C   0  0  0  0  0  0  0  0  0  0  0  0
   -3.3868   -0.1508   -0.3467 C   0  0  0  0  0  0  0  0  0  0  0  0
   -4.4003   -3.2787    0.4315 H   0  0  0  0  0  0  0  0  0  0  0  0
   -5.1397   -1.7472    0.8963 H   0  0  0  0  0  0  0  0  0  0  0  0
   -5.3839   -2.3801   -0.7505 H   0  0  0  0  0  0  0  0  0  0  0  0
   -2.4054   -3.3294   -1.0592 H   0  0  0  0  0  0  0  0  0  0  0  0
   -0.4296   -2.1247   -1.8827 H   0  0  0  0  0  0  0  0  0  0  0  0
    0.4992   -0.0213   -2.6692 H   0  0  0  0  0  0  0  0  0  0  0  0
   -0.2724    1.5064   -2.3387 H   0  0  0  0  0  0  0  0  0  0  0  0
    1.9953    1.2714   -1.2614 H   0  0  0  0  0  0  0  0  0  0  0  0
    1.1942   -0.4365    0.8898 H   0  0  0  0  0  0  0  0  0  0  0  0
    0.7780   -2.5039    1.3060 H   0  0  0  0  0  0  0  0  0  0  0  0
    1.3466   -4.5093    2.6153 H   0  0  0  0  0  0  0  0  0  0  0  0
    3.4952   -5.6889    2.2331 H   0  0  0  0  0  0  0  0  0  0  0  0
    5.0887   -4.8479    0.5258 H   0  0  0  0  0  0  0  0  0  0  0  0
    4.5454   -2.8191   -0.7873 H   0  0  0  0  0  0  0  0  0  0  0  0
    0.7539    3.3922   -1.1649 H   0  0  0  0  0  0  0  0  0  0  0  0
    0.6452    4.2059    1.5254 H   0  0  0  0  0  0  0  0  0  0  0  0
   -1.7164    5.0794    1.6143 H   0  0  0  0  0  0  0  0  0  0  0  0
   -2.0652    4.3074    0.0622 H   0  0  0  0  0  0  0  0  0  0  0  0
   -1.7169    3.3128    1.4825 H   0  0  0  0  0  0  0  0  0  0  0  0
    1.0993    6.3658   -1.5857 H   0  0  0  0  0  0  0  0  0  0  0  0
   -2.2474    1.6207   -0.7507 H   0  0  0  0  0  0  0  0  0  0  0  0
   -4.2155    0.4136    0.0750 H   0  0  0  0  0  0  0  0  0  0  0  0
  1  2  1  0
  2  3  2  0
  3  4  1  0
  4  5  2  0
  5  6  1  0
  6  7  1  0
  7  8  1  0
  8  9  1  0
  9 10  2  0
  9 11  1  0
 11 12  2  0
 12 13  1  0
 13 14  2  0
 14 15  1  0
 15 16  2  0
  7 17  1  0
 17 18  2  0
 17 19  1  0
 19 20  1  0
 20 21  1  0
 20 22  1  0
 22 23  2  0
 22 24  1  0
  5 25  1  0
 25 26  2  0
 26  2  1  0
 16 11  1  0
  1 27  1  0
  1 28  1  0
  1 29  1  0
  3 30  1  0
  4 31  1  0
  6 32  1  0
  6 33  1  0
  7 34  1  0
  8 35  1  0
 12 36  1  0
 13 37  1  0
 14 38  1  0
 15 39  1  0
 16 40  1  0
 19 41  1  0
 20 42  1  0
 21 43  1  0
 21 44  1  0
 21 45  1  0
 24 46  1  0
 25 47  1  0
 26 48  1  0
M  END
$$$$
