
     RDKit          3D

 57 58  0  0  0  0  0  0  0  0999 V2000
    3.3367    0.4009    2.1634 C   0  0  0  0  0  0  0  0  0  0  0  0
    4.7275    0.1165    1.6678 C   0  0  0  0  0  0  0  0  0  0  0  0
    5.8160    0.1979    2.5496 C   0  0  0  0  0  0  0  0  0  0  0  0
    7.1122   -0.0518    2.0997 C   0  0  0  0  0  0  0  0  0  0  0  0
    7.3324   -0.3912    0.7671 C   0  0  0  0  0  0  0  0  0  0  0  0
    6.2585   -0.4747   -0.1208 C   0  0  0  0  0  0  0  0  0  0  0  0
    4.9583   -0.2077    0.3193 C   0  0  0  0  0  0  0  0  0  0  0  0
    3.8536   -0.2809   -0.4888 O   0  0  0  0  0  0  0  0  0  0  0  0
    4.0651    0.0682   -1.8607 C   0  0  0  0  0  0  0  0  0  0  0  0
    2.7076    0.3397   -2.4884 C   0  0  0  0  0  0  0  0  0  0  0  0
    2.1447    1.6382   -1.9728 C   0  0  0  0  0  0  0  0  0  0  0  0
    2.7850    2.6678   -1.8131 O   0  0  0  0  0  0  0  0  0  0  0  0
    0.8048    1.5159   -1.7626 O   0  0  0  0  0  0  0  0  0  0  0  0
    0.2079    2.6756   -1.1806 C   0  0  0  0  0  0  0  0  0  0  0  0
   -1.2884    2.4581   -0.9896 C   0  0  0  0  0  0  0  0  0  0  0  0
   -2.0916    3.3595   -1.2551 O   0  0  0  0  0  0  0  0  0  0  0  0
   -1.7684    1.1100   -0.5388 C   0  0  0  0  0  0  0  0  0  0  0  0
   -2.9494    0.6149   -0.9721 C   0  0  0  0  0  0  0  0  0  0  0  0
   -3.8290    1.3664   -1.7442 N   0  0  0  0  0  0  0  0  0  0  0  0
   -3.3082   -0.6874   -0.6231 N   0  0  0  0  0  0  0  0  0  0  0  0
   -4.6556   -1.1902   -0.9506 C   0  0  0  0  0  0  0  0  0  0  0  0
   -5.7549   -0.6664   -0.0036 C   0  0  0  0  0  0  0  0  0  0  0  0
   -5.5911   -1.1988    1.4207 C   0  0  0  0  0  0  0  0  0  0  0  0
   -7.1330   -1.0511   -0.5464 C   0  0  0  0  0  0  0  0  0  0  0  0
   -2.4687   -1.5549    0.0794 C   0  0  0  0  0  0  0  0  0  0  0  0
   -2.8056   -2.6999    0.3863 O   0  0  0  0  0  0  0  0  0  0  0  0
   -1.2328   -1.0471    0.4361 N   0  0  0  0  0  0  0  0  0  0  0  0
   -0.3564   -1.8982    1.2189 C   0  0  0  0  0  0  0  0  0  0  0  0
   -0.9255    0.2900    0.3541 C   0  0  0  0  0  0  0  0  0  0  0  0
   -0.0128    0.8154    0.9898 O   0  0  0  0  0  0  0  0  0  0  0  0
    3.3296    0.6277    3.2347 H   0  0  0  0  0  0  0  0  0  0  0  0
    2.9170    1.2635    1.6366 H   0  0  0  0  0  0  0  0  0  0  0  0
    2.6949   -0.4709    2.0065 H   0  0  0  0  0  0  0  0  0  0  0  0
    5.6609    0.4632    3.5942 H   0  0  0  0  0  0  0  0  0  0  0  0
    7.9525    0.0217    2.7875 H   0  0  0  0  0  0  0  0  0  0  0  0
    8.3423   -0.5931    0.4193 H   0  0  0  0  0  0  0  0  0  0  0  0
    6.4634   -0.7562   -1.1475 H   0  0  0  0  0  0  0  0  0  0  0  0
    4.7194    0.9447   -1.9523 H   0  0  0  0  0  0  0  0  0  0  0  0
    4.5225   -0.7847   -2.3757 H   0  0  0  0  0  0  0  0  0  0  0  0
    2.7838    0.4155   -3.5777 H   0  0  0  0  0  0  0  0  0  0  0  0
    2.0178   -0.4762   -2.2390 H   0  0  0  0  0  0  0  0  0  0  0  0
    0.6630    2.9210   -0.2148 H   0  0  0  0  0  0  0  0  0  0  0  0
    0.3322    3.5207   -1.8691 H   0  0  0  0  0  0  0  0  0  0  0  0
   -4.0688    0.9108   -2.6202 H   0  0  0  0  0  0  0  0  0  0  0  0
   -3.4962    2.3236   -1.9189 H   0  0  0  0  0  0  0  0  0  0  0  0
   -4.6576   -2.2871   -0.9325 H   0  0  0  0  0  0  0  0  0  0  0  0
   -4.8823   -0.9299   -1.9912 H   0  0  0  0  0  0  0  0  0  0  0  0
   -5.7093    0.4285    0.0420 H   0  0  0  0  0  0  0  0  0  0  0  0
   -6.4018   -0.8413    2.0637 H   0  0  0  0  0  0  0  0  0  0  0  0
   -5.6030   -2.2925    1.4419 H   0  0  0  0  0  0  0  0  0  0  0  0
   -4.6509   -0.8585    1.8644 H   0  0  0  0  0  0  0  0  0  0  0  0
   -7.2474   -2.1394   -0.6109 H   0  0  0  0  0  0  0  0  0  0  0  0
   -7.2853   -0.6326   -1.5476 H   0  0  0  0  0  0  0  0  0  0  0  0
   -7.9283   -0.6646    0.0992 H   0  0  0  0  0  0  0  0  0  0  0  0
    0.6817   -1.5645    1.1361 H   0  0  0  0  0  0  0  0  0  0  0  0
   -0.4207   -2.9364    0.8773 H   0  0  0  0  0  0  0  0  0  0  0  0
   -0.6679   -1.8478    2.2671 H   0  0  0  0  0  0  0  0  0  0  0  0
  1  2  1  0
  2  3  2  0
  3  4  1  0
  4  5  2  0
  5  6  1  0
  6  7  2  0
  7  8  1  0
  8  9  1  0
  9 10  1  0
 10 11  1  0
 11 12  2  0
 11 13  1  0
 13 14  1  0
 14 15  1  0
 15 16  2  0
 15 17  1  0
 17 18  2  0
 18 19  1  0
 18 20  1  0
 20 21  1  0
 21 22  1  0
 22 23  1  0
 22 24  1  0
 20 25  1  0
 25 26  2  0
 25 27  1  0
 27 28  1  0
 27 29  1  0
 29 30  2  0
  7  2  1  0
 29 17  1  0
  1 31  1  0
  1 32  1  0
  1 33  1  0
  3 34  1  0
  4 35  1  0
  5 36  1  0
  6 37  1  0
  9 38  1  0
  9 39  1  0
 10 40  1  0
 10 41  1  0
 14 42  1  0
 14 43  1  0
 19 44  1  0
 19 45  1  0
 21 46  1  0
 21 47  1  0
 22 48  1  0
 23 49  1  0
 23 50  1  0
 23 51  1  0
 24 52  1  0
 24 53  1  0
 24 54  1  0
 28 55  1  0
 28 56  1  0
 28 57  1  0
M  END
$$$$
