
     RDKit          3D

 40 43  0  0  0  0  0  0  0  0999 V2000
   -4.9017   -0.5177    2.1622 C   0  0  0  0  0  0  0  0  0  0  0  0
   -4.1756    0.7780    2.2181 C   0  0  0  0  0  0  0  0  0  0  0  0
   -4.7080    1.7836    3.0191 N   0  0  0  0  0  0  0  0  0  0  0  0
   -3.9870    2.8872    2.9663 N   0  0  0  0  0  0  0  0  0  0  0  0
   -2.6808    2.7625    1.9236 S   0  0  0  0  0  0  0  0  0  0  0  0
   -3.0096    1.1266    1.5498 C   0  0  0  0  0  0  0  0  0  0  0  0
   -2.1765    0.3644    0.6878 C   0  0  0  0  0  0  0  0  0  0  0  0
   -2.0364    0.5784   -0.6076 N   0  0  0  0  0  0  0  0  0  0  0  0
   -1.2019   -0.3978   -1.1135 N   0  0  0  0  0  0  0  0  0  0  0  0
   -0.8415   -1.1687   -0.1134 C   0  0  0  0  0  0  0  0  0  0  0  0
    0.1738   -2.5618   -0.2207 S   0  0  0  0  0  0  0  0  0  0  0  0
    1.3303   -2.0007   -1.5082 C   0  0  0  0  0  0  0  0  0  0  0  0
    2.1006   -0.7581   -1.0886 C   0  0  0  0  0  0  0  0  0  0  0  0
    2.2520   -0.4081    0.0824 O   0  0  0  0  0  0  0  0  0  0  0  0
    2.7319    0.0653   -2.1622 C   0  0  0  0  0  0  0  0  0  0  0  0
    3.0570   -0.4693   -3.4123 C   0  0  0  0  0  0  0  0  0  0  0  0
    3.6558    0.3400   -4.3831 C   0  0  0  0  0  0  0  0  0  0  0  0
    3.9298    1.6861   -4.1139 C   0  0  0  0  0  0  0  0  0  0  0  0
    4.5370    2.5099   -5.1154 C   0  0  0  0  0  0  0  0  0  0  0  0
    5.0292    3.1673   -5.9363 N   0  0  0  0  0  0  0  0  0  0  0  0
    3.6103    2.2195   -2.8644 C   0  0  0  0  0  0  0  0  0  0  0  0
    3.0179    1.4118   -1.8910 C   0  0  0  0  0  0  0  0  0  0  0  0
   -1.3948   -0.7035    1.0440 N   0  0  0  0  0  0  0  0  0  0  0  0
   -1.2764   -1.3069    2.3914 C   0  0  0  0  0  0  0  0  0  0  0  0
   -0.9774   -0.5040    3.6370 C   0  0  0  0  0  0  0  0  0  0  0  0
    0.0530   -1.4480    3.1019 C   0  0  0  0  0  0  0  0  0  0  0  0
   -4.2789   -1.3282    2.5503 H   0  0  0  0  0  0  0  0  0  0  0  0
   -5.1874   -0.7576    1.1296 H   0  0  0  0  0  0  0  0  0  0  0  0
   -5.8124   -0.4839    2.7673 H   0  0  0  0  0  0  0  0  0  0  0  0
    2.0479   -2.8060   -1.6901 H   0  0  0  0  0  0  0  0  0  0  0  0
    0.7665   -1.8100   -2.4297 H   0  0  0  0  0  0  0  0  0  0  0  0
    2.8705   -1.5122   -3.6526 H   0  0  0  0  0  0  0  0  0  0  0  0
    3.9126   -0.0892   -5.3513 H   0  0  0  0  0  0  0  0  0  0  0  0
    3.8180    3.2644   -2.6386 H   0  0  0  0  0  0  0  0  0  0  0  0
    2.7689    1.8403   -0.9215 H   0  0  0  0  0  0  0  0  0  0  0  0
   -1.9604   -2.1453    2.5088 H   0  0  0  0  0  0  0  0  0  0  0  0
   -1.4875   -0.7780    4.5540 H   0  0  0  0  0  0  0  0  0  0  0  0
   -0.7541    0.5557    3.5609 H   0  0  0  0  0  0  0  0  0  0  0  0
    0.2425   -2.3700    3.6460 H   0  0  0  0  0  0  0  0  0  0  0  0
    0.9428   -1.0159    2.6508 H   0  0  0  0  0  0  0  0  0  0  0  0
  1  2  1  0
  2  3  1  0
  3  4  2  0
  4  5  1  0
  5  6  1  0
  6  7  1  0
  7  8  2  0
  8  9  1  0
  9 10  2  0
 10 11  1  0
 11 12  1  0
 12 13  1  0
 13 14  2  0
 13 15  1  0
 15 16  2  0
 16 17  1  0
 17 18  2  0
 18 19  1  0
 19 20  3  0
 18 21  1  0
 21 22  2  0
 10 23  1  0
 23 24  1  0
 24 25  1  0
 25 26  1  0
  6  2  2  0
 23  7  1  0
 26 24  1  0
 22 15  1  0
  1 27  1  0
  1 28  1  0
  1 29  1  0
 12 30  1  0
 12 31  1  0
 16 32  1  0
 17 33  1  0
 21 34  1  0
 22 35  1  0
 24 36  1  0
 25 37  1  0
 25 38  1  0
 26 39  1  0
 26 40  1  0
M  END
$$$$
