
     RDKit          3D

 56 59  0  0  0  0  0  0  0  0999 V2000
    3.7097    1.4499   -0.7346 C   0  0  0  0  0  0  0  0  0  0  0  0
    2.8741    0.2225   -0.3759 C   0  0  0  0  0  0  0  0  0  0  0  0
    3.6525   -1.1006   -0.5241 C   0  0  0  0  0  0  0  0  0  0  0  0
    4.4719   -1.4966    0.7117 C   0  0  0  0  0  0  0  0  0  0  0  0
    5.7141   -0.6779    0.9516 C   0  0  0  0  0  0  0  0  0  0  0  0
    6.7763   -0.7036    0.0370 C   0  0  0  0  0  0  0  0  0  0  0  0
    7.9260    0.0545    0.2645 C   0  0  0  0  0  0  0  0  0  0  0  0
    8.0284    0.8406    1.4103 C   0  0  0  0  0  0  0  0  0  0  0  0
    6.9834    0.8660    2.3315 C   0  0  0  0  0  0  0  0  0  0  0  0
    5.8329    0.1083    2.1058 C   0  0  0  0  0  0  0  0  0  0  0  0
    1.6909    0.1988   -1.2355 N   0  0  0  0  0  0  0  0  0  0  0  0
    0.5172   -0.4178   -0.8452 C   0  0  0  0  0  0  0  0  0  0  0  0
    0.3785   -0.9644    0.2461 O   0  0  0  0  0  0  0  0  0  0  0  0
   -0.5853   -0.3832   -1.9090 C   0  0  0  0  0  0  0  0  0  0  0  0
   -1.9015   -0.5379   -1.3868 O   0  0  0  0  0  0  0  0  0  0  0  0
   -2.3735    0.5704   -0.7641 C   0  0  0  0  0  0  0  0  0  0  0  0
   -1.8105    1.6455   -0.6544 O   0  0  0  0  0  0  0  0  0  0  0  0
   -3.7479    0.2912   -0.3067 C   0  0  0  0  0  0  0  0  0  0  0  0
   -4.8289    0.7975   -1.0810 C   0  0  0  0  0  0  0  0  0  0  0  0
   -4.6800    1.5710   -2.2601 C   0  0  0  0  0  0  0  0  0  0  0  0
   -5.7843    2.0314   -2.9798 C   0  0  0  0  0  0  0  0  0  0  0  0
   -7.0666    1.7320   -2.5422 C   0  0  0  0  0  0  0  0  0  0  0  0
   -7.2427    0.9756   -1.3848 C   0  0  0  0  0  0  0  0  0  0  0  0
   -6.1405    0.5066   -0.6494 C   0  0  0  0  0  0  0  0  0  0  0  0
   -6.3390   -0.2515    0.5148 C   0  0  0  0  0  0  0  0  0  0  0  0
   -5.2676   -0.7348    1.2819 C   0  0  0  0  0  0  0  0  0  0  0  0
   -5.5128   -1.4830    2.4466 C   0  0  0  0  0  0  0  0  0  0  0  0
   -4.4631   -1.9664    3.2255 C   0  0  0  0  0  0  0  0  0  0  0  0
   -3.1529   -1.7054    2.8509 C   0  0  0  0  0  0  0  0  0  0  0  0
   -2.8948   -0.9639    1.6964 C   0  0  0  0  0  0  0  0  0  0  0  0
   -3.9412   -0.4656    0.8816 C   0  0  0  0  0  0  0  0  0  0  0  0
    4.1108    1.3742   -1.7514 H   0  0  0  0  0  0  0  0  0  0  0  0
    3.0958    2.3571   -0.6937 H   0  0  0  0  0  0  0  0  0  0  0  0
    4.5451    1.5944   -0.0477 H   0  0  0  0  0  0  0  0  0  0  0  0
    2.5205    0.3253    0.6572 H   0  0  0  0  0  0  0  0  0  0  0  0
    2.9358   -1.9165   -0.6897 H   0  0  0  0  0  0  0  0  0  0  0  0
    4.2793   -1.0738   -1.4240 H   0  0  0  0  0  0  0  0  0  0  0  0
    3.8254   -1.4766    1.5980 H   0  0  0  0  0  0  0  0  0  0  0  0
    4.7865   -2.5431    0.6030 H   0  0  0  0  0  0  0  0  0  0  0  0
    6.7165   -1.3190   -0.8575 H   0  0  0  0  0  0  0  0  0  0  0  0
    8.7438    0.0287   -0.4509 H   0  0  0  0  0  0  0  0  0  0  0  0
    8.9242    1.4298    1.5878 H   0  0  0  0  0  0  0  0  0  0  0  0
    7.0639    1.4752    3.2280 H   0  0  0  0  0  0  0  0  0  0  0  0
    5.0273    0.1398    2.8364 H   0  0  0  0  0  0  0  0  0  0  0  0
    1.7774    0.5439   -2.1828 H   0  0  0  0  0  0  0  0  0  0  0  0
   -0.5171    0.5327   -2.5089 H   0  0  0  0  0  0  0  0  0  0  0  0
   -0.4045   -1.2255   -2.5858 H   0  0  0  0  0  0  0  0  0  0  0  0
   -3.6906    1.8347   -2.6301 H   0  0  0  0  0  0  0  0  0  0  0  0
   -5.6382    2.6260   -3.8780 H   0  0  0  0  0  0  0  0  0  0  0  0
   -7.9305    2.0882   -3.0969 H   0  0  0  0  0  0  0  0  0  0  0  0
   -8.2568    0.7546   -1.0573 H   0  0  0  0  0  0  0  0  0  0  0  0
   -7.3574   -0.4678    0.8366 H   0  0  0  0  0  0  0  0  0  0  0  0
   -6.5330   -1.6956    2.7600 H   0  0  0  0  0  0  0  0  0  0  0  0
   -4.6695   -2.5429    4.1232 H   0  0  0  0  0  0  0  0  0  0  0  0
   -2.3253   -2.0749    3.4512 H   0  0  0  0  0  0  0  0  0  0  0  0
   -1.8525   -0.7780    1.4422 H   0  0  0  0  0  0  0  0  0  0  0  0
  1  2  1  0
  2  3  1  0
  3  4  1  0
  4  5  1  0
  5  6  2  0
  6  7  1  0
  7  8  2  0
  8  9  1  0
  9 10  2  0
  2 11  1  0
 11 12  1  0
 12 13  2  0
 12 14  1  0
 14 15  1  0
 15 16  1  0
 16 17  2  0
 16 18  1  0
 18 19  1  0
 19 20  2  0
 20 21  1  0
 21 22  2  0
 22 23  1  0
 23 24  2  0
 24 25  1  0
 25 26  2  0
 26 27  1  0
 27 28  2  0
 28 29  1  0
 29 30  2  0
 30 31  1  0
 10  5  1  0
 31 18  2  0
 24 19  1  0
 31 26  1  0
  1 32  1  0
  1 33  1  0
  1 34  1  0
  2 35  1  0
  3 36  1  0
  3 37  1  0
  4 38  1  0
  4 39  1  0
  6 40  1  0
  7 41  1  0
  8 42  1  0
  9 43  1  0
 10 44  1  0
 11 45  1  0
 14 46  1  0
 14 47  1  0
 20 48  1  0
 21 49  1  0
 22 50  1  0
 23 51  1  0
 25 52  1  0
 27 53  1  0
 28 54  1  0
 29 55  1  0
 30 56  1  0
M  END
$$$$
