
     RDKit          3D

 39 41  0  0  0  0  0  0  0  0999 V2000
    0.5017   -0.4164    2.2084 O   0  0  0  0  0  0  0  0  0  0  0  0
    0.0909   -0.0849    1.0986 C   0  0  0  0  0  0  0  0  0  0  0  0
    0.9182    0.3266    0.0750 N   0  0  0  0  0  0  0  0  0  0  0  0
    2.3696    0.3030    0.2045 C   0  0  0  0  0  0  0  0  0  0  0  0
    2.9119   -1.1075   -0.0633 C   0  0  0  0  0  0  0  0  0  0  0  0
    4.4367   -1.1467   -0.0014 C   0  0  0  0  0  0  0  0  0  0  0  0
    5.0659   -0.1220   -0.9404 C   0  0  0  0  0  0  0  0  0  0  0  0
    4.5305    1.2825   -0.6792 C   0  0  0  0  0  0  0  0  0  0  0  0
    3.0063    1.3237   -0.7458 C   0  0  0  0  0  0  0  0  0  0  0  0
   -1.3771   -0.0769    0.8478 C   0  0  0  0  0  0  0  0  0  0  0  0
   -1.9052   -0.1756   -0.4480 C   0  0  0  0  0  0  0  0  0  0  0  0
   -3.2951   -0.1491   -0.6650 C   0  0  0  0  0  0  0  0  0  0  0  0
   -3.8353   -0.2399   -1.9585 C   0  0  0  0  0  0  0  0  0  0  0  0
   -5.2163   -0.2093   -2.1597 C   0  0  0  0  0  0  0  0  0  0  0  0
   -6.0757   -0.0893   -1.0719 C   0  0  0  0  0  0  0  0  0  0  0  0
   -5.5566   -0.0019    0.2203 C   0  0  0  0  0  0  0  0  0  0  0  0
   -4.1704   -0.0316    0.4399 C   0  0  0  0  0  0  0  0  0  0  0  0
   -3.6372    0.0431    1.7342 C   0  0  0  0  0  0  0  0  0  0  0  0
   -2.2583    0.0088    1.9343 C   0  0  0  0  0  0  0  0  0  0  0  0
   -1.8375    0.0635    3.2380 O   0  0  0  0  0  0  0  0  0  0  0  0
    0.5271    0.6574   -0.7951 H   0  0  0  0  0  0  0  0  0  0  0  0
    2.6179    0.5823    1.2368 H   0  0  0  0  0  0  0  0  0  0  0  0
    2.5786   -1.4518   -1.0512 H   0  0  0  0  0  0  0  0  0  0  0  0
    2.5011   -1.8169    0.6651 H   0  0  0  0  0  0  0  0  0  0  0  0
    4.7645   -0.9491    1.0266 H   0  0  0  0  0  0  0  0  0  0  0  0
    4.7902   -2.1508   -0.2617 H   0  0  0  0  0  0  0  0  0  0  0  0
    4.8579   -0.4041   -1.9799 H   0  0  0  0  0  0  0  0  0  0  0  0
    6.1550   -0.1302   -0.8191 H   0  0  0  0  0  0  0  0  0  0  0  0
    4.8618    1.6218    0.3099 H   0  0  0  0  0  0  0  0  0  0  0  0
    4.9505    1.9794   -1.4132 H   0  0  0  0  0  0  0  0  0  0  0  0
    2.6557    2.3332   -0.4984 H   0  0  0  0  0  0  0  0  0  0  0  0
    2.6831    1.1277   -1.7767 H   0  0  0  0  0  0  0  0  0  0  0  0
   -1.2477   -0.3014   -1.3029 H   0  0  0  0  0  0  0  0  0  0  0  0
   -3.1839   -0.3351   -2.8245 H   0  0  0  0  0  0  0  0  0  0  0  0
   -5.6208   -0.2799   -3.1663 H   0  0  0  0  0  0  0  0  0  0  0  0
   -7.1514   -0.0661   -1.2270 H   0  0  0  0  0  0  0  0  0  0  0  0
   -6.2443    0.0873    1.0589 H   0  0  0  0  0  0  0  0  0  0  0  0
   -4.2911    0.1206    2.5999 H   0  0  0  0  0  0  0  0  0  0  0  0
   -0.8712   -0.1244    3.2493 H   0  0  0  0  0  0  0  0  0  0  0  0
  1  2  2  0
  2  3  1  0
  3  4  1  0
  4  5  1  0
  5  6  1  0
  6  7  1  0
  7  8  1  0
  8  9  1  0
  2 10  1  0
 10 11  2  0
 11 12  1  0
 12 13  2  0
 13 14  1  0
 14 15  2  0
 15 16  1  0
 16 17  2  0
 17 18  1  0
 18 19  2  0
 19 20  1  0
  9  4  1  0
 19 10  1  0
 17 12  1  0
  3 21  1  0
  4 22  1  0
  5 23  1  0
  5 24  1  0
  6 25  1  0
  6 26  1  0
  7 27  1  0
  7 28  1  0
  8 29  1  0
  8 30  1  0
  9 31  1  0
  9 32  1  0
 11 33  1  0
 13 34  1  0
 14 35  1  0
 15 36  1  0
 16 37  1  0
 18 38  1  0
 20 39  1  0
M  END
$$$$
