
     RDKit          3D

 33 34  0  0  0  0  0  0  0  0999 V2000
    1.6118   -3.0189   -3.0886 C   0  0  0  0  0  0  0  0  0  0  0  0
    2.1844   -1.8625   -2.2866 C   0  0  0  0  0  0  0  0  0  0  0  0
    1.2362   -0.6701   -2.2315 C   0  0  0  0  0  0  0  0  0  0  0  0
    0.2129   -0.6219   -2.9245 O   0  0  0  0  0  0  0  0  0  0  0  0
    1.5308    0.4523   -1.2546 C   0  0  0  0  0  0  0  0  0  0  0  0
    2.9570    0.7958   -1.2371 C   0  0  0  0  0  0  0  0  0  0  0  0
    4.0794    1.0905   -1.2853 N   0  0  0  0  0  0  0  0  0  0  0  0
    1.0235    0.0337    0.0806 C   0  0  0  0  0  0  0  0  0  0  0  0
    1.7092   -0.5874    1.0214 N   0  0  0  0  0  0  0  0  0  0  0  0
    0.8782   -0.8213    2.0881 N   0  0  0  0  0  0  0  0  0  0  0  0
   -0.3086   -0.3505    1.7848 C   0  0  0  0  0  0  0  0  0  0  0  0
   -0.2655    0.1861    0.5225 N   0  0  0  0  0  0  0  0  0  0  0  0
   -1.4182    0.7634   -0.1290 C   0  0  0  0  0  0  0  0  0  0  0  0
   -1.9473    2.0329    0.5458 C   0  0  0  0  0  0  0  0  0  0  0  0
   -1.6433    2.2098    2.0377 C   0  0  0  0  0  0  0  0  0  0  0  0
   -2.0379    1.0565    2.9687 C   0  0  0  0  0  0  0  0  0  0  0  0
   -1.5435   -0.3493    2.6085 C   0  0  0  0  0  0  0  0  0  0  0  0
    1.4267   -2.7248   -4.1270 H   0  0  0  0  0  0  0  0  0  0  0  0
    0.6629   -3.3607   -2.6620 H   0  0  0  0  0  0  0  0  0  0  0  0
    2.3094   -3.8621   -3.0924 H   0  0  0  0  0  0  0  0  0  0  0  0
    3.1256   -1.5398   -2.7425 H   0  0  0  0  0  0  0  0  0  0  0  0
    2.3841   -2.2047   -1.2664 H   0  0  0  0  0  0  0  0  0  0  0  0
    0.9912    1.3425   -1.6002 H   0  0  0  0  0  0  0  0  0  0  0  0
   -1.1838    0.9677   -1.1770 H   0  0  0  0  0  0  0  0  0  0  0  0
   -2.1959   -0.0101   -0.1369 H   0  0  0  0  0  0  0  0  0  0  0  0
   -3.0305    2.0906    0.3824 H   0  0  0  0  0  0  0  0  0  0  0  0
   -1.5221    2.8996    0.0224 H   0  0  0  0  0  0  0  0  0  0  0  0
   -0.5721    2.4177    2.1611 H   0  0  0  0  0  0  0  0  0  0  0  0
   -2.1526    3.1181    2.3849 H   0  0  0  0  0  0  0  0  0  0  0  0
   -3.1303    1.0264    3.0672 H   0  0  0  0  0  0  0  0  0  0  0  0
   -1.6602    1.3051    3.9696 H   0  0  0  0  0  0  0  0  0  0  0  0
   -1.3774   -0.9210    3.5293 H   0  0  0  0  0  0  0  0  0  0  0  0
   -2.3341   -0.8836    2.0667 H   0  0  0  0  0  0  0  0  0  0  0  0
  1  2  1  0
  2  3  1  0
  3  4  2  0
  3  5  1  0
  5  6  1  0
  6  7  3  0
  5  8  1  0
  8  9  2  0
  9 10  1  0
 10 11  2  0
 11 12  1  0
 12 13  1  0
 13 14  1  0
 14 15  1  0
 15 16  1  0
 16 17  1  0
 12  8  1  0
 17 11  1  0
  1 18  1  0
  1 19  1  0
  1 20  1  0
  2 21  1  0
  2 22  1  0
  5 23  1  0
 13 24  1  0
 13 25  1  0
 14 26  1  0
 14 27  1  0
 15 28  1  0
 15 29  1  0
 16 30  1  0
 16 31  1  0
 17 32  1  0
 17 33  1  0
M  END
$$$$
