
     RDKit          3D

 40 40  0  0  0  0  0  0  0  0999 V2000
   -6.1175    1.2780   -0.5570 C   0  0  0  0  0  0  0  0  0  0  0  0
   -5.0747    0.1549   -0.6978 C   0  0  0  0  0  0  0  0  0  0  0  0
   -4.8748   -0.1411   -2.1923 C   0  0  0  0  0  0  0  0  0  0  0  0
   -5.6058   -1.0961    0.0194 C   0  0  0  0  0  0  0  0  0  0  0  0
   -3.8236    0.6138   -0.0867 N   0  0  0  0  0  0  0  0  0  0  0  0
   -2.6559   -0.1133   -0.0130 C   0  0  0  0  0  0  0  0  0  0  0  0
   -2.4669   -1.2467   -0.4269 O   0  0  0  0  0  0  0  0  0  0  0  0
   -1.5061    0.6496    0.6742 C   0  0  0  0  0  0  0  0  0  0  0  0
   -1.6608    1.8009    1.0662 O   0  0  0  0  0  0  0  0  0  0  0  0
   -0.3390   -0.0777    0.7764 N   0  0  0  0  0  0  0  0  0  0  0  0
    0.8387    0.6063    1.1282 N   0  0  0  0  0  0  0  0  0  0  0  0
    1.9739    0.3321    0.3777 C   0  0  0  0  0  0  0  0  0  0  0  0
    2.0192   -0.5936   -0.4287 O   0  0  0  0  0  0  0  0  0  0  0  0
    3.1340    1.2855    0.6816 C   0  0  0  0  0  0  0  0  0  0  0  0
    4.3471    1.0285   -0.0031 O   0  0  0  0  0  0  0  0  0  0  0  0
    5.2094    0.1201    0.5448 C   0  0  0  0  0  0  0  0  0  0  0  0
    6.4984    0.1422    0.0044 C   0  0  0  0  0  0  0  0  0  0  0  0
    7.4818   -0.7321    0.4700 C   0  0  0  0  0  0  0  0  0  0  0  0
    7.1778   -1.6433    1.4779 C   0  0  0  0  0  0  0  0  0  0  0  0
    5.8911   -1.6809    2.0126 C   0  0  0  0  0  0  0  0  0  0  0  0
    4.9067   -0.8031    1.5464 C   0  0  0  0  0  0  0  0  0  0  0  0
   -5.7795    2.1949   -1.0541 H   0  0  0  0  0  0  0  0  0  0  0  0
   -7.0785    0.9908   -0.9983 H   0  0  0  0  0  0  0  0  0  0  0  0
   -6.2913    1.5251    0.4969 H   0  0  0  0  0  0  0  0  0  0  0  0
   -5.8222   -0.4102   -2.6728 H   0  0  0  0  0  0  0  0  0  0  0  0
   -4.1792   -0.9711   -2.3542 H   0  0  0  0  0  0  0  0  0  0  0  0
   -4.4680    0.7322   -2.7150 H   0  0  0  0  0  0  0  0  0  0  0  0
   -4.9297   -1.9497   -0.0946 H   0  0  0  0  0  0  0  0  0  0  0  0
   -6.5812   -1.3968   -0.3793 H   0  0  0  0  0  0  0  0  0  0  0  0
   -5.7227   -0.9135    1.0938 H   0  0  0  0  0  0  0  0  0  0  0  0
   -3.7774    1.5521    0.3043 H   0  0  0  0  0  0  0  0  0  0  0  0
   -0.2373   -0.9277    0.2133 H   0  0  0  0  0  0  0  0  0  0  0  0
    0.6997    1.5286    1.5410 H   0  0  0  0  0  0  0  0  0  0  0  0
    2.8052    2.2796    0.3542 H   0  0  0  0  0  0  0  0  0  0  0  0
    3.2901    1.3576    1.7654 H   0  0  0  0  0  0  0  0  0  0  0  0
    6.7382    0.8482   -0.7869 H   0  0  0  0  0  0  0  0  0  0  0  0
    8.4800   -0.7038    0.0418 H   0  0  0  0  0  0  0  0  0  0  0  0
    7.9388   -2.3299    1.8393 H   0  0  0  0  0  0  0  0  0  0  0  0
    5.6485   -2.4036    2.7878 H   0  0  0  0  0  0  0  0  0  0  0  0
    3.9133   -0.8865    1.9727 H   0  0  0  0  0  0  0  0  0  0  0  0
  1  2  1  0
  2  3  1  0
  2  4  1  0
  2  5  1  0
  5  6  1  0
  6  7  2  0
  6  8  1  0
  8  9  2  0
  8 10  1  0
 10 11  1  0
 11 12  1  0
 12 13  2  0
 12 14  1  0
 14 15  1  0
 15 16  1  0
 16 17  2  0
 17 18  1  0
 18 19  2  0
 19 20  1  0
 20 21  2  0
 21 16  1  0
  1 22  1  0
  1 23  1  0
  1 24  1  0
  3 25  1  0
  3 26  1  0
  3 27  1  0
  4 28  1  0
  4 29  1  0
  4 30  1  0
  5 31  1  0
 10 32  1  0
 11 33  1  0
 14 34  1  0
 14 35  1  0
 17 36  1  0
 18 37  1  0
 19 38  1  0
 20 39  1  0
 21 40  1  0
M  END
$$$$
