
     RDKit          3D

 45 47  0  0  0  0  0  0  0  0999 V2000
   -4.7619    2.2338    0.3696 C   0  0  0  0  0  0  0  0  0  0  0  0
   -4.1866    1.5942   -1.2246 S   0  0  0  0  0  0  0  0  0  0  0  0
   -4.0595   -0.1469   -0.8277 C   0  0  0  0  0  0  0  0  0  0  0  0
   -4.8388   -1.0372   -1.5791 C   0  0  0  0  0  0  0  0  0  0  0  0
   -4.7996   -2.4099   -1.3247 C   0  0  0  0  0  0  0  0  0  0  0  0
   -3.9808   -2.9081   -0.3152 C   0  0  0  0  0  0  0  0  0  0  0  0
   -3.1889   -2.0361    0.4302 C   0  0  0  0  0  0  0  0  0  0  0  0
   -3.2062   -0.6638    0.1579 C   0  0  0  0  0  0  0  0  0  0  0  0
   -2.4345    0.1846    0.9087 O   0  0  0  0  0  0  0  0  0  0  0  0
   -1.0234   -0.0286    0.7338 C   0  0  0  0  0  0  0  0  0  0  0  0
   -0.4003   -0.2860    2.1123 C   0  0  0  0  0  0  0  0  0  0  0  0
    0.9989    0.3168    2.2573 C   0  0  0  0  0  0  0  0  0  0  0  0
    1.7214    0.2271    0.9889 N   0  0  0  0  0  0  0  0  0  0  0  0
    3.1502    0.5365    1.1633 C   0  0  0  0  0  0  0  0  0  0  0  0
    3.9887    0.2139   -0.0561 C   0  0  0  0  0  0  0  0  0  0  0  0
    4.7405    1.2118   -0.6925 C   0  0  0  0  0  0  0  0  0  0  0  0
    5.5247    0.9055   -1.8067 C   0  0  0  0  0  0  0  0  0  0  0  0
    5.5666   -0.3996   -2.2949 C   0  0  0  0  0  0  0  0  0  0  0  0
    4.8244   -1.4003   -1.6709 C   0  0  0  0  0  0  0  0  0  0  0  0
    4.0406   -1.0961   -0.5570 C   0  0  0  0  0  0  0  0  0  0  0  0
    1.1014    1.0741   -0.0481 C   0  0  0  0  0  0  0  0  0  0  0  0
   -0.4157    1.2203    0.1043 C   0  0  0  0  0  0  0  0  0  0  0  0
   -5.6264    1.6660    0.7264 H   0  0  0  0  0  0  0  0  0  0  0  0
   -3.9686    2.2004    1.1192 H   0  0  0  0  0  0  0  0  0  0  0  0
   -5.0644    3.2782    0.2408 H   0  0  0  0  0  0  0  0  0  0  0  0
   -5.4910   -0.6663   -2.3660 H   0  0  0  0  0  0  0  0  0  0  0  0
   -5.4147   -3.0873   -1.9117 H   0  0  0  0  0  0  0  0  0  0  0  0
   -3.9594   -3.9743   -0.1081 H   0  0  0  0  0  0  0  0  0  0  0  0
   -2.5616   -2.4289    1.2243 H   0  0  0  0  0  0  0  0  0  0  0  0
   -0.8106   -0.8840    0.0759 H   0  0  0  0  0  0  0  0  0  0  0  0
   -0.3513   -1.3715    2.2680 H   0  0  0  0  0  0  0  0  0  0  0  0
   -1.0425    0.1011    2.9134 H   0  0  0  0  0  0  0  0  0  0  0  0
    0.9312    1.3595    2.5955 H   0  0  0  0  0  0  0  0  0  0  0  0
    1.5221   -0.2374    3.0471 H   0  0  0  0  0  0  0  0  0  0  0  0
    3.5628   -0.0618    1.9871 H   0  0  0  0  0  0  0  0  0  0  0  0
    3.2829    1.5871    1.4545 H   0  0  0  0  0  0  0  0  0  0  0  0
    4.7196    2.2352   -0.3254 H   0  0  0  0  0  0  0  0  0  0  0  0
    6.1031    1.6858   -2.2946 H   0  0  0  0  0  0  0  0  0  0  0  0
    6.1769   -0.6366   -3.1623 H   0  0  0  0  0  0  0  0  0  0  0  0
    4.8529   -2.4178   -2.0516 H   0  0  0  0  0  0  0  0  0  0  0  0
    3.4586   -1.8815   -0.0789 H   0  0  0  0  0  0  0  0  0  0  0  0
    1.5310    2.0841   -0.0547 H   0  0  0  0  0  0  0  0  0  0  0  0
    1.3125    0.6289   -1.0282 H   0  0  0  0  0  0  0  0  0  0  0  0
   -0.8725    1.4208   -0.8721 H   0  0  0  0  0  0  0  0  0  0  0  0
   -0.6518    2.0943    0.7270 H   0  0  0  0  0  0  0  0  0  0  0  0
  1  2  1  0
  2  3  1  0
  3  4  2  0
  4  5  1  0
  5  6  2  0
  6  7  1  0
  7  8  2  0
  8  9  1  0
  9 10  1  0
 10 11  1  0
 11 12  1  0
 12 13  1  0
 13 14  1  0
 14 15  1  0
 15 16  2  0
 16 17  1  0
 17 18  2  0
 18 19  1  0
 19 20  2  0
 13 21  1  0
 21 22  1  0
  8  3  1  0
 22 10  1  0
 20 15  1  0
  1 23  1  0
  1 24  1  0
  1 25  1  0
  4 26  1  0
  5 27  1  0
  6 28  1  0
  7 29  1  0
 10 30  1  0
 11 31  1  0
 11 32  1  0
 12 33  1  0
 12 34  1  0
 14 35  1  0
 14 36  1  0
 16 37  1  0
 17 38  1  0
 18 39  1  0
 19 40  1  0
 20 41  1  0
 21 42  1  0
 21 43  1  0
 22 44  1  0
 22 45  1  0
M  END
$$$$
