
     RDKit          3D

 57 59  0  0  0  0  0  0  0  0999 V2000
   -5.4491   -1.3947    4.9832 C   0  0  0  0  0  0  0  0  0  0  0  0
   -5.1077   -1.1175    3.5480 C   0  0  0  0  0  0  0  0  0  0  0  0
   -5.3073    0.1646    3.0125 C   0  0  0  0  0  0  0  0  0  0  0  0
   -5.0243    0.4244    1.6702 C   0  0  0  0  0  0  0  0  0  0  0  0
   -4.5344   -0.6052    0.8621 C   0  0  0  0  0  0  0  0  0  0  0  0
   -4.1804   -0.2972   -0.8497 S   0  0  0  0  0  6  0  0  0  0  0  0
   -4.5588   -1.4804   -1.5933 O   0  0  0  0  0  0  0  0  0  0  0  0
   -4.7012    1.0064   -1.2034 O   0  0  0  0  0  0  0  0  0  0  0  0
   -2.4684   -0.1823   -0.8742 N   0  0  0  0  0  0  0  0  0  0  0  0
   -1.8948    0.8841   -0.0102 C   0  0  0  0  0  0  0  0  0  0  0  0
   -0.4058    1.0382   -0.2801 C   0  0  0  0  0  0  0  0  0  0  0  0
   -0.1727    1.5357   -1.7077 C   0  0  0  0  0  0  0  0  0  0  0  0
    1.2452    1.2363   -2.1769 C   0  0  0  0  0  0  0  0  0  0  0  0
    2.0703    2.1327   -2.3578 O   0  0  0  0  0  0  0  0  0  0  0  0
    1.5661   -0.0878   -2.3516 N   0  0  0  0  0  0  0  0  0  0  0  0
    2.9154   -0.4996   -2.7516 C   0  0  0  0  0  0  0  0  0  0  0  0
    2.8563   -1.8614   -3.4334 C   0  0  0  0  0  0  0  0  0  0  0  0
    3.8482   -0.5233   -1.5147 C   0  0  0  0  0  0  0  0  0  0  0  0
    4.2717   -1.5758   -1.0455 O   0  0  0  0  0  0  0  0  0  0  0  0
    4.1053    0.7517   -1.0308 N   0  0  0  0  0  0  0  0  0  0  0  0
    4.8913    1.1206    0.0761 C   0  0  0  0  0  0  0  0  0  0  0  0
    5.6039    0.2140    0.8655 C   0  0  0  0  0  0  0  0  0  0  0  0
    6.3593    0.6656    1.9525 C   0  0  0  0  0  0  0  0  0  0  0  0
    6.4022    2.0231    2.2454 C   0  0  0  0  0  0  0  0  0  0  0  0
    7.1284    2.4539    3.2856 F   0  0  0  0  0  0  0  0  0  0  0  0
    5.7040    2.9396    1.4718 C   0  0  0  0  0  0  0  0  0  0  0  0
    4.9484    2.4872    0.3873 C   0  0  0  0  0  0  0  0  0  0  0  0
   -1.2283    1.0165   -2.6925 C   0  0  0  0  0  0  0  0  0  0  0  0
   -1.8774   -0.2845   -2.2380 C   0  0  0  0  0  0  0  0  0  0  0  0
   -4.3564   -1.8940    1.3740 C   0  0  0  0  0  0  0  0  0  0  0  0
   -4.6459   -2.1473    2.7156 C   0  0  0  0  0  0  0  0  0  0  0  0
   -6.5266   -1.5627    5.0888 H   0  0  0  0  0  0  0  0  0  0  0  0
   -4.9188   -2.2812    5.3506 H   0  0  0  0  0  0  0  0  0  0  0  0
   -5.1548   -0.5529    5.6190 H   0  0  0  0  0  0  0  0  0  0  0  0
   -5.6925    0.9662    3.6408 H   0  0  0  0  0  0  0  0  0  0  0  0
   -5.1874    1.4218    1.2677 H   0  0  0  0  0  0  0  0  0  0  0  0
   -2.0239    0.6008    1.0389 H   0  0  0  0  0  0  0  0  0  0  0  0
   -2.4063    1.8392   -0.1750 H   0  0  0  0  0  0  0  0  0  0  0  0
    0.0993    0.0828   -0.0939 H   0  0  0  0  0  0  0  0  0  0  0  0
    0.0301    1.7537    0.4280 H   0  0  0  0  0  0  0  0  0  0  0  0
   -0.2571    2.6331   -1.7060 H   0  0  0  0  0  0  0  0  0  0  0  0
    1.0113   -0.7843   -1.8706 H   0  0  0  0  0  0  0  0  0  0  0  0
    3.3165    0.2327   -3.4626 H   0  0  0  0  0  0  0  0  0  0  0  0
    2.2380   -1.8152   -4.3358 H   0  0  0  0  0  0  0  0  0  0  0  0
    3.8558   -2.1987   -3.7214 H   0  0  0  0  0  0  0  0  0  0  0  0
    2.4234   -2.6205   -2.7736 H   0  0  0  0  0  0  0  0  0  0  0  0
    3.6315    1.5140   -1.5220 H   0  0  0  0  0  0  0  0  0  0  0  0
    5.5950   -0.8521    0.6625 H   0  0  0  0  0  0  0  0  0  0  0  0
    6.9116   -0.0367    2.5691 H   0  0  0  0  0  0  0  0  0  0  0  0
    5.7507    3.9963    1.7151 H   0  0  0  0  0  0  0  0  0  0  0  0
    4.4061    3.2147   -0.2121 H   0  0  0  0  0  0  0  0  0  0  0  0
   -0.7995    0.8814   -3.6939 H   0  0  0  0  0  0  0  0  0  0  0  0
   -2.0153    1.7762   -2.7967 H   0  0  0  0  0  0  0  0  0  0  0  0
   -2.6288   -0.5767   -2.9780 H   0  0  0  0  0  0  0  0  0  0  0  0
   -1.1458   -1.0987   -2.2199 H   0  0  0  0  0  0  0  0  0  0  0  0
   -3.9999   -2.7007    0.7352 H   0  0  0  0  0  0  0  0  0  0  0  0
   -4.5157   -3.1558    3.1073 H   0  0  0  0  0  0  0  0  0  0  0  0
  1  2  1  0
  2  3  2  0
  3  4  1  0
  4  5  2  0
  5  6  1  0
  6  7  2  0
  6  8  2  0
  6  9  1  0
  9 10  1  0
 10 11  1  0
 11 12  1  0
 12 13  1  0
 13 14  2  0
 13 15  1  0
 15 16  1  0
 16 17  1  0
 16 18  1  0
 18 19  2  0
 18 20  1  0
 20 21  1  0
 21 22  2  0
 22 23  1  0
 23 24  2  0
 24 25  1  0
 24 26  1  0
 26 27  2  0
 12 28  1  0
 28 29  1  0
  5 30  1  0
 30 31  2  0
 31  2  1  0
 29  9  1  0
 27 21  1  0
  1 32  1  0
  1 33  1  0
  1 34  1  0
  3 35  1  0
  4 36  1  0
 10 37  1  0
 10 38  1  0
 11 39  1  0
 11 40  1  0
 12 41  1  0
 15 42  1  0
 16 43  1  0
 17 44  1  0
 17 45  1  0
 17 46  1  0
 20 47  1  0
 22 48  1  0
 23 49  1  0
 26 50  1  0
 27 51  1  0
 28 52  1  0
 28 53  1  0
 29 54  1  0
 29 55  1  0
 30 56  1  0
 31 57  1  0
M  END
$$$$
