
     RDKit          3D

 49 52  0  0  0  0  0  0  0  0999 V2000
    7.4396    0.1496   -0.0129 C   0  0  0  0  0  0  0  0  0  0  0  0
    6.4982    0.4448   -1.1704 C   0  0  0  0  0  0  0  0  0  0  0  0
    5.0805    0.0433   -0.8556 C   0  0  0  0  0  0  0  0  0  0  0  0
    4.2022    0.9453   -0.2440 C   0  0  0  0  0  0  0  0  0  0  0  0
    2.8873    0.5697    0.0638 C   0  0  0  0  0  0  0  0  0  0  0  0
    2.4174   -0.7163   -0.2271 C   0  0  0  0  0  0  0  0  0  0  0  0
    1.0522   -1.1801    0.0724 C   0  0  0  0  0  0  0  0  0  0  0  0
    0.0452   -0.2808    0.7585 C   0  0  0  0  0  0  0  0  0  0  0  0
   -0.3724    0.8733   -0.0536 N   0  0  0  0  0  0  0  0  0  0  0  0
   -1.2275    0.4934   -1.1898 C   0  0  0  0  0  0  0  0  0  0  0  0
   -2.6789    0.2794   -0.8552 C   0  0  0  0  0  0  0  0  0  0  0  0
   -3.2478    0.6993    0.2912 C   0  0  0  0  0  0  0  0  0  0  0  0
   -4.6774    0.4621    0.5801 C   0  0  0  0  0  0  0  0  0  0  0  0
   -5.0920    0.0352    1.8497 C   0  0  0  0  0  0  0  0  0  0  0  0
   -6.4457   -0.1752    2.1285 C   0  0  0  0  0  0  0  0  0  0  0  0
   -7.4044    0.0444    1.1428 C   0  0  0  0  0  0  0  0  0  0  0  0
   -7.0110    0.4755   -0.1212 C   0  0  0  0  0  0  0  0  0  0  0  0
   -5.6574    0.6845   -0.3996 C   0  0  0  0  0  0  0  0  0  0  0  0
   -2.4214    1.4333    1.3214 C   0  0  0  0  0  0  0  0  0  0  0  0
   -1.0619    1.8909    0.7600 C   0  0  0  0  0  0  0  0  0  0  0  0
    0.7361   -2.4470   -0.2404 C   0  0  0  0  0  0  0  0  0  0  0  0
    1.6634   -3.3843   -0.8877 C   0  0  0  0  0  0  0  0  0  0  0  0
    1.3071   -4.5251   -1.1605 O   0  0  0  0  0  0  0  0  0  0  0  0
    2.9351   -2.9192   -1.1619 O   0  0  0  0  0  0  0  0  0  0  0  0
    3.3105   -1.6025   -0.8325 C   0  0  0  0  0  0  0  0  0  0  0  0
    4.6244   -1.2448   -1.1456 C   0  0  0  0  0  0  0  0  0  0  0  0
    8.4603    0.4508   -0.2690 H   0  0  0  0  0  0  0  0  0  0  0  0
    7.4513   -0.9190    0.2272 H   0  0  0  0  0  0  0  0  0  0  0  0
    7.1418    0.6933    0.8901 H   0  0  0  0  0  0  0  0  0  0  0  0
    6.5335    1.5137   -1.4137 H   0  0  0  0  0  0  0  0  0  0  0  0
    6.8398   -0.0821   -2.0697 H   0  0  0  0  0  0  0  0  0  0  0  0
    4.5325    1.9539   -0.0032 H   0  0  0  0  0  0  0  0  0  0  0  0
    2.2422    1.3116    0.5271 H   0  0  0  0  0  0  0  0  0  0  0  0
    0.5113    0.0719    1.6893 H   0  0  0  0  0  0  0  0  0  0  0  0
   -0.8248   -0.8681    1.0813 H   0  0  0  0  0  0  0  0  0  0  0  0
   -1.1750    1.2920   -1.9411 H   0  0  0  0  0  0  0  0  0  0  0  0
   -0.8395   -0.3984   -1.6943 H   0  0  0  0  0  0  0  0  0  0  0  0
   -3.2610   -0.2456   -1.6083 H   0  0  0  0  0  0  0  0  0  0  0  0
   -4.3661   -0.1557    2.6356 H   0  0  0  0  0  0  0  0  0  0  0  0
   -6.7495   -0.5131    3.1159 H   0  0  0  0  0  0  0  0  0  0  0  0
   -8.4568   -0.1190    1.3598 H   0  0  0  0  0  0  0  0  0  0  0  0
   -7.7565    0.6537   -0.8918 H   0  0  0  0  0  0  0  0  0  0  0  0
   -5.3778    1.0382   -1.3893 H   0  0  0  0  0  0  0  0  0  0  0  0
   -2.2518    0.7819    2.1872 H   0  0  0  0  0  0  0  0  0  0  0  0
   -2.9625    2.3183    1.6782 H   0  0  0  0  0  0  0  0  0  0  0  0
   -0.4154    2.2182    1.5839 H   0  0  0  0  0  0  0  0  0  0  0  0
   -1.2123    2.7857    0.1403 H   0  0  0  0  0  0  0  0  0  0  0  0
   -0.2469   -2.8577   -0.0377 H   0  0  0  0  0  0  0  0  0  0  0  0
    5.2818   -1.9734   -1.6132 H   0  0  0  0  0  0  0  0  0  0  0  0
  1  2  1  0
  2  3  1  0
  3  4  2  0
  4  5  1  0
  5  6  2  0
  6  7  1  0
  7  8  1  0
  8  9  1  0
  9 10  1  0
 10 11  1  0
 11 12  2  0
 12 13  1  0
 13 14  2  0
 14 15  1  0
 15 16  2  0
 16 17  1  0
 17 18  2  0
 12 19  1  0
 19 20  1  0
  7 21  2  0
 21 22  1  0
 22 23  2  0
 22 24  1  0
 24 25  1  0
 25 26  2  0
 26  3  1  0
 25  6  1  0
 20  9  1  0
 18 13  1  0
  1 27  1  0
  1 28  1  0
  1 29  1  0
  2 30  1  0
  2 31  1  0
  4 32  1  0
  5 33  1  0
  8 34  1  0
  8 35  1  0
 10 36  1  0
 10 37  1  0
 11 38  1  0
 14 39  1  0
 15 40  1  0
 16 41  1  0
 17 42  1  0
 18 43  1  0
 19 44  1  0
 19 45  1  0
 20 46  1  0
 20 47  1  0
 21 48  1  0
 26 49  1  0
M  END
$$$$
