
     RDKit          3D

 52 54  0  0  0  0  0  0  0  0999 V2000
    7.2510    1.1686    2.7681 C   0  0  0  0  0  0  0  0  0  0  0  0
    6.5060    2.3544    2.1758 C   0  0  0  0  0  0  0  0  0  0  0  0
    5.4136    1.8888    1.3599 O   0  0  0  0  0  0  0  0  0  0  0  0
    4.2374    1.6666    2.0138 C   0  0  0  0  0  0  0  0  0  0  0  0
    4.0743    1.8707    3.2129 O   0  0  0  0  0  0  0  0  0  0  0  0
    3.2528    1.1726    1.1724 N   0  0  0  0  0  0  0  0  0  0  0  0
    1.9651    0.7688    1.7304 C   0  0  0  0  0  0  0  0  0  0  0  0
    1.4656   -0.5117    1.0689 C   0  0  0  0  0  0  0  0  0  0  0  0
    1.3132   -0.3508   -0.4534 C   0  0  0  0  0  0  0  0  0  0  0  0
   -0.0866   -0.1566   -0.8182 N   0  0  0  0  0  0  0  0  0  0  0  0
   -0.5877   -0.5598   -2.0448 C   0  0  0  0  0  0  0  0  0  0  0  0
    0.1051   -1.1252   -2.8897 O   0  0  0  0  0  0  0  0  0  0  0  0
   -2.0317   -0.1310   -2.3493 C   0  0  0  0  0  0  0  0  0  0  0  0
   -2.9768   -0.2573   -1.2296 N   0  0  0  0  0  0  0  0  0  0  0  0
   -2.9741    0.7357   -0.2581 C   0  0  0  0  0  0  0  0  0  0  0  0
   -2.1836    1.6874   -0.3043 O   0  0  0  0  0  0  0  0  0  0  0  0
   -3.8849    0.5746    0.9370 C   0  0  0  0  0  0  0  0  0  0  0  0
   -5.2941    1.0396    0.6416 C   0  0  0  0  0  0  0  0  0  0  0  0
   -6.0905    0.2871   -0.8153 S   0  0  0  0  0  0  0  0  0  0  0  0
   -5.2280   -1.2797   -0.9114 C   0  0  0  0  0  0  0  0  0  0  0  0
   -6.0202   -2.4390   -0.8201 C   0  0  0  0  0  0  0  0  0  0  0  0
   -5.4631   -3.7013   -1.0273 C   0  0  0  0  0  0  0  0  0  0  0  0
   -4.1163   -3.8134   -1.3628 C   0  0  0  0  0  0  0  0  0  0  0  0
   -3.3174   -2.6668   -1.4605 C   0  0  0  0  0  0  0  0  0  0  0  0
   -3.8500   -1.3901   -1.2048 C   0  0  0  0  0  0  0  0  0  0  0  0
    2.1770    0.7818   -1.0269 C   0  0  0  0  0  0  0  0  0  0  0  0
    3.4813    0.9450   -0.2516 C   0  0  0  0  0  0  0  0  0  0  0  0
    8.1221    1.5057    3.3419 H   0  0  0  0  0  0  0  0  0  0  0  0
    7.5817    0.4874    1.9760 H   0  0  0  0  0  0  0  0  0  0  0  0
    6.6020    0.5923    3.4371 H   0  0  0  0  0  0  0  0  0  0  0  0
    6.1618    3.0414    2.9624 H   0  0  0  0  0  0  0  0  0  0  0  0
    7.1770    2.9232    1.5192 H   0  0  0  0  0  0  0  0  0  0  0  0
    1.2626    1.5929    1.5632 H   0  0  0  0  0  0  0  0  0  0  0  0
    2.0458    0.6220    2.8126 H   0  0  0  0  0  0  0  0  0  0  0  0
    2.2054   -1.3027    1.2564 H   0  0  0  0  0  0  0  0  0  0  0  0
    0.5293   -0.8463    1.5328 H   0  0  0  0  0  0  0  0  0  0  0  0
    1.6323   -1.2952   -0.9123 H   0  0  0  0  0  0  0  0  0  0  0  0
   -0.5582    0.6530   -0.4186 H   0  0  0  0  0  0  0  0  0  0  0  0
   -1.9924    0.9180   -2.6553 H   0  0  0  0  0  0  0  0  0  0  0  0
   -2.3972   -0.7057   -3.2065 H   0  0  0  0  0  0  0  0  0  0  0  0
   -3.8589   -0.4588    1.3033 H   0  0  0  0  0  0  0  0  0  0  0  0
   -3.4717    1.1744    1.7600 H   0  0  0  0  0  0  0  0  0  0  0  0
   -5.3049    2.1255    0.4799 H   0  0  0  0  0  0  0  0  0  0  0  0
   -5.9295    0.8345    1.5094 H   0  0  0  0  0  0  0  0  0  0  0  0
   -7.0843   -2.3645   -0.5983 H   0  0  0  0  0  0  0  0  0  0  0  0
   -6.0819   -4.5946   -0.9392 H   0  0  0  0  0  0  0  0  0  0  0  0
   -3.6816   -4.7977   -1.5343 H   0  0  0  0  0  0  0  0  0  0  0  0
   -2.2637   -2.8005   -1.6928 H   0  0  0  0  0  0  0  0  0  0  0  0
    2.3880    0.5874   -2.0843 H   0  0  0  0  0  0  0  0  0  0  0  0
    1.6277    1.7294   -0.9954 H   0  0  0  0  0  0  0  0  0  0  0  0
    4.0593    1.7775   -0.6627 H   0  0  0  0  0  0  0  0  0  0  0  0
    4.0918    0.0425   -0.3396 H   0  0  0  0  0  0  0  0  0  0  0  0
  1  2  1  0
  2  3  1  0
  3  4  1  0
  4  5  2  0
  4  6  1  0
  6  7  1  0
  7  8  1  0
  8  9  1  0
  9 10  1  0
 10 11  1  0
 11 12  2  0
 11 13  1  0
 13 14  1  0
 14 15  1  0
 15 16  2  0
 15 17  1  0
 17 18  1  0
 18 19  1  0
 19 20  1  0
 20 21  2  0
 21 22  1  0
 22 23  2  0
 23 24  1  0
 24 25  2  0
  9 26  1  0
 26 27  1  0
 27  6  1  0
 25 14  1  0
 25 20  1  0
  1 28  1  0
  1 29  1  0
  1 30  1  0
  2 31  1  0
  2 32  1  0
  7 33  1  0
  7 34  1  0
  8 35  1  0
  8 36  1  0
  9 37  1  0
 10 38  1  0
 13 39  1  0
 13 40  1  0
 17 41  1  0
 17 42  1  0
 18 43  1  0
 18 44  1  0
 21 45  1  0
 22 46  1  0
 23 47  1  0
 24 48  1  0
 26 49  1  0
 26 50  1  0
 27 51  1  0
 27 52  1  0
M  END
$$$$
