
     RDKit          3D

 48 50  0  0  0  0  0  0  0  0999 V2000
   -1.6004    4.7718   -1.6656 C   0  0  0  0  0  0  0  0  0  0  0  0
   -1.8794    3.4991   -2.4432 C   0  0  0  0  0  0  0  0  0  0  0  0
   -1.2262    2.3851   -1.8139 O   0  0  0  0  0  0  0  0  0  0  0  0
   -1.9243    1.7592   -0.8174 C   0  0  0  0  0  0  0  0  0  0  0  0
   -3.0441    2.1046   -0.4590 O   0  0  0  0  0  0  0  0  0  0  0  0
   -1.1908    0.6338   -0.2110 C   0  0  0  0  0  0  0  0  0  0  0  0
    0.1325    0.3015   -0.4935 C   0  0  0  0  0  0  0  0  0  0  0  0
    0.9675    0.9392   -1.4025 N   0  0  0  0  0  0  0  0  0  0  0  0
    2.2764    0.7850   -1.7864 C   0  0  0  0  0  0  0  0  0  0  0  0
    2.7691    1.8733   -2.9639 S   0  0  0  0  0  0  0  0  0  0  0  0
    2.9963   -0.2175   -1.2045 N   0  0  0  0  0  0  0  0  0  0  0  0
    4.3576   -0.5973   -1.2395 C   0  0  0  0  0  0  0  0  0  0  0  0
    4.6682   -1.8399   -0.6638 C   0  0  0  0  0  0  0  0  0  0  0  0
    5.9825   -2.3148   -0.6309 C   0  0  0  0  0  0  0  0  0  0  0  0
    7.0098   -1.5483   -1.1683 C   0  0  0  0  0  0  0  0  0  0  0  0
    6.7204   -0.3068   -1.7261 C   0  0  0  0  0  0  0  0  0  0  0  0
    5.4026    0.1675   -1.7562 C   0  0  0  0  0  0  0  0  0  0  0  0
    0.6693   -1.0186    0.4217 S   0  0  0  0  0  0  0  0  0  0  0  0
   -0.8164   -1.1950    1.2247 C   0  0  0  0  0  0  0  0  0  0  0  0
   -1.7516   -0.2756    0.7839 C   0  0  0  0  0  0  0  0  0  0  0  0
   -3.1633   -0.2122    1.3254 C   0  0  0  0  0  0  0  0  0  0  0  0
   -3.6582   -1.4902    2.0448 C   0  0  0  0  0  0  0  0  0  0  0  0
   -3.9454   -2.6265    1.0488 C   0  0  0  0  0  0  0  0  0  0  0  0
   -4.9578   -1.1667    2.8020 C   0  0  0  0  0  0  0  0  0  0  0  0
   -2.4306   -2.0453    3.3073 S   0  0  0  0  0  0  0  0  0  0  0  0
   -0.9762   -2.2814    2.2423 C   0  0  0  0  0  0  0  0  0  0  0  0
   -2.0343    5.6392   -2.1709 H   0  0  0  0  0  0  0  0  0  0  0  0
   -2.0147    4.7137   -0.6542 H   0  0  0  0  0  0  0  0  0  0  0  0
   -0.5216    4.9280   -1.5583 H   0  0  0  0  0  0  0  0  0  0  0  0
   -1.4596    3.5857   -3.4503 H   0  0  0  0  0  0  0  0  0  0  0  0
   -2.9550    3.3214   -2.5566 H   0  0  0  0  0  0  0  0  0  0  0  0
    0.5258    1.7121   -1.8991 H   0  0  0  0  0  0  0  0  0  0  0  0
    2.4129   -0.8524   -0.6769 H   0  0  0  0  0  0  0  0  0  0  0  0
    3.8870   -2.4643   -0.2371 H   0  0  0  0  0  0  0  0  0  0  0  0
    6.2005   -3.2834   -0.1881 H   0  0  0  0  0  0  0  0  0  0  0  0
    8.0333   -1.9120   -1.1470 H   0  0  0  0  0  0  0  0  0  0  0  0
    7.5206    0.3040   -2.1363 H   0  0  0  0  0  0  0  0  0  0  0  0
    5.2479    1.1559   -2.1694 H   0  0  0  0  0  0  0  0  0  0  0  0
   -3.2127    0.6455    2.0104 H   0  0  0  0  0  0  0  0  0  0  0  0
   -3.8561   -0.0002    0.5019 H   0  0  0  0  0  0  0  0  0  0  0  0
   -3.0719   -2.8975    0.4477 H   0  0  0  0  0  0  0  0  0  0  0  0
   -4.2951   -3.5311    1.5599 H   0  0  0  0  0  0  0  0  0  0  0  0
   -4.7324   -2.3287    0.3452 H   0  0  0  0  0  0  0  0  0  0  0  0
   -4.8096   -0.3799    3.5514 H   0  0  0  0  0  0  0  0  0  0  0  0
   -5.7307   -0.8108    2.1101 H   0  0  0  0  0  0  0  0  0  0  0  0
   -5.3622   -2.0490    3.3130 H   0  0  0  0  0  0  0  0  0  0  0  0
   -0.0994   -2.3263    2.8969 H   0  0  0  0  0  0  0  0  0  0  0  0
   -1.0606   -3.2539    1.7450 H   0  0  0  0  0  0  0  0  0  0  0  0
  1  2  1  0
  2  3  1  0
  3  4  1  0
  4  5  2  0
  4  6  1  0
  6  7  2  0
  7  8  1  0
  8  9  1  0
  9 10  2  0
  9 11  1  0
 11 12  1  0
 12 13  2  0
 13 14  1  0
 14 15  2  0
 15 16  1  0
 16 17  2  0
  7 18  1  0
 18 19  1  0
 19 20  2  0
 20 21  1  0
 21 22  1  0
 22 23  1  0
 22 24  1  0
 22 25  1  0
 25 26  1  0
 20  6  1  0
 17 12  1  0
 26 19  1  0
  1 27  1  0
  1 28  1  0
  1 29  1  0
  2 30  1  0
  2 31  1  0
  8 32  1  0
 11 33  1  0
 13 34  1  0
 14 35  1  0
 15 36  1  0
 16 37  1  0
 17 38  1  0
 21 39  1  0
 21 40  1  0
 23 41  1  0
 23 42  1  0
 23 43  1  0
 24 44  1  0
 24 45  1  0
 24 46  1  0
 26 47  1  0
 26 48  1  0
M  END
$$$$
