
     RDKit          3D

 57 59  0  0  0  0  0  0  0  0999 V2000
   -5.2868   -0.6624    2.6060 C   0  0  0  0  0  0  0  0  0  0  0  0
   -5.2582   -0.9001    1.1035 C   0  0  0  0  0  0  0  0  0  0  0  0
   -4.2419   -0.0762    0.4333 N   0  0  0  0  0  0  0  0  0  0  0  0
   -2.9367   -0.5900    0.4172 C   0  0  0  0  0  0  0  0  0  0  0  0
   -2.6614   -1.6703    0.9466 O   0  0  0  0  0  0  0  0  0  0  0  0
   -1.8484    0.2243   -0.2995 C   0  0  0  0  0  0  0  0  0  0  0  0
   -0.5562   -0.3720   -0.1592 O   0  0  0  0  0  0  0  0  0  0  0  0
    0.0234   -0.1405    1.0451 C   0  0  0  0  0  0  0  0  0  0  0  0
   -0.3699    0.6258    1.9061 O   0  0  0  0  0  0  0  0  0  0  0  0
    1.2402   -0.9706    1.1476 C   0  0  0  0  0  0  0  0  0  0  0  0
    2.1625   -0.9557    0.0906 C   0  0  0  0  0  0  0  0  0  0  0  0
    3.3487   -1.7112    0.1586 C   0  0  0  0  0  0  0  0  0  0  0  0
    4.4071   -1.6441   -1.2679 S   0  0  0  0  0  6  0  0  0  0  0  0
    5.3106   -2.7693   -1.3002 O   0  0  0  0  0  0  0  0  0  0  0  0
    3.5469   -1.3761   -2.4031 O   0  0  0  0  0  0  0  0  0  0  0  0
    5.3268   -0.2327   -0.9907 N   0  0  0  0  0  0  0  0  0  0  0  0
    6.0511    0.2646   -2.2149 C   0  0  0  0  0  0  0  0  0  0  0  0
    7.5565    0.0062   -2.1132 C   0  0  0  0  0  0  0  0  0  0  0  0
    8.1648    0.6844   -1.0046 O   0  0  0  0  0  0  0  0  0  0  0  0
    7.2838    0.8408    0.1154 C   0  0  0  0  0  0  0  0  0  0  0  0
    6.2308   -0.2686    0.2076 C   0  0  0  0  0  0  0  0  0  0  0  0
    3.6059   -2.4899    1.2872 C   0  0  0  0  0  0  0  0  0  0  0  0
    5.0261   -3.4331    1.5375 Cl  0  0  0  0  0  0  0  0  0  0  0  0
    2.6784   -2.4993    2.3407 C   0  0  0  0  0  0  0  0  0  0  0  0
    1.5009   -1.7452    2.2780 C   0  0  0  0  0  0  0  0  0  0  0  0
    0.4176   -1.8556    3.6165 Cl  0  0  0  0  0  0  0  0  0  0  0  0
   -4.6625    1.1371   -0.2906 C   0  0  0  0  0  0  0  0  0  0  0  0
   -5.6629    2.0341    0.4574 C   0  0  0  0  0  0  0  0  0  0  0  0
   -6.0326    3.1416   -0.5220 C   0  0  0  0  0  0  0  0  0  0  0  0
   -6.0783    2.3543   -2.1259 S   0  0  0  0  0  6  0  0  0  0  0  0
   -7.4562    2.0880   -2.4787 O   0  0  0  0  0  0  0  0  0  0  0  0
   -5.1707    3.0592   -3.0065 O   0  0  0  0  0  0  0  0  0  0  0  0
   -5.3085    0.8210   -1.6402 C   0  0  0  0  0  0  0  0  0  0  0  0
   -5.5190    0.3805    2.8406 H   0  0  0  0  0  0  0  0  0  0  0  0
   -4.3206   -0.8975    3.0639 H   0  0  0  0  0  0  0  0  0  0  0  0
   -6.0478   -1.2942    3.0745 H   0  0  0  0  0  0  0  0  0  0  0  0
   -5.0435   -1.9585    0.9140 H   0  0  0  0  0  0  0  0  0  0  0  0
   -6.2418   -0.7067    0.6653 H   0  0  0  0  0  0  0  0  0  0  0  0
   -2.0802    0.2380   -1.3691 H   0  0  0  0  0  0  0  0  0  0  0  0
   -1.8262    1.2559    0.0661 H   0  0  0  0  0  0  0  0  0  0  0  0
    1.9555   -0.3469   -0.7903 H   0  0  0  0  0  0  0  0  0  0  0  0
    5.6604   -0.1935   -3.1283 H   0  0  0  0  0  0  0  0  0  0  0  0
    5.8552    1.3412   -2.2852 H   0  0  0  0  0  0  0  0  0  0  0  0
    8.0607    0.3509   -3.0215 H   0  0  0  0  0  0  0  0  0  0  0  0
    7.7630   -1.0652   -2.0101 H   0  0  0  0  0  0  0  0  0  0  0  0
    6.8052    1.8235    0.0329 H   0  0  0  0  0  0  0  0  0  0  0  0
    7.9016    0.8518    1.0189 H   0  0  0  0  0  0  0  0  0  0  0  0
    5.6292   -0.1198    1.1092 H   0  0  0  0  0  0  0  0  0  0  0  0
    6.7404   -1.2358    0.2650 H   0  0  0  0  0  0  0  0  0  0  0  0
    2.8741   -3.1056    3.2249 H   0  0  0  0  0  0  0  0  0  0  0  0
   -3.7794    1.7528   -0.4852 H   0  0  0  0  0  0  0  0  0  0  0  0
   -5.2359    2.4440    1.3781 H   0  0  0  0  0  0  0  0  0  0  0  0
   -6.5693    1.4828    0.7303 H   0  0  0  0  0  0  0  0  0  0  0  0
   -7.0033    3.5896   -0.3005 H   0  0  0  0  0  0  0  0  0  0  0  0
   -5.2601    3.9155   -0.5501 H   0  0  0  0  0  0  0  0  0  0  0  0
   -4.5788    0.5181   -2.3947 H   0  0  0  0  0  0  0  0  0  0  0  0
   -6.0906    0.0607   -1.5608 H   0  0  0  0  0  0  0  0  0  0  0  0
  1  2  1  0
  2  3  1  0
  3  4  1  0
  4  5  2  0
  4  6  1  0
  6  7  1  0
  7  8  1  0
  8  9  2  0
  8 10  1  0
 10 11  2  0
 11 12  1  0
 12 13  1  0
 13 14  2  0
 13 15  2  0
 13 16  1  0
 16 17  1  0
 17 18  1  0
 18 19  1  0
 19 20  1  0
 20 21  1  0
 12 22  2  0
 22 23  1  0
 22 24  1  0
 24 25  2  0
 25 26  1  0
  3 27  1  0
 27 28  1  0
 28 29  1  0
 29 30  1  0
 30 31  2  0
 30 32  2  0
 30 33  1  0
 25 10  1  0
 33 27  1  0
 21 16  1  0
  1 34  1  0
  1 35  1  0
  1 36  1  0
  2 37  1  0
  2 38  1  0
  6 39  1  0
  6 40  1  0
 11 41  1  0
 17 42  1  0
 17 43  1  0
 18 44  1  0
 18 45  1  0
 20 46  1  0
 20 47  1  0
 21 48  1  0
 21 49  1  0
 24 50  1  0
 27 51  1  0
 28 52  1  0
 28 53  1  0
 29 54  1  0
 29 55  1  0
 33 56  1  0
 33 57  1  0
M  END
$$$$
