
     RDKit          3D

 30 31  0  0  0  0  0  0  0  0999 V2000
    0.2118    1.0441   -2.7592 C   0  0  0  0  0  0  0  0  0  0  0  0
    0.4806    0.5120   -1.4651 O   0  0  0  0  0  0  0  0  0  0  0  0
   -0.5742    0.0353   -0.7266 C   0  0  0  0  0  0  0  0  0  0  0  0
   -1.9038    0.0658   -1.1812 C   0  0  0  0  0  0  0  0  0  0  0  0
   -2.9549   -0.4222   -0.3939 C   0  0  0  0  0  0  0  0  0  0  0  0
   -4.6148   -0.3637   -1.0474 S   0  0  0  0  0  0  0  0  0  0  0  0
   -5.4855    0.4258    0.3341 C   0  0  0  0  0  0  0  0  0  0  0  0
   -2.6728   -0.9716    0.8536 C   0  0  0  0  0  0  0  0  0  0  0  0
   -1.3571   -1.0074    1.3198 C   0  0  0  0  0  0  0  0  0  0  0  0
   -0.2927   -0.5057    0.5464 C   0  0  0  0  0  0  0  0  0  0  0  0
    1.0810   -0.6004    1.1662 C   0  0  0  0  0  0  0  0  0  0  0  0
    1.1680   -1.0573    2.3023 O   0  0  0  0  0  0  0  0  0  0  0  0
    2.1280   -0.1621    0.3946 N   0  0  0  0  0  0  0  0  0  0  0  0
    3.4602   -0.1399    0.7113 C   0  0  0  0  0  0  0  0  0  0  0  0
    4.3490    0.3196   -0.1412 N   0  0  0  0  0  0  0  0  0  0  0  0
    5.6105    0.2323    0.4149 C   0  0  0  0  0  0  0  0  0  0  0  0
    5.6619   -0.2944    1.6866 C   0  0  0  0  0  0  0  0  0  0  0  0
    4.0774   -0.6926    2.2007 S   0  0  0  0  0  0  0  0  0  0  0  0
    1.1655    1.3615   -3.1917 H   0  0  0  0  0  0  0  0  0  0  0  0
   -0.2146    0.2811   -3.4184 H   0  0  0  0  0  0  0  0  0  0  0  0
   -0.4342    1.9257   -2.6959 H   0  0  0  0  0  0  0  0  0  0  0  0
   -2.1532    0.4727   -2.1569 H   0  0  0  0  0  0  0  0  0  0  0  0
   -6.5077    0.6577    0.0232 H   0  0  0  0  0  0  0  0  0  0  0  0
   -5.5343   -0.2416    1.1982 H   0  0  0  0  0  0  0  0  0  0  0  0
   -4.9900    1.3582    0.6186 H   0  0  0  0  0  0  0  0  0  0  0  0
   -3.4602   -1.3909    1.4744 H   0  0  0  0  0  0  0  0  0  0  0  0
   -1.1652   -1.4415    2.3008 H   0  0  0  0  0  0  0  0  0  0  0  0
    1.9320    0.2026   -0.5296 H   0  0  0  0  0  0  0  0  0  0  0  0
    6.4666    0.5700   -0.1560 H   0  0  0  0  0  0  0  0  0  0  0  0
    6.5229   -0.4593    2.3174 H   0  0  0  0  0  0  0  0  0  0  0  0
  1  2  1  0
  2  3  1  0
  3  4  2  0
  4  5  1  0
  5  6  1  0
  6  7  1  0
  5  8  2  0
  8  9  1  0
  9 10  2  0
 10 11  1  0
 11 12  2  0
 11 13  1  0
 13 14  1  0
 14 15  2  0
 15 16  1  0
 16 17  2  0
 17 18  1  0
 10  3  1  0
 18 14  1  0
  1 19  1  0
  1 20  1  0
  1 21  1  0
  4 22  1  0
  7 23  1  0
  7 24  1  0
  7 25  1  0
  8 26  1  0
  9 27  1  0
 13 28  1  0
 16 29  1  0
 17 30  1  0
M  END
$$$$
