
     RDKit          3D

 57 61  0  0  0  0  0  0  0  0999 V2000
    4.7253   -1.0363   -2.7187 C   0  0  0  0  0  0  0  0  0  0  0  0
    3.3919   -0.7178   -2.9651 C   0  0  0  0  0  0  0  0  0  0  0  0
    2.5630   -0.3168   -1.9159 C   0  0  0  0  0  0  0  0  0  0  0  0
    3.0538   -0.2427   -0.6038 C   0  0  0  0  0  0  0  0  0  0  0  0
    2.1829    0.2252    0.5478 C   0  0  0  0  0  0  0  0  0  0  0  0
    0.7932   -0.2669    0.5067 N   0  0  0  0  0  0  0  0  0  0  0  0
    0.7380   -1.7186    0.7598 C   0  0  0  0  0  0  0  0  0  0  0  0
   -0.4279   -2.3795    0.1046 C   0  0  0  0  0  0  0  0  0  0  0  0
   -1.5171   -3.0759    0.5874 C   0  0  0  0  0  0  0  0  0  0  0  0
   -2.2738   -3.4698   -0.5418 C   0  0  0  0  0  0  0  0  0  0  0  0
   -1.5940   -3.0028   -1.6410 C   0  0  0  0  0  0  0  0  0  0  0  0
   -0.4753   -2.3347   -1.2610 O   0  0  0  0  0  0  0  0  0  0  0  0
   -0.1098    0.5706    1.3436 C   0  0  0  0  0  0  0  0  0  0  0  0
    0.2823    0.6735    2.8242 C   0  0  0  0  0  0  0  0  0  0  0  0
    1.0223    1.7782    3.2765 C   0  0  0  0  0  0  0  0  0  0  0  0
    1.3914    1.8463    4.6119 C   0  0  0  0  0  0  0  0  0  0  0  0
    1.0803    0.9048    5.5239 N   0  0  0  0  0  0  0  0  0  0  0  0
    0.3536   -0.1433    5.0852 C   0  0  0  0  0  0  0  0  0  0  0  0
   -0.0572   -0.3025    3.7701 C   0  0  0  0  0  0  0  0  0  0  0  0
   -1.5819    0.3199    1.1145 C   0  0  0  0  0  0  0  0  0  0  0  0
   -2.4846   -0.0947    1.9877 N   0  0  0  0  0  0  0  0  0  0  0  0
   -3.6885   -0.1051    1.3382 N   0  0  0  0  0  0  0  0  0  0  0  0
   -3.5540    0.3009    0.0874 N   0  0  0  0  0  0  0  0  0  0  0  0
   -2.2398    0.5450   -0.0742 N   0  0  0  0  0  0  0  0  0  0  0  0
   -1.7120    1.0206   -1.3374 C   0  0  0  0  0  0  0  0  0  0  0  0
   -2.5187    0.6119   -2.5762 C   0  0  0  0  0  0  0  0  0  0  0  0
   -3.5150    1.7453   -2.8283 C   0  0  0  0  0  0  0  0  0  0  0  0
   -3.0903    2.9073   -1.9344 C   0  0  0  0  0  0  0  0  0  0  0  0
   -1.7002    2.5470   -1.4281 C   0  0  0  0  0  0  0  0  0  0  0  0
    4.4028   -0.5543   -0.3729 C   0  0  0  0  0  0  0  0  0  0  0  0
    5.2315   -0.9528   -1.4237 C   0  0  0  0  0  0  0  0  0  0  0  0
    5.3695   -1.3499   -3.5359 H   0  0  0  0  0  0  0  0  0  0  0  0
    2.9943   -0.7850   -3.9743 H   0  0  0  0  0  0  0  0  0  0  0  0
    1.5237   -0.0791   -2.1273 H   0  0  0  0  0  0  0  0  0  0  0  0
    2.1969    1.3214    0.4871 H   0  0  0  0  0  0  0  0  0  0  0  0
    2.6533   -0.0530    1.4999 H   0  0  0  0  0  0  0  0  0  0  0  0
    0.7707   -1.9566    1.8264 H   0  0  0  0  0  0  0  0  0  0  0  0
    1.6198   -2.2186    0.3380 H   0  0  0  0  0  0  0  0  0  0  0  0
   -1.7485   -3.2589    1.6274 H   0  0  0  0  0  0  0  0  0  0  0  0
   -3.2030   -4.0217   -0.5521 H   0  0  0  0  0  0  0  0  0  0  0  0
   -1.7698   -3.0534   -2.7062 H   0  0  0  0  0  0  0  0  0  0  0  0
    0.0110    1.5936    0.9537 H   0  0  0  0  0  0  0  0  0  0  0  0
    1.3129    2.5811    2.6064 H   0  0  0  0  0  0  0  0  0  0  0  0
    1.9643    2.6870    4.9928 H   0  0  0  0  0  0  0  0  0  0  0  0
    0.0965   -0.8786    5.8425 H   0  0  0  0  0  0  0  0  0  0  0  0
   -0.6516   -1.1712    3.5048 H   0  0  0  0  0  0  0  0  0  0  0  0
   -0.6991    0.6232   -1.4266 H   0  0  0  0  0  0  0  0  0  0  0  0
   -3.0176   -0.3574   -2.4803 H   0  0  0  0  0  0  0  0  0  0  0  0
   -1.8431    0.5420   -3.4383 H   0  0  0  0  0  0  0  0  0  0  0  0
   -3.5022    2.0353   -3.8847 H   0  0  0  0  0  0  0  0  0  0  0  0
   -4.5379    1.4338   -2.5904 H   0  0  0  0  0  0  0  0  0  0  0  0
   -3.7861    3.0024   -1.0926 H   0  0  0  0  0  0  0  0  0  0  0  0
   -3.0949    3.8610   -2.4711 H   0  0  0  0  0  0  0  0  0  0  0  0
   -1.4722    3.0445   -0.4803 H   0  0  0  0  0  0  0  0  0  0  0  0
   -0.9520    2.8657   -2.1645 H   0  0  0  0  0  0  0  0  0  0  0  0
    4.8197   -0.4915    0.6300 H   0  0  0  0  0  0  0  0  0  0  0  0
    6.2728   -1.1983   -1.2315 H   0  0  0  0  0  0  0  0  0  0  0  0
  1  2  2  0
  2  3  1  0
  3  4  2  0
  4  5  1  0
  5  6  1  0
  6  7  1  0
  7  8  1  0
  8  9  2  0
  9 10  1  0
 10 11  2  0
 11 12  1  0
  6 13  1  0
 13 14  1  0
 14 15  2  0
 15 16  1  0
 16 17  2  0
 17 18  1  0
 18 19  2  0
 13 20  1  0
 20 21  2  0
 21 22  1  0
 22 23  2  0
 23 24  1  0
 24 25  1  0
 25 26  1  0
 26 27  1  0
 27 28  1  0
 28 29  1  0
  4 30  1  0
 30 31  2  0
 31  1  1  0
 12  8  1  0
 19 14  1  0
 24 20  1  0
 29 25  1  0
  1 32  1  0
  2 33  1  0
  3 34  1  0
  5 35  1  0
  5 36  1  0
  7 37  1  0
  7 38  1  0
  9 39  1  0
 10 40  1  0
 11 41  1  0
 13 42  1  0
 15 43  1  0
 16 44  1  0
 18 45  1  0
 19 46  1  0
 25 47  1  0
 26 48  1  0
 26 49  1  0
 27 50  1  0
 27 51  1  0
 28 52  1  0
 28 53  1  0
 29 54  1  0
 29 55  1  0
 30 56  1  0
 31 57  1  0
M  END
$$$$
