
     RDKit          3D

 45 47  0  0  0  0  0  0  0  0999 V2000
   -0.2461    1.4643   -1.4476 C   0  0  0  0  0  0  0  0  0  0  0  0
    0.2819    0.6594   -0.3181 C   0  0  0  0  0  0  0  0  0  0  0  0
    1.5580    0.3913   -0.1264 N   0  0  0  0  0  0  0  0  0  0  0  0
    1.5823   -0.2410    1.1007 C   0  0  0  0  0  0  0  0  0  0  0  0
    2.8470   -0.7098    1.7136 C   0  0  0  0  0  0  0  0  0  0  0  0
    2.8941   -1.2884    2.7940 O   0  0  0  0  0  0  0  0  0  0  0  0
    3.9331   -0.4100    0.9079 N   0  0  0  0  0  0  0  0  0  0  0  0
    5.3003   -0.6806    1.1241 C   0  0  0  0  0  0  0  0  0  0  0  0
    5.7797   -1.3331    2.2636 C   0  0  0  0  0  0  0  0  0  0  0  0
    7.1500   -1.5730    2.4212 C   0  0  0  0  0  0  0  0  0  0  0  0
    8.0490   -1.1618    1.4406 C   0  0  0  0  0  0  0  0  0  0  0  0
    9.7306   -1.4608    1.6429 Cl  0  0  0  0  0  0  0  0  0  0  0  0
    7.5953   -0.5110    0.2987 C   0  0  0  0  0  0  0  0  0  0  0  0
    6.2278   -0.2731    0.1443 C   0  0  0  0  0  0  0  0  0  0  0  0
    5.7046    0.5404   -1.2934 Cl  0  0  0  0  0  0  0  0  0  0  0  0
    0.3732   -0.3740    1.6589 N   0  0  0  0  0  0  0  0  0  0  0  0
   -0.4633    0.1650    0.7470 N   0  0  0  0  0  0  0  0  0  0  0  0
   -1.8728    0.0862    0.9122 C   0  0  0  0  0  0  0  0  0  0  0  0
   -2.6778   -0.1281   -0.2209 C   0  0  0  0  0  0  0  0  0  0  0  0
   -4.0661   -0.2490   -0.0957 C   0  0  0  0  0  0  0  0  0  0  0  0
   -4.8277   -0.5108   -1.2038 O   0  0  0  0  0  0  0  0  0  0  0  0
   -4.8686    0.5825   -2.1364 C   0  0  0  0  0  0  0  0  0  0  0  0
   -4.4237    0.0553   -3.4962 C   0  0  0  0  0  0  0  0  0  0  0  0
   -6.3032    1.0952   -2.2038 C   0  0  0  0  0  0  0  0  0  0  0  0
   -4.6600   -0.2099    1.1658 C   0  0  0  0  0  0  0  0  0  0  0  0
   -6.3619   -0.4011    1.3680 Cl  0  0  0  0  0  0  0  0  0  0  0  0
   -3.8723    0.0024    2.2958 C   0  0  0  0  0  0  0  0  0  0  0  0
   -2.4834    0.1563    2.1780 C   0  0  0  0  0  0  0  0  0  0  0  0
   -1.6521    0.5547    3.6431 Cl  0  0  0  0  0  0  0  0  0  0  0  0
    0.5361    2.1300   -1.8279 H   0  0  0  0  0  0  0  0  0  0  0  0
   -1.0870    2.0943   -1.1436 H   0  0  0  0  0  0  0  0  0  0  0  0
   -0.5564    0.8174   -2.2730 H   0  0  0  0  0  0  0  0  0  0  0  0
    3.6972    0.0737    0.0414 H   0  0  0  0  0  0  0  0  0  0  0  0
    5.1155   -1.6708    3.0540 H   0  0  0  0  0  0  0  0  0  0  0  0
    7.5032   -2.0821    3.3152 H   0  0  0  0  0  0  0  0  0  0  0  0
    8.2989   -0.1912   -0.4646 H   0  0  0  0  0  0  0  0  0  0  0  0
   -2.2445   -0.2799   -1.2047 H   0  0  0  0  0  0  0  0  0  0  0  0
   -4.2125    1.4121   -1.8405 H   0  0  0  0  0  0  0  0  0  0  0  0
   -5.0550   -0.7797   -3.8198 H   0  0  0  0  0  0  0  0  0  0  0  0
   -3.3992   -0.3280   -3.4436 H   0  0  0  0  0  0  0  0  0  0  0  0
   -4.4615    0.8398   -4.2581 H   0  0  0  0  0  0  0  0  0  0  0  0
   -6.9985    0.2881   -2.4596 H   0  0  0  0  0  0  0  0  0  0  0  0
   -6.6164    1.4846   -1.2296 H   0  0  0  0  0  0  0  0  0  0  0  0
   -6.4051    1.8954   -2.9432 H   0  0  0  0  0  0  0  0  0  0  0  0
   -4.3430    0.0584    3.2754 H   0  0  0  0  0  0  0  0  0  0  0  0
  1  2  1  0
  2  3  2  0
  3  4  1  0
  4  5  1  0
  5  6  2  0
  5  7  1  0
  7  8  1  0
  8  9  2  0
  9 10  1  0
 10 11  2  0
 11 12  1  0
 11 13  1  0
 13 14  2  0
 14 15  1  0
  4 16  2  0
 16 17  1  0
 17 18  1  0
 18 19  2  0
 19 20  1  0
 20 21  1  0
 21 22  1  0
 22 23  1  0
 22 24  1  0
 20 25  2  0
 25 26  1  0
 25 27  1  0
 27 28  2  0
 28 29  1  0
 17  2  1  0
 28 18  1  0
 14  8  1  0
  1 30  1  0
  1 31  1  0
  1 32  1  0
  7 33  1  0
  9 34  1  0
 10 35  1  0
 13 36  1  0
 19 37  1  0
 22 38  1  0
 23 39  1  0
 23 40  1  0
 23 41  1  0
 24 42  1  0
 24 43  1  0
 24 44  1  0
 27 45  1  0
M  END
$$$$
