
     RDKit          3D

 50 51  0  0  0  0  0  0  0  0999 V2000
    5.3496    2.1255   -1.5301 C   0  0  0  0  0  0  0  0  0  0  0  0
    4.6368    1.1988   -0.5901 C   0  0  0  0  0  0  0  0  0  0  0  0
    3.3658    0.7076   -0.9102 C   0  0  0  0  0  0  0  0  0  0  0  0
    2.7129   -0.1799   -0.0518 C   0  0  0  0  0  0  0  0  0  0  0  0
    3.3248   -0.5912    1.1369 C   0  0  0  0  0  0  0  0  0  0  0  0
    2.6396   -1.5217    2.0328 C   0  0  0  0  0  0  0  0  0  0  0  0
    2.6586   -2.8455    1.8316 C   0  0  0  0  0  0  0  0  0  0  0  0
    1.7428   -3.6931    3.0310 S   0  0  0  0  0  0  0  0  0  0  0  0
    1.2781   -2.1725    3.8205 C   0  0  0  0  0  0  0  0  0  0  0  0
    0.2564   -2.1045    5.1351 S   0  0  0  0  0  0  0  0  0  0  0  0
    1.9038   -1.1206    3.1444 N   0  0  0  0  0  0  0  0  0  0  0  0
    1.7034    0.2945    3.4874 C   0  0  0  0  0  0  0  0  0  0  0  0
    0.5138    0.9660    2.8071 C   0  0  0  0  0  0  0  0  0  0  0  0
    0.1856    2.1278    3.0277 O   0  0  0  0  0  0  0  0  0  0  0  0
   -0.1299    0.1436    1.9405 O   0  0  0  0  0  0  0  0  0  0  0  0
   -1.2382    0.7365    1.2677 C   0  0  0  0  0  0  0  0  0  0  0  0
   -1.6374   -0.1022    0.0548 C   0  0  0  0  0  0  0  0  0  0  0  0
   -0.9097   -0.9550   -0.4461 O   0  0  0  0  0  0  0  0  0  0  0  0
   -2.8884    0.2136   -0.4459 N   0  0  0  0  0  0  0  0  0  0  0  0
   -3.4903   -0.5387   -1.5465 C   0  0  0  0  0  0  0  0  0  0  0  0
   -4.1735   -1.7865   -0.9796 C   0  0  0  0  0  0  0  0  0  0  0  0
   -4.4583    0.3705   -2.3477 C   0  0  0  0  0  0  0  0  0  0  0  0
   -3.7100    1.5655   -2.9558 C   0  0  0  0  0  0  0  0  0  0  0  0
   -5.1814   -0.3840   -3.4678 C   0  0  0  0  0  0  0  0  0  0  0  0
    4.6065   -0.1227    1.4461 C   0  0  0  0  0  0  0  0  0  0  0  0
    5.2584    0.7654    0.5868 C   0  0  0  0  0  0  0  0  0  0  0  0
    6.0467    2.7729   -0.9879 H   0  0  0  0  0  0  0  0  0  0  0  0
    4.6382    2.7769   -2.0484 H   0  0  0  0  0  0  0  0  0  0  0  0
    5.9085    1.5483   -2.2732 H   0  0  0  0  0  0  0  0  0  0  0  0
    2.8747    1.0085   -1.8327 H   0  0  0  0  0  0  0  0  0  0  0  0
    1.7247   -0.5511   -0.3205 H   0  0  0  0  0  0  0  0  0  0  0  0
    3.1637   -3.3527    1.0204 H   0  0  0  0  0  0  0  0  0  0  0  0
    2.6052    0.8634    3.2427 H   0  0  0  0  0  0  0  0  0  0  0  0
    1.5493    0.3803    4.5675 H   0  0  0  0  0  0  0  0  0  0  0  0
   -2.0841    0.7890    1.9619 H   0  0  0  0  0  0  0  0  0  0  0  0
   -0.9861    1.7375    0.8976 H   0  0  0  0  0  0  0  0  0  0  0  0
   -3.5020    0.7878    0.1188 H   0  0  0  0  0  0  0  0  0  0  0  0
   -2.6814   -0.8704   -2.2100 H   0  0  0  0  0  0  0  0  0  0  0  0
   -5.0304   -1.5159   -0.3527 H   0  0  0  0  0  0  0  0  0  0  0  0
   -4.5225   -2.4507   -1.7756 H   0  0  0  0  0  0  0  0  0  0  0  0
   -3.4819   -2.3648   -0.3571 H   0  0  0  0  0  0  0  0  0  0  0  0
   -5.2199    0.7702   -1.6648 H   0  0  0  0  0  0  0  0  0  0  0  0
   -2.9158    1.2317   -3.6321 H   0  0  0  0  0  0  0  0  0  0  0  0
   -4.3943    2.2032   -3.5264 H   0  0  0  0  0  0  0  0  0  0  0  0
   -3.2561    2.1903   -2.1800 H   0  0  0  0  0  0  0  0  0  0  0  0
   -5.7810    0.3021   -4.0769 H   0  0  0  0  0  0  0  0  0  0  0  0
   -4.4695   -0.8888   -4.1296 H   0  0  0  0  0  0  0  0  0  0  0  0
   -5.8682   -1.1340   -3.0641 H   0  0  0  0  0  0  0  0  0  0  0  0
    5.1063   -0.4469    2.3563 H   0  0  0  0  0  0  0  0  0  0  0  0
    6.2563    1.1160    0.8415 H   0  0  0  0  0  0  0  0  0  0  0  0
  1  2  1  0
  2  3  2  0
  3  4  1  0
  4  5  2  0
  5  6  1  0
  6  7  2  0
  7  8  1  0
  8  9  1  0
  9 10  2  0
  9 11  1  0
 11 12  1  0
 12 13  1  0
 13 14  2  0
 13 15  1  0
 15 16  1  0
 16 17  1  0
 17 18  2  0
 17 19  1  0
 19 20  1  0
 20 21  1  0
 20 22  1  0
 22 23  1  0
 22 24  1  0
  5 25  1  0
 25 26  2  0
 26  2  1  0
 11  6  1  0
  1 27  1  0
  1 28  1  0
  1 29  1  0
  3 30  1  0
  4 31  1  0
  7 32  1  0
 12 33  1  0
 12 34  1  0
 16 35  1  0
 16 36  1  0
 19 37  1  0
 20 38  1  0
 21 39  1  0
 21 40  1  0
 21 41  1  0
 22 42  1  0
 23 43  1  0
 23 44  1  0
 23 45  1  0
 24 46  1  0
 24 47  1  0
 24 48  1  0
 25 49  1  0
 26 50  1  0
M  END
$$$$
