
     RDKit          3D

 49 52  0  0  0  0  0  0  0  0999 V2000
   -4.5415    3.9618   -0.1905 C   0  0  0  0  0  0  0  0  0  0  0  0
   -4.8355    2.4750   -0.2563 C   0  0  0  0  0  0  0  0  0  0  0  0
   -3.9585    1.7572    0.6252 O   0  0  0  0  0  0  0  0  0  0  0  0
   -2.7508    1.3983    0.0967 C   0  0  0  0  0  0  0  0  0  0  0  0
   -2.3750    1.6670   -1.0349 O   0  0  0  0  0  0  0  0  0  0  0  0
   -1.9466    0.6639    1.1490 C   0  0  0  0  0  0  0  0  0  0  0  0
   -0.7841   -0.1329    0.5911 C   0  0  0  0  0  0  0  0  0  0  0  0
    0.4660    0.5192    0.6765 C   0  0  0  0  0  0  0  0  0  0  0  0
    1.6135   -0.1082    0.2330 C   0  0  0  0  0  0  0  0  0  0  0  0
    2.9556    0.5059    0.2924 C   0  0  0  0  0  0  0  0  0  0  0  0
    3.3309    1.3957    1.3128 C   0  0  0  0  0  0  0  0  0  0  0  0
    4.6089    1.9675    1.3435 C   0  0  0  0  0  0  0  0  0  0  0  0
    5.5507    1.6652    0.3605 C   0  0  0  0  0  0  0  0  0  0  0  0
    6.7566    2.2919    0.5089 O   0  0  0  0  0  0  0  0  0  0  0  0
    7.7505    2.0075   -0.4676 C   0  0  0  0  0  0  0  0  0  0  0  0
    5.2041    0.7792   -0.6553 C   0  0  0  0  0  0  0  0  0  0  0  0
    3.9243    0.2077   -0.6836 C   0  0  0  0  0  0  0  0  0  0  0  0
    1.5538   -1.3446   -0.2921 N   0  0  0  0  0  0  0  0  0  0  0  0
    0.3753   -1.9732   -0.3971 C   0  0  0  0  0  0  0  0  0  0  0  0
    0.4710   -3.2325   -0.9455 C   0  0  0  0  0  0  0  0  0  0  0  0
   -0.6379   -4.0419   -1.1364 C   0  0  0  0  0  0  0  0  0  0  0  0
   -1.9036   -3.5923   -0.7881 C   0  0  0  0  0  0  0  0  0  0  0  0
   -2.9889   -4.4560   -1.0197 C   0  0  0  0  0  0  0  0  0  0  0  0
   -4.2880   -4.0767   -0.7152 C   0  0  0  0  0  0  0  0  0  0  0  0
   -4.5086   -2.8229   -0.1806 C   0  0  0  0  0  0  0  0  0  0  0  0
   -3.4282   -1.9604    0.0539 C   0  0  0  0  0  0  0  0  0  0  0  0
   -2.0738   -2.2967   -0.2236 C   0  0  0  0  0  0  0  0  0  0  0  0
   -0.8831   -1.4483    0.0049 C   0  0  0  0  0  0  0  0  0  0  0  0
   -3.5232    4.1767   -0.5295 H   0  0  0  0  0  0  0  0  0  0  0  0
   -4.6168    4.3232    0.8403 H   0  0  0  0  0  0  0  0  0  0  0  0
   -5.2429    4.5237   -0.8138 H   0  0  0  0  0  0  0  0  0  0  0  0
   -4.7670    2.0960   -1.2825 H   0  0  0  0  0  0  0  0  0  0  0  0
   -5.8578    2.2864    0.0877 H   0  0  0  0  0  0  0  0  0  0  0  0
   -2.5752    0.0185    1.7679 H   0  0  0  0  0  0  0  0  0  0  0  0
   -1.5750    1.4310    1.8422 H   0  0  0  0  0  0  0  0  0  0  0  0
    0.5274    1.5279    1.0753 H   0  0  0  0  0  0  0  0  0  0  0  0
    2.6407    1.6456    2.1146 H   0  0  0  0  0  0  0  0  0  0  0  0
    4.8725    2.6510    2.1471 H   0  0  0  0  0  0  0  0  0  0  0  0
    8.6465    2.5799   -0.2089 H   0  0  0  0  0  0  0  0  0  0  0  0
    8.0199    0.9461   -0.4594 H   0  0  0  0  0  0  0  0  0  0  0  0
    7.4279    2.3267   -1.4641 H   0  0  0  0  0  0  0  0  0  0  0  0
    5.8985    0.5055   -1.4422 H   0  0  0  0  0  0  0  0  0  0  0  0
    3.6786   -0.4836   -1.4893 H   0  0  0  0  0  0  0  0  0  0  0  0
    1.4506   -3.6076   -1.2370 H   0  0  0  0  0  0  0  0  0  0  0  0
   -0.4901   -5.0279   -1.5719 H   0  0  0  0  0  0  0  0  0  0  0  0
   -2.8276   -5.4433   -1.4497 H   0  0  0  0  0  0  0  0  0  0  0  0
   -5.1173   -4.7525   -0.9021 H   0  0  0  0  0  0  0  0  0  0  0  0
   -5.5200   -2.5008    0.0549 H   0  0  0  0  0  0  0  0  0  0  0  0
   -3.7062   -0.9989    0.4551 H   0  0  0  0  0  0  0  0  0  0  0  0
  1  2  1  0
  2  3  1  0
  3  4  1  0
  4  5  2  0
  4  6  1  0
  6  7  1  0
  7  8  2  0
  8  9  1  0
  9 10  1  0
 10 11  2  0
 11 12  1  0
 12 13  2  0
 13 14  1  0
 14 15  1  0
 13 16  1  0
 16 17  2  0
  9 18  2  0
 18 19  1  0
 19 20  2  0
 20 21  1  0
 21 22  2  0
 22 23  1  0
 23 24  2  0
 24 25  1  0
 25 26  2  0
 26 27  1  0
 27 28  2  0
 28  7  1  0
 17 10  1  0
 28 19  1  0
 27 22  1  0
  1 29  1  0
  1 30  1  0
  1 31  1  0
  2 32  1  0
  2 33  1  0
  6 34  1  0
  6 35  1  0
  8 36  1  0
 11 37  1  0
 12 38  1  0
 15 39  1  0
 15 40  1  0
 15 41  1  0
 16 42  1  0
 17 43  1  0
 20 44  1  0
 21 45  1  0
 23 46  1  0
 24 47  1  0
 25 48  1  0
 26 49  1  0
M  END
$$$$
