
     RDKit          3D

 48 50  0  0  0  0  0  0  0  0999 V2000
    2.1071   -2.2137   -3.0432 C   0  0  0  0  0  0  0  0  0  0  0  0
    1.8330   -0.7334   -2.8244 C   0  0  0  0  0  0  0  0  0  0  0  0
    2.1972   -0.3025   -1.4369 C   0  0  0  0  0  0  0  0  0  0  0  0
    1.4015    0.0214   -0.4198 C   0  0  0  0  0  0  0  0  0  0  0  0
   -0.0591    0.0007   -0.4362 C   0  0  0  0  0  0  0  0  0  0  0  0
   -0.7746    1.1584   -0.7718 C   0  0  0  0  0  0  0  0  0  0  0  0
   -2.1702    1.1420   -0.8122 C   0  0  0  0  0  0  0  0  0  0  0  0
   -2.9580    2.2208   -1.1197 O   0  0  0  0  0  0  0  0  0  0  0  0
   -2.3083    3.4002   -1.5730 C   0  0  0  0  0  0  0  0  0  0  0  0
   -2.8426   -0.0539   -0.5073 C   0  0  0  0  0  0  0  0  0  0  0  0
   -4.2180   -0.0920   -0.5867 O   0  0  0  0  0  0  0  0  0  0  0  0
   -4.7836    0.2233    0.6842 C   0  0  0  0  0  0  0  0  0  0  0  0
   -2.1393   -1.2332   -0.2084 C   0  0  0  0  0  0  0  0  0  0  0  0
   -2.8979   -2.3473    0.0414 O   0  0  0  0  0  0  0  0  0  0  0  0
   -2.2167   -3.5863    0.1818 C   0  0  0  0  0  0  0  0  0  0  0  0
   -0.7443   -1.1935   -0.1721 C   0  0  0  0  0  0  0  0  0  0  0  0
    2.2249    0.3976    0.7650 C   0  0  0  0  0  0  0  0  0  0  0  0
    2.0578    1.8408    1.2658 C   0  0  0  0  0  0  0  0  0  0  0  0
    2.3979    1.7596    2.7489 C   0  0  0  0  0  0  0  0  0  0  0  0
    1.7910    0.4323    3.1685 C   0  0  0  0  0  0  0  0  0  0  0  0
    2.0804   -0.5106    2.0016 C   0  0  0  0  0  0  0  0  0  0  0  0
    3.6142    0.2228    0.1421 C   0  0  0  0  0  0  0  0  0  0  0  0
    4.6729    0.4303    0.7240 O   0  0  0  0  0  0  0  0  0  0  0  0
    3.5589   -0.1983   -1.1648 O   0  0  0  0  0  0  0  0  0  0  0  0
    1.8346   -2.5009   -4.0638 H   0  0  0  0  0  0  0  0  0  0  0  0
    3.1670   -2.4486   -2.8990 H   0  0  0  0  0  0  0  0  0  0  0  0
    1.5235   -2.8305   -2.3513 H   0  0  0  0  0  0  0  0  0  0  0  0
    2.4098   -0.1434   -3.5464 H   0  0  0  0  0  0  0  0  0  0  0  0
    0.7773   -0.5314   -3.0366 H   0  0  0  0  0  0  0  0  0  0  0  0
   -0.2198    2.0624   -1.0013 H   0  0  0  0  0  0  0  0  0  0  0  0
   -1.6960    3.8405   -0.7793 H   0  0  0  0  0  0  0  0  0  0  0  0
   -1.7127    3.2057   -2.4712 H   0  0  0  0  0  0  0  0  0  0  0  0
   -3.0818    4.1275   -1.8378 H   0  0  0  0  0  0  0  0  0  0  0  0
   -5.8725    0.1832    0.5848 H   0  0  0  0  0  0  0  0  0  0  0  0
   -4.4875   -0.5061    1.4460 H   0  0  0  0  0  0  0  0  0  0  0  0
   -4.5112    1.2353    1.0032 H   0  0  0  0  0  0  0  0  0  0  0  0
   -1.5957   -3.5921    1.0834 H   0  0  0  0  0  0  0  0  0  0  0  0
   -1.6235   -3.8175   -0.7093 H   0  0  0  0  0  0  0  0  0  0  0  0
   -2.9704   -4.3717    0.2926 H   0  0  0  0  0  0  0  0  0  0  0  0
   -0.1661   -2.0826    0.0587 H   0  0  0  0  0  0  0  0  0  0  0  0
    2.7058    2.5595    0.7525 H   0  0  0  0  0  0  0  0  0  0  0  0
    1.0250    2.1905    1.1628 H   0  0  0  0  0  0  0  0  0  0  0  0
    1.9865    2.6009    3.3141 H   0  0  0  0  0  0  0  0  0  0  0  0
    3.4840    1.7472    2.8957 H   0  0  0  0  0  0  0  0  0  0  0  0
    2.2063    0.0636    4.1109 H   0  0  0  0  0  0  0  0  0  0  0  0
    0.7071    0.5408    3.2965 H   0  0  0  0  0  0  0  0  0  0  0  0
    1.2810   -1.2526    1.9151 H   0  0  0  0  0  0  0  0  0  0  0  0
    3.0048   -1.0655    2.2039 H   0  0  0  0  0  0  0  0  0  0  0  0
  1  2  1  0
  2  3  1  0
  3  4  2  0
  4  5  1  0
  5  6  2  0
  6  7  1  0
  7  8  1  0
  8  9  1  0
  7 10  2  0
 10 11  1  0
 11 12  1  0
 10 13  1  0
 13 14  1  0
 14 15  1  0
 13 16  2  0
  4 17  1  0
 17 18  1  0
 18 19  1  0
 19 20  1  0
 20 21  1  0
 17 22  1  0
 22 23  2  0
 22 24  1  0
 24  3  1  0
 16  5  1  0
 21 17  1  0
  1 25  1  0
  1 26  1  0
  1 27  1  0
  2 28  1  0
  2 29  1  0
  6 30  1  0
  9 31  1  0
  9 32  1  0
  9 33  1  0
 12 34  1  0
 12 35  1  0
 12 36  1  0
 15 37  1  0
 15 38  1  0
 15 39  1  0
 16 40  1  0
 18 41  1  0
 18 42  1  0
 19 43  1  0
 19 44  1  0
 20 45  1  0
 20 46  1  0
 21 47  1  0
 21 48  1  0
M  END
$$$$
