
     RDKit          3D

 37 38  0  0  0  0  0  0  0  0999 V2000
    5.3674    0.4108   -1.7005 C   0  0  0  0  0  0  0  0  0  0  0  0
    4.0219    0.6123   -1.2889 O   0  0  0  0  0  0  0  0  0  0  0  0
    3.6004   -0.0451   -0.1615 C   0  0  0  0  0  0  0  0  0  0  0  0
    4.4273   -0.8027    0.6746 C   0  0  0  0  0  0  0  0  0  0  0  0
    3.9039   -1.4362    1.8051 C   0  0  0  0  0  0  0  0  0  0  0  0
    2.5463   -1.3312    2.1020 C   0  0  0  0  0  0  0  0  0  0  0  0
    1.7000   -0.5898    1.2677 C   0  0  0  0  0  0  0  0  0  0  0  0
    0.2677   -0.5313    1.6371 C   0  0  0  0  0  0  0  0  0  0  0  0
   -0.1104   -0.5067    2.7997 O   0  0  0  0  0  0  0  0  0  0  0  0
   -0.4792   -0.5655    0.4997 O   0  0  0  0  0  0  0  0  0  0  0  0
   -1.8514   -0.5074    0.8031 N   0  0  0  0  0  0  0  0  0  0  0  0
   -2.5519   -0.3390   -0.2799 C   0  0  0  0  0  0  0  0  0  0  0  0
   -1.9835   -0.2204   -1.5302 N   0  0  0  0  0  0  0  0  0  0  0  0
   -4.0396   -0.2535   -0.1459 C   0  0  0  0  0  0  0  0  0  0  0  0
   -4.6092    0.0050    1.1011 C   0  0  0  0  0  0  0  0  0  0  0  0
   -5.9871    0.0835    1.1829 C   0  0  0  0  0  0  0  0  0  0  0  0
   -6.8117   -0.0781    0.1252 N   0  0  0  0  0  0  0  0  0  0  0  0
   -6.2336   -0.3437   -1.0655 C   0  0  0  0  0  0  0  0  0  0  0  0
   -4.8661   -0.4400   -1.2538 C   0  0  0  0  0  0  0  0  0  0  0  0
    2.2347    0.0817    0.1564 C   0  0  0  0  0  0  0  0  0  0  0  0
    1.4194    0.8341   -0.6595 O   0  0  0  0  0  0  0  0  0  0  0  0
    1.4871    2.2119   -0.2843 C   0  0  0  0  0  0  0  0  0  0  0  0
    6.0687    0.8174   -0.9645 H   0  0  0  0  0  0  0  0  0  0  0  0
    5.5154    0.9575   -2.6367 H   0  0  0  0  0  0  0  0  0  0  0  0
    5.5682   -0.6476   -1.8984 H   0  0  0  0  0  0  0  0  0  0  0  0
    5.4888   -0.9163    0.4786 H   0  0  0  0  0  0  0  0  0  0  0  0
    4.5561   -2.0177    2.4533 H   0  0  0  0  0  0  0  0  0  0  0  0
    2.1453   -1.8340    2.9810 H   0  0  0  0  0  0  0  0  0  0  0  0
   -2.4040    0.4778   -2.1325 H   0  0  0  0  0  0  0  0  0  0  0  0
   -0.9746   -0.0922   -1.4680 H   0  0  0  0  0  0  0  0  0  0  0  0
   -3.9989    0.1432    1.9878 H   0  0  0  0  0  0  0  0  0  0  0  0
   -6.4800    0.2843    2.1300 H   0  0  0  0  0  0  0  0  0  0  0  0
   -6.9243   -0.4862   -1.8919 H   0  0  0  0  0  0  0  0  0  0  0  0
   -4.4703   -0.6779   -2.2335 H   0  0  0  0  0  0  0  0  0  0  0  0
    1.1956    2.3536    0.7622 H   0  0  0  0  0  0  0  0  0  0  0  0
    0.7770    2.7615   -0.9094 H   0  0  0  0  0  0  0  0  0  0  0  0
    2.4846    2.6277   -0.4604 H   0  0  0  0  0  0  0  0  0  0  0  0
  1  2  1  0
  2  3  1  0
  3  4  2  0
  4  5  1  0
  5  6  2  0
  6  7  1  0
  7  8  1  0
  8  9  2  0
  8 10  1  0
 10 11  1  0
 11 12  2  3
 12 13  1  0
 12 14  1  0
 14 15  2  0
 15 16  1  0
 16 17  2  0
 17 18  1  0
 18 19  2  0
  7 20  2  0
 20 21  1  0
 21 22  1  0
 20  3  1  0
 19 14  1  0
  1 23  1  0
  1 24  1  0
  1 25  1  0
  4 26  1  0
  5 27  1  0
  6 28  1  0
 13 29  1  0
 13 30  1  0
 15 31  1  0
 16 32  1  0
 18 33  1  0
 19 34  1  0
 22 35  1  0
 22 36  1  0
 22 37  1  0
M  END
$$$$
