
     RDKit          3D

 48 51  0  0  0  0  0  0  0  0999 V2000
   -0.8450   -0.4401    2.1731 O   0  0  0  0  0  0  0  0  0  0  0  0
    0.2344   -0.1798    1.6406 C   0  0  0  0  0  0  0  0  0  0  0  0
    1.5500   -0.3051    2.4234 C   0  0  0  0  0  0  0  0  0  0  0  0
    2.7654   -0.1181    1.6015 N   0  0  0  0  0  0  0  0  0  0  0  0
    3.3654    1.2198    1.5775 C   0  0  0  0  0  0  0  0  0  0  0  0
    4.8806    1.1335    1.5193 C   0  0  0  0  0  0  0  0  0  0  0  0
    5.2901    0.3738    0.2687 C   0  0  0  0  0  0  0  0  0  0  0  0
    4.5533   -0.9382    0.1639 C   0  0  0  0  0  0  0  0  0  0  0  0
    5.1052   -1.9470   -0.6462 C   0  0  0  0  0  0  0  0  0  0  0  0
    4.4664   -3.1737   -0.7813 C   0  0  0  0  0  0  0  0  0  0  0  0
    3.2714   -3.3969   -0.1123 C   0  0  0  0  0  0  0  0  0  0  0  0
    2.7129   -2.3910    0.6845 C   0  0  0  0  0  0  0  0  0  0  0  0
    3.3271   -1.1364    0.8370 C   0  0  0  0  0  0  0  0  0  0  0  0
    0.4035    0.2693    0.3333 N   0  0  0  0  0  0  0  0  0  0  0  0
   -0.5745    0.2954   -0.6281 N   0  0  0  0  0  0  0  0  0  0  0  0
   -1.7690    0.6578   -0.2644 C   0  0  0  0  0  0  0  0  0  0  0  0
   -2.9005    0.6768   -1.2280 C   0  0  0  0  0  0  0  0  0  0  0  0
   -2.6327    0.5782   -2.6051 C   0  0  0  0  0  0  0  0  0  0  0  0
   -1.3750    0.4168   -3.1247 O   0  0  0  0  0  0  0  0  0  0  0  0
   -3.6594    0.6525   -3.5352 C   0  0  0  0  0  0  0  0  0  0  0  0
   -4.9710    0.8209   -3.1025 C   0  0  0  0  0  0  0  0  0  0  0  0
   -5.2764    0.9037   -1.7359 C   0  0  0  0  0  0  0  0  0  0  0  0
   -6.6143    1.0602   -1.3376 C   0  0  0  0  0  0  0  0  0  0  0  0
   -6.9618    1.1287    0.0092 C   0  0  0  0  0  0  0  0  0  0  0  0
   -5.9739    1.0343    0.9775 C   0  0  0  0  0  0  0  0  0  0  0  0
   -4.6372    0.8815    0.5987 C   0  0  0  0  0  0  0  0  0  0  0  0
   -4.2426    0.8240   -0.7644 C   0  0  0  0  0  0  0  0  0  0  0  0
    1.5156    0.4520    3.2160 H   0  0  0  0  0  0  0  0  0  0  0  0
    1.5690   -1.2773    2.9286 H   0  0  0  0  0  0  0  0  0  0  0  0
    3.0831    1.7868    2.4720 H   0  0  0  0  0  0  0  0  0  0  0  0
    2.9807    1.7763    0.7139 H   0  0  0  0  0  0  0  0  0  0  0  0
    5.2588    0.6195    2.4125 H   0  0  0  0  0  0  0  0  0  0  0  0
    5.3200    2.1370    1.5093 H   0  0  0  0  0  0  0  0  0  0  0  0
    6.3723    0.2003    0.2977 H   0  0  0  0  0  0  0  0  0  0  0  0
    5.0694    0.9705   -0.6248 H   0  0  0  0  0  0  0  0  0  0  0  0
    6.0422   -1.7757   -1.1714 H   0  0  0  0  0  0  0  0  0  0  0  0
    4.8989   -3.9512   -1.4048 H   0  0  0  0  0  0  0  0  0  0  0  0
    2.7627   -4.3525   -0.2110 H   0  0  0  0  0  0  0  0  0  0  0  0
    1.7695   -2.6222    1.1704 H   0  0  0  0  0  0  0  0  0  0  0  0
    1.3514    0.1433   -0.0251 H   0  0  0  0  0  0  0  0  0  0  0  0
   -1.9713    1.0076    0.7577 H   0  0  0  0  0  0  0  0  0  0  0  0
   -0.7599    0.2921   -2.3685 H   0  0  0  0  0  0  0  0  0  0  0  0
   -3.4375    0.5814   -4.5966 H   0  0  0  0  0  0  0  0  0  0  0  0
   -5.7601    0.8788   -3.8499 H   0  0  0  0  0  0  0  0  0  0  0  0
   -7.4061    1.1256   -2.0817 H   0  0  0  0  0  0  0  0  0  0  0  0
   -8.0026    1.2461    0.2988 H   0  0  0  0  0  0  0  0  0  0  0  0
   -6.2376    1.0723    2.0316 H   0  0  0  0  0  0  0  0  0  0  0  0
   -3.9107    0.7886    1.4025 H   0  0  0  0  0  0  0  0  0  0  0  0
  1  2  2  0
  2  3  1  0
  3  4  1  0
  4  5  1  0
  5  6  1  0
  6  7  1  0
  7  8  1  0
  8  9  2  0
  9 10  1  0
 10 11  2  0
 11 12  1  0
 12 13  2  0
  2 14  1  0
 14 15  1  0
 15 16  2  3
 16 17  1  0
 17 18  2  0
 18 19  1  0
 18 20  1  0
 20 21  2  0
 21 22  1  0
 22 23  2  0
 23 24  1  0
 24 25  2  0
 25 26  1  0
 26 27  2  0
 13  4  1  0
 27 17  1  0
 13  8  1  0
 27 22  1  0
  3 28  1  0
  3 29  1  0
  5 30  1  0
  5 31  1  0
  6 32  1  0
  6 33  1  0
  7 34  1  0
  7 35  1  0
  9 36  1  0
 10 37  1  0
 11 38  1  0
 12 39  1  0
 14 40  1  0
 16 41  1  0
 19 42  1  0
 20 43  1  0
 21 44  1  0
 23 45  1  0
 24 46  1  0
 25 47  1  0
 26 48  1  0
M  END
$$$$
