
     RDKit          3D

 22 22  0  0  0  0  0  0  0  0999 V2000
    2.9744    1.1428   -0.0278 C   0  0  0  0  0  0  0  0  0  0  0  0
    1.4895    0.9092   -0.0195 C   0  0  0  0  0  0  0  0  0  0  0  0
    0.7266    2.0237   -0.1723 N   0  0  0  0  0  0  0  0  0  0  0  0
   -0.6147    1.8681   -0.2159 C   0  0  0  0  0  0  0  0  0  0  0  0
   -1.2434    0.6409   -0.1310 C   0  0  0  0  0  0  0  0  0  0  0  0
   -2.7087    0.5866   -0.0950 C   0  0  0  0  0  0  0  0  0  0  0  0
   -3.3798   -0.0821    0.6659 O   0  0  0  0  0  0  0  0  0  0  0  0
   -3.2560    1.4025   -1.0112 O   0  0  0  0  0  0  0  0  0  0  0  0
   -0.4484   -0.4971    0.0143 C   0  0  0  0  0  0  0  0  0  0  0  0
   -1.1021   -1.8175   -0.0459 C   0  0  0  0  0  0  0  0  0  0  0  0
   -1.9479   -2.1593   -0.8500 O   0  0  0  0  0  0  0  0  0  0  0  0
   -0.6667   -2.6459    0.9235 O   0  0  0  0  0  0  0  0  0  0  0  0
    0.9529   -0.3825    0.1357 C   0  0  0  0  0  0  0  0  0  0  0  0
    1.7883   -1.5217    0.1691 N   0  0  0  0  0  0  0  0  0  0  0  0
    3.4121    0.8422    0.9291 H   0  0  0  0  0  0  0  0  0  0  0  0
    3.2006    2.2033   -0.1811 H   0  0  0  0  0  0  0  0  0  0  0  0
    3.4458    0.5800   -0.8394 H   0  0  0  0  0  0  0  0  0  0  0  0
   -1.1781    2.7923   -0.3173 H   0  0  0  0  0  0  0  0  0  0  0  0
   -4.2210    1.2408   -0.9333 H   0  0  0  0  0  0  0  0  0  0  0  0
   -1.2380   -3.4372    0.8116 H   0  0  0  0  0  0  0  0  0  0  0  0
    1.3173   -2.3239    0.5970 H   0  0  0  0  0  0  0  0  0  0  0  0
    2.6973   -1.3650    0.5937 H   0  0  0  0  0  0  0  0  0  0  0  0
  1  2  1  0
  2  3  2  0
  3  4  1  0
  4  5  2  0
  5  6  1  0
  6  7  2  0
  6  8  1  0
  5  9  1  0
  9 10  1  0
 10 11  2  0
 10 12  1  0
  9 13  2  0
 13 14  1  0
 13  2  1  0
  1 15  1  0
  1 16  1  0
  1 17  1  0
  4 18  1  0
  8 19  1  0
 12 20  1  0
 14 21  1  0
 14 22  1  0
M  END
$$$$
