
     RDKit          3D

 68 73  0  0  0  0  0  0  0  0999 V2000
   -3.7916    5.0479   -2.0854 C   0  0  0  0  0  0  0  0  0  0  0  0
   -2.9836    3.9362   -1.7180 O   0  0  0  0  0  0  0  0  0  0  0  0
   -3.0603    3.5140   -0.4180 C   0  0  0  0  0  0  0  0  0  0  0  0
   -3.8972    4.0584    0.5737 C   0  0  0  0  0  0  0  0  0  0  0  0
   -3.9082    3.5335    1.8712 C   0  0  0  0  0  0  0  0  0  0  0  0
   -3.0657    2.4762    2.1408 C   0  0  0  0  0  0  0  0  0  0  0  0
   -2.2082    1.9316    1.1818 C   0  0  0  0  0  0  0  0  0  0  0  0
   -2.2147    2.4400   -0.1108 C   0  0  0  0  0  0  0  0  0  0  0  0
   -1.4312    0.8003    1.8050 C   0  0  1  0  0  0  0  0  0  0  0  0
   -2.0413    0.7394    3.2458 C   0  0  0  0  0  0  0  0  0  0  0  0
   -1.8009   -0.0439    4.1527 O   0  0  0  0  0  0  0  0  0  0  0  0
   -2.9632    1.7852    3.3376 N   0  0  0  0  0  0  0  0  0  0  0  0
   -1.6772   -0.4288    1.0207 C   0  0  0  0  0  0  0  0  0  0  0  0
   -0.4805   -1.1071    0.7991 C   0  0  0  0  0  0  0  0  0  0  0  0
   -0.7268   -2.2115    0.0329 C   0  0  0  0  0  0  0  0  0  0  0  0
    0.1626   -3.0362   -0.5182 O   0  0  0  0  0  0  0  0  0  0  0  0
   -2.1230   -2.2923   -0.1402 N   0  0  0  0  0  0  0  0  0  0  0  0
   -2.8272   -3.3720   -0.7616 C   0  0  0  0  0  0  0  0  0  0  0  0
   -4.0039   -3.1386   -1.4832 C   0  0  0  0  0  0  0  0  0  0  0  0
   -4.6749   -4.1999   -2.0968 C   0  0  0  0  0  0  0  0  0  0  0  0
   -4.1844   -5.4991   -1.9847 C   0  0  0  0  0  0  0  0  0  0  0  0
   -3.0249   -5.7428   -1.2525 C   0  0  0  0  0  0  0  0  0  0  0  0
   -2.3475   -4.6856   -0.6403 C   0  0  0  0  0  0  0  0  0  0  0  0
   -2.6933   -1.1305    0.4178 C   0  0  0  0  0  0  0  0  0  0  0  0
   -3.9998   -0.8808    0.3713 O   0  0  0  0  0  0  0  0  0  0  0  0
    0.6797   -0.4048    1.3886 C   0  0  1  0  0  0  0  0  0  0  0  0
    1.8524   -0.2234    0.4010 C   0  0  0  0  0  0  0  0  0  0  0  0
    2.7984    0.8136    0.8249 N   0  0  0  0  0  0  0  0  0  0  0  0
    4.1434    0.7901    0.5206 C   0  0  0  0  0  0  0  0  0  0  0  0
    4.9253    1.6705    0.8574 O   0  0  0  0  0  0  0  0  0  0  0  0
    4.4831   -0.3090   -0.1990 O   0  0  0  0  0  0  0  0  0  0  0  0
    5.8486   -0.5334   -0.6308 C   0  0  0  0  0  0  0  0  0  0  0  0
    6.3235    0.5719   -1.5810 C   0  0  0  0  0  0  0  0  0  0  0  0
    6.7894   -0.7042    0.5667 C   0  0  0  0  0  0  0  0  0  0  0  0
    5.7965   -1.8592   -1.4061 C   0  0  0  0  0  0  0  0  0  0  0  0
    2.2490    1.9741    1.5219 C   0  0  0  0  0  0  0  0  0  0  0  0
    0.7179    2.0746    1.3946 C   0  0  0  0  0  0  0  0  0  0  0  0
    0.0612    0.8738    1.9065 N   0  0  0  0  0  0  0  0  0  0  0  0
   -3.6077    5.2585   -3.1433 H   0  0  0  0  0  0  0  0  0  0  0  0
   -4.8565    4.8189   -1.9716 H   0  0  0  0  0  0  0  0  0  0  0  0
   -3.5136    5.9412   -1.5145 H   0  0  0  0  0  0  0  0  0  0  0  0
   -4.5614    4.8901    0.3586 H   0  0  0  0  0  0  0  0  0  0  0  0
   -4.5651    3.9464    2.6291 H   0  0  0  0  0  0  0  0  0  0  0  0
   -1.5808    2.0104   -0.8822 H   0  0  0  0  0  0  0  0  0  0  0  0
   -3.4872    1.9657    4.1814 H   0  0  0  0  0  0  0  0  0  0  0  0
   -0.2615   -3.5010   -1.2625 H   0  0  0  0  0  0  0  0  0  0  0  0
   -4.4029   -2.1359   -1.6104 H   0  0  0  0  0  0  0  0  0  0  0  0
   -5.5832   -4.0093   -2.6630 H   0  0  0  0  0  0  0  0  0  0  0  0
   -4.7135   -6.3221   -2.4583 H   0  0  0  0  0  0  0  0  0  0  0  0
   -2.6556   -6.7594   -1.1421 H   0  0  0  0  0  0  0  0  0  0  0  0
   -1.4800   -4.9183   -0.0262 H   0  0  0  0  0  0  0  0  0  0  0  0
   -4.1701   -0.0574    0.8626 H   0  0  0  0  0  0  0  0  0  0  0  0
    1.0379   -0.9577    2.2663 H   0  0  0  0  0  0  0  0  0  0  0  0
    2.3692   -1.1805    0.2654 H   0  0  0  0  0  0  0  0  0  0  0  0
    1.4858    0.0821   -0.5883 H   0  0  0  0  0  0  0  0  0  0  0  0
    6.4751    1.5202   -1.0574 H   0  0  0  0  0  0  0  0  0  0  0  0
    5.5804    0.7575   -2.3650 H   0  0  0  0  0  0  0  0  0  0  0  0
    7.2751    0.3081   -2.0559 H   0  0  0  0  0  0  0  0  0  0  0  0
    6.3923   -1.4432    1.2711 H   0  0  0  0  0  0  0  0  0  0  0  0
    6.9130    0.2279    1.1257 H   0  0  0  0  0  0  0  0  0  0  0  0
    7.7849   -1.0291    0.2464 H   0  0  0  0  0  0  0  0  0  0  0  0
    5.1073   -1.7856   -2.2560 H   0  0  0  0  0  0  0  0  0  0  0  0
    6.7824   -2.1500   -1.7830 H   0  0  0  0  0  0  0  0  0  0  0  0
    5.4167   -2.6677   -0.7690 H   0  0  0  0  0  0  0  0  0  0  0  0
    2.5429    1.8897    2.5763 H   0  0  0  0  0  0  0  0  0  0  0  0
    2.7130    2.8840    1.1242 H   0  0  0  0  0  0  0  0  0  0  0  0
    0.3801    2.9543    1.9541 H   0  0  0  0  0  0  0  0  0  0  0  0
    0.4819    2.2339    0.3359 H   0  0  0  0  0  0  0  0  0  0  0  0
  1  2  1  0
  2  3  1  0
  3  4  2  0
  4  5  1  0
  5  6  2  0
  6  7  1  0
  7  8  2  0
  7  9  1  0
  9 10  1  0
 10 11  2  0
 10 12  1  0
  9 13  1  0
 13 14  1  0
 14 15  2  0
 15 16  1  0
 15 17  1  0
 17 18  1  0
 18 19  2  0
 19 20  1  0
 20 21  2  0
 21 22  1  0
 22 23  2  0
 17 24  1  0
 24 25  1  0
 14 26  1  0
 26 27  1  0
 27 28  1  0
 28 29  1  0
 29 30  2  0
 29 31  1  0
 31 32  1  0
 32 33  1  0
 32 34  1  0
 32 35  1  0
 28 36  1  0
 36 37  1  0
 37 38  1  0
  8  3  1  0
  9 38  1  1
 12  6  1  0
 24 13  2  0
 38 26  1  0
 23 18  1  0
  1 39  1  0
  1 40  1  0
  1 41  1  0
  4 42  1  0
  5 43  1  0
  8 44  1  0
 12 45  1  0
 16 46  1  0
 19 47  1  0
 20 48  1  0
 21 49  1  0
 22 50  1  0
 23 51  1  0
 25 52  1  0
 26 53  1  1
 27 54  1  0
 27 55  1  0
 33 56  1  0
 33 57  1  0
 33 58  1  0
 34 59  1  0
 34 60  1  0
 34 61  1  0
 35 62  1  0
 35 63  1  0
 35 64  1  0
 36 65  1  0
 36 66  1  0
 37 67  1  0
 37 68  1  0
M  END
$$$$
