
     RDKit          3D

 55 59  0  0  0  0  0  0  0  0999 V2000
   -4.7847    0.2116   -2.5460 C   0  0  0  0  0  0  0  0  0  0  0  0
   -4.0897    0.8717   -1.3927 C   0  0  0  0  0  0  0  0  0  0  0  0
   -4.2161    0.3522   -0.1015 C   0  0  0  0  0  0  0  0  0  0  0  0
   -3.5660    0.9599    0.9715 C   0  0  0  0  0  0  0  0  0  0  0  0
   -2.7686    2.0955    0.7711 C   0  0  0  0  0  0  0  0  0  0  0  0
   -2.0532    2.7445    1.9281 C   0  0  0  0  0  0  0  0  0  0  0  0
   -0.2769    2.3464    1.9417 S   0  0  0  0  0  0  0  0  0  0  0  0
   -0.3904    0.6337    2.3216 C   0  0  0  0  0  0  0  0  0  0  0  0
   -1.0189    0.3004    3.4135 N   0  0  0  0  0  0  0  0  0  0  0  0
   -1.1215   -1.0661    3.7649 C   0  0  0  0  0  0  0  0  0  0  0  0
   -1.7945   -1.4114    4.9368 C   0  0  0  0  0  0  0  0  0  0  0  0
   -1.9056   -2.7514    5.3169 C   0  0  0  0  0  0  0  0  0  0  0  0
   -1.3439   -3.7565    4.5250 C   0  0  0  0  0  0  0  0  0  0  0  0
   -0.6690   -3.4264    3.3509 C   0  0  0  0  0  0  0  0  0  0  0  0
   -0.5604   -2.0867    2.9731 C   0  0  0  0  0  0  0  0  0  0  0  0
    0.1322   -1.6698    1.7701 C   0  0  0  0  0  0  0  0  0  0  0  0
    0.7493   -2.4067    0.8692 N   0  0  0  0  0  0  0  0  0  0  0  0
    1.2589   -1.5097   -0.0423 C   0  0  0  0  0  0  0  0  0  0  0  0
    2.0498   -1.9842   -1.2087 C   0  0  0  0  0  0  0  0  0  0  0  0
    3.4222   -1.3404   -1.2465 C   0  0  0  0  0  0  0  0  0  0  0  0
    4.4078   -1.8327   -0.7006 O   0  0  0  0  0  0  0  0  0  0  0  0
    3.4680   -0.1493   -1.9440 N   0  0  0  0  0  0  0  0  0  0  0  0
    4.6695    0.6492   -1.9221 C   0  0  0  0  0  0  0  0  0  0  0  0
    4.5913    1.6527   -3.0093 C   0  0  0  0  0  0  0  0  0  0  0  0
    5.2366    1.7865   -4.2195 C   0  0  0  0  0  0  0  0  0  0  0  0
    4.7384    2.9703   -4.8113 C   0  0  0  0  0  0  0  0  0  0  0  0
    3.8170    3.4788   -3.9327 C   0  0  0  0  0  0  0  0  0  0  0  0
    3.7170    2.6825   -2.8397 O   0  0  0  0  0  0  0  0  0  0  0  0
    0.8963   -0.2111    0.2827 C   0  0  0  0  0  0  0  0  0  0  0  0
    1.1527    0.9238   -0.3688 O   0  0  0  0  0  0  0  0  0  0  0  0
    0.1950   -0.3214    1.4753 N   0  0  0  0  0  0  0  0  0  0  0  0
   -2.6254    2.5983   -0.5294 C   0  0  0  0  0  0  0  0  0  0  0  0
   -3.2759    1.9880   -1.6018 C   0  0  0  0  0  0  0  0  0  0  0  0
   -5.7020   -0.2862   -2.2157 H   0  0  0  0  0  0  0  0  0  0  0  0
   -4.1224   -0.5320   -3.0116 H   0  0  0  0  0  0  0  0  0  0  0  0
   -5.0749    0.9522   -3.3001 H   0  0  0  0  0  0  0  0  0  0  0  0
   -4.8304   -0.5305    0.0760 H   0  0  0  0  0  0  0  0  0  0  0  0
   -3.6911    0.5411    1.9671 H   0  0  0  0  0  0  0  0  0  0  0  0
   -2.1590    3.8316    1.8468 H   0  0  0  0  0  0  0  0  0  0  0  0
   -2.5130    2.4661    2.8841 H   0  0  0  0  0  0  0  0  0  0  0  0
   -2.2258   -0.6314    5.5628 H   0  0  0  0  0  0  0  0  0  0  0  0
   -2.4268   -3.0113    6.2351 H   0  0  0  0  0  0  0  0  0  0  0  0
   -1.4281   -4.7985    4.8257 H   0  0  0  0  0  0  0  0  0  0  0  0
   -0.2267   -4.2080    2.7345 H   0  0  0  0  0  0  0  0  0  0  0  0
    2.1874   -3.0708   -1.1706 H   0  0  0  0  0  0  0  0  0  0  0  0
    1.5136   -1.7649   -2.1394 H   0  0  0  0  0  0  0  0  0  0  0  0
    2.5978    0.3765   -1.9757 H   0  0  0  0  0  0  0  0  0  0  0  0
    4.7388    1.1387   -0.9442 H   0  0  0  0  0  0  0  0  0  0  0  0
    5.5461    0.0032   -2.0418 H   0  0  0  0  0  0  0  0  0  0  0  0
    5.9711    1.1063   -4.6255 H   0  0  0  0  0  0  0  0  0  0  0  0
    5.0155    3.4005   -5.7629 H   0  0  0  0  0  0  0  0  0  0  0  0
    3.1755    4.3525   -3.9410 H   0  0  0  0  0  0  0  0  0  0  0  0
    0.7686    1.6824    0.1181 H   0  0  0  0  0  0  0  0  0  0  0  0
   -2.0060    3.4731   -0.7156 H   0  0  0  0  0  0  0  0  0  0  0  0
   -3.1498    2.3958   -2.6014 H   0  0  0  0  0  0  0  0  0  0  0  0
  1  2  1  0
  2  3  2  0
  3  4  1  0
  4  5  2  0
  5  6  1  0
  6  7  1  0
  7  8  1  0
  8  9  2  0
  9 10  1  0
 10 11  2  0
 11 12  1  0
 12 13  2  0
 13 14  1  0
 14 15  2  0
 15 16  1  0
 16 17  2  0
 17 18  1  0
 18 19  1  0
 19 20  1  0
 20 21  2  0
 20 22  1  0
 22 23  1  0
 23 24  1  0
 24 25  2  0
 25 26  1  0
 26 27  2  0
 27 28  1  0
 18 29  2  0
 29 30  1  0
 29 31  1  0
  5 32  1  0
 32 33  2  0
 33  2  1  0
 31  8  1  0
 15 10  1  0
 31 16  1  0
 28 24  1  0
  1 34  1  0
  1 35  1  0
  1 36  1  0
  3 37  1  0
  4 38  1  0
  6 39  1  0
  6 40  1  0
 11 41  1  0
 12 42  1  0
 13 43  1  0
 14 44  1  0
 19 45  1  0
 19 46  1  0
 22 47  1  0
 23 48  1  0
 23 49  1  0
 25 50  1  0
 26 51  1  0
 27 52  1  0
 30 53  1  0
 32 54  1  0
 33 55  1  0
M  END
$$$$
