
     RDKit          3D

 42 44  0  0  0  0  0  0  0  0999 V2000
    5.2550   -0.4990   -2.8452 C   0  0  0  0  0  0  0  0  0  0  0  0
    5.1211   -0.3244   -1.3383 C   0  0  0  0  0  0  0  0  0  0  0  0
    3.6933   -0.0321   -0.8744 C   0  0  0  0  0  0  0  0  0  0  0  0
    2.5924   -1.4708   -1.1025 S   0  0  0  0  0  0  0  0  0  0  0  0
    1.0484   -0.8101   -0.4858 C   0  0  0  0  0  0  0  0  0  0  0  0
   -0.0713   -1.6131   -0.5262 C   0  0  0  0  0  0  0  0  0  0  0  0
   -1.2505   -1.0881   -0.0417 C   0  0  0  0  0  0  0  0  0  0  0  0
   -2.4224   -1.8082   -0.0529 N   0  0  0  0  0  0  0  0  0  0  0  0
   -2.4846   -3.2649   -0.0844 C   0  0  0  0  0  0  0  0  0  0  0  0
   -3.8152   -3.5988    0.5919 C   0  0  0  0  0  0  0  0  0  0  0  0
   -4.6551   -2.3519    0.3653 C   0  0  0  0  0  0  0  0  0  0  0  0
   -3.6332   -1.2298    0.5182 C   0  0  0  0  0  0  0  0  0  0  0  0
   -1.2861    0.1705    0.4281 N   0  0  0  0  0  0  0  0  0  0  0  0
   -0.1491    0.8906    0.4340 C   0  0  0  0  0  0  0  0  0  0  0  0
   -0.2096    2.2697    0.9627 C   0  0  0  0  0  0  0  0  0  0  0  0
   -1.4171    2.8272    1.4275 C   0  0  0  0  0  0  0  0  0  0  0  0
   -1.4776    4.1319    1.9285 C   0  0  0  0  0  0  0  0  0  0  0  0
   -0.3275    4.9133    1.9768 C   0  0  0  0  0  0  0  0  0  0  0  0
    0.8807    4.3918    1.5250 C   0  0  0  0  0  0  0  0  0  0  0  0
    0.9367    3.0866    1.0247 C   0  0  0  0  0  0  0  0  0  0  0  0
    1.0348    0.4400   -0.0062 N   0  0  0  0  0  0  0  0  0  0  0  0
    4.7269   -1.3887   -3.2000 H   0  0  0  0  0  0  0  0  0  0  0  0
    6.3098   -0.6104   -3.1165 H   0  0  0  0  0  0  0  0  0  0  0  0
    4.8604    0.3726   -3.3772 H   0  0  0  0  0  0  0  0  0  0  0  0
    5.5187   -1.2090   -0.8264 H   0  0  0  0  0  0  0  0  0  0  0  0
    5.7555    0.5187   -1.0378 H   0  0  0  0  0  0  0  0  0  0  0  0
    3.7166    0.2227    0.1907 H   0  0  0  0  0  0  0  0  0  0  0  0
    3.2941    0.8269   -1.4246 H   0  0  0  0  0  0  0  0  0  0  0  0
   -0.0207   -2.6115   -0.9376 H   0  0  0  0  0  0  0  0  0  0  0  0
   -2.4805   -3.6125   -1.1233 H   0  0  0  0  0  0  0  0  0  0  0  0
   -1.6611   -3.7437    0.4570 H   0  0  0  0  0  0  0  0  0  0  0  0
   -3.6589   -3.7510    1.6668 H   0  0  0  0  0  0  0  0  0  0  0  0
   -4.2758   -4.5031    0.1844 H   0  0  0  0  0  0  0  0  0  0  0  0
   -5.4851   -2.2633    1.0715 H   0  0  0  0  0  0  0  0  0  0  0  0
   -5.0645   -2.3560   -0.6522 H   0  0  0  0  0  0  0  0  0  0  0  0
   -3.9573   -0.3292   -0.0141 H   0  0  0  0  0  0  0  0  0  0  0  0
   -3.4890   -0.9931    1.5796 H   0  0  0  0  0  0  0  0  0  0  0  0
   -2.3325    2.2376    1.4000 H   0  0  0  0  0  0  0  0  0  0  0  0
   -2.4248    4.5332    2.2791 H   0  0  0  0  0  0  0  0  0  0  0  0
   -0.3729    5.9271    2.3655 H   0  0  0  0  0  0  0  0  0  0  0  0
    1.7826    4.9973    1.5598 H   0  0  0  0  0  0  0  0  0  0  0  0
    1.8956    2.7046    0.6780 H   0  0  0  0  0  0  0  0  0  0  0  0
  1  2  1  0
  2  3  1  0
  3  4  1  0
  4  5  1  0
  5  6  2  0
  6  7  1  0
  7  8  1  0
  8  9  1  0
  9 10  1  0
 10 11  1  0
 11 12  1  0
  7 13  2  0
 13 14  1  0
 14 15  1  0
 15 16  2  0
 16 17  1  0
 17 18  2  0
 18 19  1  0
 19 20  2  0
 14 21  2  0
 21  5  1  0
 12  8  1  0
 20 15  1  0
  1 22  1  0
  1 23  1  0
  1 24  1  0
  2 25  1  0
  2 26  1  0
  3 27  1  0
  3 28  1  0
  6 29  1  0
  9 30  1  0
  9 31  1  0
 10 32  1  0
 10 33  1  0
 11 34  1  0
 11 35  1  0
 12 36  1  0
 12 37  1  0
 16 38  1  0
 17 39  1  0
 18 40  1  0
 19 41  1  0
 20 42  1  0
M  END
$$$$
