
     RDKit          3D

 28 30  0  0  0  0  0  0  0  0999 V2000
    1.0389    3.9059    0.9540 S   0  0  0  0  0  0  0  0  0  0  0  0
   -0.2384    2.9902    0.4192 C   0  0  0  0  0  0  0  0  0  0  0  0
   -1.4606    3.5463    0.0436 N   0  0  0  0  0  0  0  0  0  0  0  0
   -2.3775    2.5668   -0.2226 N   0  0  0  0  0  0  0  0  0  0  0  0
   -1.7254    1.4453   -0.0518 C   0  0  0  0  0  0  0  0  0  0  0  0
   -2.3550    0.1264   -0.2293 C   0  0  0  0  0  0  0  0  0  0  0  0
   -2.0088   -1.0098    0.5020 C   0  0  0  0  0  0  0  0  0  0  0  0
   -2.6767   -2.2105    0.2639 C   0  0  0  0  0  0  0  0  0  0  0  0
   -3.6790   -2.2307   -0.6926 C   0  0  0  0  0  0  0  0  0  0  0  0
   -4.0538   -1.1477   -1.4062 N   0  0  0  0  0  0  0  0  0  0  0  0
   -3.3894    0.0079   -1.1511 C   0  0  0  0  0  0  0  0  0  0  0  0
   -0.4032    1.6211    0.2748 N   0  0  0  0  0  0  0  0  0  0  0  0
    0.4652    0.6098    0.5556 N   0  0  0  0  0  0  0  0  0  0  0  0
    1.6914    0.7360    0.1601 C   0  0  0  0  0  0  0  0  0  0  0  0
    2.6973   -0.2621    0.4467 C   0  0  0  0  0  0  0  0  0  0  0  0
    4.0321   -0.2333    0.0840 C   0  0  0  0  0  0  0  0  0  0  0  0
    4.7418   -1.3887    0.5324 C   0  0  0  0  0  0  0  0  0  0  0  0
    3.9139   -2.2426    1.2150 C   0  0  0  0  0  0  0  0  0  0  0  0
    4.4966   -3.8985    1.9696 Br  0  0  0  0  0  0  0  0  0  0  0  0
    2.3196   -1.6852    1.3246 S   0  0  0  0  0  0  0  0  0  0  0  0
   -1.7200    4.5248    0.0918 H   0  0  0  0  0  0  0  0  0  0  0  0
   -1.2422   -0.9782    1.2700 H   0  0  0  0  0  0  0  0  0  0  0  0
   -2.4235   -3.1078    0.8182 H   0  0  0  0  0  0  0  0  0  0  0  0
   -4.2265   -3.1432   -0.9119 H   0  0  0  0  0  0  0  0  0  0  0  0
   -3.7253    0.8596   -1.7379 H   0  0  0  0  0  0  0  0  0  0  0  0
    2.0272    1.5913   -0.4517 H   0  0  0  0  0  0  0  0  0  0  0  0
    4.4858    0.5774   -0.4748 H   0  0  0  0  0  0  0  0  0  0  0  0
    5.7956   -1.5703    0.3594 H   0  0  0  0  0  0  0  0  0  0  0  0
  1  2  2  0
  2  3  1  0
  3  4  1  0
  4  5  2  0
  5  6  1  0
  6  7  2  0
  7  8  1  0
  8  9  2  0
  9 10  1  0
 10 11  2  0
  5 12  1  0
 12 13  1  0
 13 14  2  3
 14 15  1  0
 15 16  2  0
 16 17  1  0
 17 18  2  0
 18 19  1  0
 18 20  1  0
 12  2  1  0
 20 15  1  0
 11  6  1  0
  3 21  1  0
  7 22  1  0
  8 23  1  0
  9 24  1  0
 11 25  1  0
 14 26  1  0
 16 27  1  0
 17 28  1  0
M  END
$$$$
