
     RDKit          3D

 40 43  0  0  0  0  0  0  0  0999 V2000
    7.7138    1.8777   -0.1833 C   0  0  0  0  0  0  0  0  0  0  0  0
    6.3824    1.2113   -0.1851 C   0  0  0  0  0  0  0  0  0  0  0  0
    5.9384    0.4497   -1.1587 N   0  0  0  0  0  0  0  0  0  0  0  0
    4.6748   -0.0223   -0.8484 C   0  0  0  0  0  0  0  0  0  0  0  0
    3.8846   -0.8655   -1.6508 C   0  0  0  0  0  0  0  0  0  0  0  0
    2.6160   -1.2709   -1.2076 C   0  0  0  0  0  0  0  0  0  0  0  0
    2.1174   -0.8505    0.0232 C   0  0  0  0  0  0  0  0  0  0  0  0
    0.8535   -1.2247    0.5295 N   0  0  0  0  0  0  0  0  0  0  0  0
   -0.0733   -2.0808   -0.0501 C   0  0  0  0  0  0  0  0  0  0  0  0
    0.0417   -2.6603   -1.1260 O   0  0  0  0  0  0  0  0  0  0  0  0
   -1.3175   -2.2692    0.8065 C   0  0  0  0  0  0  0  0  0  0  0  0
   -2.4816   -1.4330    0.3348 C   0  0  0  0  0  0  0  0  0  0  0  0
   -3.2557   -1.8599   -0.7548 C   0  0  0  0  0  0  0  0  0  0  0  0
   -4.3435   -1.1025   -1.1916 C   0  0  0  0  0  0  0  0  0  0  0  0
   -4.6643    0.0887   -0.5457 C   0  0  0  0  0  0  0  0  0  0  0  0
   -3.8739    0.5471    0.5096 C   0  0  0  0  0  0  0  0  0  0  0  0
   -2.7948   -0.2160    0.9585 C   0  0  0  0  0  0  0  0  0  0  0  0
   -4.1050    1.7312    1.1608 O   0  0  0  0  0  0  0  0  0  0  0  0
   -5.0212    2.5598    0.4338 C   0  0  0  0  0  0  0  0  0  0  0  0
   -6.2020    1.7485   -0.0661 C   0  0  0  0  0  0  0  0  0  0  0  0
   -5.7672    0.7609   -1.0052 O   0  0  0  0  0  0  0  0  0  0  0  0
    2.8945   -0.0067    0.8341 C   0  0  0  0  0  0  0  0  0  0  0  0
    4.1658    0.3924    0.3815 C   0  0  0  0  0  0  0  0  0  0  0  0
    5.3249    1.4059    1.1544 S   0  0  0  0  0  0  0  0  0  0  0  0
    7.6089    2.9626   -0.0647 H   0  0  0  0  0  0  0  0  0  0  0  0
    8.2367    1.6890   -1.1282 H   0  0  0  0  0  0  0  0  0  0  0  0
    8.3396    1.4910    0.6317 H   0  0  0  0  0  0  0  0  0  0  0  0
    4.2619   -1.2004   -2.6131 H   0  0  0  0  0  0  0  0  0  0  0  0
    2.0424   -1.9150   -1.8663 H   0  0  0  0  0  0  0  0  0  0  0  0
    0.6004   -0.8189    1.4207 H   0  0  0  0  0  0  0  0  0  0  0  0
   -1.5866   -3.3332    0.7807 H   0  0  0  0  0  0  0  0  0  0  0  0
   -1.0958   -2.0555    1.8596 H   0  0  0  0  0  0  0  0  0  0  0  0
   -3.0142   -2.7889   -1.2715 H   0  0  0  0  0  0  0  0  0  0  0  0
   -4.9448   -1.4472   -2.0268 H   0  0  0  0  0  0  0  0  0  0  0  0
   -2.2042    0.1507    1.7936 H   0  0  0  0  0  0  0  0  0  0  0  0
   -4.4800    3.0328   -0.3927 H   0  0  0  0  0  0  0  0  0  0  0  0
   -5.3654    3.3450    1.1125 H   0  0  0  0  0  0  0  0  0  0  0  0
   -6.7221    1.2457    0.7562 H   0  0  0  0  0  0  0  0  0  0  0  0
   -6.9217    2.3942   -0.5756 H   0  0  0  0  0  0  0  0  0  0  0  0
    2.5373    0.3371    1.7977 H   0  0  0  0  0  0  0  0  0  0  0  0
  1  2  1  0
  2  3  2  0
  3  4  1  0
  4  5  2  0
  5  6  1  0
  6  7  2  0
  7  8  1  0
  8  9  1  0
  9 10  2  0
  9 11  1  0
 11 12  1  0
 12 13  2  0
 13 14  1  0
 14 15  2  0
 15 16  1  0
 16 17  2  0
 16 18  1  0
 18 19  1  0
 19 20  1  0
 20 21  1  0
  7 22  1  0
 22 23  2  0
 23 24  1  0
 24  2  1  0
 23  4  1  0
 17 12  1  0
 21 15  1  0
  1 25  1  0
  1 26  1  0
  1 27  1  0
  5 28  1  0
  6 29  1  0
  8 30  1  0
 11 31  1  0
 11 32  1  0
 13 33  1  0
 14 34  1  0
 17 35  1  0
 19 36  1  0
 19 37  1  0
 20 38  1  0
 20 39  1  0
 22 40  1  0
M  END
$$$$
