
     RDKit          3D

 40 41  0  0  0  0  0  0  0  0999 V2000
   -0.7191    0.2008   -4.0547 C   0  0  0  0  0  0  0  0  0  0  0  0
   -0.3323    1.1956   -2.9677 C   0  0  0  0  0  0  0  0  0  0  0  0
   -0.6254    0.6660   -1.5786 C   0  0  0  0  0  0  0  0  0  0  0  0
   -1.8535    0.9299   -0.9703 C   0  0  0  0  0  0  0  0  0  0  0  0
   -2.9093    1.7888   -1.6073 C   0  0  0  0  0  0  0  0  0  0  0  0
   -2.1899    0.4419    0.2441 N   0  0  0  0  0  0  0  0  0  0  0  0
   -1.3569   -0.3711    0.9222 C   0  0  0  0  0  0  0  0  0  0  0  0
   -1.7535   -0.8898    2.1733 C   0  0  0  0  0  0  0  0  0  0  0  0
   -2.9994   -0.4919    2.6145 O   0  0  0  0  0  0  0  0  0  0  0  0
   -3.4857   -1.0437    3.8285 C   0  0  0  0  0  0  0  0  0  0  0  0
   -0.9195   -1.7450    2.9020 C   0  0  0  0  0  0  0  0  0  0  0  0
    0.3182   -2.1020    2.3915 C   0  0  0  0  0  0  0  0  0  0  0  0
    0.7225   -1.5981    1.1594 C   0  0  0  0  0  0  0  0  0  0  0  0
   -0.0938   -0.7165    0.4019 C   0  0  0  0  0  0  0  0  0  0  0  0
    0.2749   -0.1530   -0.8591 C   0  0  0  0  0  0  0  0  0  0  0  0
    1.9146   -0.5117   -1.5553 S   0  0  0  0  0  0  0  0  0  0  0  0
    2.8038    1.0118   -1.0517 C   0  0  0  0  0  0  0  0  0  0  0  0
    3.3416    0.9540    0.3699 C   0  0  0  0  0  0  0  0  0  0  0  0
    4.4776   -0.0193    0.4903 C   0  0  0  0  0  0  0  0  0  0  0  0
    5.4617   -0.0756   -0.2277 O   0  0  0  0  0  0  0  0  0  0  0  0
    4.3417   -0.8588    1.5338 O   0  0  0  0  0  0  0  0  0  0  0  0
   -1.7864   -0.0402   -4.0151 H   0  0  0  0  0  0  0  0  0  0  0  0
   -0.5049    0.6210   -5.0426 H   0  0  0  0  0  0  0  0  0  0  0  0
   -0.1632   -0.7374   -3.9603 H   0  0  0  0  0  0  0  0  0  0  0  0
    0.7217    1.4690   -3.0749 H   0  0  0  0  0  0  0  0  0  0  0  0
   -0.8632    2.1387   -3.1390 H   0  0  0  0  0  0  0  0  0  0  0  0
   -3.1933    1.3948   -2.5872 H   0  0  0  0  0  0  0  0  0  0  0  0
   -3.8139    1.8143   -0.9898 H   0  0  0  0  0  0  0  0  0  0  0  0
   -2.5521    2.8179   -1.7116 H   0  0  0  0  0  0  0  0  0  0  0  0
   -4.4925   -0.6488    3.9957 H   0  0  0  0  0  0  0  0  0  0  0  0
   -3.5636   -2.1341    3.7657 H   0  0  0  0  0  0  0  0  0  0  0  0
   -2.8650   -0.7378    4.6768 H   0  0  0  0  0  0  0  0  0  0  0  0
   -1.2085   -2.1480    3.8661 H   0  0  0  0  0  0  0  0  0  0  0  0
    0.9707   -2.7703    2.9475 H   0  0  0  0  0  0  0  0  0  0  0  0
    1.6979   -1.9098    0.7921 H   0  0  0  0  0  0  0  0  0  0  0  0
    2.1390    1.8749   -1.1592 H   0  0  0  0  0  0  0  0  0  0  0  0
    3.6242    1.1521   -1.7638 H   0  0  0  0  0  0  0  0  0  0  0  0
    3.7359    1.9354    0.6585 H   0  0  0  0  0  0  0  0  0  0  0  0
    2.5522    0.7133    1.0883 H   0  0  0  0  0  0  0  0  0  0  0  0
    5.1468   -1.4172    1.4937 H   0  0  0  0  0  0  0  0  0  0  0  0
  1  2  1  0
  2  3  1  0
  3  4  2  0
  4  5  1  0
  4  6  1  0
  6  7  2  0
  7  8  1  0
  8  9  1  0
  9 10  1  0
  8 11  2  0
 11 12  1  0
 12 13  2  0
 13 14  1  0
 14 15  2  0
 15 16  1  0
 16 17  1  0
 17 18  1  0
 18 19  1  0
 19 20  2  0
 19 21  1  0
 15  3  1  0
 14  7  1  0
  1 22  1  0
  1 23  1  0
  1 24  1  0
  2 25  1  0
  2 26  1  0
  5 27  1  0
  5 28  1  0
  5 29  1  0
 10 30  1  0
 10 31  1  0
 10 32  1  0
 11 33  1  0
 12 34  1  0
 13 35  1  0
 17 36  1  0
 17 37  1  0
 18 38  1  0
 18 39  1  0
 21 40  1  0
M  END
$$$$
