
     RDKit          3D

 45 47  0  0  0  0  0  0  0  0999 V2000
    1.8532    2.4596    0.0133 O   0  0  0  0  0  0  0  0  0  0  0  0
    1.5849    1.6438   -0.8739 C   0  0  0  0  0  0  0  0  0  0  0  0
    2.6573    1.2420   -1.8768 C   0  0  0  0  0  0  0  0  0  0  0  0
    3.3376   -0.4050   -1.4864 S   0  0  0  0  0  0  0  0  0  0  0  0
    4.7787    0.0520   -0.5419 C   0  0  0  0  0  0  0  0  0  0  0  0
    4.6779    0.7303    0.6768 C   0  0  0  0  0  0  0  0  0  0  0  0
    5.8284    1.0634    1.3980 C   0  0  0  0  0  0  0  0  0  0  0  0
    7.0815    0.7075    0.9048 C   0  0  0  0  0  0  0  0  0  0  0  0
    8.6372    1.1563    1.8795 Br  0  0  0  0  0  0  0  0  0  0  0  0
    7.1946    0.0183   -0.3004 C   0  0  0  0  0  0  0  0  0  0  0  0
    6.0428   -0.3123   -1.0197 C   0  0  0  0  0  0  0  0  0  0  0  0
    0.3170    1.0888   -0.9841 N   0  0  0  0  0  0  0  0  0  0  0  0
   -0.6956    1.4322    0.0206 C   0  0  0  0  0  0  0  0  0  0  0  0
   -1.6085    0.2447    0.3470 C   0  0  0  0  0  0  0  0  0  0  0  0
   -2.3048   -0.2993   -0.8671 N   0  0  0  0  0  0  0  0  0  0  0  0
   -3.9897   -0.0270   -0.9318 S   0  0  0  0  0  6  0  0  0  0  0  0
   -4.4979   -0.6518   -2.1337 O   0  0  0  0  0  0  0  0  0  0  0  0
   -4.1945    1.3821   -0.6683 O   0  0  0  0  0  0  0  0  0  0  0  0
   -4.5921   -0.9629    0.4488 C   0  0  0  0  0  0  0  0  0  0  0  0
   -5.3049   -0.3283    1.4692 C   0  0  0  0  0  0  0  0  0  0  0  0
   -5.7613   -1.0793    2.5523 C   0  0  0  0  0  0  0  0  0  0  0  0
   -5.5064   -2.4510    2.6097 C   0  0  0  0  0  0  0  0  0  0  0  0
   -4.7985   -3.0800    1.5836 C   0  0  0  0  0  0  0  0  0  0  0  0
   -4.3397   -2.3372    0.4967 C   0  0  0  0  0  0  0  0  0  0  0  0
   -1.6183    0.0327   -2.1561 C   0  0  0  0  0  0  0  0  0  0  0  0
   -0.0944    0.1002   -1.9893 C   0  0  0  0  0  0  0  0  0  0  0  0
    2.2498    1.2410   -2.8903 H   0  0  0  0  0  0  0  0  0  0  0  0
    3.4491    1.9991   -1.8728 H   0  0  0  0  0  0  0  0  0  0  0  0
    3.7084    1.0042    1.0862 H   0  0  0  0  0  0  0  0  0  0  0  0
    5.7319    1.5959    2.3407 H   0  0  0  0  0  0  0  0  0  0  0  0
    8.1690   -0.2679   -0.6875 H   0  0  0  0  0  0  0  0  0  0  0  0
    6.1429   -0.8554   -1.9568 H   0  0  0  0  0  0  0  0  0  0  0  0
   -0.2187    1.7873    0.9399 H   0  0  0  0  0  0  0  0  0  0  0  0
   -1.2818    2.2632   -0.3896 H   0  0  0  0  0  0  0  0  0  0  0  0
   -2.3238    0.5424    1.1197 H   0  0  0  0  0  0  0  0  0  0  0  0
   -1.0159   -0.5762    0.7696 H   0  0  0  0  0  0  0  0  0  0  0  0
   -5.5110    0.7386    1.4274 H   0  0  0  0  0  0  0  0  0  0  0  0
   -6.3198   -0.5975    3.3514 H   0  0  0  0  0  0  0  0  0  0  0  0
   -5.8670   -3.0335    3.4546 H   0  0  0  0  0  0  0  0  0  0  0  0
   -4.6095   -4.1497    1.6307 H   0  0  0  0  0  0  0  0  0  0  0  0
   -3.7933   -2.8266   -0.3063 H   0  0  0  0  0  0  0  0  0  0  0  0
   -1.9819    0.9969   -2.5319 H   0  0  0  0  0  0  0  0  0  0  0  0
   -1.8612   -0.7416   -2.8918 H   0  0  0  0  0  0  0  0  0  0  0  0
    0.3645    0.3330   -2.9529 H   0  0  0  0  0  0  0  0  0  0  0  0
    0.2839   -0.8729   -1.6565 H   0  0  0  0  0  0  0  0  0  0  0  0
  1  2  2  0
  2  3  1  0
  3  4  1  0
  4  5  1  0
  5  6  2  0
  6  7  1  0
  7  8  2  0
  8  9  1  0
  8 10  1  0
 10 11  2  0
  2 12  1  0
 12 13  1  0
 13 14  1  0
 14 15  1  0
 15 16  1  0
 16 17  2  0
 16 18  2  0
 16 19  1  0
 19 20  2  0
 20 21  1  0
 21 22  2  0
 22 23  1  0
 23 24  2  0
 15 25  1  0
 25 26  1  0
 11  5  1  0
 26 12  1  0
 24 19  1  0
  3 27  1  0
  3 28  1  0
  6 29  1  0
  7 30  1  0
 10 31  1  0
 11 32  1  0
 13 33  1  0
 13 34  1  0
 14 35  1  0
 14 36  1  0
 20 37  1  0
 21 38  1  0
 22 39  1  0
 23 40  1  0
 24 41  1  0
 25 42  1  0
 25 43  1  0
 26 44  1  0
 26 45  1  0
M  END
$$$$
