
     RDKit          3D

 42 44  0  0  0  0  0  0  0  0999 V2000
    7.7924   -2.2801   -1.1282 C   0  0  0  0  0  0  0  0  0  0  0  0
    7.2330   -1.1717   -1.8214 O   0  0  0  0  0  0  0  0  0  0  0  0
    5.9798   -0.7731   -1.4482 C   0  0  0  0  0  0  0  0  0  0  0  0
    5.1944   -1.3577   -0.4531 C   0  0  0  0  0  0  0  0  0  0  0  0
    3.9198   -0.8497   -0.1700 C   0  0  0  0  0  0  0  0  0  0  0  0
    3.4214    0.2436   -0.8905 C   0  0  0  0  0  0  0  0  0  0  0  0
    2.0693    0.8142   -0.6229 C   0  0  0  0  0  0  0  0  0  0  0  0
    1.9307    2.0256   -0.7276 O   0  0  0  0  0  0  0  0  0  0  0  0
    1.1019   -0.1285   -0.3177 N   0  0  0  0  0  0  0  0  0  0  0  0
   -0.2285    0.1174    0.0043 C   0  0  0  0  0  0  0  0  0  0  0  0
   -0.8314    1.7018    0.1679 S   0  0  0  0  0  0  0  0  0  0  0  0
   -2.3981    1.1554    0.5351 C   0  0  0  0  0  0  0  0  0  0  0  0
   -2.4754   -0.2229    0.5626 C   0  0  0  0  0  0  0  0  0  0  0  0
   -1.2146   -0.8237    0.2485 C   0  0  0  0  0  0  0  0  0  0  0  0
   -0.9787   -2.2352    0.1907 C   0  0  0  0  0  0  0  0  0  0  0  0
   -0.7536   -3.3725    0.1467 N   0  0  0  0  0  0  0  0  0  0  0  0
   -3.7735   -0.9021    0.8710 C   0  0  0  0  0  0  0  0  0  0  0  0
   -4.7235    0.0543    1.6114 C   0  0  0  0  0  0  0  0  0  0  0  0
   -4.7870    1.3819    0.9746 N   0  0  0  0  0  0  0  0  0  0  0  0
   -5.9417    2.1533    0.9203 C   0  0  0  0  0  0  0  0  0  0  0  0
   -7.2540    1.4583    1.1777 C   0  0  0  0  0  0  0  0  0  0  0  0
   -5.9207    3.3571    0.6634 O   0  0  0  0  0  0  0  0  0  0  0  0
   -3.5187    2.1115    0.8121 C   0  0  0  0  0  0  0  0  0  0  0  0
    4.2163    0.8414   -1.8729 C   0  0  0  0  0  0  0  0  0  0  0  0
    5.4854    0.3287   -2.1514 C   0  0  0  0  0  0  0  0  0  0  0  0
    7.1933   -3.1839   -1.2806 H   0  0  0  0  0  0  0  0  0  0  0  0
    8.7876   -2.4664   -1.5432 H   0  0  0  0  0  0  0  0  0  0  0  0
    7.9118   -2.0593   -0.0623 H   0  0  0  0  0  0  0  0  0  0  0  0
    5.5479   -2.2035    0.1280 H   0  0  0  0  0  0  0  0  0  0  0  0
    3.3466   -1.3015    0.6352 H   0  0  0  0  0  0  0  0  0  0  0  0
    1.3657   -1.1024   -0.4069 H   0  0  0  0  0  0  0  0  0  0  0  0
   -3.6131   -1.7995    1.4782 H   0  0  0  0  0  0  0  0  0  0  0  0
   -4.2343   -1.2140   -0.0745 H   0  0  0  0  0  0  0  0  0  0  0  0
   -4.3786    0.2163    2.6407 H   0  0  0  0  0  0  0  0  0  0  0  0
   -5.7106   -0.4090    1.6756 H   0  0  0  0  0  0  0  0  0  0  0  0
   -7.3648    0.5963    0.5146 H   0  0  0  0  0  0  0  0  0  0  0  0
   -8.0759    2.1501    0.9686 H   0  0  0  0  0  0  0  0  0  0  0  0
   -7.3195    1.1539    2.2253 H   0  0  0  0  0  0  0  0  0  0  0  0
   -3.6178    2.8370   -0.0034 H   0  0  0  0  0  0  0  0  0  0  0  0
   -3.3311    2.6572    1.7445 H   0  0  0  0  0  0  0  0  0  0  0  0
    3.8511    1.7054   -2.4248 H   0  0  0  0  0  0  0  0  0  0  0  0
    6.0966    0.7960   -2.9205 H   0  0  0  0  0  0  0  0  0  0  0  0
  1  2  1  0
  2  3  1  0
  3  4  2  0
  4  5  1  0
  5  6  2  0
  6  7  1  0
  7  8  2  0
  7  9  1  0
  9 10  1  0
 10 11  1  0
 11 12  1  0
 12 13  2  0
 13 14  1  0
 14 15  1  0
 15 16  3  0
 13 17  1  0
 17 18  1  0
 18 19  1  0
 19 20  1  0
 20 21  1  0
 20 22  2  0
 19 23  1  0
  6 24  1  0
 24 25  2  0
 25  3  1  0
 14 10  2  0
 23 12  1  0
  1 26  1  0
  1 27  1  0
  1 28  1  0
  4 29  1  0
  5 30  1  0
  9 31  1  0
 17 32  1  0
 17 33  1  0
 18 34  1  0
 18 35  1  0
 21 36  1  0
 21 37  1  0
 21 38  1  0
 23 39  1  0
 23 40  1  0
 24 41  1  0
 25 42  1  0
M  END
$$$$
