
     RDKit          3D

 56 59  0  0  0  0  0  0  0  0999 V2000
    7.7490   -0.8196   -1.1258 C   0  0  0  0  0  0  0  0  0  0  0  0
    7.7353   -0.0299    0.0588 O   0  0  0  0  0  0  0  0  0  0  0  0
    6.4633    0.3101    0.4714 C   0  0  0  0  0  0  0  0  0  0  0  0
    6.3770    1.0779    1.6179 C   0  0  0  0  0  0  0  0  0  0  0  0
    5.1127    1.4450    2.0709 C   0  0  0  0  0  0  0  0  0  0  0  0
    3.9687    1.0367    1.3711 C   0  0  0  0  0  0  0  0  0  0  0  0
    2.6432    1.4605    1.9093 C   0  0  0  0  0  0  0  0  0  0  0  0
    2.5911    2.2067    2.8834 O   0  0  0  0  0  0  0  0  0  0  0  0
    1.5121    0.9916    1.2856 N   0  0  0  0  0  0  0  0  0  0  0  0
    0.1870    1.4371    1.6614 C   0  0  0  0  0  0  0  0  0  0  0  0
   -0.1218    2.8153    1.0303 C   0  0  0  0  0  0  0  0  0  0  0  0
   -1.6229    3.1456    1.0666 C   0  0  0  0  0  0  0  0  0  0  0  0
   -2.4699    2.1154    0.2925 C   0  0  0  0  0  0  0  0  0  0  0  0
   -2.0292    0.7312    0.6369 C   0  0  0  0  0  0  0  0  0  0  0  0
   -0.8059    0.4210    1.2049 C   0  0  0  0  0  0  0  0  0  0  0  0
   -0.7688   -0.9788    1.2178 C   0  0  0  0  0  0  0  0  0  0  0  0
   -1.8436   -1.5210    0.6486 N   0  0  0  0  0  0  0  0  0  0  0  0
   -2.6506   -0.4708    0.3301 N   0  0  0  0  0  0  0  0  0  0  0  0
   -3.9584   -0.7062   -0.1876 C   0  0  0  0  0  0  0  0  0  0  0  0
   -5.0162    0.0770    0.3012 C   0  0  0  0  0  0  0  0  0  0  0  0
   -6.3211   -0.1459   -0.1282 C   0  0  0  0  0  0  0  0  0  0  0  0
   -6.5883   -1.1695   -1.0298 C   0  0  0  0  0  0  0  0  0  0  0  0
   -5.5567   -1.9879   -1.5171 C   0  0  0  0  0  0  0  0  0  0  0  0
   -5.9204   -3.0911   -2.4769 C   0  0  0  0  0  0  0  0  0  0  0  0
   -4.2163   -1.7456   -1.1204 C   0  0  0  0  0  0  0  0  0  0  0  0
   -3.1026   -2.5874   -1.6991 C   0  0  0  0  0  0  0  0  0  0  0  0
    4.1666    0.2643    0.2243 C   0  0  0  0  0  0  0  0  0  0  0  0
    3.0622   -0.1449   -0.5012 O   0  0  0  0  0  0  0  0  0  0  0  0
    3.3805   -0.9602   -1.6268 C   0  0  0  0  0  0  0  0  0  0  0  0
    5.3906   -0.1027   -0.2343 N   0  0  0  0  0  0  0  0  0  0  0  0
    8.7935   -1.0360   -1.3700 H   0  0  0  0  0  0  0  0  0  0  0  0
    7.3155   -0.2742   -1.9714 H   0  0  0  0  0  0  0  0  0  0  0  0
    7.2380   -1.7763   -0.9711 H   0  0  0  0  0  0  0  0  0  0  0  0
    7.2720    1.3843    2.1482 H   0  0  0  0  0  0  0  0  0  0  0  0
    5.0231    2.0488    2.9720 H   0  0  0  0  0  0  0  0  0  0  0  0
    1.6147    0.4869    0.4108 H   0  0  0  0  0  0  0  0  0  0  0  0
    0.1336    1.5205    2.7541 H   0  0  0  0  0  0  0  0  0  0  0  0
    0.2168    2.8362   -0.0148 H   0  0  0  0  0  0  0  0  0  0  0  0
    0.4428    3.5965    1.5531 H   0  0  0  0  0  0  0  0  0  0  0  0
   -1.7937    4.1434    0.6466 H   0  0  0  0  0  0  0  0  0  0  0  0
   -1.9541    3.1780    2.1127 H   0  0  0  0  0  0  0  0  0  0  0  0
   -3.5189    2.3056    0.5192 H   0  0  0  0  0  0  0  0  0  0  0  0
   -2.3322    2.2699   -0.7846 H   0  0  0  0  0  0  0  0  0  0  0  0
    0.0117   -1.6301    1.5912 H   0  0  0  0  0  0  0  0  0  0  0  0
   -4.8600    0.8199    1.0774 H   0  0  0  0  0  0  0  0  0  0  0  0
   -7.1350    0.4583    0.2641 H   0  0  0  0  0  0  0  0  0  0  0  0
   -7.6172   -1.3391   -1.3410 H   0  0  0  0  0  0  0  0  0  0  0  0
   -5.5870   -2.8374   -3.4880 H   0  0  0  0  0  0  0  0  0  0  0  0
   -5.4691   -4.0384   -2.1646 H   0  0  0  0  0  0  0  0  0  0  0  0
   -7.0034   -3.2521   -2.5114 H   0  0  0  0  0  0  0  0  0  0  0  0
   -3.3649   -2.9983   -2.6784 H   0  0  0  0  0  0  0  0  0  0  0  0
   -2.8707   -3.4212   -1.0298 H   0  0  0  0  0  0  0  0  0  0  0  0
   -2.2038   -1.9887   -1.8791 H   0  0  0  0  0  0  0  0  0  0  0  0
    2.4394   -1.2380   -2.1111 H   0  0  0  0  0  0  0  0  0  0  0  0
    3.9811   -0.4085   -2.3582 H   0  0  0  0  0  0  0  0  0  0  0  0
    3.8814   -1.8844   -1.3187 H   0  0  0  0  0  0  0  0  0  0  0  0
  1  2  1  0
  2  3  1  0
  3  4  2  0
  4  5  1  0
  5  6  2  0
  6  7  1  0
  7  8  2  0
  7  9  1  0
  9 10  1  0
 10 11  1  0
 11 12  1  0
 12 13  1  0
 13 14  1  0
 14 15  2  0
 15 16  1  0
 16 17  2  0
 17 18  1  0
 18 19  1  0
 19 20  2  0
 20 21  1  0
 21 22  2  0
 22 23  1  0
 23 24  1  0
 23 25  2  0
 25 26  1  0
  6 27  1  0
 27 28  1  0
 28 29  1  0
 27 30  2  0
 30  3  1  0
 15 10  1  0
 25 19  1  0
 18 14  1  0
  1 31  1  0
  1 32  1  0
  1 33  1  0
  4 34  1  0
  5 35  1  0
  9 36  1  0
 10 37  1  0
 11 38  1  0
 11 39  1  0
 12 40  1  0
 12 41  1  0
 13 42  1  0
 13 43  1  0
 16 44  1  0
 20 45  1  0
 21 46  1  0
 22 47  1  0
 24 48  1  0
 24 49  1  0
 24 50  1  0
 26 51  1  0
 26 52  1  0
 26 53  1  0
 29 54  1  0
 29 55  1  0
 29 56  1  0
M  END
$$$$
