
     RDKit          3D

 54 56  0  0  0  0  0  0  0  0999 V2000
   -5.3743    0.0800    0.7738 C   0  0  0  0  0  0  0  0  0  0  0  0
   -4.6014    0.8073    1.8585 C   0  0  0  0  0  0  0  0  0  0  0  0
   -3.2675    1.0793    1.4130 O   0  0  0  0  0  0  0  0  0  0  0  0
   -2.3448    0.0983    1.6207 C   0  0  0  0  0  0  0  0  0  0  0  0
   -2.6017   -0.9664    2.1721 O   0  0  0  0  0  0  0  0  0  0  0  0
   -1.0097    0.4372    1.1210 C   0  0  0  0  0  0  0  0  0  0  0  0
   -0.7760    1.3209    0.0727 C   0  0  0  0  0  0  0  0  0  0  0  0
   -1.6377    2.0469   -0.6899 N   0  0  0  0  0  0  0  0  0  0  0  0
   -2.2082    1.3850   -1.6444 C   0  0  0  0  0  0  0  0  0  0  0  0
   -3.1263    1.8846   -2.5422 N   0  0  0  0  0  0  0  0  0  0  0  0
   -3.7173    3.1945   -2.3010 C   0  0  0  0  0  0  0  0  0  0  0  0
   -3.9001    0.9773   -3.3740 C   0  0  0  0  0  0  0  0  0  0  0  0
    0.9019    1.5112   -0.2275 S   0  0  0  0  0  0  0  0  0  0  0  0
    1.3415    0.3515    0.9393 C   0  0  0  0  0  0  0  0  0  0  0  0
    2.7379    0.0472    1.1925 C   0  0  0  0  0  0  0  0  0  0  0  0
    3.7043   -0.1619    0.3432 N   0  0  0  0  0  0  0  0  0  0  0  0
    3.4236   -0.1352   -0.9869 N   0  0  0  0  0  0  0  0  0  0  0  0
    4.4960   -0.2549   -1.8990 C   0  0  0  0  0  0  0  0  0  0  0  0
    4.2717    0.0114   -3.2585 C   0  0  0  0  0  0  0  0  0  0  0  0
    5.2888   -0.1579   -4.2016 C   0  0  0  0  0  0  0  0  0  0  0  0
    6.5409   -0.6179   -3.8014 C   0  0  0  0  0  0  0  0  0  0  0  0
    6.7722   -0.9149   -2.4610 C   0  0  0  0  0  0  0  0  0  0  0  0
    5.7524   -0.7448   -1.5203 C   0  0  0  0  0  0  0  0  0  0  0  0
    0.2312   -0.1261    1.6180 C   0  0  0  0  0  0  0  0  0  0  0  0
    0.3809   -1.0778    2.7144 C   0  0  0  0  0  0  0  0  0  0  0  0
    0.7704   -2.3996    2.4558 C   0  0  0  0  0  0  0  0  0  0  0  0
    0.9304   -3.3014    3.5112 C   0  0  0  0  0  0  0  0  0  0  0  0
    0.6979   -2.8828    4.8211 C   0  0  0  0  0  0  0  0  0  0  0  0
    0.8989   -3.9934    6.1204 Cl  0  0  0  0  0  0  0  0  0  0  0  0
    0.3066   -1.5702    5.0866 C   0  0  0  0  0  0  0  0  0  0  0  0
    0.1479   -0.6655    4.0334 C   0  0  0  0  0  0  0  0  0  0  0  0
   -5.3685    0.6603   -0.1562 H   0  0  0  0  0  0  0  0  0  0  0  0
   -6.4110   -0.0850    1.0814 H   0  0  0  0  0  0  0  0  0  0  0  0
   -4.9185   -0.8888    0.5473 H   0  0  0  0  0  0  0  0  0  0  0  0
   -4.6038    0.2466    2.8008 H   0  0  0  0  0  0  0  0  0  0  0  0
   -5.0734    1.7751    2.0597 H   0  0  0  0  0  0  0  0  0  0  0  0
   -1.9915    0.3128   -1.8218 H   0  0  0  0  0  0  0  0  0  0  0  0
   -4.4700    3.1326   -1.5083 H   0  0  0  0  0  0  0  0  0  0  0  0
   -2.9570    3.9259   -2.0067 H   0  0  0  0  0  0  0  0  0  0  0  0
   -4.1985    3.5802   -3.2054 H   0  0  0  0  0  0  0  0  0  0  0  0
   -3.2602    0.1942   -3.7967 H   0  0  0  0  0  0  0  0  0  0  0  0
   -4.3628    1.5071   -4.2130 H   0  0  0  0  0  0  0  0  0  0  0  0
   -4.6912    0.5004   -2.7850 H   0  0  0  0  0  0  0  0  0  0  0  0
    3.0166   -0.0584    2.2570 H   0  0  0  0  0  0  0  0  0  0  0  0
    2.6981    0.5043   -1.3118 H   0  0  0  0  0  0  0  0  0  0  0  0
    3.2970    0.3554   -3.5947 H   0  0  0  0  0  0  0  0  0  0  0  0
    5.0996    0.0638   -5.2481 H   0  0  0  0  0  0  0  0  0  0  0  0
    7.3330   -0.7529   -4.5339 H   0  0  0  0  0  0  0  0  0  0  0  0
    7.7426   -1.2860   -2.1432 H   0  0  0  0  0  0  0  0  0  0  0  0
    5.9441   -0.9956   -0.4803 H   0  0  0  0  0  0  0  0  0  0  0  0
    0.9486   -2.7381    1.4360 H   0  0  0  0  0  0  0  0  0  0  0  0
    1.2336   -4.3251    3.3038 H   0  0  0  0  0  0  0  0  0  0  0  0
    0.1219   -1.2465    6.1079 H   0  0  0  0  0  0  0  0  0  0  0  0
   -0.1592    0.3555    4.2517 H   0  0  0  0  0  0  0  0  0  0  0  0
  1  2  1  0
  2  3  1  0
  3  4  1  0
  4  5  2  0
  4  6  1  0
  6  7  2  0
  7  8  1  0
  8  9  2  3
  9 10  1  0
 10 11  1  0
 10 12  1  0
  7 13  1  0
 13 14  1  0
 14 15  1  0
 15 16  2  3
 16 17  1  0
 17 18  1  0
 18 19  2  0
 19 20  1  0
 20 21  2  0
 21 22  1  0
 22 23  2  0
 14 24  2  0
 24 25  1  0
 25 26  2  0
 26 27  1  0
 27 28  2  0
 28 29  1  0
 28 30  1  0
 30 31  2  0
 24  6  1  0
 31 25  1  0
 23 18  1  0
  1 32  1  0
  1 33  1  0
  1 34  1  0
  2 35  1  0
  2 36  1  0
  9 37  1  0
 11 38  1  0
 11 39  1  0
 11 40  1  0
 12 41  1  0
 12 42  1  0
 12 43  1  0
 15 44  1  0
 17 45  1  0
 19 46  1  0
 20 47  1  0
 21 48  1  0
 22 49  1  0
 23 50  1  0
 26 51  1  0
 27 52  1  0
 30 53  1  0
 31 54  1  0
M  END
$$$$
