
     RDKit          3D

 48 48  0  0  0  0  0  0  0  0999 V2000
    3.6251    2.0413    0.2538 C   0  0  0  0  0  0  0  0  0  0  0  0
    3.7455    0.8996   -0.7600 C   0  0  0  0  0  0  0  0  0  0  0  0
    2.5535    0.8863   -1.7328 C   0  0  0  0  0  0  0  0  0  0  0  0
    1.2793    0.5995   -1.1024 N   0  0  0  0  0  0  0  0  0  0  0  0
    0.1786    0.2904   -1.8795 C   0  0  0  0  0  0  0  0  0  0  0  0
    0.2234    0.1625   -3.0985 O   0  0  0  0  0  0  0  0  0  0  0  0
   -1.1149    0.1570   -1.1552 C   0  0  0  0  0  0  0  0  0  0  0  0
   -2.2973    0.4539   -1.8337 C   0  0  0  0  0  0  0  0  0  0  0  0
   -3.5299    0.3386   -1.1824 C   0  0  0  0  0  0  0  0  0  0  0  0
   -3.6184   -0.0912    0.1565 C   0  0  0  0  0  0  0  0  0  0  0  0
   -4.9934   -0.2003    0.8413 C   0  0  0  0  0  0  0  0  0  0  0  0
   -5.9229   -1.1224    0.0225 C   0  0  0  0  0  0  0  0  0  0  0  0
   -4.9334   -0.7766    2.2739 C   0  0  0  0  0  0  0  0  0  0  0  0
   -5.6248    1.2047    0.9357 C   0  0  0  0  0  0  0  0  0  0  0  0
   -2.4152   -0.3989    0.8157 C   0  0  0  0  0  0  0  0  0  0  0  0
   -1.1770   -0.2788    0.1702 C   0  0  0  0  0  0  0  0  0  0  0  0
    3.9152   -0.4756   -0.0744 C   0  0  0  0  0  0  0  0  0  0  0  0
    5.0790   -0.5616    0.8300 N   0  0  0  0  0  0  0  0  0  0  0  0
    4.9983   -1.7847    1.6354 C   0  0  0  0  0  0  0  0  0  0  0  0
    6.3461   -0.5447    0.0927 C   0  0  0  0  0  0  0  0  0  0  0  0
    3.4513    2.9935   -0.2578 H   0  0  0  0  0  0  0  0  0  0  0  0
    4.5456    2.1487    0.8374 H   0  0  0  0  0  0  0  0  0  0  0  0
    2.8025    1.8771    0.9561 H   0  0  0  0  0  0  0  0  0  0  0  0
    4.6307    1.1016   -1.3745 H   0  0  0  0  0  0  0  0  0  0  0  0
    2.7254    0.1396   -2.5189 H   0  0  0  0  0  0  0  0  0  0  0  0
    2.4581    1.8590   -2.2316 H   0  0  0  0  0  0  0  0  0  0  0  0
    1.0949    1.0153   -0.1978 H   0  0  0  0  0  0  0  0  0  0  0  0
   -2.2649    0.7817   -2.8705 H   0  0  0  0  0  0  0  0  0  0  0  0
   -4.4272    0.5927   -1.7435 H   0  0  0  0  0  0  0  0  0  0  0  0
   -6.8901   -1.2543    0.5229 H   0  0  0  0  0  0  0  0  0  0  0  0
   -6.1339   -0.7210   -0.9747 H   0  0  0  0  0  0  0  0  0  0  0  0
   -5.4764   -2.1155   -0.1085 H   0  0  0  0  0  0  0  0  0  0  0  0
   -4.3363   -0.1438    2.9401 H   0  0  0  0  0  0  0  0  0  0  0  0
   -4.5034   -1.7847    2.2839 H   0  0  0  0  0  0  0  0  0  0  0  0
   -5.9356   -0.8470    2.7139 H   0  0  0  0  0  0  0  0  0  0  0  0
   -4.9819    1.8884    1.5045 H   0  0  0  0  0  0  0  0  0  0  0  0
   -5.7858    1.6516   -0.0510 H   0  0  0  0  0  0  0  0  0  0  0  0
   -6.5999    1.1684    1.4378 H   0  0  0  0  0  0  0  0  0  0  0  0
   -2.4079   -0.7474    1.8450 H   0  0  0  0  0  0  0  0  0  0  0  0
   -0.2754   -0.5570    0.7096 H   0  0  0  0  0  0  0  0  0  0  0  0
    3.9677   -1.2652   -0.8378 H   0  0  0  0  0  0  0  0  0  0  0  0
    3.0076   -0.6712    0.5129 H   0  0  0  0  0  0  0  0  0  0  0  0
    5.8465   -1.8486    2.3264 H   0  0  0  0  0  0  0  0  0  0  0  0
    4.0951   -1.7766    2.2539 H   0  0  0  0  0  0  0  0  0  0  0  0
    4.9879   -2.6892    1.0168 H   0  0  0  0  0  0  0  0  0  0  0  0
    7.1922   -0.6476    0.7820 H   0  0  0  0  0  0  0  0  0  0  0  0
    6.4942    0.4091   -0.4217 H   0  0  0  0  0  0  0  0  0  0  0  0
    6.4028   -1.3566   -0.6440 H   0  0  0  0  0  0  0  0  0  0  0  0
  1  2  1  0
  2  3  1  0
  3  4  1  0
  4  5  1  0
  5  6  2  0
  5  7  1  0
  7  8  2  0
  8  9  1  0
  9 10  2  0
 10 11  1  0
 11 12  1  0
 11 13  1  0
 11 14  1  0
 10 15  1  0
 15 16  2  0
  2 17  1  0
 17 18  1  0
 18 19  1  0
 18 20  1  0
 16  7  1  0
  1 21  1  0
  1 22  1  0
  1 23  1  0
  2 24  1  0
  3 25  1  0
  3 26  1  0
  4 27  1  0
  8 28  1  0
  9 29  1  0
 12 30  1  0
 12 31  1  0
 12 32  1  0
 13 33  1  0
 13 34  1  0
 13 35  1  0
 14 36  1  0
 14 37  1  0
 14 38  1  0
 15 39  1  0
 16 40  1  0
 17 41  1  0
 17 42  1  0
 19 43  1  0
 19 44  1  0
 19 45  1  0
 20 46  1  0
 20 47  1  0
 20 48  1  0
M  END
$$$$
