
     RDKit          3D

 53 58  0  0  0  0  0  0  0  0999 V2000
    7.0760    1.9112    0.6412 C   0  0  0  0  0  0  0  0  0  0  0  0
    6.1779    1.3973    1.7529 C   0  0  0  0  0  0  0  0  0  0  0  0
    4.8396    1.8581    1.5753 O   0  0  0  0  0  0  0  0  0  0  0  0
    3.9697    1.0911    0.8537 C   0  0  0  0  0  0  0  0  0  0  0  0
    2.6467    1.5335    0.8808 C   0  0  0  0  0  0  0  0  0  0  0  0
    1.6442    0.8489    0.1861 C   0  0  0  0  0  0  0  0  0  0  0  0
    1.9463   -0.2954   -0.5654 C   0  0  0  0  0  0  0  0  0  0  0  0
    0.8914   -1.0794   -1.3409 C   0  0  0  0  0  0  0  0  0  0  0  0
    0.2913   -0.2632   -2.4143 N   0  0  0  0  0  0  0  0  0  0  0  0
   -0.8299    0.5022   -2.0474 C   0  0  0  0  0  0  0  0  0  0  0  0
   -1.1421    1.6369   -2.7964 C   0  0  0  0  0  0  0  0  0  0  0  0
   -2.1889    2.4676   -2.4123 C   0  0  0  0  0  0  0  0  0  0  0  0
   -2.9136    2.2066   -1.2458 C   0  0  0  0  0  0  0  0  0  0  0  0
   -3.8938    3.1207   -0.8234 C   0  0  0  0  0  0  0  0  0  0  0  0
   -4.5888    2.9305    0.3678 C   0  0  0  0  0  0  0  0  0  0  0  0
   -4.2989    1.8306    1.1598 C   0  0  0  0  0  0  0  0  0  0  0  0
   -3.3361    0.9076    0.7424 C   0  0  0  0  0  0  0  0  0  0  0  0
   -2.6431    1.0375   -0.4884 C   0  0  0  0  0  0  0  0  0  0  0  0
   -1.6715    0.1089   -0.9814 C   0  0  0  0  0  0  0  0  0  0  0  0
   -1.4365   -1.2584   -0.4086 C   0  0  0  0  0  0  0  0  0  0  0  0
   -0.1730   -1.7260   -0.4985 C   0  0  0  0  0  0  0  0  0  0  0  0
    0.2597   -2.9822    0.1549 C   0  0  0  0  0  0  0  0  0  0  0  0
    1.3809   -3.4522   -0.0097 O   0  0  0  0  0  0  0  0  0  0  0  0
   -0.6383   -3.5770    1.0240 O   0  0  0  0  0  0  0  0  0  0  0  0
   -2.0020   -3.2964    0.8775 C   0  0  0  0  0  0  0  0  0  0  0  0
   -2.8887   -4.2100    1.4505 C   0  0  0  0  0  0  0  0  0  0  0  0
   -4.2547   -4.0614    1.2341 C   0  0  0  0  0  0  0  0  0  0  0  0
   -4.7145   -3.0199    0.4313 C   0  0  0  0  0  0  0  0  0  0  0  0
   -3.8104   -2.1085   -0.1272 C   0  0  0  0  0  0  0  0  0  0  0  0
   -2.4358   -2.2048    0.1304 C   0  0  0  0  0  0  0  0  0  0  0  0
    3.2828   -0.7300   -0.5873 C   0  0  0  0  0  0  0  0  0  0  0  0
    4.2841   -0.0442    0.1126 C   0  0  0  0  0  0  0  0  0  0  0  0
    6.7649    1.5276   -0.3349 H   0  0  0  0  0  0  0  0  0  0  0  0
    8.1147    1.6166    0.8162 H   0  0  0  0  0  0  0  0  0  0  0  0
    7.0256    3.0036    0.5826 H   0  0  0  0  0  0  0  0  0  0  0  0
    6.2380    0.3098    1.8709 H   0  0  0  0  0  0  0  0  0  0  0  0
    6.5270    1.8208    2.7017 H   0  0  0  0  0  0  0  0  0  0  0  0
    2.3890    2.4211    1.4543 H   0  0  0  0  0  0  0  0  0  0  0  0
    0.6289    1.2306    0.2460 H   0  0  0  0  0  0  0  0  0  0  0  0
    1.4090   -1.8748   -1.8941 H   0  0  0  0  0  0  0  0  0  0  0  0
    0.9948    0.2923   -2.8942 H   0  0  0  0  0  0  0  0  0  0  0  0
   -0.5535    1.8969   -3.6722 H   0  0  0  0  0  0  0  0  0  0  0  0
   -2.3968    3.3539   -3.0082 H   0  0  0  0  0  0  0  0  0  0  0  0
   -4.1123    4.0069   -1.4164 H   0  0  0  0  0  0  0  0  0  0  0  0
   -5.3368    3.6521    0.6850 H   0  0  0  0  0  0  0  0  0  0  0  0
   -4.8122    1.6877    2.1072 H   0  0  0  0  0  0  0  0  0  0  0  0
   -3.1141    0.0847    1.4177 H   0  0  0  0  0  0  0  0  0  0  0  0
   -2.5133   -5.0451    2.0352 H   0  0  0  0  0  0  0  0  0  0  0  0
   -4.9567   -4.7705    1.6649 H   0  0  0  0  0  0  0  0  0  0  0  0
   -5.7784   -2.9166    0.2305 H   0  0  0  0  0  0  0  0  0  0  0  0
   -4.2035   -1.3258   -0.7725 H   0  0  0  0  0  0  0  0  0  0  0  0
    3.5591   -1.6241   -1.1453 H   0  0  0  0  0  0  0  0  0  0  0  0
    5.2965   -0.4278    0.0498 H   0  0  0  0  0  0  0  0  0  0  0  0
  1  2  1  0
  2  3  1  0
  3  4  1  0
  4  5  2  0
  5  6  1  0
  6  7  2  0
  7  8  1  0
  8  9  1  0
  9 10  1  0
 10 11  2  0
 11 12  1  0
 12 13  2  0
 13 14  1  0
 14 15  2  0
 15 16  1  0
 16 17  2  0
 17 18  1  0
 18 19  2  0
 19 20  1  0
 20 21  2  0
 21 22  1  0
 22 23  2  0
 22 24  1  0
 24 25  1  0
 25 26  2  0
 26 27  1  0
 27 28  2  0
 28 29  1  0
 29 30  2  0
  7 31  1  0
 31 32  2  0
 32  4  1  0
 21  8  1  0
 30 25  1  0
 19 10  1  0
 30 20  1  0
 18 13  1  0
  1 33  1  0
  1 34  1  0
  1 35  1  0
  2 36  1  0
  2 37  1  0
  5 38  1  0
  6 39  1  0
  8 40  1  0
  9 41  1  0
 11 42  1  0
 12 43  1  0
 14 44  1  0
 15 45  1  0
 16 46  1  0
 17 47  1  0
 26 48  1  0
 27 49  1  0
 28 50  1  0
 29 51  1  0
 31 52  1  0
 32 53  1  0
M  END
$$$$
