
     RDKit          3D

 56 59  0  0  0  0  0  0  0  0999 V2000
   -0.5069    4.7001    1.7611 C   0  0  0  0  0  0  0  0  0  0  0  0
   -1.6614    3.8514    2.2575 C   0  0  0  0  0  0  0  0  0  0  0  0
   -1.6315    2.6049    1.5495 O   0  0  0  0  0  0  0  0  0  0  0  0
   -2.6950    1.7817    1.8130 C   0  0  0  0  0  0  0  0  0  0  0  0
   -3.5991    2.0811    2.5846 O   0  0  0  0  0  0  0  0  0  0  0  0
   -2.6451    0.5122    1.0750 C   0  0  0  0  0  0  0  0  0  0  0  0
   -1.5855    0.0919    0.2734 C   0  0  0  0  0  0  0  0  0  0  0  0
   -0.4107    0.7880    0.0185 N   0  0  0  0  0  0  0  0  0  0  0  0
    0.7035    0.3560   -0.6968 C   0  0  0  0  0  0  0  0  0  0  0  0
    0.8373   -0.7192   -1.2733 O   0  0  0  0  0  0  0  0  0  0  0  0
    1.7862    1.4462   -0.7306 C   0  0  0  0  0  0  0  0  0  0  0  0
    3.0887    0.8991   -1.0769 N   0  0  0  0  0  0  0  0  0  0  0  0
    3.5374    1.1191   -2.3588 N   0  0  0  0  0  0  0  0  0  0  0  0
    4.6753    0.5986   -2.7125 C   0  0  0  0  0  0  0  0  0  0  0  0
    5.1381    0.8695   -4.1330 C   0  0  0  0  0  0  0  0  0  0  0  0
    6.0731    1.5905   -4.4132 O   0  0  0  0  0  0  0  0  0  0  0  0
    4.4111    0.2049   -5.0355 O   0  0  0  0  0  0  0  0  0  0  0  0
    5.5259   -0.2045   -1.8243 C   0  0  0  0  0  0  0  0  0  0  0  0
    6.7423   -0.7672   -2.2322 C   0  0  0  0  0  0  0  0  0  0  0  0
    7.5008   -1.5149   -1.3261 C   0  0  0  0  0  0  0  0  0  0  0  0
    7.0491   -1.7037   -0.0202 C   0  0  0  0  0  0  0  0  0  0  0  0
    5.8386   -1.1419    0.3856 C   0  0  0  0  0  0  0  0  0  0  0  0
    5.0786   -0.3904   -0.5204 C   0  0  0  0  0  0  0  0  0  0  0  0
    3.7990    0.2100   -0.0996 C   0  0  0  0  0  0  0  0  0  0  0  0
    3.4181    0.0921    1.0636 O   0  0  0  0  0  0  0  0  0  0  0  0
   -1.8572   -1.4366   -0.4156 S   0  0  0  0  0  0  0  0  0  0  0  0
   -3.3633   -1.5955    0.3386 C   0  0  0  0  0  0  0  0  0  0  0  0
   -3.6956   -0.4897    1.0946 C   0  0  0  0  0  0  0  0  0  0  0  0
   -4.9940   -0.4230    1.8541 C   0  0  0  0  0  0  0  0  0  0  0  0
   -5.9886   -1.5108    1.4135 C   0  0  0  0  0  0  0  0  0  0  0  0
   -5.3042   -2.8818    1.2415 C   0  0  0  0  0  0  0  0  0  0  0  0
   -6.3292   -3.9639    0.9101 C   0  0  0  0  0  0  0  0  0  0  0  0
   -4.2171   -2.8121    0.1480 C   0  0  0  0  0  0  0  0  0  0  0  0
    0.4464    4.1804    1.9093 H   0  0  0  0  0  0  0  0  0  0  0  0
   -0.6008    4.8875    0.6849 H   0  0  0  0  0  0  0  0  0  0  0  0
   -0.4743    5.6587    2.2862 H   0  0  0  0  0  0  0  0  0  0  0  0
   -1.5523    3.6623    3.3311 H   0  0  0  0  0  0  0  0  0  0  0  0
   -2.6087    4.3696    2.0678 H   0  0  0  0  0  0  0  0  0  0  0  0
   -0.3478    1.6887    0.4818 H   0  0  0  0  0  0  0  0  0  0  0  0
    1.4973    2.2013   -1.4706 H   0  0  0  0  0  0  0  0  0  0  0  0
    1.8579    1.9249    0.2533 H   0  0  0  0  0  0  0  0  0  0  0  0
    4.7526    0.4920   -5.9075 H   0  0  0  0  0  0  0  0  0  0  0  0
    7.1230   -0.6365   -3.2425 H   0  0  0  0  0  0  0  0  0  0  0  0
    8.4484   -1.9507   -1.6380 H   0  0  0  0  0  0  0  0  0  0  0  0
    7.6371   -2.2891    0.6828 H   0  0  0  0  0  0  0  0  0  0  0  0
    5.4869   -1.2918    1.4049 H   0  0  0  0  0  0  0  0  0  0  0  0
   -5.4672    0.5554    1.7181 H   0  0  0  0  0  0  0  0  0  0  0  0
   -4.7772   -0.5442    2.9227 H   0  0  0  0  0  0  0  0  0  0  0  0
   -6.4496   -1.2140    0.4611 H   0  0  0  0  0  0  0  0  0  0  0  0
   -6.7977   -1.5754    2.1518 H   0  0  0  0  0  0  0  0  0  0  0  0
   -4.8266   -3.1475    2.1947 H   0  0  0  0  0  0  0  0  0  0  0  0
   -5.8408   -4.9353    0.7815 H   0  0  0  0  0  0  0  0  0  0  0  0
   -6.8728   -3.7328   -0.0114 H   0  0  0  0  0  0  0  0  0  0  0  0
   -7.0615   -4.0614    1.7180 H   0  0  0  0  0  0  0  0  0  0  0  0
   -3.6077   -3.7231    0.1800 H   0  0  0  0  0  0  0  0  0  0  0  0
   -4.6838   -2.7614   -0.8449 H   0  0  0  0  0  0  0  0  0  0  0  0
  1  2  1  0
  2  3  1  0
  3  4  1  0
  4  5  2  0
  4  6  1  0
  6  7  2  0
  7  8  1  0
  8  9  1  0
  9 10  2  0
  9 11  1  0
 11 12  1  0
 12 13  1  0
 13 14  2  0
 14 15  1  0
 15 16  2  0
 15 17  1  0
 14 18  1  0
 18 19  2  0
 19 20  1  0
 20 21  2  0
 21 22  1  0
 22 23  2  0
 23 24  1  0
 24 25  2  0
  7 26  1  0
 26 27  1  0
 27 28  2  0
 28 29  1  0
 29 30  1  0
 30 31  1  0
 31 32  1  0
 31 33  1  0
 28  6  1  0
 24 12  1  0
 33 27  1  0
 23 18  1  0
  1 34  1  0
  1 35  1  0
  1 36  1  0
  2 37  1  0
  2 38  1  0
  8 39  1  0
 11 40  1  0
 11 41  1  0
 17 42  1  0
 19 43  1  0
 20 44  1  0
 21 45  1  0
 22 46  1  0
 29 47  1  0
 29 48  1  0
 30 49  1  0
 30 50  1  0
 31 51  1  0
 32 52  1  0
 32 53  1  0
 32 54  1  0
 33 55  1  0
 33 56  1  0
M  END
$$$$
