
     RDKit          3D

 61 61  0  0  0  0  0  0  0  0999 V2000
    6.9959    2.7208    1.8566 C   0  0  0  0  0  0  0  0  0  0  0  0
    6.0384    1.5854    1.5278 C   0  0  0  0  0  0  0  0  0  0  0  0
    4.5846    1.9971    1.7627 C   0  0  0  0  0  0  0  0  0  0  0  0
    3.5870    0.8541    1.5547 C   0  0  0  0  0  0  0  0  0  0  0  0
    3.5158    0.3645    0.1057 C   0  0  0  0  0  0  0  0  0  0  0  0
    2.4181   -0.6888   -0.0646 C   0  0  0  0  0  0  0  0  0  0  0  0
    2.3655   -1.2934   -1.4712 C   0  0  0  0  0  0  0  0  0  0  0  0
    2.0984   -0.3089   -2.6111 C   0  0  0  0  0  0  0  0  0  0  0  0
    0.8334    0.5496   -2.5048 C   0  0  0  0  0  0  0  0  0  0  0  0
   -0.4901   -0.2101   -2.6625 C   0  0  0  0  0  0  0  0  0  0  0  0
   -1.0680   -0.7140   -1.3388 C   0  0  0  0  0  0  0  0  0  0  0  0
   -2.4250   -1.4113   -1.4865 C   0  0  0  0  0  0  0  0  0  0  0  0
   -3.5498   -0.4596   -1.9007 C   0  0  0  0  0  0  0  0  0  0  0  0
   -4.9451   -1.0841   -1.8260 C   0  0  0  0  0  0  0  0  0  0  0  0
   -5.4318   -1.5302   -0.4415 C   0  0  0  0  0  0  0  0  0  0  0  0
   -5.6685   -0.4009    0.5610 C   0  0  0  0  0  0  0  0  0  0  0  0
   -4.4415    0.1266    1.1695 N   0  0  0  0  0  0  0  0  0  0  0  0
   -4.0606    1.4610    1.2033 C   0  0  0  0  0  0  0  0  0  0  0  0
   -2.8673    1.5159    1.8659 C   0  0  0  0  0  0  0  0  0  0  0  0
   -2.5620    0.2201    2.2455 N   0  0  0  0  0  4  0  0  0  0  0  0
   -1.3628   -0.1969    2.9604 C   0  0  0  0  0  0  0  0  0  0  0  0
   -3.5419   -0.6044    1.8472 C   0  0  0  0  0  0  0  0  0  0  0  0
    6.7937    3.5972    1.2325 H   0  0  0  0  0  0  0  0  0  0  0  0
    8.0296    2.4081    1.6789 H   0  0  0  0  0  0  0  0  0  0  0  0
    6.9070    3.0180    2.9064 H   0  0  0  0  0  0  0  0  0  0  0  0
    6.2850    0.7165    2.1487 H   0  0  0  0  0  0  0  0  0  0  0  0
    6.1880    1.2937    0.4829 H   0  0  0  0  0  0  0  0  0  0  0  0
    4.4774    2.3604    2.7924 H   0  0  0  0  0  0  0  0  0  0  0  0
    4.3257    2.8355    1.1045 H   0  0  0  0  0  0  0  0  0  0  0  0
    2.5946    1.2073    1.8620 H   0  0  0  0  0  0  0  0  0  0  0  0
    3.8431    0.0179    2.2166 H   0  0  0  0  0  0  0  0  0  0  0  0
    3.3213    1.2188   -0.5519 H   0  0  0  0  0  0  0  0  0  0  0  0
    4.4769   -0.0682   -0.1928 H   0  0  0  0  0  0  0  0  0  0  0  0
    1.4481   -0.2541    0.1991 H   0  0  0  0  0  0  0  0  0  0  0  0
    2.5926   -1.5049    0.6480 H   0  0  0  0  0  0  0  0  0  0  0  0
    1.6122   -2.0881   -1.4922 H   0  0  0  0  0  0  0  0  0  0  0  0
    3.3223   -1.7929   -1.6714 H   0  0  0  0  0  0  0  0  0  0  0  0
    2.0668   -0.8719   -3.5527 H   0  0  0  0  0  0  0  0  0  0  0  0
    2.9597    0.3645   -2.7019 H   0  0  0  0  0  0  0  0  0  0  0  0
    0.8851    1.2775   -3.3259 H   0  0  0  0  0  0  0  0  0  0  0  0
    0.8358    1.1429   -1.5840 H   0  0  0  0  0  0  0  0  0  0  0  0
   -1.2088    0.4846   -3.1129 H   0  0  0  0  0  0  0  0  0  0  0  0
   -0.3737   -1.0409   -3.3680 H   0  0  0  0  0  0  0  0  0  0  0  0
   -0.3812   -1.4315   -0.8826 H   0  0  0  0  0  0  0  0  0  0  0  0
   -1.1631    0.1206   -0.6340 H   0  0  0  0  0  0  0  0  0  0  0  0
   -2.6579   -1.8731   -0.5226 H   0  0  0  0  0  0  0  0  0  0  0  0
   -2.3469   -2.2288   -2.2133 H   0  0  0  0  0  0  0  0  0  0  0  0
   -3.3847   -0.1474   -2.9391 H   0  0  0  0  0  0  0  0  0  0  0  0
   -3.5161    0.4558   -1.3053 H   0  0  0  0  0  0  0  0  0  0  0  0
   -4.9699   -1.9555   -2.4929 H   0  0  0  0  0  0  0  0  0  0  0  0
   -5.6668   -0.3668   -2.2368 H   0  0  0  0  0  0  0  0  0  0  0  0
   -4.7623   -2.2876   -0.0229 H   0  0  0  0  0  0  0  0  0  0  0  0
   -6.3950   -2.0350   -0.5931 H   0  0  0  0  0  0  0  0  0  0  0  0
   -6.2832   -0.7750    1.3888 H   0  0  0  0  0  0  0  0  0  0  0  0
   -6.2210    0.4208    0.0916 H   0  0  0  0  0  0  0  0  0  0  0  0
   -4.6859    2.2009    0.7336 H   0  0  0  0  0  0  0  0  0  0  0  0
   -2.1898    2.3131    2.1196 H   0  0  0  0  0  0  0  0  0  0  0  0
   -0.5084   -0.1397    2.2805 H   0  0  0  0  0  0  0  0  0  0  0  0
   -1.4803   -1.2245    3.3142 H   0  0  0  0  0  0  0  0  0  0  0  0
   -1.2033    0.4636    3.8169 H   0  0  0  0  0  0  0  0  0  0  0  0
   -3.5894   -1.6723    2.0270 H   0  0  0  0  0  0  0  0  0  0  0  0
  1  2  1  0
  2  3  1  0
  3  4  1  0
  4  5  1  0
  5  6  1  0
  6  7  1  0
  7  8  1  0
  8  9  1  0
  9 10  1  0
 10 11  1  0
 11 12  1  0
 12 13  1  0
 13 14  1  0
 14 15  1  0
 15 16  1  0
 16 17  1  0
 17 18  1  0
 18 19  2  0
 19 20  1  0
 20 21  1  0
 20 22  2  0
 22 17  1  0
  1 23  1  0
  1 24  1  0
  1 25  1  0
  2 26  1  0
  2 27  1  0
  3 28  1  0
  3 29  1  0
  4 30  1  0
  4 31  1  0
  5 32  1  0
  5 33  1  0
  6 34  1  0
  6 35  1  0
  7 36  1  0
  7 37  1  0
  8 38  1  0
  8 39  1  0
  9 40  1  0
  9 41  1  0
 10 42  1  0
 10 43  1  0
 11 44  1  0
 11 45  1  0
 12 46  1  0
 12 47  1  0
 13 48  1  0
 13 49  1  0
 14 50  1  0
 14 51  1  0
 15 52  1  0
 15 53  1  0
 16 54  1  0
 16 55  1  0
 18 56  1  0
 19 57  1  0
 21 58  1  0
 21 59  1  0
 21 60  1  0
 22 61  1  0
M  CHG  1  20   1
M  END
$$$$
