
     RDKit          3D

 39 41  0  0  0  0  0  0  0  0999 V2000
    4.9024    0.9350   -1.3474 C   0  0  0  0  0  0  0  0  0  0  0  0
    4.2490    0.4755   -0.0418 C   0  0  0  0  0  0  0  0  0  0  0  0
    4.9404   -0.7918    0.4629 C   0  0  0  0  0  0  0  0  0  0  0  0
    2.7384    0.2736   -0.2572 C   0  0  0  0  0  0  0  0  0  0  0  0
    1.9757   -0.0454    1.0345 C   0  0  0  0  0  0  0  0  0  0  0  0
    0.5333   -0.1025    0.8038 N   0  0  0  0  0  0  0  0  0  0  0  0
   -0.0059   -1.3178    0.3883 C   0  0  0  0  0  0  0  0  0  0  0  0
    0.6608   -2.3349    0.2120 O   0  0  0  0  0  0  0  0  0  0  0  0
   -1.4668   -1.3582    0.1442 C   0  0  0  0  0  0  0  0  0  0  0  0
   -2.0508   -2.5672   -0.2519 C   0  0  0  0  0  0  0  0  0  0  0  0
   -3.4148   -2.6278   -0.4993 C   0  0  0  0  0  0  0  0  0  0  0  0
   -4.1978   -1.4839   -0.3402 C   0  0  0  0  0  0  0  0  0  0  0  0
   -3.6429   -0.2502    0.0732 C   0  0  0  0  0  0  0  0  0  0  0  0
   -4.4212    0.9257    0.2662 C   0  0  0  0  0  0  0  0  0  0  0  0
   -5.7989    0.9695   -0.0267 N   0  0  0  0  0  0  0  0  0  0  0  0
   -3.7801    2.1350    0.5610 C   0  0  0  0  0  0  0  0  0  0  0  0
   -2.4073    2.1789    0.7807 C   0  0  0  0  0  0  0  0  0  0  0  0
   -1.6446    1.0137    0.6654 C   0  0  0  0  0  0  0  0  0  0  0  0
   -2.2400   -0.1992    0.3024 C   0  0  0  0  0  0  0  0  0  0  0  0
   -0.1856    1.0855    0.9108 C   0  0  0  0  0  0  0  0  0  0  0  0
    0.3235    2.1690    1.1881 O   0  0  0  0  0  0  0  0  0  0  0  0
    4.7920    0.1810   -2.1343 H   0  0  0  0  0  0  0  0  0  0  0  0
    4.4487    1.8661   -1.7034 H   0  0  0  0  0  0  0  0  0  0  0  0
    5.9721    1.1207   -1.2034 H   0  0  0  0  0  0  0  0  0  0  0  0
    4.3956    1.2673    0.7037 H   0  0  0  0  0  0  0  0  0  0  0  0
    4.5821   -1.0722    1.4579 H   0  0  0  0  0  0  0  0  0  0  0  0
    6.0223   -0.6390    0.5404 H   0  0  0  0  0  0  0  0  0  0  0  0
    4.7661   -1.6353   -0.2135 H   0  0  0  0  0  0  0  0  0  0  0  0
    2.3184    1.1859   -0.7007 H   0  0  0  0  0  0  0  0  0  0  0  0
    2.5697   -0.5255   -0.9906 H   0  0  0  0  0  0  0  0  0  0  0  0
    2.1905    0.7177    1.7917 H   0  0  0  0  0  0  0  0  0  0  0  0
    2.3036   -1.0066    1.4445 H   0  0  0  0  0  0  0  0  0  0  0  0
   -1.4417   -3.4608   -0.3768 H   0  0  0  0  0  0  0  0  0  0  0  0
   -3.8708   -3.5615   -0.8198 H   0  0  0  0  0  0  0  0  0  0  0  0
   -5.2592   -1.5683   -0.5599 H   0  0  0  0  0  0  0  0  0  0  0  0
   -6.2802    1.7613    0.3902 H   0  0  0  0  0  0  0  0  0  0  0  0
   -6.2888    0.1020    0.1627 H   0  0  0  0  0  0  0  0  0  0  0  0
   -4.3517    3.0575    0.6324 H   0  0  0  0  0  0  0  0  0  0  0  0
   -1.9353    3.1267    1.0331 H   0  0  0  0  0  0  0  0  0  0  0  0
  1  2  1  0
  2  3  1  0
  2  4  1  0
  4  5  1  0
  5  6  1  0
  6  7  1  0
  7  8  2  0
  7  9  1  0
  9 10  1  0
 10 11  2  0
 11 12  1  0
 12 13  2  0
 13 14  1  0
 14 15  1  0
 14 16  2  0
 16 17  1  0
 17 18  2  0
 18 19  1  0
 18 20  1  0
 20 21  2  0
 20  6  1  0
 19  9  2  0
 19 13  1  0
  1 22  1  0
  1 23  1  0
  1 24  1  0
  2 25  1  0
  3 26  1  0
  3 27  1  0
  3 28  1  0
  4 29  1  0
  4 30  1  0
  5 31  1  0
  5 32  1  0
 10 33  1  0
 11 34  1  0
 12 35  1  0
 15 36  1  0
 15 37  1  0
 16 38  1  0
 17 39  1  0
M  END
$$$$
