
     RDKit          3D

 55 57  0  0  0  0  0  0  0  0999 V2000
    7.8299   -1.0963    2.4675 C   0  0  0  0  0  0  0  0  0  0  0  0
    6.7704   -0.3283    1.6953 C   0  0  0  0  0  0  0  0  0  0  0  0
    5.8566   -1.2759    1.1437 O   0  0  0  0  0  0  0  0  0  0  0  0
    4.7455   -0.7951    0.4965 C   0  0  0  0  0  0  0  0  0  0  0  0
    4.5387    0.5507    0.1699 C   0  0  0  0  0  0  0  0  0  0  0  0
    3.3724    0.9493   -0.4933 C   0  0  0  0  0  0  0  0  0  0  0  0
    2.3995    0.0039   -0.8182 C   0  0  0  0  0  0  0  0  0  0  0  0
    1.1858    0.3941   -1.5575 C   0  0  0  0  0  0  0  0  0  0  0  0
    1.0835    0.0121   -2.7228 O   0  0  0  0  0  0  0  0  0  0  0  0
    0.0956    1.2036   -0.9196 C   0  0  0  0  0  0  0  0  0  0  0  0
    0.2164    1.7651    0.4586 C   0  0  0  0  0  0  0  0  0  0  0  0
    1.2165    2.1506    1.0328 O   0  0  0  0  0  0  0  0  0  0  0  0
   -1.1887    1.9003    1.0402 C   0  0  0  0  0  0  0  0  0  0  0  0
   -1.4747    2.5568    2.0161 O   0  0  0  0  0  0  0  0  0  0  0  0
   -2.0027    1.1639    0.2123 N   0  0  0  0  0  0  0  0  0  0  0  0
   -3.4509    1.0553    0.3639 C   0  0  0  0  0  0  0  0  0  0  0  0
   -4.2017    1.9565   -0.6370 C   0  0  0  0  0  0  0  0  0  0  0  0
   -5.6659    1.9716   -0.4639 N   0  0  0  0  0  0  0  0  0  0  0  0
   -6.2730    0.6698   -0.7487 C   0  0  0  0  0  0  0  0  0  0  0  0
   -6.2603    2.9938   -1.3297 C   0  0  0  0  0  0  0  0  0  0  0  0
   -1.2489    0.4476   -0.8114 C   0  0  0  0  0  0  0  0  0  0  0  0
   -1.1239   -1.0344   -0.4761 C   0  0  0  0  0  0  0  0  0  0  0  0
   -0.9087   -1.5036    0.8299 C   0  0  0  0  0  0  0  0  0  0  0  0
   -0.7576   -2.8672    1.0821 C   0  0  0  0  0  0  0  0  0  0  0  0
   -0.8200   -3.7835    0.0360 C   0  0  0  0  0  0  0  0  0  0  0  0
   -1.0403   -3.3377   -1.2635 C   0  0  0  0  0  0  0  0  0  0  0  0
   -1.1912   -1.9758   -1.5185 C   0  0  0  0  0  0  0  0  0  0  0  0
    2.6072   -1.3457   -0.5378 C   0  0  0  0  0  0  0  0  0  0  0  0
    3.7715   -1.7390    0.1266 C   0  0  0  0  0  0  0  0  0  0  0  0
    3.9681   -3.4222    0.4771 Cl  0  0  0  0  0  0  0  0  0  0  0  0
    7.3698   -1.6947    3.2600 H   0  0  0  0  0  0  0  0  0  0  0  0
    8.5541   -0.4128    2.9154 H   0  0  0  0  0  0  0  0  0  0  0  0
    8.3606   -1.7918    1.8060 H   0  0  0  0  0  0  0  0  0  0  0  0
    6.2494    0.3509    2.3802 H   0  0  0  0  0  0  0  0  0  0  0  0
    7.2563    0.2417    0.8931 H   0  0  0  0  0  0  0  0  0  0  0  0
    5.2699    1.3153    0.4114 H   0  0  0  0  0  0  0  0  0  0  0  0
    3.2371    1.9980   -0.7445 H   0  0  0  0  0  0  0  0  0  0  0  0
   -0.0418    2.0882   -1.5590 H   0  0  0  0  0  0  0  0  0  0  0  0
   -3.7226    0.0021    0.2400 H   0  0  0  0  0  0  0  0  0  0  0  0
   -3.7128    1.3529    1.3860 H   0  0  0  0  0  0  0  0  0  0  0  0
   -3.9411    1.6657   -1.6643 H   0  0  0  0  0  0  0  0  0  0  0  0
   -3.8189    2.9776   -0.5016 H   0  0  0  0  0  0  0  0  0  0  0  0
   -7.3660    0.7288   -0.6766 H   0  0  0  0  0  0  0  0  0  0  0  0
   -6.0159    0.3086   -1.7515 H   0  0  0  0  0  0  0  0  0  0  0  0
   -5.9626   -0.0822   -0.0142 H   0  0  0  0  0  0  0  0  0  0  0  0
   -6.0888    2.7845   -2.3922 H   0  0  0  0  0  0  0  0  0  0  0  0
   -7.3424    3.0635   -1.1616 H   0  0  0  0  0  0  0  0  0  0  0  0
   -5.8479    3.9831   -1.1053 H   0  0  0  0  0  0  0  0  0  0  0  0
   -1.7992    0.5564   -1.7556 H   0  0  0  0  0  0  0  0  0  0  0  0
   -0.8593   -0.8233    1.6772 H   0  0  0  0  0  0  0  0  0  0  0  0
   -0.5863   -3.2170    2.0983 H   0  0  0  0  0  0  0  0  0  0  0  0
   -0.6919   -4.8441    0.2333 H   0  0  0  0  0  0  0  0  0  0  0  0
   -1.0851   -4.0498   -2.0824 H   0  0  0  0  0  0  0  0  0  0  0  0
   -1.3397   -1.6515   -2.5485 H   0  0  0  0  0  0  0  0  0  0  0  0
    1.8758   -2.0906   -0.8404 H   0  0  0  0  0  0  0  0  0  0  0  0
  1  2  1  0
  2  3  1  0
  3  4  1  0
  4  5  2  0
  5  6  1  0
  6  7  2  0
  7  8  1  0
  8  9  2  0
  8 10  1  0
 10 11  1  0
 11 12  2  0
 11 13  1  0
 13 14  2  0
 13 15  1  0
 15 16  1  0
 16 17  1  0
 17 18  1  0
 18 19  1  0
 18 20  1  0
 15 21  1  0
 21 22  1  0
 22 23  2  0
 23 24  1  0
 24 25  2  0
 25 26  1  0
 26 27  2  0
  7 28  1  0
 28 29  2  0
 29 30  1  0
 29  4  1  0
 21 10  1  0
 27 22  1  0
  1 31  1  0
  1 32  1  0
  1 33  1  0
  2 34  1  0
  2 35  1  0
  5 36  1  0
  6 37  1  0
 10 38  1  0
 16 39  1  0
 16 40  1  0
 17 41  1  0
 17 42  1  0
 19 43  1  0
 19 44  1  0
 19 45  1  0
 20 46  1  0
 20 47  1  0
 20 48  1  0
 21 49  1  0
 23 50  1  0
 24 51  1  0
 25 52  1  0
 26 53  1  0
 27 54  1  0
 28 55  1  0
M  END
$$$$
