
     RDKit          3D

 62 65  0  0  0  0  0  0  0  0999 V2000
   -5.3001   -3.0845   -3.1733 C   0  0  0  0  0  0  0  0  0  0  0  0
   -5.1474   -1.8758   -2.2714 C   0  0  0  0  0  0  0  0  0  0  0  0
   -3.7601   -1.5881   -2.0530 O   0  0  0  0  0  0  0  0  0  0  0  0
   -3.1720   -2.2510   -1.0239 C   0  0  0  0  0  0  0  0  0  0  0  0
   -3.6967   -3.0767   -0.2951 O   0  0  0  0  0  0  0  0  0  0  0  0
   -1.7652   -1.8166   -0.9127 C   0  0  0  0  0  0  0  0  0  0  0  0
   -0.9019   -2.4377   -1.7628 C   0  0  0  0  0  0  0  0  0  0  0  0
   -1.2823   -3.5737   -2.6889 C   0  0  0  0  0  0  0  0  0  0  0  0
    0.4399   -2.1093   -1.8896 N   0  0  0  0  0  0  0  0  0  0  0  0
    0.9142   -1.2722   -1.0319 C   0  0  0  0  0  0  0  0  0  0  0  0
    2.6097   -0.8962   -0.9517 S   0  0  0  0  0  0  0  0  0  0  0  0
    2.4421   -0.2920    0.6785 C   0  0  0  0  0  0  0  0  0  0  0  0
    3.4902   -0.0227    1.4870 C   0  0  0  0  0  0  0  0  0  0  0  0
    3.3073    0.3825    2.8063 O   0  0  0  0  0  0  0  0  0  0  0  0
    4.9090   -0.1708    1.1062 C   0  0  0  0  0  0  0  0  0  0  0  0
    5.6860   -1.1652    1.7096 C   0  0  0  0  0  0  0  0  0  0  0  0
    7.0389   -1.2938    1.3842 C   0  0  0  0  0  0  0  0  0  0  0  0
    7.6332   -0.4411    0.4526 C   0  0  0  0  0  0  0  0  0  0  0  0
    8.9604   -0.6782    0.2273 O   0  0  0  0  0  0  0  0  0  0  0  0
    9.5760    0.0621   -0.8188 C   0  0  0  0  0  0  0  0  0  0  0  0
    6.8633    0.5561   -0.1477 C   0  0  0  0  0  0  0  0  0  0  0  0
    5.5089    0.6937    0.1821 C   0  0  0  0  0  0  0  0  0  0  0  0
    1.0093   -0.1757    1.0190 C   0  0  0  0  0  0  0  0  0  0  0  0
    0.6395    0.3165    2.2570 N   0  0  0  0  0  0  0  0  0  0  0  0
    0.1654   -0.5949    0.0480 C   0  0  0  0  0  0  0  0  0  0  0  0
   -1.3055   -0.6756   -0.0553 C   0  0  0  0  0  0  0  0  0  0  0  0
   -2.1384    0.2988    0.4348 C   0  0  0  0  0  0  0  0  0  0  0  0
   -1.6412    1.6619    0.7434 C   0  0  0  0  0  0  0  0  0  0  0  0
   -2.4833    2.6805    0.9931 C   0  0  0  0  0  0  0  0  0  0  0  0
   -3.9374    2.4775    0.9920 C   0  0  0  0  0  0  0  0  0  0  0  0
   -4.7803    3.5374    1.0953 C   0  0  0  0  0  0  0  0  0  0  0  0
   -6.1561    3.4006    1.0647 O   0  0  0  0  0  0  0  0  0  0  0  0
   -4.2614    4.8196    1.2123 O   0  0  0  0  0  0  0  0  0  0  0  0
   -5.1843    5.7524    1.7676 C   0  0  0  0  0  0  0  0  0  0  0  0
   -4.4176    1.0936    0.9666 C   0  0  0  0  0  0  0  0  0  0  0  0
   -3.5745    0.0794    0.7066 C   0  0  0  0  0  0  0  0  0  0  0  0
   -6.3560   -3.2733   -3.3894 H   0  0  0  0  0  0  0  0  0  0  0  0
   -4.8763   -3.9789   -2.7049 H   0  0  0  0  0  0  0  0  0  0  0  0
   -4.7692   -2.9319   -4.1188 H   0  0  0  0  0  0  0  0  0  0  0  0
   -5.5835   -0.9958   -2.7567 H   0  0  0  0  0  0  0  0  0  0  0  0
   -5.6765   -2.0167   -1.3233 H   0  0  0  0  0  0  0  0  0  0  0  0
   -1.2766   -3.2286   -3.7257 H   0  0  0  0  0  0  0  0  0  0  0  0
   -2.2606   -4.0112   -2.4856 H   0  0  0  0  0  0  0  0  0  0  0  0
   -0.5555   -4.3869   -2.5980 H   0  0  0  0  0  0  0  0  0  0  0  0
    4.1820    0.6296    3.1595 H   0  0  0  0  0  0  0  0  0  0  0  0
    5.2451   -1.8494    2.4299 H   0  0  0  0  0  0  0  0  0  0  0  0
    7.6345   -2.0714    1.8573 H   0  0  0  0  0  0  0  0  0  0  0  0
   10.6072   -0.2915   -0.9196 H   0  0  0  0  0  0  0  0  0  0  0  0
    9.6106    1.1278   -0.5768 H   0  0  0  0  0  0  0  0  0  0  0  0
    9.0716   -0.1080   -1.7750 H   0  0  0  0  0  0  0  0  0  0  0  0
    7.2838    1.2441   -0.8743 H   0  0  0  0  0  0  0  0  0  0  0  0
    4.9245    1.4809   -0.2952 H   0  0  0  0  0  0  0  0  0  0  0  0
   -0.2403   -0.0545    2.6087 H   0  0  0  0  0  0  0  0  0  0  0  0
    1.4009    0.2551    2.9392 H   0  0  0  0  0  0  0  0  0  0  0  0
   -0.5831    1.8955    0.6911 H   0  0  0  0  0  0  0  0  0  0  0  0
   -2.0870    3.6760    1.1736 H   0  0  0  0  0  0  0  0  0  0  0  0
   -6.3622    2.5797    0.5912 H   0  0  0  0  0  0  0  0  0  0  0  0
   -4.6524    6.6967    1.9192 H   0  0  0  0  0  0  0  0  0  0  0  0
   -5.5558    5.4080    2.7428 H   0  0  0  0  0  0  0  0  0  0  0  0
   -6.0188    5.9411    1.0783 H   0  0  0  0  0  0  0  0  0  0  0  0
   -5.4393    0.8675    1.2532 H   0  0  0  0  0  0  0  0  0  0  0  0
   -3.9546   -0.9252    0.8407 H   0  0  0  0  0  0  0  0  0  0  0  0
  1  2  1  0
  2  3  1  0
  3  4  1  0
  4  5  2  0
  4  6  1  0
  6  7  2  0
  7  8  1  0
  7  9  1  0
  9 10  2  0
 10 11  1  0
 11 12  1  0
 12 13  2  3
 13 14  1  0
 13 15  1  0
 15 16  2  0
 16 17  1  0
 17 18  2  0
 18 19  1  0
 19 20  1  0
 18 21  1  0
 21 22  2  0
 12 23  1  0
 23 24  1  0
 23 25  2  0
 25 26  1  0
 26 27  2  3
 27 28  1  0
 28 29  2  0
 29 30  1  0
 30 31  2  3
 31 32  1  0
 31 33  1  0
 33 34  1  0
 30 35  1  0
 35 36  2  0
 26  6  1  0
 36 27  1  0
 25 10  1  0
 22 15  1  0
  1 37  1  0
  1 38  1  0
  1 39  1  0
  2 40  1  0
  2 41  1  0
  8 42  1  0
  8 43  1  0
  8 44  1  0
 14 45  1  0
 16 46  1  0
 17 47  1  0
 20 48  1  0
 20 49  1  0
 20 50  1  0
 21 51  1  0
 22 52  1  0
 24 53  1  0
 24 54  1  0
 28 55  1  0
 29 56  1  0
 32 57  1  0
 34 58  1  0
 34 59  1  0
 34 60  1  0
 35 61  1  0
 36 62  1  0
M  END
$$$$
