
     RDKit          3D

 55 58  0  0  0  0  0  0  0  0999 V2000
    2.2010   -3.0811   -5.2646 C   0  0  0  0  0  0  0  0  0  0  0  0
    2.5710   -2.1425   -4.2574 O   0  0  0  0  0  0  0  0  0  0  0  0
    2.1995   -2.5242   -2.9950 C   0  0  0  0  0  0  0  0  0  0  0  0
    2.5600   -3.7689   -2.4735 C   0  0  0  0  0  0  0  0  0  0  0  0
    2.2404   -4.0894   -1.1564 C   0  0  0  0  0  0  0  0  0  0  0  0
    1.5855   -3.1597   -0.3471 C   0  0  0  0  0  0  0  0  0  0  0  0
    1.2455   -1.8837   -0.8326 C   0  0  0  0  0  0  0  0  0  0  0  0
    0.5360   -0.9197    0.1016 C   0  0  0  0  0  0  0  0  0  0  0  0
    1.1347    0.4935    0.1524 C   0  0  0  0  0  0  0  0  0  0  0  0
   -0.0052    1.3656   -0.3112 C   0  0  0  0  0  0  0  0  0  0  0  0
    0.1449    2.8341   -0.4452 C   0  0  0  0  0  0  0  0  0  0  0  0
   -0.9732    3.6015   -0.7979 C   0  0  0  0  0  0  0  0  0  0  0  0
   -0.8750    4.9917   -0.8857 C   0  0  0  0  0  0  0  0  0  0  0  0
    0.3374    5.6227   -0.6199 C   0  0  0  0  0  0  0  0  0  0  0  0
    1.4574    4.8634   -0.2786 C   0  0  0  0  0  0  0  0  0  0  0  0
    1.3648    3.4712   -0.1937 C   0  0  0  0  0  0  0  0  0  0  0  0
   -1.1334    0.7563   -0.5191 N   0  0  0  0  0  0  0  0  0  0  0  0
   -0.8830   -0.7000   -0.2772 N   0  0  0  0  0  0  0  0  0  0  0  0
   -2.0715   -1.5979    0.5698 S   0  0  0  0  0  6  0  0  0  0  0  0
   -3.3738   -1.3628   -0.0207 O   0  0  0  0  0  0  0  0  0  0  0  0
   -1.5754   -2.9481    0.7634 O   0  0  0  0  0  0  0  0  0  0  0  0
   -2.0795   -0.8084    2.1707 C   0  0  0  0  0  0  0  0  0  0  0  0
   -1.5473   -1.4678    3.2820 C   0  0  0  0  0  0  0  0  0  0  0  0
   -1.5902   -0.8506    4.5342 C   0  0  0  0  0  0  0  0  0  0  0  0
   -2.1741    0.4149    4.6833 C   0  0  0  0  0  0  0  0  0  0  0  0
   -2.2049    1.0766    6.0311 C   0  0  0  0  0  0  0  0  0  0  0  0
   -2.7004    1.0658    3.5590 C   0  0  0  0  0  0  0  0  0  0  0  0
   -2.6673    0.4515    2.3068 C   0  0  0  0  0  0  0  0  0  0  0  0
    1.5386   -1.5885   -2.1781 C   0  0  0  0  0  0  0  0  0  0  0  0
    1.2212   -0.3388   -2.6490 O   0  0  0  0  0  0  0  0  0  0  0  0
    0.2088   -0.3919   -3.6594 C   0  0  0  0  0  0  0  0  0  0  0  0
    2.8035   -3.9934   -5.2158 H   0  0  0  0  0  0  0  0  0  0  0  0
    2.3970   -2.6144   -6.2336 H   0  0  0  0  0  0  0  0  0  0  0  0
    1.1328   -3.3148   -5.2151 H   0  0  0  0  0  0  0  0  0  0  0  0
    3.1131   -4.4886   -3.0683 H   0  0  0  0  0  0  0  0  0  0  0  0
    2.5048   -5.0643   -0.7567 H   0  0  0  0  0  0  0  0  0  0  0  0
    1.3359   -3.4451    0.6727 H   0  0  0  0  0  0  0  0  0  0  0  0
    0.5987   -1.3169    1.1229 H   0  0  0  0  0  0  0  0  0  0  0  0
    1.3786    0.7639    1.1881 H   0  0  0  0  0  0  0  0  0  0  0  0
    2.0316    0.6275   -0.4597 H   0  0  0  0  0  0  0  0  0  0  0  0
   -1.9300    3.1248   -1.0003 H   0  0  0  0  0  0  0  0  0  0  0  0
   -1.7496    5.5827   -1.1526 H   0  0  0  0  0  0  0  0  0  0  0  0
    0.4092    6.7059   -0.6792 H   0  0  0  0  0  0  0  0  0  0  0  0
    2.4004    5.3585   -0.0680 H   0  0  0  0  0  0  0  0  0  0  0  0
    2.2549    2.9102    0.0726 H   0  0  0  0  0  0  0  0  0  0  0  0
   -1.1136   -2.4601    3.1885 H   0  0  0  0  0  0  0  0  0  0  0  0
   -1.1773   -1.3676    5.3987 H   0  0  0  0  0  0  0  0  0  0  0  0
   -2.9968    1.8307    6.0843 H   0  0  0  0  0  0  0  0  0  0  0  0
   -2.4047    0.3411    6.8171 H   0  0  0  0  0  0  0  0  0  0  0  0
   -1.2452    1.5617    6.2326 H   0  0  0  0  0  0  0  0  0  0  0  0
   -3.1528    2.0502    3.6549 H   0  0  0  0  0  0  0  0  0  0  0  0
   -3.1009    0.9547    1.4445 H   0  0  0  0  0  0  0  0  0  0  0  0
   -0.4390   -1.2727   -3.5824 H   0  0  0  0  0  0  0  0  0  0  0  0
   -0.4192    0.4975   -3.5471 H   0  0  0  0  0  0  0  0  0  0  0  0
    0.6759   -0.3560   -4.6537 H   0  0  0  0  0  0  0  0  0  0  0  0
  1  2  1  0
  2  3  1  0
  3  4  2  0
  4  5  1  0
  5  6  2  0
  6  7  1  0
  7  8  1  0
  8  9  1  0
  9 10  1  0
 10 11  1  0
 11 12  2  0
 12 13  1  0
 13 14  2  0
 14 15  1  0
 15 16  2  0
 10 17  2  0
 17 18  1  0
 18 19  1  0
 19 20  2  0
 19 21  2  0
 19 22  1  0
 22 23  2  0
 23 24  1  0
 24 25  2  0
 25 26  1  0
 25 27  1  0
 27 28  2  0
  7 29  2  0
 29 30  1  0
 30 31  1  0
 29  3  1  0
 18  8  1  0
 28 22  1  0
 16 11  1  0
  1 32  1  0
  1 33  1  0
  1 34  1  0
  4 35  1  0
  5 36  1  0
  6 37  1  0
  8 38  1  0
  9 39  1  0
  9 40  1  0
 12 41  1  0
 13 42  1  0
 14 43  1  0
 15 44  1  0
 16 45  1  0
 23 46  1  0
 24 47  1  0
 26 48  1  0
 26 49  1  0
 26 50  1  0
 27 51  1  0
 28 52  1  0
 31 53  1  0
 31 54  1  0
 31 55  1  0
M  END
$$$$
