
     RDKit          3D

 64 64  0  0  0  0  0  0  0  0999 V2000
   -6.5407    1.2371    3.9357 C   0  0  0  0  0  0  0  0  0  0  0  0
   -7.4376    0.5228    2.9370 C   0  0  0  0  0  0  0  0  0  0  0  0
   -6.7250   -0.5853    2.1588 C   0  0  0  0  0  0  0  0  0  0  0  0
   -5.6124   -0.0655    1.2444 C   0  0  0  0  0  0  0  0  0  0  0  0
   -5.0130   -1.1988    0.4069 C   0  0  0  0  0  0  0  0  0  0  0  0
   -3.8180   -0.7588   -0.4451 C   0  0  0  0  0  0  0  0  0  0  0  0
   -4.1883    0.2590   -1.5269 C   0  0  0  0  0  0  0  0  0  0  0  0
   -3.0534    0.5218   -2.5231 C   0  0  0  0  0  0  0  0  0  0  0  0
   -1.8237    1.1688   -1.8810 C   0  0  0  0  0  0  0  0  0  0  0  0
   -0.7693    1.6088   -2.9017 C   0  0  0  0  0  0  0  0  0  0  0  0
   -0.1879    0.4942   -3.7782 C   0  0  0  0  0  0  0  0  0  0  0  0
    0.4278   -0.6902   -3.0274 C   0  0  0  0  0  0  0  0  0  0  0  0
    1.5934   -0.2944   -2.1174 C   0  0  0  0  0  0  0  0  0  0  0  0
    2.2279   -1.5268   -1.4677 C   0  0  0  0  0  0  0  0  0  0  0  0
    3.3266   -1.1802   -0.4612 C   0  0  0  0  0  0  0  0  0  0  0  0
    4.5529   -0.5449   -1.1075 C   0  0  0  0  0  0  0  0  0  0  0  0
    5.5953   -0.3371   -0.0697 N   0  0  0  0  0  4  0  0  0  0  0  0
    6.5107   -1.3065    0.1666 C   0  0  0  0  0  0  0  0  0  0  0  0
    7.4908   -1.1365    1.1370 C   0  0  0  0  0  0  0  0  0  0  0  0
    7.5102    0.0411    1.8767 C   0  0  0  0  0  0  0  0  0  0  0  0
    8.5608    0.2042    2.9021 C   0  0  0  0  0  0  0  0  0  0  0  0
    8.4764    0.7865    4.0590 N   0  0  0  0  0  0  0  0  0  0  0  0
    7.1890    1.2316    4.3630 O   0  0  0  0  0  0  0  0  0  0  0  0
    6.5822    1.0402    1.6048 C   0  0  0  0  0  0  0  0  0  0  0  0
    5.6225    0.8237    0.6264 C   0  0  0  0  0  0  0  0  0  0  0  0
   -6.0745    0.5261    4.6246 H   0  0  0  0  0  0  0  0  0  0  0  0
   -5.7503    1.8018    3.4329 H   0  0  0  0  0  0  0  0  0  0  0  0
   -7.1284    1.9461    4.5275 H   0  0  0  0  0  0  0  0  0  0  0  0
   -7.8622    1.2543    2.2399 H   0  0  0  0  0  0  0  0  0  0  0  0
   -8.2798    0.0784    3.4808 H   0  0  0  0  0  0  0  0  0  0  0  0
   -6.3139   -1.3209    2.8610 H   0  0  0  0  0  0  0  0  0  0  0  0
   -7.4722   -1.1115    1.5518 H   0  0  0  0  0  0  0  0  0  0  0  0
   -6.0211    0.7108    0.5876 H   0  0  0  0  0  0  0  0  0  0  0  0
   -4.8194    0.3956    1.8442 H   0  0  0  0  0  0  0  0  0  0  0  0
   -5.7863   -1.6307   -0.2403 H   0  0  0  0  0  0  0  0  0  0  0  0
   -4.6780   -2.0010    1.0766 H   0  0  0  0  0  0  0  0  0  0  0  0
   -3.0434   -0.3463    0.2112 H   0  0  0  0  0  0  0  0  0  0  0  0
   -3.3908   -1.6502   -0.9202 H   0  0  0  0  0  0  0  0  0  0  0  0
   -4.4871    1.2074   -1.0664 H   0  0  0  0  0  0  0  0  0  0  0  0
   -5.0560   -0.1102   -2.0871 H   0  0  0  0  0  0  0  0  0  0  0  0
   -3.4358    1.1819   -3.3115 H   0  0  0  0  0  0  0  0  0  0  0  0
   -2.7764   -0.4222   -3.0063 H   0  0  0  0  0  0  0  0  0  0  0  0
   -2.1391    2.0548   -1.3158 H   0  0  0  0  0  0  0  0  0  0  0  0
   -1.3693    0.4855   -1.1560 H   0  0  0  0  0  0  0  0  0  0  0  0
    0.0447    2.1123   -2.3668 H   0  0  0  0  0  0  0  0  0  0  0  0
   -1.2092    2.3690   -3.5597 H   0  0  0  0  0  0  0  0  0  0  0  0
    0.5761    0.9347   -4.4313 H   0  0  0  0  0  0  0  0  0  0  0  0
   -0.9695    0.1143   -4.4468 H   0  0  0  0  0  0  0  0  0  0  0  0
   -0.3424   -1.2064   -2.4430 H   0  0  0  0  0  0  0  0  0  0  0  0
    0.7852   -1.4138   -3.7709 H   0  0  0  0  0  0  0  0  0  0  0  0
    1.2432    0.3835   -1.3312 H   0  0  0  0  0  0  0  0  0  0  0  0
    2.3410    0.2470   -2.7075 H   0  0  0  0  0  0  0  0  0  0  0  0
    1.4500   -2.0950   -0.9427 H   0  0  0  0  0  0  0  0  0  0  0  0
    2.6338   -2.1882   -2.2426 H   0  0  0  0  0  0  0  0  0  0  0  0
    3.6260   -2.1015    0.0540 H   0  0  0  0  0  0  0  0  0  0  0  0
    2.9241   -0.5151    0.3128 H   0  0  0  0  0  0  0  0  0  0  0  0
    4.3331    0.4315   -1.5519 H   0  0  0  0  0  0  0  0  0  0  0  0
    4.9795   -1.1840   -1.8888 H   0  0  0  0  0  0  0  0  0  0  0  0
    6.4440   -2.2168   -0.4235 H   0  0  0  0  0  0  0  0  0  0  0  0
    8.2141   -1.9277    1.3231 H   0  0  0  0  0  0  0  0  0  0  0  0
    9.5377   -0.2487    2.6558 H   0  0  0  0  0  0  0  0  0  0  0  0
    7.3033    1.5834    5.2691 H   0  0  0  0  0  0  0  0  0  0  0  0
    6.6018    1.9850    2.1426 H   0  0  0  0  0  0  0  0  0  0  0  0
    4.8703    1.5720    0.3913 H   0  0  0  0  0  0  0  0  0  0  0  0
  1  2  1  0
  2  3  1  0
  3  4  1  0
  4  5  1  0
  5  6  1  0
  6  7  1  0
  7  8  1  0
  8  9  1  0
  9 10  1  0
 10 11  1  0
 11 12  1  0
 12 13  1  0
 13 14  1  0
 14 15  1  0
 15 16  1  0
 16 17  1  0
 17 18  2  0
 18 19  1  0
 19 20  2  0
 20 21  1  0
 21 22  2  3
 22 23  1  0
 20 24  1  0
 24 25  2  0
 25 17  1  0
  1 26  1  0
  1 27  1  0
  1 28  1  0
  2 29  1  0
  2 30  1  0
  3 31  1  0
  3 32  1  0
  4 33  1  0
  4 34  1  0
  5 35  1  0
  5 36  1  0
  6 37  1  0
  6 38  1  0
  7 39  1  0
  7 40  1  0
  8 41  1  0
  8 42  1  0
  9 43  1  0
  9 44  1  0
 10 45  1  0
 10 46  1  0
 11 47  1  0
 11 48  1  0
 12 49  1  0
 12 50  1  0
 13 51  1  0
 13 52  1  0
 14 53  1  0
 14 54  1  0
 15 55  1  0
 15 56  1  0
 16 57  1  0
 16 58  1  0
 18 59  1  0
 19 60  1  0
 21 61  1  0
 23 62  1  0
 24 63  1  0
 25 64  1  0
M  CHG  1  17   1
M  END
$$$$
