
     RDKit          3D

 45 47  0  0  0  0  0  0  0  0999 V2000
   -7.6618    0.7451   -0.9473 N   0  0  0  0  0  0  0  0  0  0  0  0
   -6.6387    2.0390   -0.6093 S   0  0  0  0  0  6  0  0  0  0  0  0
   -7.1457    2.7136    0.5616 O   0  0  0  0  0  0  0  0  0  0  0  0
   -6.4311    2.7159   -1.8685 O   0  0  0  0  0  0  0  0  0  0  0  0
   -5.1412    1.1986   -0.1686 C   0  0  0  0  0  0  0  0  0  0  0  0
   -4.9058    0.8649    1.1658 C   0  0  0  0  0  0  0  0  0  0  0  0
   -3.7225    0.2062    1.5106 C   0  0  0  0  0  0  0  0  0  0  0  0
   -2.7804   -0.1341    0.5298 C   0  0  0  0  0  0  0  0  0  0  0  0
   -1.6003   -0.7744    0.9615 N   0  0  0  0  0  0  0  0  0  0  0  0
   -0.7073   -1.5914    0.2786 C   0  0  0  0  0  0  0  0  0  0  0  0
   -1.0888   -2.4786   -1.0979 S   0  0  0  0  0  0  0  0  0  0  0  0
    0.5380   -1.6603    0.9408 N   0  0  0  0  0  0  0  0  0  0  0  0
    1.1033   -0.4764    1.6227 C   0  0  0  0  0  0  0  0  0  0  0  0
    2.1258    0.2492    0.7178 C   0  0  0  0  0  0  0  0  0  0  0  0
    3.1782   -0.6960    0.2578 N   0  0  0  0  0  0  0  0  0  0  0  0
    4.2673   -0.0578   -0.3614 C   0  0  0  0  0  0  0  0  0  0  0  0
    4.6499   -0.2885   -1.6910 C   0  0  0  0  0  0  0  0  0  0  0  0
    5.7479    0.3682   -2.2607 C   0  0  0  0  0  0  0  0  0  0  0  0
    6.4962    1.2657   -1.5066 C   0  0  0  0  0  0  0  0  0  0  0  0
    6.1495    1.5019   -0.1817 C   0  0  0  0  0  0  0  0  0  0  0  0
    5.0506    0.8440    0.3803 C   0  0  0  0  0  0  0  0  0  0  0  0
    2.6247   -1.9059   -0.3996 C   0  0  0  0  0  0  0  0  0  0  0  0
    1.6085   -2.5955    0.5335 C   0  0  0  0  0  0  0  0  0  0  0  0
   -3.0133    0.2459   -0.7954 C   0  0  0  0  0  0  0  0  0  0  0  0
   -4.1930    0.9085   -1.1499 C   0  0  0  0  0  0  0  0  0  0  0  0
   -7.9177    0.7768   -1.9359 H   0  0  0  0  0  0  0  0  0  0  0  0
   -7.2685   -0.1589   -0.6872 H   0  0  0  0  0  0  0  0  0  0  0  0
   -5.6303    1.1151    1.9386 H   0  0  0  0  0  0  0  0  0  0  0  0
   -3.5549   -0.0489    2.5545 H   0  0  0  0  0  0  0  0  0  0  0  0
   -1.4872   -0.8436    1.9655 H   0  0  0  0  0  0  0  0  0  0  0  0
    0.3310    0.2370    1.9204 H   0  0  0  0  0  0  0  0  0  0  0  0
    1.5955   -0.8332    2.5354 H   0  0  0  0  0  0  0  0  0  0  0  0
    2.5482    1.0800    1.2936 H   0  0  0  0  0  0  0  0  0  0  0  0
    1.6105    0.6716   -0.1549 H   0  0  0  0  0  0  0  0  0  0  0  0
    4.0938   -0.9717   -2.3250 H   0  0  0  0  0  0  0  0  0  0  0  0
    6.0145    0.1746   -3.2964 H   0  0  0  0  0  0  0  0  0  0  0  0
    7.3496    1.7729   -1.9479 H   0  0  0  0  0  0  0  0  0  0  0  0
    6.7356    2.1894    0.4218 H   0  0  0  0  0  0  0  0  0  0  0  0
    4.8232    1.0223    1.4283 H   0  0  0  0  0  0  0  0  0  0  0  0
    3.4279   -2.6197   -0.6182 H   0  0  0  0  0  0  0  0  0  0  0  0
    2.1308   -1.6310   -1.3394 H   0  0  0  0  0  0  0  0  0  0  0  0
    1.2010   -3.4945    0.0645 H   0  0  0  0  0  0  0  0  0  0  0  0
    2.1120   -2.9198    1.4530 H   0  0  0  0  0  0  0  0  0  0  0  0
   -2.2740    0.0722   -1.5717 H   0  0  0  0  0  0  0  0  0  0  0  0
   -4.3512    1.2016   -2.1859 H   0  0  0  0  0  0  0  0  0  0  0  0
  1  2  1  0
  2  3  2  0
  2  4  2  0
  2  5  1  0
  5  6  2  0
  6  7  1  0
  7  8  2  0
  8  9  1  0
  9 10  1  0
 10 11  2  0
 10 12  1  0
 12 13  1  0
 13 14  1  0
 14 15  1  0
 15 16  1  0
 16 17  2  0
 17 18  1  0
 18 19  2  0
 19 20  1  0
 20 21  2  0
 15 22  1  0
 22 23  1  0
  8 24  1  0
 24 25  2  0
 25  5  1  0
 23 12  1  0
 21 16  1  0
  1 26  1  0
  1 27  1  0
  6 28  1  0
  7 29  1  0
  9 30  1  0
 13 31  1  0
 13 32  1  0
 14 33  1  0
 14 34  1  0
 17 35  1  0
 18 36  1  0
 19 37  1  0
 20 38  1  0
 21 39  1  0
 22 40  1  0
 22 41  1  0
 23 42  1  0
 23 43  1  0
 24 44  1  0
 25 45  1  0
M  END
$$$$
