
     RDKit          3D

 50 53  0  0  0  0  0  0  0  0999 V2000
    7.6856    1.8086    0.5421 C   0  0  0  0  0  0  0  0  0  0  0  0
    6.8050    0.7862    0.9918 O   0  0  0  0  0  0  0  0  0  0  0  0
    5.5049    0.8669    0.5780 C   0  0  0  0  0  0  0  0  0  0  0  0
    4.6765   -0.1531    1.0481 C   0  0  0  0  0  0  0  0  0  0  0  0
    3.3185   -0.2006    0.7051 C   0  0  0  0  0  0  0  0  0  0  0  0
    2.7683    0.7767   -0.1275 C   0  0  0  0  0  0  0  0  0  0  0  0
    1.3911    0.7849   -0.5123 N   0  0  0  0  0  0  0  0  0  0  0  0
    0.8842    1.9003   -1.1177 N   0  0  0  0  0  0  0  0  0  0  0  0
   -0.4136    1.6616   -1.2815 C   0  0  0  0  0  0  0  0  0  0  0  0
   -0.7845    0.3955   -0.8174 C   0  0  0  0  0  0  0  0  0  0  0  0
    0.3972   -0.1782   -0.3818 C   0  0  0  0  0  0  0  0  0  0  0  0
    0.5231   -1.5916    0.0846 C   0  0  0  0  0  0  0  0  0  0  0  0
   -0.7185   -2.4415   -0.3341 C   0  0  0  0  0  0  0  0  0  0  0  0
   -0.6110   -2.8590   -1.8151 C   0  0  0  0  0  0  0  0  0  0  0  0
   -0.7487   -3.7239    0.5192 C   0  0  0  0  0  0  0  0  0  0  0  0
   -2.0315   -1.6426   -0.0847 C   0  0  0  0  0  0  0  0  0  0  0  0
   -2.1027   -0.2987   -0.8494 C   0  0  0  0  0  0  0  0  0  0  0  0
   -3.0877    0.5793   -0.2518 N   0  0  0  0  0  0  0  0  0  0  0  0
   -4.4306    0.4097   -0.5002 C   0  0  0  0  0  0  0  0  0  0  0  0
   -4.8558   -0.4230   -1.2948 O   0  0  0  0  0  0  0  0  0  0  0  0
   -5.3164    1.2763    0.2584 C   0  0  0  0  0  0  0  0  0  0  0  0
   -5.0468    2.3578    1.1287 C   0  0  0  0  0  0  0  0  0  0  0  0
   -6.1526    2.9048    1.6410 N   0  0  0  0  0  0  0  0  0  0  0  0
   -7.1436    2.1871    1.0891 N   0  0  0  0  0  0  0  0  0  0  0  0
   -6.6973    1.2050    0.2581 C   0  0  0  0  0  0  0  0  0  0  0  0
    3.6044    1.8112   -0.5848 C   0  0  0  0  0  0  0  0  0  0  0  0
    4.9617    1.8533   -0.2394 C   0  0  0  0  0  0  0  0  0  0  0  0
    8.6771    1.6014    0.9560 H   0  0  0  0  0  0  0  0  0  0  0  0
    7.7726    1.8027   -0.5495 H   0  0  0  0  0  0  0  0  0  0  0  0
    7.3702    2.7909    0.9091 H   0  0  0  0  0  0  0  0  0  0  0  0
    5.0917   -0.9191    1.6997 H   0  0  0  0  0  0  0  0  0  0  0  0
    2.7347   -0.9984    1.1426 H   0  0  0  0  0  0  0  0  0  0  0  0
   -1.0324    2.4207   -1.7439 H   0  0  0  0  0  0  0  0  0  0  0  0
    1.4282   -2.0583   -0.3197 H   0  0  0  0  0  0  0  0  0  0  0  0
    0.5970   -1.5828    1.1793 H   0  0  0  0  0  0  0  0  0  0  0  0
   -1.4892   -3.4376   -2.1230 H   0  0  0  0  0  0  0  0  0  0  0  0
    0.2729   -3.4853   -1.9823 H   0  0  0  0  0  0  0  0  0  0  0  0
   -0.5296   -1.9990   -2.4869 H   0  0  0  0  0  0  0  0  0  0  0  0
    0.1686   -4.3086    0.3863 H   0  0  0  0  0  0  0  0  0  0  0  0
   -1.5959   -4.3623    0.2442 H   0  0  0  0  0  0  0  0  0  0  0  0
   -0.8423   -3.4895    1.5855 H   0  0  0  0  0  0  0  0  0  0  0  0
   -2.1171   -1.4468    0.9946 H   0  0  0  0  0  0  0  0  0  0  0  0
   -2.9054   -2.2542   -0.3450 H   0  0  0  0  0  0  0  0  0  0  0  0
   -2.3839   -0.4878   -1.8927 H   0  0  0  0  0  0  0  0  0  0  0  0
   -2.7954    1.1408    0.5340 H   0  0  0  0  0  0  0  0  0  0  0  0
   -4.0922    2.7796    1.4146 H   0  0  0  0  0  0  0  0  0  0  0  0
   -8.1020    2.4250    1.3251 H   0  0  0  0  0  0  0  0  0  0  0  0
   -7.3797    0.5452   -0.2600 H   0  0  0  0  0  0  0  0  0  0  0  0
    3.2144    2.5993   -1.2281 H   0  0  0  0  0  0  0  0  0  0  0  0
    5.5587    2.6714   -0.6281 H   0  0  0  0  0  0  0  0  0  0  0  0
  1  2  1  0
  2  3  1  0
  3  4  2  0
  4  5  1  0
  5  6  2  0
  6  7  1  0
  7  8  1  0
  8  9  2  0
  9 10  1  0
 10 11  2  0
 11 12  1  0
 12 13  1  0
 13 14  1  0
 13 15  1  0
 13 16  1  0
 16 17  1  0
 17 18  1  0
 18 19  1  0
 19 20  2  0
 19 21  1  0
 21 22  1  0
 22 23  2  0
 23 24  1  0
 24 25  1  0
  6 26  1  0
 26 27  2  0
 27  3  1  0
 11  7  1  0
 25 21  2  0
 17 10  1  0
  1 28  1  0
  1 29  1  0
  1 30  1  0
  4 31  1  0
  5 32  1  0
  9 33  1  0
 12 34  1  0
 12 35  1  0
 14 36  1  0
 14 37  1  0
 14 38  1  0
 15 39  1  0
 15 40  1  0
 15 41  1  0
 16 42  1  0
 16 43  1  0
 17 44  1  0
 18 45  1  0
 22 46  1  0
 24 47  1  0
 25 48  1  0
 26 49  1  0
 27 50  1  0
M  END
$$$$
