
     RDKit          3D

 50 51  0  0  0  0  0  0  0  0999 V2000
    9.3531    0.2750   -0.5147 C   0  0  0  0  0  0  0  0  0  0  0  0
    9.0512   -1.1001    0.0615 C   0  0  0  0  0  0  0  0  0  0  0  0
    7.8220   -1.1272    0.9735 C   0  0  0  0  0  0  0  0  0  0  0  0
    6.5189   -0.7919    0.2457 C   0  0  0  0  0  0  0  0  0  0  0  0
    5.3101   -0.9609    1.1642 C   0  0  0  0  0  0  0  0  0  0  0  0
    3.9994   -0.6195    0.4698 C   0  0  0  0  0  0  0  0  0  0  0  0
    3.9514   -0.2772   -0.7056 O   0  0  0  0  0  0  0  0  0  0  0  0
    2.9215   -0.7563    1.3314 N   0  0  0  0  0  0  0  0  0  0  0  0
    1.5623   -0.5069    1.0531 C   0  0  0  0  0  0  0  0  0  0  0  0
    0.6442   -0.7462    2.0833 C   0  0  0  0  0  0  0  0  0  0  0  0
   -0.7227   -0.5192    1.8890 C   0  0  0  0  0  0  0  0  0  0  0  0
   -1.1932   -0.0541    0.6565 C   0  0  0  0  0  0  0  0  0  0  0  0
   -2.6579    0.1812    0.4951 C   0  0  0  0  0  0  0  0  0  0  0  0
   -3.3338    0.4138    1.4935 O   0  0  0  0  0  0  0  0  0  0  0  0
   -3.1344    0.0725   -0.8078 N   0  0  0  0  0  0  0  0  0  0  0  0
   -4.4557    0.1245   -1.1747 N   0  0  0  0  0  0  0  0  0  0  0  0
   -5.2356    0.9302   -0.5258 C   0  0  0  0  0  0  0  0  0  0  0  0
   -6.6805    1.0147   -0.8274 C   0  0  0  0  0  0  0  0  0  0  0  0
   -7.2508    0.2368   -1.8421 C   0  0  0  0  0  0  0  0  0  0  0  0
   -8.6187    0.3334   -2.1124 C   0  0  0  0  0  0  0  0  0  0  0  0
   -9.4105    1.2119   -1.3598 C   0  0  0  0  0  0  0  0  0  0  0  0
  -10.8493    1.3136   -1.6373 N   0  0  0  0  0  4  0  0  0  0  0  0
  -11.5328    2.0227   -0.8844 O   0  0  0  0  0  0  0  0  0  0  0  0
  -11.2948    0.6839   -2.6070 O   0  0  0  0  0  1  0  0  0  0  0  0
   -8.8430    1.9899   -0.3406 C   0  0  0  0  0  0  0  0  0  0  0  0
   -7.4734    1.8900   -0.0773 C   0  0  0  0  0  0  0  0  0  0  0  0
   -0.2781    0.2015   -0.3701 C   0  0  0  0  0  0  0  0  0  0  0  0
    1.0900   -0.0296   -0.1710 C   0  0  0  0  0  0  0  0  0  0  0  0
   10.2955    0.2522   -1.0713 H   0  0  0  0  0  0  0  0  0  0  0  0
    9.4481    1.0236    0.2791 H   0  0  0  0  0  0  0  0  0  0  0  0
    8.5701    0.5995   -1.2058 H   0  0  0  0  0  0  0  0  0  0  0  0
    9.9205   -1.4340    0.6406 H   0  0  0  0  0  0  0  0  0  0  0  0
    8.9224   -1.8169   -0.7576 H   0  0  0  0  0  0  0  0  0  0  0  0
    7.7425   -2.1309    1.4105 H   0  0  0  0  0  0  0  0  0  0  0  0
    7.9682   -0.4304    1.8091 H   0  0  0  0  0  0  0  0  0  0  0  0
    6.4080   -1.4369   -0.6339 H   0  0  0  0  0  0  0  0  0  0  0  0
    6.5493    0.2403   -0.1200 H   0  0  0  0  0  0  0  0  0  0  0  0
    5.4159   -0.3062    2.0372 H   0  0  0  0  0  0  0  0  0  0  0  0
    5.2513   -1.9970    1.5172 H   0  0  0  0  0  0  0  0  0  0  0  0
    3.1305   -1.0798    2.2678 H   0  0  0  0  0  0  0  0  0  0  0  0
    0.9743   -1.1094    3.0533 H   0  0  0  0  0  0  0  0  0  0  0  0
   -1.4193   -0.7074    2.7044 H   0  0  0  0  0  0  0  0  0  0  0  0
   -2.5634   -0.4393   -1.4740 H   0  0  0  0  0  0  0  0  0  0  0  0
   -4.8699    1.6155    0.2574 H   0  0  0  0  0  0  0  0  0  0  0  0
   -6.6363   -0.4496   -2.4211 H   0  0  0  0  0  0  0  0  0  0  0  0
   -9.0467   -0.2808   -2.9027 H   0  0  0  0  0  0  0  0  0  0  0  0
   -9.4499    2.6705    0.2548 H   0  0  0  0  0  0  0  0  0  0  0  0
   -7.0369    2.4911    0.7179 H   0  0  0  0  0  0  0  0  0  0  0  0
   -0.5961    0.6076   -1.3265 H   0  0  0  0  0  0  0  0  0  0  0  0
    1.7631    0.1882   -0.9949 H   0  0  0  0  0  0  0  0  0  0  0  0
  1  2  1  0
  2  3  1  0
  3  4  1  0
  4  5  1  0
  5  6  1  0
  6  7  2  0
  6  8  1  0
  8  9  1  0
  9 10  2  0
 10 11  1  0
 11 12  2  0
 12 13  1  0
 13 14  2  0
 13 15  1  0
 15 16  1  0
 16 17  2  3
 17 18  1  0
 18 19  2  0
 19 20  1  0
 20 21  2  0
 21 22  1  0
 22 23  2  0
 22 24  1  0
 21 25  1  0
 25 26  2  0
 12 27  1  0
 27 28  2  0
 28  9  1  0
 26 18  1  0
  1 29  1  0
  1 30  1  0
  1 31  1  0
  2 32  1  0
  2 33  1  0
  3 34  1  0
  3 35  1  0
  4 36  1  0
  4 37  1  0
  5 38  1  0
  5 39  1  0
  8 40  1  0
 10 41  1  0
 11 42  1  0
 15 43  1  0
 17 44  1  0
 19 45  1  0
 20 46  1  0
 25 47  1  0
 26 48  1  0
 27 49  1  0
 28 50  1  0
M  CHG  2  22   1  24  -1
M  END
$$$$
