
     RDKit          3D

 52 54  0  0  0  0  0  0  0  0999 V2000
   -3.6790    2.8612   -2.1978 C   0  0  0  0  0  0  0  0  0  0  0  0
   -2.5495    1.8445   -1.9532 C   0  0  0  0  0  0  0  0  0  0  0  0
   -1.4301    2.1265   -2.9837 C   0  0  0  0  0  0  0  0  0  0  0  0
   -1.9635    2.0707   -0.5191 C   0  0  0  0  0  0  0  0  0  0  0  0
   -1.4128    0.8064    0.0705 C   0  0  0  0  0  0  0  0  0  0  0  0
   -2.0283   -0.3880   -0.2579 C   0  0  0  0  0  0  0  0  0  0  0  0
   -1.2613   -1.7118    0.4738 S   0  0  0  0  0  0  0  0  0  0  0  0
   -0.0822   -0.7333    1.1973 C   0  0  0  0  0  0  0  0  0  0  0  0
    0.9437   -1.2779    1.9541 N   0  0  0  0  0  0  0  0  0  0  0  0
    1.2401   -2.6149    2.1457 C   0  0  0  0  0  0  0  0  0  0  0  0
    0.6260   -3.5902    1.7233 O   0  0  0  0  0  0  0  0  0  0  0  0
    2.4836   -2.8141    3.0228 C   0  0  0  0  0  0  0  0  0  0  0  0
    3.4025   -1.7317    3.0389 O   0  0  0  0  0  0  0  0  0  0  0  0
    4.2426   -1.5542    1.9704 C   0  0  0  0  0  0  0  0  0  0  0  0
    4.2334   -2.3343    0.8092 C   0  0  0  0  0  0  0  0  0  0  0  0
    5.1223   -2.0558   -0.2352 C   0  0  0  0  0  0  0  0  0  0  0  0
    6.0224   -0.9985   -0.1249 C   0  0  0  0  0  0  0  0  0  0  0  0
    7.1095   -0.6652   -1.4155 Cl  0  0  0  0  0  0  0  0  0  0  0  0
    6.0467   -0.2122    1.0212 C   0  0  0  0  0  0  0  0  0  0  0  0
    5.1592   -0.4904    2.0631 C   0  0  0  0  0  0  0  0  0  0  0  0
    5.2282    0.5136    3.4713 Cl  0  0  0  0  0  0  0  0  0  0  0  0
   -0.2950    0.6217    0.9675 C   0  0  0  0  0  0  0  0  0  0  0  0
    0.5655    1.6370    1.5725 C   0  0  0  0  0  0  0  0  0  0  0  0
    0.0064    2.8644    1.7813 N   0  0  0  0  0  0  0  0  0  0  0  0
    1.7086    1.4047    1.9550 O   0  0  0  0  0  0  0  0  0  0  0  0
   -3.2482   -0.4691   -1.1557 C   0  0  0  0  0  0  0  0  0  0  0  0
   -4.5245   -0.1530   -0.3550 C   0  0  0  0  0  0  0  0  0  0  0  0
   -3.4281   -1.8543   -1.8115 C   0  0  0  0  0  0  0  0  0  0  0  0
   -3.1028    0.4997   -2.2700 N   0  0  0  0  0  0  0  0  0  0  0  0
   -4.5192    2.7011   -1.5133 H   0  0  0  0  0  0  0  0  0  0  0  0
   -4.0676    2.7937   -3.2209 H   0  0  0  0  0  0  0  0  0  0  0  0
   -3.3224    3.8871   -2.0495 H   0  0  0  0  0  0  0  0  0  0  0  0
   -0.5917    1.4308   -2.8614 H   0  0  0  0  0  0  0  0  0  0  0  0
   -1.0373    3.1442   -2.8742 H   0  0  0  0  0  0  0  0  0  0  0  0
   -1.7968    2.0317   -4.0131 H   0  0  0  0  0  0  0  0  0  0  0  0
   -2.7478    2.4327    0.1585 H   0  0  0  0  0  0  0  0  0  0  0  0
   -1.1928    2.8482   -0.5558 H   0  0  0  0  0  0  0  0  0  0  0  0
    1.6188   -0.6031    2.3222 H   0  0  0  0  0  0  0  0  0  0  0  0
    2.1180   -2.9337    4.0493 H   0  0  0  0  0  0  0  0  0  0  0  0
    2.9842   -3.7533    2.7598 H   0  0  0  0  0  0  0  0  0  0  0  0
    3.5472   -3.1645    0.6704 H   0  0  0  0  0  0  0  0  0  0  0  0
    5.1025   -2.6687   -1.1337 H   0  0  0  0  0  0  0  0  0  0  0  0
    6.7480    0.6131    1.1053 H   0  0  0  0  0  0  0  0  0  0  0  0
   -0.9977    2.9648    1.8112 H   0  0  0  0  0  0  0  0  0  0  0  0
    0.5507    3.4946    2.3558 H   0  0  0  0  0  0  0  0  0  0  0  0
   -4.6842   -0.8965    0.4356 H   0  0  0  0  0  0  0  0  0  0  0  0
   -5.4112   -0.1629   -1.0001 H   0  0  0  0  0  0  0  0  0  0  0  0
   -4.4851    0.8253    0.1350 H   0  0  0  0  0  0  0  0  0  0  0  0
   -2.5352   -2.1608   -2.3704 H   0  0  0  0  0  0  0  0  0  0  0  0
   -3.6361   -2.6317   -1.0669 H   0  0  0  0  0  0  0  0  0  0  0  0
   -4.2718   -1.8545   -2.5131 H   0  0  0  0  0  0  0  0  0  0  0  0
   -2.5079    0.0608   -2.9740 H   0  0  0  0  0  0  0  0  0  0  0  0
  1  2  1  0
  2  3  1  0
  2  4  1  0
  4  5  1  0
  5  6  2  0
  6  7  1  0
  7  8  1  0
  8  9  1  0
  9 10  1  0
 10 11  2  0
 10 12  1  0
 12 13  1  0
 13 14  1  0
 14 15  2  0
 15 16  1  0
 16 17  2  0
 17 18  1  0
 17 19  1  0
 19 20  2  0
 20 21  1  0
  8 22  2  0
 22 23  1  0
 23 24  1  0
 23 25  2  0
  6 26  1  0
 26 27  1  0
 26 28  1  0
 26 29  1  0
 29  2  1  0
 22  5  1  0
 20 14  1  0
  1 30  1  0
  1 31  1  0
  1 32  1  0
  3 33  1  0
  3 34  1  0
  3 35  1  0
  4 36  1  0
  4 37  1  0
  9 38  1  0
 12 39  1  0
 12 40  1  0
 15 41  1  0
 16 42  1  0
 19 43  1  0
 24 44  1  0
 24 45  1  0
 27 46  1  0
 27 47  1  0
 27 48  1  0
 28 49  1  0
 28 50  1  0
 28 51  1  0
 29 52  1  0
M  END
$$$$
