
     RDKit          3D

 55 58  0  0  0  0  0  0  0  0999 V2000
    7.0398    3.0714   -0.7153 C   0  0  0  0  0  0  0  0  0  0  0  0
    5.9748    2.1331   -0.8087 O   0  0  0  0  0  0  0  0  0  0  0  0
    5.4520    1.6535    0.3664 C   0  0  0  0  0  0  0  0  0  0  0  0
    5.9369    1.9668    1.6397 C   0  0  0  0  0  0  0  0  0  0  0  0
    5.3160    1.4483    2.7815 C   0  0  0  0  0  0  0  0  0  0  0  0
    4.2085    0.6147    2.6587 C   0  0  0  0  0  0  0  0  0  0  0  0
    3.7236    0.2894    1.3923 C   0  0  0  0  0  0  0  0  0  0  0  0
    4.3461    0.7908    0.2367 C   0  0  0  0  0  0  0  0  0  0  0  0
    3.7934    0.4248   -1.1224 C   0  0  0  0  0  0  0  0  0  0  0  0
    2.9585    1.4988   -1.6551 N   0  0  0  0  0  0  0  0  0  0  0  0
    1.9357    1.1447   -2.9269 S   0  0  0  0  0  6  0  0  0  0  0  0
    1.5803    2.4039   -3.5426 O   0  0  0  0  0  0  0  0  0  0  0  0
    2.5146    0.0593   -3.6868 O   0  0  0  0  0  0  0  0  0  0  0  0
    0.4967    0.5436   -2.0776 C   0  0  0  0  0  0  0  0  0  0  0  0
   -0.2655    1.4417   -1.3145 C   0  0  0  0  0  0  0  0  0  0  0  0
   -1.3998    0.9946   -0.6292 C   0  0  0  0  0  0  0  0  0  0  0  0
   -1.7598   -0.3405   -0.7272 C   0  0  0  0  0  0  0  0  0  0  0  0
   -0.9950   -1.2227   -1.4944 C   0  0  0  0  0  0  0  0  0  0  0  0
    0.1373   -0.8030   -2.1792 C   0  0  0  0  0  0  0  0  0  0  0  0
   -1.5214   -2.6180   -1.3990 C   0  0  0  0  0  0  0  0  0  0  0  0
   -2.8747   -2.4028   -0.6855 C   0  0  0  0  0  0  0  0  0  0  0  0
   -4.0329   -2.5906   -1.6716 C   0  0  0  0  0  0  0  0  0  0  0  0
   -2.8465   -1.0226   -0.1323 N   0  0  0  0  0  0  0  0  0  0  0  0
   -3.7374   -0.4626    0.7859 C   0  0  0  0  0  0  0  0  0  0  0  0
   -3.6732    0.7254    1.1356 O   0  0  0  0  0  0  0  0  0  0  0  0
   -4.8260   -1.4054    1.3966 C   0  0  0  0  0  0  0  0  0  0  0  0
   -6.2940   -1.1824    0.9381 C   0  0  0  0  0  0  0  0  0  0  0  0
   -6.5142   -0.3351    2.2026 C   0  0  0  0  0  0  0  0  0  0  0  0
   -5.3205   -1.0714    2.8350 C   0  0  0  0  0  0  0  0  0  0  0  0
    7.9254    2.6172   -0.2617 H   0  0  0  0  0  0  0  0  0  0  0  0
    7.3064    3.3732   -1.7309 H   0  0  0  0  0  0  0  0  0  0  0  0
    6.7310    3.9680   -0.1733 H   0  0  0  0  0  0  0  0  0  0  0  0
    6.7931    2.6181    1.7830 H   0  0  0  0  0  0  0  0  0  0  0  0
    5.6933    1.7045    3.7680 H   0  0  0  0  0  0  0  0  0  0  0  0
    3.7170    0.2229    3.5505 H   0  0  0  0  0  0  0  0  0  0  0  0
    2.8505   -0.3546    1.3107 H   0  0  0  0  0  0  0  0  0  0  0  0
    4.6215    0.2206   -1.8111 H   0  0  0  0  0  0  0  0  0  0  0  0
    3.2178   -0.5040   -1.0372 H   0  0  0  0  0  0  0  0  0  0  0  0
    3.3997    2.4147   -1.7296 H   0  0  0  0  0  0  0  0  0  0  0  0
    0.0239    2.4888   -1.2489 H   0  0  0  0  0  0  0  0  0  0  0  0
   -1.9747    1.7036   -0.0446 H   0  0  0  0  0  0  0  0  0  0  0  0
    0.7261   -1.5020   -2.7664 H   0  0  0  0  0  0  0  0  0  0  0  0
   -0.8501   -3.2177   -0.7737 H   0  0  0  0  0  0  0  0  0  0  0  0
   -1.6231   -3.0920   -2.3802 H   0  0  0  0  0  0  0  0  0  0  0  0
   -2.9732   -3.1253    0.1316 H   0  0  0  0  0  0  0  0  0  0  0  0
   -4.0066   -3.5950   -2.1096 H   0  0  0  0  0  0  0  0  0  0  0  0
   -3.9869   -1.8583   -2.4867 H   0  0  0  0  0  0  0  0  0  0  0  0
   -5.0020   -2.4711   -1.1817 H   0  0  0  0  0  0  0  0  0  0  0  0
   -4.5394   -2.4609    1.3513 H   0  0  0  0  0  0  0  0  0  0  0  0
   -6.8873   -2.1041    0.9143 H   0  0  0  0  0  0  0  0  0  0  0  0
   -6.4306   -0.6521   -0.0081 H   0  0  0  0  0  0  0  0  0  0  0  0
   -6.3449    0.7369    2.0458 H   0  0  0  0  0  0  0  0  0  0  0  0
   -7.4750   -0.4705    2.7042 H   0  0  0  0  0  0  0  0  0  0  0  0
   -4.6595   -0.4517    3.4473 H   0  0  0  0  0  0  0  0  0  0  0  0
   -5.6056   -1.9574    3.4164 H   0  0  0  0  0  0  0  0  0  0  0  0
  1  2  1  0
  2  3  1  0
  3  4  2  0
  4  5  1  0
  5  6  2  0
  6  7  1  0
  7  8  2  0
  8  9  1  0
  9 10  1  0
 10 11  1  0
 11 12  2  0
 11 13  2  0
 11 14  1  0
 14 15  2  0
 15 16  1  0
 16 17  2  0
 17 18  1  0
 18 19  2  0
 18 20  1  0
 20 21  1  0
 21 22  1  0
 21 23  1  0
 23 24  1  0
 24 25  2  0
 24 26  1  0
 26 27  1  0
 27 28  1  0
 28 29  1  0
  8  3  1  0
 19 14  1  0
 29 26  1  0
 23 17  1  0
  1 30  1  0
  1 31  1  0
  1 32  1  0
  4 33  1  0
  5 34  1  0
  6 35  1  0
  7 36  1  0
  9 37  1  0
  9 38  1  0
 10 39  1  0
 15 40  1  0
 16 41  1  0
 19 42  1  0
 20 43  1  0
 20 44  1  0
 21 45  1  0
 22 46  1  0
 22 47  1  0
 22 48  1  0
 26 49  1  0
 27 50  1  0
 27 51  1  0
 28 52  1  0
 28 53  1  0
 29 54  1  0
 29 55  1  0
M  END
$$$$
