
     RDKit          3D

 31 32  0  0  0  0  0  0  0  0999 V2000
    0.0899   -2.7107   -0.4544 S   0  0  0  0  0  0  0  0  0  0  0  0
   -0.1118   -1.0599   -0.1933 C   0  0  0  0  0  0  0  0  0  0  0  0
    0.8691   -0.1049   -0.4127 N   0  0  0  0  0  0  0  0  0  0  0  0
    2.2797   -0.2075   -0.4925 C   0  0  0  0  0  0  0  0  0  0  0  0
    3.0100   -1.2045    0.1602 C   0  0  0  0  0  0  0  0  0  0  0  0
    4.4064   -1.2369    0.0718 C   0  0  0  0  0  0  0  0  0  0  0  0
    5.0827   -0.2598   -0.6541 C   0  0  0  0  0  0  0  0  0  0  0  0
    6.7992   -0.3045   -0.7544 Cl  0  0  0  0  0  0  0  0  0  0  0  0
    4.3800    0.7610   -1.2848 C   0  0  0  0  0  0  0  0  0  0  0  0
    2.9867    0.7895   -1.1940 C   0  0  0  0  0  0  0  0  0  0  0  0
    2.1484    2.0883   -1.9771 Cl  0  0  0  0  0  0  0  0  0  0  0  0
   -1.3408   -0.4828    0.1973 N   0  0  0  0  0  0  0  0  0  0  0  0
   -1.4461    0.8420    0.8213 C   0  0  0  0  0  0  0  0  0  0  0  0
   -2.4981    1.6892    0.1099 C   0  0  0  0  0  0  0  0  0  0  0  0
   -3.7768    0.9086   -0.2123 C   0  0  0  0  0  0  0  0  0  0  0  0
   -3.8317   -0.4296    0.5158 C   0  0  0  0  0  0  0  0  0  0  0  0
   -2.5870   -1.2696    0.2192 C   0  0  0  0  0  0  0  0  0  0  0  0
    0.5012    0.7418   -0.8348 H   0  0  0  0  0  0  0  0  0  0  0  0
    2.5229   -1.9552    0.7748 H   0  0  0  0  0  0  0  0  0  0  0  0
    4.9563   -2.0247    0.5816 H   0  0  0  0  0  0  0  0  0  0  0  0
    4.9110    1.5292   -1.8396 H   0  0  0  0  0  0  0  0  0  0  0  0
   -1.7273    0.6811    1.8698 H   0  0  0  0  0  0  0  0  0  0  0  0
   -0.4933    1.3765    0.8522 H   0  0  0  0  0  0  0  0  0  0  0  0
   -2.7380    2.5592    0.7322 H   0  0  0  0  0  0  0  0  0  0  0  0
   -2.0831    2.0831   -0.8262 H   0  0  0  0  0  0  0  0  0  0  0  0
   -4.6556    1.5128    0.0398 H   0  0  0  0  0  0  0  0  0  0  0  0
   -3.8240    0.7296   -1.2940 H   0  0  0  0  0  0  0  0  0  0  0  0
   -3.9065   -0.2493    1.5956 H   0  0  0  0  0  0  0  0  0  0  0  0
   -4.7316   -0.9854    0.2298 H   0  0  0  0  0  0  0  0  0  0  0  0
   -2.4923   -2.0573    0.9754 H   0  0  0  0  0  0  0  0  0  0  0  0
   -2.6996   -1.7493   -0.7601 H   0  0  0  0  0  0  0  0  0  0  0  0
  1  2  2  0
  2  3  1  0
  3  4  1  0
  4  5  2  0
  5  6  1  0
  6  7  2  0
  7  8  1  0
  7  9  1  0
  9 10  2  0
 10 11  1  0
  2 12  1  0
 12 13  1  0
 13 14  1  0
 14 15  1  0
 15 16  1  0
 16 17  1  0
 10  4  1  0
 17 12  1  0
  3 18  1  0
  5 19  1  0
  6 20  1  0
  9 21  1  0
 13 22  1  0
 13 23  1  0
 14 24  1  0
 14 25  1  0
 15 26  1  0
 15 27  1  0
 16 28  1  0
 16 29  1  0
 17 30  1  0
 17 31  1  0
M  END
$$$$
