
     RDKit          3D

 42 44  0  0  0  0  0  0  0  0999 V2000
   -2.5031    0.2557    2.7677 O   0  0  0  0  0  0  0  0  0  0  0  0
   -2.5053    0.2942    1.5320 C   0  0  0  0  0  0  0  0  0  0  0  0
   -3.7993    0.7229    0.8031 C   0  0  0  0  0  0  0  0  0  0  0  0
   -4.6777   -0.4754    0.4806 C   0  0  0  0  0  0  0  0  0  0  0  0
   -5.6107    0.0970   -0.5556 C   0  0  0  0  0  0  0  0  0  0  0  0
   -4.7080    1.0427   -1.3170 C   0  0  0  0  0  0  0  0  0  0  0  0
   -3.6779    1.4684   -0.4119 O   0  0  0  0  0  0  0  0  0  0  0  0
   -1.3953   -0.1000    0.8012 N   0  0  0  0  0  0  0  0  0  0  0  0
   -0.1617   -0.4469    1.5144 C   0  0  0  0  0  0  0  0  0  0  0  0
    1.0805    0.1026    0.8035 C   0  0  0  0  0  0  0  0  0  0  0  0
    1.1989   -0.3877   -0.6114 N   0  0  0  0  0  0  0  0  0  0  0  0
    2.4881   -1.4663   -0.9099 S   0  0  0  0  0  6  0  0  0  0  0  0
    2.4195   -2.4947    0.1075 O   0  0  0  0  0  0  0  0  0  0  0  0
    2.4773   -1.7986   -2.3182 O   0  0  0  0  0  0  0  0  0  0  0  0
    3.9175   -0.4592   -0.6128 C   0  0  0  0  0  0  0  0  0  0  0  0
    4.1242    0.6726   -1.4074 C   0  0  0  0  0  0  0  0  0  0  0  0
    5.2416    1.4746   -1.1793 C   0  0  0  0  0  0  0  0  0  0  0  0
    6.1442    1.1423   -0.1670 C   0  0  0  0  0  0  0  0  0  0  0  0
    5.9357    0.0066    0.6187 C   0  0  0  0  0  0  0  0  0  0  0  0
    4.8204   -0.8012    0.3973 C   0  0  0  0  0  0  0  0  0  0  0  0
   -0.0971   -0.8642   -1.1923 C   0  0  0  0  0  0  0  0  0  0  0  0
   -1.2933   -0.0639   -0.6602 C   0  0  0  0  0  0  0  0  0  0  0  0
   -4.3312    1.3866    1.4983 H   0  0  0  0  0  0  0  0  0  0  0  0
   -5.1995   -0.8646    1.3600 H   0  0  0  0  0  0  0  0  0  0  0  0
   -4.0926   -1.2965    0.0507 H   0  0  0  0  0  0  0  0  0  0  0  0
   -6.4099    0.6628   -0.0619 H   0  0  0  0  0  0  0  0  0  0  0  0
   -6.0757   -0.6578   -1.1950 H   0  0  0  0  0  0  0  0  0  0  0  0
   -5.2446    1.9160   -1.6987 H   0  0  0  0  0  0  0  0  0  0  0  0
   -4.2253    0.5378   -2.1601 H   0  0  0  0  0  0  0  0  0  0  0  0
   -0.1876   -0.0698    2.5418 H   0  0  0  0  0  0  0  0  0  0  0  0
   -0.1198   -1.5414    1.5656 H   0  0  0  0  0  0  0  0  0  0  0  0
    1.0322    1.1976    0.7592 H   0  0  0  0  0  0  0  0  0  0  0  0
    1.9697   -0.1477    1.3899 H   0  0  0  0  0  0  0  0  0  0  0  0
    3.4228    0.9269   -2.1989 H   0  0  0  0  0  0  0  0  0  0  0  0
    5.4129    2.3565   -1.7920 H   0  0  0  0  0  0  0  0  0  0  0  0
    7.0168    1.7678    0.0068 H   0  0  0  0  0  0  0  0  0  0  0  0
    6.6463   -0.2498    1.4011 H   0  0  0  0  0  0  0  0  0  0  0  0
    4.6662   -1.6875    1.0086 H   0  0  0  0  0  0  0  0  0  0  0  0
   -0.2402   -1.9253   -0.9536 H   0  0  0  0  0  0  0  0  0  0  0  0
   -0.0547   -0.7565   -2.2816 H   0  0  0  0  0  0  0  0  0  0  0  0
   -2.2095   -0.4648   -1.0986 H   0  0  0  0  0  0  0  0  0  0  0  0
   -1.1950    0.9880   -0.9520 H   0  0  0  0  0  0  0  0  0  0  0  0
  1  2  2  0
  2  3  1  0
  3  4  1  0
  4  5  1  0
  5  6  1  0
  6  7  1  0
  2  8  1  0
  8  9  1  0
  9 10  1  0
 10 11  1  0
 11 12  1  0
 12 13  2  0
 12 14  2  0
 12 15  1  0
 15 16  2  0
 16 17  1  0
 17 18  2  0
 18 19  1  0
 19 20  2  0
 11 21  1  0
 21 22  1  0
  7  3  1  0
 22  8  1  0
 20 15  1  0
  3 23  1  0
  4 24  1  0
  4 25  1  0
  5 26  1  0
  5 27  1  0
  6 28  1  0
  6 29  1  0
  9 30  1  0
  9 31  1  0
 10 32  1  0
 10 33  1  0
 16 34  1  0
 17 35  1  0
 18 36  1  0
 19 37  1  0
 20 38  1  0
 21 39  1  0
 21 40  1  0
 22 41  1  0
 22 42  1  0
M  END
$$$$
