
     RDKit          3D

 44 47  0  0  0  0  0  0  0  0999 V2000
    2.8516    1.3905    2.2656 C   0  0  0  0  0  0  0  0  0  0  0  0
    3.1250    0.6586    0.9422 C   0  0  0  0  0  0  0  0  0  0  0  0
    4.6007    0.2136    0.9456 C   0  0  0  0  0  0  0  0  0  0  0  0
    2.2310   -0.5943    0.8054 C   0  0  0  0  0  0  0  0  0  0  0  0
    1.0346   -0.3788   -0.1328 C   0  0  0  0  0  0  0  0  0  0  0  0
   -0.0547    0.4748    0.5264 C   0  0  0  0  0  0  0  0  0  0  0  0
   -1.2808    0.6063   -0.3867 C   0  0  0  0  0  0  0  0  0  0  0  0
   -2.4205    1.2311    0.3979 C   0  0  0  0  0  0  0  0  0  0  0  0
   -3.2062    0.6705    1.3897 C   0  0  0  0  0  0  0  0  0  0  0  0
   -4.1789    1.5805    1.8939 C   0  0  0  0  0  0  0  0  0  0  0  0
   -4.1030    2.8088    1.2783 C   0  0  0  0  0  0  0  0  0  0  0  0
   -2.8656    2.8625    0.1014 S   0  0  0  0  0  0  0  0  0  0  0  0
   -1.6289   -0.7295   -1.0114 C   0  0  0  0  0  0  0  0  0  0  0  0
   -2.8538   -0.9248   -1.6766 C   0  0  0  0  0  0  0  0  0  0  0  0
   -3.1682   -2.1598   -2.2494 C   0  0  0  0  0  0  0  0  0  0  0  0
   -4.6947   -2.3440   -3.0315 Cl  0  0  0  0  0  0  0  0  0  0  0  0
   -2.2527   -3.2103   -2.1792 C   0  0  0  0  0  0  0  0  0  0  0  0
   -2.5559   -4.4232   -2.7336 O   0  0  0  0  0  0  0  0  0  0  0  0
   -1.0232   -3.0220   -1.5520 C   0  0  0  0  0  0  0  0  0  0  0  0
   -0.7086   -1.7812   -0.9893 C   0  0  0  0  0  0  0  0  0  0  0  0
    0.5359   -1.6933   -0.4321 O   0  0  0  0  0  0  0  0  0  0  0  0
    1.5425    0.1930   -1.3589 N   0  0  0  0  0  0  0  0  0  0  0  0
    2.3493    1.2784   -1.3526 C   0  0  0  0  0  0  0  0  0  0  0  0
    2.5918    2.1911   -2.7133 S   0  0  0  0  0  0  0  0  0  0  0  0
    2.9323    1.5959   -0.1697 N   0  0  0  0  0  0  0  0  0  0  0  0
    3.0245    0.7342    3.1258 H   0  0  0  0  0  0  0  0  0  0  0  0
    3.5061    2.2634    2.3752 H   0  0  0  0  0  0  0  0  0  0  0  0
    1.8232    1.7567    2.3276 H   0  0  0  0  0  0  0  0  0  0  0  0
    4.8029   -0.4894    1.7615 H   0  0  0  0  0  0  0  0  0  0  0  0
    5.2731    1.0714    1.0649 H   0  0  0  0  0  0  0  0  0  0  0  0
    4.8695   -0.2748    0.0015 H   0  0  0  0  0  0  0  0  0  0  0  0
    2.8284   -1.4213    0.3917 H   0  0  0  0  0  0  0  0  0  0  0  0
    1.9008   -0.9665    1.7841 H   0  0  0  0  0  0  0  0  0  0  0  0
    0.3026    1.4800    0.7739 H   0  0  0  0  0  0  0  0  0  0  0  0
   -0.3471   -0.0030    1.4725 H   0  0  0  0  0  0  0  0  0  0  0  0
   -1.0144    1.2680   -1.2235 H   0  0  0  0  0  0  0  0  0  0  0  0
   -3.0940   -0.3511    1.7342 H   0  0  0  0  0  0  0  0  0  0  0  0
   -4.8991    1.3455    2.6681 H   0  0  0  0  0  0  0  0  0  0  0  0
   -4.7155    3.6809    1.4624 H   0  0  0  0  0  0  0  0  0  0  0  0
   -3.5751   -0.1120   -1.7438 H   0  0  0  0  0  0  0  0  0  0  0  0
   -1.8102   -5.0324   -2.6093 H   0  0  0  0  0  0  0  0  0  0  0  0
   -0.2916   -3.8231   -1.5027 H   0  0  0  0  0  0  0  0  0  0  0  0
    1.0686   -0.0225   -2.2266 H   0  0  0  0  0  0  0  0  0  0  0  0
    3.5484    2.4019   -0.2149 H   0  0  0  0  0  0  0  0  0  0  0  0
  1  2  1  0
  2  3  1  0
  2  4  1  0
  4  5  1  0
  5  6  1  0
  6  7  1  0
  7  8  1  0
  8  9  2  0
  9 10  1  0
 10 11  2  0
 11 12  1  0
  7 13  1  0
 13 14  2  0
 14 15  1  0
 15 16  1  0
 15 17  2  0
 17 18  1  0
 17 19  1  0
 19 20  2  0
 20 21  1  0
  5 22  1  0
 22 23  1  0
 23 24  2  0
 23 25  1  0
 25  2  1  0
 21  5  1  0
 12  8  1  0
 20 13  1  0
  1 26  1  0
  1 27  1  0
  1 28  1  0
  3 29  1  0
  3 30  1  0
  3 31  1  0
  4 32  1  0
  4 33  1  0
  6 34  1  0
  6 35  1  0
  7 36  1  0
  9 37  1  0
 10 38  1  0
 11 39  1  0
 14 40  1  0
 18 41  1  0
 19 42  1  0
 22 43  1  0
 25 44  1  0
M  END
$$$$
