
     RDKit          3D

 45 47  0  0  0  0  0  0  0  0999 V2000
   -6.5930    0.6848   -0.6532 C   0  0  0  0  0  0  0  0  0  0  0  0
   -5.1766    0.7130   -1.1488 C   0  0  0  0  0  0  0  0  0  0  0  0
   -4.7260    1.7673   -1.9485 C   0  0  0  0  0  0  0  0  0  0  0  0
   -3.4067    1.7961   -2.3957 C   0  0  0  0  0  0  0  0  0  0  0  0
   -2.5211    0.7833   -2.0284 C   0  0  0  0  0  0  0  0  0  0  0  0
   -2.9374   -0.2620   -1.1915 C   0  0  0  0  0  0  0  0  0  0  0  0
   -1.9654   -1.3457   -0.8022 C   0  0  0  0  0  0  0  0  0  0  0  0
   -1.6626   -1.3822    0.9663 S   0  0  0  0  0  6  0  0  0  0  0  0
   -2.9017   -1.7558    1.6328 O   0  0  0  0  0  0  0  0  0  0  0  0
   -0.4888   -2.2148    1.1841 O   0  0  0  0  0  0  0  0  0  0  0  0
   -1.2816    0.2949    1.4698 C   0  0  0  0  0  0  0  0  0  0  0  0
   -0.2136    0.8987    0.6401 C   0  0  0  0  0  0  0  0  0  0  0  0
   -0.0712    2.1392    0.0525 C   0  0  0  0  0  0  0  0  0  0  0  0
    1.1872    2.1330   -0.5975 C   0  0  0  0  0  0  0  0  0  0  0  0
    1.7524    0.8957   -0.3597 C   0  0  0  0  0  0  0  0  0  0  0  0
    3.0184    0.3236   -0.7687 C   0  0  0  0  0  0  0  0  0  0  0  0
    3.8440    0.9280   -1.4476 O   0  0  0  0  0  0  0  0  0  0  0  0
    3.2147   -0.9651   -0.3268 N   0  0  0  0  0  0  0  0  0  0  0  0
    4.4781   -1.6428   -0.4721 C   0  0  0  0  0  0  0  0  0  0  0  0
    5.2999   -1.3799    0.7336 C   0  0  0  0  0  0  0  0  0  0  0  0
    6.1803   -0.3745    1.0775 C   0  0  0  0  0  0  0  0  0  0  0  0
    6.6448   -0.6786    2.3793 C   0  0  0  0  0  0  0  0  0  0  0  0
    6.0183   -1.8462    2.7467 C   0  0  0  0  0  0  0  0  0  0  0  0
    5.1987   -2.2798    1.7546 O   0  0  0  0  0  0  0  0  0  0  0  0
    0.8978    0.1500    0.4062 O   0  0  0  0  0  0  0  0  0  0  0  0
   -4.2766   -0.2938   -0.7731 C   0  0  0  0  0  0  0  0  0  0  0  0
   -7.2633    1.1941   -1.3535 H   0  0  0  0  0  0  0  0  0  0  0  0
   -6.6578    1.1793    0.3208 H   0  0  0  0  0  0  0  0  0  0  0  0
   -6.9505   -0.3454   -0.5533 H   0  0  0  0  0  0  0  0  0  0  0  0
   -5.4054    2.5655   -2.2400 H   0  0  0  0  0  0  0  0  0  0  0  0
   -3.0698    2.6067   -3.0373 H   0  0  0  0  0  0  0  0  0  0  0  0
   -1.5000    0.8213   -2.4045 H   0  0  0  0  0  0  0  0  0  0  0  0
   -2.3581   -2.3272   -1.0878 H   0  0  0  0  0  0  0  0  0  0  0  0
   -0.9969   -1.2178   -1.2963 H   0  0  0  0  0  0  0  0  0  0  0  0
   -2.2061    0.8769    1.4140 H   0  0  0  0  0  0  0  0  0  0  0  0
   -0.9691    0.2472    2.5176 H   0  0  0  0  0  0  0  0  0  0  0  0
   -0.7880    2.9495    0.0854 H   0  0  0  0  0  0  0  0  0  0  0  0
    1.6444    2.9305   -1.1684 H   0  0  0  0  0  0  0  0  0  0  0  0
    2.5461   -1.3368    0.3404 H   0  0  0  0  0  0  0  0  0  0  0  0
    4.2700   -2.7122   -0.5770 H   0  0  0  0  0  0  0  0  0  0  0  0
    4.9932   -1.3002   -1.3753 H   0  0  0  0  0  0  0  0  0  0  0  0
    6.4428    0.4744    0.4604 H   0  0  0  0  0  0  0  0  0  0  0  0
    7.3464   -0.1155    2.9781 H   0  0  0  0  0  0  0  0  0  0  0  0
    6.0446   -2.4640    3.6335 H   0  0  0  0  0  0  0  0  0  0  0  0
   -4.6346   -1.1128   -0.1483 H   0  0  0  0  0  0  0  0  0  0  0  0
  1  2  1  0
  2  3  2  0
  3  4  1  0
  4  5  2  0
  5  6  1  0
  6  7  1  0
  7  8  1  0
  8  9  2  0
  8 10  2  0
  8 11  1  0
 11 12  1  0
 12 13  2  0
 13 14  1  0
 14 15  2  0
 15 16  1  0
 16 17  2  0
 16 18  1  0
 18 19  1  0
 19 20  1  0
 20 21  2  0
 21 22  1  0
 22 23  2  0
 23 24  1  0
 15 25  1  0
  6 26  2  0
 26  2  1  0
 25 12  1  0
 24 20  1  0
  1 27  1  0
  1 28  1  0
  1 29  1  0
  3 30  1  0
  4 31  1  0
  5 32  1  0
  7 33  1  0
  7 34  1  0
 11 35  1  0
 11 36  1  0
 13 37  1  0
 14 38  1  0
 18 39  1  0
 19 40  1  0
 19 41  1  0
 21 42  1  0
 22 43  1  0
 23 44  1  0
 26 45  1  0
M  END
$$$$
