
     RDKit          3D

 55 58  0  0  0  0  0  0  0  0999 V2000
   -4.7967    2.6416    0.2598 C   0  0  0  0  0  0  0  0  0  0  0  0
   -3.6510    1.9913   -0.5188 C   0  0  0  0  0  0  0  0  0  0  0  0
   -3.8618    2.0879   -2.0305 C   0  0  0  0  0  0  0  0  0  0  0  0
   -3.3816    0.6252   -0.0776 N   0  0  0  0  0  0  0  0  0  0  0  0
   -2.2166    0.1937    0.5360 C   0  0  0  0  0  0  0  0  0  0  0  0
   -1.1390    1.0132    0.7057 N   0  0  0  0  0  0  0  0  0  0  0  0
   -0.3399    0.7501    1.9256 C   0  0  0  0  0  0  0  0  0  0  0  0
    0.7034   -0.3756    1.7253 C   0  0  0  0  0  0  0  0  0  0  0  0
    1.6083   -0.2020    0.5606 N   0  0  0  0  0  0  0  0  0  0  0  0
    2.5797    0.8931    0.8039 C   0  0  0  0  0  0  0  0  0  0  0  0
    3.7442    0.8445   -0.1957 C   0  0  0  0  0  0  0  0  0  0  0  0
    4.3893    1.8449   -0.4976 O   0  0  0  0  0  0  0  0  0  0  0  0
    4.0241   -0.4162   -0.6648 N   0  0  0  0  0  0  0  0  0  0  0  0
    5.1632   -0.7218   -1.4900 C   0  0  0  0  0  0  0  0  0  0  0  0
    6.2554   -1.2436   -0.6120 C   0  0  0  0  0  0  0  0  0  0  0  0
    7.1591   -0.5202    0.1433 C   0  0  0  0  0  0  0  0  0  0  0  0
    8.0609   -1.3570    0.8602 C   0  0  0  0  0  0  0  0  0  0  0  0
    7.8175   -2.6922    0.6289 C   0  0  0  0  0  0  0  0  0  0  0  0
    6.5082   -2.9303   -0.4451 S   0  0  0  0  0  0  0  0  0  0  0  0
    0.7645    0.0572   -0.6355 C   0  0  0  0  0  0  0  0  0  0  0  0
   -0.2827    1.1900   -0.4893 C   0  0  0  0  0  0  0  0  0  0  0  0
   -2.3315   -1.0470    0.9472 N   0  0  0  0  0  0  0  0  0  0  0  0
   -3.5675   -1.4652    0.5379 C   0  0  0  0  0  0  0  0  0  0  0  0
   -4.1723   -2.7213    0.7007 C   0  0  0  0  0  0  0  0  0  0  0  0
   -5.4611   -2.9230    0.1972 C   0  0  0  0  0  0  0  0  0  0  0  0
   -6.1362   -1.8917   -0.4540 C   0  0  0  0  0  0  0  0  0  0  0  0
   -5.5494   -0.6313   -0.6222 C   0  0  0  0  0  0  0  0  0  0  0  0
   -4.2549   -0.4454   -0.1155 C   0  0  0  0  0  0  0  0  0  0  0  0
   -5.7638    2.1825    0.0361 H   0  0  0  0  0  0  0  0  0  0  0  0
   -4.8724    3.7058    0.0105 H   0  0  0  0  0  0  0  0  0  0  0  0
   -4.6303    2.5607    1.3396 H   0  0  0  0  0  0  0  0  0  0  0  0
   -2.7581    2.5837   -0.2901 H   0  0  0  0  0  0  0  0  0  0  0  0
   -3.9160    3.1365   -2.3423 H   0  0  0  0  0  0  0  0  0  0  0  0
   -3.0349    1.6187   -2.5739 H   0  0  0  0  0  0  0  0  0  0  0  0
   -4.7871    1.6019   -2.3522 H   0  0  0  0  0  0  0  0  0  0  0  0
   -0.9932    0.5063    2.7734 H   0  0  0  0  0  0  0  0  0  0  0  0
    0.1738    1.6796    2.2006 H   0  0  0  0  0  0  0  0  0  0  0  0
    1.2965   -0.4868    2.6415 H   0  0  0  0  0  0  0  0  0  0  0  0
    0.1859   -1.3348    1.6015 H   0  0  0  0  0  0  0  0  0  0  0  0
    2.1185    1.8846    0.7618 H   0  0  0  0  0  0  0  0  0  0  0  0
    3.0392    0.7725    1.7928 H   0  0  0  0  0  0  0  0  0  0  0  0
    3.4497   -1.1686   -0.2947 H   0  0  0  0  0  0  0  0  0  0  0  0
    4.8454   -1.4607   -2.2325 H   0  0  0  0  0  0  0  0  0  0  0  0
    5.4971    0.1743   -2.0240 H   0  0  0  0  0  0  0  0  0  0  0  0
    7.1636    0.5639    0.1798 H   0  0  0  0  0  0  0  0  0  0  0  0
    8.8466   -0.9970    1.5131 H   0  0  0  0  0  0  0  0  0  0  0  0
    8.3443   -3.5422    1.0397 H   0  0  0  0  0  0  0  0  0  0  0  0
    1.3943    0.2648   -1.5084 H   0  0  0  0  0  0  0  0  0  0  0  0
    0.2383   -0.8764   -0.8746 H   0  0  0  0  0  0  0  0  0  0  0  0
    0.2222    2.1596   -0.4088 H   0  0  0  0  0  0  0  0  0  0  0  0
   -0.8846    1.2394   -1.4045 H   0  0  0  0  0  0  0  0  0  0  0  0
   -3.6388   -3.5156    1.2108 H   0  0  0  0  0  0  0  0  0  0  0  0
   -5.9387   -3.8922    0.3185 H   0  0  0  0  0  0  0  0  0  0  0  0
   -7.1396   -2.0677   -0.8363 H   0  0  0  0  0  0  0  0  0  0  0  0
   -6.0935    0.1585   -1.1265 H   0  0  0  0  0  0  0  0  0  0  0  0
  1  2  1  0
  2  3  1  0
  2  4  1  0
  4  5  1  0
  5  6  1  0
  6  7  1  0
  7  8  1  0
  8  9  1  0
  9 10  1  0
 10 11  1  0
 11 12  2  0
 11 13  1  0
 13 14  1  0
 14 15  1  0
 15 16  2  0
 16 17  1  0
 17 18  2  0
 18 19  1  0
  9 20  1  0
 20 21  1  0
  5 22  2  0
 22 23  1  0
 23 24  2  0
 24 25  1  0
 25 26  2  0
 26 27  1  0
 27 28  2  0
 28  4  1  0
 21  6  1  0
 28 23  1  0
 19 15  1  0
  1 29  1  0
  1 30  1  0
  1 31  1  0
  2 32  1  0
  3 33  1  0
  3 34  1  0
  3 35  1  0
  7 36  1  0
  7 37  1  0
  8 38  1  0
  8 39  1  0
 10 40  1  0
 10 41  1  0
 13 42  1  0
 14 43  1  0
 14 44  1  0
 16 45  1  0
 17 46  1  0
 18 47  1  0
 20 48  1  0
 20 49  1  0
 21 50  1  0
 21 51  1  0
 24 52  1  0
 25 53  1  0
 26 54  1  0
 27 55  1  0
M  END
$$$$
