
     RDKit          3D

 44 46  0  0  0  0  0  0  0  0999 V2000
    3.3182    2.7625   -1.8286 C   0  0  0  0  0  0  0  0  0  0  0  0
    2.9298    1.3816   -1.5487 N   0  0  0  0  0  0  0  0  0  0  0  0
    3.0489    1.0930   -0.1029 C   0  0  0  0  0  0  0  0  0  0  0  0
    2.6234   -0.3450    0.2424 C   0  0  0  0  0  0  0  0  0  0  0  0
    1.2929   -0.6682   -0.2724 N   0  0  0  0  0  0  0  0  0  0  0  0
    0.6031   -1.7013    0.3554 C   0  0  0  0  0  0  0  0  0  0  0  0
    1.0382   -2.3304    1.3175 O   0  0  0  0  0  0  0  0  0  0  0  0
   -0.7394   -2.0701   -0.1422 C   0  0  0  0  0  0  0  0  0  0  0  0
   -0.8758   -3.3628   -0.6717 C   0  0  0  0  0  0  0  0  0  0  0  0
   -2.1135   -3.8000   -1.1361 C   0  0  0  0  0  0  0  0  0  0  0  0
   -3.2172   -2.9555   -1.0582 C   0  0  0  0  0  0  0  0  0  0  0  0
   -3.0859   -1.6747   -0.5115 C   0  0  0  0  0  0  0  0  0  0  0  0
   -1.8470   -1.2014   -0.0340 C   0  0  0  0  0  0  0  0  0  0  0  0
   -1.7680    0.1645    0.5301 C   0  0  0  0  0  0  0  0  0  0  0  0
   -2.0246    1.2494   -0.3398 C   0  0  0  0  0  0  0  0  0  0  0  0
   -1.9263    2.5762    0.0858 C   0  0  0  0  0  0  0  0  0  0  0  0
   -1.5660    2.8570    1.3967 C   0  0  0  0  0  0  0  0  0  0  0  0
   -1.3203    1.8100    2.2826 C   0  0  0  0  0  0  0  0  0  0  0  0
   -1.4331    0.4683    1.8688 C   0  0  0  0  0  0  0  0  0  0  0  0
   -1.1742   -0.5389    2.9287 C   0  0  0  0  0  0  0  0  0  0  0  0
   -0.4715   -0.3603    3.9080 O   0  0  0  0  0  0  0  0  0  0  0  0
   -1.8662   -1.6765    2.7646 O   0  0  0  0  0  0  0  0  0  0  0  0
    1.0841   -0.3069   -1.6785 C   0  0  0  0  0  0  0  0  0  0  0  0
    1.5410    1.1321   -1.9839 C   0  0  0  0  0  0  0  0  0  0  0  0
    3.2585    2.9668   -2.9034 H   0  0  0  0  0  0  0  0  0  0  0  0
    2.6853    3.4878   -1.3045 H   0  0  0  0  0  0  0  0  0  0  0  0
    4.3587    2.9356   -1.5325 H   0  0  0  0  0  0  0  0  0  0  0  0
    2.4301    1.7938    0.4739 H   0  0  0  0  0  0  0  0  0  0  0  0
    4.0884    1.2315    0.2174 H   0  0  0  0  0  0  0  0  0  0  0  0
    2.6434   -0.4777    1.3301 H   0  0  0  0  0  0  0  0  0  0  0  0
    3.3271   -1.0665   -0.1912 H   0  0  0  0  0  0  0  0  0  0  0  0
   -0.0153   -4.0274   -0.7108 H   0  0  0  0  0  0  0  0  0  0  0  0
   -2.2193   -4.8017   -1.5447 H   0  0  0  0  0  0  0  0  0  0  0  0
   -4.1883   -3.2972   -1.4084 H   0  0  0  0  0  0  0  0  0  0  0  0
   -3.9720   -1.0455   -0.4404 H   0  0  0  0  0  0  0  0  0  0  0  0
   -2.2919    1.0592   -1.3788 H   0  0  0  0  0  0  0  0  0  0  0  0
   -2.1246    3.3872   -0.6106 H   0  0  0  0  0  0  0  0  0  0  0  0
   -1.4804    3.8868    1.7341 H   0  0  0  0  0  0  0  0  0  0  0  0
   -1.0455    2.0405    3.3114 H   0  0  0  0  0  0  0  0  0  0  0  0
   -1.5202   -2.2620    3.4702 H   0  0  0  0  0  0  0  0  0  0  0  0
    0.0376   -0.4261   -1.9677 H   0  0  0  0  0  0  0  0  0  0  0  0
    1.6618   -1.0208   -2.2795 H   0  0  0  0  0  0  0  0  0  0  0  0
    1.4574    1.2971   -3.0647 H   0  0  0  0  0  0  0  0  0  0  0  0
    0.8587    1.8359   -1.4901 H   0  0  0  0  0  0  0  0  0  0  0  0
  1  2  1  0
  2  3  1  0
  3  4  1  0
  4  5  1  0
  5  6  1  0
  6  7  2  0
  6  8  1  0
  8  9  2  0
  9 10  1  0
 10 11  2  0
 11 12  1  0
 12 13  2  0
 13 14  1  0
 14 15  2  0
 15 16  1  0
 16 17  2  0
 17 18  1  0
 18 19  2  0
 19 20  1  0
 20 21  2  0
 20 22  1  0
  5 23  1  0
 23 24  1  0
 24  2  1  0
 13  8  1  0
 19 14  1  0
  1 25  1  0
  1 26  1  0
  1 27  1  0
  3 28  1  0
  3 29  1  0
  4 30  1  0
  4 31  1  0
  9 32  1  0
 10 33  1  0
 11 34  1  0
 12 35  1  0
 15 36  1  0
 16 37  1  0
 17 38  1  0
 18 39  1  0
 22 40  1  0
 23 41  1  0
 23 42  1  0
 24 43  1  0
 24 44  1  0
M  END
$$$$
