
     RDKit          3D

 57 59  0  0  0  0  0  0  0  0999 V2000
   -8.1899    0.5050    1.3084 C   0  0  0  0  0  0  0  0  0  0  0  0
   -7.0029   -0.0658    0.5881 C   0  0  0  0  0  0  0  0  0  0  0  0
   -6.7624   -1.4472    0.5955 C   0  0  0  0  0  0  0  0  0  0  0  0
   -5.6459   -1.9752   -0.0552 C   0  0  0  0  0  0  0  0  0  0  0  0
   -4.7582   -1.1127   -0.7019 C   0  0  0  0  0  0  0  0  0  0  0  0
   -3.3326   -1.7604   -1.5369 S   0  0  0  0  0  6  0  0  0  0  0  0
   -3.3538   -3.2050   -1.4373 O   0  0  0  0  0  0  0  0  0  0  0  0
   -3.2495   -1.0992   -2.8218 O   0  0  0  0  0  0  0  0  0  0  0  0
   -2.0363   -1.2062   -0.5617 N   0  0  0  0  0  0  0  0  0  0  0  0
   -2.0793   -1.6452    0.8597 C   0  0  0  0  0  0  0  0  0  0  0  0
   -0.7407   -1.4001    1.5404 C   0  0  0  0  0  0  0  0  0  0  0  0
    0.3437   -2.2676    0.8968 C   0  0  0  0  0  0  0  0  0  0  0  0
    1.7385   -1.7765    1.2587 C   0  0  0  0  0  0  0  0  0  0  0  0
    2.5144   -2.4688    1.9132 O   0  0  0  0  0  0  0  0  0  0  0  0
    2.0706   -0.5254    0.8139 N   0  0  0  0  0  0  0  0  0  0  0  0
    3.3800    0.0686    1.0564 C   0  0  0  0  0  0  0  0  0  0  0  0
    3.4609    0.6570    2.4608 C   0  0  0  0  0  0  0  0  0  0  0  0
    3.6096    1.1630   -0.0082 C   0  0  0  0  0  0  0  0  0  0  0  0
    2.6814    1.5436   -0.7210 O   0  0  0  0  0  0  0  0  0  0  0  0
    4.9131    1.6317   -0.0334 N   0  0  0  0  0  0  0  0  0  0  0  0
    5.4490    2.6398   -0.8605 C   0  0  0  0  0  0  0  0  0  0  0  0
    6.8100    2.9410   -0.6969 C   0  0  0  0  0  0  0  0  0  0  0  0
    7.4191    3.9287   -1.4754 C   0  0  0  0  0  0  0  0  0  0  0  0
    6.6675    4.6157   -2.4184 C   0  0  0  0  0  0  0  0  0  0  0  0
    7.2492    5.5627   -3.1651 F   0  0  0  0  0  0  0  0  0  0  0  0
    5.3201    4.3328   -2.5952 C   0  0  0  0  0  0  0  0  0  0  0  0
    4.7098    3.3448   -1.8152 C   0  0  0  0  0  0  0  0  0  0  0  0
    0.1542   -2.4101   -0.6200 C   0  0  0  0  0  0  0  0  0  0  0  0
   -0.7001   -1.2977   -1.2151 C   0  0  0  0  0  0  0  0  0  0  0  0
   -4.9807    0.2661   -0.7142 C   0  0  0  0  0  0  0  0  0  0  0  0
   -6.0993    0.7865   -0.0623 C   0  0  0  0  0  0  0  0  0  0  0  0
   -7.8925    0.8531    2.3027 H   0  0  0  0  0  0  0  0  0  0  0  0
   -8.6147    1.3451    0.7484 H   0  0  0  0  0  0  0  0  0  0  0  0
   -8.9813   -0.2439    1.4204 H   0  0  0  0  0  0  0  0  0  0  0  0
   -7.4496   -2.1214    1.1033 H   0  0  0  0  0  0  0  0  0  0  0  0
   -5.4794   -3.0499   -0.0532 H   0  0  0  0  0  0  0  0  0  0  0  0
   -2.3407   -2.7069    0.9321 H   0  0  0  0  0  0  0  0  0  0  0  0
   -2.8469   -1.0665    1.3841 H   0  0  0  0  0  0  0  0  0  0  0  0
   -0.4916   -0.3333    1.4859 H   0  0  0  0  0  0  0  0  0  0  0  0
   -0.8140   -1.6416    2.6078 H   0  0  0  0  0  0  0  0  0  0  0  0
    0.2675   -3.2779    1.3242 H   0  0  0  0  0  0  0  0  0  0  0  0
    1.4333    0.0251    0.2477 H   0  0  0  0  0  0  0  0  0  0  0  0
    4.1403   -0.7108    0.9277 H   0  0  0  0  0  0  0  0  0  0  0  0
    2.7244    1.4579    2.5933 H   0  0  0  0  0  0  0  0  0  0  0  0
    3.2626   -0.1046    3.2219 H   0  0  0  0  0  0  0  0  0  0  0  0
    4.4503    1.0815    2.6608 H   0  0  0  0  0  0  0  0  0  0  0  0
    5.5677    1.1917    0.6025 H   0  0  0  0  0  0  0  0  0  0  0  0
    7.4157    2.4154    0.0368 H   0  0  0  0  0  0  0  0  0  0  0  0
    8.4702    4.1667   -1.3505 H   0  0  0  0  0  0  0  0  0  0  0  0
    4.7479    4.8806   -3.3374 H   0  0  0  0  0  0  0  0  0  0  0  0
    3.6557    3.1500   -1.9841 H   0  0  0  0  0  0  0  0  0  0  0  0
    1.1198   -2.4526   -1.1375 H   0  0  0  0  0  0  0  0  0  0  0  0
   -0.3428   -3.3690   -0.8190 H   0  0  0  0  0  0  0  0  0  0  0  0
   -0.2100   -0.3244   -1.1056 H   0  0  0  0  0  0  0  0  0  0  0  0
   -0.7952   -1.4615   -2.2935 H   0  0  0  0  0  0  0  0  0  0  0  0
   -4.2895    0.9319   -1.2263 H   0  0  0  0  0  0  0  0  0  0  0  0
   -6.2666    1.8618   -0.0687 H   0  0  0  0  0  0  0  0  0  0  0  0
  1  2  1  0
  2  3  2  0
  3  4  1  0
  4  5  2  0
  5  6  1  0
  6  7  2  0
  6  8  2  0
  6  9  1  0
  9 10  1  0
 10 11  1  0
 11 12  1  0
 12 13  1  0
 13 14  2  0
 13 15  1  0
 15 16  1  0
 16 17  1  0
 16 18  1  0
 18 19  2  0
 18 20  1  0
 20 21  1  0
 21 22  2  0
 22 23  1  0
 23 24  2  0
 24 25  1  0
 24 26  1  0
 26 27  2  0
 12 28  1  0
 28 29  1  0
  5 30  1  0
 30 31  2  0
 31  2  1  0
 29  9  1  0
 27 21  1  0
  1 32  1  0
  1 33  1  0
  1 34  1  0
  3 35  1  0
  4 36  1  0
 10 37  1  0
 10 38  1  0
 11 39  1  0
 11 40  1  0
 12 41  1  0
 15 42  1  0
 16 43  1  0
 17 44  1  0
 17 45  1  0
 17 46  1  0
 20 47  1  0
 22 48  1  0
 23 49  1  0
 26 50  1  0
 27 51  1  0
 28 52  1  0
 28 53  1  0
 29 54  1  0
 29 55  1  0
 30 56  1  0
 31 57  1  0
M  END
$$$$
