
     RDKit          3D

 41 43  0  0  0  0  0  0  0  0999 V2000
   -4.4389   -1.6953    1.4535 O   0  0  0  0  0  0  0  0  0  0  0  0
   -3.9637   -0.7682    0.8092 C   0  0  0  0  0  0  0  0  0  0  0  0
   -2.6270   -0.5506    0.5263 N   0  0  0  0  0  0  0  0  0  0  0  0
   -1.5360   -1.3859    0.8497 C   0  0  0  0  0  0  0  0  0  0  0  0
   -1.6630   -2.6352    1.4479 C   0  0  0  0  0  0  0  0  0  0  0  0
   -0.5261   -3.3957    1.7243 C   0  0  0  0  0  0  0  0  0  0  0  0
    0.7490   -2.9179    1.4050 C   0  0  0  0  0  0  0  0  0  0  0  0
    0.9043   -1.6726    0.8050 C   0  0  0  0  0  0  0  0  0  0  0  0
    2.1310   -1.0786    0.4298 N   0  0  0  0  0  0  0  0  0  0  0  0
    3.4484   -1.4527    0.5409 C   0  0  0  0  0  0  0  0  0  0  0  0
    4.1311   -2.8170    1.2185 S   0  0  0  0  0  0  0  0  0  0  0  0
    4.3565   -0.5488    0.0042 N   0  0  0  0  0  0  0  0  0  0  0  0
    4.1325    0.6764   -0.6220 C   0  0  0  0  0  0  0  0  0  0  0  0
    2.9875    1.1173   -0.7450 O   0  0  0  0  0  0  0  0  0  0  0  0
    5.3307    1.3660   -1.0923 C   0  0  0  0  0  0  0  0  0  0  0  0
    6.6550    0.9598   -1.1346 C   0  0  0  0  0  0  0  0  0  0  0  0
    7.5208    1.9575   -1.6764 C   0  0  0  0  0  0  0  0  0  0  0  0
    6.8365    3.0945   -2.0358 C   0  0  0  0  0  0  0  0  0  0  0  0
    5.1639    2.9579   -1.7254 S   0  0  0  0  0  0  0  0  0  0  0  0
   -0.2516   -0.9182    0.5305 C   0  0  0  0  0  0  0  0  0  0  0  0
   -4.8890    0.2804    0.2933 C   0  0  0  0  0  0  0  0  0  0  0  0
   -4.6803    0.9036   -0.9447 C   0  0  0  0  0  0  0  0  0  0  0  0
   -5.5720    1.8816   -1.3911 C   0  0  0  0  0  0  0  0  0  0  0  0
   -6.6741    2.2320   -0.6106 C   0  0  0  0  0  0  0  0  0  0  0  0
   -6.8951    1.6005    0.6132 C   0  0  0  0  0  0  0  0  0  0  0  0
   -6.0077    0.6219    1.0631 C   0  0  0  0  0  0  0  0  0  0  0  0
   -2.3890    0.3352    0.0998 H   0  0  0  0  0  0  0  0  0  0  0  0
   -2.6308   -3.0511    1.7093 H   0  0  0  0  0  0  0  0  0  0  0  0
   -0.6346   -4.3718    2.1918 H   0  0  0  0  0  0  0  0  0  0  0  0
    1.5833   -3.5628    1.6430 H   0  0  0  0  0  0  0  0  0  0  0  0
    2.0213   -0.1646   -0.0134 H   0  0  0  0  0  0  0  0  0  0  0  0
    5.3104   -0.8564    0.1138 H   0  0  0  0  0  0  0  0  0  0  0  0
    7.0170   -0.0060   -0.8056 H   0  0  0  0  0  0  0  0  0  0  0  0
    8.5917    1.8442   -1.7984 H   0  0  0  0  0  0  0  0  0  0  0  0
    7.2372    4.0009   -2.4697 H   0  0  0  0  0  0  0  0  0  0  0  0
   -0.1462    0.0572    0.0603 H   0  0  0  0  0  0  0  0  0  0  0  0
   -3.8500    0.6181   -1.5847 H   0  0  0  0  0  0  0  0  0  0  0  0
   -5.4154    2.3630   -2.3535 H   0  0  0  0  0  0  0  0  0  0  0  0
   -7.3696    2.9907   -0.9620 H   0  0  0  0  0  0  0  0  0  0  0  0
   -7.7609    1.8652    1.2151 H   0  0  0  0  0  0  0  0  0  0  0  0
   -6.1873    0.1257    2.0150 H   0  0  0  0  0  0  0  0  0  0  0  0
  1  2  2  0
  2  3  1  0
  3  4  1  0
  4  5  2  0
  5  6  1  0
  6  7  2  0
  7  8  1  0
  8  9  1  0
  9 10  1  0
 10 11  2  0
 10 12  1  0
 12 13  1  0
 13 14  2  0
 13 15  1  0
 15 16  2  0
 16 17  1  0
 17 18  2  0
 18 19  1  0
  8 20  2  0
  2 21  1  0
 21 22  2  0
 22 23  1  0
 23 24  2  0
 24 25  1  0
 25 26  2  0
 20  4  1  0
 26 21  1  0
 19 15  1  0
  3 27  1  0
  5 28  1  0
  6 29  1  0
  7 30  1  0
  9 31  1  0
 12 32  1  0
 16 33  1  0
 17 34  1  0
 18 35  1  0
 20 36  1  0
 22 37  1  0
 23 38  1  0
 24 39  1  0
 25 40  1  0
 26 41  1  0
M  END
$$$$
