
     RDKit          3D

 41 44  0  0  0  0  0  0  0  0999 V2000
   -4.2516    3.1579   -0.7888 C   0  0  0  0  0  0  0  0  0  0  0  0
   -3.8009    2.0238   -0.0596 O   0  0  0  0  0  0  0  0  0  0  0  0
   -4.5875    0.8996   -0.0922 C   0  0  0  0  0  0  0  0  0  0  0  0
   -5.8317    0.8158   -0.7256 C   0  0  0  0  0  0  0  0  0  0  0  0
   -6.5628   -0.3755   -0.6949 C   0  0  0  0  0  0  0  0  0  0  0  0
   -6.0603   -1.4913   -0.0307 C   0  0  0  0  0  0  0  0  0  0  0  0
   -4.8224   -1.4209    0.6056 C   0  0  0  0  0  0  0  0  0  0  0  0
   -4.0805   -0.2320    0.5774 C   0  0  0  0  0  0  0  0  0  0  0  0
   -2.7774   -0.2074    1.2555 C   0  0  0  0  0  0  0  0  0  0  0  0
   -1.5916   -0.3143    0.6408 C   0  0  0  0  0  0  0  0  0  0  0  0
   -1.3070   -0.5408   -1.0764 S   0  0  0  0  0  0  0  0  0  0  0  0
    0.3823   -0.5156   -0.7885 C   0  0  0  0  0  0  0  0  0  0  0  0
    1.4507   -0.6297   -1.5220 N   0  0  0  0  0  0  0  0  0  0  0  0
    2.4661   -0.5015   -0.5728 C   0  0  0  0  0  0  0  0  0  0  0  0
    3.8732   -0.5787   -0.9583 C   0  0  0  0  0  0  0  0  0  0  0  0
    4.2243   -1.3650   -2.0703 C   0  0  0  0  0  0  0  0  0  0  0  0
    5.5552   -1.4763   -2.4828 C   0  0  0  0  0  0  0  0  0  0  0  0
    6.5556   -0.7920   -1.7977 C   0  0  0  0  0  0  0  0  0  0  0  0
    6.2261    0.0022   -0.7008 C   0  0  0  0  0  0  0  0  0  0  0  0
    4.8955    0.0970   -0.2731 C   0  0  0  0  0  0  0  0  0  0  0  0
    4.6134    0.9540    0.7610 O   0  0  0  0  0  0  0  0  0  0  0  0
    4.9564    0.3580    2.0130 C   0  0  0  0  0  0  0  0  0  0  0  0
    2.0245   -0.3742    0.6989 N   0  0  0  0  0  0  0  0  0  0  0  0
    0.6959   -0.3599    0.5112 N   0  0  0  0  0  0  0  0  0  0  0  0
   -0.3245   -0.2443    1.4297 C   0  0  0  0  0  0  0  0  0  0  0  0
   -0.1585   -0.1254    2.6304 O   0  0  0  0  0  0  0  0  0  0  0  0
   -3.4955    3.9423   -0.6866 H   0  0  0  0  0  0  0  0  0  0  0  0
   -5.1891    3.5443   -0.3759 H   0  0  0  0  0  0  0  0  0  0  0  0
   -4.3511    2.9292   -1.8550 H   0  0  0  0  0  0  0  0  0  0  0  0
   -6.2650    1.6603   -1.2511 H   0  0  0  0  0  0  0  0  0  0  0  0
   -7.5290   -0.4302   -1.1909 H   0  0  0  0  0  0  0  0  0  0  0  0
   -6.6322   -2.4156   -0.0084 H   0  0  0  0  0  0  0  0  0  0  0  0
   -4.4399   -2.2994    1.1204 H   0  0  0  0  0  0  0  0  0  0  0  0
   -2.8300   -0.0679    2.3338 H   0  0  0  0  0  0  0  0  0  0  0  0
    3.4544   -1.8986   -2.6256 H   0  0  0  0  0  0  0  0  0  0  0  0
    5.8058   -2.0894   -3.3449 H   0  0  0  0  0  0  0  0  0  0  0  0
    7.5892   -0.8644   -2.1260 H   0  0  0  0  0  0  0  0  0  0  0  0
    7.0030    0.5629   -0.1883 H   0  0  0  0  0  0  0  0  0  0  0  0
    4.5812   -0.6683    2.0976 H   0  0  0  0  0  0  0  0  0  0  0  0
    4.4948    0.9547    2.8054 H   0  0  0  0  0  0  0  0  0  0  0  0
    6.0409    0.3768    2.1630 H   0  0  0  0  0  0  0  0  0  0  0  0
  1  2  1  0
  2  3  1  0
  3  4  2  0
  4  5  1  0
  5  6  2  0
  6  7  1  0
  7  8  2  0
  8  9  1  0
  9 10  2  3
 10 11  1  0
 11 12  1  0
 12 13  2  0
 13 14  1  0
 14 15  1  0
 15 16  2  0
 16 17  1  0
 17 18  2  0
 18 19  1  0
 19 20  2  0
 20 21  1  0
 21 22  1  0
 14 23  2  0
 23 24  1  0
 24 25  1  0
 25 26  2  0
  8  3  1  0
 25 10  1  0
 24 12  1  0
 20 15  1  0
  1 27  1  0
  1 28  1  0
  1 29  1  0
  4 30  1  0
  5 31  1  0
  6 32  1  0
  7 33  1  0
  9 34  1  0
 16 35  1  0
 17 36  1  0
 18 37  1  0
 19 38  1  0
 22 39  1  0
 22 40  1  0
 22 41  1  0
M  END
$$$$
