
     RDKit          3D

 45 47  0  0  0  0  0  0  0  0999 V2000
    4.1418    2.0634    3.3566 C   0  0  0  0  0  0  0  0  0  0  0  0
    3.4629    1.2836    2.2682 C   0  0  0  0  0  0  0  0  0  0  0  0
    2.2649    1.7438    1.7132 C   0  0  0  0  0  0  0  0  0  0  0  0
    1.6160    1.0058    0.7214 C   0  0  0  0  0  0  0  0  0  0  0  0
    2.1509   -0.2106    0.2809 C   0  0  0  0  0  0  0  0  0  0  0  0
    1.4308   -0.9722   -0.7792 C   0  0  0  0  0  0  0  0  0  0  0  0
    0.6927   -0.3290   -1.6344 N   0  0  0  0  0  0  0  0  0  0  0  0
    0.0084   -1.0449   -2.5950 N   0  0  0  0  0  0  0  0  0  0  0  0
   -0.6421   -0.2580   -3.6474 C   0  0  0  0  0  0  0  0  0  0  0  0
   -1.9013    0.4648   -3.1532 C   0  0  0  0  0  0  0  0  0  0  0  0
   -2.6759    1.0356   -3.9200 O   0  0  0  0  0  0  0  0  0  0  0  0
   -2.0503    0.4975   -1.7870 N   0  0  0  0  0  0  0  0  0  0  0  0
   -3.0204    1.3514   -1.1459 C   0  0  0  0  0  0  0  0  0  0  0  0
   -3.1077    1.0375    0.3295 C   0  0  0  0  0  0  0  0  0  0  0  0
   -4.1426    0.2468    0.8223 C   0  0  0  0  0  0  0  0  0  0  0  0
   -4.1616   -0.0693    2.1790 C   0  0  0  0  0  0  0  0  0  0  0  0
   -3.1471    0.3988    3.0036 C   0  0  0  0  0  0  0  0  0  0  0  0
   -2.1469    1.1666    2.4338 C   0  0  0  0  0  0  0  0  0  0  0  0
   -2.0994    1.4887    1.1215 N   0  0  0  0  0  0  0  0  0  0  0  0
   -0.2642   -2.4057   -2.4922 C   0  0  0  0  0  0  0  0  0  0  0  0
   -0.9495   -3.0338   -3.2971 O   0  0  0  0  0  0  0  0  0  0  0  0
    0.2773   -3.0741   -1.2554 C   0  0  0  0  0  0  0  0  0  0  0  0
    1.6014   -2.4689   -0.8559 C   0  0  0  0  0  0  0  0  0  0  0  0
    3.3447   -0.6779    0.8358 C   0  0  0  0  0  0  0  0  0  0  0  0
    3.9917    0.0631    1.8303 C   0  0  0  0  0  0  0  0  0  0  0  0
    3.9947    3.1394    3.2134 H   0  0  0  0  0  0  0  0  0  0  0  0
    3.7357    1.7761    4.3310 H   0  0  0  0  0  0  0  0  0  0  0  0
    5.2216    1.8817    3.3556 H   0  0  0  0  0  0  0  0  0  0  0  0
    1.8250    2.6830    2.0440 H   0  0  0  0  0  0  0  0  0  0  0  0
    0.6853    1.3881    0.3066 H   0  0  0  0  0  0  0  0  0  0  0  0
   -0.9261   -0.9075   -4.4801 H   0  0  0  0  0  0  0  0  0  0  0  0
    0.0724    0.4915   -4.0025 H   0  0  0  0  0  0  0  0  0  0  0  0
   -1.2014    0.2851   -1.2626 H   0  0  0  0  0  0  0  0  0  0  0  0
   -3.9912    1.2411   -1.6420 H   0  0  0  0  0  0  0  0  0  0  0  0
   -2.6963    2.3894   -1.2804 H   0  0  0  0  0  0  0  0  0  0  0  0
   -4.9169   -0.1313    0.1603 H   0  0  0  0  0  0  0  0  0  0  0  0
   -4.9610   -0.6801    2.5844 H   0  0  0  0  0  0  0  0  0  0  0  0
   -3.1347    0.1768    4.0649 H   0  0  0  0  0  0  0  0  0  0  0  0
   -1.3302    1.5559    3.0364 H   0  0  0  0  0  0  0  0  0  0  0  0
    0.4047   -4.1430   -1.4592 H   0  0  0  0  0  0  0  0  0  0  0  0
   -0.4656   -2.9570   -0.4581 H   0  0  0  0  0  0  0  0  0  0  0  0
    2.3715   -2.6823   -1.6058 H   0  0  0  0  0  0  0  0  0  0  0  0
    1.9190   -2.8873    0.1027 H   0  0  0  0  0  0  0  0  0  0  0  0
    3.8007   -1.6059    0.5033 H   0  0  0  0  0  0  0  0  0  0  0  0
    4.9183   -0.3167    2.2572 H   0  0  0  0  0  0  0  0  0  0  0  0
  1  2  1  0
  2  3  2  0
  3  4  1  0
  4  5  2  0
  5  6  1  0
  6  7  2  0
  7  8  1  0
  8  9  1  0
  9 10  1  0
 10 11  2  0
 10 12  1  0
 12 13  1  0
 13 14  1  0
 14 15  2  0
 15 16  1  0
 16 17  2  0
 17 18  1  0
 18 19  2  0
  8 20  1  0
 20 21  2  0
 20 22  1  0
 22 23  1  0
  5 24  1  0
 24 25  2  0
 25  2  1  0
 23  6  1  0
 19 14  1  0
  1 26  1  0
  1 27  1  0
  1 28  1  0
  3 29  1  0
  4 30  1  0
  9 31  1  0
  9 32  1  0
 12 33  1  0
 13 34  1  0
 13 35  1  0
 15 36  1  0
 16 37  1  0
 17 38  1  0
 18 39  1  0
 22 40  1  0
 22 41  1  0
 23 42  1  0
 23 43  1  0
 24 44  1  0
 25 45  1  0
M  END
$$$$
