
     RDKit          3D

 50 51  0  0  0  0  0  0  0  0999 V2000
    8.9573   -1.4768   -0.3705 C   0  0  0  0  0  0  0  0  0  0  0  0
    7.7405   -0.7848   -0.0854 O   0  0  0  0  0  0  0  0  0  0  0  0
    6.7699   -1.5719    0.4429 C   0  0  0  0  0  0  0  0  0  0  0  0
    6.8651   -2.7686    0.6691 O   0  0  0  0  0  0  0  0  0  0  0  0
    5.5425   -0.7779    0.7246 C   0  0  0  0  0  0  0  0  0  0  0  0
    4.4482   -1.4353    1.3027 C   0  0  0  0  0  0  0  0  0  0  0  0
    3.2725   -0.7357    1.5899 C   0  0  0  0  0  0  0  0  0  0  0  0
    3.1760    0.6336    1.3087 C   0  0  0  0  0  0  0  0  0  0  0  0
    1.9044    1.3917    1.5931 C   0  0  0  0  0  0  0  0  0  0  0  0
    1.0773    1.4595    0.4125 N   0  0  0  0  0  0  0  0  0  0  0  0
    1.0516    2.5701   -0.4030 C   0  0  0  0  0  0  0  0  0  0  0  0
    1.6850    3.5964   -0.1712 O   0  0  0  0  0  0  0  0  0  0  0  0
    0.2160    2.3982   -1.6742 C   0  0  0  0  0  0  0  0  0  0  0  0
   -0.7213    1.3189   -1.6192 O   0  0  0  0  0  0  0  0  0  0  0  0
   -1.8872    1.6129   -0.9740 C   0  0  0  0  0  0  0  0  0  0  0  0
   -2.1504    2.6861   -0.4546 O   0  0  0  0  0  0  0  0  0  0  0  0
   -2.7915    0.4027   -1.0013 C   0  0  0  0  0  0  0  0  0  0  0  0
   -4.0622    0.6230   -0.1800 C   0  0  0  0  0  0  0  0  0  0  0  0
   -4.9361   -0.6297   -0.1055 C   0  0  0  0  0  0  0  0  0  0  0  0
   -6.1980   -0.4155    0.7274 C   0  0  0  0  0  0  0  0  0  0  0  0
   -7.0663   -1.6084    0.3571 C   0  0  0  0  0  0  0  0  0  0  0  0
   -6.7454   -1.9055   -1.1062 C   0  0  0  0  0  0  0  0  0  0  0  0
   -5.5012   -1.0864   -1.4507 C   0  0  0  0  0  0  0  0  0  0  0  0
    4.2693    1.2862    0.7206 C   0  0  0  0  0  0  0  0  0  0  0  0
    5.4459    0.5882    0.4327 C   0  0  0  0  0  0  0  0  0  0  0  0
    9.3770   -1.9094    0.5434 H   0  0  0  0  0  0  0  0  0  0  0  0
    8.7893   -2.2517   -1.1253 H   0  0  0  0  0  0  0  0  0  0  0  0
    9.6727   -0.7528   -0.7698 H   0  0  0  0  0  0  0  0  0  0  0  0
    4.5078   -2.4978    1.5333 H   0  0  0  0  0  0  0  0  0  0  0  0
    2.4361   -1.2684    2.0376 H   0  0  0  0  0  0  0  0  0  0  0  0
    2.1345    2.3961    1.9660 H   0  0  0  0  0  0  0  0  0  0  0  0
    1.3227    0.8831    2.3697 H   0  0  0  0  0  0  0  0  0  0  0  0
    0.6793    0.6009    0.0551 H   0  0  0  0  0  0  0  0  0  0  0  0
    0.9106    2.1797   -2.4922 H   0  0  0  0  0  0  0  0  0  0  0  0
   -0.2876    3.3427   -1.9106 H   0  0  0  0  0  0  0  0  0  0  0  0
   -2.2338   -0.4476   -0.5918 H   0  0  0  0  0  0  0  0  0  0  0  0
   -3.0454    0.1956   -2.0463 H   0  0  0  0  0  0  0  0  0  0  0  0
   -4.6333    1.4577   -0.6075 H   0  0  0  0  0  0  0  0  0  0  0  0
   -3.7897    0.9283    0.8388 H   0  0  0  0  0  0  0  0  0  0  0  0
   -4.3554   -1.4510    0.3364 H   0  0  0  0  0  0  0  0  0  0  0  0
   -6.7013    0.5182    0.4474 H   0  0  0  0  0  0  0  0  0  0  0  0
   -5.9873   -0.3806    1.8008 H   0  0  0  0  0  0  0  0  0  0  0  0
   -8.1308   -1.4080    0.5148 H   0  0  0  0  0  0  0  0  0  0  0  0
   -6.7972   -2.4733    0.9754 H   0  0  0  0  0  0  0  0  0  0  0  0
   -6.5652   -2.9772   -1.2474 H   0  0  0  0  0  0  0  0  0  0  0  0
   -7.5798   -1.6271   -1.7591 H   0  0  0  0  0  0  0  0  0  0  0  0
   -5.7884   -0.2252   -2.0666 H   0  0  0  0  0  0  0  0  0  0  0  0
   -4.7776   -1.6760   -2.0235 H   0  0  0  0  0  0  0  0  0  0  0  0
    4.2053    2.3477    0.4814 H   0  0  0  0  0  0  0  0  0  0  0  0
    6.2756    1.1251   -0.0204 H   0  0  0  0  0  0  0  0  0  0  0  0
  1  2  1  0
  2  3  1  0
  3  4  2  0
  3  5  1  0
  5  6  2  0
  6  7  1  0
  7  8  2  0
  8  9  1  0
  9 10  1  0
 10 11  1  0
 11 12  2  0
 11 13  1  0
 13 14  1  0
 14 15  1  0
 15 16  2  0
 15 17  1  0
 17 18  1  0
 18 19  1  0
 19 20  1  0
 20 21  1  0
 21 22  1  0
 22 23  1  0
  8 24  1  0
 24 25  2  0
 25  5  1  0
 23 19  1  0
  1 26  1  0
  1 27  1  0
  1 28  1  0
  6 29  1  0
  7 30  1  0
  9 31  1  0
  9 32  1  0
 10 33  1  0
 13 34  1  0
 13 35  1  0
 17 36  1  0
 17 37  1  0
 18 38  1  0
 18 39  1  0
 19 40  1  0
 20 41  1  0
 20 42  1  0
 21 43  1  0
 21 44  1  0
 22 45  1  0
 22 46  1  0
 23 47  1  0
 23 48  1  0
 24 49  1  0
 25 50  1  0
M  END
$$$$
