
     RDKit          3D

 34 36  0  0  0  0  0  0  0  0999 V2000
    2.8023    1.6539   -0.2826 O   0  0  0  0  0  0  0  0  0  0  0  0
    2.3433    0.7657    0.4317 C   0  0  0  0  0  0  0  0  0  0  0  0
    3.1871   -0.3557    0.9927 C   0  0  0  0  0  0  0  0  0  0  0  0
    3.9146   -1.1163   -0.0039 N   0  0  0  0  0  0  0  0  0  0  0  0
    4.0673   -0.9109   -1.3397 C   0  0  0  0  0  0  0  0  0  0  0  0
    4.8055   -1.8697   -1.8530 N   0  0  0  0  0  0  0  0  0  0  0  0
    5.0958   -2.6476   -0.7715 C   0  0  0  0  0  0  0  0  0  0  0  0
    4.5681   -2.2352    0.3834 N   0  0  0  0  0  0  0  0  0  0  0  0
    1.0134    0.7244    0.7896 N   0  0  0  0  0  0  0  0  0  0  0  0
    0.1079    1.7830    0.3935 C   0  0  0  0  0  0  0  0  0  0  0  0
   -1.3235    1.4083    0.6908 C   0  0  0  0  0  0  0  0  0  0  0  0
   -1.9356    1.9810    1.8198 C   0  0  0  0  0  0  0  0  0  0  0  0
   -3.2469    1.6649    2.1560 C   0  0  0  0  0  0  0  0  0  0  0  0
   -3.9654    0.7669    1.3733 C   0  0  0  0  0  0  0  0  0  0  0  0
   -3.3847    0.1698    0.2457 C   0  0  0  0  0  0  0  0  0  0  0  0
   -4.1265   -0.7379   -0.5283 C   0  0  0  0  0  0  0  0  0  0  0  0
   -3.5698   -1.3473   -1.6511 C   0  0  0  0  0  0  0  0  0  0  0  0
   -2.2624   -1.0561   -2.0141 C   0  0  0  0  0  0  0  0  0  0  0  0
   -1.5125   -0.1541   -1.2558 C   0  0  0  0  0  0  0  0  0  0  0  0
   -2.0483    0.4823   -0.1116 C   0  0  0  0  0  0  0  0  0  0  0  0
    3.9227    0.0711    1.6863 H   0  0  0  0  0  0  0  0  0  0  0  0
    2.5622   -1.0715    1.5433 H   0  0  0  0  0  0  0  0  0  0  0  0
    3.6432   -0.0789   -1.8857 H   0  0  0  0  0  0  0  0  0  0  0  0
    5.7104   -3.5374   -0.8265 H   0  0  0  0  0  0  0  0  0  0  0  0
    0.7076    0.1131    1.5387 H   0  0  0  0  0  0  0  0  0  0  0  0
    0.4005    2.6866    0.9426 H   0  0  0  0  0  0  0  0  0  0  0  0
    0.2434    2.0175   -0.6684 H   0  0  0  0  0  0  0  0  0  0  0  0
   -1.3913    2.6851    2.4446 H   0  0  0  0  0  0  0  0  0  0  0  0
   -3.7116    2.1189    3.0271 H   0  0  0  0  0  0  0  0  0  0  0  0
   -4.9914    0.5332    1.6523 H   0  0  0  0  0  0  0  0  0  0  0  0
   -5.1530   -0.9784   -0.2601 H   0  0  0  0  0  0  0  0  0  0  0  0
   -4.1572   -2.0466   -2.2398 H   0  0  0  0  0  0  0  0  0  0  0  0
   -1.8215   -1.5266   -2.8885 H   0  0  0  0  0  0  0  0  0  0  0  0
   -0.4934    0.0445   -1.5791 H   0  0  0  0  0  0  0  0  0  0  0  0
  1  2  2  0
  2  3  1  0
  3  4  1  0
  4  5  1  0
  5  6  2  0
  6  7  1  0
  7  8  2  0
  2  9  1  0
  9 10  1  0
 10 11  1  0
 11 12  2  0
 12 13  1  0
 13 14  2  0
 14 15  1  0
 15 16  2  0
 16 17  1  0
 17 18  2  0
 18 19  1  0
 19 20  2  0
  8  4  1  0
 20 11  1  0
 20 15  1  0
  3 21  1  0
  3 22  1  0
  5 23  1  0
  7 24  1  0
  9 25  1  0
 10 26  1  0
 10 27  1  0
 12 28  1  0
 13 29  1  0
 14 30  1  0
 16 31  1  0
 17 32  1  0
 18 33  1  0
 19 34  1  0
M  END
$$$$
