
     RDKit          3D

 57 58  0  0  0  0  0  0  0  0999 V2000
    6.7819   -3.8318    2.1629 C   0  0  0  0  0  0  0  0  0  0  0  0
    7.1644   -2.5922    1.3700 C   0  0  0  0  0  0  0  0  0  0  0  0
    6.2780   -1.4039    1.7330 C   0  0  0  0  0  0  0  0  0  0  0  0
    6.6841   -0.1462    0.9684 C   0  0  0  0  0  0  0  0  0  0  0  0
    5.8631    0.9574    1.3496 O   0  0  0  0  0  0  0  0  0  0  0  0
    4.7309    1.2140    0.6295 C   0  0  0  0  0  0  0  0  0  0  0  0
    4.1631    0.3923   -0.3419 C   0  0  0  0  0  0  0  0  0  0  0  0
    2.9880    0.7813   -0.9983 C   0  0  0  0  0  0  0  0  0  0  0  0
    2.3641    2.0022   -0.6994 C   0  0  0  0  0  0  0  0  0  0  0  0
    1.0737    2.4370   -1.3718 C   0  0  0  0  0  0  0  0  0  0  0  0
    1.1095    2.2782   -2.8950 C   0  0  0  0  0  0  0  0  0  0  0  0
   -0.0408    1.7053   -0.7899 N   0  0  0  0  0  0  0  0  0  0  0  0
   -1.3308    2.1743   -0.8445 C   0  0  0  0  0  0  0  0  0  0  0  0
   -1.6585    3.2001   -1.4290 O   0  0  0  0  0  0  0  0  0  0  0  0
   -2.3229    1.2725   -0.1509 C   0  0  0  0  0  0  0  0  0  0  0  0
   -3.6629    1.9675    0.0153 C   0  0  0  0  0  0  0  0  0  0  0  0
   -4.9162    0.8827    0.6633 S   0  0  0  0  0  6  0  0  0  0  0  0
   -4.2747   -0.0029    1.6179 O   0  0  0  0  0  0  0  0  0  0  0  0
   -6.0300    1.7252    1.0604 O   0  0  0  0  0  0  0  0  0  0  0  0
   -5.4077   -0.0667   -0.7763 C   0  0  0  0  0  0  0  0  0  0  0  0
   -6.4920   -1.0392   -0.3923 C   0  0  0  0  0  0  0  0  0  0  0  0
   -7.8412   -0.6545   -0.4290 C   0  0  0  0  0  0  0  0  0  0  0  0
   -8.8478   -1.5546   -0.0715 C   0  0  0  0  0  0  0  0  0  0  0  0
   -8.5182   -2.8495    0.3277 C   0  0  0  0  0  0  0  0  0  0  0  0
   -7.1812   -3.2373    0.3735 C   0  0  0  0  0  0  0  0  0  0  0  0
   -6.7721   -4.8347    0.8683 Cl  0  0  0  0  0  0  0  0  0  0  0  0
   -6.1702   -2.3421    0.0192 C   0  0  0  0  0  0  0  0  0  0  0  0
    2.9329    2.8122    0.2935 C   0  0  0  0  0  0  0  0  0  0  0  0
    4.1043    2.4199    0.9466 C   0  0  0  0  0  0  0  0  0  0  0  0
    7.4127   -4.6776    1.8730 H   0  0  0  0  0  0  0  0  0  0  0  0
    5.7380   -4.1077    1.9825 H   0  0  0  0  0  0  0  0  0  0  0  0
    6.9112   -3.6633    3.2369 H   0  0  0  0  0  0  0  0  0  0  0  0
    7.0754   -2.8080    0.2983 H   0  0  0  0  0  0  0  0  0  0  0  0
    8.2150   -2.3496    1.5675 H   0  0  0  0  0  0  0  0  0  0  0  0
    6.3367   -1.2023    2.8102 H   0  0  0  0  0  0  0  0  0  0  0  0
    5.2281   -1.6454    1.5331 H   0  0  0  0  0  0  0  0  0  0  0  0
    6.7079   -0.2944   -0.1178 H   0  0  0  0  0  0  0  0  0  0  0  0
    7.7081    0.1233    1.2530 H   0  0  0  0  0  0  0  0  0  0  0  0
    4.5992   -0.5642   -0.6078 H   0  0  0  0  0  0  0  0  0  0  0  0
    2.5667    0.1120   -1.7457 H   0  0  0  0  0  0  0  0  0  0  0  0
    0.9100    3.5034   -1.1666 H   0  0  0  0  0  0  0  0  0  0  0  0
    0.2114    2.7069   -3.3543 H   0  0  0  0  0  0  0  0  0  0  0  0
    1.9786    2.7885   -3.3220 H   0  0  0  0  0  0  0  0  0  0  0  0
    1.1483    1.2266   -3.1980 H   0  0  0  0  0  0  0  0  0  0  0  0
    0.1734    0.8910   -0.2266 H   0  0  0  0  0  0  0  0  0  0  0  0
   -2.4240    0.3626   -0.7519 H   0  0  0  0  0  0  0  0  0  0  0  0
   -1.9220    0.9870    0.8284 H   0  0  0  0  0  0  0  0  0  0  0  0
   -4.0443    2.3774   -0.9259 H   0  0  0  0  0  0  0  0  0  0  0  0
   -3.5695    2.7998    0.7221 H   0  0  0  0  0  0  0  0  0  0  0  0
   -4.5299   -0.5941   -1.1607 H   0  0  0  0  0  0  0  0  0  0  0  0
   -5.7609    0.6319   -1.5414 H   0  0  0  0  0  0  0  0  0  0  0  0
   -8.1201    0.3573   -0.7217 H   0  0  0  0  0  0  0  0  0  0  0  0
   -9.8893   -1.2426   -0.0968 H   0  0  0  0  0  0  0  0  0  0  0  0
   -9.3046   -3.5452    0.6086 H   0  0  0  0  0  0  0  0  0  0  0  0
   -5.1311   -2.6606    0.0765 H   0  0  0  0  0  0  0  0  0  0  0  0
    2.4696    3.7572    0.5692 H   0  0  0  0  0  0  0  0  0  0  0  0
    4.5348    3.0639    1.7095 H   0  0  0  0  0  0  0  0  0  0  0  0
  1  2  1  0
  2  3  1  0
  3  4  1  0
  4  5  1  0
  5  6  1  0
  6  7  2  0
  7  8  1  0
  8  9  2  0
  9 10  1  0
 10 11  1  0
 10 12  1  0
 12 13  1  0
 13 14  2  0
 13 15  1  0
 15 16  1  0
 16 17  1  0
 17 18  2  0
 17 19  2  0
 17 20  1  0
 20 21  1  0
 21 22  2  0
 22 23  1  0
 23 24  2  0
 24 25  1  0
 25 26  1  0
 25 27  2  0
  9 28  1  0
 28 29  2  0
 29  6  1  0
 27 21  1  0
  1 30  1  0
  1 31  1  0
  1 32  1  0
  2 33  1  0
  2 34  1  0
  3 35  1  0
  3 36  1  0
  4 37  1  0
  4 38  1  0
  7 39  1  0
  8 40  1  0
 10 41  1  0
 11 42  1  0
 11 43  1  0
 11 44  1  0
 12 45  1  0
 15 46  1  0
 15 47  1  0
 16 48  1  0
 16 49  1  0
 20 50  1  0
 20 51  1  0
 22 52  1  0
 23 53  1  0
 24 54  1  0
 27 55  1  0
 28 56  1  0
 29 57  1  0
M  END
$$$$
