
     RDKit          3D

 40 43  0  0  0  0  0  0  0  0999 V2000
   -4.5950    2.1634    2.3719 C   0  0  0  0  0  0  0  0  0  0  0  0
   -4.0003    1.3450    3.4596 C   0  0  0  0  0  0  0  0  0  0  0  0
   -4.6580    1.3099    4.6856 N   0  0  0  0  0  0  0  0  0  0  0  0
   -4.0159    0.5689    5.5705 N   0  0  0  0  0  0  0  0  0  0  0  0
   -2.6073   -0.0868    4.9643 S   0  0  0  0  0  0  0  0  0  0  0  0
   -2.8396    0.5827    3.4017 C   0  0  0  0  0  0  0  0  0  0  0  0
   -1.9311    0.4206    2.3143 C   0  0  0  0  0  0  0  0  0  0  0  0
   -1.6087    1.3998    1.4863 N   0  0  0  0  0  0  0  0  0  0  0  0
   -0.6620    0.9290    0.6045 N   0  0  0  0  0  0  0  0  0  0  0  0
   -0.4458   -0.3348    0.8915 C   0  0  0  0  0  0  0  0  0  0  0  0
    0.7010   -1.3716    0.1215 S   0  0  0  0  0  0  0  0  0  0  0  0
    1.4106   -0.2186   -1.0902 C   0  0  0  0  0  0  0  0  0  0  0  0
    2.4810   -0.8719   -1.9479 C   0  0  0  0  0  0  0  0  0  0  0  0
    2.8160   -2.0511   -1.8495 O   0  0  0  0  0  0  0  0  0  0  0  0
    3.1668   -0.0253   -2.9772 C   0  0  0  0  0  0  0  0  0  0  0  0
    4.1667   -0.6148   -3.7663 C   0  0  0  0  0  0  0  0  0  0  0  0
    4.8381    0.1298   -4.7416 C   0  0  0  0  0  0  0  0  0  0  0  0
    4.5169    1.4748   -4.9396 C   0  0  0  0  0  0  0  0  0  0  0  0
    5.2027    2.2416   -5.9386 C   0  0  0  0  0  0  0  0  0  0  0  0
    5.7550    2.8658   -6.7460 N   0  0  0  0  0  0  0  0  0  0  0  0
    3.5212    2.0689   -4.1570 C   0  0  0  0  0  0  0  0  0  0  0  0
    2.8479    1.3241   -3.1798 C   0  0  0  0  0  0  0  0  0  0  0  0
   -1.2654   -0.7151    1.9188 N   0  0  0  0  0  0  0  0  0  0  0  0
   -1.3970   -2.0782    2.4875 C   0  0  0  0  0  0  0  0  0  0  0  0
   -1.7817   -3.2725    1.6402 C   0  0  0  0  0  0  0  0  0  0  0  0
   -2.7342   -2.7634    2.6740 C   0  0  0  0  0  0  0  0  0  0  0  0
   -5.5937    2.5156    2.6493 H   0  0  0  0  0  0  0  0  0  0  0  0
   -4.6897    1.5779    1.4520 H   0  0  0  0  0  0  0  0  0  0  0  0
   -3.9716    3.0395    2.1685 H   0  0  0  0  0  0  0  0  0  0  0  0
    1.8601    0.6186   -0.5470 H   0  0  0  0  0  0  0  0  0  0  0  0
    0.6074    0.1348   -1.7444 H   0  0  0  0  0  0  0  0  0  0  0  0
    4.4307   -1.6629   -3.6260 H   0  0  0  0  0  0  0  0  0  0  0  0
    5.6101   -0.3505   -5.3410 H   0  0  0  0  0  0  0  0  0  0  0  0
    3.2614    3.1171   -4.3021 H   0  0  0  0  0  0  0  0  0  0  0  0
    2.0816    1.8287   -2.5970 H   0  0  0  0  0  0  0  0  0  0  0  0
   -0.6435   -2.2633    3.2499 H   0  0  0  0  0  0  0  0  0  0  0  0
   -2.0440   -3.1219    0.5985 H   0  0  0  0  0  0  0  0  0  0  0  0
   -1.2727   -4.2116    1.8301 H   0  0  0  0  0  0  0  0  0  0  0  0
   -3.6380   -2.2785    2.3210 H   0  0  0  0  0  0  0  0  0  0  0  0
   -2.8801   -3.3638    3.5660 H   0  0  0  0  0  0  0  0  0  0  0  0
  1  2  1  0
  2  3  1  0
  3  4  2  0
  4  5  1  0
  5  6  1  0
  6  7  1  0
  7  8  2  0
  8  9  1  0
  9 10  2  0
 10 11  1  0
 11 12  1  0
 12 13  1  0
 13 14  2  0
 13 15  1  0
 15 16  2  0
 16 17  1  0
 17 18  2  0
 18 19  1  0
 19 20  3  0
 18 21  1  0
 21 22  2  0
 10 23  1  0
 23 24  1  0
 24 25  1  0
 25 26  1  0
  6  2  2  0
 23  7  1  0
 26 24  1  0
 22 15  1  0
  1 27  1  0
  1 28  1  0
  1 29  1  0
 12 30  1  0
 12 31  1  0
 16 32  1  0
 17 33  1  0
 21 34  1  0
 22 35  1  0
 24 36  1  0
 25 37  1  0
 25 38  1  0
 26 39  1  0
 26 40  1  0
M  END
$$$$
