
     RDKit          3D

 45 47  0  0  0  0  0  0  0  0999 V2000
    5.8563   -0.1558   -2.5867 C   0  0  0  0  0  0  0  0  0  0  0  0
    4.9555   -1.3522   -2.3831 C   0  0  0  0  0  0  0  0  0  0  0  0
    5.4796   -2.4499   -1.9367 N   0  0  0  0  0  0  0  0  0  0  0  0
    3.4708   -1.2176   -2.6572 C   0  0  0  0  0  0  0  0  0  0  0  0
    3.2484   -0.7909   -4.0421 C   0  0  0  0  0  0  0  0  0  0  0  0
    3.1057   -0.4932   -5.1550 N   0  0  0  0  0  0  0  0  0  0  0  0
    2.8108   -0.2908   -1.6591 C   0  0  0  0  0  0  0  0  0  0  0  0
    2.1787    0.7149   -1.9871 O   0  0  0  0  0  0  0  0  0  0  0  0
    2.9536   -0.6842   -0.1843 C   0  0  0  0  0  0  0  0  0  0  0  0
    1.8115   -0.3247    0.5898 O   0  0  0  0  0  0  0  0  0  0  0  0
    0.6968   -1.0125    0.2361 C   0  0  0  0  0  0  0  0  0  0  0  0
    0.6412   -1.9019   -0.5976 O   0  0  0  0  0  0  0  0  0  0  0  0
   -0.4719   -0.4464    0.9281 C   0  0  0  0  0  0  0  0  0  0  0  0
   -1.4846    0.0502    0.1057 C   0  0  0  0  0  0  0  0  0  0  0  0
   -2.6027    0.6079    0.6996 C   0  0  0  0  0  0  0  0  0  0  0  0
   -3.7292    1.1777   -0.0695 C   0  0  0  0  0  0  0  0  0  0  0  0
   -5.0408    1.1347    0.4437 C   0  0  0  0  0  0  0  0  0  0  0  0
   -6.1247    1.6625   -0.2646 C   0  0  0  0  0  0  0  0  0  0  0  0
   -5.9205    2.2528   -1.5079 C   0  0  0  0  0  0  0  0  0  0  0  0
   -4.6325    2.3160   -2.0303 C   0  0  0  0  0  0  0  0  0  0  0  0
   -4.3462    3.1301   -3.7136 Br  0  0  0  0  0  0  0  0  0  0  0  0
   -3.5471    1.7885   -1.3244 C   0  0  0  0  0  0  0  0  0  0  0  0
   -2.7304    0.6549    2.0491 N   0  0  0  0  0  0  0  0  0  0  0  0
   -1.7605    0.1627    2.8386 C   0  0  0  0  0  0  0  0  0  0  0  0
   -1.9379    0.2261    4.2143 C   0  0  0  0  0  0  0  0  0  0  0  0
   -0.9883   -0.2745    5.1076 C   0  0  0  0  0  0  0  0  0  0  0  0
    0.1713   -0.8590    4.6205 C   0  0  0  0  0  0  0  0  0  0  0  0
    0.3745   -0.9337    3.2438 C   0  0  0  0  0  0  0  0  0  0  0  0
   -0.5835   -0.4166    2.3334 C   0  0  0  0  0  0  0  0  0  0  0  0
    6.8674   -0.3757   -2.2323 H   0  0  0  0  0  0  0  0  0  0  0  0
    5.4674    0.7003   -2.0293 H   0  0  0  0  0  0  0  0  0  0  0  0
    5.9046    0.0959   -3.6491 H   0  0  0  0  0  0  0  0  0  0  0  0
    4.8061   -3.2197   -1.8437 H   0  0  0  0  0  0  0  0  0  0  0  0
    2.9987   -2.1997   -2.5286 H   0  0  0  0  0  0  0  0  0  0  0  0
    3.8193   -0.1515    0.2215 H   0  0  0  0  0  0  0  0  0  0  0  0
    3.1431   -1.7586   -0.0821 H   0  0  0  0  0  0  0  0  0  0  0  0
   -1.3874   -0.0098   -0.9740 H   0  0  0  0  0  0  0  0  0  0  0  0
   -5.2250    0.6794    1.4167 H   0  0  0  0  0  0  0  0  0  0  0  0
   -7.1246    1.6126    0.1591 H   0  0  0  0  0  0  0  0  0  0  0  0
   -6.7648    2.6633   -2.0549 H   0  0  0  0  0  0  0  0  0  0  0  0
   -2.5519    1.8755   -1.7546 H   0  0  0  0  0  0  0  0  0  0  0  0
   -2.8474    0.6788    4.6044 H   0  0  0  0  0  0  0  0  0  0  0  0
   -1.1626   -0.2076    6.1785 H   0  0  0  0  0  0  0  0  0  0  0  0
    0.9144   -1.2563    5.3074 H   0  0  0  0  0  0  0  0  0  0  0  0
    1.2889   -1.4023    2.8874 H   0  0  0  0  0  0  0  0  0  0  0  0
  1  2  1  0
  2  3  2  3
  2  4  1  0
  4  5  1  0
  5  6  3  0
  4  7  1  0
  7  8  2  0
  7  9  1  0
  9 10  1  0
 10 11  1  0
 11 12  2  0
 11 13  1  0
 13 14  2  0
 14 15  1  0
 15 16  1  0
 16 17  2  0
 17 18  1  0
 18 19  2  0
 19 20  1  0
 20 21  1  0
 20 22  2  0
 15 23  2  0
 23 24  1  0
 24 25  2  0
 25 26  1  0
 26 27  2  0
 27 28  1  0
 28 29  2  0
 29 13  1  0
 22 16  1  0
 29 24  1  0
  1 30  1  0
  1 31  1  0
  1 32  1  0
  3 33  1  0
  4 34  1  0
  9 35  1  0
  9 36  1  0
 14 37  1  0
 17 38  1  0
 18 39  1  0
 19 40  1  0
 22 41  1  0
 25 42  1  0
 26 43  1  0
 27 44  1  0
 28 45  1  0
M  END
$$$$
