
     RDKit          3D

 45 47  0  0  0  0  0  0  0  0999 V2000
    2.5882    2.5749    0.9942 O   0  0  0  0  0  0  0  0  0  0  0  0
    2.2407    1.9199    0.0146 C   0  0  0  0  0  0  0  0  0  0  0  0
    3.1479    1.2844   -0.8134 N   0  0  0  0  0  0  0  0  0  0  0  0
    4.4833    1.2394   -0.3685 N   0  0  0  0  0  0  0  0  0  0  0  0
    5.1607    0.0347   -0.4745 C   0  0  0  0  0  0  0  0  0  0  0  0
    4.6919   -0.8858   -1.1491 O   0  0  0  0  0  0  0  0  0  0  0  0
    6.4167   -0.0677    0.2540 C   0  0  0  0  0  0  0  0  0  0  0  0
    7.2613   -1.1632    0.2926 C   0  0  0  0  0  0  0  0  0  0  0  0
    8.4131   -0.9424    1.1014 C   0  0  0  0  0  0  0  0  0  0  0  0
    8.4145    0.3162    1.6580 C   0  0  0  0  0  0  0  0  0  0  0  0
    7.0356    1.2187    1.2046 S   0  0  0  0  0  0  0  0  0  0  0  0
    0.7981    1.7410   -0.3130 C   0  0  0  0  0  0  0  0  0  0  0  0
   -0.1432    1.9564    0.7053 C   0  0  0  0  0  0  0  0  0  0  0  0
   -1.5071    1.8007    0.4503 C   0  0  0  0  0  0  0  0  0  0  0  0
   -1.9285    1.4300   -0.8294 C   0  0  0  0  0  0  0  0  0  0  0  0
   -3.6683    1.2402   -1.1401 S   0  0  0  0  0  6  0  0  0  0  0  0
   -4.3300    2.3973   -0.5774 O   0  0  0  0  0  0  0  0  0  0  0  0
   -3.8482    0.8746   -2.5296 O   0  0  0  0  0  0  0  0  0  0  0  0
   -4.0649   -0.1273   -0.1927 N   0  0  0  0  0  0  0  0  0  0  0  0
   -3.3401   -1.3836   -0.5474 C   0  0  0  0  0  0  0  0  0  0  0  0
   -4.1107   -2.6400   -0.1396 C   0  0  0  0  0  0  0  0  0  0  0  0
   -4.8146   -2.4549    1.1965 C   0  0  0  0  0  0  0  0  0  0  0  0
   -5.7620   -1.2544    1.1736 C   0  0  0  0  0  0  0  0  0  0  0  0
   -5.5237   -0.3218   -0.0130 C   0  0  0  0  0  0  0  0  0  0  0  0
   -1.0043    1.2335   -1.8590 C   0  0  0  0  0  0  0  0  0  0  0  0
    0.3608    1.3912   -1.6000 C   0  0  0  0  0  0  0  0  0  0  0  0
    2.8686    0.4936   -1.3931 H   0  0  0  0  0  0  0  0  0  0  0  0
    4.7280    1.8974    0.3718 H   0  0  0  0  0  0  0  0  0  0  0  0
    7.0543   -2.0842   -0.2418 H   0  0  0  0  0  0  0  0  0  0  0  0
    9.1992   -1.6696    1.2658 H   0  0  0  0  0  0  0  0  0  0  0  0
    9.1598    0.7512    2.3104 H   0  0  0  0  0  0  0  0  0  0  0  0
    0.1851    2.2486    1.7019 H   0  0  0  0  0  0  0  0  0  0  0  0
   -2.2328    1.9713    1.2434 H   0  0  0  0  0  0  0  0  0  0  0  0
   -2.3811   -1.3708   -0.0165 H   0  0  0  0  0  0  0  0  0  0  0  0
   -3.1288   -1.4358   -1.6203 H   0  0  0  0  0  0  0  0  0  0  0  0
   -3.4248   -3.4935   -0.0932 H   0  0  0  0  0  0  0  0  0  0  0  0
   -4.8543   -2.8822   -0.9096 H   0  0  0  0  0  0  0  0  0  0  0  0
   -5.3681   -3.3619    1.4643 H   0  0  0  0  0  0  0  0  0  0  0  0
   -4.0626   -2.3065    1.9816 H   0  0  0  0  0  0  0  0  0  0  0  0
   -5.6453   -0.6983    2.1122 H   0  0  0  0  0  0  0  0  0  0  0  0
   -6.8024   -1.5998    1.1498 H   0  0  0  0  0  0  0  0  0  0  0  0
   -5.9612   -0.7361   -0.9290 H   0  0  0  0  0  0  0  0  0  0  0  0
   -6.0258    0.6290    0.1935 H   0  0  0  0  0  0  0  0  0  0  0  0
   -1.3364    0.9712   -2.8618 H   0  0  0  0  0  0  0  0  0  0  0  0
    1.0613    1.2646   -2.4214 H   0  0  0  0  0  0  0  0  0  0  0  0
  1  2  2  0
  2  3  1  0
  3  4  1  0
  4  5  1  0
  5  6  2  0
  5  7  1  0
  7  8  2  0
  8  9  1  0
  9 10  2  0
 10 11  1  0
  2 12  1  0
 12 13  2  0
 13 14  1  0
 14 15  2  0
 15 16  1  0
 16 17  2  0
 16 18  2  0
 16 19  1  0
 19 20  1  0
 20 21  1  0
 21 22  1  0
 22 23  1  0
 23 24  1  0
 15 25  1  0
 25 26  2  0
 11  7  1  0
 26 12  1  0
 24 19  1  0
  3 27  1  0
  4 28  1  0
  8 29  1  0
  9 30  1  0
 10 31  1  0
 13 32  1  0
 14 33  1  0
 20 34  1  0
 20 35  1  0
 21 36  1  0
 21 37  1  0
 22 38  1  0
 22 39  1  0
 23 40  1  0
 23 41  1  0
 24 42  1  0
 24 43  1  0
 25 44  1  0
 26 45  1  0
M  END
$$$$
