
     RDKit          3D

 52 55  0  0  0  0  0  0  0  0999 V2000
   -6.0241    0.9113    1.0738 C   0  0  0  0  0  0  0  0  0  0  0  0
   -5.7099    1.9404    0.0216 C   0  0  0  0  0  0  0  0  0  0  0  0
   -6.7660    2.4178   -0.7758 C   0  0  0  0  0  0  0  0  0  0  0  0
   -6.5501    3.3911   -1.7542 C   0  0  0  0  0  0  0  0  0  0  0  0
   -5.2645    3.9077   -1.9421 C   0  0  0  0  0  0  0  0  0  0  0  0
   -5.0377    4.9303   -2.9717 N   0  0  0  0  0  4  0  0  0  0  0  0
   -6.0298    5.3920   -3.5529 O   0  0  0  0  0  0  0  0  0  0  0  0
   -3.8676    5.2642   -3.2024 O   0  0  0  0  0  1  0  0  0  0  0  0
   -4.1955    3.4591   -1.1584 C   0  0  0  0  0  0  0  0  0  0  0  0
   -4.4201    2.4765   -0.1797 C   0  0  0  0  0  0  0  0  0  0  0  0
   -3.0201    1.9586    0.8130 S   0  0  0  0  0  6  0  0  0  0  0  0
   -1.8771    2.7424    0.3972 O   0  0  0  0  0  0  0  0  0  0  0  0
   -3.4549    1.9204    2.1910 O   0  0  0  0  0  0  0  0  0  0  0  0
   -2.7717    0.3815    0.2098 N   0  0  0  0  0  0  0  0  0  0  0  0
   -1.8620   -0.4145    0.9862 C   0  0  0  0  0  0  0  0  0  0  0  0
   -2.2598   -0.9363    2.2125 C   0  0  0  0  0  0  0  0  0  0  0  0
   -1.3623   -1.6867    2.9660 C   0  0  0  0  0  0  0  0  0  0  0  0
   -0.0682   -1.9208    2.4887 C   0  0  0  0  0  0  0  0  0  0  0  0
    0.3619   -1.4138    1.2473 C   0  0  0  0  0  0  0  0  0  0  0  0
    1.7218   -1.6566    0.7188 C   0  0  0  0  0  0  0  0  0  0  0  0
    2.5527   -2.6896    1.1249 C   0  0  0  0  0  0  0  0  0  0  0  0
    3.8212   -2.8269    0.5497 C   0  0  0  0  0  0  0  0  0  0  0  0
    4.2575   -1.9384   -0.4227 C   0  0  0  0  0  0  0  0  0  0  0  0
    5.4949   -2.0603   -1.0202 N   0  0  0  0  0  0  0  0  0  0  0  0
    6.6487   -2.6227   -0.3254 C   0  0  0  0  0  0  0  0  0  0  0  0
    7.8479   -1.8743   -0.9111 C   0  0  0  0  0  0  0  0  0  0  0  0
    7.3542   -1.4088   -2.2716 C   0  0  0  0  0  0  0  0  0  0  0  0
    5.9010   -1.0445   -1.9870 C   0  0  0  0  0  0  0  0  0  0  0  0
    3.4118   -0.9634   -0.8112 N   0  0  0  0  0  0  0  0  0  0  0  0
    2.1533   -0.8147   -0.2410 N   0  0  0  0  0  0  0  0  0  0  0  0
   -0.5659   -0.6443    0.5138 C   0  0  0  0  0  0  0  0  0  0  0  0
   -5.3278    0.0705    1.0287 H   0  0  0  0  0  0  0  0  0  0  0  0
   -6.0012    1.3649    2.0690 H   0  0  0  0  0  0  0  0  0  0  0  0
   -7.0254    0.4903    0.9285 H   0  0  0  0  0  0  0  0  0  0  0  0
   -7.7763    2.0331   -0.6361 H   0  0  0  0  0  0  0  0  0  0  0  0
   -7.3917    3.7347   -2.3533 H   0  0  0  0  0  0  0  0  0  0  0  0
   -3.1984    3.8747   -1.3001 H   0  0  0  0  0  0  0  0  0  0  0  0
   -2.4418    0.4715   -0.7534 H   0  0  0  0  0  0  0  0  0  0  0  0
   -3.2613   -0.7555    2.5934 H   0  0  0  0  0  0  0  0  0  0  0  0
   -1.6661   -2.0828    3.9320 H   0  0  0  0  0  0  0  0  0  0  0  0
    0.6048   -2.4941    3.1222 H   0  0  0  0  0  0  0  0  0  0  0  0
    2.2374   -3.4141    1.8667 H   0  0  0  0  0  0  0  0  0  0  0  0
    4.4494   -3.6538    0.8620 H   0  0  0  0  0  0  0  0  0  0  0  0
    6.6151   -2.4785    0.7604 H   0  0  0  0  0  0  0  0  0  0  0  0
    6.7197   -3.6946   -0.5404 H   0  0  0  0  0  0  0  0  0  0  0  0
    8.7416   -2.5015   -0.9738 H   0  0  0  0  0  0  0  0  0  0  0  0
    8.0859   -1.0056   -0.2850 H   0  0  0  0  0  0  0  0  0  0  0  0
    7.9288   -0.5671   -2.6678 H   0  0  0  0  0  0  0  0  0  0  0  0
    7.4054   -2.2343   -2.9919 H   0  0  0  0  0  0  0  0  0  0  0  0
    5.8468   -0.0393   -1.5504 H   0  0  0  0  0  0  0  0  0  0  0  0
    5.2985   -1.0775   -2.9008 H   0  0  0  0  0  0  0  0  0  0  0  0
   -0.2629   -0.2176   -0.4412 H   0  0  0  0  0  0  0  0  0  0  0  0
  1  2  1  0
  2  3  2  0
  3  4  1  0
  4  5  2  0
  5  6  1  0
  6  7  2  0
  6  8  1  0
  5  9  1  0
  9 10  2  0
 10 11  1  0
 11 12  2  0
 11 13  2  0
 11 14  1  0
 14 15  1  0
 15 16  2  0
 16 17  1  0
 17 18  2  0
 18 19  1  0
 19 20  1  0
 20 21  2  0
 21 22  1  0
 22 23  2  0
 23 24  1  0
 24 25  1  0
 25 26  1  0
 26 27  1  0
 27 28  1  0
 23 29  1  0
 29 30  2  0
 19 31  2  0
 10  2  1  0
 31 15  1  0
 30 20  1  0
 28 24  1  0
  1 32  1  0
  1 33  1  0
  1 34  1  0
  3 35  1  0
  4 36  1  0
  9 37  1  0
 14 38  1  0
 16 39  1  0
 17 40  1  0
 18 41  1  0
 21 42  1  0
 22 43  1  0
 25 44  1  0
 25 45  1  0
 26 46  1  0
 26 47  1  0
 27 48  1  0
 27 49  1  0
 28 50  1  0
 28 51  1  0
 31 52  1  0
M  CHG  2   6   1   8  -1
M  END
$$$$
