
     RDKit          3D

 47 49  0  0  0  0  0  0  0  0999 V2000
    8.1744   -0.0312    0.0890 C   0  0  0  0  0  0  0  0  0  0  0  0
    7.1387   -0.2124   -1.0098 C   0  0  0  0  0  0  0  0  0  0  0  0
    5.7453   -0.5574   -0.4819 C   0  0  0  0  0  0  0  0  0  0  0  0
    5.1061    0.5772    0.3250 C   0  0  0  0  0  0  0  0  0  0  0  0
    3.7395    0.2425    0.7309 N   0  0  0  0  0  0  0  0  0  0  0  0
    2.7015    0.5243   -0.1413 C   0  0  0  0  0  0  0  0  0  0  0  0
    2.8088    1.0482   -1.2420 O   0  0  0  0  0  0  0  0  0  0  0  0
    1.4030    0.0854    0.4393 C   0  0  0  0  0  0  0  0  0  0  0  0
    0.2446    0.2646   -0.2138 C   0  0  0  0  0  0  0  0  0  0  0  0
   -1.0807   -0.1193    0.2556 C   0  0  0  0  0  0  0  0  0  0  0  0
   -2.2835    0.0092   -0.3594 C   0  0  0  0  0  0  0  0  0  0  0  0
   -2.3654    0.5946   -1.6995 C   0  0  0  0  0  0  0  0  0  0  0  0
   -3.5241    0.8481   -2.3178 C   0  0  0  0  0  0  0  0  0  0  0  0
   -4.7840    0.5499   -1.6444 C   0  0  0  0  0  0  0  0  0  0  0  0
   -5.9908    0.8863   -2.2787 C   0  0  0  0  0  0  0  0  0  0  0  0
   -7.2075    0.6197   -1.6608 C   0  0  0  0  0  0  0  0  0  0  0  0
   -7.2199    0.0212   -0.4081 C   0  0  0  0  0  0  0  0  0  0  0  0
   -6.0168   -0.3178    0.2249 C   0  0  0  0  0  0  0  0  0  0  0  0
   -4.7663   -0.0744   -0.3753 C   0  0  0  0  0  0  0  0  0  0  0  0
   -3.5107   -0.4046    0.2317 N   0  0  0  0  0  0  0  0  0  0  0  0
   -3.5626   -1.2397    1.4484 C   0  0  0  0  0  0  0  0  0  0  0  0
   -3.6295   -0.3845    2.7075 C   0  0  0  0  0  0  0  0  0  0  0  0
    1.6611   -0.6400    1.9742 S   0  0  0  0  0  0  0  0  0  0  0  0
    3.4029   -0.4001    1.9041 C   0  0  0  0  0  0  0  0  0  0  0  0
    4.4137   -0.9109    3.1294 S   0  0  0  0  0  0  0  0  0  0  0  0
    8.2183   -0.9122    0.7371 H   0  0  0  0  0  0  0  0  0  0  0  0
    9.1662    0.1157   -0.3506 H   0  0  0  0  0  0  0  0  0  0  0  0
    7.9546    0.8436    0.7078 H   0  0  0  0  0  0  0  0  0  0  0  0
    7.4702   -1.0229   -1.6699 H   0  0  0  0  0  0  0  0  0  0  0  0
    7.0924    0.6957   -1.6220 H   0  0  0  0  0  0  0  0  0  0  0  0
    5.1026   -0.7969   -1.3385 H   0  0  0  0  0  0  0  0  0  0  0  0
    5.7963   -1.4697    0.1243 H   0  0  0  0  0  0  0  0  0  0  0  0
    5.0774    1.4884   -0.2845 H   0  0  0  0  0  0  0  0  0  0  0  0
    5.7011    0.8058    1.2135 H   0  0  0  0  0  0  0  0  0  0  0  0
    0.3040    0.7514   -1.1838 H   0  0  0  0  0  0  0  0  0  0  0  0
   -1.0718   -0.5447    1.2539 H   0  0  0  0  0  0  0  0  0  0  0  0
   -1.4591    0.8360   -2.2402 H   0  0  0  0  0  0  0  0  0  0  0  0
   -3.5443    1.2800   -3.3114 H   0  0  0  0  0  0  0  0  0  0  0  0
   -5.9867    1.3611   -3.2566 H   0  0  0  0  0  0  0  0  0  0  0  0
   -8.1400    0.8832   -2.1521 H   0  0  0  0  0  0  0  0  0  0  0  0
   -8.1662   -0.1818    0.0871 H   0  0  0  0  0  0  0  0  0  0  0  0
   -6.1010   -0.7634    1.2099 H   0  0  0  0  0  0  0  0  0  0  0  0
   -2.6828   -1.8925    1.5029 H   0  0  0  0  0  0  0  0  0  0  0  0
   -4.3934   -1.9545    1.4225 H   0  0  0  0  0  0  0  0  0  0  0  0
   -3.6576   -1.0242    3.5953 H   0  0  0  0  0  0  0  0  0  0  0  0
   -4.5202    0.2507    2.7203 H   0  0  0  0  0  0  0  0  0  0  0  0
   -2.7579    0.2719    2.7926 H   0  0  0  0  0  0  0  0  0  0  0  0
  1  2  1  0
  2  3  1  0
  3  4  1  0
  4  5  1  0
  5  6  1  0
  6  7  2  0
  6  8  1  0
  8  9  2  3
  9 10  1  0
 10 11  2  3
 11 12  1  0
 12 13  2  0
 13 14  1  0
 14 15  2  0
 15 16  1  0
 16 17  2  0
 17 18  1  0
 18 19  2  0
 19 20  1  0
 20 21  1  0
 21 22  1  0
  8 23  1  0
 23 24  1  0
 24 25  2  0
 24  5  1  0
 20 11  1  0
 19 14  1  0
  1 26  1  0
  1 27  1  0
  1 28  1  0
  2 29  1  0
  2 30  1  0
  3 31  1  0
  3 32  1  0
  4 33  1  0
  4 34  1  0
  9 35  1  0
 10 36  1  0
 12 37  1  0
 13 38  1  0
 15 39  1  0
 16 40  1  0
 17 41  1  0
 18 42  1  0
 21 43  1  0
 21 44  1  0
 22 45  1  0
 22 46  1  0
 22 47  1  0
M  END
$$$$
