
     RDKit          3D

 40 41  0  0  0  0  0  0  0  0999 V2000
   -2.3291    1.7001   -1.2798 O   0  0  0  0  0  0  0  0  0  0  0  0
   -1.1386    1.9633   -1.2934 C   0  0  0  0  0  0  0  0  0  0  0  0
   -0.5200    2.2875   -2.4448 O   0  0  0  0  0  0  0  0  0  0  0  0
   -0.2178    2.0183   -0.1084 C   0  0  0  0  0  0  0  0  0  0  0  0
   -0.5326    0.8833    0.8690 C   0  0  0  0  0  0  0  0  0  0  0  0
   -0.0120    1.2519    2.2154 N   0  0  0  0  0  0  0  0  0  0  0  0
   -1.0091    1.9446    3.0401 C   0  0  0  0  0  0  0  0  0  0  0  0
   -2.0987    1.0432    3.5064 C   0  0  0  0  0  0  0  0  0  0  0  0
   -3.4745    1.0936    3.4170 C   0  0  0  0  0  0  0  0  0  0  0  0
   -3.9585   -0.0777    4.0481 C   0  0  0  0  0  0  0  0  0  0  0  0
   -2.8504   -0.7676    4.4791 C   0  0  0  0  0  0  0  0  0  0  0  0
   -1.7165   -0.0945    4.1570 O   0  0  0  0  0  0  0  0  0  0  0  0
    0.1741   -0.4146    0.4177 C   0  0  0  0  0  0  0  0  0  0  0  0
    0.8723   -1.1153    1.1412 O   0  0  0  0  0  0  0  0  0  0  0  0
   -0.1210   -0.7014   -0.8810 O   0  0  0  0  0  0  0  0  0  0  0  0
    0.4545   -1.9100   -1.4003 C   0  0  0  0  0  0  0  0  0  0  0  0
    1.9167   -1.7222   -1.8009 C   0  0  0  0  0  0  0  0  0  0  0  0
    2.1469   -0.5629   -2.7581 C   0  0  0  0  0  0  0  0  0  0  0  0
    3.4306   -0.9800   -3.4305 C   0  0  0  0  0  0  0  0  0  0  0  0
    3.2495   -2.4777   -3.5591 C   0  0  0  0  0  0  0  0  0  0  0  0
    2.4086   -2.8966   -2.4736 O   0  0  0  0  0  0  0  0  0  0  0  0
   -1.2232    2.2239   -3.1249 H   0  0  0  0  0  0  0  0  0  0  0  0
   -0.3645    3.0051    0.3456 H   0  0  0  0  0  0  0  0  0  0  0  0
    0.8232    1.9585   -0.4493 H   0  0  0  0  0  0  0  0  0  0  0  0
   -1.6001    0.6392    0.9139 H   0  0  0  0  0  0  0  0  0  0  0  0
    0.2316    0.3825    2.7082 H   0  0  0  0  0  0  0  0  0  0  0  0
   -0.4972    2.3471    3.9220 H   0  0  0  0  0  0  0  0  0  0  0  0
   -1.4231    2.8064    2.5046 H   0  0  0  0  0  0  0  0  0  0  0  0
   -4.0555    1.8763    2.9484 H   0  0  0  0  0  0  0  0  0  0  0  0
   -4.9875   -0.3853    4.1701 H   0  0  0  0  0  0  0  0  0  0  0  0
   -2.7054   -1.7028    5.0019 H   0  0  0  0  0  0  0  0  0  0  0  0
    0.3418   -2.7380   -0.6886 H   0  0  0  0  0  0  0  0  0  0  0  0
   -0.1373   -2.1980   -2.2773 H   0  0  0  0  0  0  0  0  0  0  0  0
    2.5353   -1.5769   -0.9069 H   0  0  0  0  0  0  0  0  0  0  0  0
    1.3436   -0.5022   -3.5019 H   0  0  0  0  0  0  0  0  0  0  0  0
    2.2190    0.4026   -2.2499 H   0  0  0  0  0  0  0  0  0  0  0  0
    4.2814   -0.7607   -2.7742 H   0  0  0  0  0  0  0  0  0  0  0  0
    3.6054   -0.4875   -4.3906 H   0  0  0  0  0  0  0  0  0  0  0  0
    2.7388   -2.7364   -4.4928 H   0  0  0  0  0  0  0  0  0  0  0  0
    4.1990   -3.0191   -3.5194 H   0  0  0  0  0  0  0  0  0  0  0  0
  1  2  2  0
  2  3  1  0
  2  4  1  0
  4  5  1  0
  5  6  1  0
  6  7  1  0
  7  8  1  0
  8  9  2  0
  9 10  1  0
 10 11  2  0
 11 12  1  0
  5 13  1  0
 13 14  2  0
 13 15  1  0
 15 16  1  0
 16 17  1  0
 17 18  1  0
 18 19  1  0
 19 20  1  0
 20 21  1  0
 12  8  1  0
 21 17  1  0
  3 22  1  0
  4 23  1  0
  4 24  1  0
  5 25  1  0
  6 26  1  0
  7 27  1  0
  7 28  1  0
  9 29  1  0
 10 30  1  0
 11 31  1  0
 16 32  1  0
 16 33  1  0
 17 34  1  0
 18 35  1  0
 18 36  1  0
 19 37  1  0
 19 38  1  0
 20 39  1  0
 20 40  1  0
M  END
$$$$
