
     RDKit          3D

 39 41  0  0  0  0  0  0  0  0999 V2000
    3.7337   -0.8717    2.1592 O   0  0  0  0  0  0  0  0  0  0  0  0
    3.9855   -0.4912    1.0210 C   0  0  0  0  0  0  0  0  0  0  0  0
    3.0631   -0.3173    0.0049 N   0  0  0  0  0  0  0  0  0  0  0  0
    1.6723   -0.5278    0.0393 C   0  0  0  0  0  0  0  0  0  0  0  0
    0.9752   -0.9676    1.1647 C   0  0  0  0  0  0  0  0  0  0  0  0
   -0.4123   -1.1508    1.1155 C   0  0  0  0  0  0  0  0  0  0  0  0
   -1.1267   -0.8956   -0.0610 C   0  0  0  0  0  0  0  0  0  0  0  0
   -2.6260   -1.1003   -0.1173 C   0  0  0  0  0  0  0  0  0  0  0  0
   -3.3679    0.1243   -0.4563 N   0  0  0  0  0  0  0  0  0  0  0  0
   -3.2069    1.1636    0.5880 C   0  0  0  0  0  0  0  0  0  0  0  0
   -4.3728    2.1633    0.5858 C   0  0  0  0  0  0  0  0  0  0  0  0
   -5.6283    1.5473    0.9073 O   0  0  0  0  0  0  0  0  0  0  0  0
   -5.6976    0.1719    0.5090 C   0  0  0  0  0  0  0  0  0  0  0  0
   -4.8003   -0.1544   -0.6947 C   0  0  0  0  0  0  0  0  0  0  0  0
   -0.4244   -0.4570   -1.1900 C   0  0  0  0  0  0  0  0  0  0  0  0
    0.9605   -0.2740   -1.1389 C   0  0  0  0  0  0  0  0  0  0  0  0
    5.3397   -0.1696    0.6040 C   0  0  0  0  0  0  0  0  0  0  0  0
    6.5367   -0.2050    1.2945 C   0  0  0  0  0  0  0  0  0  0  0  0
    7.5426    0.2135    0.3900 C   0  0  0  0  0  0  0  0  0  0  0  0
    6.9031    0.4798   -0.7983 C   0  0  0  0  0  0  0  0  0  0  0  0
    7.7491    1.0831   -2.3913 Br  0  0  0  0  0  0  0  0  0  0  0  0
    5.5675    0.2515   -0.6818 O   0  0  0  0  0  0  0  0  0  0  0  0
    3.4553    0.0051   -0.8733 H   0  0  0  0  0  0  0  0  0  0  0  0
    1.4786   -1.1787    2.1028 H   0  0  0  0  0  0  0  0  0  0  0  0
   -0.9272   -1.4934    2.0103 H   0  0  0  0  0  0  0  0  0  0  0  0
   -2.8034   -1.8652   -0.8854 H   0  0  0  0  0  0  0  0  0  0  0  0
   -2.9909   -1.5252    0.8273 H   0  0  0  0  0  0  0  0  0  0  0  0
   -2.2690    1.7043    0.4209 H   0  0  0  0  0  0  0  0  0  0  0  0
   -3.1620    0.7034    1.5840 H   0  0  0  0  0  0  0  0  0  0  0  0
   -4.1960    2.9495    1.3270 H   0  0  0  0  0  0  0  0  0  0  0  0
   -4.4688    2.6528   -0.3905 H   0  0  0  0  0  0  0  0  0  0  0  0
   -6.7432   -0.0451    0.2675 H   0  0  0  0  0  0  0  0  0  0  0  0
   -5.4288   -0.4475    1.3726 H   0  0  0  0  0  0  0  0  0  0  0  0
   -4.9650   -1.1891   -1.0177 H   0  0  0  0  0  0  0  0  0  0  0  0
   -5.1106    0.4795   -1.5352 H   0  0  0  0  0  0  0  0  0  0  0  0
   -0.9608   -0.2467   -2.1134 H   0  0  0  0  0  0  0  0  0  0  0  0
    1.4696    0.0721   -2.0347 H   0  0  0  0  0  0  0  0  0  0  0  0
    6.6543   -0.5003    2.3290 H   0  0  0  0  0  0  0  0  0  0  0  0
    8.6020    0.3083    0.5835 H   0  0  0  0  0  0  0  0  0  0  0  0
  1  2  2  0
  2  3  1  0
  3  4  1  0
  4  5  2  0
  5  6  1  0
  6  7  2  0
  7  8  1  0
  8  9  1  0
  9 10  1  0
 10 11  1  0
 11 12  1  0
 12 13  1  0
 13 14  1  0
  7 15  1  0
 15 16  2  0
  2 17  1  0
 17 18  2  0
 18 19  1  0
 19 20  2  0
 20 21  1  0
 20 22  1  0
 16  4  1  0
 22 17  1  0
 14  9  1  0
  3 23  1  0
  5 24  1  0
  6 25  1  0
  8 26  1  0
  8 27  1  0
 10 28  1  0
 10 29  1  0
 11 30  1  0
 11 31  1  0
 13 32  1  0
 13 33  1  0
 14 34  1  0
 14 35  1  0
 15 36  1  0
 16 37  1  0
 18 38  1  0
 19 39  1  0
M  END
$$$$
