
     RDKit          3D

 44 47  0  0  0  0  0  0  0  0999 V2000
   -6.6002    0.2303   -2.3350 C   0  0  0  0  0  0  0  0  0  0  0  0
   -5.6834   -0.7669   -1.9032 O   0  0  0  0  0  0  0  0  0  0  0  0
   -4.5965   -0.3409   -1.1918 C   0  0  0  0  0  0  0  0  0  0  0  0
   -4.2899    0.9795   -0.8712 C   0  0  0  0  0  0  0  0  0  0  0  0
   -3.1370    1.2762   -0.1335 C   0  0  0  0  0  0  0  0  0  0  0  0
   -2.2712    0.2595    0.3015 C   0  0  0  0  0  0  0  0  0  0  0  0
   -1.0190    0.6238    1.0878 C   0  0  0  0  0  0  0  0  0  0  0  0
    0.2159    0.4758    0.2325 C   0  0  0  0  0  0  0  0  0  0  0  0
    1.1854   -0.4244    0.4708 C   0  0  0  0  0  0  0  0  0  0  0  0
    2.3510   -0.4876   -0.4314 C   0  0  0  0  0  0  0  0  0  0  0  0
    2.2466   -1.2941   -1.5659 C   0  0  0  0  0  0  0  0  0  0  0  0
    3.3275   -1.3625   -2.4192 C   0  0  0  0  0  0  0  0  0  0  0  0
    4.4812   -0.6927   -2.2223 N   0  0  0  0  0  0  0  0  0  0  0  0
    4.5855    0.0910   -1.1383 C   0  0  0  0  0  0  0  0  0  0  0  0
    5.7731    0.7841   -0.9424 C   0  0  0  0  0  0  0  0  0  0  0  0
    5.9658    1.6252    0.1564 C   0  0  0  0  0  0  0  0  0  0  0  0
    4.9455    1.7788    1.0827 C   0  0  0  0  0  0  0  0  0  0  0  0
    5.1633    2.8127    2.4389 Cl  0  0  0  0  0  0  0  0  0  0  0  0
    3.7432    1.0968    0.9155 C   0  0  0  0  0  0  0  0  0  0  0  0
    3.5434    0.2404   -0.1950 C   0  0  0  0  0  0  0  0  0  0  0  0
    1.1536   -1.4213    1.5950 C   0  0  0  0  0  0  0  0  0  0  0  0
   -0.1941   -1.4293    2.2930 C   0  0  0  0  0  0  0  0  0  0  0  0
   -0.6359   -2.4532    2.8171 O   0  0  0  0  0  0  0  0  0  0  0  0
   -0.9094   -0.1065    2.4330 C   0  0  0  0  0  0  0  0  0  0  0  0
   -2.5860   -1.0644   -0.0345 C   0  0  0  0  0  0  0  0  0  0  0  0
   -3.7383   -1.3569   -0.7704 C   0  0  0  0  0  0  0  0  0  0  0  0
   -7.4103   -0.2709   -2.8734 H   0  0  0  0  0  0  0  0  0  0  0  0
   -7.0426    0.7563   -1.4825 H   0  0  0  0  0  0  0  0  0  0  0  0
   -6.1233    0.9309   -3.0284 H   0  0  0  0  0  0  0  0  0  0  0  0
   -4.9233    1.8044   -1.1797 H   0  0  0  0  0  0  0  0  0  0  0  0
   -2.9226    2.3180    0.0973 H   0  0  0  0  0  0  0  0  0  0  0  0
   -1.0933    1.6911    1.3411 H   0  0  0  0  0  0  0  0  0  0  0  0
    0.2936    1.1539   -0.6175 H   0  0  0  0  0  0  0  0  0  0  0  0
    1.3448   -1.8569   -1.7838 H   0  0  0  0  0  0  0  0  0  0  0  0
    3.2963   -1.9771   -3.3146 H   0  0  0  0  0  0  0  0  0  0  0  0
    6.5739    0.6660   -1.6699 H   0  0  0  0  0  0  0  0  0  0  0  0
    6.9094    2.1509    0.2743 H   0  0  0  0  0  0  0  0  0  0  0  0
    2.9559    1.2357    1.6517 H   0  0  0  0  0  0  0  0  0  0  0  0
    1.3329   -2.4312    1.2086 H   0  0  0  0  0  0  0  0  0  0  0  0
    1.9197   -1.1855    2.3411 H   0  0  0  0  0  0  0  0  0  0  0  0
   -1.8949   -0.2688    2.8842 H   0  0  0  0  0  0  0  0  0  0  0  0
   -0.3208    0.4923    3.1398 H   0  0  0  0  0  0  0  0  0  0  0  0
   -1.9472   -1.8913    0.2642 H   0  0  0  0  0  0  0  0  0  0  0  0
   -3.9684   -2.3909   -1.0172 H   0  0  0  0  0  0  0  0  0  0  0  0
  1  2  1  0
  2  3  1  0
  3  4  2  0
  4  5  1  0
  5  6  2  0
  6  7  1  0
  7  8  1  0
  8  9  2  0
  9 10  1  0
 10 11  2  0
 11 12  1  0
 12 13  2  0
 13 14  1  0
 14 15  2  0
 15 16  1  0
 16 17  2  0
 17 18  1  0
 17 19  1  0
 19 20  2  0
  9 21  1  0
 21 22  1  0
 22 23  2  0
 22 24  1  0
  6 25  1  0
 25 26  2  0
 26  3  1  0
 24  7  1  0
 20 10  1  0
 20 14  1  0
  1 27  1  0
  1 28  1  0
  1 29  1  0
  4 30  1  0
  5 31  1  0
  7 32  1  0
  8 33  1  0
 11 34  1  0
 12 35  1  0
 15 36  1  0
 16 37  1  0
 19 38  1  0
 21 39  1  0
 21 40  1  0
 24 41  1  0
 24 42  1  0
 25 43  1  0
 26 44  1  0
M  END
$$$$
