
     RDKit          3D

 62 65  0  0  0  0  0  0  0  0999 V2000
    9.0784   -2.8304    0.7400 C   0  0  0  0  0  0  0  0  0  0  0  0
    8.2499   -1.6003    0.5200 C   0  0  0  0  0  0  0  0  0  0  0  0
    8.0707   -0.6718    1.5523 C   0  0  0  0  0  0  0  0  0  0  0  0
    7.3214    0.4883    1.3408 C   0  0  0  0  0  0  0  0  0  0  0  0
    6.7527    0.7488    0.0880 C   0  0  0  0  0  0  0  0  0  0  0  0
    5.9113    1.9785   -0.1377 C   0  0  0  0  0  0  0  0  0  0  0  0
    4.5107    1.6748    0.0558 N   0  0  0  0  0  0  0  0  0  0  0  0
    3.6948    1.3378   -1.0030 C   0  0  0  0  0  0  0  0  0  0  0  0
    4.0340    1.4226   -2.1775 O   0  0  0  0  0  0  0  0  0  0  0  0
    2.3293    0.8594   -0.5598 C   0  0  0  0  0  0  0  0  0  0  0  0
    1.4999    0.3614   -1.7393 C   0  0  0  0  0  0  0  0  0  0  0  0
    0.1975   -0.2270   -1.2979 C   0  0  0  0  0  0  0  0  0  0  0  0
   -0.0561   -1.5793   -0.9634 C   0  0  0  0  0  0  0  0  0  0  0  0
    0.8974   -2.7186   -0.9774 C   0  0  0  0  0  0  0  0  0  0  0  0
   -1.3232   -1.7753   -0.5991 N   0  0  0  0  0  0  0  0  0  0  0  0
   -1.9293   -0.5607   -0.7217 N   0  0  0  0  0  0  0  0  0  0  0  0
   -3.3242   -0.4263   -0.4440 C   0  0  0  0  0  0  0  0  0  0  0  0
   -4.0593   -1.5305   -0.0409 C   0  0  0  0  0  0  0  0  0  0  0  0
   -5.4208   -1.3744    0.2269 C   0  0  0  0  0  0  0  0  0  0  0  0
   -6.0250   -0.1293    0.0954 C   0  0  0  0  0  0  0  0  0  0  0  0
   -7.3997    0.0166    0.3722 N   0  0  0  0  0  0  0  0  0  0  0  0
   -7.7346   -0.3756    1.7632 C   0  0  0  0  0  0  0  0  0  0  0  0
   -9.0187    0.3250    2.2307 C   0  0  0  0  0  0  0  0  0  0  0  0
   -8.9062    1.7564    2.2335 O   0  0  0  0  0  0  0  0  0  0  0  0
   -8.0639    2.2640    1.1819 C   0  0  0  0  0  0  0  0  0  0  0  0
   -7.9737    1.3220   -0.0262 C   0  0  0  0  0  0  0  0  0  0  0  0
   -5.2719    0.9137   -0.3134 N   0  0  0  0  0  0  0  0  0  0  0  0
   -3.9216    0.7731   -0.5806 N   0  0  0  0  0  0  0  0  0  0  0  0
   -1.0194    0.4141   -1.1206 C   0  0  0  0  0  0  0  0  0  0  0  0
   -1.3690    1.8484   -1.3102 C   0  0  0  0  0  0  0  0  0  0  0  0
    6.9403   -0.1793   -0.9464 C   0  0  0  0  0  0  0  0  0  0  0  0
    7.6890   -1.3381   -0.7342 C   0  0  0  0  0  0  0  0  0  0  0  0
    8.9622   -3.1999    1.7632 H   0  0  0  0  0  0  0  0  0  0  0  0
   10.1358   -2.6077    0.5611 H   0  0  0  0  0  0  0  0  0  0  0  0
    8.7671   -3.6354    0.0671 H   0  0  0  0  0  0  0  0  0  0  0  0
    8.5121   -0.8496    2.5303 H   0  0  0  0  0  0  0  0  0  0  0  0
    7.1885    1.1876    2.1624 H   0  0  0  0  0  0  0  0  0  0  0  0
    6.1789    2.7597    0.5819 H   0  0  0  0  0  0  0  0  0  0  0  0
    6.0865    2.3857   -1.1402 H   0  0  0  0  0  0  0  0  0  0  0  0
    4.2258    1.4064    0.9871 H   0  0  0  0  0  0  0  0  0  0  0  0
    1.8177    1.6888   -0.0568 H   0  0  0  0  0  0  0  0  0  0  0  0
    2.4668    0.0541    0.1721 H   0  0  0  0  0  0  0  0  0  0  0  0
    1.3198    1.1816   -2.4456 H   0  0  0  0  0  0  0  0  0  0  0  0
    2.0641   -0.3940   -2.3009 H   0  0  0  0  0  0  0  0  0  0  0  0
    1.7679   -2.4972   -0.3498 H   0  0  0  0  0  0  0  0  0  0  0  0
    0.4340   -3.6353   -0.5997 H   0  0  0  0  0  0  0  0  0  0  0  0
    1.2478   -2.9101   -1.9967 H   0  0  0  0  0  0  0  0  0  0  0  0
   -3.6018   -2.5088    0.0658 H   0  0  0  0  0  0  0  0  0  0  0  0
   -6.0048   -2.2389    0.5194 H   0  0  0  0  0  0  0  0  0  0  0  0
   -7.8742   -1.4602    1.8186 H   0  0  0  0  0  0  0  0  0  0  0  0
   -6.9238   -0.0910    2.4461 H   0  0  0  0  0  0  0  0  0  0  0  0
   -9.8650    0.0518    1.5908 H   0  0  0  0  0  0  0  0  0  0  0  0
   -9.2681    0.0143    3.2502 H   0  0  0  0  0  0  0  0  0  0  0  0
   -7.0716    2.4454    1.6110 H   0  0  0  0  0  0  0  0  0  0  0  0
   -8.4730    3.2325    0.8776 H   0  0  0  0  0  0  0  0  0  0  0  0
   -7.4364    1.7952   -0.8559 H   0  0  0  0  0  0  0  0  0  0  0  0
   -8.9867    1.1270   -0.3988 H   0  0  0  0  0  0  0  0  0  0  0  0
   -2.0709    1.9702   -2.1412 H   0  0  0  0  0  0  0  0  0  0  0  0
   -1.8028    2.2740   -0.3999 H   0  0  0  0  0  0  0  0  0  0  0  0
   -0.4808    2.4437   -1.5441 H   0  0  0  0  0  0  0  0  0  0  0  0
    6.4976   -0.0022   -1.9260 H   0  0  0  0  0  0  0  0  0  0  0  0
    7.8261   -2.0384   -1.5564 H   0  0  0  0  0  0  0  0  0  0  0  0
  1  2  1  0
  2  3  2  0
  3  4  1  0
  4  5  2  0
  5  6  1  0
  6  7  1  0
  7  8  1  0
  8  9  2  0
  8 10  1  0
 10 11  1  0
 11 12  1  0
 12 13  1  0
 13 14  1  0
 13 15  2  0
 15 16  1  0
 16 17  1  0
 17 18  2  0
 18 19  1  0
 19 20  2  0
 20 21  1  0
 21 22  1  0
 22 23  1  0
 23 24  1  0
 24 25  1  0
 25 26  1  0
 20 27  1  0
 27 28  2  0
 16 29  1  0
 29 30  1  0
  5 31  1  0
 31 32  2  0
 32  2  1  0
 29 12  2  0
 28 17  1  0
 26 21  1  0
  1 33  1  0
  1 34  1  0
  1 35  1  0
  3 36  1  0
  4 37  1  0
  6 38  1  0
  6 39  1  0
  7 40  1  0
 10 41  1  0
 10 42  1  0
 11 43  1  0
 11 44  1  0
 14 45  1  0
 14 46  1  0
 14 47  1  0
 18 48  1  0
 19 49  1  0
 22 50  1  0
 22 51  1  0
 23 52  1  0
 23 53  1  0
 25 54  1  0
 25 55  1  0
 26 56  1  0
 26 57  1  0
 30 58  1  0
 30 59  1  0
 30 60  1  0
 31 61  1  0
 32 62  1  0
M  END
$$$$
