
     RDKit          3D

 52 53  0  0  0  0  0  0  0  0999 V2000
    4.5850   -2.7799   -1.1861 C   0  0  0  0  0  0  0  0  0  0  0  0
    5.3573   -1.6406   -1.5450 O   0  0  0  0  0  0  0  0  0  0  0  0
    5.0788   -0.4721   -0.8899 C   0  0  0  0  0  0  0  0  0  0  0  0
    5.9103    0.5964   -1.2263 C   0  0  0  0  0  0  0  0  0  0  0  0
    5.7350    1.8434   -0.6282 C   0  0  0  0  0  0  0  0  0  0  0  0
    4.7214    2.0317    0.3125 C   0  0  0  0  0  0  0  0  0  0  0  0
    3.8772    0.9758    0.6556 C   0  0  0  0  0  0  0  0  0  0  0  0
    2.8344    1.0807    1.5953 N   0  0  0  0  0  0  0  0  0  0  0  0
    2.4011    2.2085    2.2724 C   0  0  0  0  0  0  0  0  0  0  0  0
    2.8185    3.3558    2.1391 O   0  0  0  0  0  0  0  0  0  0  0  0
    1.2407    1.8997    3.2268 C   0  0  0  0  0  0  0  0  0  0  0  0
   -0.0240    1.7677    2.4988 N   0  0  0  0  0  0  0  0  0  0  0  0
   -0.6802    3.0110    2.1176 C   0  0  0  0  0  0  0  0  0  0  0  0
   -0.2791    0.5371    1.9075 C   0  0  0  0  0  0  0  0  0  0  0  0
    0.4941   -0.4137    2.0429 O   0  0  0  0  0  0  0  0  0  0  0  0
   -1.4926    0.4156    1.0559 C   0  0  0  0  0  0  0  0  0  0  0  0
   -1.7431   -0.7366    0.4138 C   0  0  0  0  0  0  0  0  0  0  0  0
   -2.9201   -0.9470   -0.4495 C   0  0  0  0  0  0  0  0  0  0  0  0
   -3.2360   -0.0010   -1.4437 C   0  0  0  0  0  0  0  0  0  0  0  0
   -4.3284   -0.1940   -2.2886 C   0  0  0  0  0  0  0  0  0  0  0  0
   -4.7366    0.6486   -3.2850 O   0  0  0  0  0  0  0  0  0  0  0  0
   -3.9508    1.8126   -3.5094 C   0  0  0  0  0  0  0  0  0  0  0  0
   -5.1049   -1.3425   -2.1428 C   0  0  0  0  0  0  0  0  0  0  0  0
   -4.7951   -2.2996   -1.1723 C   0  0  0  0  0  0  0  0  0  0  0  0
   -3.7005   -2.1148   -0.3238 C   0  0  0  0  0  0  0  0  0  0  0  0
   -3.3197   -2.9992    0.6540 O   0  0  0  0  0  0  0  0  0  0  0  0
   -4.0889   -4.1846    0.8067 C   0  0  0  0  0  0  0  0  0  0  0  0
    4.0634   -0.2776    0.0501 C   0  0  0  0  0  0  0  0  0  0  0  0
    4.9501   -3.6275   -1.7734 H   0  0  0  0  0  0  0  0  0  0  0  0
    4.7137   -3.0269   -0.1271 H   0  0  0  0  0  0  0  0  0  0  0  0
    3.5280   -2.6345   -1.4338 H   0  0  0  0  0  0  0  0  0  0  0  0
    6.7020    0.4549   -1.9575 H   0  0  0  0  0  0  0  0  0  0  0  0
    6.3887    2.6707   -0.8921 H   0  0  0  0  0  0  0  0  0  0  0  0
    4.6181    3.0154    0.7598 H   0  0  0  0  0  0  0  0  0  0  0  0
    2.2713    0.2406    1.7458 H   0  0  0  0  0  0  0  0  0  0  0  0
    1.4620    0.9766    3.7752 H   0  0  0  0  0  0  0  0  0  0  0  0
    1.1562    2.6984    3.9722 H   0  0  0  0  0  0  0  0  0  0  0  0
   -1.7621    2.9085    2.2290 H   0  0  0  0  0  0  0  0  0  0  0  0
   -0.4368    3.2414    1.0770 H   0  0  0  0  0  0  0  0  0  0  0  0
   -0.3529    3.8305    2.7639 H   0  0  0  0  0  0  0  0  0  0  0  0
   -2.1686    1.2515    0.9669 H   0  0  0  0  0  0  0  0  0  0  0  0
   -1.0892   -1.5989    0.5311 H   0  0  0  0  0  0  0  0  0  0  0  0
   -2.6038    0.8743   -1.5490 H   0  0  0  0  0  0  0  0  0  0  0  0
   -3.9643    2.4712   -2.6350 H   0  0  0  0  0  0  0  0  0  0  0  0
   -4.3957    2.3607   -4.3454 H   0  0  0  0  0  0  0  0  0  0  0  0
   -2.9257    1.5499   -3.7914 H   0  0  0  0  0  0  0  0  0  0  0  0
   -5.9588   -1.5002   -2.7980 H   0  0  0  0  0  0  0  0  0  0  0  0
   -5.4300   -3.1767   -1.1099 H   0  0  0  0  0  0  0  0  0  0  0  0
   -3.6465   -4.7666    1.6210 H   0  0  0  0  0  0  0  0  0  0  0  0
   -5.1212   -3.9520    1.0875 H   0  0  0  0  0  0  0  0  0  0  0  0
   -4.0520   -4.7991   -0.0987 H   0  0  0  0  0  0  0  0  0  0  0  0
    3.4001   -1.0914    0.3234 H   0  0  0  0  0  0  0  0  0  0  0  0
  1  2  1  0
  2  3  1  0
  3  4  2  0
  4  5  1  0
  5  6  2  0
  6  7  1  0
  7  8  1  0
  8  9  1  0
  9 10  2  0
  9 11  1  0
 11 12  1  0
 12 13  1  0
 12 14  1  0
 14 15  2  0
 14 16  1  0
 16 17  2  3
 17 18  1  0
 18 19  2  0
 19 20  1  0
 20 21  1  0
 21 22  1  0
 20 23  2  0
 23 24  1  0
 24 25  2  0
 25 26  1  0
 26 27  1  0
  7 28  2  0
 28  3  1  0
 25 18  1  0
  1 29  1  0
  1 30  1  0
  1 31  1  0
  4 32  1  0
  5 33  1  0
  6 34  1  0
  8 35  1  0
 11 36  1  0
 11 37  1  0
 13 38  1  0
 13 39  1  0
 13 40  1  0
 16 41  1  0
 17 42  1  0
 19 43  1  0
 22 44  1  0
 22 45  1  0
 22 46  1  0
 23 47  1  0
 24 48  1  0
 27 49  1  0
 27 50  1  0
 27 51  1  0
 28 52  1  0
M  END
$$$$
