
     RDKit          3D

 40 42  0  0  0  0  0  0  0  0999 V2000
   -1.3921   -1.3132   -3.3088 C   0  0  0  0  0  0  0  0  0  0  0  0
   -0.7807   -0.7931   -2.0062 C   0  0  0  0  0  0  0  0  0  0  0  0
   -0.6328    0.7266   -2.0780 C   0  0  0  0  0  0  0  0  0  0  0  0
   -1.6374   -1.2558   -0.8115 C   0  0  0  0  0  0  0  0  0  0  0  0
   -1.0704   -0.9470    0.4860 N   0  0  0  0  0  0  0  0  0  0  0  0
   -0.0895   -1.6476    1.1388 C   0  0  0  0  0  0  0  0  0  0  0  0
    0.6876   -3.0632    0.5260 S   0  0  0  0  0  0  0  0  0  0  0  0
    2.4044   -2.7180    1.0314 C   0  0  0  0  0  0  0  0  0  0  0  0
    2.9663   -1.5508    0.2297 C   0  0  0  0  0  0  0  0  0  0  0  0
    3.0662   -1.6618   -0.9980 O   0  0  0  0  0  0  0  0  0  0  0  0
    3.3739   -0.3437    0.9485 C   0  0  0  0  0  0  0  0  0  0  0  0
    3.2440    0.0096    2.2821 C   0  0  0  0  0  0  0  0  0  0  0  0
    3.7799    1.3044    2.5678 C   0  0  0  0  0  0  0  0  0  0  0  0
    4.2926    1.8862    1.4398 C   0  0  0  0  0  0  0  0  0  0  0  0
    5.0241    3.4365    1.3261 Cl  0  0  0  0  0  0  0  0  0  0  0  0
    4.1476    0.9209    0.0620 S   0  0  0  0  0  0  0  0  0  0  0  0
    0.1897   -1.0789    2.2856 N   0  0  0  0  0  0  0  0  0  0  0  0
   -0.6233    0.0162    2.4085 N   0  0  0  0  0  0  0  0  0  0  0  0
   -1.3920    0.0891    1.3356 C   0  0  0  0  0  0  0  0  0  0  0  0
   -2.3735    1.1152    1.1484 C   0  0  0  0  0  0  0  0  0  0  0  0
   -2.6529    2.1783    1.9957 C   0  0  0  0  0  0  0  0  0  0  0  0
   -3.6979    2.9287    1.4073 C   0  0  0  0  0  0  0  0  0  0  0  0
   -4.0025    2.2899    0.2316 C   0  0  0  0  0  0  0  0  0  0  0  0
   -3.2135    1.1996    0.0665 O   0  0  0  0  0  0  0  0  0  0  0  0
   -1.4525   -2.4066   -3.2987 H   0  0  0  0  0  0  0  0  0  0  0  0
   -0.7831   -1.0218   -4.1718 H   0  0  0  0  0  0  0  0  0  0  0  0
   -2.4033   -0.9187   -3.4581 H   0  0  0  0  0  0  0  0  0  0  0  0
    0.2265   -1.2182   -1.9196 H   0  0  0  0  0  0  0  0  0  0  0  0
   -0.1142    1.1204   -1.1979 H   0  0  0  0  0  0  0  0  0  0  0  0
   -1.6071    1.2198   -2.1552 H   0  0  0  0  0  0  0  0  0  0  0  0
   -0.0435    1.0149   -2.9563 H   0  0  0  0  0  0  0  0  0  0  0  0
   -2.6480   -0.8461   -0.8694 H   0  0  0  0  0  0  0  0  0  0  0  0
   -1.7744   -2.3438   -0.8478 H   0  0  0  0  0  0  0  0  0  0  0  0
    3.0145   -3.5980    0.7997 H   0  0  0  0  0  0  0  0  0  0  0  0
    2.4658   -2.5723    2.1108 H   0  0  0  0  0  0  0  0  0  0  0  0
    2.7682   -0.6044    3.0395 H   0  0  0  0  0  0  0  0  0  0  0  0
    3.7713    1.7719    3.5447 H   0  0  0  0  0  0  0  0  0  0  0  0
   -2.1481    2.3788    2.9327 H   0  0  0  0  0  0  0  0  0  0  0  0
   -4.1689    3.8234    1.7912 H   0  0  0  0  0  0  0  0  0  0  0  0
   -4.7208    2.4727   -0.5565 H   0  0  0  0  0  0  0  0  0  0  0  0
  1  2  1  0
  2  3  1  0
  2  4  1  0
  4  5  1  0
  5  6  1  0
  6  7  1  0
  7  8  1  0
  8  9  1  0
  9 10  2  0
  9 11  1  0
 11 12  2  0
 12 13  1  0
 13 14  2  0
 14 15  1  0
 14 16  1  0
  6 17  2  0
 17 18  1  0
 18 19  2  0
 19 20  1  0
 20 21  2  0
 21 22  1  0
 22 23  2  0
 23 24  1  0
 19  5  1  0
 24 20  1  0
 16 11  1  0
  1 25  1  0
  1 26  1  0
  1 27  1  0
  2 28  1  0
  3 29  1  0
  3 30  1  0
  3 31  1  0
  4 32  1  0
  4 33  1  0
  8 34  1  0
  8 35  1  0
 12 36  1  0
 13 37  1  0
 21 38  1  0
 22 39  1  0
 23 40  1  0
M  END
$$$$
