
     RDKit          3D

 37 37  0  0  0  0  0  0  0  0999 V2000
    6.5541    0.1401   -0.3581 C   0  0  0  0  0  0  0  0  0  0  0  0
    5.0995   -0.0087    0.0613 C   0  0  0  0  0  0  0  0  0  0  0  0
    4.2887   -0.7589   -0.9961 C   0  0  0  0  0  0  0  0  0  0  0  0
    2.8433   -1.0325   -0.5723 C   0  0  0  0  0  0  0  0  0  0  0  0
    2.0073    0.2363   -0.4108 C   0  0  0  0  0  0  0  0  0  0  0  0
    0.5464   -0.0697   -0.1218 C   0  0  0  0  0  0  0  0  0  0  0  0
    0.1174   -1.2084    0.0368 O   0  0  0  0  0  0  0  0  0  0  0  0
   -0.2183    1.1013   -0.0707 N   0  0  0  0  0  0  0  0  0  0  0  0
   -1.4893    1.0785    0.4406 N   0  0  0  0  0  0  0  0  0  0  0  0
   -2.4159    0.4215   -0.2014 C   0  0  0  0  0  0  0  0  0  0  0  0
   -2.2378   -0.1995   -1.5746 C   0  0  0  0  0  0  0  0  0  0  0  0
   -3.7657    0.2998    0.4380 C   0  0  0  0  0  0  0  0  0  0  0  0
   -4.1551    1.2396    1.4033 C   0  0  0  0  0  0  0  0  0  0  0  0
   -5.4077    1.1458    2.0166 C   0  0  0  0  0  0  0  0  0  0  0  0
   -6.2704    0.1081    1.6712 C   0  0  0  0  0  0  0  0  0  0  0  0
   -7.8123   -0.0091    2.4248 Cl  0  0  0  0  0  0  0  0  0  0  0  0
   -5.8900   -0.8388    0.7217 C   0  0  0  0  0  0  0  0  0  0  0  0
   -4.6371   -0.7460    0.1065 C   0  0  0  0  0  0  0  0  0  0  0  0
    7.1161    0.6819    0.4091 H   0  0  0  0  0  0  0  0  0  0  0  0
    6.6364    0.6971   -1.2969 H   0  0  0  0  0  0  0  0  0  0  0  0
    7.0251   -0.8384   -0.4960 H   0  0  0  0  0  0  0  0  0  0  0  0
    5.0540   -0.5451    1.0161 H   0  0  0  0  0  0  0  0  0  0  0  0
    4.6794    0.9891    0.2265 H   0  0  0  0  0  0  0  0  0  0  0  0
    4.7726   -1.7218   -1.2019 H   0  0  0  0  0  0  0  0  0  0  0  0
    4.2956   -0.1955   -1.9372 H   0  0  0  0  0  0  0  0  0  0  0  0
    2.3797   -1.6754   -1.3315 H   0  0  0  0  0  0  0  0  0  0  0  0
    2.8343   -1.6053    0.3634 H   0  0  0  0  0  0  0  0  0  0  0  0
    2.0575    0.8344   -1.3282 H   0  0  0  0  0  0  0  0  0  0  0  0
    2.3907    0.8405    0.4186 H   0  0  0  0  0  0  0  0  0  0  0  0
    0.2976    1.9268    0.2208 H   0  0  0  0  0  0  0  0  0  0  0  0
   -3.1615   -0.1154   -2.1553 H   0  0  0  0  0  0  0  0  0  0  0  0
   -1.4614    0.3166   -2.1452 H   0  0  0  0  0  0  0  0  0  0  0  0
   -1.9764   -1.2559   -1.4751 H   0  0  0  0  0  0  0  0  0  0  0  0
   -3.4865    2.0510    1.6828 H   0  0  0  0  0  0  0  0  0  0  0  0
   -5.6988    1.8814    2.7617 H   0  0  0  0  0  0  0  0  0  0  0  0
   -6.5587   -1.6553    0.4613 H   0  0  0  0  0  0  0  0  0  0  0  0
   -4.3528   -1.5102   -0.6118 H   0  0  0  0  0  0  0  0  0  0  0  0
  1  2  1  0
  2  3  1  0
  3  4  1  0
  4  5  1  0
  5  6  1  0
  6  7  2  0
  6  8  1  0
  8  9  1  0
  9 10  2  3
 10 11  1  0
 10 12  1  0
 12 13  2  0
 13 14  1  0
 14 15  2  0
 15 16  1  0
 15 17  1  0
 17 18  2  0
 18 12  1  0
  1 19  1  0
  1 20  1  0
  1 21  1  0
  2 22  1  0
  2 23  1  0
  3 24  1  0
  3 25  1  0
  4 26  1  0
  4 27  1  0
  5 28  1  0
  5 29  1  0
  8 30  1  0
 11 31  1  0
 11 32  1  0
 11 33  1  0
 13 34  1  0
 14 35  1  0
 17 36  1  0
 18 37  1  0
M  END
$$$$
