
     RDKit          3D

 46 48  0  0  0  0  0  0  0  0999 V2000
    3.0662   -1.2142    2.7946 C   0  0  0  0  0  0  0  0  0  0  0  0
    3.4360   -0.4717    1.5172 C   0  0  0  0  0  0  0  0  0  0  0  0
    2.3065   -0.5703    0.4802 C   0  0  0  0  0  0  0  0  0  0  0  0
    2.7161    0.0084   -0.8056 N   0  0  0  0  0  0  0  0  0  0  0  0
    1.7951    0.4546   -1.7640 C   0  0  0  0  0  0  0  0  0  0  0  0
    2.0216    0.3306   -2.9692 O   0  0  0  0  0  0  0  0  0  0  0  0
    0.5538    1.1059   -1.3213 C   0  0  0  0  0  0  0  0  0  0  0  0
   -0.6457    1.2178   -2.0743 C   0  0  0  0  0  0  0  0  0  0  0  0
   -1.5005    1.9323   -1.2728 C   0  0  0  0  0  0  0  0  0  0  0  0
   -2.8997    2.3971   -1.3974 C   0  0  0  0  0  0  0  0  0  0  0  0
   -3.6906    1.3507   -1.9681 O   0  0  0  0  0  0  0  0  0  0  0  0
   -4.2265    0.4032   -1.1405 C   0  0  0  0  0  0  0  0  0  0  0  0
   -5.1307   -0.4617   -1.7616 C   0  0  0  0  0  0  0  0  0  0  0  0
   -5.7445   -1.4885   -1.0446 C   0  0  0  0  0  0  0  0  0  0  0  0
   -5.4534   -1.6615    0.3067 C   0  0  0  0  0  0  0  0  0  0  0  0
   -4.5485   -0.8049    0.9501 C   0  0  0  0  0  0  0  0  0  0  0  0
   -4.2009   -1.0010    2.4052 C   0  0  0  0  0  0  0  0  0  0  0  0
   -4.0661    0.1758    3.0784 F   0  0  0  0  0  0  0  0  0  0  0  0
   -5.1337   -1.7168    3.0931 F   0  0  0  0  0  0  0  0  0  0  0  0
   -3.0231   -1.6635    2.5707 F   0  0  0  0  0  0  0  0  0  0  0  0
   -3.9328    0.2244    0.2122 C   0  0  0  0  0  0  0  0  0  0  0  0
   -0.8553    2.2633   -0.1243 O   0  0  0  0  0  0  0  0  0  0  0  0
    0.4315    1.7652   -0.1552 N   0  0  0  0  0  0  0  0  0  0  0  0
    3.9861   -0.5242   -1.2977 C   0  0  0  0  0  0  0  0  0  0  0  0
    5.0887   -0.4768   -0.2260 C   0  0  0  0  0  0  0  0  0  0  0  0
    5.6400    0.9325   -0.0155 C   0  0  0  0  0  0  0  0  0  0  0  0
    4.6491   -1.0587    1.0138 O   0  0  0  0  0  0  0  0  0  0  0  0
    3.8786   -1.1422    3.5259 H   0  0  0  0  0  0  0  0  0  0  0  0
    2.1557   -0.8055    3.2433 H   0  0  0  0  0  0  0  0  0  0  0  0
    2.9138   -2.2813    2.5985 H   0  0  0  0  0  0  0  0  0  0  0  0
    3.6262    0.5772    1.7708 H   0  0  0  0  0  0  0  0  0  0  0  0
    1.3932   -0.1248    0.8725 H   0  0  0  0  0  0  0  0  0  0  0  0
    2.0751   -1.6237    0.2734 H   0  0  0  0  0  0  0  0  0  0  0  0
   -0.8474    0.8179   -3.0575 H   0  0  0  0  0  0  0  0  0  0  0  0
   -2.9292    3.2370   -2.1005 H   0  0  0  0  0  0  0  0  0  0  0  0
   -3.3235    2.7656   -0.4564 H   0  0  0  0  0  0  0  0  0  0  0  0
   -5.3592   -0.3349   -2.8177 H   0  0  0  0  0  0  0  0  0  0  0  0
   -6.4456   -2.1539   -1.5425 H   0  0  0  0  0  0  0  0  0  0  0  0
   -5.9333   -2.4698    0.8568 H   0  0  0  0  0  0  0  0  0  0  0  0
   -3.2177    0.8604    0.7275 H   0  0  0  0  0  0  0  0  0  0  0  0
    3.7951   -1.5664   -1.5837 H   0  0  0  0  0  0  0  0  0  0  0  0
    4.3048    0.0135   -2.1979 H   0  0  0  0  0  0  0  0  0  0  0  0
    5.9217   -1.1003   -0.5714 H   0  0  0  0  0  0  0  0  0  0  0  0
    4.8541    1.6482    0.2449 H   0  0  0  0  0  0  0  0  0  0  0  0
    6.3658    0.9400    0.8044 H   0  0  0  0  0  0  0  0  0  0  0  0
    6.1333    1.2951   -0.9229 H   0  0  0  0  0  0  0  0  0  0  0  0
  1  2  1  0
  2  3  1  0
  3  4  1  0
  4  5  1  0
  5  6  2  0
  5  7  1  0
  7  8  1  0
  8  9  2  0
  9 10  1  0
 10 11  1  0
 11 12  1  0
 12 13  2  0
 13 14  1  0
 14 15  2  0
 15 16  1  0
 16 17  1  0
 17 18  1  0
 17 19  1  0
 17 20  1  0
 16 21  2  0
  9 22  1  0
 22 23  1  0
  4 24  1  0
 24 25  1  0
 25 26  1  0
 25 27  1  0
 27  2  1  0
 23  7  2  0
 21 12  1  0
  1 28  1  0
  1 29  1  0
  1 30  1  0
  2 31  1  0
  3 32  1  0
  3 33  1  0
  8 34  1  0
 10 35  1  0
 10 36  1  0
 13 37  1  0
 14 38  1  0
 15 39  1  0
 21 40  1  0
 24 41  1  0
 24 42  1  0
 25 43  1  0
 26 44  1  0
 26 45  1  0
 26 46  1  0
M  END
$$$$
