
     RDKit          3D

 42 44  0  0  0  0  0  0  0  0999 V2000
    1.7056    2.9922    1.3211 C   0  0  0  0  0  0  0  0  0  0  0  0
    1.7494    2.5224   -0.0240 O   0  0  0  0  0  0  0  0  0  0  0  0
    0.9484    1.4398   -0.2775 C   0  0  0  0  0  0  0  0  0  0  0  0
   -0.3536    1.3213    0.2349 C   0  0  0  0  0  0  0  0  0  0  0  0
   -1.1899    0.2166   -0.0355 C   0  0  0  0  0  0  0  0  0  0  0  0
   -2.4520    0.1531    0.5304 N   0  0  0  0  0  0  0  0  0  0  0  0
   -2.8467    0.9562    1.6909 C   0  0  0  0  0  0  0  0  0  0  0  0
   -4.0345    0.2073    2.2902 C   0  0  0  0  0  0  0  0  0  0  0  0
   -4.6455   -0.4869    1.0887 C   0  0  0  0  0  0  0  0  0  0  0  0
   -3.4175   -0.9181    0.2907 C   0  0  0  0  0  0  0  0  0  0  0  0
   -0.6543   -0.7464   -0.9195 C   0  0  0  0  0  0  0  0  0  0  0  0
   -1.3709   -1.8751   -1.2507 O   0  0  0  0  0  0  0  0  0  0  0  0
   -1.6868   -1.8952   -2.6439 C   0  0  0  0  0  0  0  0  0  0  0  0
    0.6512   -0.6400   -1.4318 C   0  0  0  0  0  0  0  0  0  0  0  0
    1.4607    0.4592   -1.1273 C   0  0  0  0  0  0  0  0  0  0  0  0
    2.8635    0.5272   -1.6767 C   0  0  0  0  0  0  0  0  0  0  0  0
    3.7715   -0.4329   -0.9937 C   0  0  0  0  0  0  0  0  0  0  0  0
    4.1219   -1.6140   -1.4082 N   0  0  0  0  0  0  0  0  0  0  0  0
    4.9354   -2.1339   -0.4215 C   0  0  0  0  0  0  0  0  0  0  0  0
    5.6912   -3.6144   -0.4219 S   0  0  0  0  0  0  0  0  0  0  0  0
    5.0710   -1.2657    0.6127 N   0  0  0  0  0  0  0  0  0  0  0  0
    4.3919   -0.1348    0.3481 C   0  0  0  0  0  0  0  0  0  0  0  0
    4.3062    0.8912    0.9781 O   0  0  0  0  0  0  0  0  0  0  0  0
    1.7072    2.1681    2.0433 H   0  0  0  0  0  0  0  0  0  0  0  0
    0.8381    3.6418    1.4728 H   0  0  0  0  0  0  0  0  0  0  0  0
    2.6049    3.5911    1.4942 H   0  0  0  0  0  0  0  0  0  0  0  0
   -0.7387    2.1330    0.8425 H   0  0  0  0  0  0  0  0  0  0  0  0
   -3.1500    1.9571    1.3634 H   0  0  0  0  0  0  0  0  0  0  0  0
   -2.0521    1.0450    2.4401 H   0  0  0  0  0  0  0  0  0  0  0  0
   -4.7349    0.8737    2.8011 H   0  0  0  0  0  0  0  0  0  0  0  0
   -3.6819   -0.5383    3.0133 H   0  0  0  0  0  0  0  0  0  0  0  0
   -5.2849   -1.3307    1.3622 H   0  0  0  0  0  0  0  0  0  0  0  0
   -5.2436    0.2256    0.5077 H   0  0  0  0  0  0  0  0  0  0  0  0
   -3.6843   -1.0154   -0.7658 H   0  0  0  0  0  0  0  0  0  0  0  0
   -3.0412   -1.8724    0.6768 H   0  0  0  0  0  0  0  0  0  0  0  0
   -2.0386   -0.9190   -2.9972 H   0  0  0  0  0  0  0  0  0  0  0  0
   -2.4954   -2.6176   -2.7908 H   0  0  0  0  0  0  0  0  0  0  0  0
   -0.8277   -2.2304   -3.2334 H   0  0  0  0  0  0  0  0  0  0  0  0
    1.0418   -1.4366   -2.0621 H   0  0  0  0  0  0  0  0  0  0  0  0
    2.8388    0.2873   -2.7470 H   0  0  0  0  0  0  0  0  0  0  0  0
    3.2902    1.5327   -1.6043 H   0  0  0  0  0  0  0  0  0  0  0  0
    5.6360   -1.4242    1.4296 H   0  0  0  0  0  0  0  0  0  0  0  0
  1  2  1  0
  2  3  1  0
  3  4  2  0
  4  5  1  0
  5  6  1  0
  6  7  1  0
  7  8  1  0
  8  9  1  0
  9 10  1  0
  5 11  2  0
 11 12  1  0
 12 13  1  0
 11 14  1  0
 14 15  2  0
 15 16  1  0
 16 17  1  0
 17 18  2  0
 18 19  1  0
 19 20  2  0
 19 21  1  0
 21 22  1  0
 22 23  2  0
 15  3  1  0
 22 17  1  0
 10  6  1  0
  1 24  1  0
  1 25  1  0
  1 26  1  0
  4 27  1  0
  7 28  1  0
  7 29  1  0
  8 30  1  0
  8 31  1  0
  9 32  1  0
  9 33  1  0
 10 34  1  0
 10 35  1  0
 13 36  1  0
 13 37  1  0
 13 38  1  0
 14 39  1  0
 16 40  1  0
 16 41  1  0
 21 42  1  0
M  END
$$$$
