
     RDKit          3D

 48 50  0  0  0  0  0  0  0  0999 V2000
    5.1186    3.2107   -0.9603 C   0  0  0  0  0  0  0  0  0  0  0  0
    4.4651    2.1880   -1.7026 O   0  0  0  0  0  0  0  0  0  0  0  0
    3.8980    1.1696   -0.9881 C   0  0  0  0  0  0  0  0  0  0  0  0
    3.4059    0.1163   -1.7622 C   0  0  0  0  0  0  0  0  0  0  0  0
    2.7996   -0.9883   -1.1604 C   0  0  0  0  0  0  0  0  0  0  0  0
    2.6707   -1.0506    0.2332 C   0  0  0  0  0  0  0  0  0  0  0  0
    1.9925   -2.2347    0.8842 C   0  0  0  0  0  0  0  0  0  0  0  0
    0.5092   -2.3832    0.5577 C   0  0  0  0  0  0  0  0  0  0  0  0
    0.0291   -3.5004    0.3849 O   0  0  0  0  0  0  0  0  0  0  0  0
   -0.1858   -1.1850    0.5601 N   0  0  0  0  0  0  0  0  0  0  0  0
   -1.5513   -1.0485    0.3646 C   0  0  0  0  0  0  0  0  0  0  0  0
   -2.5507   -1.9712    0.1392 C   0  0  0  0  0  0  0  0  0  0  0  0
   -3.7309   -1.2402    0.0445 C   0  0  0  0  0  0  0  0  0  0  0  0
   -3.5489    0.0670    0.1611 N   0  0  0  0  0  0  0  0  0  0  0  0
   -2.2096    0.1908    0.3748 N   0  0  0  0  0  0  0  0  0  0  0  0
   -1.6609    1.5488    0.5983 C   0  0  0  0  0  0  0  0  0  0  0  0
   -0.6578    1.9189   -0.5124 C   0  0  0  0  0  0  0  0  0  0  0  0
   -2.7775    2.6297    0.5653 C   0  0  0  0  0  0  0  0  0  0  0  0
   -1.0020    1.6450    1.9896 C   0  0  0  0  0  0  0  0  0  0  0  0
   -4.9933   -1.9546   -0.1796 C   0  0  0  0  0  0  0  0  0  0  0  0
   -4.4830   -3.7180   -0.4683 S   0  0  0  0  0  3  0  0  0  0  0  0
   -5.1669   -4.6456    0.7315 O   0  0  0  0  0  1  0  0  0  0  0  0
   -2.6865   -3.4277   -0.0141 C   0  0  0  0  0  0  0  0  0  0  0  0
    3.1654    0.0071    1.0091 C   0  0  0  0  0  0  0  0  0  0  0  0
    3.7736    1.1118    0.4013 C   0  0  0  0  0  0  0  0  0  0  0  0
    5.9246    2.7990   -0.3447 H   0  0  0  0  0  0  0  0  0  0  0  0
    4.4047    3.7721   -0.3496 H   0  0  0  0  0  0  0  0  0  0  0  0
    5.5674    3.9091   -1.6751 H   0  0  0  0  0  0  0  0  0  0  0  0
    3.5050    0.1514   -2.8467 H   0  0  0  0  0  0  0  0  0  0  0  0
    2.4324   -1.7966   -1.7902 H   0  0  0  0  0  0  0  0  0  0  0  0
    2.0828   -2.1808    1.9768 H   0  0  0  0  0  0  0  0  0  0  0  0
    2.5121   -3.1475    0.5663 H   0  0  0  0  0  0  0  0  0  0  0  0
    0.3657   -0.3488    0.6879 H   0  0  0  0  0  0  0  0  0  0  0  0
   -1.1215    1.8381   -1.5028 H   0  0  0  0  0  0  0  0  0  0  0  0
   -0.3040    2.9495   -0.3928 H   0  0  0  0  0  0  0  0  0  0  0  0
    0.2278    1.2791   -0.5174 H   0  0  0  0  0  0  0  0  0  0  0  0
   -2.3655    3.6311    0.7451 H   0  0  0  0  0  0  0  0  0  0  0  0
   -3.2839    2.6573   -0.4077 H   0  0  0  0  0  0  0  0  0  0  0  0
   -3.5366    2.4473    1.3363 H   0  0  0  0  0  0  0  0  0  0  0  0
   -1.6948    1.3165    2.7743 H   0  0  0  0  0  0  0  0  0  0  0  0
   -0.0988    1.0356    2.0773 H   0  0  0  0  0  0  0  0  0  0  0  0
   -0.7059    2.6772    2.2160 H   0  0  0  0  0  0  0  0  0  0  0  0
   -5.5246   -1.6100   -1.0705 H   0  0  0  0  0  0  0  0  0  0  0  0
   -5.6476   -1.9266    0.6951 H   0  0  0  0  0  0  0  0  0  0  0  0
   -2.4898   -3.9737    0.9117 H   0  0  0  0  0  0  0  0  0  0  0  0
   -2.1012   -3.8250   -0.8468 H   0  0  0  0  0  0  0  0  0  0  0  0
    3.0880   -0.0182    2.0956 H   0  0  0  0  0  0  0  0  0  0  0  0
    4.1410    1.9080    1.0394 H   0  0  0  0  0  0  0  0  0  0  0  0
  1  2  1  0
  2  3  1  0
  3  4  2  0
  4  5  1  0
  5  6  2  0
  6  7  1  0
  7  8  1  0
  8  9  2  0
  8 10  1  0
 10 11  1  0
 11 12  2  0
 12 13  1  0
 13 14  2  0
 14 15  1  0
 15 16  1  0
 16 17  1  0
 16 18  1  0
 16 19  1  0
 13 20  1  0
 20 21  1  0
 21 22  1  0
 21 23  1  0
  6 24  1  0
 24 25  2  0
 25  3  1  0
 15 11  1  0
 23 12  1  0
  1 26  1  0
  1 27  1  0
  1 28  1  0
  4 29  1  0
  5 30  1  0
  7 31  1  0
  7 32  1  0
 10 33  1  0
 17 34  1  0
 17 35  1  0
 17 36  1  0
 18 37  1  0
 18 38  1  0
 18 39  1  0
 19 40  1  0
 19 41  1  0
 19 42  1  0
 20 43  1  0
 20 44  1  0
 23 45  1  0
 23 46  1  0
 24 47  1  0
 25 48  1  0
M  CHG  2  21   1  22  -1
M  END
$$$$
