
     RDKit          3D

 46 50  0  0  0  0  0  0  0  0999 V2000
   -7.9789   -1.1323    1.6961 C   0  0  0  0  0  0  0  0  0  0  0  0
   -6.5044   -1.0237    1.4017 C   0  0  0  0  0  0  0  0  0  0  0  0
   -5.6003   -1.7391    2.2067 C   0  0  0  0  0  0  0  0  0  0  0  0
   -4.2203   -1.6888    1.9965 C   0  0  0  0  0  0  0  0  0  0  0  0
   -3.7775   -0.8897    0.9433 C   0  0  0  0  0  0  0  0  0  0  0  0
   -4.6400   -0.1599    0.1162 C   0  0  0  0  0  0  0  0  0  0  0  0
   -3.9348    0.5452   -0.8472 N   0  0  0  0  0  0  0  0  0  0  0  0
   -2.6925    0.2444   -0.5983 C   0  0  0  0  0  0  0  0  0  0  0  0
   -1.2065    0.7004   -1.3328 S   0  0  0  0  0  0  0  0  0  0  0  0
   -0.3326   -0.2887   -0.1909 C   0  0  0  0  0  0  0  0  0  0  0  0
    0.9879   -0.4703   -0.0590 C   0  0  0  0  0  0  0  0  0  0  0  0
    2.0139    0.1009   -0.8620 C   0  0  0  0  0  0  0  0  0  0  0  0
    2.0558    0.5106   -2.1903 C   0  0  0  0  0  0  0  0  0  0  0  0
    3.3595    0.9931   -2.4641 C   0  0  0  0  0  0  0  0  0  0  0  0
    4.0789    0.8316   -1.3041 C   0  0  0  0  0  0  0  0  0  0  0  0
    5.4441    1.1416   -0.9008 C   0  0  0  0  0  0  0  0  0  0  0  0
    6.0013    2.3689   -1.3035 C   0  0  0  0  0  0  0  0  0  0  0  0
    7.2822    2.7511   -0.8927 C   0  0  0  0  0  0  0  0  0  0  0  0
    8.0296    1.9154   -0.0679 C   0  0  0  0  0  0  0  0  0  0  0  0
    7.5028    0.6893    0.3337 C   0  0  0  0  0  0  0  0  0  0  0  0
    6.2247    0.2943   -0.0941 C   0  0  0  0  0  0  0  0  0  0  0  0
    5.7805   -1.0451    0.3353 C   0  0  0  0  0  0  0  0  0  0  0  0
    5.8549   -1.4946    1.4634 O   0  0  0  0  0  0  0  0  0  0  0  0
    5.3893   -1.7971   -0.7087 O   0  0  0  0  0  0  0  0  0  0  0  0
    3.2761    0.3008   -0.3428 O   0  0  0  0  0  0  0  0  0  0  0  0
   -1.2480   -0.9730    0.7722 C   0  0  0  0  0  0  0  0  0  0  0  0
   -0.9916   -1.7316    1.6886 O   0  0  0  0  0  0  0  0  0  0  0  0
   -2.5328   -0.6006    0.4464 N   0  0  0  0  0  0  0  0  0  0  0  0
   -6.0353   -0.2138    0.3325 C   0  0  0  0  0  0  0  0  0  0  0  0
   -6.9932    0.5563   -0.5341 C   0  0  0  0  0  0  0  0  0  0  0  0
   -8.5097   -1.5439    0.8320 H   0  0  0  0  0  0  0  0  0  0  0  0
   -8.1723   -1.7948    2.5465 H   0  0  0  0  0  0  0  0  0  0  0  0
   -8.3899   -0.1490    1.9456 H   0  0  0  0  0  0  0  0  0  0  0  0
   -5.9730   -2.3559    3.0241 H   0  0  0  0  0  0  0  0  0  0  0  0
   -3.5324   -2.2460    2.6258 H   0  0  0  0  0  0  0  0  0  0  0  0
    1.3497   -1.0844    0.7654 H   0  0  0  0  0  0  0  0  0  0  0  0
    1.2434    0.4616   -2.9013 H   0  0  0  0  0  0  0  0  0  0  0  0
    3.7300    1.3900   -3.3986 H   0  0  0  0  0  0  0  0  0  0  0  0
    5.4277    3.0551   -1.9241 H   0  0  0  0  0  0  0  0  0  0  0  0
    7.6891    3.7094   -1.2075 H   0  0  0  0  0  0  0  0  0  0  0  0
    9.0215    2.2162    0.2606 H   0  0  0  0  0  0  0  0  0  0  0  0
    8.0913    0.0333    0.9725 H   0  0  0  0  0  0  0  0  0  0  0  0
    5.1455   -2.6544   -0.3040 H   0  0  0  0  0  0  0  0  0  0  0  0
   -7.5656    1.2672    0.0699 H   0  0  0  0  0  0  0  0  0  0  0  0
   -7.6815   -0.1273   -1.0409 H   0  0  0  0  0  0  0  0  0  0  0  0
   -6.4666    1.1271   -1.3055 H   0  0  0  0  0  0  0  0  0  0  0  0
  1  2  1  0
  2  3  2  0
  3  4  1  0
  4  5  2  0
  5  6  1  0
  6  7  1  0
  7  8  2  0
  8  9  1  0
  9 10  1  0
 10 11  2  3
 11 12  1  0
 12 13  2  0
 13 14  1  0
 14 15  2  0
 15 16  1  0
 16 17  2  0
 17 18  1  0
 18 19  2  0
 19 20  1  0
 20 21  2  0
 21 22  1  0
 22 23  2  0
 22 24  1  0
 15 25  1  0
 10 26  1  0
 26 27  2  0
 26 28  1  0
  6 29  2  0
 29 30  1  0
 29  2  1  0
 28  5  1  0
 28  8  1  0
 25 12  1  0
 21 16  1  0
  1 31  1  0
  1 32  1  0
  1 33  1  0
  3 34  1  0
  4 35  1  0
 11 36  1  0
 13 37  1  0
 14 38  1  0
 17 39  1  0
 18 40  1  0
 19 41  1  0
 20 42  1  0
 24 43  1  0
 30 44  1  0
 30 45  1  0
 30 46  1  0
M  END
$$$$
