
     RDKit          3D

 36 38  0  0  0  0  0  0  0  0999 V2000
   -0.0215    1.9795    0.0907 O   0  0  0  0  0  0  0  0  0  0  0  0
   -0.3113    0.7918    0.1703 C   0  0  0  0  0  0  0  0  0  0  0  0
   -1.7100    0.2886    0.0698 C   0  0  0  0  0  0  0  0  0  0  0  0
   -2.7356    1.1173   -0.1718 C   0  0  0  0  0  0  0  0  0  0  0  0
   -4.1446    0.7335   -0.3029 C   0  0  0  0  0  0  0  0  0  0  0  0
   -4.8640    0.2205    0.7845 C   0  0  0  0  0  0  0  0  0  0  0  0
   -6.2104   -0.1258    0.6415 C   0  0  0  0  0  0  0  0  0  0  0  0
   -6.8346    0.0507   -0.5889 C   0  0  0  0  0  0  0  0  0  0  0  0
   -8.1456   -0.2734   -0.7737 O   0  0  0  0  0  0  0  0  0  0  0  0
   -6.1373    0.5691   -1.6734 C   0  0  0  0  0  0  0  0  0  0  0  0
   -4.7921    0.9145   -1.5306 C   0  0  0  0  0  0  0  0  0  0  0  0
   -1.7580   -1.4176    0.2810 S   0  0  0  0  0  0  0  0  0  0  0  0
   -0.0207   -1.5319    0.5577 C   0  0  0  0  0  0  0  0  0  0  0  0
    0.7070   -2.9700    1.0031 S   0  0  0  0  0  0  0  0  0  0  0  0
    0.5530   -0.2832    0.3576 N   0  0  0  0  0  0  0  0  0  0  0  0
    1.8814   -0.0003    0.6071 N   0  0  0  0  0  0  0  0  0  0  0  0
    2.7357   -0.5771   -0.1788 C   0  0  0  0  0  0  0  0  0  0  0  0
    4.1904   -0.3855   -0.0202 C   0  0  0  0  0  0  0  0  0  0  0  0
    4.6995    0.4663    0.9665 C   0  0  0  0  0  0  0  0  0  0  0  0
    6.0800    0.6334    1.0973 C   0  0  0  0  0  0  0  0  0  0  0  0
    6.9356   -0.0533    0.2404 C   0  0  0  0  0  0  0  0  0  0  0  0
    8.2890    0.0801    0.3321 O   0  0  0  0  0  0  0  0  0  0  0  0
    6.4359   -0.9021   -0.7425 C   0  0  0  0  0  0  0  0  0  0  0  0
    5.0569   -1.0713   -0.8767 C   0  0  0  0  0  0  0  0  0  0  0  0
   -2.5459    2.1814   -0.3106 H   0  0  0  0  0  0  0  0  0  0  0  0
   -4.3841    0.0885    1.7516 H   0  0  0  0  0  0  0  0  0  0  0  0
   -6.7489   -0.5254    1.4948 H   0  0  0  0  0  0  0  0  0  0  0  0
   -8.4985   -0.6271    0.0591 H   0  0  0  0  0  0  0  0  0  0  0  0
   -6.6392    0.7048   -2.6273 H   0  0  0  0  0  0  0  0  0  0  0  0
   -4.2568    1.3203   -2.3859 H   0  0  0  0  0  0  0  0  0  0  0  0
    2.4125   -1.2255   -1.0140 H   0  0  0  0  0  0  0  0  0  0  0  0
    4.0283    1.0037    1.6330 H   0  0  0  0  0  0  0  0  0  0  0  0
    6.4633    1.2977    1.8656 H   0  0  0  0  0  0  0  0  0  0  0  0
    8.4937    0.6959    1.0551 H   0  0  0  0  0  0  0  0  0  0  0  0
    7.1204   -1.4302   -1.4009 H   0  0  0  0  0  0  0  0  0  0  0  0
    4.6766   -1.7382   -1.6456 H   0  0  0  0  0  0  0  0  0  0  0  0
  1  2  2  0
  2  3  1  0
  3  4  2  3
  4  5  1  0
  5  6  2  0
  6  7  1  0
  7  8  2  0
  8  9  1  0
  8 10  1  0
 10 11  2  0
  3 12  1  0
 12 13  1  0
 13 14  2  0
 13 15  1  0
 15 16  1  0
 16 17  2  3
 17 18  1  0
 18 19  2  0
 19 20  1  0
 20 21  2  0
 21 22  1  0
 21 23  1  0
 23 24  2  0
 15  2  1  0
 24 18  1  0
 11  5  1  0
  4 25  1  0
  6 26  1  0
  7 27  1  0
  9 28  1  0
 10 29  1  0
 11 30  1  0
 17 31  1  0
 19 32  1  0
 20 33  1  0
 22 34  1  0
 23 35  1  0
 24 36  1  0
M  END
$$$$
