
     RDKit          3D

 45 48  0  0  0  0  0  0  0  0999 V2000
   -4.6766   -2.3280    2.0554 C   0  0  0  0  0  0  0  0  0  0  0  0
   -4.2484   -0.8781    2.1671 C   0  0  0  0  0  0  0  0  0  0  0  0
   -2.9651   -0.7432    1.5440 O   0  0  0  0  0  0  0  0  0  0  0  0
   -2.4539    0.5158    1.5916 C   0  0  0  0  0  0  0  0  0  0  0  0
   -2.9839    1.4857    2.1103 O   0  0  0  0  0  0  0  0  0  0  0  0
   -1.1615    0.5578    0.8755 C   0  0  0  0  0  0  0  0  0  0  0  0
   -1.0694    1.6206   -0.1500 C   0  0  0  0  0  0  0  0  0  0  0  0
   -0.1803    2.4581   -0.2049 O   0  0  0  0  0  0  0  0  0  0  0  0
   -2.1446    1.5381   -0.9781 O   0  0  0  0  0  0  0  0  0  0  0  0
   -2.1752    2.5500   -1.9901 C   0  0  0  0  0  0  0  0  0  0  0  0
   -3.4090    2.3276   -2.8427 C   0  0  0  0  0  0  0  0  0  0  0  0
   -0.0939   -0.1918    1.2607 C   0  0  0  0  0  0  0  0  0  0  0  0
   -0.1052   -0.8802    2.6055 C   0  0  0  0  0  0  0  0  0  0  0  0
    1.0274   -1.2815    3.2380 C   0  0  0  0  0  0  0  0  0  0  0  0
    0.9725   -2.0623    4.9341 Br  0  0  0  0  0  0  0  0  0  0  0  0
    2.2967   -1.1280    2.5882 C   0  0  0  0  0  0  0  0  0  0  0  0
    3.5440   -1.4296    2.9674 N   0  0  0  0  0  0  0  0  0  0  0  0
    4.3402   -1.1761    1.8405 O   0  0  0  0  0  0  0  0  0  0  0  0
    3.5502   -0.7529    0.8064 C   0  0  0  0  0  0  0  0  0  0  0  0
    3.8981   -0.4740   -0.5209 C   0  0  0  0  0  0  0  0  0  0  0  0
    5.2360   -0.5580   -0.9491 C   0  0  0  0  0  0  0  0  0  0  0  0
    5.5429   -0.2975   -2.2801 C   0  0  0  0  0  0  0  0  0  0  0  0
    4.5283    0.0429   -3.1720 C   0  0  0  0  0  0  0  0  0  0  0  0
    3.1954    0.1177   -2.7432 C   0  0  0  0  0  0  0  0  0  0  0  0
    2.8307   -0.1473   -1.4031 C   0  0  0  0  0  0  0  0  0  0  0  0
    1.4910   -0.1041   -0.8955 C   0  0  0  0  0  0  0  0  0  0  0  0
    0.4250   -0.0094   -1.7592 O   0  0  0  0  0  0  0  0  0  0  0  0
    1.1912   -0.2443    0.4735 C   0  0  0  0  0  0  0  0  0  0  0  0
    2.2659   -0.6490    1.2684 C   0  0  0  0  0  0  0  0  0  0  0  0
   -4.7298   -2.6345    1.0054 H   0  0  0  0  0  0  0  0  0  0  0  0
   -3.9467   -2.9837    2.5417 H   0  0  0  0  0  0  0  0  0  0  0  0
   -5.6549   -2.4830    2.5188 H   0  0  0  0  0  0  0  0  0  0  0  0
   -4.1791   -0.5933    3.2230 H   0  0  0  0  0  0  0  0  0  0  0  0
   -4.9751   -0.2358    1.6574 H   0  0  0  0  0  0  0  0  0  0  0  0
   -1.2771    2.4786   -2.6141 H   0  0  0  0  0  0  0  0  0  0  0  0
   -2.2223    3.5397   -1.5221 H   0  0  0  0  0  0  0  0  0  0  0  0
   -4.3149    2.3747   -2.2294 H   0  0  0  0  0  0  0  0  0  0  0  0
   -3.3863    1.3334   -3.3012 H   0  0  0  0  0  0  0  0  0  0  0  0
   -3.4778    3.0799   -3.6334 H   0  0  0  0  0  0  0  0  0  0  0  0
   -1.0507   -0.9979    3.1266 H   0  0  0  0  0  0  0  0  0  0  0  0
    6.0304   -0.8209   -0.2542 H   0  0  0  0  0  0  0  0  0  0  0  0
    6.5736   -0.3525   -2.6219 H   0  0  0  0  0  0  0  0  0  0  0  0
    4.7745    0.2617   -4.2090 H   0  0  0  0  0  0  0  0  0  0  0  0
    2.4536    0.4231   -3.4768 H   0  0  0  0  0  0  0  0  0  0  0  0
    0.7143   -0.2688   -2.6485 H   0  0  0  0  0  0  0  0  0  0  0  0
  1  2  1  0
  2  3  1  0
  3  4  1  0
  4  5  2  0
  4  6  1  0
  6  7  1  0
  7  8  2  0
  7  9  1  0
  9 10  1  0
 10 11  1  0
  6 12  2  3
 12 13  1  0
 13 14  2  0
 14 15  1  0
 14 16  1  0
 16 17  2  0
 17 18  1  0
 18 19  1  0
 19 20  1  0
 20 21  2  0
 21 22  1  0
 22 23  2  0
 23 24  1  0
 24 25  2  0
 25 26  1  0
 26 27  1  0
 26 28  2  0
 28 29  1  0
 28 12  1  0
 29 16  1  0
 29 19  2  0
 25 20  1  0
  1 30  1  0
  1 31  1  0
  1 32  1  0
  2 33  1  0
  2 34  1  0
 10 35  1  0
 10 36  1  0
 11 37  1  0
 11 38  1  0
 11 39  1  0
 13 40  1  0
 21 41  1  0
 22 42  1  0
 23 43  1  0
 24 44  1  0
 27 45  1  0
M  END
$$$$
