
     RDKit          3D

 41 44  0  0  0  0  0  0  0  0999 V2000
   -1.2830    1.0287   -1.9270 C   0  0  0  0  0  0  0  0  0  0  0  0
   -1.7661    1.3925   -0.5189 C   0  0  0  0  0  0  0  0  0  0  0  0
   -3.2661    1.7653   -0.5216 C   0  0  0  0  0  0  0  0  0  0  0  0
   -3.8759    0.5107   -0.0061 C   0  0  0  0  0  0  0  0  0  0  0  0
   -5.2167    0.1652    0.0487 C   0  0  0  0  0  0  0  0  0  0  0  0
   -5.5609   -1.0496    0.6425 C   0  0  0  0  0  0  0  0  0  0  0  0
   -4.5698   -1.8871    1.1745 C   0  0  0  0  0  0  0  0  0  0  0  0
   -3.2226   -1.5179    1.1192 C   0  0  0  0  0  0  0  0  0  0  0  0
   -2.8838   -0.3110    0.5270 C   0  0  0  0  0  0  0  0  0  0  0  0
   -1.5682    0.2067    0.3781 N   0  0  0  0  0  0  0  0  0  0  0  0
   -0.9563    0.5149    1.7034 C   0  0  0  0  0  0  0  0  0  0  0  0
    0.5722    0.6191    1.5834 C   0  0  0  0  0  0  0  0  0  0  0  0
    1.2329    1.2875    2.3720 O   0  0  0  0  0  0  0  0  0  0  0  0
    1.0536   -0.1563    0.5428 N   0  0  0  0  0  0  0  0  0  0  0  0
    2.3814   -0.3471    0.1305 C   0  0  0  0  0  0  0  0  0  0  0  0
    2.5828   -1.1562   -1.0101 C   0  0  0  0  0  0  0  0  0  0  0  0
    3.8684   -1.4075   -1.5018 C   0  0  0  0  0  0  0  0  0  0  0  0
    4.9280   -0.8390   -0.8333 C   0  0  0  0  0  0  0  0  0  0  0  0
    4.7402   -0.0521    0.2778 C   0  0  0  0  0  0  0  0  0  0  0  0
    3.4829    0.2127    0.7847 C   0  0  0  0  0  0  0  0  0  0  0  0
    5.9146    0.4097    0.7876 O   0  0  0  0  0  0  0  0  0  0  0  0
    6.8597   -0.1779   -0.1291 C   0  0  0  0  0  0  0  0  0  0  0  0
    6.2400   -0.9714   -1.1627 O   0  0  0  0  0  0  0  0  0  0  0  0
   -1.8208    0.1633   -2.3296 H   0  0  0  0  0  0  0  0  0  0  0  0
   -0.2169    0.7804   -1.9215 H   0  0  0  0  0  0  0  0  0  0  0  0
   -1.4268    1.8693   -2.6138 H   0  0  0  0  0  0  0  0  0  0  0  0
   -1.1729    2.2509   -0.1784 H   0  0  0  0  0  0  0  0  0  0  0  0
   -3.4596    2.5821    0.1824 H   0  0  0  0  0  0  0  0  0  0  0  0
   -3.6368    2.0390   -1.5136 H   0  0  0  0  0  0  0  0  0  0  0  0
   -5.9825    0.8209   -0.3524 H   0  0  0  0  0  0  0  0  0  0  0  0
   -6.6049   -1.3492    0.6965 H   0  0  0  0  0  0  0  0  0  0  0  0
   -4.8514   -2.8327    1.6312 H   0  0  0  0  0  0  0  0  0  0  0  0
   -2.4597   -2.1771    1.5191 H   0  0  0  0  0  0  0  0  0  0  0  0
   -1.3479    1.4593    2.0999 H   0  0  0  0  0  0  0  0  0  0  0  0
   -1.1481   -0.2815    2.4324 H   0  0  0  0  0  0  0  0  0  0  0  0
    0.3090   -0.5859   -0.0069 H   0  0  0  0  0  0  0  0  0  0  0  0
    1.7336   -1.5985   -1.5265 H   0  0  0  0  0  0  0  0  0  0  0  0
    4.0262   -2.0276   -2.3767 H   0  0  0  0  0  0  0  0  0  0  0  0
    3.3888    0.8372    1.6642 H   0  0  0  0  0  0  0  0  0  0  0  0
    7.4355    0.6259   -0.6024 H   0  0  0  0  0  0  0  0  0  0  0  0
    7.5477   -0.8160    0.4374 H   0  0  0  0  0  0  0  0  0  0  0  0
  1  2  1  0
  2  3  1  0
  3  4  1  0
  4  5  2  0
  5  6  1  0
  6  7  2  0
  7  8  1  0
  8  9  2  0
  9 10  1  0
 10 11  1  0
 11 12  1  0
 12 13  2  0
 12 14  1  0
 14 15  1  0
 15 16  2  0
 16 17  1  0
 17 18  2  0
 18 19  1  0
 19 20  2  0
 19 21  1  0
 21 22  1  0
 22 23  1  0
 10  2  1  0
 20 15  1  0
  9  4  1  0
 23 18  1  0
  1 24  1  0
  1 25  1  0
  1 26  1  0
  2 27  1  0
  3 28  1  0
  3 29  1  0
  5 30  1  0
  6 31  1  0
  7 32  1  0
  8 33  1  0
 11 34  1  0
 11 35  1  0
 14 36  1  0
 16 37  1  0
 17 38  1  0
 20 39  1  0
 22 40  1  0
 22 41  1  0
M  END
$$$$
