
     RDKit          3D

 43 46  0  0  0  0  0  0  0  0999 V2000
   -4.4890   -3.0486   -1.2632 C   0  0  0  0  0  0  0  0  0  0  0  0
   -3.9759   -1.6913   -1.3738 N   0  0  0  0  0  0  0  0  0  0  0  0
   -4.6188   -0.8259   -2.2573 C   0  0  0  0  0  0  0  0  0  0  0  0
   -5.5820   -1.1524   -2.9466 O   0  0  0  0  0  0  0  0  0  0  0  0
   -4.0890    0.6082   -2.3725 C   0  0  0  0  0  0  0  0  0  0  0  0
   -4.6477    1.3786   -3.1494 O   0  0  0  0  0  0  0  0  0  0  0  0
   -2.9937    0.9646   -1.5880 N   0  0  0  0  0  0  0  0  0  0  0  0
   -2.5010    2.3305   -1.6933 C   0  0  0  0  0  0  0  0  0  0  0  0
   -2.3707    0.0401   -0.7059 C   0  0  0  0  0  0  0  0  0  0  0  0
   -1.2626    0.4238    0.0690 C   0  0  0  0  0  0  0  0  0  0  0  0
   -0.6464   -0.4884    0.9307 C   0  0  0  0  0  0  0  0  0  0  0  0
    0.7555    0.0502    1.8884 S   0  0  0  0  0  6  0  0  0  0  0  0
    1.2524   -1.0952    2.6235 O   0  0  0  0  0  0  0  0  0  0  0  0
    0.3323    1.2592    2.5629 O   0  0  0  0  0  0  0  0  0  0  0  0
    1.8817    0.4267    0.6599 N   0  0  0  0  0  0  0  0  0  0  0  0
    2.3568   -0.7383   -0.1687 C   0  0  0  0  0  0  0  0  0  0  0  0
    3.8618   -0.9003    0.0971 C   0  0  0  0  0  0  0  0  0  0  0  0
    4.2122    0.3926    0.7511 C   0  0  0  0  0  0  0  0  0  0  0  0
    5.4737    0.8747    1.0629 C   0  0  0  0  0  0  0  0  0  0  0  0
    5.5688    2.0989    1.7284 C   0  0  0  0  0  0  0  0  0  0  0  0
    4.4128    2.8158    2.0740 C   0  0  0  0  0  0  0  0  0  0  0  0
    3.1464    2.3158    1.7602 C   0  0  0  0  0  0  0  0  0  0  0  0
    3.0669    1.0973    1.1098 C   0  0  0  0  0  0  0  0  0  0  0  0
   -1.1245   -1.7865    1.0502 C   0  0  0  0  0  0  0  0  0  0  0  0
   -2.2249   -2.1749    0.2855 C   0  0  0  0  0  0  0  0  0  0  0  0
   -2.8583   -1.2776   -0.5986 C   0  0  0  0  0  0  0  0  0  0  0  0
   -5.3496   -3.2200   -1.9160 H   0  0  0  0  0  0  0  0  0  0  0  0
   -4.8122   -3.2330   -0.2337 H   0  0  0  0  0  0  0  0  0  0  0  0
   -3.7071   -3.7581   -1.5524 H   0  0  0  0  0  0  0  0  0  0  0  0
   -1.4629    2.3172   -2.0405 H   0  0  0  0  0  0  0  0  0  0  0  0
   -3.0809    2.9251   -2.4048 H   0  0  0  0  0  0  0  0  0  0  0  0
   -2.5723    2.8198   -0.7167 H   0  0  0  0  0  0  0  0  0  0  0  0
   -0.8562    1.4312    0.0248 H   0  0  0  0  0  0  0  0  0  0  0  0
    1.8211   -1.6701    0.0341 H   0  0  0  0  0  0  0  0  0  0  0  0
    2.1795   -0.4861   -1.2218 H   0  0  0  0  0  0  0  0  0  0  0  0
    4.0457   -1.7308    0.7868 H   0  0  0  0  0  0  0  0  0  0  0  0
    4.4147   -1.0644   -0.8323 H   0  0  0  0  0  0  0  0  0  0  0  0
    6.3685    0.3168    0.8055 H   0  0  0  0  0  0  0  0  0  0  0  0
    6.5467    2.5004    1.9853 H   0  0  0  0  0  0  0  0  0  0  0  0
    4.5030    3.7687    2.5904 H   0  0  0  0  0  0  0  0  0  0  0  0
    2.2570    2.8805    2.0185 H   0  0  0  0  0  0  0  0  0  0  0  0
   -0.6593   -2.4969    1.7306 H   0  0  0  0  0  0  0  0  0  0  0  0
   -2.5724   -3.1976    0.4059 H   0  0  0  0  0  0  0  0  0  0  0  0
  1  2  1  0
  2  3  1  0
  3  4  2  0
  3  5  1  0
  5  6  2  0
  5  7  1  0
  7  8  1  0
  7  9  1  0
  9 10  2  0
 10 11  1  0
 11 12  1  0
 12 13  2  0
 12 14  2  0
 12 15  1  0
 15 16  1  0
 16 17  1  0
 17 18  1  0
 18 19  2  0
 19 20  1  0
 20 21  2  0
 21 22  1  0
 22 23  2  0
 11 24  2  0
 24 25  1  0
 25 26  2  0
 26  2  1  0
 26  9  1  0
 23 15  1  0
 23 18  1  0
  1 27  1  0
  1 28  1  0
  1 29  1  0
  8 30  1  0
  8 31  1  0
  8 32  1  0
 10 33  1  0
 16 34  1  0
 16 35  1  0
 17 36  1  0
 17 37  1  0
 19 38  1  0
 20 39  1  0
 21 40  1  0
 22 41  1  0
 24 42  1  0
 25 43  1  0
M  END
$$$$
