
     RDKit          3D

 56 60  0  0  0  0  0  0  0  0999 V2000
   -0.8321   -1.2395   -2.1542 C   0  0  0  0  0  0  0  0  0  0  0  0
   -0.7538   -0.9923   -0.8387 C   0  0  0  0  0  0  0  0  0  0  0  0
    0.4892   -0.8968   -0.0407 C   0  0  0  0  0  0  0  0  0  0  0  0
    1.7474   -1.0532   -0.4897 C   0  0  0  0  0  0  0  0  0  0  0  0
    2.9852   -0.9437    0.2740 C   0  0  0  0  0  0  0  0  0  0  0  0
    3.2979   -1.7183    1.3193 C   0  0  0  0  0  0  0  0  0  0  0  0
    2.4719   -2.7066    1.7853 O   0  0  0  0  0  0  0  0  0  0  0  0
    4.4682   -1.5814    1.9777 N   0  0  0  0  0  0  0  0  0  0  0  0
    5.4507   -0.6899    1.6492 C   0  0  0  0  0  0  0  0  0  0  0  0
    6.4759   -0.7355    2.3302 O   0  0  0  0  0  0  0  0  0  0  0  0
    5.2064    0.1370    0.5526 N   0  0  0  0  0  0  0  0  0  0  0  0
    6.2203    1.0949    0.1568 C   0  0  0  0  0  0  0  0  0  0  0  0
    6.4248    1.4361   -1.1925 C   0  0  0  0  0  0  0  0  0  0  0  0
    7.4061    2.3608   -1.5745 C   0  0  0  0  0  0  0  0  0  0  0  0
    8.2040    2.9631   -0.6100 C   0  0  0  0  0  0  0  0  0  0  0  0
    9.4094    4.0968   -1.0757 Cl  0  0  0  0  0  0  0  0  0  0  0  0
    8.0276    2.6477    0.7313 C   0  0  0  0  0  0  0  0  0  0  0  0
    7.0451    1.7224    1.1085 C   0  0  0  0  0  0  0  0  0  0  0  0
    4.0128    0.0555   -0.1794 C   0  0  0  0  0  0  0  0  0  0  0  0
    3.7244    0.7647   -1.1471 O   0  0  0  0  0  0  0  0  0  0  0  0
    0.0991   -0.5785    1.3276 C   0  0  0  0  0  0  0  0  0  0  0  0
   -1.2461   -0.5023    1.3521 C   0  0  0  0  0  0  0  0  0  0  0  0
   -2.0689   -0.2410    2.5685 C   0  0  0  0  0  0  0  0  0  0  0  0
   -1.7983   -0.7463    0.0742 N   0  0  0  0  0  0  0  0  0  0  0  0
   -3.1343   -0.7420   -0.2231 C   0  0  0  0  0  0  0  0  0  0  0  0
   -3.9944   -2.2120   -0.5026 S   0  0  0  0  0  0  0  0  0  0  0  0
   -5.4605   -1.3948   -0.7536 C   0  0  0  0  0  0  0  0  0  0  0  0
   -5.3325   -0.0239   -0.6501 C   0  0  0  0  0  0  0  0  0  0  0  0
   -3.9827    0.3491   -0.3372 C   0  0  0  0  0  0  0  0  0  0  0  0
   -3.5385    1.7026   -0.1678 C   0  0  0  0  0  0  0  0  0  0  0  0
   -3.2230    2.8107   -0.0247 N   0  0  0  0  0  0  0  0  0  0  0  0
   -6.5073    0.8964   -0.8268 C   0  0  0  0  0  0  0  0  0  0  0  0
   -7.6907    0.1899   -1.5069 C   0  0  0  0  0  0  0  0  0  0  0  0
   -7.9413   -1.2013   -0.9084 C   0  0  0  0  0  0  0  0  0  0  0  0
   -6.7259   -2.1238   -1.0876 C   0  0  0  0  0  0  0  0  0  0  0  0
   -1.7890   -1.2773   -2.6622 H   0  0  0  0  0  0  0  0  0  0  0  0
    0.0432   -1.4047   -2.7698 H   0  0  0  0  0  0  0  0  0  0  0  0
    1.9195   -1.2312   -1.5488 H   0  0  0  0  0  0  0  0  0  0  0  0
    2.9469   -3.2188    2.4564 H   0  0  0  0  0  0  0  0  0  0  0  0
    4.7050   -2.1605    2.7714 H   0  0  0  0  0  0  0  0  0  0  0  0
    5.8476    0.9708   -1.9882 H   0  0  0  0  0  0  0  0  0  0  0  0
    7.5379    2.5980   -2.6270 H   0  0  0  0  0  0  0  0  0  0  0  0
    8.6432    3.1171    1.4942 H   0  0  0  0  0  0  0  0  0  0  0  0
    6.9256    1.5335    2.1729 H   0  0  0  0  0  0  0  0  0  0  0  0
    0.7630   -0.4437    2.1644 H   0  0  0  0  0  0  0  0  0  0  0  0
   -2.6096    0.7054    2.4801 H   0  0  0  0  0  0  0  0  0  0  0  0
   -1.4438   -0.1799    3.4659 H   0  0  0  0  0  0  0  0  0  0  0  0
   -2.7929   -1.0464    2.7273 H   0  0  0  0  0  0  0  0  0  0  0  0
   -6.2227    1.7731   -1.4195 H   0  0  0  0  0  0  0  0  0  0  0  0
   -6.8190    1.2544    0.1623 H   0  0  0  0  0  0  0  0  0  0  0  0
   -7.4888    0.0868   -2.5808 H   0  0  0  0  0  0  0  0  0  0  0  0
   -8.5902    0.8080   -1.4082 H   0  0  0  0  0  0  0  0  0  0  0  0
   -8.1683   -1.0957    0.1603 H   0  0  0  0  0  0  0  0  0  0  0  0
   -8.8192   -1.6589   -1.3781 H   0  0  0  0  0  0  0  0  0  0  0  0
   -6.8477   -3.0124   -0.4579 H   0  0  0  0  0  0  0  0  0  0  0  0
   -6.6766   -2.4599   -2.1307 H   0  0  0  0  0  0  0  0  0  0  0  0
  1  2  2  0
  2  3  1  0
  3  4  2  3
  4  5  1  0
  5  6  2  0
  6  7  1  0
  6  8  1  0
  8  9  1  0
  9 10  2  0
  9 11  1  0
 11 12  1  0
 12 13  2  0
 13 14  1  0
 14 15  2  0
 15 16  1  0
 15 17  1  0
 17 18  2  0
 11 19  1  0
 19 20  2  0
  3 21  1  0
 21 22  2  0
 22 23  1  0
 22 24  1  0
 24 25  1  0
 25 26  1  0
 26 27  1  0
 27 28  2  0
 28 29  1  0
 29 30  1  0
 30 31  3  0
 28 32  1  0
 32 33  1  0
 33 34  1  0
 34 35  1  0
 24  2  1  0
 29 25  2  0
 19  5  1  0
 35 27  1  0
 18 12  1  0
  1 36  1  0
  1 37  1  0
  4 38  1  0
  7 39  1  0
  8 40  1  0
 13 41  1  0
 14 42  1  0
 17 43  1  0
 18 44  1  0
 21 45  1  0
 23 46  1  0
 23 47  1  0
 23 48  1  0
 32 49  1  0
 32 50  1  0
 33 51  1  0
 33 52  1  0
 34 53  1  0
 34 54  1  0
 35 55  1  0
 35 56  1  0
M  END
$$$$
