
     RDKit          3D

 46 48  0  0  0  0  0  0  0  0999 V2000
   -0.2441    0.9478   -1.7944 O   0  0  0  0  0  0  0  0  0  0  0  0
   -0.1704    1.5029   -0.7031 C   0  0  0  0  0  0  0  0  0  0  0  0
    1.1270    2.1218   -0.2028 C   0  0  0  0  0  0  0  0  0  0  0  0
    2.3624    1.3374   -0.6576 C   0  0  0  0  0  0  0  0  0  0  0  0
    2.5453    0.0901    0.1071 N   0  0  0  0  0  0  0  0  0  0  0  0
    3.1608   -0.9402   -0.7368 C   0  0  0  0  0  0  0  0  0  0  0  0
    3.5387   -2.2441   -0.0334 C   0  0  0  0  0  0  0  0  0  0  0  0
    4.9361   -2.2107    0.5787 C   0  0  0  0  0  0  0  0  0  0  0  0
    5.0939   -1.2894    1.7816 C   0  0  0  0  0  0  0  0  0  0  0  0
    4.6571    0.1524    1.5470 C   0  0  0  0  0  0  0  0  0  0  0  0
    3.1407    0.3009    1.4259 C   0  0  0  0  0  0  0  0  0  0  0  0
   -1.2219    1.7233    0.1740 N   0  0  0  0  0  0  0  0  0  0  0  0
   -2.5527    1.2711    0.0534 C   0  0  0  0  0  0  0  0  0  0  0  0
   -3.4435    1.6440    1.0687 C   0  0  0  0  0  0  0  0  0  0  0  0
   -4.7788    1.2353    1.0332 C   0  0  0  0  0  0  0  0  0  0  0  0
   -5.2369    0.4576   -0.0214 C   0  0  0  0  0  0  0  0  0  0  0  0
   -4.3504    0.0574   -1.0240 C   0  0  0  0  0  0  0  0  0  0  0  0
   -3.0171    0.4733   -0.9968 C   0  0  0  0  0  0  0  0  0  0  0  0
   -4.7234   -0.7424   -2.0774 O   0  0  0  0  0  0  0  0  0  0  0  0
   -5.9648   -1.4014   -1.8127 C   0  0  0  0  0  0  0  0  0  0  0  0
   -6.9865   -0.4181   -1.2641 C   0  0  0  0  0  0  0  0  0  0  0  0
   -6.5620    0.1079   -0.0030 O   0  0  0  0  0  0  0  0  0  0  0  0
    1.1068    2.2319    0.8861 H   0  0  0  0  0  0  0  0  0  0  0  0
    1.1705    3.1323   -0.6256 H   0  0  0  0  0  0  0  0  0  0  0  0
    2.2591    1.1204   -1.7287 H   0  0  0  0  0  0  0  0  0  0  0  0
    3.2574    1.9646   -0.5643 H   0  0  0  0  0  0  0  0  0  0  0  0
    2.4326   -1.1998   -1.5169 H   0  0  0  0  0  0  0  0  0  0  0  0
    4.0391   -0.5391   -1.2583 H   0  0  0  0  0  0  0  0  0  0  0  0
    2.7895   -2.5248    0.7157 H   0  0  0  0  0  0  0  0  0  0  0  0
    3.5289   -3.0431   -0.7873 H   0  0  0  0  0  0  0  0  0  0  0  0
    5.2031   -3.2284    0.8905 H   0  0  0  0  0  0  0  0  0  0  0  0
    5.6645   -1.9266   -0.1916 H   0  0  0  0  0  0  0  0  0  0  0  0
    4.5431   -1.7043    2.6321 H   0  0  0  0  0  0  0  0  0  0  0  0
    6.1518   -1.2914    2.0750 H   0  0  0  0  0  0  0  0  0  0  0  0
    5.1692    0.5836    0.6799 H   0  0  0  0  0  0  0  0  0  0  0  0
    4.9855    0.7402    2.4129 H   0  0  0  0  0  0  0  0  0  0  0  0
    2.6584   -0.3887    2.1268 H   0  0  0  0  0  0  0  0  0  0  0  0
    2.8746    1.2909    1.8004 H   0  0  0  0  0  0  0  0  0  0  0  0
   -1.0122    2.2546    1.0090 H   0  0  0  0  0  0  0  0  0  0  0  0
   -3.1115    2.2605    1.9019 H   0  0  0  0  0  0  0  0  0  0  0  0
   -5.4594    1.5232    1.8279 H   0  0  0  0  0  0  0  0  0  0  0  0
   -2.3642    0.1401   -1.7967 H   0  0  0  0  0  0  0  0  0  0  0  0
   -6.3208   -1.8284   -2.7542 H   0  0  0  0  0  0  0  0  0  0  0  0
   -5.7815   -2.2262   -1.1154 H   0  0  0  0  0  0  0  0  0  0  0  0
   -7.9467   -0.9200   -1.1074 H   0  0  0  0  0  0  0  0  0  0  0  0
   -7.1476    0.4209   -1.9545 H   0  0  0  0  0  0  0  0  0  0  0  0
  1  2  2  0
  2  3  1  0
  3  4  1  0
  4  5  1  0
  5  6  1  0
  6  7  1  0
  7  8  1  0
  8  9  1  0
  9 10  1  0
 10 11  1  0
  2 12  1  0
 12 13  1  0
 13 14  2  0
 14 15  1  0
 15 16  2  0
 16 17  1  0
 17 18  2  0
 17 19  1  0
 19 20  1  0
 20 21  1  0
 21 22  1  0
 11  5  1  0
 18 13  1  0
 22 16  1  0
  3 23  1  0
  3 24  1  0
  4 25  1  0
  4 26  1  0
  6 27  1  0
  6 28  1  0
  7 29  1  0
  7 30  1  0
  8 31  1  0
  8 32  1  0
  9 33  1  0
  9 34  1  0
 10 35  1  0
 10 36  1  0
 11 37  1  0
 11 38  1  0
 12 39  1  0
 14 40  1  0
 15 41  1  0
 18 42  1  0
 20 43  1  0
 20 44  1  0
 21 45  1  0
 21 46  1  0
M  END
$$$$
