
     RDKit          3D

 55 57  0  0  0  0  0  0  0  0999 V2000
    2.9956   -0.5431    1.9203 C   0  0  0  0  0  0  0  0  0  0  0  0
    3.1707    0.4328    0.7518 C   0  0  0  0  0  0  0  0  0  0  0  0
    4.3848    1.3336    1.0007 C   0  0  0  0  0  0  0  0  0  0  0  0
    1.9083    1.2722    0.4499 C   0  0  0  0  0  0  0  0  0  0  0  0
    1.5118    2.0527    1.6417 N   0  0  0  0  0  0  0  0  0  0  0  0
    0.9465    3.6196    1.4547 S   0  0  0  0  0  6  0  0  0  0  0  0
    1.9190    4.3473    0.6712 O   0  0  0  0  0  0  0  0  0  0  0  0
    0.5273    4.0652    2.7637 O   0  0  0  0  0  0  0  0  0  0  0  0
   -0.5097    3.4050    0.4635 C   0  0  0  0  0  0  0  0  0  0  0  0
   -0.4609    3.6457   -0.9140 C   0  0  0  0  0  0  0  0  0  0  0  0
   -1.6101    3.4609   -1.6840 C   0  0  0  0  0  0  0  0  0  0  0  0
   -2.7967    3.0532   -1.0754 C   0  0  0  0  0  0  0  0  0  0  0  0
   -2.8352    2.8071    0.3020 C   0  0  0  0  0  0  0  0  0  0  0  0
   -1.6988    3.0064    1.0811 C   0  0  0  0  0  0  0  0  0  0  0  0
   -3.9563    2.3660    0.9554 O   0  0  0  0  0  0  0  0  0  0  0  0
   -4.9588    1.9066    0.0405 C   0  0  0  0  0  0  0  0  0  0  0  0
   -5.1019    2.8631   -1.1316 C   0  0  0  0  0  0  0  0  0  0  0  0
   -3.8885    2.9077   -1.8917 O   0  0  0  0  0  0  0  0  0  0  0  0
    0.7932    0.3681   -0.0673 C   0  0  0  0  0  0  0  0  0  0  0  0
    0.7786   -0.1444   -1.1801 O   0  0  0  0  0  0  0  0  0  0  0  0
   -0.1626    0.1486    0.8788 O   0  0  0  0  0  0  0  0  0  0  0  0
   -1.2476   -0.6843    0.4627 C   0  0  0  0  0  0  0  0  0  0  0  0
   -0.9363   -2.1755    0.6177 C   0  0  0  0  0  0  0  0  0  0  0  0
   -1.3920   -2.8098    1.5647 O   0  0  0  0  0  0  0  0  0  0  0  0
   -0.1188   -2.6720   -0.3820 N   0  0  0  0  0  0  0  0  0  0  0  0
    0.3745   -3.9939   -0.5352 C   0  0  0  0  0  0  0  0  0  0  0  0
    0.0392   -5.0313    0.3421 C   0  0  0  0  0  0  0  0  0  0  0  0
    0.5518   -6.3188    0.1602 C   0  0  0  0  0  0  0  0  0  0  0  0
    1.4080   -6.5883   -0.9034 C   0  0  0  0  0  0  0  0  0  0  0  0
    1.7537   -5.5705   -1.7930 C   0  0  0  0  0  0  0  0  0  0  0  0
    2.8232   -5.9809   -3.0896 Cl  0  0  0  0  0  0  0  0  0  0  0  0
    1.2414   -4.2752   -1.6155 C   0  0  0  0  0  0  0  0  0  0  0  0
    1.6681   -3.0006   -2.7196 Cl  0  0  0  0  0  0  0  0  0  0  0  0
    3.8996   -1.1485    2.0510 H   0  0  0  0  0  0  0  0  0  0  0  0
    2.8106   -0.0197    2.8639 H   0  0  0  0  0  0  0  0  0  0  0  0
    2.1650   -1.2333    1.7429 H   0  0  0  0  0  0  0  0  0  0  0  0
    3.3941   -0.1710   -0.1386 H   0  0  0  0  0  0  0  0  0  0  0  0
    4.5422    2.0160    0.1587 H   0  0  0  0  0  0  0  0  0  0  0  0
    5.2936    0.7332    1.1158 H   0  0  0  0  0  0  0  0  0  0  0  0
    4.2634    1.9342    1.9080 H   0  0  0  0  0  0  0  0  0  0  0  0
    2.1428    1.9633   -0.3695 H   0  0  0  0  0  0  0  0  0  0  0  0
    1.0660    1.5456    2.4077 H   0  0  0  0  0  0  0  0  0  0  0  0
    0.4578    3.9790   -1.3929 H   0  0  0  0  0  0  0  0  0  0  0  0
   -1.5861    3.6486   -2.7547 H   0  0  0  0  0  0  0  0  0  0  0  0
   -1.7417    2.8336    2.1538 H   0  0  0  0  0  0  0  0  0  0  0  0
   -5.9026    1.8370    0.5902 H   0  0  0  0  0  0  0  0  0  0  0  0
   -4.6832    0.8994   -0.2963 H   0  0  0  0  0  0  0  0  0  0  0  0
   -5.3426    3.8794   -0.7953 H   0  0  0  0  0  0  0  0  0  0  0  0
   -5.9005    2.5267   -1.8001 H   0  0  0  0  0  0  0  0  0  0  0  0
   -2.1040   -0.4495    1.1044 H   0  0  0  0  0  0  0  0  0  0  0  0
   -1.5628   -0.4636   -0.5644 H   0  0  0  0  0  0  0  0  0  0  0  0
    0.2127   -2.0023   -1.0831 H   0  0  0  0  0  0  0  0  0  0  0  0
   -0.6255   -4.8762    1.1871 H   0  0  0  0  0  0  0  0  0  0  0  0
    0.2786   -7.1109    0.8545 H   0  0  0  0  0  0  0  0  0  0  0  0
    1.8009   -7.5941   -1.0342 H   0  0  0  0  0  0  0  0  0  0  0  0
  1  2  1  0
  2  3  1  0
  2  4  1  0
  4  5  1  0
  5  6  1  0
  6  7  2  0
  6  8  2  0
  6  9  1  0
  9 10  2  0
 10 11  1  0
 11 12  2  0
 12 13  1  0
 13 14  2  0
 13 15  1  0
 15 16  1  0
 16 17  1  0
 17 18  1  0
  4 19  1  0
 19 20  2  0
 19 21  1  0
 21 22  1  0
 22 23  1  0
 23 24  2  0
 23 25  1  0
 25 26  1  0
 26 27  2  0
 27 28  1  0
 28 29  2  0
 29 30  1  0
 30 31  1  0
 30 32  2  0
 32 33  1  0
 14  9  1  0
 32 26  1  0
 18 12  1  0
  1 34  1  0
  1 35  1  0
  1 36  1  0
  2 37  1  0
  3 38  1  0
  3 39  1  0
  3 40  1  0
  4 41  1  0
  5 42  1  0
 10 43  1  0
 11 44  1  0
 14 45  1  0
 16 46  1  0
 16 47  1  0
 17 48  1  0
 17 49  1  0
 22 50  1  0
 22 51  1  0
 25 52  1  0
 27 53  1  0
 28 54  1  0
 29 55  1  0
M  END
$$$$
