
     RDKit          3D

 54 58  0  0  0  0  0  0  0  0999 V2000
    6.0651   -0.4750   -0.1117 C   0  0  0  0  0  0  0  0  0  0  0  0
    5.2661   -1.3391    0.8458 C   0  0  0  0  0  0  0  0  0  0  0  0
    4.0099   -1.8859    0.1939 C   0  0  0  0  0  0  0  0  0  0  0  0
    4.0449   -2.9996   -0.3352 O   0  0  0  0  0  0  0  0  0  0  0  0
    2.8516   -1.1098    0.2134 N   0  0  0  0  0  0  0  0  0  0  0  0
    1.7044   -1.6243   -0.5272 C   0  0  0  0  0  0  0  0  0  0  0  0
    0.3745   -1.1614    0.0644 C   0  0  0  0  0  0  0  0  0  0  0  0
    0.2968    0.3786    0.2069 C   0  0  0  0  0  0  0  0  0  0  0  0
    1.5211    0.8005    1.0639 C   0  0  0  0  0  0  0  0  0  0  0  0
    2.8430    0.3278    0.4644 C   0  0  0  0  0  0  0  0  0  0  0  0
    0.4190    0.9032   -1.1375 O   0  0  0  0  0  0  0  0  0  0  0  0
    0.1595    2.2354   -1.2905 C   0  0  0  0  0  0  0  0  0  0  0  0
    0.6314    2.8215   -2.4644 C   0  0  0  0  0  0  0  0  0  0  0  0
    0.4281    4.1841   -2.6954 C   0  0  0  0  0  0  0  0  0  0  0  0
   -0.2519    4.9557   -1.7527 C   0  0  0  0  0  0  0  0  0  0  0  0
   -0.4965    6.6329   -2.0417 Cl  0  0  0  0  0  0  0  0  0  0  0  0
   -0.7399    4.3757   -0.5846 C   0  0  0  0  0  0  0  0  0  0  0  0
   -0.5389    3.0092   -0.3648 C   0  0  0  0  0  0  0  0  0  0  0  0
   -1.0818    2.3588    0.8430 C   0  0  0  0  0  0  0  0  0  0  0  0
   -1.5608    3.0479    1.7372 O   0  0  0  0  0  0  0  0  0  0  0  0
   -1.0479    0.8344    0.8419 C   0  0  0  0  0  0  0  0  0  0  0  0
   -2.3137    0.3490    0.1438 C   0  0  0  0  0  0  0  0  0  0  0  0
   -2.7190   -0.7195    1.0980 C   0  0  0  0  0  0  0  0  0  0  0  0
   -3.7825   -1.6998    0.7770 C   0  0  0  0  0  0  0  0  0  0  0  0
   -4.5421   -1.5989   -0.3948 C   0  0  0  0  0  0  0  0  0  0  0  0
   -5.5361   -2.5449   -0.6678 C   0  0  0  0  0  0  0  0  0  0  0  0
   -5.7715   -3.5872    0.2278 C   0  0  0  0  0  0  0  0  0  0  0  0
   -6.9945   -4.7468   -0.1142 Cl  0  0  0  0  0  0  0  0  0  0  0  0
   -5.0230   -3.6930    1.3975 C   0  0  0  0  0  0  0  0  0  0  0  0
   -4.0297   -2.7492    1.6728 C   0  0  0  0  0  0  0  0  0  0  0  0
   -2.0731   -0.7193    2.2189 N   0  0  0  0  0  0  0  0  0  0  0  0
   -1.1592    0.3582    2.1868 O   0  0  0  0  0  0  0  0  0  0  0  0
    6.9950   -0.1446    0.3614 H   0  0  0  0  0  0  0  0  0  0  0  0
    5.5090    0.4137   -0.4225 H   0  0  0  0  0  0  0  0  0  0  0  0
    6.3230   -1.0343   -1.0173 H   0  0  0  0  0  0  0  0  0  0  0  0
    5.8762   -2.1972    1.1541 H   0  0  0  0  0  0  0  0  0  0  0  0
    5.0247   -0.8053    1.7692 H   0  0  0  0  0  0  0  0  0  0  0  0
    1.7182   -2.7199   -0.5390 H   0  0  0  0  0  0  0  0  0  0  0  0
    1.8087   -1.2929   -1.5675 H   0  0  0  0  0  0  0  0  0  0  0  0
    0.2455   -1.6385    1.0434 H   0  0  0  0  0  0  0  0  0  0  0  0
   -0.4194   -1.5321   -0.5936 H   0  0  0  0  0  0  0  0  0  0  0  0
    1.5783    1.8890    1.1725 H   0  0  0  0  0  0  0  0  0  0  0  0
    1.4254    0.3847    2.0752 H   0  0  0  0  0  0  0  0  0  0  0  0
    3.0363    0.8272   -0.4924 H   0  0  0  0  0  0  0  0  0  0  0  0
    3.6499    0.6149    1.1410 H   0  0  0  0  0  0  0  0  0  0  0  0
    1.1677    2.2228   -3.1975 H   0  0  0  0  0  0  0  0  0  0  0  0
    0.8044    4.6380   -3.6095 H   0  0  0  0  0  0  0  0  0  0  0  0
   -1.2786    4.9772    0.1448 H   0  0  0  0  0  0  0  0  0  0  0  0
   -3.1058    1.1057    0.1122 H   0  0  0  0  0  0  0  0  0  0  0  0
   -2.1400   -0.0301   -0.8657 H   0  0  0  0  0  0  0  0  0  0  0  0
   -4.3887   -0.7932   -1.1066 H   0  0  0  0  0  0  0  0  0  0  0  0
   -6.1252   -2.4620   -1.5780 H   0  0  0  0  0  0  0  0  0  0  0  0
   -5.2057   -4.5025    2.0997 H   0  0  0  0  0  0  0  0  0  0  0  0
   -3.4522   -2.8396    2.5916 H   0  0  0  0  0  0  0  0  0  0  0  0
  1  2  1  0
  2  3  1  0
  3  4  2  0
  3  5  1  0
  5  6  1  0
  6  7  1  0
  7  8  1  0
  8  9  1  0
  9 10  1  0
  8 11  1  0
 11 12  1  0
 12 13  2  0
 13 14  1  0
 14 15  2  0
 15 16  1  0
 15 17  1  0
 17 18  2  0
 18 19  1  0
 19 20  2  0
 19 21  1  0
 21 22  1  0
 22 23  1  0
 23 24  1  0
 24 25  2  0
 25 26  1  0
 26 27  2  0
 27 28  1  0
 27 29  1  0
 29 30  2  0
 23 31  2  0
 31 32  1  0
 10  5  1  0
 18 12  1  0
 32 21  1  0
 21  8  1  0
 30 24  1  0
  1 33  1  0
  1 34  1  0
  1 35  1  0
  2 36  1  0
  2 37  1  0
  6 38  1  0
  6 39  1  0
  7 40  1  0
  7 41  1  0
  9 42  1  0
  9 43  1  0
 10 44  1  0
 10 45  1  0
 13 46  1  0
 14 47  1  0
 17 48  1  0
 22 49  1  0
 22 50  1  0
 25 51  1  0
 26 52  1  0
 29 53  1  0
 30 54  1  0
M  END
$$$$
