
     RDKit          3D

 36 37  0  0  0  0  0  0  0  0999 V2000
    3.6392   -3.1547    1.2834 C   0  0  0  0  0  0  0  0  0  0  0  0
    3.4566   -2.7266   -0.0605 O   0  0  0  0  0  0  0  0  0  0  0  0
    2.9167   -1.4841   -0.2474 C   0  0  0  0  0  0  0  0  0  0  0  0
    2.4778   -0.6209    0.7593 C   0  0  0  0  0  0  0  0  0  0  0  0
    1.9375    0.6261    0.4290 C   0  0  0  0  0  0  0  0  0  0  0  0
    1.8290    1.0024   -0.9132 C   0  0  0  0  0  0  0  0  0  0  0  0
    1.1528    2.5926   -1.3320 S   0  0  0  0  0  6  0  0  0  0  0  0
    1.1515    3.4094   -0.1360 O   0  0  0  0  0  0  0  0  0  0  0  0
    1.7922    3.0387   -2.5527 O   0  0  0  0  0  0  0  0  0  0  0  0
   -0.4776    2.2292   -1.7418 N   0  0  0  0  0  0  0  0  0  0  0  0
   -1.1159    1.0503   -1.0971 N   0  0  0  0  0  0  0  0  0  0  0  0
   -1.9822    1.3057   -0.1593 C   0  0  0  0  0  0  0  0  0  0  0  0
   -2.3787    2.7092    0.2495 C   0  0  0  0  0  0  0  0  0  0  0  0
   -2.6272    0.1501    0.5326 C   0  0  0  0  0  0  0  0  0  0  0  0
   -3.8989    0.2494    1.0947 C   0  0  0  0  0  0  0  0  0  0  0  0
   -4.4238   -0.8724    1.7135 C   0  0  0  0  0  0  0  0  0  0  0  0
   -3.7781   -2.0545    1.7995 N   0  0  0  0  0  0  0  0  0  0  0  0
   -2.5552   -2.1277    1.2334 C   0  0  0  0  0  0  0  0  0  0  0  0
   -1.9432   -1.0661    0.5935 C   0  0  0  0  0  0  0  0  0  0  0  0
    2.2802    0.1550   -1.9261 C   0  0  0  0  0  0  0  0  0  0  0  0
    2.8161   -1.0888   -1.5863 C   0  0  0  0  0  0  0  0  0  0  0  0
    2.6787   -3.2461    1.8012 H   0  0  0  0  0  0  0  0  0  0  0  0
    4.0995   -4.1472    1.2584 H   0  0  0  0  0  0  0  0  0  0  0  0
    4.3181   -2.4860    1.8228 H   0  0  0  0  0  0  0  0  0  0  0  0
    2.5435   -0.8858    1.8096 H   0  0  0  0  0  0  0  0  0  0  0  0
    1.6003    1.2927    1.2199 H   0  0  0  0  0  0  0  0  0  0  0  0
   -0.5459    2.2376   -2.7647 H   0  0  0  0  0  0  0  0  0  0  0  0
   -1.4968    3.3470    0.3399 H   0  0  0  0  0  0  0  0  0  0  0  0
   -3.0479    3.1275   -0.5076 H   0  0  0  0  0  0  0  0  0  0  0  0
   -2.8777    2.7276    1.2211 H   0  0  0  0  0  0  0  0  0  0  0  0
   -4.4894    1.1563    1.0477 H   0  0  0  0  0  0  0  0  0  0  0  0
   -5.4111   -0.8522    2.1671 H   0  0  0  0  0  0  0  0  0  0  0  0
   -2.0649   -3.0943    1.3097 H   0  0  0  0  0  0  0  0  0  0  0  0
   -0.9571   -1.1907    0.1578 H   0  0  0  0  0  0  0  0  0  0  0  0
    2.2175    0.4484   -2.9709 H   0  0  0  0  0  0  0  0  0  0  0  0
    3.1644   -1.7572   -2.3708 H   0  0  0  0  0  0  0  0  0  0  0  0
  1  2  1  0
  2  3  1  0
  3  4  2  0
  4  5  1  0
  5  6  2  0
  6  7  1  0
  7  8  2  0
  7  9  2  0
  7 10  1  0
 10 11  1  0
 11 12  2  3
 12 13  1  0
 12 14  1  0
 14 15  2  0
 15 16  1  0
 16 17  2  0
 17 18  1  0
 18 19  2  0
  6 20  1  0
 20 21  2  0
 21  3  1  0
 19 14  1  0
  1 22  1  0
  1 23  1  0
  1 24  1  0
  4 25  1  0
  5 26  1  0
 10 27  1  0
 13 28  1  0
 13 29  1  0
 13 30  1  0
 15 31  1  0
 16 32  1  0
 18 33  1  0
 19 34  1  0
 20 35  1  0
 21 36  1  0
M  END
$$$$
