
     RDKit          3D

 36 38  0  0  0  0  0  0  0  0999 V2000
   -6.8495    1.1283    0.1687 C   0  0  0  0  0  0  0  0  0  0  0  0
   -5.4559    0.5898    0.3144 C   0  0  0  0  0  0  0  0  0  0  0  0
   -4.4085    1.4459    0.6833 C   0  0  0  0  0  0  0  0  0  0  0  0
   -3.1147    0.9506    0.8519 C   0  0  0  0  0  0  0  0  0  0  0  0
   -2.8696   -0.4087    0.6472 C   0  0  0  0  0  0  0  0  0  0  0  0
   -1.2256   -1.0519    0.8450 S   0  0  0  0  0  6  0  0  0  0  0  0
   -0.4511   -0.0789    1.5885 O   0  0  0  0  0  0  0  0  0  0  0  0
   -1.3392   -2.4280    1.2689 O   0  0  0  0  0  0  0  0  0  0  0  0
   -0.6784   -1.0161   -0.7755 N   0  0  0  0  0  0  0  0  0  0  0  0
    0.7397   -0.4978   -0.9170 N   0  0  0  0  0  0  0  0  0  0  0  0
    1.8033   -1.2901   -0.5150 C   0  0  0  0  0  0  0  0  0  0  0  0
    1.7552   -2.4489   -0.1291 O   0  0  0  0  0  0  0  0  0  0  0  0
    3.0649   -0.5012   -0.6392 C   0  0  0  0  0  0  0  0  0  0  0  0
    4.2379   -1.0441   -0.2838 C   0  0  0  0  0  0  0  0  0  0  0  0
    5.5036   -0.3913   -0.3435 C   0  0  0  0  0  0  0  0  0  0  0  0
    6.0623    0.4409   -1.2997 C   0  0  0  0  0  0  0  0  0  0  0  0
    7.3795    0.8742   -0.9670 C   0  0  0  0  0  0  0  0  0  0  0  0
    7.8059    0.3480    0.2289 C   0  0  0  0  0  0  0  0  0  0  0  0
    6.6306   -0.6677    0.9352 S   0  0  0  0  0  0  0  0  0  0  0  0
    2.7221    1.0899   -1.2153 S   0  0  0  0  0  0  0  0  0  0  0  0
    0.9940    0.8002   -1.2993 C   0  0  0  0  0  0  0  0  0  0  0  0
   -0.1254    1.9284   -1.8043 S   0  0  0  0  0  0  0  0  0  0  0  0
   -3.9073   -1.2795    0.3056 C   0  0  0  0  0  0  0  0  0  0  0  0
   -5.1988   -0.7770    0.1414 C   0  0  0  0  0  0  0  0  0  0  0  0
   -7.4705    0.4606   -0.4378 H   0  0  0  0  0  0  0  0  0  0  0  0
   -7.3133    1.2386    1.1534 H   0  0  0  0  0  0  0  0  0  0  0  0
   -6.8347    2.1022   -0.3314 H   0  0  0  0  0  0  0  0  0  0  0  0
   -4.5989    2.5053    0.8468 H   0  0  0  0  0  0  0  0  0  0  0  0
   -2.3157    1.6289    1.1439 H   0  0  0  0  0  0  0  0  0  0  0  0
   -1.3461   -0.5542   -1.3998 H   0  0  0  0  0  0  0  0  0  0  0  0
    4.2361   -2.0582    0.1185 H   0  0  0  0  0  0  0  0  0  0  0  0
    5.5577    0.7298   -2.2135 H   0  0  0  0  0  0  0  0  0  0  0  0
    7.9834    1.5329   -1.5786 H   0  0  0  0  0  0  0  0  0  0  0  0
    8.7566    0.5031    0.7200 H   0  0  0  0  0  0  0  0  0  0  0  0
   -3.7228   -2.3443    0.1744 H   0  0  0  0  0  0  0  0  0  0  0  0
   -6.0066   -1.4596   -0.1170 H   0  0  0  0  0  0  0  0  0  0  0  0
  1  2  1  0
  2  3  2  0
  3  4  1  0
  4  5  2  0
  5  6  1  0
  6  7  2  0
  6  8  2  0
  6  9  1  0
  9 10  1  0
 10 11  1  0
 11 12  2  0
 11 13  1  0
 13 14  2  3
 14 15  1  0
 15 16  2  0
 16 17  1  0
 17 18  2  0
 18 19  1  0
 13 20  1  0
 20 21  1  0
 21 22  2  0
  5 23  1  0
 23 24  2  0
 24  2  1  0
 21 10  1  0
 19 15  1  0
  1 25  1  0
  1 26  1  0
  1 27  1  0
  3 28  1  0
  4 29  1  0
  9 30  1  0
 14 31  1  0
 16 32  1  0
 17 33  1  0
 18 34  1  0
 23 35  1  0
 24 36  1  0
M  END
$$$$
