
     RDKit          3D

 47 50  0  0  0  0  0  0  0  0999 V2000
   -0.5009    2.8386   -2.3336 C   0  0  0  0  0  0  0  0  0  0  0  0
   -0.4575    1.3469   -1.9505 C   0  0  0  0  0  0  0  0  0  0  0  0
   -0.7972    0.5231   -3.2095 C   0  0  0  0  0  0  0  0  0  0  0  0
   -1.5128    1.0879   -0.8286 C   0  0  0  0  0  0  0  0  0  0  0  0
   -1.2510   -0.2007   -0.1202 C   0  0  0  0  0  0  0  0  0  0  0  0
   -0.0610   -0.9034   -0.1987 C   0  0  0  0  0  0  0  0  0  0  0  0
   -0.3024   -2.0889    0.5028 C   0  0  0  0  0  0  0  0  0  0  0  0
   -1.5285   -2.1322    1.0168 N   0  0  0  0  0  0  0  0  0  0  0  0
   -2.1086   -0.9412    0.6844 N   0  0  0  0  0  0  0  0  0  0  0  0
   -3.4196   -0.6539    1.1815 C   0  0  0  0  0  0  0  0  0  0  0  0
   -3.9966    0.6208    1.1088 C   0  0  0  0  0  0  0  0  0  0  0  0
   -5.2834    0.8442    1.6141 C   0  0  0  0  0  0  0  0  0  0  0  0
   -5.9908   -0.1985    2.1981 C   0  0  0  0  0  0  0  0  0  0  0  0
   -7.2201    0.0254    2.6798 F   0  0  0  0  0  0  0  0  0  0  0  0
   -5.4351   -1.4649    2.2958 C   0  0  0  0  0  0  0  0  0  0  0  0
   -4.1511   -1.6922    1.7937 C   0  0  0  0  0  0  0  0  0  0  0  0
    1.1330   -0.4641   -0.9735 C   0  0  0  0  0  0  0  0  0  0  0  0
    2.3004   -0.6093   -0.1345 N   0  0  0  0  0  0  0  0  0  0  0  0
    3.5753   -0.6782   -0.6512 C   0  0  0  0  0  0  0  0  0  0  0  0
    3.8288   -0.7349   -1.8482 O   0  0  0  0  0  0  0  0  0  0  0  0
    4.6558   -0.6666    0.3735 C   0  0  0  0  0  0  0  0  0  0  0  0
    5.9836   -0.7688   -0.0119 C   0  0  0  0  0  0  0  0  0  0  0  0
    6.9992   -0.7592    0.8898 N   0  0  0  0  0  0  0  0  0  0  0  0
    6.6231   -0.6440    2.1850 C   0  0  0  0  0  0  0  0  0  0  0  0
    5.2940   -0.5402    2.5693 C   0  0  0  0  0  0  0  0  0  0  0  0
    4.2739   -0.5462    1.6796 N   0  0  0  0  0  0  0  0  0  0  0  0
    0.9727    1.0022   -1.4402 C   0  0  0  0  0  0  0  0  0  0  0  0
   -0.2507    3.4758   -1.4779 H   0  0  0  0  0  0  0  0  0  0  0  0
   -1.4983    3.1277   -2.6833 H   0  0  0  0  0  0  0  0  0  0  0  0
    0.2131    3.0625   -3.1341 H   0  0  0  0  0  0  0  0  0  0  0  0
   -0.8423   -0.5511   -3.0061 H   0  0  0  0  0  0  0  0  0  0  0  0
   -1.7710    0.8163   -3.6184 H   0  0  0  0  0  0  0  0  0  0  0  0
   -0.0483    0.6806   -3.9938 H   0  0  0  0  0  0  0  0  0  0  0  0
   -1.4550    1.8983   -0.0911 H   0  0  0  0  0  0  0  0  0  0  0  0
   -2.5148    1.0945   -1.2718 H   0  0  0  0  0  0  0  0  0  0  0  0
    0.3605   -2.9322    0.6518 H   0  0  0  0  0  0  0  0  0  0  0  0
   -3.4762    1.4778    0.7035 H   0  0  0  0  0  0  0  0  0  0  0  0
   -5.7338    1.8310    1.5635 H   0  0  0  0  0  0  0  0  0  0  0  0
   -5.9976   -2.2683    2.7605 H   0  0  0  0  0  0  0  0  0  0  0  0
   -3.7341   -2.6951    1.8792 H   0  0  0  0  0  0  0  0  0  0  0  0
    1.2526   -1.1117   -1.8509 H   0  0  0  0  0  0  0  0  0  0  0  0
    2.2270   -0.4528    0.8679 H   0  0  0  0  0  0  0  0  0  0  0  0
    6.2727   -0.8616   -1.0534 H   0  0  0  0  0  0  0  0  0  0  0  0
    7.4263   -0.6372    2.9138 H   0  0  0  0  0  0  0  0  0  0  0  0
    5.0158   -0.4490    3.6137 H   0  0  0  0  0  0  0  0  0  0  0  0
    1.7179    1.2183   -2.2171 H   0  0  0  0  0  0  0  0  0  0  0  0
    1.2130    1.6744   -0.6029 H   0  0  0  0  0  0  0  0  0  0  0  0
  1  2  1  0
  2  3  1  0
  2  4  1  0
  4  5  1  0
  5  6  2  0
  6  7  1  0
  7  8  2  0
  8  9  1  0
  9 10  1  0
 10 11  2  0
 11 12  1  0
 12 13  2  0
 13 14  1  0
 13 15  1  0
 15 16  2  0
  6 17  1  0
 17 18  1  0
 18 19  1  0
 19 20  2  0
 19 21  1  0
 21 22  2  0
 22 23  1  0
 23 24  2  0
 24 25  1  0
 25 26  2  0
 17 27  1  0
 27  2  1  0
  9  5  1  0
 16 10  1  0
 26 21  1  0
  1 28  1  0
  1 29  1  0
  1 30  1  0
  3 31  1  0
  3 32  1  0
  3 33  1  0
  4 34  1  0
  4 35  1  0
  7 36  1  0
 11 37  1  0
 12 38  1  0
 15 39  1  0
 16 40  1  0
 17 41  1  0
 18 42  1  0
 22 43  1  0
 24 44  1  0
 25 45  1  0
 27 46  1  0
 27 47  1  0
M  END
$$$$
