
     RDKit          3D

 53 58  0  0  0  0  0  0  0  0999 V2000
    1.1119   -1.8345    0.5678 C   0  0  0  0  0  0  0  0  0  0  0  0
    0.4570   -0.6054   -0.0879 C   0  0  0  0  0  0  0  0  0  0  0  0
    1.1565   -0.2377   -1.4104 C   0  0  0  0  0  0  0  0  0  0  0  0
    0.6451   -0.4363   -2.5162 O   0  0  0  0  0  0  0  0  0  0  0  0
    2.4478    0.1994   -1.4136 N   0  0  0  0  0  0  0  0  0  0  0  0
    3.3247    0.4848   -0.3595 C   0  0  0  0  0  0  0  0  0  0  0  0
    4.6904    0.4317   -0.7038 C   0  0  0  0  0  0  0  0  0  0  0  0
    5.6858    0.6489    0.2485 C   0  0  0  0  0  0  0  0  0  0  0  0
    5.3221    0.9401    1.5510 C   0  0  0  0  0  0  0  0  0  0  0  0
    6.2710    1.1504    2.4712 F   0  0  0  0  0  0  0  0  0  0  0  0
    3.9849    1.0361    1.9076 C   0  0  0  0  0  0  0  0  0  0  0  0
    2.9679    0.8184    0.9557 C   0  0  0  0  0  0  0  0  0  0  0  0
    1.5914    1.1198    1.4220 C   0  0  0  0  0  0  0  0  0  0  0  0
    1.4708    1.9001    2.3667 O   0  0  0  0  0  0  0  0  0  0  0  0
    0.4887    0.5767    0.7967 N   0  0  0  0  0  0  0  0  0  0  0  0
   -0.8505    0.9760    1.2371 C   0  0  0  0  0  0  0  0  0  0  0  0
   -1.4039    2.2108    0.5673 C   0  0  0  0  0  0  0  0  0  0  0  0
   -0.6282    3.2279   -0.0010 C   0  0  0  0  0  0  0  0  0  0  0  0
   -1.2438    4.3731   -0.5118 C   0  0  0  0  0  0  0  0  0  0  0  0
   -0.2812    5.6128   -1.2192 Cl  0  0  0  0  0  0  0  0  0  0  0  0
   -2.6283    4.5299   -0.4437 C   0  0  0  0  0  0  0  0  0  0  0  0
   -3.4086    3.5298    0.1339 C   0  0  0  0  0  0  0  0  0  0  0  0
   -2.7940    2.3771    0.6137 C   0  0  0  0  0  0  0  0  0  0  0  0
   -3.5819    1.4139    1.1878 O   0  0  0  0  0  0  0  0  0  0  0  0
   -3.2131    0.1145    0.7141 C   0  0  0  0  0  0  0  0  0  0  0  0
   -1.7361   -0.2297    0.9287 C   0  0  0  0  0  0  0  0  0  0  0  0
   -1.0805   -0.8252   -0.3402 C   0  0  0  0  0  0  0  0  0  0  0  0
   -1.5483   -2.2261   -0.7094 C   0  0  0  0  0  0  0  0  0  0  0  0
   -1.6768   -2.5634   -2.0672 C   0  0  0  0  0  0  0  0  0  0  0  0
   -2.1035   -3.8339   -2.4596 C   0  0  0  0  0  0  0  0  0  0  0  0
   -2.4109   -4.7927   -1.5003 C   0  0  0  0  0  0  0  0  0  0  0  0
   -2.2898   -4.4802   -0.1499 C   0  0  0  0  0  0  0  0  0  0  0  0
   -1.8623   -3.2086    0.2430 C   0  0  0  0  0  0  0  0  0  0  0  0
    0.6133   -2.0965    1.5072 H   0  0  0  0  0  0  0  0  0  0  0  0
    2.1661   -1.6879    0.8121 H   0  0  0  0  0  0  0  0  0  0  0  0
    1.0835   -2.7024   -0.1002 H   0  0  0  0  0  0  0  0  0  0  0  0
    2.8242    0.2104   -2.3559 H   0  0  0  0  0  0  0  0  0  0  0  0
    4.9986    0.1932   -1.7205 H   0  0  0  0  0  0  0  0  0  0  0  0
    6.7366    0.5915   -0.0186 H   0  0  0  0  0  0  0  0  0  0  0  0
    3.7421    1.3102    2.9323 H   0  0  0  0  0  0  0  0  0  0  0  0
   -0.8400    1.1638    2.3188 H   0  0  0  0  0  0  0  0  0  0  0  0
    0.4542    3.1504   -0.0325 H   0  0  0  0  0  0  0  0  0  0  0  0
   -3.1013    5.4284   -0.8302 H   0  0  0  0  0  0  0  0  0  0  0  0
   -4.4865    3.6437    0.2024 H   0  0  0  0  0  0  0  0  0  0  0  0
   -3.5153    0.0328   -0.3384 H   0  0  0  0  0  0  0  0  0  0  0  0
   -3.8319   -0.6101    1.2564 H   0  0  0  0  0  0  0  0  0  0  0  0
   -1.6464   -0.9261    1.7712 H   0  0  0  0  0  0  0  0  0  0  0  0
   -1.3877   -0.1685   -1.1697 H   0  0  0  0  0  0  0  0  0  0  0  0
   -1.4456   -1.8335   -2.8423 H   0  0  0  0  0  0  0  0  0  0  0  0
   -2.1949   -4.0710   -3.5165 H   0  0  0  0  0  0  0  0  0  0  0  0
   -2.7432   -5.7815   -1.8048 H   0  0  0  0  0  0  0  0  0  0  0  0
   -2.5271   -5.2291    0.6019 H   0  0  0  0  0  0  0  0  0  0  0  0
   -1.7731   -3.0162    1.3085 H   0  0  0  0  0  0  0  0  0  0  0  0
  1  2  1  0
  2  3  1  0
  3  4  2  0
  3  5  1  0
  5  6  1  0
  6  7  2  0
  7  8  1  0
  8  9  2  0
  9 10  1  0
  9 11  1  0
 11 12  2  0
 12 13  1  0
 13 14  2  0
 13 15  1  0
 15 16  1  0
 16 17  1  0
 17 18  2  0
 18 19  1  0
 19 20  1  0
 19 21  2  0
 21 22  1  0
 22 23  2  0
 23 24  1  0
 24 25  1  0
 25 26  1  0
 26 27  1  0
 27 28  1  0
 28 29  2  0
 29 30  1  0
 30 31  2  0
 31 32  1  0
 32 33  2  0
 15  2  1  0
 26 16  1  0
 33 28  1  0
 27  2  1  0
 12  6  1  0
 23 17  1  0
  1 34  1  0
  1 35  1  0
  1 36  1  0
  5 37  1  0
  7 38  1  0
  8 39  1  0
 11 40  1  0
 16 41  1  0
 18 42  1  0
 21 43  1  0
 22 44  1  0
 25 45  1  0
 25 46  1  0
 26 47  1  0
 27 48  1  0
 29 49  1  0
 30 50  1  0
 31 51  1  0
 32 52  1  0
 33 53  1  0
M  END
$$$$
