
     RDKit          3D

 44 46  0  0  0  0  0  0  0  0999 V2000
   -1.1033    1.6719   -2.4212 C   0  0  0  0  0  0  0  0  0  0  0  0
   -0.0532    0.8440   -1.9432 O   0  0  0  0  0  0  0  0  0  0  0  0
   -0.3945   -0.1798   -1.0919 C   0  0  0  0  0  0  0  0  0  0  0  0
   -1.7098   -0.5870   -0.8388 C   0  0  0  0  0  0  0  0  0  0  0  0
   -1.9747   -1.6330    0.0563 C   0  0  0  0  0  0  0  0  0  0  0  0
   -3.3496   -2.0686    0.3398 C   0  0  0  0  0  0  0  0  0  0  0  0
   -4.3613   -1.2935    0.7866 C   0  0  0  0  0  0  0  0  0  0  0  0
   -5.6509   -1.8769    0.9775 C   0  0  0  0  0  0  0  0  0  0  0  0
   -6.6750   -2.3972    1.1493 N   0  0  0  0  0  0  0  0  0  0  0  0
   -4.2136    0.1368    1.1024 C   0  0  0  0  0  0  0  0  0  0  0  0
   -3.4018    0.5699    2.1495 C   0  0  0  0  0  0  0  0  0  0  0  0
   -3.2962    1.9368    2.3932 C   0  0  0  0  0  0  0  0  0  0  0  0
   -4.0030    2.8274    1.5940 C   0  0  0  0  0  0  0  0  0  0  0  0
   -4.7904    2.3125    0.5779 C   0  0  0  0  0  0  0  0  0  0  0  0
   -4.9084    0.9923    0.3130 N   0  0  0  0  0  0  0  0  0  0  0  0
   -0.9085   -2.2987    0.6670 C   0  0  0  0  0  0  0  0  0  0  0  0
    0.4094   -1.9082    0.4109 C   0  0  0  0  0  0  0  0  0  0  0  0
    0.6758   -0.8491   -0.4645 C   0  0  0  0  0  0  0  0  0  0  0  0
    1.9313   -0.3870   -0.7692 O   0  0  0  0  0  0  0  0  0  0  0  0
    3.0503   -1.0632   -0.1995 C   0  0  0  0  0  0  0  0  0  0  0  0
    4.3274   -0.4389   -0.7185 C   0  0  0  0  0  0  0  0  0  0  0  0
    4.4781   -0.1517   -2.0842 C   0  0  0  0  0  0  0  0  0  0  0  0
    5.6692    0.3955   -2.5675 C   0  0  0  0  0  0  0  0  0  0  0  0
    6.7210    0.6518   -1.6887 C   0  0  0  0  0  0  0  0  0  0  0  0
    8.1887    1.3267   -2.2826 Cl  0  0  0  0  0  0  0  0  0  0  0  0
    6.5930    0.3634   -0.3319 C   0  0  0  0  0  0  0  0  0  0  0  0
    5.4019   -0.1851    0.1520 C   0  0  0  0  0  0  0  0  0  0  0  0
   -1.7550    1.1211   -3.1059 H   0  0  0  0  0  0  0  0  0  0  0  0
   -0.6497    2.4932   -2.9835 H   0  0  0  0  0  0  0  0  0  0  0  0
   -1.6743    2.1092   -1.5961 H   0  0  0  0  0  0  0  0  0  0  0  0
   -2.5463   -0.1014   -1.3346 H   0  0  0  0  0  0  0  0  0  0  0  0
   -3.5272   -3.1281    0.1503 H   0  0  0  0  0  0  0  0  0  0  0  0
   -2.8542   -0.1371    2.7653 H   0  0  0  0  0  0  0  0  0  0  0  0
   -2.6666    2.3029    3.2000 H   0  0  0  0  0  0  0  0  0  0  0  0
   -3.9441    3.8976    1.7605 H   0  0  0  0  0  0  0  0  0  0  0  0
   -5.3670    2.9680   -0.0702 H   0  0  0  0  0  0  0  0  0  0  0  0
   -1.0907   -3.1246    1.3532 H   0  0  0  0  0  0  0  0  0  0  0  0
    1.2028   -2.4517    0.9144 H   0  0  0  0  0  0  0  0  0  0  0  0
    3.0517   -2.1241   -0.4843 H   0  0  0  0  0  0  0  0  0  0  0  0
    3.0142   -0.9687    0.8940 H   0  0  0  0  0  0  0  0  0  0  0  0
    3.6572   -0.3449   -2.7773 H   0  0  0  0  0  0  0  0  0  0  0  0
    5.7653    0.6200   -3.6264 H   0  0  0  0  0  0  0  0  0  0  0  0
    7.4133    0.5638    0.3526 H   0  0  0  0  0  0  0  0  0  0  0  0
    5.3184   -0.4064    1.2138 H   0  0  0  0  0  0  0  0  0  0  0  0
  1  2  1  0
  2  3  1  0
  3  4  2  0
  4  5  1  0
  5  6  1  0
  6  7  2  3
  7  8  1  0
  8  9  3  0
  7 10  1  0
 10 11  2  0
 11 12  1  0
 12 13  2  0
 13 14  1  0
 14 15  2  0
  5 16  2  0
 16 17  1  0
 17 18  2  0
 18 19  1  0
 19 20  1  0
 20 21  1  0
 21 22  2  0
 22 23  1  0
 23 24  2  0
 24 25  1  0
 24 26  1  0
 26 27  2  0
 18  3  1  0
 27 21  1  0
 15 10  1  0
  1 28  1  0
  1 29  1  0
  1 30  1  0
  4 31  1  0
  6 32  1  0
 11 33  1  0
 12 34  1  0
 13 35  1  0
 14 36  1  0
 16 37  1  0
 17 38  1  0
 20 39  1  0
 20 40  1  0
 22 41  1  0
 23 42  1  0
 26 43  1  0
 27 44  1  0
M  END
$$$$
