
     RDKit          3D

 41 44  0  0  0  0  0  0  0  0999 V2000
    3.8614   -4.6757    2.4497 C   0  0  0  0  0  0  0  0  0  0  0  0
    2.8693   -3.6560    2.4655 O   0  0  0  0  0  0  0  0  0  0  0  0
    2.6229   -3.0106    1.2831 C   0  0  0  0  0  0  0  0  0  0  0  0
    3.2476   -3.2670    0.0671 C   0  0  0  0  0  0  0  0  0  0  0  0
    2.9018   -2.5483   -1.0823 C   0  0  0  0  0  0  0  0  0  0  0  0
    1.9159   -1.5617   -0.9670 C   0  0  0  0  0  0  0  0  0  0  0  0
    1.3859   -0.7394   -1.9245 N   0  0  0  0  0  0  0  0  0  0  0  0
    0.4058    0.0813   -1.4047 C   0  0  0  0  0  0  0  0  0  0  0  0
   -0.4021    1.0276   -2.0648 C   0  0  0  0  0  0  0  0  0  0  0  0
   -0.2724    1.2768   -3.5483 C   0  0  0  0  0  0  0  0  0  0  0  0
   -1.3656    1.7142   -1.2767 C   0  0  0  0  0  0  0  0  0  0  0  0
   -2.2561    2.6368   -1.8553 C   0  0  0  0  0  0  0  0  0  0  0  0
   -3.2047    3.2952   -1.0881 C   0  0  0  0  0  0  0  0  0  0  0  0
   -3.2879    3.0579    0.2309 N   0  0  0  0  0  4  0  0  0  0  0  0
   -4.3059    3.7437    1.0449 C   0  0  0  0  0  0  0  0  0  0  0  0
   -2.4517    2.1807    0.8262 C   0  0  0  0  0  0  0  0  0  0  0  0
   -1.4556    1.4846    0.1175 C   0  0  0  0  0  0  0  0  0  0  0  0
   -0.5620    0.5706    0.7646 C   0  0  0  0  0  0  0  0  0  0  0  0
   -0.5983    0.3913    2.2658 C   0  0  0  0  0  0  0  0  0  0  0  0
    0.3399   -0.1851   -0.0376 C   0  0  0  0  0  0  0  0  0  0  0  0
    1.2765   -1.2556    0.2296 C   0  0  0  0  0  0  0  0  0  0  0  0
    1.6394   -2.0132    1.3669 C   0  0  0  0  0  0  0  0  0  0  0  0
    3.9375   -5.0833    3.4624 H   0  0  0  0  0  0  0  0  0  0  0  0
    3.5747   -5.4945    1.7817 H   0  0  0  0  0  0  0  0  0  0  0  0
    4.8415   -4.2685    2.1800 H   0  0  0  0  0  0  0  0  0  0  0  0
    4.0121   -4.0318   -0.0294 H   0  0  0  0  0  0  0  0  0  0  0  0
    3.3863   -2.7608   -2.0307 H   0  0  0  0  0  0  0  0  0  0  0  0
    1.6671   -0.7607   -2.8935 H   0  0  0  0  0  0  0  0  0  0  0  0
   -1.1954    0.9890   -4.0620 H   0  0  0  0  0  0  0  0  0  0  0  0
    0.5428    0.7034   -3.9975 H   0  0  0  0  0  0  0  0  0  0  0  0
   -0.0605    2.3341   -3.7383 H   0  0  0  0  0  0  0  0  0  0  0  0
   -2.2309    2.8549   -2.9211 H   0  0  0  0  0  0  0  0  0  0  0  0
   -3.9001    4.0051   -1.5265 H   0  0  0  0  0  0  0  0  0  0  0  0
   -5.0436    2.9968    1.3495 H   0  0  0  0  0  0  0  0  0  0  0  0
   -3.8084    4.1825    1.9141 H   0  0  0  0  0  0  0  0  0  0  0  0
   -4.7841    4.5324    0.4592 H   0  0  0  0  0  0  0  0  0  0  0  0
   -2.6149    2.0432    1.8897 H   0  0  0  0  0  0  0  0  0  0  0  0
   -0.8214    1.3292    2.7828 H   0  0  0  0  0  0  0  0  0  0  0  0
   -1.3430   -0.3620    2.5381 H   0  0  0  0  0  0  0  0  0  0  0  0
    0.3781    0.0951    2.6537 H   0  0  0  0  0  0  0  0  0  0  0  0
    1.1584   -1.8523    2.3254 H   0  0  0  0  0  0  0  0  0  0  0  0
  1  2  1  0
  2  3  1  0
  3  4  2  0
  4  5  1  0
  5  6  2  0
  6  7  1  0
  7  8  1  0
  8  9  2  0
  9 10  1  0
  9 11  1  0
 11 12  2  0
 12 13  1  0
 13 14  2  0
 14 15  1  0
 14 16  1  0
 16 17  2  0
 17 18  1  0
 18 19  1  0
 18 20  2  0
 20 21  1  0
 21 22  2  0
 22  3  1  0
 21  6  1  0
 20  8  1  0
 17 11  1  0
  1 23  1  0
  1 24  1  0
  1 25  1  0
  4 26  1  0
  5 27  1  0
  7 28  1  0
 10 29  1  0
 10 30  1  0
 10 31  1  0
 12 32  1  0
 13 33  1  0
 15 34  1  0
 15 35  1  0
 15 36  1  0
 16 37  1  0
 19 38  1  0
 19 39  1  0
 19 40  1  0
 22 41  1  0
M  CHG  1  14   1
M  END
$$$$
