
     RDKit          3D

 67 72  0  0  0  0  0  0  0  0999 V2000
    5.4419   -0.2317    2.9496 C   0  0  0  0  0  0  0  0  0  0  0  0
    5.1231    0.7975    1.8591 C   0  0  0  0  0  0  0  0  0  0  0  0
    6.3447    1.0962    0.9809 C   0  0  0  0  0  0  0  0  0  0  0  0
    4.6709    2.1071    2.5218 C   0  0  0  0  0  0  0  0  0  0  0  0
    3.9849    0.3751    1.0656 O   0  0  0  0  0  0  0  0  0  0  0  0
    4.0510   -0.7287    0.2784 C   0  0  0  0  0  0  0  0  0  0  0  0
    5.0341   -1.4481    0.1747 O   0  0  0  0  0  0  0  0  0  0  0  0
    2.8721   -0.9479   -0.4074 N   0  0  0  0  0  0  0  0  0  0  0  0
    2.7678   -2.0830   -1.3247 C   0  0  0  0  0  0  0  0  0  0  0  0
    1.3048   -2.5142   -1.5489 C   0  0  0  0  0  0  0  0  0  0  0  0
    0.4852   -1.4250   -2.0739 N   0  0  0  0  0  0  0  0  0  0  0  0
    0.8830   -0.0537   -1.6220 C   0  0  2  0  0  0  0  0  0  0  0  0
    1.7114   -0.0526   -0.3229 C   0  0  0  0  0  0  0  0  0  0  0  0
   -0.4147    0.6375   -1.4989 C   0  0  0  0  0  0  0  0  0  0  0  0
   -1.4837   -0.2336   -1.7308 C   0  0  0  0  0  0  0  0  0  0  0  0
   -2.6557    0.4550   -1.5605 C   0  0  0  0  0  0  0  0  0  0  0  0
   -3.9055    0.0172   -1.6431 O   0  0  0  0  0  0  0  0  0  0  0  0
   -2.2997    1.7705   -1.2900 N   0  0  0  0  0  0  0  0  0  0  0  0
   -3.2162    2.9022   -1.1892 C   0  0  0  0  0  0  0  0  0  0  0  0
   -3.7984    3.0373    0.1966 C   0  0  0  0  0  0  0  0  0  0  0  0
   -2.9798    3.3952    1.2827 C   0  0  0  0  0  0  0  0  0  0  0  0
   -3.5141    3.5267    2.5663 C   0  0  0  0  0  0  0  0  0  0  0  0
   -4.8716    3.3005    2.7797 C   0  0  0  0  0  0  0  0  0  0  0  0
   -5.6977    2.9531    1.7095 C   0  0  0  0  0  0  0  0  0  0  0  0
   -5.1682    2.8277    0.4233 C   0  0  0  0  0  0  0  0  0  0  0  0
   -0.9158    1.8883   -1.2660 C   0  0  0  0  0  0  0  0  0  0  0  0
   -0.3256    3.0580   -1.0666 O   0  0  0  0  0  0  0  0  0  0  0  0
   -1.0033   -1.5903   -2.0698 C   0  0  1  0  0  0  0  0  0  0  0  0
   -1.4962   -2.0952   -3.4610 C   0  0  0  0  0  0  0  0  0  0  0  0
   -1.2608   -1.6351   -4.5714 O   0  0  0  0  0  0  0  0  0  0  0  0
   -2.2688   -3.2349   -3.2233 N   0  0  0  0  0  0  0  0  0  0  0  0
   -2.3730   -3.5023   -1.8653 C   0  0  0  0  0  0  0  0  0  0  0  0
   -3.0926   -4.5274   -1.2836 C   0  0  0  0  0  0  0  0  0  0  0  0
   -3.0848   -4.6093    0.1094 C   0  0  0  0  0  0  0  0  0  0  0  0
   -2.3724   -3.6717    0.8773 C   0  0  0  0  0  0  0  0  0  0  0  0
   -1.6495   -2.6406    0.2657 C   0  0  0  0  0  0  0  0  0  0  0  0
   -1.6490   -2.5658   -1.1199 C   0  0  0  0  0  0  0  0  0  0  0  0
    5.8535   -1.1511    2.5257 H   0  0  0  0  0  0  0  0  0  0  0  0
    4.5345   -0.5149    3.4922 H   0  0  0  0  0  0  0  0  0  0  0  0
    6.1770    0.1541    3.6658 H   0  0  0  0  0  0  0  0  0  0  0  0
    6.0716    1.7301    0.1330 H   0  0  0  0  0  0  0  0  0  0  0  0
    6.7806    0.1781    0.5680 H   0  0  0  0  0  0  0  0  0  0  0  0
    7.1350    1.6002    1.5511 H   0  0  0  0  0  0  0  0  0  0  0  0
    5.4605    2.5367    3.1503 H   0  0  0  0  0  0  0  0  0  0  0  0
    3.7788    1.9452    3.1422 H   0  0  0  0  0  0  0  0  0  0  0  0
    4.3907    2.8531    1.7687 H   0  0  0  0  0  0  0  0  0  0  0  0
    3.3552   -2.9235   -0.9418 H   0  0  0  0  0  0  0  0  0  0  0  0
    3.2215   -1.7736   -2.2722 H   0  0  0  0  0  0  0  0  0  0  0  0
    0.9326   -2.8737   -0.5846 H   0  0  0  0  0  0  0  0  0  0  0  0
    1.2826   -3.3537   -2.2515 H   0  0  0  0  0  0  0  0  0  0  0  0
    1.4739    0.4011   -2.4268 H   0  0  0  0  0  0  0  0  0  0  0  0
    2.0303    0.9686   -0.0871 H   0  0  0  0  0  0  0  0  0  0  0  0
    1.1085   -0.4017    0.5249 H   0  0  0  0  0  0  0  0  0  0  0  0
   -4.4970    0.6491   -1.2012 H   0  0  0  0  0  0  0  0  0  0  0  0
   -2.6874    3.8181   -1.4700 H   0  0  0  0  0  0  0  0  0  0  0  0
   -3.9989    2.7510   -1.9420 H   0  0  0  0  0  0  0  0  0  0  0  0
   -1.9157    3.5772    1.1275 H   0  0  0  0  0  0  0  0  0  0  0  0
   -2.8738    3.8078    3.4001 H   0  0  0  0  0  0  0  0  0  0  0  0
   -5.2881    3.3990    3.7797 H   0  0  0  0  0  0  0  0  0  0  0  0
   -6.7592    2.7873    1.8758 H   0  0  0  0  0  0  0  0  0  0  0  0
   -5.8401    2.5694   -0.3954 H   0  0  0  0  0  0  0  0  0  0  0  0
    0.6137    2.9517   -1.2883 H   0  0  0  0  0  0  0  0  0  0  0  0
   -2.7230   -3.7453   -3.9641 H   0  0  0  0  0  0  0  0  0  0  0  0
   -3.6510   -5.2408   -1.8803 H   0  0  0  0  0  0  0  0  0  0  0  0
   -3.6429   -5.4003    0.6039 H   0  0  0  0  0  0  0  0  0  0  0  0
   -2.3888   -3.7406    1.9635 H   0  0  0  0  0  0  0  0  0  0  0  0
   -1.1124   -1.9129    0.8666 H   0  0  0  0  0  0  0  0  0  0  0  0
  1  2  1  0
  2  3  1  0
  2  4  1  0
  2  5  1  0
  5  6  1  0
  6  7  2  0
  6  8  1  0
  8  9  1  0
  9 10  1  0
 10 11  1  0
 11 12  1  0
 12 13  1  0
 12 14  1  0
 14 15  1  0
 15 16  2  0
 16 17  1  0
 16 18  1  0
 18 19  1  0
 19 20  1  0
 20 21  2  0
 21 22  1  0
 22 23  2  0
 23 24  1  0
 24 25  2  0
 18 26  1  0
 26 27  1  0
 15 28  1  0
 28 29  1  0
 29 30  2  0
 29 31  1  0
 31 32  1  0
 32 33  2  0
 33 34  1  0
 34 35  2  0
 35 36  1  0
 36 37  2  0
 13  8  1  0
 26 14  2  0
 37 28  1  0
 28 11  1  6
 37 32  1  0
 25 20  1  0
  1 38  1  0
  1 39  1  0
  1 40  1  0
  3 41  1  0
  3 42  1  0
  3 43  1  0
  4 44  1  0
  4 45  1  0
  4 46  1  0
  9 47  1  0
  9 48  1  0
 10 49  1  0
 10 50  1  0
 12 51  1  6
 13 52  1  0
 13 53  1  0
 17 54  1  0
 19 55  1  0
 19 56  1  0
 21 57  1  0
 22 58  1  0
 23 59  1  0
 24 60  1  0
 25 61  1  0
 27 62  1  0
 31 63  1  0
 33 64  1  0
 34 65  1  0
 35 66  1  0
 36 67  1  0
M  END
$$$$
