
     RDKit          3D

 56 61  0  0  0  0  0  0  0  0999 V2000
    0.0564    3.2972    1.2668 C   0  0  0  0  0  0  0  0  0  0  0  0
    0.8324    2.1055    0.8467 C   0  0  0  0  0  0  0  0  0  0  0  0
    2.1196    2.2369    0.5131 N   0  0  0  0  0  0  0  0  0  0  0  0
    2.5476    0.9781    0.1811 N   0  0  0  0  0  0  0  0  0  0  0  0
    3.9006    0.7817   -0.2400 C   0  0  0  0  0  0  0  0  0  0  0  0
    4.7655    1.8916   -0.2944 C   0  0  0  0  0  0  0  0  0  0  0  0
    6.0958    1.7445   -0.7011 C   0  0  0  0  0  0  0  0  0  0  0  0
    6.5705    0.4784   -1.0587 C   0  0  0  0  0  0  0  0  0  0  0  0
    7.9655    0.3170   -1.4862 N   0  0  0  0  0  4  0  0  0  0  0  0
    8.3471   -0.8205   -1.7969 O   0  0  0  0  0  0  0  0  0  0  0  0
    8.6819    1.3284   -1.5116 O   0  0  0  0  0  1  0  0  0  0  0  0
    5.7235   -0.6345   -1.0118 C   0  0  0  0  0  0  0  0  0  0  0  0
    4.3921   -0.4804   -0.6035 C   0  0  0  0  0  0  0  0  0  0  0  0
    1.5146    0.0578    0.3344 C   0  0  0  0  0  0  0  0  0  0  0  0
    0.4073    0.7715    0.7302 C   0  0  0  0  0  0  0  0  0  0  0  0
   -0.8737    0.0556    0.9786 C   0  0  0  0  0  0  0  0  0  0  0  0
   -1.8178    0.5755   -0.1076 C   0  0  0  0  0  0  0  0  0  0  0  0
   -2.8325    1.4928    0.2199 C   0  0  0  0  0  0  0  0  0  0  0  0
   -3.7096    1.9814   -0.7563 C   0  0  0  0  0  0  0  0  0  0  0  0
   -3.5855    1.5667   -2.0817 C   0  0  0  0  0  0  0  0  0  0  0  0
   -4.3803    1.9564   -3.1223 O   0  0  0  0  0  0  0  0  0  0  0  0
   -5.1207    3.1504   -2.9361 C   0  0  0  0  0  0  0  0  0  0  0  0
   -5.6645    3.4819   -4.1343 F   0  0  0  0  0  0  0  0  0  0  0  0
   -6.1567    2.9077   -2.0952 F   0  0  0  0  0  0  0  0  0  0  0  0
   -2.5903    0.6480   -2.4168 C   0  0  0  0  0  0  0  0  0  0  0  0
   -1.7110    0.1615   -1.4462 C   0  0  0  0  0  0  0  0  0  0  0  0
   -0.7290   -1.4159    0.9253 N   0  0  0  0  0  0  0  0  0  0  0  0
    0.4851   -1.9478    0.4495 C   0  0  0  0  0  0  0  0  0  0  0  0
    1.5732   -1.2840    0.1456 N   0  0  0  0  0  0  0  0  0  0  0  0
    0.5990   -3.4782    0.2473 C   0  0  0  0  0  0  0  0  0  0  0  0
    1.5921   -3.9966   -0.2437 O   0  0  0  0  0  0  0  0  0  0  0  0
   -0.4796   -4.2162    0.6547 N   0  0  0  0  0  0  0  0  0  0  0  0
   -1.6398   -3.6639    1.2036 C   0  0  0  0  0  0  0  0  0  0  0  0
   -2.6522   -4.5473    1.5976 C   0  0  0  0  0  0  0  0  0  0  0  0
   -3.8276   -4.0545    2.1523 C   0  0  0  0  0  0  0  0  0  0  0  0
   -3.9860   -2.6839    2.3128 C   0  0  0  0  0  0  0  0  0  0  0  0
   -2.9713   -1.8035    1.9160 C   0  0  0  0  0  0  0  0  0  0  0  0
   -1.7734   -2.2654    1.3445 C   0  0  0  0  0  0  0  0  0  0  0  0
   -0.5027    3.7044    0.4186 H   0  0  0  0  0  0  0  0  0  0  0  0
    0.7130    4.0845    1.6519 H   0  0  0  0  0  0  0  0  0  0  0  0
   -0.6527    3.0405    2.0600 H   0  0  0  0  0  0  0  0  0  0  0  0
    4.4153    2.8863   -0.0203 H   0  0  0  0  0  0  0  0  0  0  0  0
    6.7387    2.6217   -0.7319 H   0  0  0  0  0  0  0  0  0  0  0  0
    6.0756   -1.6270   -1.2876 H   0  0  0  0  0  0  0  0  0  0  0  0
    3.7718   -1.3723   -0.5856 H   0  0  0  0  0  0  0  0  0  0  0  0
   -1.2244    0.3518    1.9758 H   0  0  0  0  0  0  0  0  0  0  0  0
   -2.9581    1.8327    1.2464 H   0  0  0  0  0  0  0  0  0  0  0  0
   -4.4923    2.6646   -0.4392 H   0  0  0  0  0  0  0  0  0  0  0  0
   -4.5141    3.9895   -2.5776 H   0  0  0  0  0  0  0  0  0  0  0  0
   -2.4912    0.3079   -3.4458 H   0  0  0  0  0  0  0  0  0  0  0  0
   -0.9400   -0.5450   -1.7491 H   0  0  0  0  0  0  0  0  0  0  0  0
   -0.3911   -5.2159    0.5349 H   0  0  0  0  0  0  0  0  0  0  0  0
   -2.5344   -5.6211    1.4770 H   0  0  0  0  0  0  0  0  0  0  0  0
   -4.6168   -4.7365    2.4586 H   0  0  0  0  0  0  0  0  0  0  0  0
   -4.9035   -2.2922    2.7468 H   0  0  0  0  0  0  0  0  0  0  0  0
   -3.1614   -0.7477    2.0744 H   0  0  0  0  0  0  0  0  0  0  0  0
  1  2  1  0
  2  3  2  0
  3  4  1  0
  4  5  1  0
  5  6  2  0
  6  7  1  0
  7  8  2  0
  8  9  1  0
  9 10  2  0
  9 11  1  0
  8 12  1  0
 12 13  2  0
  4 14  1  0
 14 15  2  0
 15 16  1  0
 16 17  1  0
 17 18  2  0
 18 19  1  0
 19 20  2  0
 20 21  1  0
 21 22  1  0
 22 23  1  0
 22 24  1  0
 20 25  1  0
 25 26  2  0
 16 27  1  0
 27 28  1  0
 28 29  2  0
 28 30  1  0
 30 31  2  0
 30 32  1  0
 32 33  1  0
 33 34  2  0
 34 35  1  0
 35 36  2  0
 36 37  1  0
 37 38  2  0
 15  2  1  0
 26 17  1  0
 38 27  1  0
 13  5  1  0
 29 14  1  0
 38 33  1  0
  1 39  1  0
  1 40  1  0
  1 41  1  0
  6 42  1  0
  7 43  1  0
 12 44  1  0
 13 45  1  0
 16 46  1  0
 18 47  1  0
 19 48  1  0
 22 49  1  0
 25 50  1  0
 26 51  1  0
 32 52  1  0
 34 53  1  0
 35 54  1  0
 36 55  1  0
 37 56  1  0
M  CHG  2   9   1  11  -1
M  END
$$$$
