
     RDKit          3D

 46 50  0  0  0  0  0  0  0  0999 V2000
    5.0424    1.0952    1.0647 O   0  0  0  0  0  0  0  0  0  0  0  0
    5.2853    0.4467    0.0584 C   0  0  0  0  0  0  0  0  0  0  0  0
    4.3751   -0.1477   -0.7939 O   0  0  0  0  0  0  0  0  0  0  0  0
    3.0456    0.0508   -0.4128 C   0  0  0  0  0  0  0  0  0  0  0  0
    2.2786    0.9617   -1.1390 C   0  0  0  0  0  0  0  0  0  0  0  0
    0.9373    1.1438   -0.8017 C   0  0  0  0  0  0  0  0  0  0  0  0
    0.3779    0.4017    0.2467 C   0  0  0  0  0  0  0  0  0  0  0  0
   -1.0380    0.5840    0.6196 C   0  0  0  0  0  0  0  0  0  0  0  0
   -1.7262    1.4338    0.0684 O   0  0  0  0  0  0  0  0  0  0  0  0
   -1.5467   -0.3064    1.6998 C   0  0  0  0  0  0  0  0  0  0  0  0
   -2.8627   -0.2388    2.1314 O   0  0  0  0  0  0  0  0  0  0  0  0
   -3.8551   -0.3970    1.1917 C   0  0  0  0  0  0  0  0  0  0  0  0
   -3.8295   -1.4072    0.2308 C   0  0  0  0  0  0  0  0  0  0  0  0
   -4.8953   -1.5402   -0.6622 C   0  0  0  0  0  0  0  0  0  0  0  0
   -6.0008   -0.6764   -0.5956 C   0  0  0  0  0  0  0  0  0  0  0  0
   -7.0795   -0.7983   -1.4863 C   0  0  0  0  0  0  0  0  0  0  0  0
   -8.1728    0.0659   -1.4054 C   0  0  0  0  0  0  0  0  0  0  0  0
   -8.2020    1.0621   -0.4340 C   0  0  0  0  0  0  0  0  0  0  0  0
   -7.1380    1.1969    0.4593 C   0  0  0  0  0  0  0  0  0  0  0  0
   -6.0307    0.3360    0.3918 C   0  0  0  0  0  0  0  0  0  0  0  0
   -4.9535    0.4587    1.2835 C   0  0  0  0  0  0  0  0  0  0  0  0
   -0.6715   -1.1201    2.3022 C   0  0  0  0  0  0  0  0  0  0  0  0
    0.6562   -1.2714    1.9886 O   0  0  0  0  0  0  0  0  0  0  0  0
    1.1535   -0.5195    0.9535 C   0  0  0  0  0  0  0  0  0  0  0  0
    2.4943   -0.7063    0.6212 C   0  0  0  0  0  0  0  0  0  0  0  0
    6.6643    0.1929   -0.4164 C   0  0  0  0  0  0  0  0  0  0  0  0
    6.9458   -0.5560   -1.5540 C   0  0  0  0  0  0  0  0  0  0  0  0
    8.2018   -0.8009   -2.0049 N   0  0  0  0  0  0  0  0  0  0  0  0
    9.2216   -0.2727   -1.2861 C   0  0  0  0  0  0  0  0  0  0  0  0
    9.0382    0.4860   -0.1403 C   0  0  0  0  0  0  0  0  0  0  0  0
   10.5153    1.1831    0.8003 Br  0  0  0  0  0  0  0  0  0  0  0  0
    7.7409    0.7234    0.3029 C   0  0  0  0  0  0  0  0  0  0  0  0
    2.7175    1.5302   -1.9539 H   0  0  0  0  0  0  0  0  0  0  0  0
    0.3300    1.8599   -1.3521 H   0  0  0  0  0  0  0  0  0  0  0  0
   -2.9977   -2.1016    0.1695 H   0  0  0  0  0  0  0  0  0  0  0  0
   -4.8592   -2.3283   -1.4109 H   0  0  0  0  0  0  0  0  0  0  0  0
   -7.0750   -1.5694   -2.2532 H   0  0  0  0  0  0  0  0  0  0  0  0
   -9.0002   -0.0387   -2.1023 H   0  0  0  0  0  0  0  0  0  0  0  0
   -9.0515    1.7371   -0.3713 H   0  0  0  0  0  0  0  0  0  0  0  0
   -7.1770    1.9835    1.2097 H   0  0  0  0  0  0  0  0  0  0  0  0
   -4.9575    1.2316    2.0480 H   0  0  0  0  0  0  0  0  0  0  0  0
   -0.9433   -1.7726    3.1219 H   0  0  0  0  0  0  0  0  0  0  0  0
    3.0999   -1.4223    1.1678 H   0  0  0  0  0  0  0  0  0  0  0  0
    6.1650   -1.0013   -2.1651 H   0  0  0  0  0  0  0  0  0  0  0  0
   10.2138   -0.4871   -1.6742 H   0  0  0  0  0  0  0  0  0  0  0  0
    7.5634    1.3152    1.1984 H   0  0  0  0  0  0  0  0  0  0  0  0
  1  2  2  0
  2  3  1  0
  3  4  1  0
  4  5  2  0
  5  6  1  0
  6  7  2  0
  7  8  1  0
  8  9  2  0
  8 10  1  0
 10 11  1  0
 11 12  1  0
 12 13  2  0
 13 14  1  0
 14 15  2  0
 15 16  1  0
 16 17  2  0
 17 18  1  0
 18 19  2  0
 19 20  1  0
 20 21  2  0
 10 22  2  0
 22 23  1  0
 23 24  1  0
 24 25  2  0
  2 26  1  0
 26 27  2  0
 27 28  1  0
 28 29  2  0
 29 30  1  0
 30 31  1  0
 30 32  2  0
 25  4  1  0
 32 26  1  0
 24  7  1  0
 21 12  1  0
 20 15  1  0
  5 33  1  0
  6 34  1  0
 13 35  1  0
 14 36  1  0
 16 37  1  0
 17 38  1  0
 18 39  1  0
 19 40  1  0
 21 41  1  0
 22 42  1  0
 25 43  1  0
 27 44  1  0
 29 45  1  0
 32 46  1  0
M  END
$$$$
