
     RDKit          3D

 32 34  0  0  0  0  0  0  0  0999 V2000
    3.2590   -0.9502   -1.9892 O   0  0  0  0  0  0  0  0  0  0  0  0
    3.9237   -0.3103   -0.9756 C   0  0  0  0  0  0  0  0  0  0  0  0
    5.3202   -0.2331   -1.0322 C   0  0  0  0  0  0  0  0  0  0  0  0
    6.2994   -0.9904   -2.4715 Br  0  0  0  0  0  0  0  0  0  0  0  0
    6.0346    0.4106   -0.0191 C   0  0  0  0  0  0  0  0  0  0  0  0
    5.3482    0.9777    1.0524 C   0  0  0  0  0  0  0  0  0  0  0  0
    6.3132    1.8496    2.4250 Br  0  0  0  0  0  0  0  0  0  0  0  0
    3.9576    0.9103    1.1251 C   0  0  0  0  0  0  0  0  0  0  0  0
    3.2433    0.2648    0.1089 C   0  0  0  0  0  0  0  0  0  0  0  0
    1.7692    0.2234    0.2383 C   0  0  0  0  0  0  0  0  0  0  0  0
    1.0339   -0.3539   -0.6576 N   0  0  0  0  0  0  0  0  0  0  0  0
   -0.3052   -0.3197   -0.4157 C   0  0  0  0  0  0  0  0  0  0  0  0
   -0.9374    0.2243    0.6082 N   0  0  0  0  0  0  0  0  0  0  0  0
   -2.2972    0.0401    0.4833 C   0  0  0  0  0  0  0  0  0  0  0  0
   -2.6990   -0.6388   -0.6455 C   0  0  0  0  0  0  0  0  0  0  0  0
   -1.3503   -1.0766   -1.5784 S   0  0  0  0  0  0  0  0  0  0  0  0
   -4.1079   -0.9778   -0.9930 C   0  0  0  0  0  0  0  0  0  0  0  0
   -5.0785   -0.1369   -0.1427 C   0  0  0  0  0  0  0  0  0  0  0  0
   -4.6452   -0.0651    1.3328 C   0  0  0  0  0  0  0  0  0  0  0  0
   -3.2543    0.5742    1.4942 C   0  0  0  0  0  0  0  0  0  0  0  0
    2.2966   -0.9160   -1.7993 H   0  0  0  0  0  0  0  0  0  0  0  0
    7.1192    0.4683   -0.0671 H   0  0  0  0  0  0  0  0  0  0  0  0
    3.4371    1.3582    1.9684 H   0  0  0  0  0  0  0  0  0  0  0  0
    1.3465    0.7112    1.1378 H   0  0  0  0  0  0  0  0  0  0  0  0
   -4.2794   -2.0423   -0.7919 H   0  0  0  0  0  0  0  0  0  0  0  0
   -4.3076   -0.8035   -2.0561 H   0  0  0  0  0  0  0  0  0  0  0  0
   -5.1291    0.8823   -0.5473 H   0  0  0  0  0  0  0  0  0  0  0  0
   -6.0869   -0.5597   -0.2161 H   0  0  0  0  0  0  0  0  0  0  0  0
   -4.6309   -1.0810    1.7485 H   0  0  0  0  0  0  0  0  0  0  0  0
   -5.3793    0.5070    1.9113 H   0  0  0  0  0  0  0  0  0  0  0  0
   -3.3342    1.6596    1.3601 H   0  0  0  0  0  0  0  0  0  0  0  0
   -2.8792    0.3936    2.5073 H   0  0  0  0  0  0  0  0  0  0  0  0
  1  2  1  0
  2  3  2  0
  3  4  1  0
  3  5  1  0
  5  6  2  0
  6  7  1  0
  6  8  1  0
  8  9  2  0
  9 10  1  0
 10 11  2  3
 11 12  1  0
 12 13  2  0
 13 14  1  0
 14 15  2  0
 15 16  1  0
 15 17  1  0
 17 18  1  0
 18 19  1  0
 19 20  1  0
  9  2  1  0
 16 12  1  0
 20 14  1  0
  1 21  1  0
  5 22  1  0
  8 23  1  0
 10 24  1  0
 17 25  1  0
 17 26  1  0
 18 27  1  0
 18 28  1  0
 19 29  1  0
 19 30  1  0
 20 31  1  0
 20 32  1  0
M  END
$$$$
