
     RDKit          3D

 39 40  0  0  0  0  0  0  0  0999 V2000
    7.5334   -0.6728   -0.4926 C   0  0  0  0  0  0  0  0  0  0  0  0
    6.7799   -0.2627    0.6413 O   0  0  0  0  0  0  0  0  0  0  0  0
    5.4187   -0.3529    0.5432 C   0  0  0  0  0  0  0  0  0  0  0  0
    4.7025   -0.7946   -0.5688 C   0  0  0  0  0  0  0  0  0  0  0  0
    3.3042   -0.8359   -0.5343 C   0  0  0  0  0  0  0  0  0  0  0  0
    2.6054   -0.4400    0.6130 C   0  0  0  0  0  0  0  0  0  0  0  0
    1.1000   -0.4666    0.6339 C   0  0  0  0  0  0  0  0  0  0  0  0
    0.4984    0.8129    0.0550 C   0  0  0  0  0  0  0  0  0  0  0  0
   -0.9379    0.7712    0.1266 O   0  0  0  0  0  0  0  0  0  0  0  0
   -1.5539    0.1151   -0.8865 C   0  0  0  0  0  0  0  0  0  0  0  0
   -1.0034   -0.4398   -1.8233 O   0  0  0  0  0  0  0  0  0  0  0  0
   -3.0315    0.1537   -0.7104 C   0  0  0  0  0  0  0  0  0  0  0  0
   -3.8285   -0.4731   -1.6751 C   0  0  0  0  0  0  0  0  0  0  0  0
   -5.2239   -0.4698   -1.5585 C   0  0  0  0  0  0  0  0  0  0  0  0
   -5.8660    0.1908   -0.5022 C   0  0  0  0  0  0  0  0  0  0  0  0
   -7.2555    0.0298   -0.3759 N   0  0  0  0  0  0  0  0  0  0  0  0
   -5.0478    0.7722    0.4872 C   0  0  0  0  0  0  0  0  0  0  0  0
   -5.6396    1.4219    1.6577 N   0  0  0  0  0  4  0  0  0  0  0  0
   -6.7466    1.9665    1.5214 O   0  0  0  0  0  0  0  0  0  0  0  0
   -4.9847    1.4087    2.7102 O   0  0  0  0  0  1  0  0  0  0  0  0
   -3.6443    0.7744    0.3823 C   0  0  0  0  0  0  0  0  0  0  0  0
    3.3273    0.0071    1.7242 C   0  0  0  0  0  0  0  0  0  0  0  0
    4.7231    0.0472    1.6862 C   0  0  0  0  0  0  0  0  0  0  0  0
    8.5936   -0.5472   -0.2525 H   0  0  0  0  0  0  0  0  0  0  0  0
    7.3124   -0.0442   -1.3616 H   0  0  0  0  0  0  0  0  0  0  0  0
    7.3661   -1.7315   -0.7166 H   0  0  0  0  0  0  0  0  0  0  0  0
    5.1980   -1.1134   -1.4795 H   0  0  0  0  0  0  0  0  0  0  0  0
    2.7621   -1.1812   -1.4132 H   0  0  0  0  0  0  0  0  0  0  0  0
    0.7397   -1.3452    0.0844 H   0  0  0  0  0  0  0  0  0  0  0  0
    0.7378   -0.6135    1.6597 H   0  0  0  0  0  0  0  0  0  0  0  0
    0.8176    1.6810    0.6433 H   0  0  0  0  0  0  0  0  0  0  0  0
    0.8290    0.9964   -0.9751 H   0  0  0  0  0  0  0  0  0  0  0  0
   -3.3677   -0.9836   -2.5203 H   0  0  0  0  0  0  0  0  0  0  0  0
   -5.8095   -0.9993   -2.3083 H   0  0  0  0  0  0  0  0  0  0  0  0
   -7.7518   -0.1001   -1.2533 H   0  0  0  0  0  0  0  0  0  0  0  0
   -7.7031    0.7472    0.2024 H   0  0  0  0  0  0  0  0  0  0  0  0
   -3.0413    1.2515    1.1526 H   0  0  0  0  0  0  0  0  0  0  0  0
    2.8130    0.3262    2.6277 H   0  0  0  0  0  0  0  0  0  0  0  0
    5.2750    0.3938    2.5566 H   0  0  0  0  0  0  0  0  0  0  0  0
  1  2  1  0
  2  3  1  0
  3  4  2  0
  4  5  1  0
  5  6  2  0
  6  7  1  0
  7  8  1  0
  8  9  1  0
  9 10  1  0
 10 11  2  0
 10 12  1  0
 12 13  2  0
 13 14  1  0
 14 15  2  0
 15 16  1  0
 15 17  1  0
 17 18  1  0
 18 19  2  0
 18 20  1  0
 17 21  2  0
  6 22  1  0
 22 23  2  0
 23  3  1  0
 21 12  1  0
  1 24  1  0
  1 25  1  0
  1 26  1  0
  4 27  1  0
  5 28  1  0
  7 29  1  0
  7 30  1  0
  8 31  1  0
  8 32  1  0
 13 33  1  0
 14 34  1  0
 16 35  1  0
 16 36  1  0
 21 37  1  0
 22 38  1  0
 23 39  1  0
M  CHG  2  18   1  20  -1
M  END
$$$$
