
     RDKit          3D

 32 35  0  0  0  0  0  0  0  0999 V2000
   -4.8018    2.6229    0.1957 C   0  0  0  0  0  0  0  0  0  0  0  0
   -4.5460    1.7376   -0.8978 O   0  0  0  0  0  0  0  0  0  0  0  0
   -3.9837    0.5668   -0.4317 C   0  0  0  0  0  0  0  0  0  0  0  0
   -4.8072   -0.5608   -0.3562 C   0  0  0  0  0  0  0  0  0  0  0  0
   -4.2811   -1.7840    0.0471 C   0  0  0  0  0  0  0  0  0  0  0  0
   -2.9232   -1.9118    0.3575 C   0  0  0  0  0  0  0  0  0  0  0  0
   -2.0985   -0.7803    0.2338 C   0  0  0  0  0  0  0  0  0  0  0  0
   -0.4055   -0.6425    0.4864 S   0  0  0  0  0  0  0  0  0  0  0  0
   -0.4461    1.0213    0.0384 C   0  0  0  0  0  0  0  0  0  0  0  0
    0.6211    1.8497   -0.0324 N   0  0  0  0  0  0  0  0  0  0  0  0
    1.9440    1.6158   -0.0358 C   0  0  0  0  0  0  0  0  0  0  0  0
    2.9161    2.4887   -0.1873 N   0  0  0  0  0  0  0  0  0  0  0  0
    4.0962    1.7743   -0.1728 N   0  0  0  0  0  0  0  0  0  0  0  0
    3.7745    0.5040   -0.0104 C   0  0  0  0  0  0  0  0  0  0  0  0
    4.6999   -0.5911    0.0369 C   0  0  0  0  0  0  0  0  0  0  0  0
    4.4058   -1.9081    0.3423 C   0  0  0  0  0  0  0  0  0  0  0  0
    5.5543   -2.7518    0.2857 C   0  0  0  0  0  0  0  0  0  0  0  0
    6.6891   -2.0519   -0.0565 C   0  0  0  0  0  0  0  0  0  0  0  0
    6.3650   -0.3922   -0.3186 S   0  0  0  0  0  0  0  0  0  0  0  0
    2.4133    0.3403    0.0968 O   0  0  0  0  0  0  0  0  0  0  0  0
   -1.6520    1.4755   -0.2229 N   0  0  0  0  0  0  0  0  0  0  0  0
   -2.5991    0.4621   -0.1517 C   0  0  0  0  0  0  0  0  0  0  0  0
   -3.9493    2.7128    0.8901 H   0  0  0  0  0  0  0  0  0  0  0  0
   -5.0055    3.6174   -0.2250 H   0  0  0  0  0  0  0  0  0  0  0  0
   -5.6996    2.2859    0.7365 H   0  0  0  0  0  0  0  0  0  0  0  0
   -5.8582   -0.4799   -0.6218 H   0  0  0  0  0  0  0  0  0  0  0  0
   -4.9316   -2.6556    0.1051 H   0  0  0  0  0  0  0  0  0  0  0  0
   -2.5128   -2.8696    0.6630 H   0  0  0  0  0  0  0  0  0  0  0  0
    0.3699    2.8061   -0.2542 H   0  0  0  0  0  0  0  0  0  0  0  0
    3.4097   -2.2518    0.6027 H   0  0  0  0  0  0  0  0  0  0  0  0
    5.5475   -3.8166    0.4870 H   0  0  0  0  0  0  0  0  0  0  0  0
    7.6947   -2.4331   -0.1714 H   0  0  0  0  0  0  0  0  0  0  0  0
  1  2  1  0
  2  3  1  0
  3  4  2  0
  4  5  1  0
  5  6  2  0
  6  7  1  0
  7  8  1  0
  8  9  1  0
  9 10  1  0
 10 11  1  0
 11 12  2  0
 12 13  1  0
 13 14  2  0
 14 15  1  0
 15 16  2  0
 16 17  1  0
 17 18  2  0
 18 19  1  0
 14 20  1  0
  9 21  2  0
 21 22  1  0
 22  3  1  0
 22  7  2  0
 20 11  1  0
 19 15  1  0
  1 23  1  0
  1 24  1  0
  1 25  1  0
  4 26  1  0
  5 27  1  0
  6 28  1  0
 10 29  1  0
 16 30  1  0
 17 31  1  0
 18 32  1  0
M  END
$$$$
