
     RDKit          3D

 42 43  0  0  0  0  0  0  0  0999 V2000
    5.8380   -1.0449   -0.9369 C   0  0  0  0  0  0  0  0  0  0  0  0
    4.4972   -1.0645   -0.2738 C   0  0  0  0  0  0  0  0  0  0  0  0
    3.9472   -2.5100    0.4431 S   0  0  0  0  0  0  0  0  0  0  0  0
    2.4895   -1.7957    0.9338 C   0  0  0  0  0  0  0  0  0  0  0  0
    1.5878   -2.5325    1.6034 N   0  0  0  0  0  0  0  0  0  0  0  0
    0.4947   -1.8487    1.9210 C   0  0  0  0  0  0  0  0  0  0  0  0
    0.2332   -0.5641    1.6446 N   0  0  0  0  0  0  0  0  0  0  0  0
    1.1749    0.1520    0.9840 C   0  0  0  0  0  0  0  0  0  0  0  0
    0.8425    1.8552    0.6233 S   0  0  0  0  0  0  0  0  0  0  0  0
   -0.4946    2.2416    1.7985 C   0  0  0  0  0  0  0  0  0  0  0  0
   -1.8526    2.0315    1.1513 C   0  0  0  0  0  0  0  0  0  0  0  0
   -2.5409    2.9697    0.7572 O   0  0  0  0  0  0  0  0  0  0  0  0
   -2.2495    0.7143    1.0769 N   0  0  0  0  0  0  0  0  0  0  0  0
   -3.4727    0.2838    0.4149 C   0  0  0  0  0  0  0  0  0  0  0  0
   -4.1069   -0.8469    1.2263 C   0  0  0  0  0  0  0  0  0  0  0  0
   -3.2485   -0.1189   -1.0673 C   0  0  0  0  0  0  0  0  0  0  0  0
   -2.2324   -1.2494   -1.2555 C   0  0  0  0  0  0  0  0  0  0  0  0
   -2.8479    1.0790   -1.9342 C   0  0  0  0  0  0  0  0  0  0  0  0
    2.3800   -0.4586    0.5747 C   0  0  0  0  0  0  0  0  0  0  0  0
    3.5764   -0.0300   -0.1495 C   0  0  0  0  0  0  0  0  0  0  0  0
    3.8070    1.3459   -0.6995 C   0  0  0  0  0  0  0  0  0  0  0  0
    5.7263   -0.8315   -2.0051 H   0  0  0  0  0  0  0  0  0  0  0  0
    6.4686   -0.2683   -0.4923 H   0  0  0  0  0  0  0  0  0  0  0  0
    6.3687   -1.9979   -0.8395 H   0  0  0  0  0  0  0  0  0  0  0  0
   -0.2730   -2.3936    2.4625 H   0  0  0  0  0  0  0  0  0  0  0  0
   -0.4159    1.6755    2.7317 H   0  0  0  0  0  0  0  0  0  0  0  0
   -0.4126    3.3013    2.0635 H   0  0  0  0  0  0  0  0  0  0  0  0
   -1.5292    0.0188    1.2630 H   0  0  0  0  0  0  0  0  0  0  0  0
   -4.1776    1.1250    0.4295 H   0  0  0  0  0  0  0  0  0  0  0  0
   -3.4252   -1.6947    1.3503 H   0  0  0  0  0  0  0  0  0  0  0  0
   -5.0252   -1.2060    0.7506 H   0  0  0  0  0  0  0  0  0  0  0  0
   -4.3648   -0.4949    2.2317 H   0  0  0  0  0  0  0  0  0  0  0  0
   -4.2114   -0.4789   -1.4550 H   0  0  0  0  0  0  0  0  0  0  0  0
   -2.5202   -2.1470   -0.7008 H   0  0  0  0  0  0  0  0  0  0  0  0
   -2.1664   -1.5298   -2.3130 H   0  0  0  0  0  0  0  0  0  0  0  0
   -1.2306   -0.9512   -0.9321 H   0  0  0  0  0  0  0  0  0  0  0  0
   -3.5582    1.9036   -1.8144 H   0  0  0  0  0  0  0  0  0  0  0  0
   -1.8468    1.4455   -1.6849 H   0  0  0  0  0  0  0  0  0  0  0  0
   -2.8417    0.8002   -2.9942 H   0  0  0  0  0  0  0  0  0  0  0  0
    3.0324    1.6024   -1.4277 H   0  0  0  0  0  0  0  0  0  0  0  0
    3.8111    2.0855    0.1068 H   0  0  0  0  0  0  0  0  0  0  0  0
    4.7693    1.4271   -1.2147 H   0  0  0  0  0  0  0  0  0  0  0  0
  1  2  1  0
  2  3  1  0
  3  4  1  0
  4  5  2  0
  5  6  1  0
  6  7  2  0
  7  8  1  0
  8  9  1  0
  9 10  1  0
 10 11  1  0
 11 12  2  0
 11 13  1  0
 13 14  1  0
 14 15  1  0
 14 16  1  0
 16 17  1  0
 16 18  1  0
  8 19  2  0
 19 20  1  0
 20 21  1  0
 20  2  2  0
 19  4  1  0
  1 22  1  0
  1 23  1  0
  1 24  1  0
  6 25  1  0
 10 26  1  0
 10 27  1  0
 13 28  1  0
 14 29  1  0
 15 30  1  0
 15 31  1  0
 15 32  1  0
 16 33  1  0
 17 34  1  0
 17 35  1  0
 17 36  1  0
 18 37  1  0
 18 38  1  0
 18 39  1  0
 21 40  1  0
 21 41  1  0
 21 42  1  0
M  END
$$$$
