
     RDKit          3D

 61 64  0  0  0  0  0  0  0  0999 V2000
    9.1111   -0.1157   -2.4629 C   0  0  0  0  0  0  0  0  0  0  0  0
    7.7604   -0.2453   -1.8235 C   0  0  0  0  0  0  0  0  0  0  0  0
    7.6146   -0.1143   -0.4386 C   0  0  0  0  0  0  0  0  0  0  0  0
    6.3616   -0.2664    0.1591 C   0  0  0  0  0  0  0  0  0  0  0  0
    5.2332   -0.5648   -0.6159 C   0  0  0  0  0  0  0  0  0  0  0  0
    3.8784   -0.7065    0.0315 C   0  0  0  0  0  0  0  0  0  0  0  0
    3.2897    0.5758    0.3856 N   0  0  0  0  0  0  0  0  0  0  0  0
    2.9041    1.5421   -0.6168 C   0  0  0  0  0  0  0  0  0  0  0  0
    2.2895    2.6671    0.1924 C   0  0  0  0  0  0  0  0  0  0  0  0
    0.7715    2.5471    0.2903 C   0  0  0  0  0  0  0  0  0  0  0  0
    0.0677    3.4721   -0.1061 O   0  0  0  0  0  0  0  0  0  0  0  0
    0.3202    1.3585    0.8345 N   0  0  0  0  0  0  0  0  0  0  0  0
   -1.0140    0.9746    1.0828 C   0  0  0  0  0  0  0  0  0  0  0  0
   -2.1228    1.7886    0.8352 C   0  0  0  0  0  0  0  0  0  0  0  0
   -3.4155    1.3319    1.1134 C   0  0  0  0  0  0  0  0  0  0  0  0
   -3.5993    0.0512    1.6370 C   0  0  0  0  0  0  0  0  0  0  0  0
   -5.2470   -0.5114    1.9836 S   0  0  0  0  0  6  0  0  0  0  0  0
   -5.9003    0.5310    2.7459 O   0  0  0  0  0  0  0  0  0  0  0  0
   -5.1723   -1.8701    2.4799 O   0  0  0  0  0  0  0  0  0  0  0  0
   -5.9622   -0.5766    0.4314 N   0  0  0  0  0  0  0  0  0  0  0  0
   -5.3017   -1.4929   -0.5402 C   0  0  0  0  0  0  0  0  0  0  0  0
   -6.1473   -1.6283   -1.8007 C   0  0  0  0  0  0  0  0  0  0  0  0
   -7.5028   -2.2620   -1.4964 C   0  0  0  0  0  0  0  0  0  0  0  0
   -7.9546   -1.9998   -0.0615 C   0  0  0  0  0  0  0  0  0  0  0  0
   -7.4534   -0.6556    0.4484 C   0  0  0  0  0  0  0  0  0  0  0  0
   -2.5044   -0.7716    1.8990 C   0  0  0  0  0  0  0  0  0  0  0  0
   -1.2161   -0.3061    1.6203 C   0  0  0  0  0  0  0  0  0  0  0  0
    2.9745    2.5885    1.5560 C   0  0  0  0  0  0  0  0  0  0  0  0
    3.4727    1.1657    1.6282 C   0  0  0  0  0  0  0  0  0  0  0  0
    3.9462    0.6363    2.6190 O   0  0  0  0  0  0  0  0  0  0  0  0
    5.3835   -0.7074   -2.0016 C   0  0  0  0  0  0  0  0  0  0  0  0
    6.6375   -0.5552   -2.5985 C   0  0  0  0  0  0  0  0  0  0  0  0
    9.7637    0.5373   -1.8738 H   0  0  0  0  0  0  0  0  0  0  0  0
    9.5811   -1.1003   -2.5473 H   0  0  0  0  0  0  0  0  0  0  0  0
    9.0272    0.3252   -3.4620 H   0  0  0  0  0  0  0  0  0  0  0  0
    8.4760    0.1087    0.1870 H   0  0  0  0  0  0  0  0  0  0  0  0
    6.2701   -0.1526    1.2384 H   0  0  0  0  0  0  0  0  0  0  0  0
    3.1784   -1.2203   -0.6375 H   0  0  0  0  0  0  0  0  0  0  0  0
    3.9704   -1.3246    0.9325 H   0  0  0  0  0  0  0  0  0  0  0  0
    2.2186    1.0834   -1.3358 H   0  0  0  0  0  0  0  0  0  0  0  0
    3.8059    1.8877   -1.1338 H   0  0  0  0  0  0  0  0  0  0  0  0
    2.4929    3.6344   -0.2834 H   0  0  0  0  0  0  0  0  0  0  0  0
    1.0210    0.6640    1.0703 H   0  0  0  0  0  0  0  0  0  0  0  0
   -2.0187    2.7914    0.4321 H   0  0  0  0  0  0  0  0  0  0  0  0
   -4.2698    1.9784    0.9225 H   0  0  0  0  0  0  0  0  0  0  0  0
   -4.3292   -1.0754   -0.8205 H   0  0  0  0  0  0  0  0  0  0  0  0
   -5.1368   -2.4801   -0.0941 H   0  0  0  0  0  0  0  0  0  0  0  0
   -6.3034   -0.6353   -2.2418 H   0  0  0  0  0  0  0  0  0  0  0  0
   -5.6206   -2.2271   -2.5521 H   0  0  0  0  0  0  0  0  0  0  0  0
   -8.2451   -1.8716   -2.2031 H   0  0  0  0  0  0  0  0  0  0  0  0
   -7.4578   -3.3451   -1.6629 H   0  0  0  0  0  0  0  0  0  0  0  0
   -7.5760   -2.7986    0.5891 H   0  0  0  0  0  0  0  0  0  0  0  0
   -9.0482   -2.0436   -0.0069 H   0  0  0  0  0  0  0  0  0  0  0  0
   -7.8513   -0.4854    1.4543 H   0  0  0  0  0  0  0  0  0  0  0  0
   -7.8383    0.1587   -0.1775 H   0  0  0  0  0  0  0  0  0  0  0  0
   -2.6404   -1.7644    2.3221 H   0  0  0  0  0  0  0  0  0  0  0  0
   -0.3730   -0.9585    1.8368 H   0  0  0  0  0  0  0  0  0  0  0  0
    3.8418    3.2552    1.5988 H   0  0  0  0  0  0  0  0  0  0  0  0
    2.2994    2.7984    2.3900 H   0  0  0  0  0  0  0  0  0  0  0  0
    4.5264   -0.9409   -2.6289 H   0  0  0  0  0  0  0  0  0  0  0  0
    6.7333   -0.6797   -3.6749 H   0  0  0  0  0  0  0  0  0  0  0  0
  1  2  1  0
  2  3  2  0
  3  4  1  0
  4  5  2  0
  5  6  1  0
  6  7  1  0
  7  8  1  0
  8  9  1  0
  9 10  1  0
 10 11  2  0
 10 12  1  0
 12 13  1  0
 13 14  2  0
 14 15  1  0
 15 16  2  0
 16 17  1  0
 17 18  2  0
 17 19  2  0
 17 20  1  0
 20 21  1  0
 21 22  1  0
 22 23  1  0
 23 24  1  0
 24 25  1  0
 16 26  1  0
 26 27  2  0
  9 28  1  0
 28 29  1  0
 29 30  2  0
  5 31  1  0
 31 32  2  0
 32  2  1  0
 29  7  1  0
 27 13  1  0
 25 20  1  0
  1 33  1  0
  1 34  1  0
  1 35  1  0
  3 36  1  0
  4 37  1  0
  6 38  1  0
  6 39  1  0
  8 40  1  0
  8 41  1  0
  9 42  1  0
 12 43  1  0
 14 44  1  0
 15 45  1  0
 21 46  1  0
 21 47  1  0
 22 48  1  0
 22 49  1  0
 23 50  1  0
 23 51  1  0
 24 52  1  0
 24 53  1  0
 25 54  1  0
 25 55  1  0
 26 56  1  0
 27 57  1  0
 28 58  1  0
 28 59  1  0
 31 60  1  0
 32 61  1  0
M  END
$$$$
