
     RDKit          3D

 45 46  0  0  0  0  0  0  0  0999 V2000
   -2.3590   -2.8269    3.2602 C   0  0  0  0  0  0  0  0  0  0  0  0
   -1.8461   -2.0089    2.2064 O   0  0  0  0  0  0  0  0  0  0  0  0
   -2.7656   -1.1410    1.6771 C   0  0  0  0  0  0  0  0  0  0  0  0
   -3.9298   -1.0703    2.0489 O   0  0  0  0  0  0  0  0  0  0  0  0
   -2.1366   -0.2778    0.5662 C   0  0  0  0  0  0  0  0  0  0  0  0
   -2.9581   -0.4148   -0.7275 C   0  0  0  0  0  0  0  0  0  0  0  0
   -4.0378    0.6356   -0.8521 C   0  0  0  0  0  0  0  0  0  0  0  0
   -5.3652    0.3490   -0.5105 C   0  0  0  0  0  0  0  0  0  0  0  0
   -6.3505    1.3319   -0.6191 C   0  0  0  0  0  0  0  0  0  0  0  0
   -6.0185    2.6087   -1.0683 C   0  0  0  0  0  0  0  0  0  0  0  0
   -4.7000    2.9056   -1.4066 C   0  0  0  0  0  0  0  0  0  0  0  0
   -3.7133    1.9250   -1.2979 C   0  0  0  0  0  0  0  0  0  0  0  0
   -0.7329   -0.6629    0.3414 N   0  0  0  0  0  0  0  0  0  0  0  0
    0.1591    0.1812   -0.2783 C   0  0  0  0  0  0  0  0  0  0  0  0
   -0.1707    1.2451   -0.7899 O   0  0  0  0  0  0  0  0  0  0  0  0
    1.5693   -0.3621   -0.3102 C   0  0  0  0  0  0  0  0  0  0  0  0
    2.5567    0.7060   -0.7637 C   0  0  0  0  0  0  0  0  0  0  0  0
    3.9103    0.1942   -0.8897 N   0  0  0  0  0  0  0  0  0  0  0  0
    4.6916   -0.0878    0.2186 C   0  0  0  0  0  0  0  0  0  0  0  0
    4.2362    0.0137    1.3560 O   0  0  0  0  0  0  0  0  0  0  0  0
    6.0507   -0.5085   -0.0743 C   0  0  0  0  0  0  0  0  0  0  0  0
    6.7587   -0.7008   -1.2503 C   0  0  0  0  0  0  0  0  0  0  0  0
    8.0622   -1.1217   -0.8859 C   0  0  0  0  0  0  0  0  0  0  0  0
    8.0784   -1.1643    0.4861 C   0  0  0  0  0  0  0  0  0  0  0  0
    6.8725   -0.7985    0.9855 O   0  0  0  0  0  0  0  0  0  0  0  0
   -1.5484   -3.4700    3.6138 H   0  0  0  0  0  0  0  0  0  0  0  0
   -3.1698   -3.4626    2.8910 H   0  0  0  0  0  0  0  0  0  0  0  0
   -2.6991   -2.2073    4.0958 H   0  0  0  0  0  0  0  0  0  0  0  0
   -2.1186    0.7547    0.9364 H   0  0  0  0  0  0  0  0  0  0  0  0
   -3.4065   -1.4148   -0.7992 H   0  0  0  0  0  0  0  0  0  0  0  0
   -2.3146   -0.3297   -1.6133 H   0  0  0  0  0  0  0  0  0  0  0  0
   -5.6414   -0.6382   -0.1460 H   0  0  0  0  0  0  0  0  0  0  0  0
   -7.3771    1.1012   -0.3472 H   0  0  0  0  0  0  0  0  0  0  0  0
   -6.7863    3.3731   -1.1501 H   0  0  0  0  0  0  0  0  0  0  0  0
   -4.4373    3.9017   -1.7526 H   0  0  0  0  0  0  0  0  0  0  0  0
   -2.6854    2.1726   -1.5601 H   0  0  0  0  0  0  0  0  0  0  0  0
   -0.3759   -1.4265    0.9085 H   0  0  0  0  0  0  0  0  0  0  0  0
    1.8305   -0.7309    0.6876 H   0  0  0  0  0  0  0  0  0  0  0  0
    1.5924   -1.2151   -0.9986 H   0  0  0  0  0  0  0  0  0  0  0  0
    2.2773    1.1026   -1.7461 H   0  0  0  0  0  0  0  0  0  0  0  0
    2.5673    1.5440   -0.0569 H   0  0  0  0  0  0  0  0  0  0  0  0
    4.3246    0.1687   -1.8094 H   0  0  0  0  0  0  0  0  0  0  0  0
    6.3905   -0.5582   -2.2558 H   0  0  0  0  0  0  0  0  0  0  0  0
    8.8874   -1.3638   -1.5411 H   0  0  0  0  0  0  0  0  0  0  0  0
    8.8290   -1.4207    1.2211 H   0  0  0  0  0  0  0  0  0  0  0  0
  1  2  1  0
  2  3  1  0
  3  4  2  0
  3  5  1  0
  5  6  1  0
  6  7  1  0
  7  8  2  0
  8  9  1  0
  9 10  2  0
 10 11  1  0
 11 12  2  0
  5 13  1  0
 13 14  1  0
 14 15  2  0
 14 16  1  0
 16 17  1  0
 17 18  1  0
 18 19  1  0
 19 20  2  0
 19 21  1  0
 21 22  2  0
 22 23  1  0
 23 24  2  0
 24 25  1  0
 12  7  1  0
 25 21  1  0
  1 26  1  0
  1 27  1  0
  1 28  1  0
  5 29  1  0
  6 30  1  0
  6 31  1  0
  8 32  1  0
  9 33  1  0
 10 34  1  0
 11 35  1  0
 12 36  1  0
 13 37  1  0
 16 38  1  0
 16 39  1  0
 17 40  1  0
 17 41  1  0
 18 42  1  0
 22 43  1  0
 23 44  1  0
 24 45  1  0
M  END
$$$$
