
     RDKit          3D

 62 64  0  0  0  0  0  0  0  0999 V2000
   -5.0636    1.3884   -2.5011 C   0  0  0  0  0  0  0  0  0  0  0  0
   -3.9453    0.7063   -1.7527 C   0  0  0  0  0  0  0  0  0  0  0  0
   -2.6607    0.8997   -2.3136 C   0  0  0  0  0  0  0  0  0  0  0  0
   -1.5204    0.3522   -1.7390 C   0  0  0  0  0  0  0  0  0  0  0  0
   -0.3139    0.5863   -2.4169 O   0  0  0  0  0  0  0  0  0  0  0  0
    0.8713    0.0303   -1.9740 C   0  0  0  0  0  0  0  0  0  0  0  0
    1.9165    0.1960   -2.5977 O   0  0  0  0  0  0  0  0  0  0  0  0
    0.8405   -0.7590   -0.7077 C   0  0  0  0  0  0  0  0  0  0  0  0
    2.1981   -1.3070   -0.3346 C   0  0  0  0  0  0  0  0  0  0  0  0
    3.0336   -0.2194    0.3212 C   0  0  0  0  0  0  0  0  0  0  0  0
    2.9736    0.0185    1.5242 O   0  0  0  0  0  0  0  0  0  0  0  0
    3.8394    0.4731   -0.5573 N   0  0  0  0  0  0  0  0  0  0  0  0
    4.6609    1.5921   -0.1430 C   0  0  0  0  0  0  0  0  0  0  0  0
    6.1480    1.2402   -0.1320 C   0  0  0  0  0  0  0  0  0  0  0  0
    6.5140    0.3092    1.0344 C   0  0  0  0  0  0  0  0  0  0  0  0
    7.9335   -0.0695    1.1461 N   0  0  0  0  0  0  0  0  0  0  0  0
    8.8104    1.0674    1.4064 C   0  0  0  0  0  0  0  0  0  0  0  0
    8.4049   -0.8521    0.0097 C   0  0  0  0  0  0  0  0  0  0  0  0
   -0.3047   -0.9486   -0.0126 C   0  0  0  0  0  0  0  0  0  0  0  0
   -0.3565   -1.6685    1.3098 C   0  0  0  0  0  0  0  0  0  0  0  0
   -1.5531   -0.3971   -0.5730 C   0  0  0  0  0  0  0  0  0  0  0  0
   -2.8368   -0.5803   -0.0240 C   0  0  0  0  0  0  0  0  0  0  0  0
   -3.0962   -1.3020    1.0986 O   0  0  0  0  0  0  0  0  0  0  0  0
   -4.4162   -1.2547    1.3295 C   0  0  0  0  0  0  0  0  0  0  0  0
   -5.0859   -0.5002    0.3797 C   0  0  0  0  0  0  0  0  0  0  0  0
   -6.6014   -0.2716    0.3998 C   0  0  0  0  0  0  0  0  0  0  0  0
   -6.9489    1.2282    0.3949 C   0  0  0  0  0  0  0  0  0  0  0  0
   -7.2795   -1.0279   -0.7589 C   0  0  0  0  0  0  0  0  0  0  0  0
   -7.2538   -0.8280    1.7023 C   0  0  0  0  0  0  0  0  0  0  0  0
   -4.0392   -0.0598   -0.5470 C   0  0  0  0  0  0  0  0  0  0  0  0
   -4.8784    1.3617   -3.5822 H   0  0  0  0  0  0  0  0  0  0  0  0
   -6.0247    0.9071   -2.3520 H   0  0  0  0  0  0  0  0  0  0  0  0
   -5.1319    2.4363   -2.1900 H   0  0  0  0  0  0  0  0  0  0  0  0
   -2.5516    1.4845   -3.2298 H   0  0  0  0  0  0  0  0  0  0  0  0
    2.1487   -2.1602    0.3494 H   0  0  0  0  0  0  0  0  0  0  0  0
    2.7196   -1.7004   -1.2167 H   0  0  0  0  0  0  0  0  0  0  0  0
    3.6073    0.4008   -1.5485 H   0  0  0  0  0  0  0  0  0  0  0  0
    4.3388    1.9638    0.8349 H   0  0  0  0  0  0  0  0  0  0  0  0
    4.4843    2.3893   -0.8734 H   0  0  0  0  0  0  0  0  0  0  0  0
    6.4185    0.7805   -1.0905 H   0  0  0  0  0  0  0  0  0  0  0  0
    6.7135    2.1743   -0.0469 H   0  0  0  0  0  0  0  0  0  0  0  0
    6.2052    0.7808    1.9778 H   0  0  0  0  0  0  0  0  0  0  0  0
    5.9226   -0.6128    0.9702 H   0  0  0  0  0  0  0  0  0  0  0  0
    8.8879    1.7478    0.5520 H   0  0  0  0  0  0  0  0  0  0  0  0
    9.8199    0.7181    1.6506 H   0  0  0  0  0  0  0  0  0  0  0  0
    8.4620    1.6393    2.2753 H   0  0  0  0  0  0  0  0  0  0  0  0
    7.7662   -1.7285   -0.1481 H   0  0  0  0  0  0  0  0  0  0  0  0
    9.4153   -1.2344    0.2027 H   0  0  0  0  0  0  0  0  0  0  0  0
    8.4382   -0.2741   -0.9196 H   0  0  0  0  0  0  0  0  0  0  0  0
   -0.8400   -1.0486    2.0722 H   0  0  0  0  0  0  0  0  0  0  0  0
    0.6291   -1.9021    1.7205 H   0  0  0  0  0  0  0  0  0  0  0  0
   -0.8944   -2.6146    1.2101 H   0  0  0  0  0  0  0  0  0  0  0  0
   -4.7368   -1.8012    2.2075 H   0  0  0  0  0  0  0  0  0  0  0  0
   -6.5521    1.7664   -0.4610 H   0  0  0  0  0  0  0  0  0  0  0  0
   -6.5456    1.7255    1.2869 H   0  0  0  0  0  0  0  0  0  0  0  0
   -8.0343    1.3814    0.3904 H   0  0  0  0  0  0  0  0  0  0  0  0
   -7.1766   -2.1138   -0.6272 H   0  0  0  0  0  0  0  0  0  0  0  0
   -6.8469   -0.8025   -1.7361 H   0  0  0  0  0  0  0  0  0  0  0  0
   -8.3506   -0.8009   -0.8061 H   0  0  0  0  0  0  0  0  0  0  0  0
   -6.8331   -0.3527    2.5986 H   0  0  0  0  0  0  0  0  0  0  0  0
   -7.1130   -1.9111    1.7995 H   0  0  0  0  0  0  0  0  0  0  0  0
   -8.3357   -0.6421    1.7102 H   0  0  0  0  0  0  0  0  0  0  0  0
  1  2  1  0
  2  3  2  0
  3  4  1  0
  4  5  1  0
  5  6  1  0
  6  7  2  0
  6  8  1  0
  8  9  1  0
  9 10  1  0
 10 11  2  0
 10 12  1  0
 12 13  1  0
 13 14  1  0
 14 15  1  0
 15 16  1  0
 16 17  1  0
 16 18  1  0
  8 19  2  0
 19 20  1  0
 19 21  1  0
 21 22  1  0
 22 23  1  0
 23 24  1  0
 24 25  2  0
 25 26  1  0
 26 27  1  0
 26 28  1  0
 26 29  1  0
 25 30  1  0
 30  2  1  0
 21  4  2  0
 30 22  2  0
  1 31  1  0
  1 32  1  0
  1 33  1  0
  3 34  1  0
  9 35  1  0
  9 36  1  0
 12 37  1  0
 13 38  1  0
 13 39  1  0
 14 40  1  0
 14 41  1  0
 15 42  1  0
 15 43  1  0
 17 44  1  0
 17 45  1  0
 17 46  1  0
 18 47  1  0
 18 48  1  0
 18 49  1  0
 20 50  1  0
 20 51  1  0
 20 52  1  0
 24 53  1  0
 27 54  1  0
 27 55  1  0
 27 56  1  0
 28 57  1  0
 28 58  1  0
 28 59  1  0
 29 60  1  0
 29 61  1  0
 29 62  1  0
M  END
$$$$
