
     RDKit          3D

 37 39  0  0  0  0  0  0  0  0999 V2000
   -0.2012   -3.0706   -1.9760 C   0  0  0  0  0  0  0  0  0  0  0  0
   -0.8138   -2.2614   -2.9763 O   0  0  0  0  0  0  0  0  0  0  0  0
   -1.3144   -1.0490   -2.5089 C   0  0  0  0  0  0  0  0  0  0  0  0
   -2.3402   -0.5176   -3.2989 C   0  0  0  0  0  0  0  0  0  0  0  0
   -2.9485    0.6893   -2.9664 C   0  0  0  0  0  0  0  0  0  0  0  0
   -2.5425    1.4190   -1.8427 C   0  0  0  0  0  0  0  0  0  0  0  0
   -3.0835    2.6140   -1.4464 O   0  0  0  0  0  0  0  0  0  0  0  0
   -4.2311    3.0763   -2.1468 C   0  0  0  0  0  0  0  0  0  0  0  0
   -1.4845    0.8859   -1.0699 C   0  0  0  0  0  0  0  0  0  0  0  0
   -0.7489    1.5410    0.3442 S   0  0  0  0  0  0  0  0  0  0  0  0
    0.3475    0.2122    0.4373 C   0  0  0  0  0  0  0  0  0  0  0  0
    1.3009    0.0779    1.4053 N   0  0  0  0  0  0  0  0  0  0  0  0
    1.6025    1.1323    2.3730 C   0  0  0  0  0  0  0  0  0  0  0  0
    3.0614    1.0523    2.8190 C   0  0  0  0  0  0  0  0  0  0  0  0
    3.4113   -0.3027    3.4255 C   0  0  0  0  0  0  0  0  0  0  0  0
    2.5272   -1.4322    2.8996 C   0  0  0  0  0  0  0  0  0  0  0  0
    2.0522   -1.1729    1.4715 C   0  0  0  0  0  0  0  0  0  0  0  0
    0.1690   -0.6775   -0.5122 N   0  0  0  0  0  0  0  0  0  0  0  0
   -0.8598   -0.3236   -1.3763 C   0  0  0  0  0  0  0  0  0  0  0  0
   -0.7931   -3.1035   -1.0534 H   0  0  0  0  0  0  0  0  0  0  0  0
   -0.1473   -4.0913   -2.3636 H   0  0  0  0  0  0  0  0  0  0  0  0
    0.8225   -2.7430   -1.7798 H   0  0  0  0  0  0  0  0  0  0  0  0
   -2.6689   -1.0611   -4.1784 H   0  0  0  0  0  0  0  0  0  0  0  0
   -3.7463    1.0424   -3.6094 H   0  0  0  0  0  0  0  0  0  0  0  0
   -3.9784    3.3343   -3.1810 H   0  0  0  0  0  0  0  0  0  0  0  0
   -4.5823    3.9878   -1.6464 H   0  0  0  0  0  0  0  0  0  0  0  0
   -5.0474    2.3432   -2.1083 H   0  0  0  0  0  0  0  0  0  0  0  0
    1.4520    2.1281    1.9470 H   0  0  0  0  0  0  0  0  0  0  0  0
    0.9336    1.0350    3.2389 H   0  0  0  0  0  0  0  0  0  0  0  0
    3.2836    1.8488    3.5375 H   0  0  0  0  0  0  0  0  0  0  0  0
    3.7088    1.2284    1.9512 H   0  0  0  0  0  0  0  0  0  0  0  0
    4.4645   -0.5216    3.2137 H   0  0  0  0  0  0  0  0  0  0  0  0
    3.3221   -0.2585    4.5172 H   0  0  0  0  0  0  0  0  0  0  0  0
    3.0709   -2.3780    2.9492 H   0  0  0  0  0  0  0  0  0  0  0  0
    1.6532   -1.5353    3.5568 H   0  0  0  0  0  0  0  0  0  0  0  0
    1.4364   -2.0259    1.1638 H   0  0  0  0  0  0  0  0  0  0  0  0
    2.9121   -1.1226    0.7906 H   0  0  0  0  0  0  0  0  0  0  0  0
  1  2  1  0
  2  3  1  0
  3  4  2  0
  4  5  1  0
  5  6  2  0
  6  7  1  0
  7  8  1  0
  6  9  1  0
  9 10  1  0
 10 11  1  0
 11 12  1  0
 12 13  1  0
 13 14  1  0
 14 15  1  0
 15 16  1  0
 16 17  1  0
 11 18  2  0
 18 19  1  0
 19  3  1  0
 19  9  2  0
 17 12  1  0
  1 20  1  0
  1 21  1  0
  1 22  1  0
  4 23  1  0
  5 24  1  0
  8 25  1  0
  8 26  1  0
  8 27  1  0
 13 28  1  0
 13 29  1  0
 14 30  1  0
 14 31  1  0
 15 32  1  0
 15 33  1  0
 16 34  1  0
 16 35  1  0
 17 36  1  0
 17 37  1  0
M  END
$$$$
