
     RDKit          3D

 43 46  0  0  0  0  0  0  0  0999 V2000
    2.4193    1.3381    1.3609 O   0  0  0  0  0  0  0  0  0  0  0  0
    2.8207    0.6758    0.4058 C   0  0  0  0  0  0  0  0  0  0  0  0
    4.2624    0.3926    0.2933 C   0  0  0  0  0  0  0  0  0  0  0  0
    5.1753    0.8993    1.2245 C   0  0  0  0  0  0  0  0  0  0  0  0
    6.5336    0.6084    1.0907 C   0  0  0  0  0  0  0  0  0  0  0  0
    6.9751   -0.1863    0.0315 C   0  0  0  0  0  0  0  0  0  0  0  0
    6.0610   -0.6921   -0.8957 C   0  0  0  0  0  0  0  0  0  0  0  0
    4.7041   -0.3975   -0.7583 C   0  0  0  0  0  0  0  0  0  0  0  0
    3.7862   -0.9016   -1.6758 N   0  0  0  0  0  0  0  0  0  0  0  0
    2.4399   -0.6607   -1.6269 C   0  0  0  0  0  0  0  0  0  0  0  0
    1.5172   -1.3831   -2.8289 S   0  0  0  0  0  0  0  0  0  0  0  0
    1.9823    0.1545   -0.5927 N   0  0  0  0  0  0  0  0  0  0  0  0
    0.5513    0.4647   -0.4270 C   0  0  0  0  0  0  0  0  0  0  0  0
   -0.1520   -0.5620    0.4895 C   0  0  0  0  0  0  0  0  0  0  0  0
   -1.5980   -0.4042    0.7084 N   0  0  0  0  0  0  0  0  0  0  0  0
   -1.9553    0.8932    1.2922 C   0  0  0  0  0  0  0  0  0  0  0  0
   -3.4073    0.8704    1.7899 C   0  0  0  0  0  0  0  0  0  0  0  0
   -4.3639    0.3204    0.7616 C   0  0  0  0  0  0  0  0  0  0  0  0
   -5.7430    0.5238    0.9030 C   0  0  0  0  0  0  0  0  0  0  0  0
   -6.6330   -0.0142   -0.0260 C   0  0  0  0  0  0  0  0  0  0  0  0
   -6.1534   -0.7638   -1.0977 C   0  0  0  0  0  0  0  0  0  0  0  0
   -4.7825   -0.9803   -1.2404 C   0  0  0  0  0  0  0  0  0  0  0  0
   -3.8770   -0.4526   -0.3080 C   0  0  0  0  0  0  0  0  0  0  0  0
   -2.3887   -0.6607   -0.5055 C   0  0  0  0  0  0  0  0  0  0  0  0
    4.8317    1.5173    2.0514 H   0  0  0  0  0  0  0  0  0  0  0  0
    7.2465    1.0004    1.8126 H   0  0  0  0  0  0  0  0  0  0  0  0
    8.0342   -0.4127   -0.0706 H   0  0  0  0  0  0  0  0  0  0  0  0
    6.4202   -1.3103   -1.7138 H   0  0  0  0  0  0  0  0  0  0  0  0
    4.1112   -1.4885   -2.4365 H   0  0  0  0  0  0  0  0  0  0  0  0
    0.4580    1.4699    0.0006 H   0  0  0  0  0  0  0  0  0  0  0  0
    0.0704    0.5105   -1.4072 H   0  0  0  0  0  0  0  0  0  0  0  0
    0.0300   -1.5752    0.1087 H   0  0  0  0  0  0  0  0  0  0  0  0
    0.3391   -0.5501    1.4716 H   0  0  0  0  0  0  0  0  0  0  0  0
   -1.8285    1.7014    0.5598 H   0  0  0  0  0  0  0  0  0  0  0  0
   -1.3070    1.1232    2.1465 H   0  0  0  0  0  0  0  0  0  0  0  0
   -3.4764    0.2454    2.6893 H   0  0  0  0  0  0  0  0  0  0  0  0
   -3.7024    1.8898    2.0654 H   0  0  0  0  0  0  0  0  0  0  0  0
   -6.1288    1.1000    1.7406 H   0  0  0  0  0  0  0  0  0  0  0  0
   -7.7012    0.1488    0.0884 H   0  0  0  0  0  0  0  0  0  0  0  0
   -6.8474   -1.1819   -1.8219 H   0  0  0  0  0  0  0  0  0  0  0  0
   -4.4216   -1.5657   -2.0831 H   0  0  0  0  0  0  0  0  0  0  0  0
   -2.2233   -1.6995   -0.8167 H   0  0  0  0  0  0  0  0  0  0  0  0
   -2.0787   -0.0050   -1.3278 H   0  0  0  0  0  0  0  0  0  0  0  0
  1  2  2  0
  2  3  1  0
  3  4  2  0
  4  5  1  0
  5  6  2  0
  6  7  1  0
  7  8  2  0
  8  9  1  0
  9 10  1  0
 10 11  2  0
 10 12  1  0
 12 13  1  0
 13 14  1  0
 14 15  1  0
 15 16  1  0
 16 17  1  0
 17 18  1  0
 18 19  2  0
 19 20  1  0
 20 21  2  0
 21 22  1  0
 22 23  2  0
 23 24  1  0
 12  2  1  0
 24 15  1  0
  8  3  1  0
 23 18  1  0
  4 25  1  0
  5 26  1  0
  6 27  1  0
  7 28  1  0
  9 29  1  0
 13 30  1  0
 13 31  1  0
 14 32  1  0
 14 33  1  0
 16 34  1  0
 16 35  1  0
 17 36  1  0
 17 37  1  0
 19 38  1  0
 20 39  1  0
 21 40  1  0
 22 41  1  0
 24 42  1  0
 24 43  1  0
M  END
$$$$
