
     RDKit          3D

 42 45  0  0  0  0  0  0  0  0999 V2000
   -1.4667    1.1534   -0.7321 O   0  0  0  0  0  0  0  0  0  0  0  0
   -1.8733    1.2228    0.4192 C   0  0  0  0  0  0  0  0  0  0  0  0
   -1.0069    1.3960    1.6206 C   0  0  0  0  0  0  0  0  0  0  0  0
    0.3259    1.4928    1.7205 C   0  0  0  0  0  0  0  0  0  0  0  0
    1.2637    1.4957    0.6548 C   0  0  0  0  0  0  0  0  0  0  0  0
    1.2601    2.1171   -0.5881 C   0  0  0  0  0  0  0  0  0  0  0  0
    2.4811    1.8129   -1.2372 C   0  0  0  0  0  0  0  0  0  0  0  0
    3.2046    1.0504   -0.3509 C   0  0  0  0  0  0  0  0  0  0  0  0
    4.5074    0.4020   -0.4017 C   0  0  0  0  0  0  0  0  0  0  0  0
    4.8251   -0.3667   -1.5362 C   0  0  0  0  0  0  0  0  0  0  0  0
    6.0559   -1.0191   -1.6442 C   0  0  0  0  0  0  0  0  0  0  0  0
    6.9926   -0.9099   -0.6212 C   0  0  0  0  0  0  0  0  0  0  0  0
    6.7002   -0.1446    0.5072 C   0  0  0  0  0  0  0  0  0  0  0  0
    5.4672    0.5114    0.6197 C   0  0  0  0  0  0  0  0  0  0  0  0
    5.2253    1.4828    2.0331 Cl  0  0  0  0  0  0  0  0  0  0  0  0
    2.4776    0.8550    0.7814 O   0  0  0  0  0  0  0  0  0  0  0  0
   -2.0042    1.4160    3.0369 S   0  0  0  0  0  0  0  0  0  0  0  0
   -3.4992    1.2707    2.1243 C   0  0  0  0  0  0  0  0  0  0  0  0
   -4.9859    1.3415    2.8778 S   0  0  0  0  0  0  0  0  0  0  0  0
   -3.2093    1.1411    0.7824 N   0  0  0  0  0  0  0  0  0  0  0  0
   -4.2099    0.9274   -0.2707 C   0  0  0  0  0  0  0  0  0  0  0  0
   -4.5089   -0.5496   -0.5760 C   0  0  0  0  0  0  0  0  0  0  0  0
   -3.3514   -1.4060   -1.0616 C   0  0  0  0  0  0  0  0  0  0  0  0
   -3.8839   -2.7935   -0.7940 C   0  0  0  0  0  0  0  0  0  0  0  0
   -4.6013   -2.6024    0.5267 C   0  0  0  0  0  0  0  0  0  0  0  0
   -5.0379   -1.2347    0.5727 O   0  0  0  0  0  0  0  0  0  0  0  0
    0.7773    1.5393    2.7098 H   0  0  0  0  0  0  0  0  0  0  0  0
    0.4611    2.7265   -0.9876 H   0  0  0  0  0  0  0  0  0  0  0  0
    2.7975    2.1271   -2.2215 H   0  0  0  0  0  0  0  0  0  0  0  0
    4.1023   -0.4753   -2.3431 H   0  0  0  0  0  0  0  0  0  0  0  0
    6.2792   -1.6148   -2.5262 H   0  0  0  0  0  0  0  0  0  0  0  0
    7.9512   -1.4166   -0.7018 H   0  0  0  0  0  0  0  0  0  0  0  0
    7.4413   -0.0560    1.2981 H   0  0  0  0  0  0  0  0  0  0  0  0
   -3.8667    1.4183   -1.1891 H   0  0  0  0  0  0  0  0  0  0  0  0
   -5.1400    1.4225    0.0262 H   0  0  0  0  0  0  0  0  0  0  0  0
   -5.3025   -0.5720   -1.3353 H   0  0  0  0  0  0  0  0  0  0  0  0
   -3.1008   -1.2311   -2.1111 H   0  0  0  0  0  0  0  0  0  0  0  0
   -2.4513   -1.2620   -0.4567 H   0  0  0  0  0  0  0  0  0  0  0  0
   -3.1082   -3.5625   -0.7501 H   0  0  0  0  0  0  0  0  0  0  0  0
   -4.6014   -3.0752   -1.5739 H   0  0  0  0  0  0  0  0  0  0  0  0
   -3.9248   -2.7626    1.3727 H   0  0  0  0  0  0  0  0  0  0  0  0
   -5.4621   -3.2679    0.6363 H   0  0  0  0  0  0  0  0  0  0  0  0
  1  2  2  0
  2  3  1  0
  3  4  2  3
  4  5  1  0
  5  6  2  0
  6  7  1  0
  7  8  2  0
  8  9  1  0
  9 10  2  0
 10 11  1  0
 11 12  2  0
 12 13  1  0
 13 14  2  0
 14 15  1  0
  8 16  1  0
  3 17  1  0
 17 18  1  0
 18 19  2  0
 18 20  1  0
 20 21  1  0
 21 22  1  0
 22 23  1  0
 23 24  1  0
 24 25  1  0
 25 26  1  0
 20  2  1  0
 26 22  1  0
 16  5  1  0
 14  9  1  0
  4 27  1  0
  6 28  1  0
  7 29  1  0
 10 30  1  0
 11 31  1  0
 12 32  1  0
 13 33  1  0
 21 34  1  0
 21 35  1  0
 22 36  1  0
 23 37  1  0
 23 38  1  0
 24 39  1  0
 24 40  1  0
 25 41  1  0
 25 42  1  0
M  END
$$$$
