
     RDKit          3D

 48 50  0  0  0  0  0  0  0  0999 V2000
    3.1036    1.0628    1.1430 C   0  0  0  0  0  0  0  0  0  0  0  0
    1.7761    0.9119    1.0189 C   0  0  0  0  0  0  0  0  0  0  0  0
    0.7582    1.6551    1.7748 C   0  0  0  0  0  0  0  0  0  0  0  0
    1.0108    2.6391    2.8510 C   0  0  0  0  0  0  0  0  0  0  0  0
    2.1074    2.9146    3.3129 O   0  0  0  0  0  0  0  0  0  0  0  0
   -0.1619    3.2030    3.2648 O   0  0  0  0  0  0  0  0  0  0  0  0
   -0.0018    4.1741    4.3026 C   0  0  0  0  0  0  0  0  0  0  0  0
   -0.4531    1.2779    1.3151 C   0  0  0  0  0  0  0  0  0  0  0  0
   -1.6874    1.7007    1.7179 O   0  0  0  0  0  0  0  0  0  0  0  0
   -0.3101    0.2661    0.2661 C   0  0  0  0  0  0  0  0  0  0  0  0
   -1.2973   -0.3790   -0.3860 C   0  0  0  0  0  0  0  0  0  0  0  0
   -2.7405   -0.1853   -0.2301 C   0  0  0  0  0  0  0  0  0  0  0  0
   -3.3982    0.8308   -0.9327 C   0  0  0  0  0  0  0  0  0  0  0  0
   -4.7770    0.9990   -0.7937 C   0  0  0  0  0  0  0  0  0  0  0  0
   -5.4926    0.1518    0.0444 C   0  0  0  0  0  0  0  0  0  0  0  0
   -6.8376    0.3509    0.1508 O   0  0  0  0  0  0  0  0  0  0  0  0
   -4.8533   -0.8640    0.7491 C   0  0  0  0  0  0  0  0  0  0  0  0
   -3.4734   -1.0324    0.6095 C   0  0  0  0  0  0  0  0  0  0  0  0
    1.0778    0.0785    0.1277 N   0  0  0  0  0  0  0  0  0  0  0  0
    1.6896   -0.7941   -0.8113 C   0  0  0  0  0  0  0  0  0  0  0  0
    1.4707   -0.6362   -2.1887 C   0  0  0  0  0  0  0  0  0  0  0  0
    2.0560   -1.5028   -3.1213 C   0  0  0  0  0  0  0  0  0  0  0  0
    1.8306   -1.2986   -4.5900 C   0  0  0  0  0  0  0  0  0  0  0  0
    2.8985   -2.5245   -2.6672 C   0  0  0  0  0  0  0  0  0  0  0  0
    3.1464   -2.6943   -1.2998 C   0  0  0  0  0  0  0  0  0  0  0  0
    4.0143   -3.8183   -0.8170 C   0  0  0  0  0  0  0  0  0  0  0  0
    2.5270   -1.8353   -0.3823 C   0  0  0  0  0  0  0  0  0  0  0  0
    3.7972    0.5074    0.5212 H   0  0  0  0  0  0  0  0  0  0  0  0
    3.5554    1.7508    1.8483 H   0  0  0  0  0  0  0  0  0  0  0  0
    0.6249    5.0032    3.9592 H   0  0  0  0  0  0  0  0  0  0  0  0
   -0.9912    4.5681    4.5504 H   0  0  0  0  0  0  0  0  0  0  0  0
    0.4202    3.7099    5.1992 H   0  0  0  0  0  0  0  0  0  0  0  0
   -1.5621    2.3820    2.4049 H   0  0  0  0  0  0  0  0  0  0  0  0
   -1.0509   -1.1493   -1.1116 H   0  0  0  0  0  0  0  0  0  0  0  0
   -2.8409    1.4986   -1.5841 H   0  0  0  0  0  0  0  0  0  0  0  0
   -5.2886    1.7891   -1.3350 H   0  0  0  0  0  0  0  0  0  0  0  0
   -7.1976   -0.3073    0.7674 H   0  0  0  0  0  0  0  0  0  0  0  0
   -5.4041   -1.5280    1.4070 H   0  0  0  0  0  0  0  0  0  0  0  0
   -2.9708   -1.8224    1.1622 H   0  0  0  0  0  0  0  0  0  0  0  0
    0.8417    0.1813   -2.5354 H   0  0  0  0  0  0  0  0  0  0  0  0
    0.8378   -0.8765   -4.7776 H   0  0  0  0  0  0  0  0  0  0  0  0
    2.5868   -0.6184   -4.9936 H   0  0  0  0  0  0  0  0  0  0  0  0
    1.8855   -2.2498   -5.1297 H   0  0  0  0  0  0  0  0  0  0  0  0
    3.3663   -3.1948   -3.3861 H   0  0  0  0  0  0  0  0  0  0  0  0
    4.5439   -3.5357    0.0989 H   0  0  0  0  0  0  0  0  0  0  0  0
    3.4029   -4.7029   -0.6147 H   0  0  0  0  0  0  0  0  0  0  0  0
    4.7728   -4.0760   -1.5636 H   0  0  0  0  0  0  0  0  0  0  0  0
    2.6879   -1.9807    0.6840 H   0  0  0  0  0  0  0  0  0  0  0  0
  1  2  2  0
  2  3  1  0
  3  4  1  0
  4  5  2  0
  4  6  1  0
  6  7  1  0
  3  8  2  0
  8  9  1  0
  8 10  1  0
 10 11  2  3
 11 12  1  0
 12 13  2  0
 13 14  1  0
 14 15  2  0
 15 16  1  0
 15 17  1  0
 17 18  2  0
 10 19  1  0
 19 20  1  0
 20 21  2  0
 21 22  1  0
 22 23  1  0
 22 24  2  0
 24 25  1  0
 25 26  1  0
 25 27  2  0
 19  2  1  0
 27 20  1  0
 18 12  1  0
  1 28  1  0
  1 29  1  0
  7 30  1  0
  7 31  1  0
  7 32  1  0
  9 33  1  0
 11 34  1  0
 13 35  1  0
 14 36  1  0
 16 37  1  0
 17 38  1  0
 18 39  1  0
 21 40  1  0
 23 41  1  0
 23 42  1  0
 23 43  1  0
 24 44  1  0
 26 45  1  0
 26 46  1  0
 26 47  1  0
 27 48  1  0
M  END
$$$$
