
     RDKit          3D

 48 49  0  0  0  0  0  0  0  0999 V2000
    0.6894    3.3245    0.7612 C   0  0  0  0  0  0  0  0  0  0  0  0
    1.4803    2.1611    0.5559 O   0  0  0  0  0  0  0  0  0  0  0  0
    0.8479    0.9471    0.6331 C   0  0  0  0  0  0  0  0  0  0  0  0
   -0.5344    0.7775    0.7650 C   0  0  0  0  0  0  0  0  0  0  0  0
   -1.1031   -0.5062    0.8582 C   0  0  0  0  0  0  0  0  0  0  0  0
   -2.6021   -0.6626    0.9973 C   0  0  0  0  0  0  0  0  0  0  0  0
   -3.2646   -0.2589   -0.2402 N   0  0  0  0  0  0  0  0  0  0  0  0
   -4.7398   -0.3719   -0.2517 C   0  0  0  0  0  0  0  0  0  0  0  0
   -5.1839    0.2227   -1.6053 C   0  0  0  0  0  0  0  0  0  0  0  0
   -5.3817    0.4741    0.8636 C   0  0  0  0  0  0  0  0  0  0  0  0
   -5.2211   -1.8482   -0.1509 C   0  0  0  0  0  0  0  0  0  0  0  0
   -6.6350   -1.9774   -0.2654 O   0  0  0  0  0  0  0  0  0  0  0  0
   -0.2674   -1.6291    0.8137 C   0  0  0  0  0  0  0  0  0  0  0  0
    1.1129   -1.4712    0.6776 C   0  0  0  0  0  0  0  0  0  0  0  0
    2.1923   -3.0324    0.6324 Br  0  0  0  0  0  0  0  0  0  0  0  0
    1.6693   -0.1911    0.5677 C   0  0  0  0  0  0  0  0  0  0  0  0
    3.0348   -0.0596    0.4700 O   0  0  0  0  0  0  0  0  0  0  0  0
    3.4174    0.2376   -0.8757 C   0  0  0  0  0  0  0  0  0  0  0  0
    4.9162    0.0863   -0.9739 C   0  0  0  0  0  0  0  0  0  0  0  0
    5.7591    1.1462   -0.6077 C   0  0  0  0  0  0  0  0  0  0  0  0
    7.1466    1.0044   -0.6790 C   0  0  0  0  0  0  0  0  0  0  0  0
    7.6974   -0.2013   -1.1076 C   0  0  0  0  0  0  0  0  0  0  0  0
    9.4071   -0.3767   -1.1955 Cl  0  0  0  0  0  0  0  0  0  0  0  0
    6.8734   -1.2680   -1.4606 C   0  0  0  0  0  0  0  0  0  0  0  0
    5.4856   -1.1262   -1.3895 C   0  0  0  0  0  0  0  0  0  0  0  0
    0.2030    3.3070    1.7422 H   0  0  0  0  0  0  0  0  0  0  0  0
    1.3577    4.1906    0.7370 H   0  0  0  0  0  0  0  0  0  0  0  0
   -0.0429    3.4478   -0.0433 H   0  0  0  0  0  0  0  0  0  0  0  0
   -1.2081    1.6298    0.7937 H   0  0  0  0  0  0  0  0  0  0  0  0
   -2.9207   -0.0449    1.8444 H   0  0  0  0  0  0  0  0  0  0  0  0
   -2.8332   -1.7034    1.2479 H   0  0  0  0  0  0  0  0  0  0  0  0
   -2.8720   -0.7977   -1.0125 H   0  0  0  0  0  0  0  0  0  0  0  0
   -6.2754    0.2637   -1.6916 H   0  0  0  0  0  0  0  0  0  0  0  0
   -4.8067   -0.3718   -2.4458 H   0  0  0  0  0  0  0  0  0  0  0  0
   -4.8149    1.2483   -1.7302 H   0  0  0  0  0  0  0  0  0  0  0  0
   -6.4693    0.5341    0.7408 H   0  0  0  0  0  0  0  0  0  0  0  0
   -5.1930    0.0504    1.8559 H   0  0  0  0  0  0  0  0  0  0  0  0
   -4.9970    1.5007    0.8553 H   0  0  0  0  0  0  0  0  0  0  0  0
   -4.7598   -2.4677   -0.9289 H   0  0  0  0  0  0  0  0  0  0  0  0
   -4.9468   -2.2804    0.8166 H   0  0  0  0  0  0  0  0  0  0  0  0
   -6.8721   -1.8362   -1.1978 H   0  0  0  0  0  0  0  0  0  0  0  0
   -0.6929   -2.6271    0.8895 H   0  0  0  0  0  0  0  0  0  0  0  0
    3.1403    1.2632   -1.1473 H   0  0  0  0  0  0  0  0  0  0  0  0
    2.9312   -0.4427   -1.5881 H   0  0  0  0  0  0  0  0  0  0  0  0
    5.3344    2.0844   -0.2558 H   0  0  0  0  0  0  0  0  0  0  0  0
    7.7885    1.8329   -0.3929 H   0  0  0  0  0  0  0  0  0  0  0  0
    7.3028   -2.2121   -1.7842 H   0  0  0  0  0  0  0  0  0  0  0  0
    4.8504   -1.9696   -1.6519 H   0  0  0  0  0  0  0  0  0  0  0  0
  1  2  1  0
  2  3  1  0
  3  4  2  0
  4  5  1  0
  5  6  1  0
  6  7  1  0
  7  8  1  0
  8  9  1  0
  8 10  1  0
  8 11  1  0
 11 12  1  0
  5 13  2  0
 13 14  1  0
 14 15  1  0
 14 16  2  0
 16 17  1  0
 17 18  1  0
 18 19  1  0
 19 20  2  0
 20 21  1  0
 21 22  2  0
 22 23  1  0
 22 24  1  0
 24 25  2  0
 16  3  1  0
 25 19  1  0
  1 26  1  0
  1 27  1  0
  1 28  1  0
  4 29  1  0
  6 30  1  0
  6 31  1  0
  7 32  1  0
  9 33  1  0
  9 34  1  0
  9 35  1  0
 10 36  1  0
 10 37  1  0
 10 38  1  0
 11 39  1  0
 11 40  1  0
 12 41  1  0
 13 42  1  0
 18 43  1  0
 18 44  1  0
 20 45  1  0
 21 46  1  0
 24 47  1  0
 25 48  1  0
M  END
$$$$
