
     RDKit          3D

 38 41  0  0  0  0  0  0  0  0999 V2000
    7.7417    2.8681    0.4556 C   0  0  0  0  0  0  0  0  0  0  0  0
    6.6078    1.9262    0.2867 C   0  0  0  0  0  0  0  0  0  0  0  0
    6.7256    0.6410    0.0275 N   0  0  0  0  0  0  0  0  0  0  0  0
    5.4955    0.0170   -0.0769 N   0  0  0  0  0  0  0  0  0  0  0  0
    4.5076    0.8562    0.1078 C   0  0  0  0  0  0  0  0  0  0  0  0
    3.1569    0.6586    0.0923 N   0  0  0  0  0  0  0  0  0  0  0  0
    2.5887   -0.5739   -0.1482 C   0  0  0  0  0  0  0  0  0  0  0  0
    3.2297   -1.5976   -0.3731 O   0  0  0  0  0  0  0  0  0  0  0  0
    1.1225   -0.5864   -0.1168 C   0  0  0  0  0  0  0  0  0  0  0  0
    0.2236    0.7864    0.3754 S   0  0  0  0  0  0  0  0  0  0  0  0
   -1.2593   -0.0156    0.1660 C   0  0  0  0  0  0  0  0  0  0  0  0
   -2.4052    0.6392    0.4248 N   0  0  0  0  0  0  0  0  0  0  0  0
   -3.5356   -0.0612    0.2121 C   0  0  0  0  0  0  0  0  0  0  0  0
   -4.7620    0.7085    0.5086 C   0  0  0  0  0  0  0  0  0  0  0  0
   -4.8589    2.0379    0.8960 C   0  0  0  0  0  0  0  0  0  0  0  0
   -6.2000    2.4699    1.1058 C   0  0  0  0  0  0  0  0  0  0  0  0
   -7.1024    1.4590    0.8763 C   0  0  0  0  0  0  0  0  0  0  0  0
   -6.3316    0.0081    0.4142 S   0  0  0  0  0  0  0  0  0  0  0  0
   -3.5351   -1.3721   -0.2494 C   0  0  0  0  0  0  0  0  0  0  0  0
   -2.3211   -2.0451   -0.5056 C   0  0  0  0  0  0  0  0  0  0  0  0
   -2.3597   -3.4506   -1.0429 C   0  0  0  0  0  0  0  0  0  0  0  0
   -2.0833   -3.5117   -2.3730 F   0  0  0  0  0  0  0  0  0  0  0  0
   -3.5777   -4.0459   -0.8932 F   0  0  0  0  0  0  0  0  0  0  0  0
   -1.4745   -4.2881   -0.4311 F   0  0  0  0  0  0  0  0  0  0  0  0
   -1.1204   -1.3233   -0.2802 C   0  0  0  0  0  0  0  0  0  0  0  0
    0.2767   -1.6396   -0.4288 C   0  0  0  0  0  0  0  0  0  0  0  0
    0.7378   -2.8433   -0.8451 N   0  0  0  0  0  0  0  0  0  0  0  0
    4.9806    2.4670    0.4234 S   0  0  0  0  0  0  0  0  0  0  0  0
    8.6957    2.3452    0.3341 H   0  0  0  0  0  0  0  0  0  0  0  0
    7.6986    3.6675   -0.2909 H   0  0  0  0  0  0  0  0  0  0  0  0
    7.7292    3.3179    1.4533 H   0  0  0  0  0  0  0  0  0  0  0  0
    2.5675    1.4583    0.2656 H   0  0  0  0  0  0  0  0  0  0  0  0
   -3.9913    2.6759    1.0230 H   0  0  0  0  0  0  0  0  0  0  0  0
   -6.4844    3.4698    1.4099 H   0  0  0  0  0  0  0  0  0  0  0  0
   -8.1799    1.5018    0.9588 H   0  0  0  0  0  0  0  0  0  0  0  0
   -4.4711   -1.8972   -0.4255 H   0  0  0  0  0  0  0  0  0  0  0  0
    1.7497   -3.0205   -0.8062 H   0  0  0  0  0  0  0  0  0  0  0  0
    0.2182   -3.7071   -0.6898 H   0  0  0  0  0  0  0  0  0  0  0  0
  1  2  1  0
  2  3  2  0
  3  4  1  0
  4  5  2  0
  5  6  1  0
  6  7  1  0
  7  8  2  0
  7  9  1  0
  9 10  1  0
 10 11  1  0
 11 12  2  0
 12 13  1  0
 13 14  1  0
 14 15  2  0
 15 16  1  0
 16 17  2  0
 17 18  1  0
 13 19  2  0
 19 20  1  0
 20 21  1  0
 21 22  1  0
 21 23  1  0
 21 24  1  0
 20 25  2  0
 25 26  1  0
 26 27  1  0
  5 28  1  0
 28  2  1  0
 26  9  2  0
 25 11  1  0
 18 14  1  0
  1 29  1  0
  1 30  1  0
  1 31  1  0
  6 32  1  0
 15 33  1  0
 16 34  1  0
 17 35  1  0
 19 36  1  0
 27 37  1  0
 27 38  1  0
M  END
$$$$
