
     RDKit          3D

 47 51  0  0  0  0  0  0  0  0999 V2000
   -4.8985   -2.9784    0.6733 C   0  0  0  0  0  0  0  0  0  0  0  0
   -5.0216   -1.5327    0.3566 C   0  0  0  0  0  0  0  0  0  0  0  0
   -3.9760   -0.6324    0.1892 C   0  0  0  0  0  0  0  0  0  0  0  0
   -2.5322   -0.8040    0.2644 C   0  0  0  0  0  0  0  0  0  0  0  0
   -2.0130   -1.8807    0.5383 O   0  0  0  0  0  0  0  0  0  0  0  0
   -1.8469    0.3694   -0.0019 N   0  0  0  0  0  0  0  0  0  0  0  0
   -0.4566    0.5898   -0.0220 C   0  0  0  0  0  0  0  0  0  0  0  0
   -0.0313    1.8895   -0.3117 C   0  0  0  0  0  0  0  0  0  0  0  0
    1.3310    2.2132   -0.3561 C   0  0  0  0  0  0  0  0  0  0  0  0
    2.2927    1.2170   -0.1053 C   0  0  0  0  0  0  0  0  0  0  0  0
    3.6635    1.3914   -0.1141 N   0  0  0  0  0  0  0  0  0  0  0  0
    4.2919    0.2686    0.1626 C   0  0  0  0  0  0  0  0  0  0  0  0
    5.6491    0.1767    0.2203 N   0  0  0  0  0  0  0  0  0  0  0  0
    6.4703    1.3264   -0.1712 C   0  0  0  0  0  0  0  0  0  0  0  0
    7.7843    0.8391   -0.8039 C   0  0  0  0  0  0  0  0  0  0  0  0
    8.5708   -0.0099    0.0463 O   0  0  0  0  0  0  0  0  0  0  0  0
    7.7963   -0.7070    1.0318 C   0  0  0  0  0  0  0  0  0  0  0  0
    6.3688   -1.0485    0.5723 C   0  0  0  0  0  0  0  0  0  0  0  0
    3.2298   -1.0707    0.4373 S   0  0  0  0  0  0  0  0  0  0  0  0
    1.8573   -0.0719    0.1807 C   0  0  0  0  0  0  0  0  0  0  0  0
    0.4905   -0.4098    0.2286 C   0  0  0  0  0  0  0  0  0  0  0  0
   -4.4726    0.6150   -0.0912 O   0  0  0  0  0  0  0  0  0  0  0  0
   -5.8278    0.5201   -0.0991 C   0  0  0  0  0  0  0  0  0  0  0  0
   -6.7067    1.5747   -0.3391 C   0  0  0  0  0  0  0  0  0  0  0  0
   -8.0712    1.2714   -0.3068 C   0  0  0  0  0  0  0  0  0  0  0  0
   -8.5140   -0.0278   -0.0468 C   0  0  0  0  0  0  0  0  0  0  0  0
   -7.6030   -1.0666    0.1929 C   0  0  0  0  0  0  0  0  0  0  0  0
   -6.2240   -0.7838    0.1668 C   0  0  0  0  0  0  0  0  0  0  0  0
   -4.3123   -3.4924   -0.0960 H   0  0  0  0  0  0  0  0  0  0  0  0
   -4.4031   -3.1169    1.6402 H   0  0  0  0  0  0  0  0  0  0  0  0
   -5.8781   -3.4637    0.7263 H   0  0  0  0  0  0  0  0  0  0  0  0
   -2.4456    1.1657   -0.1988 H   0  0  0  0  0  0  0  0  0  0  0  0
   -0.7518    2.6803   -0.5095 H   0  0  0  0  0  0  0  0  0  0  0  0
    1.6546    3.2244   -0.5827 H   0  0  0  0  0  0  0  0  0  0  0  0
    6.6841    1.9259    0.7213 H   0  0  0  0  0  0  0  0  0  0  0  0
    5.9581    1.9680   -0.8983 H   0  0  0  0  0  0  0  0  0  0  0  0
    7.5740    0.2787   -1.7235 H   0  0  0  0  0  0  0  0  0  0  0  0
    8.4093    1.6941   -1.0798 H   0  0  0  0  0  0  0  0  0  0  0  0
    7.7656   -0.0813    1.9323 H   0  0  0  0  0  0  0  0  0  0  0  0
    8.3392   -1.6225    1.2900 H   0  0  0  0  0  0  0  0  0  0  0  0
    5.8729   -1.5860    1.3884 H   0  0  0  0  0  0  0  0  0  0  0  0
    6.4111   -1.7023   -0.3077 H   0  0  0  0  0  0  0  0  0  0  0  0
    0.2109   -1.4318    0.4568 H   0  0  0  0  0  0  0  0  0  0  0  0
   -6.3473    2.5747   -0.5458 H   0  0  0  0  0  0  0  0  0  0  0  0
   -8.7983    2.0586   -0.4941 H   0  0  0  0  0  0  0  0  0  0  0  0
   -9.5812   -0.2391   -0.0311 H   0  0  0  0  0  0  0  0  0  0  0  0
   -7.9630   -2.0727    0.3894 H   0  0  0  0  0  0  0  0  0  0  0  0
  1  2  1  0
  2  3  2  0
  3  4  1  0
  4  5  2  0
  4  6  1  0
  6  7  1  0
  7  8  2  0
  8  9  1  0
  9 10  2  0
 10 11  1  0
 11 12  2  0
 12 13  1  0
 13 14  1  0
 14 15  1  0
 15 16  1  0
 16 17  1  0
 17 18  1  0
 12 19  1  0
 19 20  1  0
 20 21  2  0
  3 22  1  0
 22 23  1  0
 23 24  2  0
 24 25  1  0
 25 26  2  0
 26 27  1  0
 27 28  2  0
 28  2  1  0
 21  7  1  0
 28 23  1  0
 20 10  1  0
 18 13  1  0
  1 29  1  0
  1 30  1  0
  1 31  1  0
  6 32  1  0
  8 33  1  0
  9 34  1  0
 14 35  1  0
 14 36  1  0
 15 37  1  0
 15 38  1  0
 17 39  1  0
 17 40  1  0
 18 41  1  0
 18 42  1  0
 21 43  1  0
 24 44  1  0
 25 45  1  0
 26 46  1  0
 27 47  1  0
M  END
$$$$
