
     RDKit          3D

 51 54  0  0  0  0  0  0  0  0999 V2000
    3.5338    2.5981    4.5480 C   0  0  0  0  0  0  0  0  0  0  0  0
    2.6439    2.4142    3.3329 C   0  0  0  0  0  0  0  0  0  0  0  0
    1.6909    1.3873    3.6332 O   0  0  0  0  0  0  0  0  0  0  0  0
    0.7880    1.2638    2.6060 C   0  0  0  0  0  0  0  0  0  0  0  0
    0.9968    0.2298    1.6895 C   0  0  0  0  0  0  0  0  0  0  0  0
    0.0977    0.0229    0.6333 C   0  0  0  0  0  0  0  0  0  0  0  0
    0.3420   -1.1367   -0.3336 C   0  0  0  0  0  0  0  0  0  0  0  0
   -0.5950   -2.3039   -0.0110 C   0  0  0  0  0  0  0  0  0  0  0  0
    0.0799   -3.6635   -0.0739 C   0  0  0  0  0  0  0  0  0  0  0  0
    1.2948   -3.8032    0.0271 O   0  0  0  0  0  0  0  0  0  0  0  0
   -0.8413   -4.8650   -0.2518 C   0  0  0  0  0  0  0  0  0  0  0  0
   -2.2602   -4.5461    0.2297 C   0  0  0  0  0  0  0  0  0  0  0  0
   -2.8855   -3.3600   -0.5105 C   0  0  0  0  0  0  0  0  0  0  0  0
   -1.8118   -2.3682   -0.9150 C   0  0  0  0  0  0  0  0  0  0  0  0
   -1.9608   -1.7241   -2.0291 N   0  0  0  0  0  0  0  0  0  0  0  0
   -0.9280   -0.9674   -2.4681 C   0  0  0  0  0  0  0  0  0  0  0  0
   -0.7686   -0.3722   -3.6265 N   0  0  0  0  0  0  0  0  0  0  0  0
    0.4838    0.2246   -3.5498 C   0  0  0  0  0  0  0  0  0  0  0  0
    1.0804    1.0064   -4.6496 C   0  0  0  0  0  0  0  0  0  0  0  0
    2.1909    1.5299   -4.6055 O   0  0  0  0  0  0  0  0  0  0  0  0
    0.2523    1.0877   -5.7385 O   0  0  0  0  0  0  0  0  0  0  0  0
    0.7910    1.8338   -6.8283 C   0  0  0  0  0  0  0  0  0  0  0  0
    1.0994    0.0173   -2.3671 N   0  0  0  0  0  0  0  0  0  0  0  0
    0.1799   -0.7051   -1.7107 N   0  0  0  0  0  0  0  0  0  0  0  0
   -1.0262    0.8616    0.5439 C   0  0  0  0  0  0  0  0  0  0  0  0
   -1.2384    1.8864    1.4762 C   0  0  0  0  0  0  0  0  0  0  0  0
   -0.3359    2.0957    2.5202 C   0  0  0  0  0  0  0  0  0  0  0  0
   -0.4649    3.0516    3.4919 O   0  0  0  0  0  0  0  0  0  0  0  0
   -1.5085    4.0024    3.3365 C   0  0  0  0  0  0  0  0  0  0  0  0
    4.2910    3.3655    4.3645 H   0  0  0  0  0  0  0  0  0  0  0  0
    4.0357    1.6602    4.8094 H   0  0  0  0  0  0  0  0  0  0  0  0
    2.9376    2.8922    5.4171 H   0  0  0  0  0  0  0  0  0  0  0  0
    3.2558    2.1136    2.4753 H   0  0  0  0  0  0  0  0  0  0  0  0
    2.1484    3.3649    3.1035 H   0  0  0  0  0  0  0  0  0  0  0  0
    1.8731   -0.4056    1.8088 H   0  0  0  0  0  0  0  0  0  0  0  0
    1.3957   -1.4319   -0.2520 H   0  0  0  0  0  0  0  0  0  0  0  0
   -0.9553   -2.2187    1.0232 H   0  0  0  0  0  0  0  0  0  0  0  0
   -0.4367   -5.7002    0.3298 H   0  0  0  0  0  0  0  0  0  0  0  0
   -0.8452   -5.1424   -1.3118 H   0  0  0  0  0  0  0  0  0  0  0  0
   -2.2284   -4.3159    1.3022 H   0  0  0  0  0  0  0  0  0  0  0  0
   -2.9032   -5.4272    0.1198 H   0  0  0  0  0  0  0  0  0  0  0  0
   -3.3947   -3.7133   -1.4134 H   0  0  0  0  0  0  0  0  0  0  0  0
   -3.6228   -2.8552    0.1212 H   0  0  0  0  0  0  0  0  0  0  0  0
    0.0577    1.8269   -7.6394 H   0  0  0  0  0  0  0  0  0  0  0  0
    1.7141    1.3723   -7.1934 H   0  0  0  0  0  0  0  0  0  0  0  0
    0.9665    2.8725   -6.5315 H   0  0  0  0  0  0  0  0  0  0  0  0
   -1.7591    0.7411   -0.2526 H   0  0  0  0  0  0  0  0  0  0  0  0
   -2.1258    2.5001    1.3585 H   0  0  0  0  0  0  0  0  0  0  0  0
   -2.4909    3.5257    3.4148 H   0  0  0  0  0  0  0  0  0  0  0  0
   -1.4251    4.7271    4.1517 H   0  0  0  0  0  0  0  0  0  0  0  0
   -1.4085    4.5503    2.3950 H   0  0  0  0  0  0  0  0  0  0  0  0
  1  2  1  0
  2  3  1  0
  3  4  1  0
  4  5  2  0
  5  6  1  0
  6  7  1  0
  7  8  1  0
  8  9  1  0
  9 10  2  0
  9 11  1  0
 11 12  1  0
 12 13  1  0
 13 14  1  0
 14 15  2  0
 15 16  1  0
 16 17  2  0
 17 18  1  0
 18 19  1  0
 19 20  2  0
 19 21  1  0
 21 22  1  0
 18 23  2  0
 23 24  1  0
  6 25  2  0
 25 26  1  0
 26 27  2  0
 27 28  1  0
 28 29  1  0
 27  4  1  0
 24  7  1  0
 14  8  1  0
 24 16  1  0
  1 30  1  0
  1 31  1  0
  1 32  1  0
  2 33  1  0
  2 34  1  0
  5 35  1  0
  7 36  1  0
  8 37  1  0
 11 38  1  0
 11 39  1  0
 12 40  1  0
 12 41  1  0
 13 42  1  0
 13 43  1  0
 22 44  1  0
 22 45  1  0
 22 46  1  0
 25 47  1  0
 26 48  1  0
 29 49  1  0
 29 50  1  0
 29 51  1  0
M  END
$$$$
