
     RDKit          3D

 47 50  0  0  0  0  0  0  0  0999 V2000
    2.3693   -1.3450   -1.8115 C   0  0  0  0  0  0  0  0  0  0  0  0
    2.6224    0.0101   -1.4351 O   0  0  0  0  0  0  0  0  0  0  0  0
    1.8817    0.3292   -0.3223 C   0  0  0  0  0  0  0  0  0  0  0  0
    0.5252    0.6280   -0.4700 C   0  0  0  0  0  0  0  0  0  0  0  0
   -0.2420    0.9541    0.6501 C   0  0  0  0  0  0  0  0  0  0  0  0
   -1.6676    1.2692    0.5390 C   0  0  0  0  0  0  0  0  0  0  0  0
   -2.6381    0.4652    0.0835 C   0  0  0  0  0  0  0  0  0  0  0  0
   -3.9550    0.8496    0.0243 N   0  0  0  0  0  0  0  0  0  0  0  0
   -4.5438   -0.2012   -0.4499 C   0  0  0  0  0  0  0  0  0  0  0  0
   -5.9804   -0.3594   -0.7257 C   0  0  0  0  0  0  0  0  0  0  0  0
   -6.8437    0.7070   -0.4454 C   0  0  0  0  0  0  0  0  0  0  0  0
   -8.2117    0.5852   -0.6961 C   0  0  0  0  0  0  0  0  0  0  0  0
   -8.7208   -0.5993   -1.2272 C   0  0  0  0  0  0  0  0  0  0  0  0
   -7.8651   -1.6641   -1.5086 C   0  0  0  0  0  0  0  0  0  0  0  0
   -6.4958   -1.5473   -1.2590 C   0  0  0  0  0  0  0  0  0  0  0  0
   -3.7767   -1.2796   -0.7263 O   0  0  0  0  0  0  0  0  0  0  0  0
   -2.4970   -0.9404   -0.4036 C   0  0  0  0  0  0  0  0  0  0  0  0
   -1.5172   -1.6489   -0.5093 O   0  0  0  0  0  0  0  0  0  0  0  0
    0.3786    1.0260    1.9030 C   0  0  0  0  0  0  0  0  0  0  0  0
    1.7465    0.7567    2.0428 C   0  0  0  0  0  0  0  0  0  0  0  0
    2.5113    0.4145    0.9267 C   0  0  0  0  0  0  0  0  0  0  0  0
    3.8463    0.1158    0.9493 O   0  0  0  0  0  0  0  0  0  0  0  0
    4.5939    0.5358    2.0890 C   0  0  0  0  0  0  0  0  0  0  0  0
    6.0355    0.3963    1.8459 C   0  0  0  0  0  0  0  0  0  0  0  0
    6.8202    0.1832    0.6957 C   0  0  0  0  0  0  0  0  0  0  0  0
    6.3814    0.0156   -0.7113 C   0  0  0  0  0  0  0  0  0  0  0  0
    8.1213    0.1439    1.0039 N   0  0  0  0  0  0  0  0  0  0  0  0
    8.2044    0.3423    2.3811 O   0  0  0  0  0  0  0  0  0  0  0  0
    6.8705    0.4989    2.8765 N   0  0  0  0  0  4  0  0  0  0  0  0
    6.7352    0.7066    4.1029 O   0  0  0  0  0  1  0  0  0  0  0  0
    3.0883   -1.6141   -2.5912 H   0  0  0  0  0  0  0  0  0  0  0  0
    1.3622   -1.4550   -2.2279 H   0  0  0  0  0  0  0  0  0  0  0  0
    2.5123   -2.0310   -0.9685 H   0  0  0  0  0  0  0  0  0  0  0  0
    0.0781    0.5934   -1.4595 H   0  0  0  0  0  0  0  0  0  0  0  0
   -1.9433    2.2619    0.8884 H   0  0  0  0  0  0  0  0  0  0  0  0
   -6.4586    1.6365   -0.0312 H   0  0  0  0  0  0  0  0  0  0  0  0
   -8.8800    1.4146   -0.4771 H   0  0  0  0  0  0  0  0  0  0  0  0
   -9.7866   -0.6929   -1.4223 H   0  0  0  0  0  0  0  0  0  0  0  0
   -8.2654   -2.5864   -1.9232 H   0  0  0  0  0  0  0  0  0  0  0  0
   -5.8478   -2.3902   -1.4867 H   0  0  0  0  0  0  0  0  0  0  0  0
   -0.2002    1.2862    2.7876 H   0  0  0  0  0  0  0  0  0  0  0  0
    2.1742    0.8100    3.0386 H   0  0  0  0  0  0  0  0  0  0  0  0
    4.3785    1.5886    2.3127 H   0  0  0  0  0  0  0  0  0  0  0  0
    4.3051   -0.0849    2.9463 H   0  0  0  0  0  0  0  0  0  0  0  0
    5.8124   -0.9124   -0.8259 H   0  0  0  0  0  0  0  0  0  0  0  0
    5.7474    0.8535   -1.0184 H   0  0  0  0  0  0  0  0  0  0  0  0
    7.2347   -0.0256   -1.3963 H   0  0  0  0  0  0  0  0  0  0  0  0
  1  2  1  0
  2  3  1  0
  3  4  2  0
  4  5  1  0
  5  6  1  0
  6  7  2  3
  7  8  1  0
  8  9  2  0
  9 10  1  0
 10 11  2  0
 11 12  1  0
 12 13  2  0
 13 14  1  0
 14 15  2  0
  9 16  1  0
 16 17  1  0
 17 18  2  0
  5 19  2  0
 19 20  1  0
 20 21  2  0
 21 22  1  0
 22 23  1  0
 23 24  1  0
 24 25  1  0
 25 26  1  0
 25 27  2  0
 27 28  1  0
 28 29  1  0
 29 30  1  0
 21  3  1  0
 29 24  2  0
 17  7  1  0
 15 10  1  0
  1 31  1  0
  1 32  1  0
  1 33  1  0
  4 34  1  0
  6 35  1  0
 11 36  1  0
 12 37  1  0
 13 38  1  0
 14 39  1  0
 15 40  1  0
 19 41  1  0
 20 42  1  0
 23 43  1  0
 23 44  1  0
 26 45  1  0
 26 46  1  0
 26 47  1  0
M  CHG  2  29   1  30  -1
M  END
$$$$
