
     RDKit          3D

 43 46  0  0  0  0  0  0  0  0999 V2000
   -1.5249    0.2549    2.3339 O   0  0  0  0  0  0  0  0  0  0  0  0
   -1.1655    0.5338    0.8941 P   0  0  0  0  0  5  0  0  0  0  0  0
   -1.6495   -0.5372   -0.2891 N   0  0  0  0  0  0  0  0  0  0  0  0
   -2.7743   -1.3853   -0.0931 C   0  0  0  0  0  0  0  0  0  0  0  0
   -4.0417   -0.9035    0.2899 C   0  0  0  0  0  0  0  0  0  0  0  0
   -4.3843    0.7867    0.4322 Cl  0  0  0  0  0  0  0  0  0  0  0  0
   -5.1116   -1.7813    0.5088 C   0  0  0  0  0  0  0  0  0  0  0  0
   -4.9430   -3.1549    0.3461 C   0  0  0  0  0  0  0  0  0  0  0  0
   -3.7052   -3.6539   -0.0476 C   0  0  0  0  0  0  0  0  0  0  0  0
   -2.6364   -2.7790   -0.2660 C   0  0  0  0  0  0  0  0  0  0  0  0
   -1.1199   -3.4647   -0.7489 Cl  0  0  0  0  0  0  0  0  0  0  0  0
   -1.1422    2.2418    0.3959 C   0  0  0  0  0  0  0  0  0  0  0  0
   -1.1180    2.5979   -0.9610 C   0  0  0  0  0  0  0  0  0  0  0  0
   -1.0941    3.9396   -1.3415 C   0  0  0  0  0  0  0  0  0  0  0  0
   -1.0935    4.9394   -0.3710 C   0  0  0  0  0  0  0  0  0  0  0  0
   -1.1243    4.5999    0.9803 C   0  0  0  0  0  0  0  0  0  0  0  0
   -1.1516    3.2586    1.3620 C   0  0  0  0  0  0  0  0  0  0  0  0
    0.5549    0.0890    0.6055 C   0  0  0  0  0  0  0  0  0  0  0  0
    0.9605   -0.5886   -0.4616 N   0  0  0  0  0  0  0  0  0  0  0  0
    2.3240   -0.7695   -0.3864 C   0  0  0  0  0  0  0  0  0  0  0  0
    2.9329   -0.2394    0.7325 C   0  0  0  0  0  0  0  0  0  0  0  0
    1.7865    0.5236    1.7308 S   0  0  0  0  0  0  0  0  0  0  0  0
    4.3946   -0.2903    1.0234 C   0  0  0  0  0  0  0  0  0  0  0  0
    5.0769   -1.3382    0.1244 C   0  0  0  0  0  0  0  0  0  0  0  0
    4.5835   -1.2644   -1.3317 C   0  0  0  0  0  0  0  0  0  0  0  0
    3.0696   -1.5186   -1.4384 C   0  0  0  0  0  0  0  0  0  0  0  0
   -0.8668   -1.0767   -0.6735 H   0  0  0  0  0  0  0  0  0  0  0  0
   -6.0856   -1.3945    0.7998 H   0  0  0  0  0  0  0  0  0  0  0  0
   -5.7766   -3.8312    0.5181 H   0  0  0  0  0  0  0  0  0  0  0  0
   -3.5746   -4.7252   -0.1798 H   0  0  0  0  0  0  0  0  0  0  0  0
   -1.1154    1.8247   -1.7271 H   0  0  0  0  0  0  0  0  0  0  0  0
   -1.0747    4.2048   -2.3954 H   0  0  0  0  0  0  0  0  0  0  0  0
   -1.0734    5.9847   -0.6678 H   0  0  0  0  0  0  0  0  0  0  0  0
   -1.1278    5.3799    1.7370 H   0  0  0  0  0  0  0  0  0  0  0  0
   -1.1823    3.0001    2.4195 H   0  0  0  0  0  0  0  0  0  0  0  0
    4.5823   -0.5331    2.0747 H   0  0  0  0  0  0  0  0  0  0  0  0
    4.8321    0.6960    0.8252 H   0  0  0  0  0  0  0  0  0  0  0  0
    4.8741   -2.3430    0.5172 H   0  0  0  0  0  0  0  0  0  0  0  0
    6.1627   -1.1956    0.1584 H   0  0  0  0  0  0  0  0  0  0  0  0
    4.8174   -0.2711   -1.7365 H   0  0  0  0  0  0  0  0  0  0  0  0
    5.1208   -1.9955   -1.9468 H   0  0  0  0  0  0  0  0  0  0  0  0
    2.7151   -1.2313   -2.4341 H   0  0  0  0  0  0  0  0  0  0  0  0
    2.8692   -2.5893   -1.3120 H   0  0  0  0  0  0  0  0  0  0  0  0
  1  2  2  0
  2  3  1  0
  3  4  1  0
  4  5  2  0
  5  6  1  0
  5  7  1  0
  7  8  2  0
  8  9  1  0
  9 10  2  0
 10 11  1  0
  2 12  1  0
 12 13  2  0
 13 14  1  0
 14 15  2  0
 15 16  1  0
 16 17  2  0
  2 18  1  0
 18 19  2  0
 19 20  1  0
 20 21  2  0
 21 22  1  0
 21 23  1  0
 23 24  1  0
 24 25  1  0
 25 26  1  0
 10  4  1  0
 17 12  1  0
 22 18  1  0
 26 20  1  0
  3 27  1  0
  7 28  1  0
  8 29  1  0
  9 30  1  0
 13 31  1  0
 14 32  1  0
 15 33  1  0
 16 34  1  0
 17 35  1  0
 23 36  1  0
 23 37  1  0
 24 38  1  0
 24 39  1  0
 25 40  1  0
 25 41  1  0
 26 42  1  0
 26 43  1  0
M  END
$$$$
