
     RDKit          3D

 80 86  0  0  0  0  0  0  0  0999 V2000
   -5.5594   -1.0368    0.8577 C   0  0  0  0  0  0  0  0  0  0  0  0
   -4.3245   -0.2434    1.1778 C   0  0  0  0  0  0  0  0  0  0  0  0
   -4.2563    0.5038    2.3793 C   0  0  0  0  0  0  0  0  0  0  0  0
   -5.5798    0.5808    3.4980 Cl  0  0  0  0  0  0  0  0  0  0  0  0
   -3.1189    1.2512    2.7242 C   0  0  0  0  0  0  0  0  0  0  0  0
   -2.0117    1.2757    1.8894 C   0  0  0  0  0  0  0  0  0  0  0  0
   -2.0606    0.5553    0.7010 C   0  0  0  0  0  0  0  0  0  0  0  0
   -3.2141   -0.1668    0.3215 C   0  0  0  0  0  0  0  0  0  0  0  0
   -3.0068   -0.6727   -0.9865 N   0  0  0  0  0  0  0  0  0  0  0  0
   -3.9404   -1.3835   -1.8294 C   0  0  0  0  0  0  0  0  0  0  0  0
   -3.9344   -2.8907   -1.6733 C   0  0  0  0  0  0  0  0  0  0  0  0
   -2.7734   -3.6086   -1.3454 C   0  0  0  0  0  0  0  0  0  0  0  0
   -2.7977   -5.0026   -1.2583 C   0  0  0  0  0  0  0  0  0  0  0  0
   -3.9760   -5.6990   -1.5129 C   0  0  0  0  0  0  0  0  0  0  0  0
   -5.1322   -5.0036   -1.8612 C   0  0  0  0  0  0  0  0  0  0  0  0
   -5.1099   -3.6104   -1.9484 C   0  0  0  0  0  0  0  0  0  0  0  0
   -1.7418   -0.3087   -1.4946 C   0  0  0  0  0  0  0  0  0  0  0  0
   -1.3246   -0.5465   -2.6207 O   0  0  0  0  0  0  0  0  0  0  0  0
   -0.9972    0.4333   -0.3591 C   0  0  1  0  0  0  0  0  0  0  0  0
   -0.5452    1.7826   -0.7586 C   0  0  0  0  0  0  0  0  0  0  0  0
    0.8387    1.7947   -0.9179 C   0  0  0  0  0  0  0  0  0  0  0  0
    1.2412    3.0628   -1.2289 C   0  0  0  0  0  0  0  0  0  0  0  0
    2.4898    3.5214   -1.3038 O   0  0  0  0  0  0  0  0  0  0  0  0
    0.0771    3.8426   -1.3900 N   0  0  0  0  0  0  0  0  0  0  0  0
    0.0361    5.2030   -1.8362 C   0  0  0  0  0  0  0  0  0  0  0  0
   -0.9608    6.0785   -1.3842 C   0  0  0  0  0  0  0  0  0  0  0  0
   -0.9721    7.4112   -1.8084 C   0  0  0  0  0  0  0  0  0  0  0  0
    0.0036    7.8794   -2.6833 C   0  0  0  0  0  0  0  0  0  0  0  0
    0.9870    7.0132   -3.1515 C   0  0  0  0  0  0  0  0  0  0  0  0
    1.0020    5.6797   -2.7351 C   0  0  0  0  0  0  0  0  0  0  0  0
   -1.0266    3.0405   -1.0301 C   0  0  0  0  0  0  0  0  0  0  0  0
   -2.2775    3.4957   -1.0406 O   0  0  0  0  0  0  0  0  0  0  0  0
    1.4475    0.4751   -0.6340 C   0  0  1  0  0  0  0  0  0  0  0  0
    2.7077    0.5602    0.2561 C   0  0  0  0  0  0  0  0  0  0  0  0
    2.9908   -0.6952    0.9523 N   0  0  0  0  0  0  0  0  0  0  0  0
    4.2922   -1.1197    1.1192 C   0  0  0  0  0  0  0  0  0  0  0  0
    5.2658   -0.5254    0.6760 O   0  0  0  0  0  0  0  0  0  0  0  0
    4.3542   -2.2702    1.8401 O   0  0  0  0  0  0  0  0  0  0  0  0
    5.6265   -2.8995    2.1368 C   0  0  0  0  0  0  0  0  0  0  0  0
    5.2624   -4.1172    2.9990 C   0  0  0  0  0  0  0  0  0  0  0  0
    6.5392   -1.9770    2.9504 C   0  0  0  0  0  0  0  0  0  0  0  0
    6.3077   -3.3936    0.8558 C   0  0  0  0  0  0  0  0  0  0  0  0
    1.8512   -1.4202    1.5095 C   0  0  0  0  0  0  0  0  0  0  0  0
    0.5161   -0.6715    1.3433 C   0  0  0  0  0  0  0  0  0  0  0  0
    0.2779   -0.3079   -0.0558 N   0  0  0  0  0  0  0  0  0  0  0  0
   -6.2136   -0.4774    0.1853 H   0  0  0  0  0  0  0  0  0  0  0  0
   -6.1332   -1.3029    1.7487 H   0  0  0  0  0  0  0  0  0  0  0  0
   -5.2992   -1.9990    0.4191 H   0  0  0  0  0  0  0  0  0  0  0  0
   -3.0988    1.8200    3.6509 H   0  0  0  0  0  0  0  0  0  0  0  0
   -1.1369    1.8628    2.1570 H   0  0  0  0  0  0  0  0  0  0  0  0
   -4.9398   -0.9681   -1.6778 H   0  0  0  0  0  0  0  0  0  0  0  0
   -3.6946   -1.1755   -2.8782 H   0  0  0  0  0  0  0  0  0  0  0  0
   -1.8318   -3.0951   -1.1668 H   0  0  0  0  0  0  0  0  0  0  0  0
   -1.8894   -5.5451   -1.0072 H   0  0  0  0  0  0  0  0  0  0  0  0
   -3.9909   -6.7850   -1.4569 H   0  0  0  0  0  0  0  0  0  0  0  0
   -6.0468   -5.5485   -2.0771 H   0  0  0  0  0  0  0  0  0  0  0  0
   -6.0186   -3.0886   -2.2396 H   0  0  0  0  0  0  0  0  0  0  0  0
    2.4791    4.4844   -1.1572 H   0  0  0  0  0  0  0  0  0  0  0  0
   -1.7269    5.7593   -0.6842 H   0  0  0  0  0  0  0  0  0  0  0  0
   -1.7440    8.0865   -1.4427 H   0  0  0  0  0  0  0  0  0  0  0  0
   -0.0084    8.9160   -3.0099 H   0  0  0  0  0  0  0  0  0  0  0  0
    1.7387    7.3709   -3.8486 H   0  0  0  0  0  0  0  0  0  0  0  0
    1.7481    5.0182   -3.1735 H   0  0  0  0  0  0  0  0  0  0  0  0
   -2.8697    2.7728   -0.7670 H   0  0  0  0  0  0  0  0  0  0  0  0
    1.7137   -0.0184   -1.5763 H   0  0  0  0  0  0  0  0  0  0  0  0
    3.5689    0.8683   -0.3473 H   0  0  0  0  0  0  0  0  0  0  0  0
    2.5860    1.3211    1.0393 H   0  0  0  0  0  0  0  0  0  0  0  0
    4.5825   -4.7874    2.4586 H   0  0  0  0  0  0  0  0  0  0  0  0
    4.7327   -3.8099    3.9078 H   0  0  0  0  0  0  0  0  0  0  0  0
    6.1512   -4.6844    3.2947 H   0  0  0  0  0  0  0  0  0  0  0  0
    7.3890   -2.5248    3.3655 H   0  0  0  0  0  0  0  0  0  0  0  0
    6.9474   -1.1635    2.3384 H   0  0  0  0  0  0  0  0  0  0  0  0
    5.9898   -1.5072    3.7737 H   0  0  0  0  0  0  0  0  0  0  0  0
    5.6174   -4.0032    0.2604 H   0  0  0  0  0  0  0  0  0  0  0  0
    7.1954   -3.9928    1.0828 H   0  0  0  0  0  0  0  0  0  0  0  0
    6.6253   -2.5659    0.2138 H   0  0  0  0  0  0  0  0  0  0  0  0
    1.8048   -2.3956    1.0110 H   0  0  0  0  0  0  0  0  0  0  0  0
    2.0394   -1.6029    2.5732 H   0  0  0  0  0  0  0  0  0  0  0  0
   -0.2831   -1.3273    1.7084 H   0  0  0  0  0  0  0  0  0  0  0  0
    0.5438    0.2182    1.9825 H   0  0  0  0  0  0  0  0  0  0  0  0
  1  2  1  0
  2  3  2  0
  3  4  1  0
  3  5  1  0
  5  6  2  0
  6  7  1  0
  7  8  2  0
  8  9  1  0
  9 10  1  0
 10 11  1  0
 11 12  2  0
 12 13  1  0
 13 14  2  0
 14 15  1  0
 15 16  2  0
  9 17  1  0
 17 18  2  0
 17 19  1  0
 19 20  1  0
 20 21  1  0
 21 22  2  0
 22 23  1  0
 22 24  1  0
 24 25  1  0
 25 26  2  0
 26 27  1  0
 27 28  2  0
 28 29  1  0
 29 30  2  0
 24 31  1  0
 31 32  1  0
 21 33  1  0
 33 34  1  0
 34 35  1  0
 35 36  1  0
 36 37  2  0
 36 38  1  0
 38 39  1  0
 39 40  1  0
 39 41  1  0
 39 42  1  0
 35 43  1  0
 43 44  1  0
 44 45  1  0
  8  2  1  0
 16 11  1  0
 19 45  1  1
 19  7  1  0
 31 20  2  0
 45 33  1  0
 30 25  1  0
  1 46  1  0
  1 47  1  0
  1 48  1  0
  5 49  1  0
  6 50  1  0
 10 51  1  0
 10 52  1  0
 12 53  1  0
 13 54  1  0
 14 55  1  0
 15 56  1  0
 16 57  1  0
 23 58  1  0
 26 59  1  0
 27 60  1  0
 28 61  1  0
 29 62  1  0
 30 63  1  0
 32 64  1  0
 33 65  1  6
 34 66  1  0
 34 67  1  0
 40 68  1  0
 40 69  1  0
 40 70  1  0
 41 71  1  0
 41 72  1  0
 41 73  1  0
 42 74  1  0
 42 75  1  0
 42 76  1  0
 43 77  1  0
 43 78  1  0
 44 79  1  0
 44 80  1  0
M  END
$$$$
