
     RDKit          3D

 43 45  0  0  0  0  0  0  0  0999 V2000
    3.1325   -3.1436   -0.1626 C   0  0  0  0  0  0  0  0  0  0  0  0
    3.9076   -1.9541   -0.1120 O   0  0  0  0  0  0  0  0  0  0  0  0
    3.2594   -0.7697    0.1336 C   0  0  0  0  0  0  0  0  0  0  0  0
    1.8677   -0.6403    0.2460 C   0  0  0  0  0  0  0  0  0  0  0  0
    1.2707    0.6095    0.4955 C   0  0  0  0  0  0  0  0  0  0  0  0
   -0.2005    0.6557    0.6304 C   0  0  0  0  0  0  0  0  0  0  0  0
   -0.7653    0.7000    1.9439 C   0  0  0  0  0  0  0  0  0  0  0  0
   -1.1776    0.7330    3.0276 N   0  0  0  0  0  0  0  0  0  0  0  0
   -0.9453    0.6392   -0.4922 C   0  0  0  0  0  0  0  0  0  0  0  0
   -2.4169    0.6889   -0.5189 C   0  0  0  0  0  0  0  0  0  0  0  0
   -3.0281    1.9332   -0.3020 C   0  0  0  0  0  0  0  0  0  0  0  0
   -4.4140    2.0464   -0.3097 C   0  0  0  0  0  0  0  0  0  0  0  0
   -5.2007    0.9197   -0.5376 C   0  0  0  0  0  0  0  0  0  0  0  0
   -4.6161   -0.3362   -0.7633 C   0  0  0  0  0  0  0  0  0  0  0  0
   -5.4246   -1.4616   -0.9932 C   0  0  0  0  0  0  0  0  0  0  0  0
   -4.8615   -2.7167   -1.2195 C   0  0  0  0  0  0  0  0  0  0  0  0
   -3.4808   -2.8641   -1.2192 C   0  0  0  0  0  0  0  0  0  0  0  0
   -2.6626   -1.7553   -0.9916 C   0  0  0  0  0  0  0  0  0  0  0  0
   -3.2050   -0.4690   -0.7583 C   0  0  0  0  0  0  0  0  0  0  0  0
    2.1138    1.7261    0.6234 C   0  0  0  0  0  0  0  0  0  0  0  0
    1.5720    3.0606    0.8549 N   0  0  0  0  0  4  0  0  0  0  0  0
    2.1246    3.7492    1.7224 O   0  0  0  0  0  0  0  0  0  0  0  0
    0.6218    3.4240    0.1501 O   0  0  0  0  0  1  0  0  0  0  0  0
    3.5093    1.6132    0.5181 C   0  0  0  0  0  0  0  0  0  0  0  0
    4.0851    0.3656    0.2736 C   0  0  0  0  0  0  0  0  0  0  0  0
    5.4336    0.1479    0.1457 O   0  0  0  0  0  0  0  0  0  0  0  0
    6.3120    1.2361    0.3994 C   0  0  0  0  0  0  0  0  0  0  0  0
    2.4338   -3.1217   -1.0053 H   0  0  0  0  0  0  0  0  0  0  0  0
    3.8169   -3.9827   -0.3201 H   0  0  0  0  0  0  0  0  0  0  0  0
    2.6078   -3.3149    0.7830 H   0  0  0  0  0  0  0  0  0  0  0  0
    1.2242   -1.5109    0.1481 H   0  0  0  0  0  0  0  0  0  0  0  0
   -0.4854    0.6000   -1.4779 H   0  0  0  0  0  0  0  0  0  0  0  0
   -2.4270    2.8237   -0.1243 H   0  0  0  0  0  0  0  0  0  0  0  0
   -4.8821    3.0118   -0.1355 H   0  0  0  0  0  0  0  0  0  0  0  0
   -6.2833    1.0304   -0.5367 H   0  0  0  0  0  0  0  0  0  0  0  0
   -6.5088   -1.3677   -0.9964 H   0  0  0  0  0  0  0  0  0  0  0  0
   -5.5030   -3.5764   -1.3945 H   0  0  0  0  0  0  0  0  0  0  0  0
   -3.0380   -3.8409   -1.3947 H   0  0  0  0  0  0  0  0  0  0  0  0
   -1.5867   -1.9087   -0.9987 H   0  0  0  0  0  0  0  0  0  0  0  0
    4.1205    2.5052    0.6216 H   0  0  0  0  0  0  0  0  0  0  0  0
    6.1828    1.6212    1.4163 H   0  0  0  0  0  0  0  0  0  0  0  0
    7.3378    0.8656    0.3115 H   0  0  0  0  0  0  0  0  0  0  0  0
    6.1795    2.0285   -0.3443 H   0  0  0  0  0  0  0  0  0  0  0  0
  1  2  1  0
  2  3  1  0
  3  4  2  0
  4  5  1  0
  5  6  1  0
  6  7  1  0
  7  8  3  0
  6  9  2  3
  9 10  1  0
 10 11  2  0
 11 12  1  0
 12 13  2  0
 13 14  1  0
 14 15  2  0
 15 16  1  0
 16 17  2  0
 17 18  1  0
 18 19  2  0
  5 20  2  0
 20 21  1  0
 21 22  2  0
 21 23  1  0
 20 24  1  0
 24 25  2  0
 25 26  1  0
 26 27  1  0
 25  3  1  0
 19 10  1  0
 19 14  1  0
  1 28  1  0
  1 29  1  0
  1 30  1  0
  4 31  1  0
  9 32  1  0
 11 33  1  0
 12 34  1  0
 13 35  1  0
 15 36  1  0
 16 37  1  0
 17 38  1  0
 18 39  1  0
 24 40  1  0
 27 41  1  0
 27 42  1  0
 27 43  1  0
M  CHG  2  21   1  23  -1
M  END
$$$$
