
     RDKit          3D

 55 59  0  0  0  0  0  0  0  0999 V2000
   -0.9933   -0.2933   -0.9712 C   0  0  0  0  0  0  0  0  0  0  0  0
   -2.0520    0.0534    0.0394 C   0  0  0  0  0  0  0  0  0  0  0  0
   -3.4062   -0.1687   -0.2045 C   0  0  0  0  0  0  0  0  0  0  0  0
   -3.9412   -0.7149   -1.4616 C   0  0  0  0  0  0  0  0  0  0  0  0
   -3.7947   -0.0266   -2.6798 C   0  0  0  0  0  0  0  0  0  0  0  0
   -4.3088   -0.5504   -3.8689 C   0  0  0  0  0  0  0  0  0  0  0  0
   -4.9857   -1.7683   -3.8565 C   0  0  0  0  0  0  0  0  0  0  0  0
   -5.1519   -2.4528   -2.6549 C   0  0  0  0  0  0  0  0  0  0  0  0
   -5.9933   -3.9537   -2.6391 Cl  0  0  0  0  0  0  0  0  0  0  0  0
   -4.6406   -1.9332   -1.4658 C   0  0  0  0  0  0  0  0  0  0  0  0
   -4.3683    0.1085    0.7110 N   0  0  0  0  0  0  0  0  0  0  0  0
   -4.0397    0.6669    1.8837 C   0  0  0  0  0  0  0  0  0  0  0  0
   -5.0607    0.9586    2.7781 C   0  0  0  0  0  0  0  0  0  0  0  0
   -4.8140    1.5655    4.0105 C   0  0  0  0  0  0  0  0  0  0  0  0
   -3.5142    1.8932    4.3641 C   0  0  0  0  0  0  0  0  0  0  0  0
   -2.4724    1.6054    3.4843 C   0  0  0  0  0  0  0  0  0  0  0  0
   -2.7169    0.9805    2.2321 C   0  0  0  0  0  0  0  0  0  0  0  0
   -1.7281    0.6481    1.2737 C   0  0  0  0  0  0  0  0  0  0  0  0
   -0.3149    0.9669    1.5487 C   0  0  0  0  0  0  0  0  0  0  0  0
    0.3448    1.7863    0.9329 O   0  0  0  0  0  0  0  0  0  0  0  0
    0.1409    0.1676    2.5458 O   0  0  0  0  0  0  0  0  0  0  0  0
    1.5267    0.3601    2.8251 C   0  0  0  0  0  0  0  0  0  0  0  0
    2.4324   -0.1134    1.6831 C   0  0  0  0  0  0  0  0  0  0  0  0
    2.1505   -1.1273    1.0343 O   0  0  0  0  0  0  0  0  0  0  0  0
    3.6824    0.7177    1.4387 C   0  0  0  0  0  0  0  0  0  0  0  0
    4.6005    0.5032    2.5627 C   0  0  0  0  0  0  0  0  0  0  0  0
    5.2531    0.3243    3.5067 N   0  0  0  0  0  0  0  0  0  0  0  0
    4.3660    0.4032    0.1408 C   0  0  0  0  0  0  0  0  0  0  0  0
    5.1810    1.2166   -0.5079 N   0  0  0  0  0  0  0  0  0  0  0  0
    5.5771    0.5361   -1.6340 C   0  0  0  0  0  0  0  0  0  0  0  0
    6.4370    0.9332   -2.6674 C   0  0  0  0  0  0  0  0  0  0  0  0
    6.6738    0.0426   -3.7224 C   0  0  0  0  0  0  0  0  0  0  0  0
    6.0664   -1.2158   -3.7468 C   0  0  0  0  0  0  0  0  0  0  0  0
    5.2055   -1.6286   -2.7229 C   0  0  0  0  0  0  0  0  0  0  0  0
    4.9903   -0.7217   -1.6834 C   0  0  0  0  0  0  0  0  0  0  0  0
    4.2286   -0.7840   -0.5472 N   0  0  0  0  0  0  0  0  0  0  0  0
   -1.2973   -1.1279   -1.6106 H   0  0  0  0  0  0  0  0  0  0  0  0
   -0.7741    0.5746   -1.6006 H   0  0  0  0  0  0  0  0  0  0  0  0
   -0.0698   -0.6233   -0.4867 H   0  0  0  0  0  0  0  0  0  0  0  0
   -3.2851    0.9353   -2.7053 H   0  0  0  0  0  0  0  0  0  0  0  0
   -4.1861   -0.0052   -4.8014 H   0  0  0  0  0  0  0  0  0  0  0  0
   -5.3868   -2.1735   -4.7817 H   0  0  0  0  0  0  0  0  0  0  0  0
   -4.7876   -2.4721   -0.5318 H   0  0  0  0  0  0  0  0  0  0  0  0
   -6.0845    0.7126    2.5024 H   0  0  0  0  0  0  0  0  0  0  0  0
   -5.6394    1.7843    4.6828 H   0  0  0  0  0  0  0  0  0  0  0  0
   -3.3102    2.3715    5.3188 H   0  0  0  0  0  0  0  0  0  0  0  0
   -1.4634    1.8774    3.7864 H   0  0  0  0  0  0  0  0  0  0  0  0
    1.7126    1.4135    3.0630 H   0  0  0  0  0  0  0  0  0  0  0  0
    1.7770   -0.2278    3.7139 H   0  0  0  0  0  0  0  0  0  0  0  0
    3.3720    1.7695    1.3982 H   0  0  0  0  0  0  0  0  0  0  0  0
    6.9034    1.9113   -2.6426 H   0  0  0  0  0  0  0  0  0  0  0  0
    7.3390    0.3369   -4.5309 H   0  0  0  0  0  0  0  0  0  0  0  0
    6.2676   -1.8893   -4.5778 H   0  0  0  0  0  0  0  0  0  0  0  0
    4.7350   -2.6058   -2.7417 H   0  0  0  0  0  0  0  0  0  0  0  0
    3.6177   -1.5471   -0.2761 H   0  0  0  0  0  0  0  0  0  0  0  0
  1  2  1  0
  2  3  2  0
  3  4  1  0
  4  5  2  0
  5  6  1  0
  6  7  2  0
  7  8  1  0
  8  9  1  0
  8 10  2  0
  3 11  1  0
 11 12  2  0
 12 13  1  0
 13 14  2  0
 14 15  1  0
 15 16  2  0
 16 17  1  0
 17 18  2  0
 18 19  1  0
 19 20  2  0
 19 21  1  0
 21 22  1  0
 22 23  1  0
 23 24  2  0
 23 25  1  0
 25 26  1  0
 26 27  3  0
 25 28  1  0
 28 29  2  0
 29 30  1  0
 30 31  2  0
 31 32  1  0
 32 33  2  0
 33 34  1  0
 34 35  2  0
 35 36  1  0
 18  2  1  0
 36 28  1  0
 10  4  1  0
 17 12  1  0
 35 30  1  0
  1 37  1  0
  1 38  1  0
  1 39  1  0
  5 40  1  0
  6 41  1  0
  7 42  1  0
 10 43  1  0
 13 44  1  0
 14 45  1  0
 15 46  1  0
 16 47  1  0
 22 48  1  0
 22 49  1  0
 25 50  1  0
 31 51  1  0
 32 52  1  0
 33 53  1  0
 34 54  1  0
 36 55  1  0
M  END
$$$$
