
     RDKit          3D

 43 45  0  0  0  0  0  0  0  0999 V2000
   -7.7841    0.6889   -0.0401 C   0  0  0  0  0  0  0  0  0  0  0  0
   -6.8664   -0.2262   -0.3798 C   0  0  0  0  0  0  0  0  0  0  0  0
   -6.1328   -1.1012    0.5988 C   0  0  0  0  0  0  0  0  0  0  0  0
   -4.7574   -0.6418    0.7027 N   0  0  0  0  0  0  0  0  0  0  0  0
   -4.4469    0.2515    1.7180 C   0  0  0  0  0  0  0  0  0  0  0  0
   -5.2499    0.6613    2.5537 O   0  0  0  0  0  0  0  0  0  0  0  0
   -3.1550    0.6778    1.7752 N   0  0  0  0  0  0  0  0  0  0  0  0
   -2.1681    0.2730    0.8962 C   0  0  0  0  0  0  0  0  0  0  0  0
   -0.9321    0.7809    1.0755 N   0  0  0  0  0  0  0  0  0  0  0  0
    0.0184    0.3725    0.2061 C   0  0  0  0  0  0  0  0  0  0  0  0
    1.3126    0.8543    0.3298 C   0  0  0  0  0  0  0  0  0  0  0  0
    2.3333    0.4523   -0.5376 C   0  0  0  0  0  0  0  0  0  0  0  0
    3.6207    0.9844   -0.3772 N   0  0  0  0  0  0  0  0  0  0  0  0
    4.3933    0.3667    0.4554 C   0  0  0  0  0  0  0  0  0  0  0  0
    5.6880    0.7125    0.7693 N   0  0  0  0  0  0  0  0  0  0  0  0
    6.5467   -0.2314    1.4658 C   0  0  0  0  0  0  0  0  0  0  0  0
    6.3653    1.7280   -0.0260 C   0  0  0  0  0  0  0  0  0  0  0  0
    2.0409   -0.4360   -1.5801 C   0  0  0  0  0  0  0  0  0  0  0  0
    3.1050   -0.8673   -2.5489 C   0  0  0  0  0  0  0  0  0  0  0  0
    0.7344   -0.9307   -1.7045 C   0  0  0  0  0  0  0  0  0  0  0  0
   -0.2765   -0.5458   -0.8348 C   0  0  0  0  0  0  0  0  0  0  0  0
   -1.5133   -1.0490   -0.9978 N   0  0  0  0  0  0  0  0  0  0  0  0
   -2.4509   -0.6209   -0.1157 C   0  0  0  0  0  0  0  0  0  0  0  0
   -3.8354   -1.1284   -0.2306 C   0  0  0  0  0  0  0  0  0  0  0  0
   -4.1265   -1.9352   -1.1116 O   0  0  0  0  0  0  0  0  0  0  0  0
   -8.0453    0.8747    0.9982 H   0  0  0  0  0  0  0  0  0  0  0  0
   -8.2859    1.2823   -0.7982 H   0  0  0  0  0  0  0  0  0  0  0  0
   -6.6347   -0.3801   -1.4324 H   0  0  0  0  0  0  0  0  0  0  0  0
   -6.1611   -2.1388    0.2471 H   0  0  0  0  0  0  0  0  0  0  0  0
   -6.6157   -1.0832    1.5826 H   0  0  0  0  0  0  0  0  0  0  0  0
   -2.9019    1.3330    2.5016 H   0  0  0  0  0  0  0  0  0  0  0  0
    1.5405    1.5662    1.1193 H   0  0  0  0  0  0  0  0  0  0  0  0
    4.0509   -0.5325    1.0034 H   0  0  0  0  0  0  0  0  0  0  0  0
    7.4008    0.2770    1.9254 H   0  0  0  0  0  0  0  0  0  0  0  0
    6.0010   -0.7388    2.2686 H   0  0  0  0  0  0  0  0  0  0  0  0
    6.9244   -0.9874    0.7698 H   0  0  0  0  0  0  0  0  0  0  0  0
    6.6258    1.3290   -1.0119 H   0  0  0  0  0  0  0  0  0  0  0  0
    5.7313    2.6111   -0.1594 H   0  0  0  0  0  0  0  0  0  0  0  0
    7.2853    2.0647    0.4637 H   0  0  0  0  0  0  0  0  0  0  0  0
    2.6861   -1.4713   -3.3608 H   0  0  0  0  0  0  0  0  0  0  0  0
    3.5844    0.0050   -3.0050 H   0  0  0  0  0  0  0  0  0  0  0  0
    3.8605   -1.4716   -2.0367 H   0  0  0  0  0  0  0  0  0  0  0  0
    0.4901   -1.6295   -2.5026 H   0  0  0  0  0  0  0  0  0  0  0  0
  1  2  2  0
  2  3  1  0
  3  4  1  0
  4  5  1  0
  5  6  2  0
  5  7  1  0
  7  8  1  0
  8  9  2  0
  9 10  1  0
 10 11  2  0
 11 12  1  0
 12 13  1  0
 13 14  2  3
 14 15  1  0
 15 16  1  0
 15 17  1  0
 12 18  2  0
 18 19  1  0
 18 20  1  0
 20 21  2  0
 21 22  1  0
 22 23  2  0
 23 24  1  0
 24 25  2  0
 24  4  1  0
 23  8  1  0
 21 10  1  0
  1 26  1  0
  1 27  1  0
  2 28  1  0
  3 29  1  0
  3 30  1  0
  7 31  1  0
 11 32  1  0
 14 33  1  0
 16 34  1  0
 16 35  1  0
 16 36  1  0
 17 37  1  0
 17 38  1  0
 17 39  1  0
 19 40  1  0
 19 41  1  0
 19 42  1  0
 20 43  1  0
M  END
$$$$
