
     RDKit          3D

 49 52  0  0  0  0  0  0  0  0999 V2000
    1.1628   -3.2231   -0.0328 N   0  0  0  0  0  0  0  0  0  0  0  0
   -0.0521   -2.6595   -0.1660 C   0  0  0  0  0  0  0  0  0  0  0  0
   -1.0389   -3.2386   -0.7779 N   0  0  0  0  0  0  0  0  0  0  0  0
   -2.1586   -2.2600   -0.6768 C   0  0  0  0  0  0  0  0  0  0  0  0
   -1.6177   -1.0152    0.0637 C   0  0  0  0  0  0  0  0  0  0  0  0
   -2.3972   -0.6943    1.3464 C   0  0  0  0  0  0  0  0  0  0  0  0
   -3.7647   -0.1129    1.0732 C   0  0  0  0  0  0  0  0  0  0  0  0
   -3.8970    1.2167    0.6467 C   0  0  0  0  0  0  0  0  0  0  0  0
   -5.1584    1.7507    0.3804 C   0  0  0  0  0  0  0  0  0  0  0  0
   -6.2890    0.9597    0.5402 C   0  0  0  0  0  0  0  0  0  0  0  0
   -7.5009    1.5218    0.2679 O   0  0  0  0  0  0  0  0  0  0  0  0
   -6.1807   -0.3599    0.9650 C   0  0  0  0  0  0  0  0  0  0  0  0
   -4.9181   -0.8945    1.2321 C   0  0  0  0  0  0  0  0  0  0  0  0
   -0.2509   -1.4331    0.3825 N   0  0  0  0  0  0  0  0  0  0  0  0
    0.7856   -0.4105    0.5040 C   0  0  0  0  0  0  0  0  0  0  0  0
    1.2906    0.0735   -0.8628 C   0  0  0  0  0  0  0  0  0  0  0  0
    2.3945    1.1030   -0.7141 C   0  0  0  0  0  0  0  0  0  0  0  0
    2.0311    2.4613   -0.7499 C   0  0  0  0  0  0  0  0  0  0  0  0
    2.9869    3.4578   -0.5907 C   0  0  0  0  0  0  0  0  0  0  0  0
    4.3199    3.1129   -0.3883 C   0  0  0  0  0  0  0  0  0  0  0  0
    4.7178    1.7689   -0.3434 C   0  0  0  0  0  0  0  0  0  0  0  0
    6.0687    1.4440   -0.1355 C   0  0  0  0  0  0  0  0  0  0  0  0
    6.4893    0.1164   -0.0874 C   0  0  0  0  0  0  0  0  0  0  0  0
    5.5630   -0.9044   -0.2481 C   0  0  0  0  0  0  0  0  0  0  0  0
    4.2158   -0.5973   -0.4554 C   0  0  0  0  0  0  0  0  0  0  0  0
    3.7558    0.7394   -0.5075 C   0  0  0  0  0  0  0  0  0  0  0  0
    1.5173   -3.1482    0.9119 H   0  0  0  0  0  0  0  0  0  0  0  0
    1.1245   -4.1940   -0.3271 H   0  0  0  0  0  0  0  0  0  0  0  0
   -2.4930   -1.9918   -1.6850 H   0  0  0  0  0  0  0  0  0  0  0  0
   -2.9957   -2.7359   -0.1568 H   0  0  0  0  0  0  0  0  0  0  0  0
   -1.6158   -0.1586   -0.6208 H   0  0  0  0  0  0  0  0  0  0  0  0
   -1.8387    0.0283    1.9561 H   0  0  0  0  0  0  0  0  0  0  0  0
   -2.4854   -1.5902    1.9755 H   0  0  0  0  0  0  0  0  0  0  0  0
   -3.0202    1.8481    0.5223 H   0  0  0  0  0  0  0  0  0  0  0  0
   -5.2593    2.7808    0.0508 H   0  0  0  0  0  0  0  0  0  0  0  0
   -8.1917    0.8573    0.4237 H   0  0  0  0  0  0  0  0  0  0  0  0
   -7.0591   -0.9842    1.0939 H   0  0  0  0  0  0  0  0  0  0  0  0
   -4.8413   -1.9279    1.5648 H   0  0  0  0  0  0  0  0  0  0  0  0
    1.6135   -0.8051    1.1051 H   0  0  0  0  0  0  0  0  0  0  0  0
    0.3912    0.4402    1.0738 H   0  0  0  0  0  0  0  0  0  0  0  0
    0.4612    0.5139   -1.4312 H   0  0  0  0  0  0  0  0  0  0  0  0
    1.6342   -0.7590   -1.4867 H   0  0  0  0  0  0  0  0  0  0  0  0
    0.9935    2.7502   -0.9050 H   0  0  0  0  0  0  0  0  0  0  0  0
    2.6954    4.5043   -0.6241 H   0  0  0  0  0  0  0  0  0  0  0  0
    5.0524    3.9080   -0.2657 H   0  0  0  0  0  0  0  0  0  0  0  0
    6.8101    2.2304   -0.0099 H   0  0  0  0  0  0  0  0  0  0  0  0
    7.5384   -0.1173    0.0719 H   0  0  0  0  0  0  0  0  0  0  0  0
    5.8837   -1.9424   -0.2175 H   0  0  0  0  0  0  0  0  0  0  0  0
    3.5273   -1.4295   -0.5828 H   0  0  0  0  0  0  0  0  0  0  0  0
  1  2  1  0
  2  3  2  0
  3  4  1  0
  4  5  1  0
  5  6  1  0
  6  7  1  0
  7  8  2  0
  8  9  1  0
  9 10  2  0
 10 11  1  0
 10 12  1  0
 12 13  2  0
  5 14  1  0
 14 15  1  0
 15 16  1  0
 16 17  1  0
 17 18  2  0
 18 19  1  0
 19 20  2  0
 20 21  1  0
 21 22  2  0
 22 23  1  0
 23 24  2  0
 24 25  1  0
 25 26  2  0
 14  2  1  0
 26 17  1  0
 13  7  1  0
 26 21  1  0
  1 27  1  0
  1 28  1  0
  4 29  1  0
  4 30  1  0
  5 31  1  0
  6 32  1  0
  6 33  1  0
  8 34  1  0
  9 35  1  0
 11 36  1  0
 12 37  1  0
 13 38  1  0
 15 39  1  0
 15 40  1  0
 16 41  1  0
 16 42  1  0
 18 43  1  0
 19 44  1  0
 20 45  1  0
 22 46  1  0
 23 47  1  0
 24 48  1  0
 25 49  1  0
M  END
$$$$
