
     RDKit          3D

 31 32  0  0  0  0  0  0  0  0999 V2000
   -5.9182   -2.0177    0.8010 N   0  0  0  0  0  0  0  0  0  0  0  0
   -5.1727   -0.8175    0.8076 N   0  0  0  0  0  0  0  0  0  0  0  0
   -4.1089   -0.6731   -0.0842 C   0  0  0  0  0  0  0  0  0  0  0  0
   -3.7357   -1.5854   -0.8178 O   0  0  0  0  0  0  0  0  0  0  0  0
   -3.4731    0.7201   -0.0291 C   0  0  0  0  0  0  0  0  0  0  0  0
   -2.3624    0.9328   -0.8830 O   0  0  0  0  0  0  0  0  0  0  0  0
   -1.1248    0.6004   -0.4079 C   0  0  0  0  0  0  0  0  0  0  0  0
   -0.8577   -0.2550    0.6588 C   0  0  0  0  0  0  0  0  0  0  0  0
    0.4649   -0.5133    1.0415 C   0  0  0  0  0  0  0  0  0  0  0  0
    1.5462    0.0729    0.3629 C   0  0  0  0  0  0  0  0  0  0  0  0
    2.9647   -0.2279    0.8039 C   0  0  0  0  0  0  0  0  0  0  0  0
    3.9287   -1.0908   -0.4824 S   0  0  0  0  0  0  0  0  0  0  0  0
    5.1435    0.2219   -0.7580 C   0  0  0  0  0  0  0  0  0  0  0  0
    5.4363    0.8681    0.5801 C   0  0  0  0  0  0  0  0  0  0  0  0
    3.8508    1.2699    1.3531 S   0  0  0  0  0  0  0  0  0  0  0  0
    1.2618    0.9202   -0.7200 C   0  0  0  0  0  0  0  0  0  0  0  0
   -0.0587    1.1742   -1.1012 C   0  0  0  0  0  0  0  0  0  0  0  0
   -5.9270   -2.3608   -0.1700 H   0  0  0  0  0  0  0  0  0  0  0  0
   -5.3590   -2.7285    1.2848 H   0  0  0  0  0  0  0  0  0  0  0  0
   -5.5707   -0.0052    1.2759 H   0  0  0  0  0  0  0  0  0  0  0  0
   -3.2400    0.9858    1.0100 H   0  0  0  0  0  0  0  0  0  0  0  0
   -4.2481    1.4233   -0.3580 H   0  0  0  0  0  0  0  0  0  0  0  0
   -1.6491   -0.7590    1.2022 H   0  0  0  0  0  0  0  0  0  0  0  0
    0.6421   -1.1903    1.8753 H   0  0  0  0  0  0  0  0  0  0  0  0
    2.9407   -0.9019    1.6668 H   0  0  0  0  0  0  0  0  0  0  0  0
    6.0528   -0.2020   -1.1944 H   0  0  0  0  0  0  0  0  0  0  0  0
    4.7375    0.9456   -1.4734 H   0  0  0  0  0  0  0  0  0  0  0  0
    5.9977    0.1948    1.2373 H   0  0  0  0  0  0  0  0  0  0  0  0
    6.0279    1.7796    0.4531 H   0  0  0  0  0  0  0  0  0  0  0  0
    2.0664    1.3898   -1.2813 H   0  0  0  0  0  0  0  0  0  0  0  0
   -0.2561    1.8291   -1.9464 H   0  0  0  0  0  0  0  0  0  0  0  0
  1  2  1  0
  2  3  1  0
  3  4  2  0
  3  5  1  0
  5  6  1  0
  6  7  1  0
  7  8  2  0
  8  9  1  0
  9 10  2  0
 10 11  1  0
 11 12  1  0
 12 13  1  0
 13 14  1  0
 14 15  1  0
 10 16  1  0
 16 17  2  0
 17  7  1  0
 15 11  1  0
  1 18  1  0
  1 19  1  0
  2 20  1  0
  5 21  1  0
  5 22  1  0
  8 23  1  0
  9 24  1  0
 11 25  1  0
 13 26  1  0
 13 27  1  0
 14 28  1  0
 14 29  1  0
 16 30  1  0
 17 31  1  0
M  END
$$$$
