
     RDKit          3D

 59 60  0  0  0  0  0  0  0  0999 V2000
    5.1354   -1.7792   -3.1687 C   0  0  0  0  0  0  0  0  0  0  0  0
    5.1900   -1.3438   -1.7017 C   0  0  0  0  0  0  0  0  0  0  0  0
    6.4961   -0.5956   -1.4332 C   0  0  0  0  0  0  0  0  0  0  0  0
    3.9478   -0.5016   -1.3630 C   0  0  0  0  0  0  0  0  0  0  0  0
    3.8825   -0.0685    0.1022 C   0  0  0  0  0  0  0  0  0  0  0  0
    2.6055    0.5360    0.4222 N   0  0  0  0  0  0  0  0  0  0  0  0
    2.2951    1.8374    0.0806 C   0  0  0  0  0  0  0  0  0  0  0  0
    3.1096    2.5400   -0.5172 O   0  0  0  0  0  0  0  0  0  0  0  0
    0.9808    2.3148    0.4620 C   0  0  0  0  0  0  0  0  0  0  0  0
    0.7684    3.6570    0.3230 O   0  0  0  0  0  0  0  0  0  0  0  0
   -0.5056    3.9857    0.7284 N   0  0  0  0  0  0  0  0  0  0  0  0
   -1.0851    2.8349    1.0932 C   0  0  0  0  0  0  0  0  0  0  0  0
   -2.4644    2.8783    1.6643 C   0  0  0  0  0  0  0  0  0  0  0  0
   -3.8131    2.2169    0.6338 S   0  0  0  0  0  0  0  0  0  0  0  0
   -3.2038    2.5868   -0.9891 C   0  0  0  0  0  0  0  0  0  0  0  0
   -3.4841    3.7947   -1.6100 C   0  0  0  0  0  0  0  0  0  0  0  0
   -2.9524    4.0251   -2.8749 C   0  0  0  0  0  0  0  0  0  0  0  0
   -2.1650    3.0473   -3.4720 C   0  0  0  0  0  0  0  0  0  0  0  0
   -1.9478    1.8671   -2.7810 C   0  0  0  0  0  0  0  0  0  0  0  0
   -2.4537    1.6096   -1.5543 N   0  0  0  0  0  0  0  0  0  0  0  0
   -0.1913    1.7360    0.9210 C   0  0  0  0  0  0  0  0  0  0  0  0
   -0.3982    0.3306    1.1731 C   0  0  0  0  0  0  0  0  0  0  0  0
    0.4357   -0.3457    1.7669 O   0  0  0  0  0  0  0  0  0  0  0  0
   -1.5582   -0.1823    0.6563 N   0  0  0  0  0  0  0  0  0  0  0  0
   -1.9301   -1.5740    0.7940 C   0  0  0  0  0  0  0  0  0  0  0  0
   -2.6167   -1.8304    2.1356 C   0  0  0  0  0  0  0  0  0  0  0  0
   -2.9531   -3.3121    2.3797 C   0  0  0  0  0  0  0  0  0  0  0  0
   -3.9682   -3.8528    1.3716 C   0  0  0  0  0  0  0  0  0  0  0  0
   -3.4902   -3.4926    3.8013 C   0  0  0  0  0  0  0  0  0  0  0  0
    4.2118   -2.3290   -3.3832 H   0  0  0  0  0  0  0  0  0  0  0  0
    5.1772   -0.9140   -3.8400 H   0  0  0  0  0  0  0  0  0  0  0  0
    5.9770   -2.4364   -3.4119 H   0  0  0  0  0  0  0  0  0  0  0  0
    5.1782   -2.2501   -1.0821 H   0  0  0  0  0  0  0  0  0  0  0  0
    7.3574   -1.1893   -1.7578 H   0  0  0  0  0  0  0  0  0  0  0  0
    6.6273   -0.3931   -0.3662 H   0  0  0  0  0  0  0  0  0  0  0  0
    6.5239    0.3613   -1.9667 H   0  0  0  0  0  0  0  0  0  0  0  0
    3.9129    0.3847   -2.0101 H   0  0  0  0  0  0  0  0  0  0  0  0
    3.0487   -1.0865   -1.5995 H   0  0  0  0  0  0  0  0  0  0  0  0
    3.9983   -0.9347    0.7621 H   0  0  0  0  0  0  0  0  0  0  0  0
    4.6735    0.6517    0.3355 H   0  0  0  0  0  0  0  0  0  0  0  0
    1.9742    0.0085    1.0230 H   0  0  0  0  0  0  0  0  0  0  0  0
   -2.7310    3.9136    1.9088 H   0  0  0  0  0  0  0  0  0  0  0  0
   -2.4760    2.3283    2.6122 H   0  0  0  0  0  0  0  0  0  0  0  0
   -4.0938    4.5493   -1.1260 H   0  0  0  0  0  0  0  0  0  0  0  0
   -3.1449    4.9631   -3.3874 H   0  0  0  0  0  0  0  0  0  0  0  0
   -1.7300    3.2019   -4.4538 H   0  0  0  0  0  0  0  0  0  0  0  0
   -1.3404    1.0745   -3.2112 H   0  0  0  0  0  0  0  0  0  0  0  0
   -2.0936    0.3905    0.0010 H   0  0  0  0  0  0  0  0  0  0  0  0
   -1.0318   -2.1934    0.6961 H   0  0  0  0  0  0  0  0  0  0  0  0
   -2.6001   -1.8021   -0.0401 H   0  0  0  0  0  0  0  0  0  0  0  0
   -1.9622   -1.4769    2.9432 H   0  0  0  0  0  0  0  0  0  0  0  0
   -3.5293   -1.2231    2.1981 H   0  0  0  0  0  0  0  0  0  0  0  0
   -2.0319   -3.9020    2.2901 H   0  0  0  0  0  0  0  0  0  0  0  0
   -4.8882   -3.2577    1.3763 H   0  0  0  0  0  0  0  0  0  0  0  0
   -3.5626   -3.8471    0.3554 H   0  0  0  0  0  0  0  0  0  0  0  0
   -4.2356   -4.8885    1.6070 H   0  0  0  0  0  0  0  0  0  0  0  0
   -4.4174   -2.9287    3.9501 H   0  0  0  0  0  0  0  0  0  0  0  0
   -2.7601   -3.1466    4.5407 H   0  0  0  0  0  0  0  0  0  0  0  0
   -3.6976   -4.5478    4.0085 H   0  0  0  0  0  0  0  0  0  0  0  0
  1  2  1  0
  2  3  1  0
  2  4  1  0
  4  5  1  0
  5  6  1  0
  6  7  1  0
  7  8  2  0
  7  9  1  0
  9 10  1  0
 10 11  1  0
 11 12  2  0
 12 13  1  0
 13 14  1  0
 14 15  1  0
 15 16  2  0
 16 17  1  0
 17 18  2  0
 18 19  1  0
 19 20  2  0
 12 21  1  0
 21 22  1  0
 22 23  2  0
 22 24  1  0
 24 25  1  0
 25 26  1  0
 26 27  1  0
 27 28  1  0
 27 29  1  0
 21  9  2  0
 20 15  1  0
  1 30  1  0
  1 31  1  0
  1 32  1  0
  2 33  1  0
  3 34  1  0
  3 35  1  0
  3 36  1  0
  4 37  1  0
  4 38  1  0
  5 39  1  0
  5 40  1  0
  6 41  1  0
 13 42  1  0
 13 43  1  0
 16 44  1  0
 17 45  1  0
 18 46  1  0
 19 47  1  0
 24 48  1  0
 25 49  1  0
 25 50  1  0
 26 51  1  0
 26 52  1  0
 27 53  1  0
 28 54  1  0
 28 55  1  0
 28 56  1  0
 29 57  1  0
 29 58  1  0
 29 59  1  0
M  END
$$$$
