
     RDKit          3D

 43 44  0  0  0  0  0  0  0  0999 V2000
    7.3006    0.2552    1.3490 C   0  0  0  0  0  0  0  0  0  0  0  0
    6.2177    0.0911    0.4319 O   0  0  0  0  0  0  0  0  0  0  0  0
    5.0522    0.6427    0.8535 C   0  0  0  0  0  0  0  0  0  0  0  0
    4.8819    1.2304    1.9096 O   0  0  0  0  0  0  0  0  0  0  0  0
    3.9801    0.4396   -0.1577 C   0  0  0  0  0  0  0  0  0  0  0  0
    4.1711   -0.3366   -1.3093 C   0  0  0  0  0  0  0  0  0  0  0  0
    3.1322   -0.4989   -2.2312 C   0  0  0  0  0  0  0  0  0  0  0  0
    1.9063    0.1399   -2.0335 C   0  0  0  0  0  0  0  0  0  0  0  0
    0.8295   -0.1163   -2.9134 N   0  0  0  0  0  0  0  0  0  0  0  0
    1.6893    0.8600   -0.8364 C   0  0  0  0  0  0  0  0  0  0  0  0
    0.4339    1.4408   -0.5714 N   0  0  0  0  0  0  0  0  0  0  0  0
   -0.4673    0.6232   -0.1295 C   0  0  0  0  0  0  0  0  0  0  0  0
   -1.8762    1.0785    0.1173 C   0  0  0  0  0  0  0  0  0  0  0  0
   -2.7895    0.5546   -0.9649 C   0  0  0  0  0  0  0  0  0  0  0  0
   -2.9507    1.1622   -2.0244 O   0  0  0  0  0  0  0  0  0  0  0  0
   -3.3915   -0.8213   -0.7760 C   0  0  0  0  0  0  0  0  0  0  0  0
   -4.0004   -0.9957    0.6237 C   0  0  0  0  0  0  0  0  0  0  0  0
   -5.2361   -0.0911    0.7956 C   0  0  0  0  0  0  0  0  0  0  0  0
   -4.4479   -2.4595    0.7903 C   0  0  0  0  0  0  0  0  0  0  0  0
   -2.9431   -0.6773    1.6921 C   0  0  0  0  0  0  0  0  0  0  0  0
   -2.3372    0.6970    1.5012 C   0  0  0  0  0  0  0  0  0  0  0  0
   -2.1268    1.4223    2.4738 O   0  0  0  0  0  0  0  0  0  0  0  0
    2.7331    1.0319    0.0755 C   0  0  0  0  0  0  0  0  0  0  0  0
    7.0753   -0.2373    2.3002 H   0  0  0  0  0  0  0  0  0  0  0  0
    7.5158    1.3174    1.5025 H   0  0  0  0  0  0  0  0  0  0  0  0
    8.1859   -0.2180    0.9154 H   0  0  0  0  0  0  0  0  0  0  0  0
    5.1217   -0.8290   -1.5001 H   0  0  0  0  0  0  0  0  0  0  0  0
    3.2909   -1.1220   -3.1074 H   0  0  0  0  0  0  0  0  0  0  0  0
    0.1498    0.6464   -2.8537 H   0  0  0  0  0  0  0  0  0  0  0  0
    1.1308   -0.2616   -3.8724 H   0  0  0  0  0  0  0  0  0  0  0  0
   -0.2492   -0.4487    0.0407 H   0  0  0  0  0  0  0  0  0  0  0  0
   -1.9188    2.1738    0.0591 H   0  0  0  0  0  0  0  0  0  0  0  0
   -4.1561   -0.9748   -1.5470 H   0  0  0  0  0  0  0  0  0  0  0  0
   -2.5941   -1.5533   -0.9535 H   0  0  0  0  0  0  0  0  0  0  0  0
   -6.0020   -0.3267    0.0479 H   0  0  0  0  0  0  0  0  0  0  0  0
   -5.6870   -0.2266    1.7853 H   0  0  0  0  0  0  0  0  0  0  0  0
   -4.9897    0.9705    0.6898 H   0  0  0  0  0  0  0  0  0  0  0  0
   -3.6034   -3.1487    0.6767 H   0  0  0  0  0  0  0  0  0  0  0  0
   -5.2010   -2.7307    0.0419 H   0  0  0  0  0  0  0  0  0  0  0  0
   -4.8846   -2.6296    1.7809 H   0  0  0  0  0  0  0  0  0  0  0  0
   -3.3866   -0.7251    2.6941 H   0  0  0  0  0  0  0  0  0  0  0  0
   -2.1215   -1.4032    1.6621 H   0  0  0  0  0  0  0  0  0  0  0  0
    2.5628    1.6248    0.9717 H   0  0  0  0  0  0  0  0  0  0  0  0
  1  2  1  0
  2  3  1  0
  3  4  2  0
  3  5  1  0
  5  6  2  0
  6  7  1  0
  7  8  2  0
  8  9  1  0
  8 10  1  0
 10 11  1  0
 11 12  2  3
 12 13  1  0
 13 14  1  0
 14 15  2  0
 14 16  1  0
 16 17  1  0
 17 18  1  0
 17 19  1  0
 17 20  1  0
 20 21  1  0
 21 22  2  0
 10 23  2  0
 23  5  1  0
 21 13  1  0
  1 24  1  0
  1 25  1  0
  1 26  1  0
  6 27  1  0
  7 28  1  0
  9 29  1  0
  9 30  1  0
 12 31  1  0
 13 32  1  0
 16 33  1  0
 16 34  1  0
 18 35  1  0
 18 36  1  0
 18 37  1  0
 19 38  1  0
 19 39  1  0
 19 40  1  0
 20 41  1  0
 20 42  1  0
 23 43  1  0
M  END
$$$$
