
     RDKit          3D

 41 42  0  0  0  0  0  0  0  0999 V2000
    1.9406   -0.2626   -1.6779 C   0  0  0  0  0  0  0  0  0  0  0  0
    2.3949    0.2585   -0.3298 C   0  0  0  0  0  0  0  0  0  0  0  0
    1.5979    0.7890    0.5508 N   0  0  0  0  0  0  0  0  0  0  0  0
    0.2673    0.8572    0.2889 N   0  0  0  0  0  0  0  0  0  0  0  0
   -0.5859    1.5245    1.1509 C   0  0  0  0  0  0  0  0  0  0  0  0
   -0.2336    2.0892    2.1873 O   0  0  0  0  0  0  0  0  0  0  0  0
   -2.0588    1.4719    0.7644 C   0  0  0  0  0  0  0  0  0  0  0  0
   -2.3417    1.0658   -0.9969 S   0  0  0  0  0  0  0  0  0  0  0  0
   -4.1564    1.2534   -1.0552 C   0  0  0  0  0  0  0  0  0  0  0  0
   -4.8931    0.1784   -0.2928 C   0  0  0  0  0  0  0  0  0  0  0  0
   -4.8683   -1.1364   -0.8017 C   0  0  0  0  0  0  0  0  0  0  0  0
   -5.5248   -2.1801   -0.1475 C   0  0  0  0  0  0  0  0  0  0  0  0
   -6.2235   -1.9312    1.0283 C   0  0  0  0  0  0  0  0  0  0  0  0
   -6.2674   -0.6385    1.5472 C   0  0  0  0  0  0  0  0  0  0  0  0
   -5.6101    0.4116    0.8933 C   0  0  0  0  0  0  0  0  0  0  0  0
   -5.7489    2.1295    1.6936 Br  0  0  0  0  0  0  0  0  0  0  0  0
    3.8479    0.1636    0.0161 C   0  0  0  0  0  0  0  0  0  0  0  0
    4.3939    1.1053    0.9020 C   0  0  0  0  0  0  0  0  0  0  0  0
    5.7426    1.0482    1.2618 C   0  0  0  0  0  0  0  0  0  0  0  0
    6.5592    0.0432    0.7455 C   0  0  0  0  0  0  0  0  0  0  0  0
    6.0121   -0.9067   -0.1277 C   0  0  0  0  0  0  0  0  0  0  0  0
    6.8664   -1.9733   -0.6652 N   0  0  0  0  0  4  0  0  0  0  0  0
    8.0344   -2.0388   -0.2579 O   0  0  0  0  0  0  0  0  0  0  0  0
    6.3672   -2.7426   -1.4992 O   0  0  0  0  0  1  0  0  0  0  0  0
    4.6579   -0.8562   -0.4938 C   0  0  0  0  0  0  0  0  0  0  0  0
    1.2933    0.4746   -2.1627 H   0  0  0  0  0  0  0  0  0  0  0  0
    2.7773   -0.4376   -2.3578 H   0  0  0  0  0  0  0  0  0  0  0  0
    1.3882   -1.1959   -1.5381 H   0  0  0  0  0  0  0  0  0  0  0  0
   -0.1226    0.4735   -0.5668 H   0  0  0  0  0  0  0  0  0  0  0  0
   -2.4883    2.4577    0.9656 H   0  0  0  0  0  0  0  0  0  0  0  0
   -2.5360    0.7182    1.3970 H   0  0  0  0  0  0  0  0  0  0  0  0
   -4.4165    2.2669   -0.7421 H   0  0  0  0  0  0  0  0  0  0  0  0
   -4.4574    1.1928   -2.1082 H   0  0  0  0  0  0  0  0  0  0  0  0
   -4.3275   -1.3558   -1.7218 H   0  0  0  0  0  0  0  0  0  0  0  0
   -5.4891   -3.1868   -0.5570 H   0  0  0  0  0  0  0  0  0  0  0  0
   -6.7356   -2.7416    1.5411 H   0  0  0  0  0  0  0  0  0  0  0  0
   -6.8202   -0.4583    2.4666 H   0  0  0  0  0  0  0  0  0  0  0  0
    3.7657    1.8916    1.3214 H   0  0  0  0  0  0  0  0  0  0  0  0
    6.1503    1.7862    1.9499 H   0  0  0  0  0  0  0  0  0  0  0  0
    7.6075    0.0100    1.0366 H   0  0  0  0  0  0  0  0  0  0  0  0
    4.2412   -1.6183   -1.1470 H   0  0  0  0  0  0  0  0  0  0  0  0
  1  2  1  0
  2  3  2  3
  3  4  1  0
  4  5  1  0
  5  6  2  0
  5  7  1  0
  7  8  1  0
  8  9  1  0
  9 10  1  0
 10 11  2  0
 11 12  1  0
 12 13  2  0
 13 14  1  0
 14 15  2  0
 15 16  1  0
  2 17  1  0
 17 18  2  0
 18 19  1  0
 19 20  2  0
 20 21  1  0
 21 22  1  0
 22 23  2  0
 22 24  1  0
 21 25  2  0
 15 10  1  0
 25 17  1  0
  1 26  1  0
  1 27  1  0
  1 28  1  0
  4 29  1  0
  7 30  1  0
  7 31  1  0
  9 32  1  0
  9 33  1  0
 11 34  1  0
 12 35  1  0
 13 36  1  0
 14 37  1  0
 18 38  1  0
 19 39  1  0
 20 40  1  0
 25 41  1  0
M  CHG  2  22   1  24  -1
M  END
$$$$
