
     RDKit          3D

 30 33  0  0  0  0  0  0  0  0999 V2000
    1.7782    0.7764    1.3315 O   0  0  0  0  0  0  0  0  0  0  0  0
    1.4326    0.0029    0.4602 C   0  0  0  0  0  0  0  0  0  0  0  0
    2.2222   -0.9575   -0.3890 C   0  0  0  0  0  0  0  0  0  0  0  0
    3.5531   -1.1101   -0.4535 C   0  0  0  0  0  0  0  0  0  0  0  0
    4.4894   -0.2871    0.2228 C   0  0  0  0  0  0  0  0  0  0  0  0
    5.7191   -0.6406    0.7672 C   0  0  0  0  0  0  0  0  0  0  0  0
    6.3077    0.5276    1.3077 C   0  0  0  0  0  0  0  0  0  0  0  0
    5.4238    1.5430    1.0502 C   0  0  0  0  0  0  0  0  0  0  0  0
    4.3444    1.0696    0.3839 O   0  0  0  0  0  0  0  0  0  0  0  0
    1.1637   -1.9838   -1.3739 S   0  0  0  0  0  0  0  0  0  0  0  0
   -0.2010   -1.1355   -0.7876 C   0  0  0  0  0  0  0  0  0  0  0  0
   -1.4857   -1.2073   -0.9809 N   0  0  0  0  0  0  0  0  0  0  0  0
   -1.9553   -0.2020   -0.1402 C   0  0  0  0  0  0  0  0  0  0  0  0
   -3.3816    0.0653   -0.0078 C   0  0  0  0  0  0  0  0  0  0  0  0
   -4.2458   -1.0402    0.1031 C   0  0  0  0  0  0  0  0  0  0  0  0
   -5.6235   -0.8662    0.2505 C   0  0  0  0  0  0  0  0  0  0  0  0
   -6.1599    0.4168    0.2830 C   0  0  0  0  0  0  0  0  0  0  0  0
   -5.3206    1.5240    0.1581 C   0  0  0  0  0  0  0  0  0  0  0  0
   -3.9365    1.3547    0.0083 C   0  0  0  0  0  0  0  0  0  0  0  0
   -2.9138    2.9409   -0.2370 Br  0  0  0  0  0  0  0  0  0  0  0  0
   -0.9970    0.4166    0.5814 N   0  0  0  0  0  0  0  0  0  0  0  0
    0.1100   -0.1870    0.1147 N   0  0  0  0  0  0  0  0  0  0  0  0
    3.9750   -1.8974   -1.0737 H   0  0  0  0  0  0  0  0  0  0  0  0
    6.1365   -1.6383    0.7814 H   0  0  0  0  0  0  0  0  0  0  0  0
    7.2555    0.6178    1.8191 H   0  0  0  0  0  0  0  0  0  0  0  0
    5.4138    2.6035    1.2602 H   0  0  0  0  0  0  0  0  0  0  0  0
   -3.8419   -2.0515    0.0799 H   0  0  0  0  0  0  0  0  0  0  0  0
   -6.2743   -1.7326    0.3399 H   0  0  0  0  0  0  0  0  0  0  0  0
   -7.2320    0.5573    0.3975 H   0  0  0  0  0  0  0  0  0  0  0  0
   -5.7563    2.5206    0.1703 H   0  0  0  0  0  0  0  0  0  0  0  0
  1  2  2  0
  2  3  1  0
  3  4  2  3
  4  5  1  0
  5  6  2  0
  6  7  1  0
  7  8  2  0
  8  9  1  0
  3 10  1  0
 10 11  1  0
 11 12  2  0
 12 13  1  0
 13 14  1  0
 14 15  2  0
 15 16  1  0
 16 17  2  0
 17 18  1  0
 18 19  2  0
 19 20  1  0
 13 21  2  0
 21 22  1  0
 22  2  1  0
  9  5  1  0
 22 11  1  0
 19 14  1  0
  4 23  1  0
  6 24  1  0
  7 25  1  0
  8 26  1  0
 15 27  1  0
 16 28  1  0
 17 29  1  0
 18 30  1  0
M  END
$$$$
