
     RDKit          3D

 60 61  0  0  0  0  0  0  0  0999 V2000
    0.4144   -2.1220   -3.1899 C   0  0  0  0  0  0  0  0  0  0  0  0
   -0.0801   -1.7563   -1.9086 O   0  0  0  0  0  0  0  0  0  0  0  0
    0.4195   -0.6129   -1.3420 C   0  0  0  0  0  0  0  0  0  0  0  0
    1.6016    0.0091   -1.7604 C   0  0  0  0  0  0  0  0  0  0  0  0
    2.0655    1.1615   -1.1202 C   0  0  0  0  0  0  0  0  0  0  0  0
    1.3585    1.6989   -0.0409 C   0  0  0  0  0  0  0  0  0  0  0  0
    1.8337    2.9190    0.6577 C   0  0  0  0  0  0  0  0  0  0  0  0
    1.0067    3.6940    1.1366 O   0  0  0  0  0  0  0  0  0  0  0  0
    3.2813    3.2167    0.8046 C   0  0  0  0  0  0  0  0  0  0  0  0
    4.2191    2.2768    0.9980 C   0  0  0  0  0  0  0  0  0  0  0  0
    5.6453    2.5806    1.1788 C   0  0  0  0  0  0  0  0  0  0  0  0
    6.5970    1.7229    0.6073 C   0  0  0  0  0  0  0  0  0  0  0  0
    7.9648    1.9620    0.7725 C   0  0  0  0  0  0  0  0  0  0  0  0
    8.3809    3.0563    1.5220 C   0  0  0  0  0  0  0  0  0  0  0  0
    9.7027    3.3278    1.7113 O   0  0  0  0  0  0  0  0  0  0  0  0
    7.4546    3.9082    2.1095 C   0  0  0  0  0  0  0  0  0  0  0  0
    6.0879    3.6682    1.9439 C   0  0  0  0  0  0  0  0  0  0  0  0
    0.1540    1.0968    0.3585 C   0  0  0  0  0  0  0  0  0  0  0  0
   -0.6073    1.6319    1.3707 O   0  0  0  0  0  0  0  0  0  0  0  0
   -0.3156   -0.0755   -0.2649 C   0  0  0  0  0  0  0  0  0  0  0  0
   -1.6182   -0.7136    0.1823 C   0  0  0  0  0  0  0  0  0  0  0  0
   -2.8160   -0.1310   -0.5239 C   0  0  0  0  0  0  0  0  0  0  0  0
   -3.7017   -0.7545   -1.3282 C   0  0  0  0  0  0  0  0  0  0  0  0
   -4.8548    0.0145   -1.9203 C   0  0  0  0  0  0  0  0  0  0  0  0
   -3.6270   -2.2147   -1.7294 C   0  0  0  0  0  0  0  0  0  0  0  0
   -4.6714   -3.1137   -1.0485 C   0  0  0  0  0  0  0  0  0  0  0  0
   -4.4529   -3.2453    0.4361 C   0  0  0  0  0  0  0  0  0  0  0  0
   -5.2628   -2.8485    1.4378 C   0  0  0  0  0  0  0  0  0  0  0  0
   -4.8548   -3.0531    2.8746 C   0  0  0  0  0  0  0  0  0  0  0  0
   -6.5935   -2.1691    1.2691 C   0  0  0  0  0  0  0  0  0  0  0  0
    1.4465   -2.4803   -3.1217 H   0  0  0  0  0  0  0  0  0  0  0  0
   -0.1995   -2.9484   -3.5616 H   0  0  0  0  0  0  0  0  0  0  0  0
    0.3277   -1.2957   -3.9036 H   0  0  0  0  0  0  0  0  0  0  0  0
    2.1894   -0.3849   -2.5836 H   0  0  0  0  0  0  0  0  0  0  0  0
    2.9741    1.6315   -1.4875 H   0  0  0  0  0  0  0  0  0  0  0  0
    3.5132    4.2776    0.8245 H   0  0  0  0  0  0  0  0  0  0  0  0
    3.9628    1.2203    1.0304 H   0  0  0  0  0  0  0  0  0  0  0  0
    6.2820    0.8621    0.0219 H   0  0  0  0  0  0  0  0  0  0  0  0
    8.6813    1.2870    0.3153 H   0  0  0  0  0  0  0  0  0  0  0  0
   10.2289    2.6492    1.2581 H   0  0  0  0  0  0  0  0  0  0  0  0
    7.7929    4.7539    2.7017 H   0  0  0  0  0  0  0  0  0  0  0  0
    5.3796    4.3334    2.4324 H   0  0  0  0  0  0  0  0  0  0  0  0
   -0.2982    2.5504    1.5379 H   0  0  0  0  0  0  0  0  0  0  0  0
   -1.5544   -1.8008    0.0771 H   0  0  0  0  0  0  0  0  0  0  0  0
   -1.7499   -0.5651    1.2618 H   0  0  0  0  0  0  0  0  0  0  0  0
   -2.9710    0.9255   -0.3052 H   0  0  0  0  0  0  0  0  0  0  0  0
   -5.8089   -0.3883   -1.5679 H   0  0  0  0  0  0  0  0  0  0  0  0
   -4.8313   -0.0482   -3.0130 H   0  0  0  0  0  0  0  0  0  0  0  0
   -4.8267    1.0763   -1.6523 H   0  0  0  0  0  0  0  0  0  0  0  0
   -2.6292   -2.6285   -1.5537 H   0  0  0  0  0  0  0  0  0  0  0  0
   -3.7671   -2.2786   -2.8165 H   0  0  0  0  0  0  0  0  0  0  0  0
   -5.6790   -2.7689   -1.2950 H   0  0  0  0  0  0  0  0  0  0  0  0
   -4.5918   -4.1194   -1.4809 H   0  0  0  0  0  0  0  0  0  0  0  0
   -3.5062   -3.7189    0.6980 H   0  0  0  0  0  0  0  0  0  0  0  0
   -4.8146   -2.0915    3.3969 H   0  0  0  0  0  0  0  0  0  0  0  0
   -5.5769   -3.6974    3.3862 H   0  0  0  0  0  0  0  0  0  0  0  0
   -3.8677   -3.5188    2.9635 H   0  0  0  0  0  0  0  0  0  0  0  0
   -6.8918   -2.0399    0.2275 H   0  0  0  0  0  0  0  0  0  0  0  0
   -6.5680   -1.1745    1.7263 H   0  0  0  0  0  0  0  0  0  0  0  0
   -7.3778   -2.7541    1.7609 H   0  0  0  0  0  0  0  0  0  0  0  0
  1  2  1  0
  2  3  1  0
  3  4  2  0
  4  5  1  0
  5  6  2  0
  6  7  1  0
  7  8  2  0
  7  9  1  0
  9 10  2  3
 10 11  1  0
 11 12  2  0
 12 13  1  0
 13 14  2  0
 14 15  1  0
 14 16  1  0
 16 17  2  0
  6 18  1  0
 18 19  1  0
 18 20  2  0
 20 21  1  0
 21 22  1  0
 22 23  2  3
 23 24  1  0
 23 25  1  0
 25 26  1  0
 26 27  1  0
 27 28  2  3
 28 29  1  0
 28 30  1  0
 20  3  1  0
 17 11  1  0
  1 31  1  0
  1 32  1  0
  1 33  1  0
  4 34  1  0
  5 35  1  0
  9 36  1  0
 10 37  1  0
 12 38  1  0
 13 39  1  0
 15 40  1  0
 16 41  1  0
 17 42  1  0
 19 43  1  0
 21 44  1  0
 21 45  1  0
 22 46  1  0
 24 47  1  0
 24 48  1  0
 24 49  1  0
 25 50  1  0
 25 51  1  0
 26 52  1  0
 26 53  1  0
 27 54  1  0
 29 55  1  0
 29 56  1  0
 29 57  1  0
 30 58  1  0
 30 59  1  0
 30 60  1  0
M  END
$$$$
