
     RDKit          3D

 42 44  0  0  0  0  0  0  0  0999 V2000
    4.6850   -0.8759   -2.0792 C   0  0  0  0  0  0  0  0  0  0  0  0
    4.1195    0.1310   -1.0869 C   0  0  0  0  0  0  0  0  0  0  0  0
    4.0421   -0.3908    0.3495 C   0  0  0  0  0  0  0  0  0  0  0  0
    2.9112   -1.8091    0.5742 S   0  0  0  0  0  0  0  0  0  0  0  0
    1.3126   -1.0171    0.4454 C   0  0  0  0  0  0  0  0  0  0  0  0
    0.1997   -1.8116    0.2713 C   0  0  0  0  0  0  0  0  0  0  0  0
   -1.0254   -1.1844    0.1884 C   0  0  0  0  0  0  0  0  0  0  0  0
   -2.1896   -1.8926   -0.0023 N   0  0  0  0  0  0  0  0  0  0  0  0
   -3.4668   -1.1886   -0.0296 C   0  0  0  0  0  0  0  0  0  0  0  0
   -4.4791   -2.3199   -0.1786 C   0  0  0  0  0  0  0  0  0  0  0  0
   -3.8535   -3.4347    0.6444 C   0  0  0  0  0  0  0  0  0  0  0  0
   -2.3567   -3.2950    0.3627 C   0  0  0  0  0  0  0  0  0  0  0  0
   -1.1038    0.1553    0.2581 N   0  0  0  0  0  0  0  0  0  0  0  0
    0.0287    0.8601    0.4361 C   0  0  0  0  0  0  0  0  0  0  0  0
   -0.0803    2.3319    0.5165 C   0  0  0  0  0  0  0  0  0  0  0  0
   -1.3218    2.9859    0.3908 C   0  0  0  0  0  0  0  0  0  0  0  0
   -1.4279    4.3787    0.4655 C   0  0  0  0  0  0  0  0  0  0  0  0
   -0.2905    5.1539    0.6684 C   0  0  0  0  0  0  0  0  0  0  0  0
    0.9506    4.5382    0.7963 C   0  0  0  0  0  0  0  0  0  0  0  0
    1.0522    3.1450    0.7210 C   0  0  0  0  0  0  0  0  0  0  0  0
    1.2497    0.3164    0.5425 N   0  0  0  0  0  0  0  0  0  0  0  0
    4.8096   -0.4050   -3.0597 H   0  0  0  0  0  0  0  0  0  0  0  0
    4.0203   -1.7351   -2.2082 H   0  0  0  0  0  0  0  0  0  0  0  0
    5.6644   -1.2406   -1.7536 H   0  0  0  0  0  0  0  0  0  0  0  0
    4.7701    1.0143   -1.0910 H   0  0  0  0  0  0  0  0  0  0  0  0
    3.1383    0.4722   -1.4346 H   0  0  0  0  0  0  0  0  0  0  0  0
    5.0374   -0.7269    0.6615 H   0  0  0  0  0  0  0  0  0  0  0  0
    3.7639    0.4170    1.0346 H   0  0  0  0  0  0  0  0  0  0  0  0
    0.2947   -2.8853    0.1880 H   0  0  0  0  0  0  0  0  0  0  0  0
   -3.5381   -0.4855   -0.8662 H   0  0  0  0  0  0  0  0  0  0  0  0
   -3.6370   -0.6524    0.9122 H   0  0  0  0  0  0  0  0  0  0  0  0
   -4.5536   -2.6263   -1.2290 H   0  0  0  0  0  0  0  0  0  0  0  0
   -5.4763   -2.0400    0.1717 H   0  0  0  0  0  0  0  0  0  0  0  0
   -4.2374   -4.4247    0.3827 H   0  0  0  0  0  0  0  0  0  0  0  0
   -4.0495   -3.2645    1.7101 H   0  0  0  0  0  0  0  0  0  0  0  0
   -1.7824   -3.5812    1.2508 H   0  0  0  0  0  0  0  0  0  0  0  0
   -2.0597   -3.9329   -0.4769 H   0  0  0  0  0  0  0  0  0  0  0  0
   -2.2278    2.4030    0.2303 H   0  0  0  0  0  0  0  0  0  0  0  0
   -2.4004    4.8533    0.3642 H   0  0  0  0  0  0  0  0  0  0  0  0
   -0.3712    6.2360    0.7266 H   0  0  0  0  0  0  0  0  0  0  0  0
    1.8429    5.1381    0.9552 H   0  0  0  0  0  0  0  0  0  0  0  0
    2.0360    2.6901    0.8251 H   0  0  0  0  0  0  0  0  0  0  0  0
  1  2  1  0
  2  3  1  0
  3  4  1  0
  4  5  1  0
  5  6  2  0
  6  7  1  0
  7  8  1  0
  8  9  1  0
  9 10  1  0
 10 11  1  0
 11 12  1  0
  7 13  2  0
 13 14  1  0
 14 15  1  0
 15 16  2  0
 16 17  1  0
 17 18  2  0
 18 19  1  0
 19 20  2  0
 14 21  2  0
 21  5  1  0
 12  8  1  0
 20 15  1  0
  1 22  1  0
  1 23  1  0
  1 24  1  0
  2 25  1  0
  2 26  1  0
  3 27  1  0
  3 28  1  0
  6 29  1  0
  9 30  1  0
  9 31  1  0
 10 32  1  0
 10 33  1  0
 11 34  1  0
 11 35  1  0
 12 36  1  0
 12 37  1  0
 16 38  1  0
 17 39  1  0
 18 40  1  0
 19 41  1  0
 20 42  1  0
M  END
$$$$
