
     RDKit          3D

 61 65  0  0  0  0  0  0  0  0999 V2000
   -5.3328   -4.1447   -2.2740 C   0  0  0  0  0  0  0  0  0  0  0  0
   -5.4199   -2.6823   -2.3176 N   0  0  0  0  0  0  0  0  0  0  0  0
   -6.5490   -2.2325   -1.4998 C   0  0  0  0  0  0  0  0  0  0  0  0
   -4.1461   -2.0876   -1.8655 C   0  0  0  0  0  0  0  0  0  0  0  0
   -4.0233   -0.5773   -2.1495 C   0  0  0  0  0  0  0  0  0  0  0  0
   -2.7279   -0.0461   -1.7008 N   0  0  0  0  0  0  0  0  0  0  0  0
   -1.6655   -0.1128   -2.6079 C   0  0  0  0  0  0  0  0  0  0  0  0
   -1.8219   -0.1599   -3.8281 O   0  0  0  0  0  0  0  0  0  0  0  0
   -0.2723   -0.2865   -2.1205 C   0  0  0  0  0  0  0  0  0  0  0  0
    0.0273   -1.2287   -1.1242 C   0  0  0  0  0  0  0  0  0  0  0  0
    1.3432   -1.3802   -0.6841 C   0  0  0  0  0  0  0  0  0  0  0  0
    2.3515   -0.5950   -1.2526 C   0  0  0  0  0  0  0  0  0  0  0  0
    4.0361   -0.7569   -0.6902 S   0  0  0  0  0  6  0  0  0  0  0  0
    4.0735   -1.8339    0.2789 O   0  0  0  0  0  0  0  0  0  0  0  0
    4.8614   -0.7902   -1.8794 O   0  0  0  0  0  0  0  0  0  0  0  0
    4.2581    0.7171    0.1349 N   0  0  0  0  0  0  0  0  0  0  0  0
    3.3371    0.9686    1.2955 C   0  0  0  0  0  0  0  0  0  0  0  0
    4.1026    1.8853    2.2621 C   0  0  0  0  0  0  0  0  0  0  0  0
    5.5175    1.6812    1.8328 C   0  0  0  0  0  0  0  0  0  0  0  0
    6.6652    2.1289    2.4697 C   0  0  0  0  0  0  0  0  0  0  0  0
    7.8956    1.9007    1.8523 C   0  0  0  0  0  0  0  0  0  0  0  0
    7.9582    1.2560    0.6083 C   0  0  0  0  0  0  0  0  0  0  0  0
    6.7921    0.8192   -0.0283 C   0  0  0  0  0  0  0  0  0  0  0  0
    5.5802    1.0076    0.6130 C   0  0  0  0  0  0  0  0  0  0  0  0
    2.0667    0.3131   -2.2789 C   0  0  0  0  0  0  0  0  0  0  0  0
    0.7508    0.4611   -2.7185 C   0  0  0  0  0  0  0  0  0  0  0  0
   -2.6286    0.4712   -0.4102 C   0  0  0  0  0  0  0  0  0  0  0  0
   -3.4649    0.1664    0.5559 N   0  0  0  0  0  0  0  0  0  0  0  0
   -3.1625    0.8854    1.6977 C   0  0  0  0  0  0  0  0  0  0  0  0
   -3.8233    0.7822    2.9399 C   0  0  0  0  0  0  0  0  0  0  0  0
   -3.4076    1.5775    4.0126 C   0  0  0  0  0  0  0  0  0  0  0  0
   -2.3533    2.4646    3.8499 C   0  0  0  0  0  0  0  0  0  0  0  0
   -1.9682    3.2183    4.8883 F   0  0  0  0  0  0  0  0  0  0  0  0
   -1.6815    2.5950    2.6364 C   0  0  0  0  0  0  0  0  0  0  0  0
   -2.1056    1.7888    1.5690 C   0  0  0  0  0  0  0  0  0  0  0  0
   -1.5048    1.7095   -0.0390 S   0  0  0  0  0  0  0  0  0  0  0  0
   -6.2590   -4.5974   -2.6463 H   0  0  0  0  0  0  0  0  0  0  0  0
   -5.1487   -4.5177   -1.2598 H   0  0  0  0  0  0  0  0  0  0  0  0
   -4.5285   -4.5032   -2.9260 H   0  0  0  0  0  0  0  0  0  0  0  0
   -6.4104   -2.4671   -0.4382 H   0  0  0  0  0  0  0  0  0  0  0  0
   -6.7077   -1.1545   -1.5998 H   0  0  0  0  0  0  0  0  0  0  0  0
   -7.4787   -2.7061   -1.8359 H   0  0  0  0  0  0  0  0  0  0  0  0
   -3.9877   -2.2856   -0.7970 H   0  0  0  0  0  0  0  0  0  0  0  0
   -3.3180   -2.5815   -2.3921 H   0  0  0  0  0  0  0  0  0  0  0  0
   -4.1356   -0.4014   -3.2262 H   0  0  0  0  0  0  0  0  0  0  0  0
   -4.8185   -0.0069   -1.6566 H   0  0  0  0  0  0  0  0  0  0  0  0
   -0.7543   -1.8519   -0.6951 H   0  0  0  0  0  0  0  0  0  0  0  0
    1.5731   -2.1103    0.0895 H   0  0  0  0  0  0  0  0  0  0  0  0
    2.4089    1.4411    0.9598 H   0  0  0  0  0  0  0  0  0  0  0  0
    3.0889    0.0312    1.8070 H   0  0  0  0  0  0  0  0  0  0  0  0
    3.9324    1.5988    3.3039 H   0  0  0  0  0  0  0  0  0  0  0  0
    3.8143    2.9317    2.1153 H   0  0  0  0  0  0  0  0  0  0  0  0
    6.6138    2.6550    3.4177 H   0  0  0  0  0  0  0  0  0  0  0  0
    8.8126    2.2403    2.3287 H   0  0  0  0  0  0  0  0  0  0  0  0
    8.9220    1.1036    0.1275 H   0  0  0  0  0  0  0  0  0  0  0  0
    6.8597    0.3504   -1.0038 H   0  0  0  0  0  0  0  0  0  0  0  0
    2.8626    0.8979   -2.7366 H   0  0  0  0  0  0  0  0  0  0  0  0
    0.5210    1.1571   -3.5232 H   0  0  0  0  0  0  0  0  0  0  0  0
   -4.6488    0.0861    3.0536 H   0  0  0  0  0  0  0  0  0  0  0  0
   -3.9071    1.5075    4.9744 H   0  0  0  0  0  0  0  0  0  0  0  0
   -0.8647    3.3002    2.5310 H   0  0  0  0  0  0  0  0  0  0  0  0
  1  2  1  0
  2  3  1  0
  2  4  1  0
  4  5  1  0
  5  6  1  0
  6  7  1  0
  7  8  2  0
  7  9  1  0
  9 10  2  0
 10 11  1  0
 11 12  2  0
 12 13  1  0
 13 14  2  0
 13 15  2  0
 13 16  1  0
 16 17  1  0
 17 18  1  0
 18 19  1  0
 19 20  2  0
 20 21  1  0
 21 22  2  0
 22 23  1  0
 23 24  2  0
 12 25  1  0
 25 26  2  0
  6 27  1  0
 27 28  2  0
 28 29  1  0
 29 30  2  0
 30 31  1  0
 31 32  2  0
 32 33  1  0
 32 34  1  0
 34 35  2  0
 35 36  1  0
 26  9  1  0
 36 27  1  0
 24 16  1  0
 35 29  1  0
 24 19  1  0
  1 37  1  0
  1 38  1  0
  1 39  1  0
  3 40  1  0
  3 41  1  0
  3 42  1  0
  4 43  1  0
  4 44  1  0
  5 45  1  0
  5 46  1  0
 10 47  1  0
 11 48  1  0
 17 49  1  0
 17 50  1  0
 18 51  1  0
 18 52  1  0
 20 53  1  0
 21 54  1  0
 22 55  1  0
 23 56  1  0
 25 57  1  0
 26 58  1  0
 30 59  1  0
 31 60  1  0
 34 61  1  0
M  END
$$$$
