
     RDKit          3D

 46 46  0  0  0  0  0  0  0  0999 V2000
   -1.1897    0.5154    1.3896 O   0  0  0  0  0  0  0  0  0  0  0  0
   -1.3923    0.0363    0.2803 C   0  0  0  0  0  0  0  0  0  0  0  0
   -0.3717   -0.7865   -0.4731 C   0  0  0  0  0  0  0  0  0  0  0  0
    0.9445   -0.8845    0.2869 C   0  0  0  0  0  0  0  0  0  0  0  0
    1.9416   -1.7209   -0.4697 C   0  0  0  0  0  0  0  0  0  0  0  0
    1.7065   -2.3454   -1.4950 O   0  0  0  0  0  0  0  0  0  0  0  0
    3.1447   -1.6882    0.1676 O   0  0  0  0  0  0  0  0  0  0  0  0
    4.1862   -2.4190   -0.4865 C   0  0  0  0  0  0  0  0  0  0  0  0
    5.5134   -2.1050    0.1980 C   0  0  0  0  0  0  0  0  0  0  0  0
    6.1710   -0.7863   -0.2377 C   0  0  0  0  0  0  0  0  0  0  0  0
    5.3509    0.4770    0.0212 C   0  0  0  0  0  0  0  0  0  0  0  0
    4.2568    0.4776   -0.7904 F   0  0  0  0  0  0  0  0  0  0  0  0
    4.8894    0.4556    1.3015 F   0  0  0  0  0  0  0  0  0  0  0  0
    6.1759    1.7442   -0.2248 C   0  0  0  0  0  0  0  0  0  0  0  0
    5.4605    2.8726   -0.0101 F   0  0  0  0  0  0  0  0  0  0  0  0
    7.2635    1.7977    0.5840 F   0  0  0  0  0  0  0  0  0  0  0  0
    6.6355    1.7964   -1.5004 F   0  0  0  0  0  0  0  0  0  0  0  0
   -2.5741    0.1875   -0.4157 N   0  0  0  0  0  0  0  0  0  0  0  0
   -3.7281    0.8495    0.1753 C   0  0  0  0  0  0  0  0  0  0  0  0
   -4.6674    1.3685   -0.9136 C   0  0  0  0  0  0  0  0  0  0  0  0
   -5.8387    2.1597   -0.3272 C   0  0  0  0  0  0  0  0  0  0  0  0
   -6.2423    1.7058    1.0767 C   0  0  0  0  0  0  0  0  0  0  0  0
   -5.9530    0.2280    1.2982 C   0  0  0  0  0  0  0  0  0  0  0  0
   -4.4644   -0.0935    1.1434 C   0  0  0  0  0  0  0  0  0  0  0  0
   -0.7908   -1.7870   -0.6357 H   0  0  0  0  0  0  0  0  0  0  0  0
   -0.2072   -0.3261   -1.4549 H   0  0  0  0  0  0  0  0  0  0  0  0
    0.7844   -1.3437    1.2689 H   0  0  0  0  0  0  0  0  0  0  0  0
    1.3665    0.1169    0.4304 H   0  0  0  0  0  0  0  0  0  0  0  0
    4.2349   -2.1675   -1.5525 H   0  0  0  0  0  0  0  0  0  0  0  0
    3.9699   -3.4880   -0.3779 H   0  0  0  0  0  0  0  0  0  0  0  0
    5.3771   -2.0929    1.2862 H   0  0  0  0  0  0  0  0  0  0  0  0
    6.2191   -2.9126   -0.0322 H   0  0  0  0  0  0  0  0  0  0  0  0
    6.4080   -0.8484   -1.3068 H   0  0  0  0  0  0  0  0  0  0  0  0
    7.1236   -0.7112    0.3012 H   0  0  0  0  0  0  0  0  0  0  0  0
   -2.7254   -0.3972   -1.2283 H   0  0  0  0  0  0  0  0  0  0  0  0
   -3.3537    1.7094    0.7468 H   0  0  0  0  0  0  0  0  0  0  0  0
   -5.0570    0.5212   -1.4940 H   0  0  0  0  0  0  0  0  0  0  0  0
   -4.1235    1.9980   -1.6287 H   0  0  0  0  0  0  0  0  0  0  0  0
   -6.6956    2.0726   -1.0063 H   0  0  0  0  0  0  0  0  0  0  0  0
   -5.5855    3.2262   -0.2916 H   0  0  0  0  0  0  0  0  0  0  0  0
   -5.6926    2.2950    1.8215 H   0  0  0  0  0  0  0  0  0  0  0  0
   -7.3060    1.9139    1.2386 H   0  0  0  0  0  0  0  0  0  0  0  0
   -6.2939   -0.0813    2.2927 H   0  0  0  0  0  0  0  0  0  0  0  0
   -6.5283   -0.3626    0.5739 H   0  0  0  0  0  0  0  0  0  0  0  0
   -4.3673   -1.1385    0.8216 H   0  0  0  0  0  0  0  0  0  0  0  0
   -3.9754   -0.0391    2.1246 H   0  0  0  0  0  0  0  0  0  0  0  0
  1  2  2  0
  2  3  1  0
  3  4  1  0
  4  5  1  0
  5  6  2  0
  5  7  1  0
  7  8  1  0
  8  9  1  0
  9 10  1  0
 10 11  1  0
 11 12  1  0
 11 13  1  0
 11 14  1  0
 14 15  1  0
 14 16  1  0
 14 17  1  0
  2 18  1  0
 18 19  1  0
 19 20  1  0
 20 21  1  0
 21 22  1  0
 22 23  1  0
 23 24  1  0
 24 19  1  0
  3 25  1  0
  3 26  1  0
  4 27  1  0
  4 28  1  0
  8 29  1  0
  8 30  1  0
  9 31  1  0
  9 32  1  0
 10 33  1  0
 10 34  1  0
 18 35  1  0
 19 36  1  0
 20 37  1  0
 20 38  1  0
 21 39  1  0
 21 40  1  0
 22 41  1  0
 22 42  1  0
 23 43  1  0
 23 44  1  0
 24 45  1  0
 24 46  1  0
M  END
$$$$
