
     RDKit          3D

 49 51  0  0  0  0  0  0  0  0999 V2000
    6.0271    2.1020   -2.4992 C   0  0  0  0  0  0  0  0  0  0  0  0
    6.0111    1.7723   -1.1184 O   0  0  0  0  0  0  0  0  0  0  0  0
    4.8530    1.2476   -0.5994 C   0  0  0  0  0  0  0  0  0  0  0  0
    3.6884    1.0155   -1.3394 C   0  0  0  0  0  0  0  0  0  0  0  0
    2.5482    0.4678   -0.7315 C   0  0  0  0  0  0  0  0  0  0  0  0
    2.5609    0.1733    0.6402 C   0  0  0  0  0  0  0  0  0  0  0  0
    3.7337    0.4021    1.3799 C   0  0  0  0  0  0  0  0  0  0  0  0
    4.8767    0.9359    0.7734 C   0  0  0  0  0  0  0  0  0  0  0  0
    6.0567    1.1886    1.4288 O   0  0  0  0  0  0  0  0  0  0  0  0
    6.1123    0.9134    2.8208 C   0  0  0  0  0  0  0  0  0  0  0  0
    1.3540   -0.4129    1.3437 C   0  0  0  0  0  0  0  0  0  0  0  0
    0.1343   -0.4460    0.5221 N   0  0  0  0  0  0  0  0  0  0  0  0
   -1.1366   -0.6566    1.1086 C   0  0  0  0  0  0  0  0  0  0  0  0
   -1.3589   -1.0682    2.7249 S   0  0  0  0  0  0  0  0  0  0  0  0
   -2.1608   -0.3847    0.2092 N   0  0  0  0  0  0  0  0  0  0  0  0
   -3.5224   -0.7715    0.2059 C   0  0  0  0  0  0  0  0  0  0  0  0
   -3.9540   -1.9593    0.8052 C   0  0  0  0  0  0  0  0  0  0  0  0
   -5.2958   -2.3480    0.7530 C   0  0  0  0  0  0  0  0  0  0  0  0
   -6.2358   -1.5589    0.0910 C   0  0  0  0  0  0  0  0  0  0  0  0
   -7.6696   -1.9900    0.0069 C   0  0  0  0  0  0  0  0  0  0  0  0
   -5.8048   -0.3920   -0.5485 C   0  0  0  0  0  0  0  0  0  0  0  0
   -4.4571    0.0131   -0.5016 C   0  0  0  0  0  0  0  0  0  0  0  0
   -4.0704    1.2864   -1.2052 C   0  0  0  0  0  0  0  0  0  0  0  0
    0.3796   -0.7806   -0.8878 C   0  0  0  0  0  0  0  0  0  0  0  0
    1.2959    0.2497   -1.5409 C   0  0  0  0  0  0  0  0  0  0  0  0
    5.2920    2.8805   -2.7283 H   0  0  0  0  0  0  0  0  0  0  0  0
    7.0178    2.5017   -2.7363 H   0  0  0  0  0  0  0  0  0  0  0  0
    5.8707    1.2136   -3.1198 H   0  0  0  0  0  0  0  0  0  0  0  0
    3.6416    1.2524   -2.3974 H   0  0  0  0  0  0  0  0  0  0  0  0
    3.7263    0.1550    2.4372 H   0  0  0  0  0  0  0  0  0  0  0  0
    5.9675   -0.1538    3.0183 H   0  0  0  0  0  0  0  0  0  0  0  0
    7.1116    1.1835    3.1755 H   0  0  0  0  0  0  0  0  0  0  0  0
    5.3885    1.5212    3.3736 H   0  0  0  0  0  0  0  0  0  0  0  0
    1.1577    0.1813    2.2430 H   0  0  0  0  0  0  0  0  0  0  0  0
    1.5837   -1.4446    1.6378 H   0  0  0  0  0  0  0  0  0  0  0  0
   -1.9248    0.3808   -0.4059 H   0  0  0  0  0  0  0  0  0  0  0  0
   -3.2552   -2.6308    1.2939 H   0  0  0  0  0  0  0  0  0  0  0  0
   -5.5946   -3.2790    1.2296 H   0  0  0  0  0  0  0  0  0  0  0  0
   -8.3359   -1.1222   -0.0385 H   0  0  0  0  0  0  0  0  0  0  0  0
   -7.9554   -2.5723    0.8893 H   0  0  0  0  0  0  0  0  0  0  0  0
   -7.8244   -2.6029   -0.8864 H   0  0  0  0  0  0  0  0  0  0  0  0
   -6.5309    0.2131   -1.0891 H   0  0  0  0  0  0  0  0  0  0  0  0
   -3.3776    1.0707   -2.0250 H   0  0  0  0  0  0  0  0  0  0  0  0
   -4.9416    1.7929   -1.6343 H   0  0  0  0  0  0  0  0  0  0  0  0
   -3.6035    1.9839   -0.5022 H   0  0  0  0  0  0  0  0  0  0  0  0
    0.8423   -1.7764   -0.9028 H   0  0  0  0  0  0  0  0  0  0  0  0
   -0.5457   -0.8665   -1.4638 H   0  0  0  0  0  0  0  0  0  0  0  0
    0.7721    1.2096   -1.6270 H   0  0  0  0  0  0  0  0  0  0  0  0
    1.5519   -0.0905   -2.5509 H   0  0  0  0  0  0  0  0  0  0  0  0
  1  2  1  0
  2  3  1  0
  3  4  2  0
  4  5  1  0
  5  6  2  0
  6  7  1  0
  7  8  2  0
  8  9  1  0
  9 10  1  0
  6 11  1  0
 11 12  1  0
 12 13  1  0
 13 14  2  0
 13 15  1  0
 15 16  1  0
 16 17  2  0
 17 18  1  0
 18 19  2  0
 19 20  1  0
 19 21  1  0
 21 22  2  0
 22 23  1  0
 12 24  1  0
 24 25  1  0
  8  3  1  0
 22 16  1  0
 25  5  1  0
  1 26  1  0
  1 27  1  0
  1 28  1  0
  4 29  1  0
  7 30  1  0
 10 31  1  0
 10 32  1  0
 10 33  1  0
 11 34  1  0
 11 35  1  0
 15 36  1  0
 17 37  1  0
 18 38  1  0
 20 39  1  0
 20 40  1  0
 20 41  1  0
 21 42  1  0
 23 43  1  0
 23 44  1  0
 23 45  1  0
 24 46  1  0
 24 47  1  0
 25 48  1  0
 25 49  1  0
M  END
$$$$
