
     RDKit          3D

 34 35  0  0  0  0  0  0  0  0999 V2000
   -3.9001   -2.9322    0.2664 O   0  0  0  0  0  0  0  0  0  0  0  0
   -2.9411   -2.2310    0.6213 N   0  0  0  0  0  4  0  0  0  0  0  0
   -2.0538   -2.5951    1.4101 O   0  0  0  0  0  1  0  0  0  0  0  0
   -2.8722   -0.8657    0.0944 C   0  0  0  0  0  0  0  0  0  0  0  0
   -4.0963   -0.2058   -0.1370 C   0  0  0  0  0  0  0  0  0  0  0  0
   -4.1091    1.0992   -0.6420 C   0  0  0  0  0  0  0  0  0  0  0  0
   -5.4117    1.8112   -0.9165 C   0  0  0  0  0  0  0  0  0  0  0  0
   -5.3163    3.1635   -0.7900 F   0  0  0  0  0  0  0  0  0  0  0  0
   -5.8697    1.5813   -2.1764 F   0  0  0  0  0  0  0  0  0  0  0  0
   -6.4115    1.4281   -0.0753 F   0  0  0  0  0  0  0  0  0  0  0  0
   -2.8843    1.7099   -0.9314 C   0  0  0  0  0  0  0  0  0  0  0  0
   -1.6714    1.0429   -0.7007 C   0  0  0  0  0  0  0  0  0  0  0  0
   -1.6233   -0.2494   -0.1523 C   0  0  0  0  0  0  0  0  0  0  0  0
   -0.4088   -0.9425   -0.0127 N   0  0  0  0  0  0  0  0  0  0  0  0
    0.8595   -0.2036    0.0702 C   0  0  0  0  0  0  0  0  0  0  0  0
    2.0130   -1.1781    0.3342 C   0  0  0  0  0  0  0  0  0  0  0  0
    3.3690   -0.5159    0.3737 C   0  0  0  0  0  0  0  0  0  0  0  0
    4.5167   -1.3051    0.3195 C   0  0  0  0  0  0  0  0  0  0  0  0
    5.7637   -0.6895    0.3820 C   0  0  0  0  0  0  0  0  0  0  0  0
    5.8353    0.6919    0.5035 C   0  0  0  0  0  0  0  0  0  0  0  0
    4.6498    1.4027    0.5610 C   0  0  0  0  0  0  0  0  0  0  0  0
    3.4256    0.8318    0.5022 N   0  0  0  0  0  0  0  0  0  0  0  0
   -5.0413   -0.7080    0.0738 H   0  0  0  0  0  0  0  0  0  0  0  0
   -2.8600    2.7162   -1.3509 H   0  0  0  0  0  0  0  0  0  0  0  0
   -0.7583    1.5686   -0.9706 H   0  0  0  0  0  0  0  0  0  0  0  0
   -0.4792   -1.6612    0.7177 H   0  0  0  0  0  0  0  0  0  0  0  0
    1.0484    0.3196   -0.8747 H   0  0  0  0  0  0  0  0  0  0  0  0
    0.8018    0.5376    0.8769 H   0  0  0  0  0  0  0  0  0  0  0  0
    2.0156   -1.9457   -0.4504 H   0  0  0  0  0  0  0  0  0  0  0  0
    1.8505   -1.6925    1.2896 H   0  0  0  0  0  0  0  0  0  0  0  0
    4.4457   -2.3847    0.2302 H   0  0  0  0  0  0  0  0  0  0  0  0
    6.6714   -1.2847    0.3387 H   0  0  0  0  0  0  0  0  0  0  0  0
    6.7904    1.2018    0.5555 H   0  0  0  0  0  0  0  0  0  0  0  0
    4.6516    2.4844    0.6600 H   0  0  0  0  0  0  0  0  0  0  0  0
  1  2  2  0
  2  3  1  0
  2  4  1  0
  4  5  2  0
  5  6  1  0
  6  7  1  0
  7  8  1  0
  7  9  1  0
  7 10  1  0
  6 11  2  0
 11 12  1  0
 12 13  2  0
 13 14  1  0
 14 15  1  0
 15 16  1  0
 16 17  1  0
 17 18  2  0
 18 19  1  0
 19 20  2  0
 20 21  1  0
 21 22  2  0
 13  4  1  0
 22 17  1  0
  5 23  1  0
 11 24  1  0
 12 25  1  0
 14 26  1  0
 15 27  1  0
 15 28  1  0
 16 29  1  0
 16 30  1  0
 18 31  1  0
 19 32  1  0
 20 33  1  0
 21 34  1  0
M  CHG  2   2   1   3  -1
M  END
$$$$
