
     RDKit          3D

 48 51  0  0  0  0  0  0  0  0999 V2000
    3.4985    1.9684   -1.4683 C   0  0  0  0  0  0  0  0  0  0  0  0
    3.7085    0.6502   -2.2157 C   0  0  0  0  0  0  0  0  0  0  0  0
    5.0166   -0.0063   -1.7666 C   0  0  0  0  0  0  0  0  0  0  0  0
    2.5160   -0.2951   -2.0171 C   0  0  0  0  0  0  0  0  0  0  0  0
    2.3689   -0.6087   -0.6249 O   0  0  0  0  0  0  0  0  0  0  0  0
    1.3169   -1.4194   -0.3571 C   0  0  0  0  0  0  0  0  0  0  0  0
    0.5489   -1.9295   -1.1499 O   0  0  0  0  0  0  0  0  0  0  0  0
    1.2406   -1.5779    1.1074 C   0  0  0  0  0  0  0  0  0  0  0  0
    2.2967   -2.2554    1.7375 C   0  0  0  0  0  0  0  0  0  0  0  0
    2.2149   -2.5731    3.0931 C   0  0  0  0  0  0  0  0  0  0  0  0
    1.0749   -2.2327    3.8193 C   0  0  0  0  0  0  0  0  0  0  0  0
    0.0203   -1.5580    3.1990 C   0  0  0  0  0  0  0  0  0  0  0  0
    0.1056   -1.2057    1.8432 C   0  0  0  0  0  0  0  0  0  0  0  0
   -0.9590   -0.4616    1.2605 N   0  0  0  0  0  0  0  0  0  0  0  0
   -2.3305   -0.7508    1.4250 C   0  0  0  0  0  0  0  0  0  0  0  0
   -2.7701   -1.7636    2.1663 O   0  0  0  0  0  0  0  0  0  0  0  0
   -3.0108    0.1384    0.6474 C   0  0  0  0  0  0  0  0  0  0  0  0
   -2.0896    1.0157    0.0482 C   0  0  0  0  0  0  0  0  0  0  0  0
   -0.8308    0.6994    0.4640 C   0  0  0  0  0  0  0  0  0  0  0  0
    0.3032    1.3588    0.2355 O   0  0  0  0  0  0  0  0  0  0  0  0
   -2.8695    1.9975   -0.7673 C   0  0  0  0  0  0  0  0  0  0  0  0
   -3.4702    1.2349   -1.9762 C   0  0  0  0  0  0  0  0  0  0  0  0
   -4.4940    0.2525   -1.3181 C   0  0  0  0  0  0  0  0  0  0  0  0
   -4.3737    0.5585    0.1981 C   0  0  0  0  0  0  0  0  0  0  0  0
   -4.1545    2.1054    0.1198 C   0  0  0  0  0  0  0  0  0  0  0  0
    3.4403    1.8169   -0.3849 H   0  0  0  0  0  0  0  0  0  0  0  0
    4.3239    2.6615   -1.6650 H   0  0  0  0  0  0  0  0  0  0  0  0
    2.5731    2.4562   -1.7916 H   0  0  0  0  0  0  0  0  0  0  0  0
    3.7887    0.8721   -3.2870 H   0  0  0  0  0  0  0  0  0  0  0  0
    5.8721    0.6481   -1.9729 H   0  0  0  0  0  0  0  0  0  0  0  0
    5.0130   -0.2260   -0.6935 H   0  0  0  0  0  0  0  0  0  0  0  0
    5.1791   -0.9473   -2.3047 H   0  0  0  0  0  0  0  0  0  0  0  0
    1.5984    0.1833   -2.3810 H   0  0  0  0  0  0  0  0  0  0  0  0
    2.6791   -1.2220   -2.5822 H   0  0  0  0  0  0  0  0  0  0  0  0
    3.1700   -2.5631    1.1664 H   0  0  0  0  0  0  0  0  0  0  0  0
    3.0287   -3.1075    3.5781 H   0  0  0  0  0  0  0  0  0  0  0  0
    1.0040   -2.4935    4.8730 H   0  0  0  0  0  0  0  0  0  0  0  0
   -0.8506   -1.2893    3.7934 H   0  0  0  0  0  0  0  0  0  0  0  0
   -3.7330   -1.8117    2.0345 H   0  0  0  0  0  0  0  0  0  0  0  0
    1.0054    1.0250    0.8194 H   0  0  0  0  0  0  0  0  0  0  0  0
   -2.3719    2.9405   -0.9923 H   0  0  0  0  0  0  0  0  0  0  0  0
   -2.7102    0.6933   -2.5505 H   0  0  0  0  0  0  0  0  0  0  0  0
   -3.9937    1.9219   -2.6509 H   0  0  0  0  0  0  0  0  0  0  0  0
   -5.5034    0.4710   -1.6810 H   0  0  0  0  0  0  0  0  0  0  0  0
   -4.2565   -0.7894   -1.5564 H   0  0  0  0  0  0  0  0  0  0  0  0
   -5.2047    0.2268    0.8199 H   0  0  0  0  0  0  0  0  0  0  0  0
   -3.9518    2.5539    1.1014 H   0  0  0  0  0  0  0  0  0  0  0  0
   -4.9778    2.6376   -0.3682 H   0  0  0  0  0  0  0  0  0  0  0  0
  1  2  1  0
  2  3  1  0
  2  4  1  0
  4  5  1  0
  5  6  1  0
  6  7  2  0
  6  8  1  0
  8  9  2  0
  9 10  1  0
 10 11  2  0
 11 12  1  0
 12 13  2  0
 13 14  1  0
 14 15  1  0
 15 16  1  0
 15 17  2  0
 17 18  1  0
 18 19  2  0
 19 20  1  0
 18 21  1  0
 21 22  1  0
 22 23  1  0
 23 24  1  0
 24 25  1  0
 13  8  1  0
 19 14  1  0
 25 21  1  0
 24 17  1  0
  1 26  1  0
  1 27  1  0
  1 28  1  0
  2 29  1  0
  3 30  1  0
  3 31  1  0
  3 32  1  0
  4 33  1  0
  4 34  1  0
  9 35  1  0
 10 36  1  0
 11 37  1  0
 12 38  1  0
 16 39  1  0
 20 40  1  0
 21 41  1  0
 22 42  1  0
 22 43  1  0
 23 44  1  0
 23 45  1  0
 24 46  1  0
 25 47  1  0
 25 48  1  0
M  END
$$$$
