
     RDKit          3D

 42 44  0  0  0  0  0  0  0  0999 V2000
   -5.4611    0.7149    1.2292 C   0  0  0  0  0  0  0  0  0  0  0  0
   -4.9001    0.5649   -0.1935 C   0  0  0  0  0  0  0  0  0  0  0  0
   -5.2567    1.8006   -1.0344 C   0  0  0  0  0  0  0  0  0  0  0  0
   -5.5495   -0.6698   -0.8443 C   0  0  0  0  0  0  0  0  0  0  0  0
   -3.4509    0.3527   -0.1643 N   0  0  0  0  0  0  0  0  0  0  0  0
   -2.5109    1.2339    0.3430 C   0  0  0  0  0  0  0  0  0  0  0  0
   -2.7915    2.3205    0.8379 O   0  0  0  0  0  0  0  0  0  0  0  0
   -1.1239    0.7256    0.2259 C   0  0  0  0  0  0  0  0  0  0  0  0
   -0.0194    1.4168    0.6565 N   0  0  0  0  0  0  0  0  0  0  0  0
    0.9894    0.6292    0.3707 C   0  0  0  0  0  0  0  0  0  0  0  0
    2.3203    0.8294    0.5843 N   0  0  0  0  0  0  0  0  0  0  0  0
    3.1349   -0.1103    0.1998 C   0  0  0  0  0  0  0  0  0  0  0  0
    4.6010    0.0711    0.4108 C   0  0  0  0  0  0  0  0  0  0  0  0
    5.5507   -0.4432   -0.4814 C   0  0  0  0  0  0  0  0  0  0  0  0
    6.9134   -0.2461   -0.2427 C   0  0  0  0  0  0  0  0  0  0  0  0
    7.3322    0.4700    0.8781 C   0  0  0  0  0  0  0  0  0  0  0  0
    6.3913    0.9993    1.7594 C   0  0  0  0  0  0  0  0  0  0  0  0
    5.0289    0.8055    1.5250 C   0  0  0  0  0  0  0  0  0  0  0  0
    2.6957   -1.3989   -0.4282 C   0  0  0  0  0  0  0  0  0  0  0  0
    1.3707   -1.5502   -0.6188 C   0  0  0  0  0  0  0  0  0  0  0  0
    0.7510   -2.7526   -1.2170 C   0  0  0  0  0  0  0  0  0  0  0  0
    1.6893   -3.6788   -1.5584 F   0  0  0  0  0  0  0  0  0  0  0  0
   -0.1010   -3.3777   -0.3681 F   0  0  0  0  0  0  0  0  0  0  0  0
    0.0689   -2.4750   -2.3552 F   0  0  0  0  0  0  0  0  0  0  0  0
    0.5062   -0.5380   -0.2274 N   0  0  0  0  0  0  0  0  0  0  0  0
   -0.8432   -0.4749   -0.3211 N   0  0  0  0  0  0  0  0  0  0  0  0
   -5.1875   -0.1444    1.8522 H   0  0  0  0  0  0  0  0  0  0  0  0
   -6.5545    0.7880    1.2176 H   0  0  0  0  0  0  0  0  0  0  0  0
   -5.0801    1.6125    1.7269 H   0  0  0  0  0  0  0  0  0  0  0  0
   -4.8357    1.7241   -2.0435 H   0  0  0  0  0  0  0  0  0  0  0  0
   -6.3426    1.9138   -1.1303 H   0  0  0  0  0  0  0  0  0  0  0  0
   -4.8712    2.7236   -0.5896 H   0  0  0  0  0  0  0  0  0  0  0  0
   -5.3208   -1.5806   -0.2784 H   0  0  0  0  0  0  0  0  0  0  0  0
   -5.1775   -0.8198   -1.8647 H   0  0  0  0  0  0  0  0  0  0  0  0
   -6.6395   -0.5702   -0.8950 H   0  0  0  0  0  0  0  0  0  0  0  0
   -3.0652   -0.5093   -0.5409 H   0  0  0  0  0  0  0  0  0  0  0  0
    5.2573   -0.9747   -1.3816 H   0  0  0  0  0  0  0  0  0  0  0  0
    7.6510   -0.6416   -0.9373 H   0  0  0  0  0  0  0  0  0  0  0  0
    8.3931    0.6261    1.0594 H   0  0  0  0  0  0  0  0  0  0  0  0
    6.7163    1.5688    2.6269 H   0  0  0  0  0  0  0  0  0  0  0  0
    4.3046    1.2314    2.2171 H   0  0  0  0  0  0  0  0  0  0  0  0
    3.4163   -2.1668   -0.6810 H   0  0  0  0  0  0  0  0  0  0  0  0
  1  2  1  0
  2  3  1  0
  2  4  1  0
  2  5  1  0
  5  6  1  0
  6  7  2  0
  6  8  1  0
  8  9  1  0
  9 10  2  0
 10 11  1  0
 11 12  2  0
 12 13  1  0
 13 14  2  0
 14 15  1  0
 15 16  2  0
 16 17  1  0
 17 18  2  0
 12 19  1  0
 19 20  2  0
 20 21  1  0
 21 22  1  0
 21 23  1  0
 21 24  1  0
 20 25  1  0
 25 26  1  0
 26  8  2  0
 25 10  1  0
 18 13  1  0
  1 27  1  0
  1 28  1  0
  1 29  1  0
  3 30  1  0
  3 31  1  0
  3 32  1  0
  4 33  1  0
  4 34  1  0
  4 35  1  0
  5 36  1  0
 14 37  1  0
 15 38  1  0
 16 39  1  0
 17 40  1  0
 18 41  1  0
 19 42  1  0
M  END
$$$$
