
     RDKit          3D

 46 49  0  0  0  0  0  0  0  0999 V2000
    5.2079   -1.3094   -1.2938 C   0  0  0  0  0  0  0  0  0  0  0  0
    3.9856   -1.8090   -1.0708 C   0  0  0  0  0  0  0  0  0  0  0  0
    2.6810   -1.0501   -0.9421 C   0  0  0  0  0  0  0  0  0  0  0  0
    1.8294   -1.5562    0.2563 C   0  0  0  0  0  0  0  0  0  0  0  0
    1.3938   -0.4646    1.1741 N   0  0  0  0  0  0  0  0  0  0  0  0
    2.6245    0.2080    1.6563 C   0  0  0  0  0  0  0  0  0  0  0  0
    3.3592    0.9194    0.5089 C   0  0  0  0  0  0  0  0  0  0  0  0
    2.7508    0.4931   -0.8402 C   0  0  0  0  0  0  0  0  0  0  0  0
    1.2859    0.9833   -0.8598 C   0  0  0  0  0  0  0  0  0  0  0  0
    0.5809    0.5581    0.4467 C   0  0  0  0  0  0  0  0  0  0  0  0
   -0.8482    0.1047    0.2668 C   0  0  0  0  0  0  0  0  0  0  0  0
   -1.3106   -0.9912    0.9622 N   0  0  0  0  0  0  0  0  0  0  0  0
   -2.6296   -1.2373    0.6910 C   0  0  0  0  0  0  0  0  0  0  0  0
   -3.4745   -2.2496    1.1610 C   0  0  0  0  0  0  0  0  0  0  0  0
   -4.8007   -2.2431    0.7204 C   0  0  0  0  0  0  0  0  0  0  0  0
   -5.2585   -1.2621   -0.1550 C   0  0  0  0  0  0  0  0  0  0  0  0
   -4.3972   -0.2579   -0.6136 C   0  0  0  0  0  0  0  0  0  0  0  0
   -3.0530   -0.2421   -0.1845 C   0  0  0  0  0  0  0  0  0  0  0  0
   -1.9345    0.6271   -0.4301 C   0  0  0  0  0  0  0  0  0  0  0  0
   -1.9881    1.8730   -1.2684 C   0  0  0  0  0  0  0  0  0  0  0  0
   -2.5551    3.0710   -0.5052 C   0  0  0  0  0  0  0  0  0  0  0  0
   -1.6565    3.5051    0.5134 O   0  0  0  0  0  0  0  0  0  0  0  0
    5.3982   -0.2481   -1.4012 H   0  0  0  0  0  0  0  0  0  0  0  0
    6.0636   -1.9714   -1.3918 H   0  0  0  0  0  0  0  0  0  0  0  0
    3.8954   -2.8943   -1.0156 H   0  0  0  0  0  0  0  0  0  0  0  0
    2.1222   -1.2939   -1.8589 H   0  0  0  0  0  0  0  0  0  0  0  0
    0.9526   -2.0910   -0.1319 H   0  0  0  0  0  0  0  0  0  0  0  0
    2.3739   -2.3077    0.8463 H   0  0  0  0  0  0  0  0  0  0  0  0
    2.3740    0.9282    2.4452 H   0  0  0  0  0  0  0  0  0  0  0  0
    3.2854   -0.5260    2.1330 H   0  0  0  0  0  0  0  0  0  0  0  0
    3.2633    2.0050    0.6245 H   0  0  0  0  0  0  0  0  0  0  0  0
    4.4284    0.6937    0.5591 H   0  0  0  0  0  0  0  0  0  0  0  0
    3.3009    0.9310   -1.6799 H   0  0  0  0  0  0  0  0  0  0  0  0
    0.7815    0.5837   -1.7487 H   0  0  0  0  0  0  0  0  0  0  0  0
    1.2727    2.0767   -0.9432 H   0  0  0  0  0  0  0  0  0  0  0  0
    0.5071    1.4434    1.0958 H   0  0  0  0  0  0  0  0  0  0  0  0
   -0.7241   -1.5329    1.5849 H   0  0  0  0  0  0  0  0  0  0  0  0
   -3.1192   -3.0125    1.8460 H   0  0  0  0  0  0  0  0  0  0  0  0
   -5.4845   -3.0135    1.0706 H   0  0  0  0  0  0  0  0  0  0  0  0
   -6.2945   -1.2738   -0.4843 H   0  0  0  0  0  0  0  0  0  0  0  0
   -4.7685    0.5021   -1.2937 H   0  0  0  0  0  0  0  0  0  0  0  0
   -2.6138    1.6821   -2.1494 H   0  0  0  0  0  0  0  0  0  0  0  0
   -0.9920    2.1215   -1.6417 H   0  0  0  0  0  0  0  0  0  0  0  0
   -2.6963    3.9093   -1.1945 H   0  0  0  0  0  0  0  0  0  0  0  0
   -3.5227    2.8467   -0.0433 H   0  0  0  0  0  0  0  0  0  0  0  0
   -1.5962    2.7715    1.1527 H   0  0  0  0  0  0  0  0  0  0  0  0
  1  2  2  0
  2  3  1  0
  3  4  1  0
  4  5  1  0
  5  6  1  0
  6  7  1  0
  7  8  1  0
  8  9  1  0
  9 10  1  0
 10 11  1  0
 11 12  1  0
 12 13  1  0
 13 14  2  0
 14 15  1  0
 15 16  2  0
 16 17  1  0
 17 18  2  0
 18 19  1  0
 19 20  1  0
 20 21  1  0
 21 22  1  0
  8  3  1  0
 19 11  2  0
 10  5  1  0
 18 13  1  0
  1 23  1  0
  1 24  1  0
  2 25  1  0
  3 26  1  0
  4 27  1  0
  4 28  1  0
  6 29  1  0
  6 30  1  0
  7 31  1  0
  7 32  1  0
  8 33  1  0
  9 34  1  0
  9 35  1  0
 10 36  1  0
 12 37  1  0
 14 38  1  0
 15 39  1  0
 16 40  1  0
 17 41  1  0
 20 42  1  0
 20 43  1  0
 21 44  1  0
 21 45  1  0
 22 46  1  0
M  END
$$$$
