
     RDKit          3D

 49 52  0  0  0  0  0  0  0  0999 V2000
   -7.1443   -3.7373    0.6949 C   0  0  0  0  0  0  0  0  0  0  0  0
   -6.7644   -2.5606    1.3963 O   0  0  0  0  0  0  0  0  0  0  0  0
   -6.1162   -1.5939    0.6782 C   0  0  0  0  0  0  0  0  0  0  0  0
   -5.7830   -1.6600   -0.6746 C   0  0  0  0  0  0  0  0  0  0  0  0
   -5.1148   -0.5940   -1.2893 C   0  0  0  0  0  0  0  0  0  0  0  0
   -4.7772    0.5541   -0.5606 C   0  0  0  0  0  0  0  0  0  0  0  0
   -4.0373    1.6943   -1.2107 C   0  0  0  0  0  0  0  0  0  0  0  0
   -2.6237    1.6163   -0.9227 N   0  0  0  0  0  0  0  0  0  0  0  0
   -2.0416    2.3885    0.0656 C   0  0  0  0  0  0  0  0  0  0  0  0
   -2.6813    3.2577    0.6543 O   0  0  0  0  0  0  0  0  0  0  0  0
   -0.6433    2.0738    0.3403 C   0  0  0  0  0  0  0  0  0  0  0  0
    0.2763    1.3302   -0.4002 C   0  0  0  0  0  0  0  0  0  0  0  0
    1.5282    1.2774    0.2490 C   0  0  0  0  0  0  0  0  0  0  0  0
    1.5245    1.9621    1.4232 C   0  0  0  0  0  0  0  0  0  0  0  0
    0.0767    2.6944    1.7974 S   0  0  0  0  0  0  0  0  0  0  0  0
    2.8288    1.9074    2.1056 C   0  0  0  0  0  0  0  0  0  0  0  0
    3.5393    0.8502    1.3245 N   0  0  0  0  0  0  0  0  0  0  0  0
    4.9709    1.1227    1.2099 C   0  0  0  0  0  0  0  0  0  0  0  0
    5.7420   -0.0194    0.5828 C   0  0  0  0  0  0  0  0  0  0  0  0
    5.7251   -1.2952    1.1667 C   0  0  0  0  0  0  0  0  0  0  0  0
    6.4411   -2.3476    0.5949 C   0  0  0  0  0  0  0  0  0  0  0  0
    7.1847   -2.1359   -0.5643 C   0  0  0  0  0  0  0  0  0  0  0  0
    7.2128   -0.8725   -1.1524 C   0  0  0  0  0  0  0  0  0  0  0  0
    6.4965    0.1816   -0.5820 C   0  0  0  0  0  0  0  0  0  0  0  0
    2.8645    0.6868   -0.0014 C   0  0  0  0  0  0  0  0  0  0  0  0
   -5.1082    0.6109    0.7987 C   0  0  0  0  0  0  0  0  0  0  0  0
   -5.7736   -0.4546    1.4090 C   0  0  0  0  0  0  0  0  0  0  0  0
   -7.6513   -4.3998    1.4031 H   0  0  0  0  0  0  0  0  0  0  0  0
   -6.2670   -4.2689    0.3116 H   0  0  0  0  0  0  0  0  0  0  0  0
   -7.8506   -3.5071   -0.1097 H   0  0  0  0  0  0  0  0  0  0  0  0
   -6.0270   -2.5259   -1.2806 H   0  0  0  0  0  0  0  0  0  0  0  0
   -4.8630   -0.6689   -2.3449 H   0  0  0  0  0  0  0  0  0  0  0  0
   -4.1461    1.6456   -2.2999 H   0  0  0  0  0  0  0  0  0  0  0  0
   -4.4572    2.6534   -0.8879 H   0  0  0  0  0  0  0  0  0  0  0  0
   -2.1428    0.7832   -1.2242 H   0  0  0  0  0  0  0  0  0  0  0  0
    0.0618    0.8666   -1.3539 H   0  0  0  0  0  0  0  0  0  0  0  0
    2.7453    1.6073    3.1540 H   0  0  0  0  0  0  0  0  0  0  0  0
    3.3291    2.8803    2.0347 H   0  0  0  0  0  0  0  0  0  0  0  0
    5.3968    1.2845    2.2091 H   0  0  0  0  0  0  0  0  0  0  0  0
    5.1433    2.0498    0.6474 H   0  0  0  0  0  0  0  0  0  0  0  0
    5.1427   -1.4710    2.0693 H   0  0  0  0  0  0  0  0  0  0  0  0
    6.4171   -3.3320    1.0546 H   0  0  0  0  0  0  0  0  0  0  0  0
    7.7429   -2.9556   -1.0088 H   0  0  0  0  0  0  0  0  0  0  0  0
    7.7949   -0.7078   -2.0554 H   0  0  0  0  0  0  0  0  0  0  0  0
    6.5321    1.1607   -1.0539 H   0  0  0  0  0  0  0  0  0  0  0  0
    3.3668    1.2490   -0.7974 H   0  0  0  0  0  0  0  0  0  0  0  0
    2.8003   -0.3713   -0.2709 H   0  0  0  0  0  0  0  0  0  0  0  0
   -4.8458    1.4862    1.3916 H   0  0  0  0  0  0  0  0  0  0  0  0
   -6.0250   -0.3955    2.4653 H   0  0  0  0  0  0  0  0  0  0  0  0
  1  2  1  0
  2  3  1  0
  3  4  2  0
  4  5  1  0
  5  6  2  0
  6  7  1  0
  7  8  1  0
  8  9  1  0
  9 10  2  0
  9 11  1  0
 11 12  2  0
 12 13  1  0
 13 14  2  0
 14 15  1  0
 14 16  1  0
 16 17  1  0
 17 18  1  0
 18 19  1  0
 19 20  2  0
 20 21  1  0
 21 22  2  0
 22 23  1  0
 23 24  2  0
 17 25  1  0
  6 26  1  0
 26 27  2  0
 27  3  1  0
 15 11  1  0
 24 19  1  0
 25 13  1  0
  1 28  1  0
  1 29  1  0
  1 30  1  0
  4 31  1  0
  5 32  1  0
  7 33  1  0
  7 34  1  0
  8 35  1  0
 12 36  1  0
 16 37  1  0
 16 38  1  0
 18 39  1  0
 18 40  1  0
 20 41  1  0
 21 42  1  0
 22 43  1  0
 23 44  1  0
 24 45  1  0
 25 46  1  0
 25 47  1  0
 26 48  1  0
 27 49  1  0
M  END
$$$$
