
     RDKit          3D

 40 43  0  0  0  0  0  0  0  0999 V2000
   -2.3075    3.2670    2.3003 C   0  0  0  0  0  0  0  0  0  0  0  0
   -1.8951    2.0277    3.0077 C   0  0  0  0  0  0  0  0  0  0  0  0
   -1.8852    2.0416    4.3993 N   0  0  0  0  0  0  0  0  0  0  0  0
   -1.4782    0.8902    4.9026 N   0  0  0  0  0  0  0  0  0  0  0  0
   -1.0827   -0.2257    3.7273 S   0  0  0  0  0  0  0  0  0  0  0  0
   -1.5139    0.8194    2.4367 C   0  0  0  0  0  0  0  0  0  0  0  0
   -1.3981    0.4814    1.0564 C   0  0  0  0  0  0  0  0  0  0  0  0
   -0.9406    1.3183    0.1398 N   0  0  0  0  0  0  0  0  0  0  0  0
   -0.8880    0.6553   -1.0652 N   0  0  0  0  0  0  0  0  0  0  0  0
   -1.3395   -0.5619   -0.8660 C   0  0  0  0  0  0  0  0  0  0  0  0
   -1.3667   -1.8283   -2.0395 S   0  0  0  0  0  0  0  0  0  0  0  0
    0.2184   -1.5060   -2.8726 C   0  0  0  0  0  0  0  0  0  0  0  0
    1.3802   -1.6178   -1.8976 C   0  0  0  0  0  0  0  0  0  0  0  0
    1.4664   -2.5230   -1.0665 O   0  0  0  0  0  0  0  0  0  0  0  0
    2.5015   -0.6416   -1.9911 C   0  0  0  0  0  0  0  0  0  0  0  0
    2.3036    0.6995   -2.3361 C   0  0  0  0  0  0  0  0  0  0  0  0
    3.3937    1.5760   -2.3973 C   0  0  0  0  0  0  0  0  0  0  0  0
    4.6848    1.1206   -2.1085 C   0  0  0  0  0  0  0  0  0  0  0  0
    5.7985    2.0217   -2.1731 C   0  0  0  0  0  0  0  0  0  0  0  0
    6.7004    2.7495   -2.2311 N   0  0  0  0  0  0  0  0  0  0  0  0
    4.8818   -0.2159   -1.7489 C   0  0  0  0  0  0  0  0  0  0  0  0
    3.7936   -1.0915   -1.6849 C   0  0  0  0  0  0  0  0  0  0  0  0
   -1.7317   -0.6989    0.4359 N   0  0  0  0  0  0  0  0  0  0  0  0
   -2.3527   -1.8960    1.0499 C   0  0  0  0  0  0  0  0  0  0  0  0
   -3.6444   -2.4897    0.5296 C   0  0  0  0  0  0  0  0  0  0  0  0
   -3.6221   -1.8310    1.8719 C   0  0  0  0  0  0  0  0  0  0  0  0
   -2.7131    4.0017    3.0032 H   0  0  0  0  0  0  0  0  0  0  0  0
   -1.4503    3.7208    1.7934 H   0  0  0  0  0  0  0  0  0  0  0  0
   -3.0817    3.0513    1.5572 H   0  0  0  0  0  0  0  0  0  0  0  0
    0.3648   -2.2656   -3.6473 H   0  0  0  0  0  0  0  0  0  0  0  0
    0.1711   -0.5377   -3.3729 H   0  0  0  0  0  0  0  0  0  0  0  0
    1.3111    1.1013   -2.5252 H   0  0  0  0  0  0  0  0  0  0  0  0
    3.2231    2.6198   -2.6586 H   0  0  0  0  0  0  0  0  0  0  0  0
    5.8784   -0.5842   -1.5101 H   0  0  0  0  0  0  0  0  0  0  0  0
    3.9582   -2.1280   -1.3927 H   0  0  0  0  0  0  0  0  0  0  0  0
   -1.5985   -2.6124    1.3690 H   0  0  0  0  0  0  0  0  0  0  0  0
   -4.1757   -1.9840   -0.2694 H   0  0  0  0  0  0  0  0  0  0  0  0
   -3.7231   -3.5710    0.4912 H   0  0  0  0  0  0  0  0  0  0  0  0
   -4.1465   -0.8868    1.9716 H   0  0  0  0  0  0  0  0  0  0  0  0
   -3.6944   -2.4664    2.7484 H   0  0  0  0  0  0  0  0  0  0  0  0
  1  2  1  0
  2  3  1  0
  3  4  2  0
  4  5  1  0
  5  6  1  0
  6  7  1  0
  7  8  2  0
  8  9  1  0
  9 10  2  0
 10 11  1  0
 11 12  1  0
 12 13  1  0
 13 14  2  0
 13 15  1  0
 15 16  2  0
 16 17  1  0
 17 18  2  0
 18 19  1  0
 19 20  3  0
 18 21  1  0
 21 22  2  0
 10 23  1  0
 23 24  1  0
 24 25  1  0
 25 26  1  0
  6  2  2  0
 23  7  1  0
 26 24  1  0
 22 15  1  0
  1 27  1  0
  1 28  1  0
  1 29  1  0
 12 30  1  0
 12 31  1  0
 16 32  1  0
 17 33  1  0
 21 34  1  0
 22 35  1  0
 24 36  1  0
 25 37  1  0
 25 38  1  0
 26 39  1  0
 26 40  1  0
M  END
$$$$
