
     RDKit          3D

 44 46  0  0  0  0  0  0  0  0999 V2000
    6.0256   -0.2263   -3.6708 C   0  0  0  0  0  0  0  0  0  0  0  0
    5.0938   -0.1552   -2.4957 C   0  0  0  0  0  0  0  0  0  0  0  0
    3.9891    0.7033   -2.5129 C   0  0  0  0  0  0  0  0  0  0  0  0
    3.1097    0.7434   -1.4284 C   0  0  0  0  0  0  0  0  0  0  0  0
    3.3190   -0.0815   -0.3157 C   0  0  0  0  0  0  0  0  0  0  0  0
    2.3483   -0.0023    0.8095 C   0  0  0  0  0  0  0  0  0  0  0  0
    1.3384    0.6866    0.7875 O   0  0  0  0  0  0  0  0  0  0  0  0
    2.7384   -0.7882    1.8407 O   0  0  0  0  0  0  0  0  0  0  0  0
    1.8801   -0.7665    2.9808 C   0  0  0  0  0  0  0  0  0  0  0  0
    0.6038   -1.5901    2.7978 C   0  0  0  0  0  0  0  0  0  0  0  0
    0.5220   -2.7628    3.1511 O   0  0  0  0  0  0  0  0  0  0  0  0
   -0.4401   -0.8998    2.2190 N   0  0  0  0  0  0  0  0  0  0  0  0
   -1.6596   -1.5846    1.8221 C   0  0  0  0  0  0  0  0  0  0  0  0
   -2.8334   -0.6155    1.6702 C   0  0  0  0  0  0  0  0  0  0  0  0
   -4.1175   -1.3754    1.3503 C   0  0  0  0  0  0  0  0  0  0  0  0
   -5.2357   -0.4795    1.2993 O   0  0  0  0  0  0  0  0  0  0  0  0
   -4.9410    0.6521    0.5813 C   0  0  0  0  0  0  0  0  0  0  0  0
   -6.0166    1.4546    0.2051 C   0  0  0  0  0  0  0  0  0  0  0  0
   -5.7929    2.6121   -0.5441 C   0  0  0  0  0  0  0  0  0  0  0  0
   -4.4942    2.9641   -0.9165 C   0  0  0  0  0  0  0  0  0  0  0  0
   -3.4157    2.1665   -0.5312 C   0  0  0  0  0  0  0  0  0  0  0  0
   -3.6380    1.0210    0.2321 C   0  0  0  0  0  0  0  0  0  0  0  0
   -2.5313    0.2979    0.5979 O   0  0  0  0  0  0  0  0  0  0  0  0
    4.4152   -0.9521   -0.3027 C   0  0  0  0  0  0  0  0  0  0  0  0
    5.2928   -0.9907   -1.3892 C   0  0  0  0  0  0  0  0  0  0  0  0
    6.0029    0.7021   -4.2524 H   0  0  0  0  0  0  0  0  0  0  0  0
    7.0574   -0.3748   -3.3355 H   0  0  0  0  0  0  0  0  0  0  0  0
    5.7406   -1.0559   -4.3244 H   0  0  0  0  0  0  0  0  0  0  0  0
    3.8048    1.3490   -3.3699 H   0  0  0  0  0  0  0  0  0  0  0  0
    2.2591    1.4224   -1.4559 H   0  0  0  0  0  0  0  0  0  0  0  0
    1.6345    0.2633    3.2700 H   0  0  0  0  0  0  0  0  0  0  0  0
    2.4357   -1.1969    3.8217 H   0  0  0  0  0  0  0  0  0  0  0  0
   -0.1762   -0.0860    1.6582 H   0  0  0  0  0  0  0  0  0  0  0  0
   -1.4399   -2.0826    0.8718 H   0  0  0  0  0  0  0  0  0  0  0  0
   -1.8920   -2.3535    2.5688 H   0  0  0  0  0  0  0  0  0  0  0  0
   -2.9502   -0.0257    2.5905 H   0  0  0  0  0  0  0  0  0  0  0  0
   -4.3324   -2.1184    2.1264 H   0  0  0  0  0  0  0  0  0  0  0  0
   -4.0514   -1.8993    0.3879 H   0  0  0  0  0  0  0  0  0  0  0  0
   -7.0275    1.1748    0.4876 H   0  0  0  0  0  0  0  0  0  0  0  0
   -6.6320    3.2367   -0.8413 H   0  0  0  0  0  0  0  0  0  0  0  0
   -4.3216    3.8631   -1.5038 H   0  0  0  0  0  0  0  0  0  0  0  0
   -2.4036    2.4437   -0.8119 H   0  0  0  0  0  0  0  0  0  0  0  0
    4.5977   -1.6130    0.5413 H   0  0  0  0  0  0  0  0  0  0  0  0
    6.1339   -1.6804   -1.3701 H   0  0  0  0  0  0  0  0  0  0  0  0
  1  2  1  0
  2  3  2  0
  3  4  1  0
  4  5  2  0
  5  6  1  0
  6  7  2  0
  6  8  1  0
  8  9  1  0
  9 10  1  0
 10 11  2  0
 10 12  1  0
 12 13  1  0
 13 14  1  0
 14 15  1  0
 15 16  1  0
 16 17  1  0
 17 18  2  0
 18 19  1  0
 19 20  2  0
 20 21  1  0
 21 22  2  0
 22 23  1  0
  5 24  1  0
 24 25  2  0
 25  2  1  0
 23 14  1  0
 22 17  1  0
  1 26  1  0
  1 27  1  0
  1 28  1  0
  3 29  1  0
  4 30  1  0
  9 31  1  0
  9 32  1  0
 12 33  1  0
 13 34  1  0
 13 35  1  0
 14 36  1  0
 15 37  1  0
 15 38  1  0
 18 39  1  0
 19 40  1  0
 20 41  1  0
 21 42  1  0
 24 43  1  0
 25 44  1  0
M  END
$$$$
