
     RDKit          3D

 62 64  0  0  0  0  0  0  0  0999 V2000
    7.0525   -2.7162   -0.8371 C   0  0  0  0  0  0  0  0  0  0  0  0
    6.9275   -1.2156   -0.8794 C   0  0  0  0  0  0  0  0  0  0  0  0
    7.7693   -0.5476   -1.7900 C   0  0  0  0  0  0  0  0  0  0  0  0
    7.8152    0.8411   -1.8456 C   0  0  0  0  0  0  0  0  0  0  0  0
    7.0249    1.5880   -0.9831 C   0  0  0  0  0  0  0  0  0  0  0  0
    6.1537    0.9569   -0.0787 C   0  0  0  0  0  0  0  0  0  0  0  0
    5.3142    1.8401    0.8059 C   0  0  0  0  0  0  0  0  0  0  0  0
    6.0645   -0.4585   -0.0546 C   0  0  0  0  0  0  0  0  0  0  0  0
    5.1426   -1.0431    0.8519 N   0  0  0  0  0  0  0  0  0  0  0  0
    4.3568   -2.1582    0.6079 C   0  0  0  0  0  0  0  0  0  0  0  0
    4.2508   -2.7565   -0.4613 O   0  0  0  0  0  0  0  0  0  0  0  0
    3.5146   -2.5699    1.8197 C   0  0  0  0  0  0  0  0  0  0  0  0
    2.1813   -2.0647    1.7390 O   0  0  0  0  0  0  0  0  0  0  0  0
    2.0629   -0.7344    1.9895 C   0  0  0  0  0  0  0  0  0  0  0  0
    2.9868   -0.0042    2.3284 O   0  0  0  0  0  0  0  0  0  0  0  0
    0.6576   -0.2668    1.7336 C   0  0  0  0  0  0  0  0  0  0  0  0
    0.6084    0.4682    0.3995 C   0  0  0  0  0  0  0  0  0  0  0  0
   -0.8105    0.7572   -0.0251 C   0  0  0  0  0  0  0  0  0  0  0  0
   -1.5419    1.7876    0.5842 C   0  0  0  0  0  0  0  0  0  0  0  0
   -2.8625    2.0340    0.2071 C   0  0  0  0  0  0  0  0  0  0  0  0
   -3.4542    1.2447   -0.7826 C   0  0  0  0  0  0  0  0  0  0  0  0
   -5.1359    1.5704   -1.2538 S   0  0  0  0  0  6  0  0  0  0  0  0
   -5.2582    3.0050   -1.4103 O   0  0  0  0  0  0  0  0  0  0  0  0
   -5.4887    0.6712   -2.3317 O   0  0  0  0  0  0  0  0  0  0  0  0
   -6.0061    1.1047    0.1367 N   0  0  0  0  0  0  0  0  0  0  0  0
   -5.9332   -0.3155    0.5644 C   0  0  0  0  0  0  0  0  0  0  0  0
   -6.9460   -1.1912   -0.1660 C   0  0  0  0  0  0  0  0  0  0  0  0
   -8.3582   -0.6215   -0.0756 C   0  0  0  0  0  0  0  0  0  0  0  0
   -8.3872    0.8378   -0.5186 C   0  0  0  0  0  0  0  0  0  0  0  0
   -7.3742    1.6672    0.2610 C   0  0  0  0  0  0  0  0  0  0  0  0
   -2.7358    0.2246   -1.4083 C   0  0  0  0  0  0  0  0  0  0  0  0
   -1.4170   -0.0196   -1.0241 C   0  0  0  0  0  0  0  0  0  0  0  0
    6.4099   -3.1752   -1.5944 H   0  0  0  0  0  0  0  0  0  0  0  0
    8.0876   -3.0203   -1.0407 H   0  0  0  0  0  0  0  0  0  0  0  0
    6.8183   -3.1173    0.1531 H   0  0  0  0  0  0  0  0  0  0  0  0
    8.4156   -1.1201   -2.4528 H   0  0  0  0  0  0  0  0  0  0  0  0
    8.4765    1.3380   -2.5498 H   0  0  0  0  0  0  0  0  0  0  0  0
    7.0850    2.6736   -1.0244 H   0  0  0  0  0  0  0  0  0  0  0  0
    5.5419    2.9004    0.6520 H   0  0  0  0  0  0  0  0  0  0  0  0
    4.2514    1.6996    0.5852 H   0  0  0  0  0  0  0  0  0  0  0  0
    5.5097    1.6196    1.8597 H   0  0  0  0  0  0  0  0  0  0  0  0
    4.7380   -0.4173    1.5470 H   0  0  0  0  0  0  0  0  0  0  0  0
    3.9941   -2.2719    2.7618 H   0  0  0  0  0  0  0  0  0  0  0  0
    3.4588   -3.6649    1.8336 H   0  0  0  0  0  0  0  0  0  0  0  0
   -0.0210   -1.1291    1.7422 H   0  0  0  0  0  0  0  0  0  0  0  0
    0.3502    0.3763    2.5672 H   0  0  0  0  0  0  0  0  0  0  0  0
    1.1688    1.4110    0.4604 H   0  0  0  0  0  0  0  0  0  0  0  0
    1.1144   -0.1219   -0.3766 H   0  0  0  0  0  0  0  0  0  0  0  0
   -1.0856    2.4065    1.3543 H   0  0  0  0  0  0  0  0  0  0  0  0
   -3.4253    2.8364    0.6797 H   0  0  0  0  0  0  0  0  0  0  0  0
   -6.1253   -0.3520    1.6444 H   0  0  0  0  0  0  0  0  0  0  0  0
   -4.9238   -0.7138    0.4288 H   0  0  0  0  0  0  0  0  0  0  0  0
   -6.6642   -1.2967   -1.2195 H   0  0  0  0  0  0  0  0  0  0  0  0
   -6.9337   -2.2004    0.2615 H   0  0  0  0  0  0  0  0  0  0  0  0
   -8.7184   -0.6987    0.9578 H   0  0  0  0  0  0  0  0  0  0  0  0
   -9.0380   -1.2168   -0.6956 H   0  0  0  0  0  0  0  0  0  0  0  0
   -8.1754    0.8959   -1.5928 H   0  0  0  0  0  0  0  0  0  0  0  0
   -9.3915    1.2495   -0.3681 H   0  0  0  0  0  0  0  0  0  0  0  0
   -7.3991    2.7098   -0.0703 H   0  0  0  0  0  0  0  0  0  0  0  0
   -7.6386    1.6851    1.3257 H   0  0  0  0  0  0  0  0  0  0  0  0
   -3.1905   -0.3814   -2.1876 H   0  0  0  0  0  0  0  0  0  0  0  0
   -0.8639   -0.8193   -1.5139 H   0  0  0  0  0  0  0  0  0  0  0  0
  1  2  1  0
  2  3  2  0
  3  4  1  0
  4  5  2  0
  5  6  1  0
  6  7  1  0
  6  8  2  0
  8  9  1  0
  9 10  1  0
 10 11  2  0
 10 12  1  0
 12 13  1  0
 13 14  1  0
 14 15  2  0
 14 16  1  0
 16 17  1  0
 17 18  1  0
 18 19  2  0
 19 20  1  0
 20 21  2  0
 21 22  1  0
 22 23  2  0
 22 24  2  0
 22 25  1  0
 25 26  1  0
 26 27  1  0
 27 28  1  0
 28 29  1  0
 29 30  1  0
 21 31  1  0
 31 32  2  0
  8  2  1  0
 32 18  1  0
 30 25  1  0
  1 33  1  0
  1 34  1  0
  1 35  1  0
  3 36  1  0
  4 37  1  0
  5 38  1  0
  7 39  1  0
  7 40  1  0
  7 41  1  0
  9 42  1  0
 12 43  1  0
 12 44  1  0
 16 45  1  0
 16 46  1  0
 17 47  1  0
 17 48  1  0
 19 49  1  0
 20 50  1  0
 26 51  1  0
 26 52  1  0
 27 53  1  0
 27 54  1  0
 28 55  1  0
 28 56  1  0
 29 57  1  0
 29 58  1  0
 30 59  1  0
 30 60  1  0
 31 61  1  0
 32 62  1  0
M  END
$$$$
