
     RDKit          3D

 49 52  0  0  0  0  0  0  0  0999 V2000
    3.5140   -0.8290   -2.3784 O   0  0  0  0  0  0  0  0  0  0  0  0
    3.3499   -0.8865   -1.1630 C   0  0  0  0  0  0  0  0  0  0  0  0
    2.0808   -1.4757   -0.5707 C   0  0  0  0  0  0  0  0  0  0  0  0
    0.9816   -0.1242   -0.0521 S   0  0  0  0  0  0  0  0  0  0  0  0
   -0.3291   -1.0330    0.6101 C   0  0  0  0  0  0  0  0  0  0  0  0
   -0.3184   -2.3220    0.8440 N   0  0  0  0  0  0  0  0  0  0  0  0
   -1.5385   -2.6588    1.3684 N   0  0  0  0  0  0  0  0  0  0  0  0
   -2.2691   -1.5635    1.4763 C   0  0  0  0  0  0  0  0  0  0  0  0
   -3.6360   -1.5224    1.9855 C   0  0  0  0  0  0  0  0  0  0  0  0
   -4.5983   -2.3682    1.4308 C   0  0  0  0  0  0  0  0  0  0  0  0
   -5.8895   -2.3153    1.9260 C   0  0  0  0  0  0  0  0  0  0  0  0
   -6.2739   -1.4935    2.9243 N   0  0  0  0  0  0  0  0  0  0  0  0
   -5.3219   -0.7064    3.4667 C   0  0  0  0  0  0  0  0  0  0  0  0
   -4.0039   -0.6875    3.0413 C   0  0  0  0  0  0  0  0  0  0  0  0
   -1.5429   -0.5048    0.9609 N   0  0  0  0  0  0  0  0  0  0  0  0
   -2.0094    0.8491    0.7626 C   0  0  0  0  0  0  0  0  0  0  0  0
   -2.9659    1.0042   -0.4174 C   0  0  0  0  0  0  0  0  0  0  0  0
   -2.3376    0.7864   -1.7846 C   0  0  0  0  0  0  0  0  0  0  0  0
   -3.2744    1.5687   -2.6717 C   0  0  0  0  0  0  0  0  0  0  0  0
   -3.5906    2.7729   -1.8100 C   0  0  0  0  0  0  0  0  0  0  0  0
   -3.4842    2.3493   -0.4404 O   0  0  0  0  0  0  0  0  0  0  0  0
    4.2387   -0.4501   -0.1952 N   0  0  0  0  0  0  0  0  0  0  0  0
    5.5160    0.1311   -0.3758 C   0  0  0  0  0  0  0  0  0  0  0  0
    6.1179    0.2903   -1.6265 C   0  0  0  0  0  0  0  0  0  0  0  0
    7.3877    0.8687   -1.7371 C   0  0  0  0  0  0  0  0  0  0  0  0
    8.0706    1.2958   -0.6006 C   0  0  0  0  0  0  0  0  0  0  0  0
    7.4859    1.1446    0.6542 C   0  0  0  0  0  0  0  0  0  0  0  0
    6.2189    0.5661    0.7646 C   0  0  0  0  0  0  0  0  0  0  0  0
    5.5361    0.3986    2.3478 Cl  0  0  0  0  0  0  0  0  0  0  0  0
    1.5918   -2.0944   -1.3302 H   0  0  0  0  0  0  0  0  0  0  0  0
    2.3413   -2.1158    0.2788 H   0  0  0  0  0  0  0  0  0  0  0  0
   -4.3479   -3.0585    0.6312 H   0  0  0  0  0  0  0  0  0  0  0  0
   -6.6718   -2.9521    1.5218 H   0  0  0  0  0  0  0  0  0  0  0  0
   -5.6559   -0.0733    4.2841 H   0  0  0  0  0  0  0  0  0  0  0  0
   -3.2870   -0.0473    3.5431 H   0  0  0  0  0  0  0  0  0  0  0  0
   -1.1532    1.5221    0.6510 H   0  0  0  0  0  0  0  0  0  0  0  0
   -2.4929    1.1817    1.6866 H   0  0  0  0  0  0  0  0  0  0  0  0
   -3.8307    0.3405   -0.3006 H   0  0  0  0  0  0  0  0  0  0  0  0
   -1.3375    1.2322   -1.8351 H   0  0  0  0  0  0  0  0  0  0  0  0
   -2.2632   -0.2694   -2.0595 H   0  0  0  0  0  0  0  0  0  0  0  0
   -2.8431    1.8387   -3.6392 H   0  0  0  0  0  0  0  0  0  0  0  0
   -4.1867    0.9881   -2.8534 H   0  0  0  0  0  0  0  0  0  0  0  0
   -2.8612    3.5749   -1.9651 H   0  0  0  0  0  0  0  0  0  0  0  0
   -4.5920    3.1706   -1.9958 H   0  0  0  0  0  0  0  0  0  0  0  0
    3.9279   -0.4963    0.7716 H   0  0  0  0  0  0  0  0  0  0  0  0
    5.6291   -0.0304   -2.5414 H   0  0  0  0  0  0  0  0  0  0  0  0
    7.8418    0.9833   -2.7192 H   0  0  0  0  0  0  0  0  0  0  0  0
    9.0566    1.7441   -0.6939 H   0  0  0  0  0  0  0  0  0  0  0  0
    8.0204    1.4765    1.5399 H   0  0  0  0  0  0  0  0  0  0  0  0
  1  2  2  0
  2  3  1  0
  3  4  1  0
  4  5  1  0
  5  6  2  0
  6  7  1  0
  7  8  2  0
  8  9  1  0
  9 10  2  0
 10 11  1  0
 11 12  2  0
 12 13  1  0
 13 14  2  0
  8 15  1  0
 15 16  1  0
 16 17  1  0
 17 18  1  0
 18 19  1  0
 19 20  1  0
 20 21  1  0
  2 22  1  0
 22 23  1  0
 23 24  2  0
 24 25  1  0
 25 26  2  0
 26 27  1  0
 27 28  2  0
 28 29  1  0
 15  5  1  0
 21 17  1  0
 28 23  1  0
 14  9  1  0
  3 30  1  0
  3 31  1  0
 10 32  1  0
 11 33  1  0
 13 34  1  0
 14 35  1  0
 16 36  1  0
 16 37  1  0
 17 38  1  0
 18 39  1  0
 18 40  1  0
 19 41  1  0
 19 42  1  0
 20 43  1  0
 20 44  1  0
 22 45  1  0
 24 46  1  0
 25 47  1  0
 26 48  1  0
 27 49  1  0
M  END
$$$$
