
     RDKit          3D

 57 58  0  0  0  0  0  0  0  0999 V2000
    9.2413   -1.1568    0.2460 C   0  0  0  0  0  0  0  0  0  0  0  0
    8.1987   -0.6967    1.2533 C   0  0  0  0  0  0  0  0  0  0  0  0
    7.0128   -1.6635    1.3123 C   0  0  0  0  0  0  0  0  0  0  0  0
    5.9713   -1.2401    2.3498 C   0  0  0  0  0  0  0  0  0  0  0  0
    5.4600    0.0667    2.0916 O   0  0  0  0  0  0  0  0  0  0  0  0
    4.4189    0.2145    1.2204 C   0  0  0  0  0  0  0  0  0  0  0  0
    3.7801   -0.7982    0.5085 C   0  0  0  0  0  0  0  0  0  0  0  0
    2.7203   -0.4951   -0.3567 C   0  0  0  0  0  0  0  0  0  0  0  0
    2.2887    0.8282   -0.5354 C   0  0  0  0  0  0  0  0  0  0  0  0
    1.1269    1.1852   -1.4459 C   0  0  0  0  0  0  0  0  0  0  0  0
    1.2129    0.5097   -2.8183 C   0  0  0  0  0  0  0  0  0  0  0  0
   -0.1248    0.8656   -0.7762 N   0  0  0  0  0  0  0  0  0  0  0  0
   -1.3108    1.4661   -1.1220 C   0  0  0  0  0  0  0  0  0  0  0  0
   -1.4263    2.2636   -2.0451 O   0  0  0  0  0  0  0  0  0  0  0  0
   -2.4801    1.0107   -0.2819 C   0  0  0  0  0  0  0  0  0  0  0  0
   -3.6743    1.9285   -0.4791 C   0  0  0  0  0  0  0  0  0  0  0  0
   -5.1304    1.3430    0.3598 S   0  0  0  0  0  6  0  0  0  0  0  0
   -4.7029    0.7624    1.6202 O   0  0  0  0  0  0  0  0  0  0  0  0
   -6.0921    2.4297    0.3295 O   0  0  0  0  0  0  0  0  0  0  0  0
   -5.7161    0.0335   -0.7164 C   0  0  0  0  0  0  0  0  0  0  0  0
   -7.0181   -0.5098   -0.1880 C   0  0  0  0  0  0  0  0  0  0  0  0
   -7.0304   -1.4946    0.8117 C   0  0  0  0  0  0  0  0  0  0  0  0
   -8.2388   -1.9947    1.3023 C   0  0  0  0  0  0  0  0  0  0  0  0
   -9.4486   -1.5170    0.8000 C   0  0  0  0  0  0  0  0  0  0  0  0
   -9.4456   -0.5359   -0.1883 C   0  0  0  0  0  0  0  0  0  0  0  0
  -10.9380    0.0558   -0.8087 Cl  0  0  0  0  0  0  0  0  0  0  0  0
   -8.2417   -0.0305   -0.6815 C   0  0  0  0  0  0  0  0  0  0  0  0
    2.9305    1.8381    0.1945 C   0  0  0  0  0  0  0  0  0  0  0  0
    3.9855    1.5315    1.0581 C   0  0  0  0  0  0  0  0  0  0  0  0
    9.6349   -2.1434    0.5108 H   0  0  0  0  0  0  0  0  0  0  0  0
   10.0792   -0.4527    0.2197 H   0  0  0  0  0  0  0  0  0  0  0  0
    8.8150   -1.2158   -0.7607 H   0  0  0  0  0  0  0  0  0  0  0  0
    8.6647   -0.6188    2.2425 H   0  0  0  0  0  0  0  0  0  0  0  0
    7.8553    0.3066    0.9760 H   0  0  0  0  0  0  0  0  0  0  0  0
    7.3696   -2.6706    1.5597 H   0  0  0  0  0  0  0  0  0  0  0  0
    6.5537   -1.7161    0.3189 H   0  0  0  0  0  0  0  0  0  0  0  0
    6.4537   -1.1937    3.3335 H   0  0  0  0  0  0  0  0  0  0  0  0
    5.1710   -1.9816    2.4522 H   0  0  0  0  0  0  0  0  0  0  0  0
    4.0796   -1.8369    0.5959 H   0  0  0  0  0  0  0  0  0  0  0  0
    2.2376   -1.3114   -0.8887 H   0  0  0  0  0  0  0  0  0  0  0  0
    1.1376    2.2691   -1.6234 H   0  0  0  0  0  0  0  0  0  0  0  0
    2.1811    0.7043   -3.2926 H   0  0  0  0  0  0  0  0  0  0  0  0
    0.4314    0.8857   -3.4876 H   0  0  0  0  0  0  0  0  0  0  0  0
    1.0774   -0.5754   -2.7516 H   0  0  0  0  0  0  0  0  0  0  0  0
   -0.0832    0.2659    0.0389 H   0  0  0  0  0  0  0  0  0  0  0  0
   -2.7218   -0.0167   -0.5746 H   0  0  0  0  0  0  0  0  0  0  0  0
   -2.1815    1.0003    0.7726 H   0  0  0  0  0  0  0  0  0  0  0  0
   -3.4546    2.9228   -0.0737 H   0  0  0  0  0  0  0  0  0  0  0  0
   -3.9380    2.0552   -1.5343 H   0  0  0  0  0  0  0  0  0  0  0  0
   -4.9567   -0.7525   -0.7559 H   0  0  0  0  0  0  0  0  0  0  0  0
   -5.8425    0.4513   -1.7200 H   0  0  0  0  0  0  0  0  0  0  0  0
   -6.0975   -1.8703    1.2298 H   0  0  0  0  0  0  0  0  0  0  0  0
   -8.2366   -2.7515    2.0832 H   0  0  0  0  0  0  0  0  0  0  0  0
  -10.3863   -1.9060    1.1875 H   0  0  0  0  0  0  0  0  0  0  0  0
   -8.2611    0.7466   -1.4430 H   0  0  0  0  0  0  0  0  0  0  0  0
    2.6153    2.8757    0.0988 H   0  0  0  0  0  0  0  0  0  0  0  0
    4.4742    2.3301    1.6127 H   0  0  0  0  0  0  0  0  0  0  0  0
  1  2  1  0
  2  3  1  0
  3  4  1  0
  4  5  1  0
  5  6  1  0
  6  7  2  0
  7  8  1  0
  8  9  2  0
  9 10  1  0
 10 11  1  0
 10 12  1  0
 12 13  1  0
 13 14  2  0
 13 15  1  0
 15 16  1  0
 16 17  1  0
 17 18  2  0
 17 19  2  0
 17 20  1  0
 20 21  1  0
 21 22  2  0
 22 23  1  0
 23 24  2  0
 24 25  1  0
 25 26  1  0
 25 27  2  0
  9 28  1  0
 28 29  2  0
 29  6  1  0
 27 21  1  0
  1 30  1  0
  1 31  1  0
  1 32  1  0
  2 33  1  0
  2 34  1  0
  3 35  1  0
  3 36  1  0
  4 37  1  0
  4 38  1  0
  7 39  1  0
  8 40  1  0
 10 41  1  0
 11 42  1  0
 11 43  1  0
 11 44  1  0
 12 45  1  0
 15 46  1  0
 15 47  1  0
 16 48  1  0
 16 49  1  0
 20 50  1  0
 20 51  1  0
 22 52  1  0
 23 53  1  0
 24 54  1  0
 27 55  1  0
 28 56  1  0
 29 57  1  0
M  END
$$$$
