
     RDKit          3D

 40 43  0  0  0  0  0  0  0  0999 V2000
    6.5740   -0.2267   -1.0115 O   0  0  0  0  0  0  0  0  0  0  0  0
    5.9405    0.3514   -0.1166 N   0  0  0  0  0  4  0  0  0  0  0  0
    6.4456    1.1144    0.7198 O   0  0  0  0  0  1  0  0  0  0  0  0
    4.4944    0.1153   -0.0397 C   0  0  0  0  0  0  0  0  0  0  0  0
    3.8821   -0.7544   -0.9428 C   0  0  0  0  0  0  0  0  0  0  0  0
    2.5012   -0.9693   -0.8577 C   0  0  0  0  0  0  0  0  0  0  0  0
    1.7020   -0.3364    0.1139 C   0  0  0  0  0  0  0  0  0  0  0  0
    0.3300   -0.5717    0.1669 N   0  0  0  0  0  0  0  0  0  0  0  0
   -0.2626   -1.4581   -0.6896 N   0  0  0  0  0  0  0  0  0  0  0  0
   -1.4872   -1.6115   -0.2855 C   0  0  0  0  0  0  0  0  0  0  0  0
   -2.4231   -2.4609   -0.9594 C   0  0  0  0  0  0  0  0  0  0  0  0
   -2.3097   -3.2316   -2.1006 C   0  0  0  0  0  0  0  0  0  0  0  0
   -3.5623   -3.8616   -2.2929 C   0  0  0  0  0  0  0  0  0  0  0  0
   -4.3639   -3.4393   -1.2593 C   0  0  0  0  0  0  0  0  0  0  0  0
   -3.6842   -2.5915   -0.4453 O   0  0  0  0  0  0  0  0  0  0  0  0
   -1.8573   -0.8723    0.9623 C   0  0  0  0  0  0  0  0  0  0  0  0
   -0.6080   -0.0137    1.1478 C   0  0  0  0  0  0  0  0  0  0  0  0
   -0.9194    1.4578    0.9194 C   0  0  0  0  0  0  0  0  0  0  0  0
   -1.2125    2.2791    2.0215 C   0  0  0  0  0  0  0  0  0  0  0  0
   -1.5250    3.6281    1.8423 C   0  0  0  0  0  0  0  0  0  0  0  0
   -1.5553    4.1734    0.5610 C   0  0  0  0  0  0  0  0  0  0  0  0
   -1.2757    3.3711   -0.5425 C   0  0  0  0  0  0  0  0  0  0  0  0
   -0.9639    2.0220   -0.3661 C   0  0  0  0  0  0  0  0  0  0  0  0
    2.3532    0.5328    1.0056 C   0  0  0  0  0  0  0  0  0  0  0  0
    3.7343    0.7628    0.9374 C   0  0  0  0  0  0  0  0  0  0  0  0
    4.4499   -1.2699   -1.7138 H   0  0  0  0  0  0  0  0  0  0  0  0
    2.0386   -1.6489   -1.5720 H   0  0  0  0  0  0  0  0  0  0  0  0
   -1.4224   -3.3199   -2.7132 H   0  0  0  0  0  0  0  0  0  0  0  0
   -3.8458   -4.5391   -3.0861 H   0  0  0  0  0  0  0  0  0  0  0  0
   -5.3881   -3.6397   -0.9760 H   0  0  0  0  0  0  0  0  0  0  0  0
   -2.7880   -0.3108    0.8403 H   0  0  0  0  0  0  0  0  0  0  0  0
   -1.9706   -1.5953    1.7772 H   0  0  0  0  0  0  0  0  0  0  0  0
   -0.2192   -0.1569    2.1643 H   0  0  0  0  0  0  0  0  0  0  0  0
   -1.1995    1.8745    3.0315 H   0  0  0  0  0  0  0  0  0  0  0  0
   -1.7462    4.2546    2.7028 H   0  0  0  0  0  0  0  0  0  0  0  0
   -1.7973    5.2238    0.4215 H   0  0  0  0  0  0  0  0  0  0  0  0
   -1.2985    3.7946   -1.5435 H   0  0  0  0  0  0  0  0  0  0  0  0
   -0.7460    1.4138   -1.2429 H   0  0  0  0  0  0  0  0  0  0  0  0
    1.7954    1.0617    1.7735 H   0  0  0  0  0  0  0  0  0  0  0  0
    4.1905    1.4486    1.6481 H   0  0  0  0  0  0  0  0  0  0  0  0
  1  2  2  0
  2  3  1  0
  2  4  1  0
  4  5  2  0
  5  6  1  0
  6  7  2  0
  7  8  1  0
  8  9  1  0
  9 10  2  0
 10 11  1  0
 11 12  2  0
 12 13  1  0
 13 14  2  0
 14 15  1  0
 10 16  1  0
 16 17  1  0
 17 18  1  0
 18 19  2  0
 19 20  1  0
 20 21  2  0
 21 22  1  0
 22 23  2  0
  7 24  1  0
 24 25  2  0
 25  4  1  0
 17  8  1  0
 23 18  1  0
 15 11  1  0
  5 26  1  0
  6 27  1  0
 12 28  1  0
 13 29  1  0
 14 30  1  0
 16 31  1  0
 16 32  1  0
 17 33  1  0
 19 34  1  0
 20 35  1  0
 21 36  1  0
 22 37  1  0
 23 38  1  0
 24 39  1  0
 25 40  1  0
M  CHG  2   2   1   3  -1
M  END
$$$$
