
     RDKit          3D

 48 48  0  0  0  0  0  0  0  0999 V2000
   -8.2842   -1.0935    0.9918 C   0  0  0  0  0  0  0  0  0  0  0  0
   -6.8305   -0.6450    0.9906 C   0  0  0  0  0  0  0  0  0  0  0  0
   -6.5047    0.1820   -0.2551 C   0  0  0  0  0  0  0  0  0  0  0  0
   -5.0732    0.7284   -0.2613 C   0  0  0  0  0  0  0  0  0  0  0  0
   -4.0103   -0.3690   -0.3706 C   0  0  0  0  0  0  0  0  0  0  0  0
   -2.5956    0.1786   -0.5920 C   0  0  0  0  0  0  0  0  0  0  0  0
   -2.0225    0.8795    0.6438 C   0  0  0  0  0  0  0  0  0  0  0  0
   -0.6284    1.4732    0.4159 C   0  0  0  0  0  0  0  0  0  0  0  0
    0.4418    0.4255    0.1105 C   0  0  0  0  0  0  0  0  0  0  0  0
    1.8342    1.0294    0.0221 C   0  0  0  0  0  0  0  0  0  0  0  0
    2.0627    2.2199    0.2089 O   0  0  0  0  0  0  0  0  0  0  0  0
    2.7856    0.0677   -0.3028 N   0  0  0  0  0  0  0  0  0  0  0  0
    4.0981    0.4146   -0.3652 N   0  0  0  0  0  0  0  0  0  0  0  0
    4.9805   -0.4601   -0.7513 C   0  0  0  0  0  0  0  0  0  0  0  0
    4.6316   -1.8599   -1.2123 C   0  0  0  0  0  0  0  0  0  0  0  0
    6.4179   -0.0588   -0.7307 C   0  0  0  0  0  0  0  0  0  0  0  0
    7.4626   -0.9846   -0.6747 C   0  0  0  0  0  0  0  0  0  0  0  0
    8.7811   -0.5309   -0.6419 C   0  0  0  0  0  0  0  0  0  0  0  0
    9.0117    0.8359   -0.6572 C   0  0  0  0  0  0  0  0  0  0  0  0
    8.0293    1.7589   -0.7034 N   0  0  0  0  0  0  0  0  0  0  0  0
    6.7537    1.2937   -0.7254 C   0  0  0  0  0  0  0  0  0  0  0  0
   -8.9621   -0.2327    0.9842 H   0  0  0  0  0  0  0  0  0  0  0  0
   -8.5042   -1.7109    0.1131 H   0  0  0  0  0  0  0  0  0  0  0  0
   -8.4965   -1.6891    1.8857 H   0  0  0  0  0  0  0  0  0  0  0  0
   -6.1900   -1.5324    1.0409 H   0  0  0  0  0  0  0  0  0  0  0  0
   -6.6360   -0.0511    1.8924 H   0  0  0  0  0  0  0  0  0  0  0  0
   -7.1945    1.0342   -0.3070 H   0  0  0  0  0  0  0  0  0  0  0  0
   -6.6752   -0.4151   -1.1606 H   0  0  0  0  0  0  0  0  0  0  0  0
   -4.9738    1.4069   -1.1180 H   0  0  0  0  0  0  0  0  0  0  0  0
   -4.9109    1.3329    0.6386 H   0  0  0  0  0  0  0  0  0  0  0  0
   -4.2601   -1.0203   -1.2174 H   0  0  0  0  0  0  0  0  0  0  0  0
   -4.0178   -0.9986    0.5269 H   0  0  0  0  0  0  0  0  0  0  0  0
   -1.9533   -0.6686   -0.8600 H   0  0  0  0  0  0  0  0  0  0  0  0
   -2.5920    0.8645   -1.4485 H   0  0  0  0  0  0  0  0  0  0  0  0
   -1.9872    0.1742    1.4837 H   0  0  0  0  0  0  0  0  0  0  0  0
   -2.6856    1.6982    0.9463 H   0  0  0  0  0  0  0  0  0  0  0  0
   -0.3430    2.0293    1.3184 H   0  0  0  0  0  0  0  0  0  0  0  0
   -0.6688    2.2089   -0.3978 H   0  0  0  0  0  0  0  0  0  0  0  0
    0.4512   -0.3376    0.8976 H   0  0  0  0  0  0  0  0  0  0  0  0
    0.2318   -0.0651   -0.8463 H   0  0  0  0  0  0  0  0  0  0  0  0
    2.5142   -0.9027   -0.3853 H   0  0  0  0  0  0  0  0  0  0  0  0
    3.7366   -1.8397   -1.8420 H   0  0  0  0  0  0  0  0  0  0  0  0
    5.4250   -2.3012   -1.8205 H   0  0  0  0  0  0  0  0  0  0  0  0
    4.4483   -2.4940   -0.3404 H   0  0  0  0  0  0  0  0  0  0  0  0
    7.2798   -2.0544   -0.6388 H   0  0  0  0  0  0  0  0  0  0  0  0
    9.6113   -1.2280   -0.5953 H   0  0  0  0  0  0  0  0  0  0  0  0
   10.0218    1.2369   -0.6307 H   0  0  0  0  0  0  0  0  0  0  0  0
    5.9899    2.0701   -0.7438 H   0  0  0  0  0  0  0  0  0  0  0  0
  1  2  1  0
  2  3  1  0
  3  4  1  0
  4  5  1  0
  5  6  1  0
  6  7  1  0
  7  8  1  0
  8  9  1  0
  9 10  1  0
 10 11  2  0
 10 12  1  0
 12 13  1  0
 13 14  2  3
 14 15  1  0
 14 16  1  0
 16 17  2  0
 17 18  1  0
 18 19  2  0
 19 20  1  0
 20 21  2  0
 21 16  1  0
  1 22  1  0
  1 23  1  0
  1 24  1  0
  2 25  1  0
  2 26  1  0
  3 27  1  0
  3 28  1  0
  4 29  1  0
  4 30  1  0
  5 31  1  0
  5 32  1  0
  6 33  1  0
  6 34  1  0
  7 35  1  0
  7 36  1  0
  8 37  1  0
  8 38  1  0
  9 39  1  0
  9 40  1  0
 12 41  1  0
 15 42  1  0
 15 43  1  0
 15 44  1  0
 17 45  1  0
 18 46  1  0
 19 47  1  0
 21 48  1  0
M  END
$$$$
