
     RDKit          3D

 45 47  0  0  0  0  0  0  0  0999 V2000
    8.5364    0.2942    0.8255 C   0  0  0  0  0  0  0  0  0  0  0  0
    7.1117   -0.1457    1.1113 C   0  0  0  0  0  0  0  0  0  0  0  0
    6.2493    0.5417    0.2073 O   0  0  0  0  0  0  0  0  0  0  0  0
    4.9099    0.2900    0.3097 C   0  0  0  0  0  0  0  0  0  0  0  0
    4.1103    1.0015   -0.5855 C   0  0  0  0  0  0  0  0  0  0  0  0
    2.7197    0.8418   -0.5924 C   0  0  0  0  0  0  0  0  0  0  0  0
    2.1083   -0.0337    0.3030 C   0  0  0  0  0  0  0  0  0  0  0  0
    0.7194   -0.2618    0.3555 N   0  0  0  0  0  0  0  0  0  0  0  0
   -0.2705    0.4169   -0.3220 C   0  0  0  0  0  0  0  0  0  0  0  0
   -0.1322    1.4037   -1.0310 O   0  0  0  0  0  0  0  0  0  0  0  0
   -1.5015   -0.1618   -0.0835 N   0  0  0  0  0  0  0  0  0  0  0  0
   -2.6959    0.3441   -0.7495 C   0  0  0  0  0  0  0  0  0  0  0  0
   -2.7287   -0.1581   -2.2076 C   0  0  0  0  0  0  0  0  0  0  0  0
   -4.0586    0.0475   -2.9438 C   0  0  0  0  0  0  0  0  0  0  0  0
   -5.1622    0.6827   -2.1039 C   0  0  0  0  0  0  0  0  0  0  0  0
   -5.1916    0.1036   -0.7145 C   0  0  0  0  0  0  0  0  0  0  0  0
   -6.4031   -0.2057   -0.0861 C   0  0  0  0  0  0  0  0  0  0  0  0
   -6.4103   -0.6734    1.2265 C   0  0  0  0  0  0  0  0  0  0  0  0
   -5.2121   -0.8120    1.9233 C   0  0  0  0  0  0  0  0  0  0  0  0
   -4.0005   -0.4938    1.3066 C   0  0  0  0  0  0  0  0  0  0  0  0
   -3.9722   -0.0540   -0.0247 C   0  0  0  0  0  0  0  0  0  0  0  0
    2.9122   -0.7517    1.1967 C   0  0  0  0  0  0  0  0  0  0  0  0
    4.3042   -0.5908    1.2028 C   0  0  0  0  0  0  0  0  0  0  0  0
    8.8098    0.0665   -0.2101 H   0  0  0  0  0  0  0  0  0  0  0  0
    8.6380    1.3773    0.9512 H   0  0  0  0  0  0  0  0  0  0  0  0
    9.2410   -0.2068    1.4952 H   0  0  0  0  0  0  0  0  0  0  0  0
    7.0350   -1.2288    0.9608 H   0  0  0  0  0  0  0  0  0  0  0  0
    6.8595    0.1097    2.1471 H   0  0  0  0  0  0  0  0  0  0  0  0
    4.5708    1.6907   -1.2896 H   0  0  0  0  0  0  0  0  0  0  0  0
    2.1461    1.4149   -1.3143 H   0  0  0  0  0  0  0  0  0  0  0  0
    0.3931   -0.8972    1.0669 H   0  0  0  0  0  0  0  0  0  0  0  0
   -1.4884   -1.1577    0.0717 H   0  0  0  0  0  0  0  0  0  0  0  0
   -2.6445    1.4410   -0.7461 H   0  0  0  0  0  0  0  0  0  0  0  0
   -2.5010   -1.2338   -2.2241 H   0  0  0  0  0  0  0  0  0  0  0  0
   -1.9212    0.3122   -2.7827 H   0  0  0  0  0  0  0  0  0  0  0  0
   -4.4047   -0.9322   -3.3001 H   0  0  0  0  0  0  0  0  0  0  0  0
   -3.8963    0.6506   -3.8452 H   0  0  0  0  0  0  0  0  0  0  0  0
   -6.1247    0.5392   -2.6087 H   0  0  0  0  0  0  0  0  0  0  0  0
   -4.9998    1.7649   -2.0247 H   0  0  0  0  0  0  0  0  0  0  0  0
   -7.3463   -0.0751   -0.6111 H   0  0  0  0  0  0  0  0  0  0  0  0
   -7.3525   -0.9124    1.7125 H   0  0  0  0  0  0  0  0  0  0  0  0
   -5.2221   -1.1549    2.9547 H   0  0  0  0  0  0  0  0  0  0  0  0
   -3.0846   -0.5780    1.8854 H   0  0  0  0  0  0  0  0  0  0  0  0
    2.4696   -1.4468    1.9053 H   0  0  0  0  0  0  0  0  0  0  0  0
    4.8814   -1.1684    1.9165 H   0  0  0  0  0  0  0  0  0  0  0  0
  1  2  1  0
  2  3  1  0
  3  4  1  0
  4  5  2  0
  5  6  1  0
  6  7  2  0
  7  8  1  0
  8  9  1  0
  9 10  2  0
  9 11  1  0
 11 12  1  0
 12 13  1  0
 13 14  1  0
 14 15  1  0
 15 16  1  0
 16 17  2  0
 17 18  1  0
 18 19  2  0
 19 20  1  0
 20 21  2  0
  7 22  1  0
 22 23  2  0
 23  4  1  0
 21 12  1  0
 21 16  1  0
  1 24  1  0
  1 25  1  0
  1 26  1  0
  2 27  1  0
  2 28  1  0
  5 29  1  0
  6 30  1  0
  8 31  1  0
 11 32  1  0
 12 33  1  0
 13 34  1  0
 13 35  1  0
 14 36  1  0
 14 37  1  0
 15 38  1  0
 15 39  1  0
 17 40  1  0
 18 41  1  0
 19 42  1  0
 20 43  1  0
 22 44  1  0
 23 45  1  0
M  END
$$$$
