
     RDKit          3D

 45 47  0  0  0  0  0  0  0  0999 V2000
    4.2419   -1.6054   -0.1347 C   0  0  0  0  0  0  0  0  0  0  0  0
    2.9720   -1.2554   -0.6847 O   0  0  0  0  0  0  0  0  0  0  0  0
    3.0318   -0.1195   -1.4515 C   0  0  0  0  0  0  0  0  0  0  0  0
    3.8518   -0.1030   -2.5895 C   0  0  0  0  0  0  0  0  0  0  0  0
    3.8007    0.9654   -3.4844 C   0  0  0  0  0  0  0  0  0  0  0  0
    2.9056    2.0073   -3.2664 C   0  0  0  0  0  0  0  0  0  0  0  0
    2.0726    1.9868   -2.1457 C   0  0  0  0  0  0  0  0  0  0  0  0
    2.1440    0.9413   -1.2118 C   0  0  0  0  0  0  0  0  0  0  0  0
    1.2571    1.0313   -0.1187 N   0  0  0  0  0  0  0  0  0  0  0  0
    1.4064    0.4797    1.1454 C   0  0  0  0  0  0  0  0  0  0  0  0
    2.4447    0.0134    1.6079 O   0  0  0  0  0  0  0  0  0  0  0  0
    0.1371    0.6284    2.0070 C   0  0  0  0  0  0  0  0  0  0  0  0
    0.1658   -0.2124    3.2857 C   0  0  0  0  0  0  0  0  0  0  0  0
   -0.5120   -1.5048    2.8717 C   0  0  0  0  0  0  0  0  0  0  0  0
   -1.6464   -1.0087    1.9904 C   0  0  0  0  0  0  0  0  0  0  0  0
   -1.0534    0.1248    1.2434 N   0  0  0  0  0  0  0  0  0  0  0  0
   -2.0857    1.3126    0.6440 S   0  0  0  0  0  6  0  0  0  0  0  0
   -1.2657    2.2445   -0.1052 O   0  0  0  0  0  0  0  0  0  0  0  0
   -2.9232    1.7596    1.7347 O   0  0  0  0  0  0  0  0  0  0  0  0
   -3.0754    0.4132   -0.5190 C   0  0  0  0  0  0  0  0  0  0  0  0
   -2.4521   -0.1737   -1.6265 C   0  0  0  0  0  0  0  0  0  0  0  0
   -3.2208   -0.8859   -2.5487 C   0  0  0  0  0  0  0  0  0  0  0  0
   -4.5989   -1.0020   -2.3601 C   0  0  0  0  0  0  0  0  0  0  0  0
   -5.5439   -1.8812   -3.4974 Cl  0  0  0  0  0  0  0  0  0  0  0  0
   -5.2182   -0.4115   -1.2565 C   0  0  0  0  0  0  0  0  0  0  0  0
   -4.4556    0.3018   -0.3290 C   0  0  0  0  0  0  0  0  0  0  0  0
    4.0653   -2.2545    0.7284 H   0  0  0  0  0  0  0  0  0  0  0  0
    4.8314   -2.1718   -0.8624 H   0  0  0  0  0  0  0  0  0  0  0  0
    4.8000   -0.7270    0.2098 H   0  0  0  0  0  0  0  0  0  0  0  0
    4.5060   -0.9415   -2.8093 H   0  0  0  0  0  0  0  0  0  0  0  0
    4.4392    0.9693   -4.3639 H   0  0  0  0  0  0  0  0  0  0  0  0
    2.8491    2.8341   -3.9698 H   0  0  0  0  0  0  0  0  0  0  0  0
    1.3797    2.8124   -1.9975 H   0  0  0  0  0  0  0  0  0  0  0  0
    0.4918    1.6982   -0.2183 H   0  0  0  0  0  0  0  0  0  0  0  0
    0.0426    1.6875    2.2737 H   0  0  0  0  0  0  0  0  0  0  0  0
   -0.4332    0.2799    4.0622 H   0  0  0  0  0  0  0  0  0  0  0  0
    1.1657   -0.3815    3.6944 H   0  0  0  0  0  0  0  0  0  0  0  0
   -0.8705   -2.0875    3.7247 H   0  0  0  0  0  0  0  0  0  0  0  0
    0.1794   -2.1285    2.2924 H   0  0  0  0  0  0  0  0  0  0  0  0
   -1.9879   -1.7912    1.3076 H   0  0  0  0  0  0  0  0  0  0  0  0
   -2.4855   -0.6767    2.6106 H   0  0  0  0  0  0  0  0  0  0  0  0
   -1.3768   -0.0841   -1.7716 H   0  0  0  0  0  0  0  0  0  0  0  0
   -2.7414   -1.3461   -3.4094 H   0  0  0  0  0  0  0  0  0  0  0  0
   -6.2927   -0.5019   -1.1163 H   0  0  0  0  0  0  0  0  0  0  0  0
   -4.9422    0.7642    0.5272 H   0  0  0  0  0  0  0  0  0  0  0  0
  1  2  1  0
  2  3  1  0
  3  4  2  0
  4  5  1  0
  5  6  2  0
  6  7  1  0
  7  8  2  0
  8  9  1  0
  9 10  1  0
 10 11  2  0
 10 12  1  0
 12 13  1  0
 13 14  1  0
 14 15  1  0
 15 16  1  0
 16 17  1  0
 17 18  2  0
 17 19  2  0
 17 20  1  0
 20 21  2  0
 21 22  1  0
 22 23  2  0
 23 24  1  0
 23 25  1  0
 25 26  2  0
  8  3  1  0
 16 12  1  0
 26 20  1  0
  1 27  1  0
  1 28  1  0
  1 29  1  0
  4 30  1  0
  5 31  1  0
  6 32  1  0
  7 33  1  0
  9 34  1  0
 12 35  1  0
 13 36  1  0
 13 37  1  0
 14 38  1  0
 14 39  1  0
 15 40  1  0
 15 41  1  0
 21 42  1  0
 22 43  1  0
 25 44  1  0
 26 45  1  0
M  END
$$$$
