
     RDKit          3D

 35 37  0  0  0  0  0  0  0  0999 V2000
   -2.6371   -2.5063    0.6274 C   0  0  0  0  0  0  0  0  0  0  0  0
   -2.1761   -1.6287   -0.5281 C   0  0  0  0  0  0  0  0  0  0  0  0
   -1.7781   -0.3038   -0.0589 N   0  0  0  0  0  0  0  0  0  0  0  0
   -0.4804    0.1886    0.2482 C   0  0  0  0  0  0  0  0  0  0  0  0
    0.7026   -0.4650    0.3839 C   0  0  0  0  0  0  0  0  0  0  0  0
    0.9251   -2.1938    0.2550 S   0  0  0  0  0  0  0  0  0  0  0  0
    2.6493   -2.1534    0.5504 C   0  0  0  0  0  0  0  0  0  0  0  0
    3.5982   -3.5215    0.6382 S   0  0  0  0  0  0  0  0  0  0  0  0
    3.0196   -0.8440    0.7236 N   0  0  0  0  0  0  0  0  0  0  0  0
    4.3627   -0.4526    0.9197 N   0  0  0  0  0  0  0  0  0  0  0  0
    5.0771   -0.1753   -0.2334 C   0  0  0  0  0  0  0  0  0  0  0  0
    6.3766    0.5401    0.0165 C   0  0  0  0  0  0  0  0  0  0  0  0
    4.6962   -0.4707   -1.3627 O   0  0  0  0  0  0  0  0  0  0  0  0
    2.0468    0.1433    0.7046 C   0  0  0  0  0  0  0  0  0  0  0  0
    2.2930    1.3141    0.9647 O   0  0  0  0  0  0  0  0  0  0  0  0
   -0.5078    1.9791    0.5176 S   0  0  0  0  0  0  0  0  0  0  0  0
   -2.2677    1.9887    0.2955 C   0  0  0  0  0  0  0  0  0  0  0  0
   -3.0857    3.1078    0.3941 C   0  0  0  0  0  0  0  0  0  0  0  0
   -4.4549    2.9527    0.1946 C   0  0  0  0  0  0  0  0  0  0  0  0
   -4.9805    1.6903   -0.0957 C   0  0  0  0  0  0  0  0  0  0  0  0
   -4.1426    0.5709   -0.1928 C   0  0  0  0  0  0  0  0  0  0  0  0
   -2.7686    0.7094   -0.0019 C   0  0  0  0  0  0  0  0  0  0  0  0
   -1.8697   -2.5970    1.4016 H   0  0  0  0  0  0  0  0  0  0  0  0
   -2.8778   -3.5108    0.2654 H   0  0  0  0  0  0  0  0  0  0  0  0
   -3.5335   -2.0981    1.1048 H   0  0  0  0  0  0  0  0  0  0  0  0
   -1.3679   -2.1140   -1.0800 H   0  0  0  0  0  0  0  0  0  0  0  0
   -2.9752   -1.5638   -1.2769 H   0  0  0  0  0  0  0  0  0  0  0  0
    4.4886    0.1843    1.7023 H   0  0  0  0  0  0  0  0  0  0  0  0
    7.1696    0.0518   -0.5564 H   0  0  0  0  0  0  0  0  0  0  0  0
    6.6525    0.5137    1.0745 H   0  0  0  0  0  0  0  0  0  0  0  0
    6.2783    1.5816   -0.3004 H   0  0  0  0  0  0  0  0  0  0  0  0
   -2.6678    4.0832    0.6222 H   0  0  0  0  0  0  0  0  0  0  0  0
   -5.1155    3.8132    0.2669 H   0  0  0  0  0  0  0  0  0  0  0  0
   -6.0518    1.5753   -0.2456 H   0  0  0  0  0  0  0  0  0  0  0  0
   -4.5975   -0.3893   -0.4084 H   0  0  0  0  0  0  0  0  0  0  0  0
  1  2  1  0
  2  3  1  0
  3  4  1  0
  4  5  2  3
  5  6  1  0
  6  7  1  0
  7  8  2  0
  7  9  1  0
  9 10  1  0
 10 11  1  0
 11 12  1  0
 11 13  2  0
  9 14  1  0
 14 15  2  0
  4 16  1  0
 16 17  1  0
 17 18  2  0
 18 19  1  0
 19 20  2  0
 20 21  1  0
 21 22  2  0
 22  3  1  0
 14  5  1  0
 22 17  1  0
  1 23  1  0
  1 24  1  0
  1 25  1  0
  2 26  1  0
  2 27  1  0
 10 28  1  0
 12 29  1  0
 12 30  1  0
 12 31  1  0
 18 32  1  0
 19 33  1  0
 20 34  1  0
 21 35  1  0
M  END
$$$$
