
     RDKit          3D

 44 46  0  0  0  0  0  0  0  0999 V2000
    2.5244   -3.6248    0.0816 O   0  0  0  0  0  0  0  0  0  0  0  0
    1.7839   -3.0962    0.9121 C   0  0  0  0  0  0  0  0  0  0  0  0
    0.7249   -3.8728    1.6902 C   0  0  0  0  0  0  0  0  0  0  0  0
   -0.5655   -3.8386    1.0793 O   0  0  0  0  0  0  0  0  0  0  0  0
   -1.2662   -2.6891    1.2879 C   0  0  0  0  0  0  0  0  0  0  0  0
   -0.8578   -1.7501    1.9599 O   0  0  0  0  0  0  0  0  0  0  0  0
   -2.6346   -2.7835    0.6324 C   0  0  0  0  0  0  0  0  0  0  0  0
   -3.2064   -1.4540    0.4716 N   0  0  0  0  0  0  0  0  0  0  0  0
   -4.0296   -0.9302    1.4381 C   0  0  0  0  0  0  0  0  0  0  0  0
   -4.5779    0.2364    1.3881 N   0  0  0  0  0  0  0  0  0  0  0  0
   -4.2982    1.0396    0.2722 C   0  0  0  0  0  0  0  0  0  0  0  0
   -4.8886    2.3021    0.1840 C   0  0  0  0  0  0  0  0  0  0  0  0
   -4.6326    3.1326   -0.9115 C   0  0  0  0  0  0  0  0  0  0  0  0
   -3.7805    2.7057   -1.9312 C   0  0  0  0  0  0  0  0  0  0  0  0
   -3.1838    1.4481   -1.8562 C   0  0  0  0  0  0  0  0  0  0  0  0
   -3.4481    0.6252   -0.7551 C   0  0  0  0  0  0  0  0  0  0  0  0
   -2.8426   -0.7152   -0.6445 C   0  0  0  0  0  0  0  0  0  0  0  0
   -2.0673   -1.1267   -1.5032 O   0  0  0  0  0  0  0  0  0  0  0  0
    1.8574   -1.7557    1.2340 N   0  0  0  0  0  0  0  0  0  0  0  0
    2.6834   -0.9493    0.4407 N   0  0  0  0  0  0  0  0  0  0  0  0
    2.7253    0.4062    0.6920 C   0  0  0  0  0  0  0  0  0  0  0  0
    2.0342    0.9482    1.5508 O   0  0  0  0  0  0  0  0  0  0  0  0
    3.6887    1.2063   -0.1183 C   0  0  0  0  0  0  0  0  0  0  0  0
    4.1169    2.4392    0.3959 C   0  0  0  0  0  0  0  0  0  0  0  0
    5.0243    3.2267   -0.3179 C   0  0  0  0  0  0  0  0  0  0  0  0
    5.4948    2.7886   -1.5540 C   0  0  0  0  0  0  0  0  0  0  0  0
    6.7167    3.8557   -2.5271 Br  0  0  0  0  0  0  0  0  0  0  0  0
    5.0638    1.5732   -2.0861 C   0  0  0  0  0  0  0  0  0  0  0  0
    4.1591    0.7811   -1.3704 C   0  0  0  0  0  0  0  0  0  0  0  0
    1.0396   -4.9208    1.7385 H   0  0  0  0  0  0  0  0  0  0  0  0
    0.6816   -3.5198    2.7290 H   0  0  0  0  0  0  0  0  0  0  0  0
   -3.2803   -3.3965    1.2693 H   0  0  0  0  0  0  0  0  0  0  0  0
   -2.5310   -3.2543   -0.3511 H   0  0  0  0  0  0  0  0  0  0  0  0
   -4.2143   -1.5911    2.3003 H   0  0  0  0  0  0  0  0  0  0  0  0
   -5.5518    2.6403    0.9781 H   0  0  0  0  0  0  0  0  0  0  0  0
   -5.0991    4.1137   -0.9649 H   0  0  0  0  0  0  0  0  0  0  0  0
   -3.5813    3.3512   -2.7825 H   0  0  0  0  0  0  0  0  0  0  0  0
   -2.5202    1.1082   -2.6483 H   0  0  0  0  0  0  0  0  0  0  0  0
    1.0758   -1.2789    1.7006 H   0  0  0  0  0  0  0  0  0  0  0  0
    3.3339   -1.4406   -0.1656 H   0  0  0  0  0  0  0  0  0  0  0  0
    3.7442    2.7907    1.3581 H   0  0  0  0  0  0  0  0  0  0  0  0
    5.3498    4.1767    0.0953 H   0  0  0  0  0  0  0  0  0  0  0  0
    5.4184    1.2380   -3.0581 H   0  0  0  0  0  0  0  0  0  0  0  0
    3.8167   -0.1453   -1.8206 H   0  0  0  0  0  0  0  0  0  0  0  0
  1  2  2  0
  2  3  1  0
  3  4  1  0
  4  5  1  0
  5  6  2  0
  5  7  1  0
  7  8  1  0
  8  9  1  0
  9 10  2  0
 10 11  1  0
 11 12  2  0
 12 13  1  0
 13 14  2  0
 14 15  1  0
 15 16  2  0
 16 17  1  0
 17 18  2  0
  2 19  1  0
 19 20  1  0
 20 21  1  0
 21 22  2  0
 21 23  1  0
 23 24  2  0
 24 25  1  0
 25 26  2  0
 26 27  1  0
 26 28  1  0
 28 29  2  0
 17  8  1  0
 29 23  1  0
 16 11  1  0
  3 30  1  0
  3 31  1  0
  7 32  1  0
  7 33  1  0
  9 34  1  0
 12 35  1  0
 13 36  1  0
 14 37  1  0
 15 38  1  0
 19 39  1  0
 20 40  1  0
 24 41  1  0
 25 42  1  0
 28 43  1  0
 29 44  1  0
M  END
$$$$
