
     RDKit          3D

 52 56  0  0  0  0  0  0  0  0999 V2000
   -6.0576    2.4300    2.3077 C   0  0  0  0  0  0  0  0  0  0  0  0
   -5.0213    1.4692    1.8055 C   0  0  0  0  0  0  0  0  0  0  0  0
   -4.4189    0.5557    2.6748 C   0  0  0  0  0  0  0  0  0  0  0  0
   -3.4287   -0.3156    2.2105 C   0  0  0  0  0  0  0  0  0  0  0  0
   -3.0045   -0.2828    0.8748 C   0  0  0  0  0  0  0  0  0  0  0  0
   -2.0224   -1.2232    0.4608 N   0  0  0  0  0  0  0  0  0  0  0  0
   -1.6062   -1.3877   -0.8296 C   0  0  0  0  0  0  0  0  0  0  0  0
   -0.3721   -1.2282   -1.4398 C   0  0  0  0  0  0  0  0  0  0  0  0
    0.8470   -0.7386   -0.8200 C   0  0  0  0  0  0  0  0  0  0  0  0
    0.8407    0.3140    0.0975 C   0  0  0  0  0  0  0  0  0  0  0  0
    2.0375    0.7555    0.6760 C   0  0  0  0  0  0  0  0  0  0  0  0
    3.2746    0.1722    0.3560 C   0  0  0  0  0  0  0  0  0  0  0  0
    4.4373    0.6613    0.9662 N   0  0  0  0  0  0  0  0  0  0  0  0
    4.7243    2.0732    0.6014 C   0  0  0  0  0  0  0  0  0  0  0  0
    6.1731    2.4424    0.9585 C   0  0  0  0  0  0  0  0  0  0  0  0
    7.1506    1.6367    0.2802 O   0  0  0  0  0  0  0  0  0  0  0  0
    6.7061    0.2904    0.0390 C   0  0  0  0  0  0  0  0  0  0  0  0
    5.6443   -0.1897    1.0386 C   0  0  0  0  0  0  0  0  0  0  0  0
    3.2657   -0.8699   -0.5792 C   0  0  0  0  0  0  0  0  0  0  0  0
    2.0721   -1.3156   -1.1642 C   0  0  0  0  0  0  0  0  0  0  0  0
   -0.4160   -1.6143   -2.7593 N   0  0  0  0  0  0  0  0  0  0  0  0
   -1.6506   -2.0104   -2.9843 C   0  0  0  0  0  0  0  0  0  0  0  0
   -2.1905   -2.4863   -4.1468 N   0  0  0  0  0  0  0  0  0  0  0  0
   -3.4278   -2.8708   -4.0873 C   0  0  0  0  0  0  0  0  0  0  0  0
   -4.3090   -2.8443   -2.8883 C   0  0  0  0  0  0  0  0  0  0  0  0
   -3.7394   -2.3532   -1.7804 C   0  0  0  0  0  0  0  0  0  0  0  0
   -2.4165   -1.9181   -1.8208 N   0  0  0  0  0  0  0  0  0  0  0  0
   -3.6115    0.6363    0.0107 C   0  0  0  0  0  0  0  0  0  0  0  0
   -4.6012    1.5108    0.4728 C   0  0  0  0  0  0  0  0  0  0  0  0
   -5.5771    3.3464    2.6635 H   0  0  0  0  0  0  0  0  0  0  0  0
   -6.7683    2.6872    1.5152 H   0  0  0  0  0  0  0  0  0  0  0  0
   -6.6330    1.9898    3.1290 H   0  0  0  0  0  0  0  0  0  0  0  0
   -4.7184    0.5109    3.7195 H   0  0  0  0  0  0  0  0  0  0  0  0
   -2.9928   -1.0309    2.9039 H   0  0  0  0  0  0  0  0  0  0  0  0
   -1.2835   -1.2421    1.1672 H   0  0  0  0  0  0  0  0  0  0  0  0
   -0.0846    0.8183    0.3634 H   0  0  0  0  0  0  0  0  0  0  0  0
    1.9951    1.5632    1.4028 H   0  0  0  0  0  0  0  0  0  0  0  0
    4.5857    2.2145   -0.4789 H   0  0  0  0  0  0  0  0  0  0  0  0
    4.0431    2.7462    1.1337 H   0  0  0  0  0  0  0  0  0  0  0  0
    6.3709    3.4864    0.6951 H   0  0  0  0  0  0  0  0  0  0  0  0
    6.3429    2.3407    2.0369 H   0  0  0  0  0  0  0  0  0  0  0  0
    7.5884   -0.3557    0.0868 H   0  0  0  0  0  0  0  0  0  0  0  0
    6.3217    0.2471   -0.9864 H   0  0  0  0  0  0  0  0  0  0  0  0
    6.0462   -0.0932    2.0551 H   0  0  0  0  0  0  0  0  0  0  0  0
    5.4250   -1.2539    0.9035 H   0  0  0  0  0  0  0  0  0  0  0  0
    4.1864   -1.3436   -0.9039 H   0  0  0  0  0  0  0  0  0  0  0  0
    2.1063   -2.1177   -1.8998 H   0  0  0  0  0  0  0  0  0  0  0  0
   -3.9025   -3.2628   -5.0024 H   0  0  0  0  0  0  0  0  0  0  0  0
   -5.3243   -3.2066   -2.9522 H   0  0  0  0  0  0  0  0  0  0  0  0
   -4.2592   -2.2796   -0.8337 H   0  0  0  0  0  0  0  0  0  0  0  0
   -3.3080    0.7093   -1.0300 H   0  0  0  0  0  0  0  0  0  0  0  0
   -5.0391    2.2269   -0.2193 H   0  0  0  0  0  0  0  0  0  0  0  0
  1  2  1  0
  2  3  2  0
  3  4  1  0
  4  5  2  0
  5  6  1  0
  6  7  1  0
  7  8  2  0
  8  9  1  0
  9 10  2  0
 10 11  1  0
 11 12  2  0
 12 13  1  0
 13 14  1  0
 14 15  1  0
 15 16  1  0
 16 17  1  0
 17 18  1  0
 12 19  1  0
 19 20  2  0
  8 21  1  0
 21 22  2  0
 22 23  1  0
 23 24  2  0
 24 25  1  0
 25 26  2  0
 26 27  1  0
  5 28  1  0
 28 29  2  0
 29  2  1  0
 27  7  1  0
 20  9  1  0
 27 22  1  0
 18 13  1  0
  1 30  1  0
  1 31  1  0
  1 32  1  0
  3 33  1  0
  4 34  1  0
  6 35  1  0
 10 36  1  0
 11 37  1  0
 14 38  1  0
 14 39  1  0
 15 40  1  0
 15 41  1  0
 17 42  1  0
 17 43  1  0
 18 44  1  0
 18 45  1  0
 19 46  1  0
 20 47  1  0
 24 48  1  0
 25 49  1  0
 26 50  1  0
 28 51  1  0
 29 52  1  0
M  END
$$$$
