
     RDKit          3D

 57 59  0  0  0  0  0  0  0  0999 V2000
    0.9112    4.7386    0.8963 C   0  0  0  0  0  0  0  0  0  0  0  0
    0.7770    3.3362    0.6973 O   0  0  0  0  0  0  0  0  0  0  0  0
   -0.4476    2.7773    0.9861 C   0  0  0  0  0  0  0  0  0  0  0  0
   -1.5872    3.5000    1.3558 C   0  0  0  0  0  0  0  0  0  0  0  0
   -2.7850    2.8322    1.6156 C   0  0  0  0  0  0  0  0  0  0  0  0
   -2.8357    1.4418    1.5051 C   0  0  0  0  0  0  0  0  0  0  0  0
   -4.3603    0.5841    1.8100 S   0  0  0  0  0  6  0  0  0  0  0  0
   -5.4303    1.5606    1.8459 O   0  0  0  0  0  0  0  0  0  0  0  0
   -4.1297   -0.3184    2.9168 O   0  0  0  0  0  0  0  0  0  0  0  0
   -4.5673   -0.3307    0.3869 N   0  0  0  0  0  0  0  0  0  0  0  0
   -4.7680    0.4328   -0.8745 C   0  0  0  0  0  0  0  0  0  0  0  0
   -6.1757    0.2456   -1.4227 C   0  0  0  0  0  0  0  0  0  0  0  0
   -6.4737   -1.2221   -1.7233 C   0  0  0  0  0  0  0  0  0  0  0  0
   -5.7207   -2.1713   -0.7925 C   0  0  0  0  0  0  0  0  0  0  0  0
   -5.4400   -1.5219    0.5571 C   0  0  0  0  0  0  0  0  0  0  0  0
   -1.7060    0.7038    1.1382 C   0  0  0  0  0  0  0  0  0  0  0  0
   -0.5085    1.3680    0.8749 C   0  0  0  0  0  0  0  0  0  0  0  0
    0.6819    0.7102    0.4911 N   0  0  0  0  0  0  0  0  0  0  0  0
    0.8974   -0.6425    0.3352 C   0  0  0  0  0  0  0  0  0  0  0  0
    0.0890   -1.5423    0.5289 O   0  0  0  0  0  0  0  0  0  0  0  0
    2.2786   -1.0100   -0.0834 C   0  0  0  0  0  0  0  0  0  0  0  0
    2.8448   -2.1778    0.4385 C   0  0  0  0  0  0  0  0  0  0  0  0
    4.1427   -2.5497    0.0812 C   0  0  0  0  0  0  0  0  0  0  0  0
    4.8858   -1.7670   -0.8143 C   0  0  0  0  0  0  0  0  0  0  0  0
    6.2874   -2.1683   -1.1930 C   0  0  0  0  0  0  0  0  0  0  0  0
    7.4645   -1.2106   -0.2413 S   0  0  0  0  0  6  0  0  0  0  0  0
    9.0136   -1.9115   -0.7516 C   0  0  0  0  0  0  0  0  0  0  0  0
    7.3076   -1.5209    1.1674 O   0  0  0  0  0  0  0  0  0  0  0  0
    7.4460    0.1617   -0.7152 O   0  0  0  0  0  0  0  0  0  0  0  0
    4.3036   -0.6078   -1.3495 C   0  0  0  0  0  0  0  0  0  0  0  0
    3.0070   -0.2303   -0.9893 C   0  0  0  0  0  0  0  0  0  0  0  0
    1.9454    5.0106    0.6645 H   0  0  0  0  0  0  0  0  0  0  0  0
    0.2604    5.2970    0.2153 H   0  0  0  0  0  0  0  0  0  0  0  0
    0.7209    5.0100    1.9398 H   0  0  0  0  0  0  0  0  0  0  0  0
   -1.5786    4.5811    1.4476 H   0  0  0  0  0  0  0  0  0  0  0  0
   -3.6683    3.3988    1.9030 H   0  0  0  0  0  0  0  0  0  0  0  0
   -4.0246    0.0837   -1.6013 H   0  0  0  0  0  0  0  0  0  0  0  0
   -4.5783    1.5011   -0.7293 H   0  0  0  0  0  0  0  0  0  0  0  0
   -6.9029    0.6185   -0.6899 H   0  0  0  0  0  0  0  0  0  0  0  0
   -6.3125    0.8418   -2.3317 H   0  0  0  0  0  0  0  0  0  0  0  0
   -6.2065   -1.4550   -2.7617 H   0  0  0  0  0  0  0  0  0  0  0  0
   -7.5541   -1.3898   -1.6374 H   0  0  0  0  0  0  0  0  0  0  0  0
   -4.7705   -2.4569   -1.2627 H   0  0  0  0  0  0  0  0  0  0  0  0
   -6.2962   -3.0947   -0.6605 H   0  0  0  0  0  0  0  0  0  0  0  0
   -6.3814   -1.2392    1.0434 H   0  0  0  0  0  0  0  0  0  0  0  0
   -4.9250   -2.2482    1.1959 H   0  0  0  0  0  0  0  0  0  0  0  0
   -1.7874   -0.3768    1.0675 H   0  0  0  0  0  0  0  0  0  0  0  0
    1.4708    1.3409    0.3865 H   0  0  0  0  0  0  0  0  0  0  0  0
    2.2788   -2.7937    1.1359 H   0  0  0  0  0  0  0  0  0  0  0  0
    4.5671   -3.4516    0.5181 H   0  0  0  0  0  0  0  0  0  0  0  0
    6.4738   -1.9814   -2.2547 H   0  0  0  0  0  0  0  0  0  0  0  0
    6.4673   -3.2270   -0.9847 H   0  0  0  0  0  0  0  0  0  0  0  0
    9.1164   -1.7932   -1.8310 H   0  0  0  0  0  0  0  0  0  0  0  0
    9.0318   -2.9672   -0.4737 H   0  0  0  0  0  0  0  0  0  0  0  0
    9.8160   -1.3772   -0.2374 H   0  0  0  0  0  0  0  0  0  0  0  0
    4.8597    0.0180   -2.0467 H   0  0  0  0  0  0  0  0  0  0  0  0
    2.5754    0.6610   -1.4376 H   0  0  0  0  0  0  0  0  0  0  0  0
  1  2  1  0
  2  3  1  0
  3  4  2  0
  4  5  1  0
  5  6  2  0
  6  7  1  0
  7  8  2  0
  7  9  2  0
  7 10  1  0
 10 11  1  0
 11 12  1  0
 12 13  1  0
 13 14  1  0
 14 15  1  0
  6 16  1  0
 16 17  2  0
 17 18  1  0
 18 19  1  0
 19 20  2  0
 19 21  1  0
 21 22  2  0
 22 23  1  0
 23 24  2  0
 24 25  1  0
 25 26  1  0
 26 27  1  0
 26 28  2  0
 26 29  2  0
 24 30  1  0
 30 31  2  0
 17  3  1  0
 31 21  1  0
 15 10  1  0
  1 32  1  0
  1 33  1  0
  1 34  1  0
  4 35  1  0
  5 36  1  0
 11 37  1  0
 11 38  1  0
 12 39  1  0
 12 40  1  0
 13 41  1  0
 13 42  1  0
 14 43  1  0
 14 44  1  0
 15 45  1  0
 15 46  1  0
 16 47  1  0
 18 48  1  0
 22 49  1  0
 23 50  1  0
 25 51  1  0
 25 52  1  0
 27 53  1  0
 27 54  1  0
 27 55  1  0
 30 56  1  0
 31 57  1  0
M  END
$$$$
