
     RDKit          3D

 52 55  0  0  0  0  0  0  0  0999 V2000
    7.6138    0.1852    2.4390 C   0  0  0  0  0  0  0  0  0  0  0  0
    7.1324   -0.9092    1.5066 C   0  0  0  0  0  0  0  0  0  0  0  0
    5.7478   -0.6749    1.2246 O   0  0  0  0  0  0  0  0  0  0  0  0
    5.1806   -1.5846    0.3798 C   0  0  0  0  0  0  0  0  0  0  0  0
    5.7914   -2.5329   -0.1004 O   0  0  0  0  0  0  0  0  0  0  0  0
    3.7717   -1.2735    0.1739 C   0  0  0  0  0  0  0  0  0  0  0  0
    2.7806   -2.5271   -0.4569 S   0  0  0  0  0  0  0  0  0  0  0  0
    1.3779   -1.5794   -0.3632 C   0  0  0  0  0  0  0  0  0  0  0  0
    0.1802   -2.0792   -0.7367 N   0  0  0  0  0  0  0  0  0  0  0  0
   -0.8361   -1.2728   -0.6340 C   0  0  0  0  0  0  0  0  0  0  0  0
   -2.2221   -1.7276   -1.0421 C   0  0  0  0  0  0  0  0  0  0  0  0
   -2.4690   -3.3416   -1.6222 S   0  0  0  0  0  0  0  0  0  0  0  0
   -1.4624   -3.3247   -3.1377 C   0  0  0  0  0  0  0  0  0  0  0  0
   -1.8133   -4.4774   -4.0510 C   0  0  0  0  0  0  0  0  0  0  0  0
   -2.6831   -5.3223   -3.9247 O   0  0  0  0  0  0  0  0  0  0  0  0
   -1.0216   -4.4975   -5.1482 O   0  0  0  0  0  0  0  0  0  0  0  0
   -3.2599   -0.8905   -0.9090 C   0  0  0  0  0  0  0  0  0  0  0  0
   -3.0875    0.4438   -0.3913 C   0  0  0  0  0  0  0  0  0  0  0  0
   -4.2607    1.3624   -0.3141 C   0  0  0  0  0  0  0  0  0  0  0  0
   -5.0388    1.4520   -1.2634 O   0  0  0  0  0  0  0  0  0  0  0  0
   -4.4923    2.1956    0.8948 C   0  0  0  0  0  0  0  0  0  0  0  0
   -4.0267    1.8055    2.1594 C   0  0  0  0  0  0  0  0  0  0  0  0
   -4.2510    2.6210    3.2722 C   0  0  0  0  0  0  0  0  0  0  0  0
   -4.9488    3.8203    3.1331 C   0  0  0  0  0  0  0  0  0  0  0  0
   -5.4382    4.2021    1.8849 C   0  0  0  0  0  0  0  0  0  0  0  0
   -5.2223    3.3877    0.7757 C   0  0  0  0  0  0  0  0  0  0  0  0
   -5.7586    3.8215   -0.4076 O   0  0  0  0  0  0  0  0  0  0  0  0
   -1.8600    0.8699   -0.0625 C   0  0  0  0  0  0  0  0  0  0  0  0
   -0.7344    0.0502   -0.1570 N   0  0  0  0  0  0  0  0  0  0  0  0
    0.5034    0.5840    0.2546 C   0  0  0  0  0  0  0  0  0  0  0  0
    0.6303    1.7166    0.7175 O   0  0  0  0  0  0  0  0  0  0  0  0
    1.6361   -0.3187    0.1123 C   0  0  0  0  0  0  0  0  0  0  0  0
    3.0402   -0.1049    0.3939 C   0  0  0  0  0  0  0  0  0  0  0  0
    3.6139    1.1978    0.8666 C   0  0  0  0  0  0  0  0  0  0  0  0
    7.4798    1.1699    1.9790 H   0  0  0  0  0  0  0  0  0  0  0  0
    8.6707    0.0510    2.6856 H   0  0  0  0  0  0  0  0  0  0  0  0
    7.0312    0.1854    3.3662 H   0  0  0  0  0  0  0  0  0  0  0  0
    7.7101   -0.8821    0.5759 H   0  0  0  0  0  0  0  0  0  0  0  0
    7.2516   -1.8856    1.9892 H   0  0  0  0  0  0  0  0  0  0  0  0
   -0.4048   -3.4125   -2.8772 H   0  0  0  0  0  0  0  0  0  0  0  0
   -1.6392   -2.3932   -3.6844 H   0  0  0  0  0  0  0  0  0  0  0  0
   -1.3378   -5.2803   -5.6479 H   0  0  0  0  0  0  0  0  0  0  0  0
   -4.2681   -1.1913   -1.1873 H   0  0  0  0  0  0  0  0  0  0  0  0
   -3.5009    0.8663    2.3085 H   0  0  0  0  0  0  0  0  0  0  0  0
   -3.8860    2.3192    4.2517 H   0  0  0  0  0  0  0  0  0  0  0  0
   -5.1228    4.4543    3.9995 H   0  0  0  0  0  0  0  0  0  0  0  0
   -5.9960    5.1289    1.7762 H   0  0  0  0  0  0  0  0  0  0  0  0
   -5.7173    3.0805   -1.0525 H   0  0  0  0  0  0  0  0  0  0  0  0
   -1.6855    1.8860    0.2879 H   0  0  0  0  0  0  0  0  0  0  0  0
    3.0095    2.0504    0.5477 H   0  0  0  0  0  0  0  0  0  0  0  0
    3.6817    1.2077    1.9588 H   0  0  0  0  0  0  0  0  0  0  0  0
    4.6101    1.3683    0.4465 H   0  0  0  0  0  0  0  0  0  0  0  0
  1  2  1  0
  2  3  1  0
  3  4  1  0
  4  5  2  0
  4  6  1  0
  6  7  1  0
  7  8  1  0
  8  9  1  0
  9 10  2  0
 10 11  1  0
 11 12  1  0
 12 13  1  0
 13 14  1  0
 14 15  2  0
 14 16  1  0
 11 17  2  0
 17 18  1  0
 18 19  1  0
 19 20  2  0
 19 21  1  0
 21 22  2  0
 22 23  1  0
 23 24  2  0
 24 25  1  0
 25 26  2  0
 26 27  1  0
 18 28  2  0
 28 29  1  0
 29 30  1  0
 30 31  2  0
 30 32  1  0
 32 33  1  0
 33 34  1  0
 33  6  2  0
 32  8  2  0
 29 10  1  0
 26 21  1  0
  1 35  1  0
  1 36  1  0
  1 37  1  0
  2 38  1  0
  2 39  1  0
 13 40  1  0
 13 41  1  0
 16 42  1  0
 17 43  1  0
 22 44  1  0
 23 45  1  0
 24 46  1  0
 25 47  1  0
 27 48  1  0
 28 49  1  0
 34 50  1  0
 34 51  1  0
 34 52  1  0
M  END
$$$$
