
     RDKit          3D

 51 54  0  0  0  0  0  0  0  0999 V2000
   -5.8442   -1.4917   -2.3581 C   0  0  0  0  0  0  0  0  0  0  0  0
   -5.8435   -1.5951   -0.8295 C   0  0  0  0  0  0  0  0  0  0  0  0
   -5.8093   -3.0488   -0.3627 C   0  0  0  0  0  0  0  0  0  0  0  0
   -4.7666   -0.8177   -0.2070 N   0  0  0  0  0  0  0  0  0  0  0  0
   -3.4448   -0.8913   -0.5663 C   0  0  0  0  0  0  0  0  0  0  0  0
   -2.7109   -0.0497    0.2471 C   0  0  0  0  0  0  0  0  0  0  0  0
   -1.2717    0.1074    0.1314 C   0  0  0  0  0  0  0  0  0  0  0  0
   -0.6387    0.8935    0.9577 N   0  0  0  0  0  0  0  0  0  0  0  0
    0.7259    1.0064    0.8630 N   0  0  0  0  0  0  0  0  0  0  0  0
    1.6063    0.0122    0.4268 C   0  0  0  0  0  0  0  0  0  0  0  0
    1.2760   -1.0604   -0.0723 O   0  0  0  0  0  0  0  0  0  0  0  0
    3.0702    0.4339    0.5972 C   0  0  0  0  0  0  0  0  0  0  0  0
    3.9231   -0.7063    0.5082 O   0  0  0  0  0  0  0  0  0  0  0  0
    5.0408   -0.5401   -0.2682 C   0  0  0  0  0  0  0  0  0  0  0  0
    5.3256   -1.6467   -1.0856 C   0  0  0  0  0  0  0  0  0  0  0  0
    6.4367   -1.6344   -1.9188 C   0  0  0  0  0  0  0  0  0  0  0  0
    7.2704   -0.5157   -1.9251 C   0  0  0  0  0  0  0  0  0  0  0  0
    7.0090    0.5834   -1.0818 C   0  0  0  0  0  0  0  0  0  0  0  0
    7.8716    1.6885   -1.0644 C   0  0  0  0  0  0  0  0  0  0  0  0
    7.6247    2.7611   -0.2151 C   0  0  0  0  0  0  0  0  0  0  0  0
    6.5113    2.6934    0.5919 C   0  0  0  0  0  0  0  0  0  0  0  0
    5.6457    1.6467    0.5999 N   0  0  0  0  0  0  0  0  0  0  0  0
    5.8819    0.5928   -0.2258 C   0  0  0  0  0  0  0  0  0  0  0  0
   -3.6397    0.5607    1.1495 C   0  0  0  0  0  0  0  0  0  0  0  0
   -3.5116    1.4893    2.2075 C   0  0  0  0  0  0  0  0  0  0  0  0
   -4.6419    1.9058    2.9171 C   0  0  0  0  0  0  0  0  0  0  0  0
   -5.8954    1.4085    2.5931 C   0  0  0  0  0  0  0  0  0  0  0  0
   -6.0534    0.4835    1.5571 C   0  0  0  0  0  0  0  0  0  0  0  0
   -4.9144    0.0702    0.8439 C   0  0  0  0  0  0  0  0  0  0  0  0
   -4.9502   -1.9422   -2.8050 H   0  0  0  0  0  0  0  0  0  0  0  0
   -6.7217   -1.9996   -2.7805 H   0  0  0  0  0  0  0  0  0  0  0  0
   -5.8800   -0.4414   -2.6797 H   0  0  0  0  0  0  0  0  0  0  0  0
   -6.7897   -1.1572   -0.4936 H   0  0  0  0  0  0  0  0  0  0  0  0
   -5.9202   -3.1084    0.7297 H   0  0  0  0  0  0  0  0  0  0  0  0
   -6.6306   -3.6208   -0.8145 H   0  0  0  0  0  0  0  0  0  0  0  0
   -4.8652   -3.5397   -0.6251 H   0  0  0  0  0  0  0  0  0  0  0  0
   -3.1182   -1.5444   -1.3656 H   0  0  0  0  0  0  0  0  0  0  0  0
   -0.7981   -0.4407   -0.7021 H   0  0  0  0  0  0  0  0  0  0  0  0
    1.1034    1.7078    1.5000 H   0  0  0  0  0  0  0  0  0  0  0  0
    3.2000    0.8770    1.5946 H   0  0  0  0  0  0  0  0  0  0  0  0
    3.2628    1.1903   -0.1825 H   0  0  0  0  0  0  0  0  0  0  0  0
    4.6630   -2.5161   -1.0689 H   0  0  0  0  0  0  0  0  0  0  0  0
    6.6455   -2.4855   -2.5625 H   0  0  0  0  0  0  0  0  0  0  0  0
    8.1386   -0.5157   -2.5804 H   0  0  0  0  0  0  0  0  0  0  0  0
    8.7535    1.7170   -1.7091 H   0  0  0  0  0  0  0  0  0  0  0  0
    8.2828    3.6258   -0.1859 H   0  0  0  0  0  0  0  0  0  0  0  0
    6.2694    3.5029    1.2801 H   0  0  0  0  0  0  0  0  0  0  0  0
   -2.5334    1.8819    2.4730 H   0  0  0  0  0  0  0  0  0  0  0  0
   -4.5342    2.6220    3.7276 H   0  0  0  0  0  0  0  0  0  0  0  0
   -6.7688    1.7411    3.1528 H   0  0  0  0  0  0  0  0  0  0  0  0
   -7.0417    0.1066    1.3221 H   0  0  0  0  0  0  0  0  0  0  0  0
  1  2  1  0
  2  3  1  0
  2  4  1  0
  4  5  1  0
  5  6  2  0
  6  7  1  0
  7  8  2  3
  8  9  1  0
  9 10  1  0
 10 11  2  0
 10 12  1  0
 12 13  1  0
 13 14  1  0
 14 15  2  0
 15 16  1  0
 16 17  2  0
 17 18  1  0
 18 19  2  0
 19 20  1  0
 20 21  2  0
 21 22  1  0
 22 23  2  0
  6 24  1  0
 24 25  2  0
 25 26  1  0
 26 27  2  0
 27 28  1  0
 28 29  2  0
 29  4  1  0
 23 14  1  0
 29 24  1  0
 23 18  1  0
  1 30  1  0
  1 31  1  0
  1 32  1  0
  2 33  1  0
  3 34  1  0
  3 35  1  0
  3 36  1  0
  5 37  1  0
  7 38  1  0
  9 39  1  0
 12 40  1  0
 12 41  1  0
 15 42  1  0
 16 43  1  0
 17 44  1  0
 19 45  1  0
 20 46  1  0
 21 47  1  0
 25 48  1  0
 26 49  1  0
 27 50  1  0
 28 51  1  0
M  END
$$$$
