
     RDKit          3D

 34 35  0  0  0  0  0  0  0  0999 V2000
   -1.3169    0.6304    1.5352 C   0  0  0  0  0  0  0  0  0  0  0  0
   -1.1831   -0.2139    0.3512 N   0  0  0  0  0  0  0  0  0  0  0  0
    0.0105   -0.3753   -0.3667 C   0  0  0  0  0  0  0  0  0  0  0  0
    0.0569   -1.1296   -1.3390 O   0  0  0  0  0  0  0  0  0  0  0  0
    1.2208    0.4171    0.1217 C   0  0  0  0  0  0  0  0  0  0  0  0
    2.6616    0.2298   -0.9676 S   0  0  0  0  0  0  0  0  0  0  0  0
    3.8314    1.2390   -0.0973 C   0  0  0  0  0  0  0  0  0  0  0  0
    3.4433    1.8732    1.0247 N   0  0  0  0  0  0  0  0  0  0  0  0
    4.3774    2.6240    1.6396 C   0  0  0  0  0  0  0  0  0  0  0  0
    5.6649    2.7631    1.1811 C   0  0  0  0  0  0  0  0  0  0  0  0
    5.9573    2.0760    0.0287 C   0  0  0  0  0  0  0  0  0  0  0  0
    5.0643    1.3124   -0.6258 N   0  0  0  0  0  0  0  0  0  0  0  0
   -2.4091   -0.9019   -0.0857 C   0  0  0  0  0  0  0  0  0  0  0  0
   -2.8940   -0.5092   -1.4912 C   0  0  0  0  0  0  0  0  0  0  0  0
   -4.1151   -1.3779   -1.7709 C   0  0  0  0  0  0  0  0  0  0  0  0
   -3.8167   -2.9256   -0.9261 S   0  0  0  0  0  6  0  0  0  0  0  0
   -3.4932   -3.9467   -1.8988 O   0  0  0  0  0  0  0  0  0  0  0  0
   -4.8649   -3.1070    0.0591 O   0  0  0  0  0  0  0  0  0  0  0  0
   -2.3332   -2.4292   -0.0700 C   0  0  0  0  0  0  0  0  0  0  0  0
   -1.7242    0.0246    2.3507 H   0  0  0  0  0  0  0  0  0  0  0  0
   -0.3739    1.0609    1.8706 H   0  0  0  0  0  0  0  0  0  0  0  0
   -2.0117    1.4429    1.3026 H   0  0  0  0  0  0  0  0  0  0  0  0
    1.4824    0.0542    1.1206 H   0  0  0  0  0  0  0  0  0  0  0  0
    0.9490    1.4769    0.1503 H   0  0  0  0  0  0  0  0  0  0  0  0
    4.0478    3.1279    2.5437 H   0  0  0  0  0  0  0  0  0  0  0  0
    6.3984    3.3712    1.6914 H   0  0  0  0  0  0  0  0  0  0  0  0
    6.9465    2.1180   -0.4182 H   0  0  0  0  0  0  0  0  0  0  0  0
   -3.2033   -0.6063    0.6159 H   0  0  0  0  0  0  0  0  0  0  0  0
   -2.1331   -0.7092   -2.2523 H   0  0  0  0  0  0  0  0  0  0  0  0
   -3.1402    0.5558   -1.5551 H   0  0  0  0  0  0  0  0  0  0  0  0
   -4.2598   -1.5603   -2.8378 H   0  0  0  0  0  0  0  0  0  0  0  0
   -5.0183   -0.9333   -1.3430 H   0  0  0  0  0  0  0  0  0  0  0  0
   -2.3391   -2.8370    0.9436 H   0  0  0  0  0  0  0  0  0  0  0  0
   -1.4828   -2.8351   -0.6211 H   0  0  0  0  0  0  0  0  0  0  0  0
  1  2  1  0
  2  3  1  0
  3  4  2  0
  3  5  1  0
  5  6  1  0
  6  7  1  0
  7  8  2  0
  8  9  1  0
  9 10  2  0
 10 11  1  0
 11 12  2  0
  2 13  1  0
 13 14  1  0
 14 15  1  0
 15 16  1  0
 16 17  2  0
 16 18  2  0
 16 19  1  0
 12  7  1  0
 19 13  1  0
  1 20  1  0
  1 21  1  0
  1 22  1  0
  5 23  1  0
  5 24  1  0
  9 25  1  0
 10 26  1  0
 11 27  1  0
 13 28  1  0
 14 29  1  0
 14 30  1  0
 15 31  1  0
 15 32  1  0
 19 33  1  0
 19 34  1  0
M  END
$$$$
