
     RDKit          3D

 40 44  0  0  0  0  0  0  0  0999 V2000
    6.2000    0.9459    0.5119 C   0  0  0  0  0  0  0  0  0  0  0  0
    5.7856   -0.3405    0.8476 C   0  0  0  0  0  0  0  0  0  0  0  0
    4.4559   -0.7217    0.6479 C   0  0  0  0  0  0  0  0  0  0  0  0
    3.5181    0.1758    0.1108 C   0  0  0  0  0  0  0  0  0  0  0  0
    2.1168   -0.2258   -0.0987 C   0  0  0  0  0  0  0  0  0  0  0  0
    1.8008   -1.3572   -0.8660 C   0  0  0  0  0  0  0  0  0  0  0  0
    0.4788   -1.7667   -1.0834 C   0  0  0  0  0  0  0  0  0  0  0  0
   -0.5437   -1.0022   -0.5106 C   0  0  0  0  0  0  0  0  0  0  0  0
   -0.2769    0.1379    0.2687 C   0  0  0  0  0  0  0  0  0  0  0  0
    1.0657    0.5189    0.4710 C   0  0  0  0  0  0  0  0  0  0  0  0
   -1.5296    0.6522    0.7141 C   0  0  0  0  0  0  0  0  0  0  0  0
   -2.4967   -0.1497    0.1658 C   0  0  0  0  0  0  0  0  0  0  0  0
   -1.9056   -1.1490   -0.5317 N   0  0  0  0  0  0  0  0  0  0  0  0
   -2.7351   -2.2090   -1.0614 C   0  0  0  0  0  0  0  0  0  0  0  0
   -4.1557   -1.6890   -1.3375 C   0  0  0  0  0  0  0  0  0  0  0  0
   -4.7344   -0.7939   -0.2970 N   0  0  0  0  0  0  0  0  0  0  0  0
   -3.9068   -0.0391    0.3460 C   0  0  0  0  0  0  0  0  0  0  0  0
   -4.3644    1.0546    1.2980 C   0  0  0  0  0  0  0  0  0  0  0  0
   -3.2588    1.4913    2.2859 C   0  0  0  0  0  0  0  0  0  0  0  0
   -1.8990    1.7861    1.6055 C   0  0  0  0  0  0  0  0  0  0  0  0
    3.9569    1.4687   -0.2201 C   0  0  0  0  0  0  0  0  0  0  0  0
    5.2864    1.8511   -0.0222 C   0  0  0  0  0  0  0  0  0  0  0  0
    7.2339    1.2428    0.6666 H   0  0  0  0  0  0  0  0  0  0  0  0
    6.4949   -1.0487    1.2677 H   0  0  0  0  0  0  0  0  0  0  0  0
    4.1494   -1.7277    0.9273 H   0  0  0  0  0  0  0  0  0  0  0  0
    2.6014   -1.9389   -1.3210 H   0  0  0  0  0  0  0  0  0  0  0  0
    0.2660   -2.6465   -1.6813 H   0  0  0  0  0  0  0  0  0  0  0  0
    1.2839    1.3895    1.0839 H   0  0  0  0  0  0  0  0  0  0  0  0
   -2.2783   -2.5982   -1.9760 H   0  0  0  0  0  0  0  0  0  0  0  0
   -2.7544   -2.9989   -0.3022 H   0  0  0  0  0  0  0  0  0  0  0  0
   -4.8273   -2.5453   -1.4644 H   0  0  0  0  0  0  0  0  0  0  0  0
   -4.1659   -1.1381   -2.2866 H   0  0  0  0  0  0  0  0  0  0  0  0
   -5.2450    0.7061    1.8483 H   0  0  0  0  0  0  0  0  0  0  0  0
   -4.6716    1.9124    0.6879 H   0  0  0  0  0  0  0  0  0  0  0  0
   -3.5902    2.3757    2.8417 H   0  0  0  0  0  0  0  0  0  0  0  0
   -3.1156    0.6877    3.0209 H   0  0  0  0  0  0  0  0  0  0  0  0
   -1.1323    1.9428    2.3718 H   0  0  0  0  0  0  0  0  0  0  0  0
   -1.9746    2.7047    1.0121 H   0  0  0  0  0  0  0  0  0  0  0  0
    3.2608    2.1871   -0.6487 H   0  0  0  0  0  0  0  0  0  0  0  0
    5.6066    2.8550   -0.2881 H   0  0  0  0  0  0  0  0  0  0  0  0
  1  2  2  0
  2  3  1  0
  3  4  2  0
  4  5  1  0
  5  6  2  0
  6  7  1  0
  7  8  2  0
  8  9  1  0
  9 10  2  0
  9 11  1  0
 11 12  2  0
 12 13  1  0
 13 14  1  0
 14 15  1  0
 15 16  1  0
 16 17  2  0
 17 18  1  0
 18 19  1  0
 19 20  1  0
  4 21  1  0
 21 22  2  0
 22  1  1  0
 10  5  1  0
 20 11  1  0
 13  8  1  0
 17 12  1  0
  1 23  1  0
  2 24  1  0
  3 25  1  0
  6 26  1  0
  7 27  1  0
 10 28  1  0
 14 29  1  0
 14 30  1  0
 15 31  1  0
 15 32  1  0
 18 33  1  0
 18 34  1  0
 19 35  1  0
 19 36  1  0
 20 37  1  0
 20 38  1  0
 21 39  1  0
 22 40  1  0
M  END
$$$$
