
     RDKit          3D

 49 51  0  0  0  0  0  0  0  0999 V2000
   -1.0948    2.3443    1.2376 O   0  0  0  0  0  0  0  0  0  0  0  0
   -0.7133    1.2390    0.8693 C   0  0  0  0  0  0  0  0  0  0  0  0
   -1.6418    0.2330    0.2095 C   0  0  0  0  0  0  0  0  0  0  0  0
   -3.0844    0.7425    0.1701 C   0  0  0  0  0  0  0  0  0  0  0  0
   -4.0299   -0.2694   -0.3356 N   0  0  0  0  0  0  0  0  0  0  0  0
   -5.4122    0.0969    0.0319 C   0  0  0  0  0  0  0  0  0  0  0  0
   -6.4903   -0.5411   -0.8557 C   0  0  0  0  0  0  0  0  0  0  0  0
   -6.0383   -1.8833   -1.4106 C   0  0  0  0  0  0  0  0  0  0  0  0
   -4.7185   -1.7483   -2.1719 C   0  0  0  0  0  0  0  0  0  0  0  0
   -3.9128   -0.5048   -1.7764 C   0  0  0  0  0  0  0  0  0  0  0  0
    0.5779    0.7521    0.9579 N   0  0  0  0  0  0  0  0  0  0  0  0
    1.7097    1.3485    1.5645 C   0  0  0  0  0  0  0  0  0  0  0  0
    1.6246    2.5379    2.2983 C   0  0  0  0  0  0  0  0  0  0  0  0
    2.7533    3.0770    2.9246 C   0  0  0  0  0  0  0  0  0  0  0  0
    3.9771    2.4240    2.8321 C   0  0  0  0  0  0  0  0  0  0  0  0
    5.4955    3.1450    3.6962 Br  0  0  0  0  0  0  0  0  0  0  0  0
    4.0938    1.2445    2.1022 C   0  0  0  0  0  0  0  0  0  0  0  0
    2.9707    0.7153    1.4448 C   0  0  0  0  0  0  0  0  0  0  0  0
    3.1173   -0.5265    0.6283 C   0  0  0  0  0  0  0  0  0  0  0  0
    2.1655   -1.2986    0.5213 O   0  0  0  0  0  0  0  0  0  0  0  0
    4.3750   -0.8456   -0.0896 C   0  0  0  0  0  0  0  0  0  0  0  0
    5.1069    0.1447   -0.7568 C   0  0  0  0  0  0  0  0  0  0  0  0
    6.2820   -0.1959   -1.4303 C   0  0  0  0  0  0  0  0  0  0  0  0
    6.7173   -1.5216   -1.4510 C   0  0  0  0  0  0  0  0  0  0  0  0
    5.9749   -2.5129   -0.8074 C   0  0  0  0  0  0  0  0  0  0  0  0
    4.8000   -2.1781   -0.1326 C   0  0  0  0  0  0  0  0  0  0  0  0
   -1.2629    0.0512   -0.8015 H   0  0  0  0  0  0  0  0  0  0  0  0
   -1.5906   -0.7057    0.7746 H   0  0  0  0  0  0  0  0  0  0  0  0
   -3.3701    1.0141    1.1966 H   0  0  0  0  0  0  0  0  0  0  0  0
   -3.1480    1.6633   -0.4253 H   0  0  0  0  0  0  0  0  0  0  0  0
   -5.5779   -0.2124    1.0708 H   0  0  0  0  0  0  0  0  0  0  0  0
   -5.5586    1.1845   -0.0021 H   0  0  0  0  0  0  0  0  0  0  0  0
   -7.4163   -0.6623   -0.2823 H   0  0  0  0  0  0  0  0  0  0  0  0
   -6.7212    0.1321   -1.6913 H   0  0  0  0  0  0  0  0  0  0  0  0
   -6.8065   -2.3099   -2.0647 H   0  0  0  0  0  0  0  0  0  0  0  0
   -5.9066   -2.5895   -0.5797 H   0  0  0  0  0  0  0  0  0  0  0  0
   -4.9156   -1.7110   -3.2496 H   0  0  0  0  0  0  0  0  0  0  0  0
   -4.1220   -2.6525   -1.9981 H   0  0  0  0  0  0  0  0  0  0  0  0
   -2.8753   -0.6811   -2.0778 H   0  0  0  0  0  0  0  0  0  0  0  0
   -4.2591    0.3696   -2.3427 H   0  0  0  0  0  0  0  0  0  0  0  0
    0.7469   -0.1792    0.5659 H   0  0  0  0  0  0  0  0  0  0  0  0
    0.6846    3.0690    2.4169 H   0  0  0  0  0  0  0  0  0  0  0  0
    2.6547    4.0002    3.4910 H   0  0  0  0  0  0  0  0  0  0  0  0
    5.0572    0.7420    2.0537 H   0  0  0  0  0  0  0  0  0  0  0  0
    4.7695    1.1780   -0.7758 H   0  0  0  0  0  0  0  0  0  0  0  0
    6.8546    0.5707   -1.9478 H   0  0  0  0  0  0  0  0  0  0  0  0
    7.6312   -1.7859   -1.9780 H   0  0  0  0  0  0  0  0  0  0  0  0
    6.3084   -3.5477   -0.8363 H   0  0  0  0  0  0  0  0  0  0  0  0
    4.2185   -2.9559    0.3584 H   0  0  0  0  0  0  0  0  0  0  0  0
  1  2  2  0
  2  3  1  0
  3  4  1  0
  4  5  1  0
  5  6  1  0
  6  7  1  0
  7  8  1  0
  8  9  1  0
  9 10  1  0
  2 11  1  0
 11 12  1  0
 12 13  2  0
 13 14  1  0
 14 15  2  0
 15 16  1  0
 15 17  1  0
 17 18  2  0
 18 19  1  0
 19 20  2  0
 19 21  1  0
 21 22  2  0
 22 23  1  0
 23 24  2  0
 24 25  1  0
 25 26  2  0
 10  5  1  0
 18 12  1  0
 26 21  1  0
  3 27  1  0
  3 28  1  0
  4 29  1  0
  4 30  1  0
  6 31  1  0
  6 32  1  0
  7 33  1  0
  7 34  1  0
  8 35  1  0
  8 36  1  0
  9 37  1  0
  9 38  1  0
 10 39  1  0
 10 40  1  0
 11 41  1  0
 13 42  1  0
 14 43  1  0
 17 44  1  0
 22 45  1  0
 23 46  1  0
 24 47  1  0
 25 48  1  0
 26 49  1  0
M  END
$$$$
