
     RDKit          3D

 39 42  0  0  0  0  0  0  0  0999 V2000
    1.8988    2.6167    2.8062 N   0  0  0  0  0  0  0  0  0  0  0  0
    0.8970    2.0330    2.8753 C   0  0  0  0  0  0  0  0  0  0  0  0
   -0.3636    1.2889    2.9976 C   0  0  0  0  0  0  0  0  0  0  0  0
   -1.3883    1.3242    1.4984 S   0  0  0  0  0  0  0  0  0  0  0  0
   -0.6419    0.0168    0.5827 C   0  0  0  0  0  0  0  0  0  0  0  0
    0.6525   -0.0334    0.6302 N   0  0  0  0  0  0  0  0  0  0  0  0
    1.2472   -1.0800    0.0011 C   0  0  0  0  0  0  0  0  0  0  0  0
    0.5941   -2.0903   -0.5644 C   0  0  0  0  0  0  0  0  0  0  0  0
    1.6135   -3.2867   -1.2401 S   0  0  0  0  0  0  0  0  0  0  0  0
    3.0535   -2.3607   -0.7425 C   0  0  0  0  0  0  0  0  0  0  0  0
    4.6038   -2.8957   -1.0322 S   0  0  0  0  0  0  0  0  0  0  0  0
    2.6232   -1.2034   -0.0848 N   0  0  0  0  0  0  0  0  0  0  0  0
    3.5096   -0.1206    0.3487 C   0  0  0  0  0  0  0  0  0  0  0  0
    3.5471    0.9542   -0.6827 C   0  0  0  0  0  0  0  0  0  0  0  0
    3.2465    2.3008   -0.6557 C   0  0  0  0  0  0  0  0  0  0  0  0
    3.4874    2.7926   -1.9611 C   0  0  0  0  0  0  0  0  0  0  0  0
    3.9220    1.7187   -2.7007 C   0  0  0  0  0  0  0  0  0  0  0  0
    3.9621    0.5994   -1.9347 O   0  0  0  0  0  0  0  0  0  0  0  0
   -0.8723   -2.0839   -0.6069 C   0  0  0  0  0  0  0  0  0  0  0  0
   -1.4802   -3.0259   -1.1106 O   0  0  0  0  0  0  0  0  0  0  0  0
   -1.4542   -0.9253   -0.0655 N   0  0  0  0  0  0  0  0  0  0  0  0
   -2.8726   -0.7642   -0.2258 C   0  0  0  0  0  0  0  0  0  0  0  0
   -3.4057    0.4176   -0.7697 C   0  0  0  0  0  0  0  0  0  0  0  0
   -4.7852    0.5652   -0.9408 C   0  0  0  0  0  0  0  0  0  0  0  0
   -5.6361   -0.4717   -0.5827 C   0  0  0  0  0  0  0  0  0  0  0  0
   -6.9571   -0.3291   -0.7472 F   0  0  0  0  0  0  0  0  0  0  0  0
   -5.1335   -1.6575   -0.0648 C   0  0  0  0  0  0  0  0  0  0  0  0
   -3.7544   -1.8066    0.1068 C   0  0  0  0  0  0  0  0  0  0  0  0
   -0.9596    1.7356    3.8007 H   0  0  0  0  0  0  0  0  0  0  0  0
   -0.1747    0.2511    3.2920 H   0  0  0  0  0  0  0  0  0  0  0  0
    3.1582    0.2665    1.3113 H   0  0  0  0  0  0  0  0  0  0  0  0
    4.5229   -0.4977    0.5148 H   0  0  0  0  0  0  0  0  0  0  0  0
    2.8989    2.8584    0.2035 H   0  0  0  0  0  0  0  0  0  0  0  0
    3.3646    3.8055   -2.3174 H   0  0  0  0  0  0  0  0  0  0  0  0
    4.2295    1.5914   -3.7293 H   0  0  0  0  0  0  0  0  0  0  0  0
   -2.7578    1.2273   -1.0984 H   0  0  0  0  0  0  0  0  0  0  0  0
   -5.1979    1.4770   -1.3614 H   0  0  0  0  0  0  0  0  0  0  0  0
   -5.8141   -2.4621    0.1959 H   0  0  0  0  0  0  0  0  0  0  0  0
   -3.3831   -2.7461    0.5115 H   0  0  0  0  0  0  0  0  0  0  0  0
  1  2  3  0
  2  3  1  0
  3  4  1  0
  4  5  1  0
  5  6  2  0
  6  7  1  0
  7  8  2  0
  8  9  1  0
  9 10  1  0
 10 11  2  0
 10 12  1  0
 12 13  1  0
 13 14  1  0
 14 15  2  0
 15 16  1  0
 16 17  2  0
 17 18  1  0
  8 19  1  0
 19 20  2  0
 19 21  1  0
 21 22  1  0
 22 23  2  0
 23 24  1  0
 24 25  2  0
 25 26  1  0
 25 27  1  0
 27 28  2  0
 21  5  1  0
 28 22  1  0
 12  7  1  0
 18 14  1  0
  3 29  1  0
  3 30  1  0
 13 31  1  0
 13 32  1  0
 15 33  1  0
 16 34  1  0
 17 35  1  0
 23 36  1  0
 24 37  1  0
 27 38  1  0
 28 39  1  0
M  END
$$$$
