
     RDKit          3D

 33 36  0  0  0  0  0  0  0  0999 V2000
    5.2109    0.1521    0.1491 C   0  0  0  0  0  0  0  0  0  0  0  0
    4.8083   -1.1632    0.3390 C   0  0  0  0  0  0  0  0  0  0  0  0
    3.4483   -1.4769    0.3164 C   0  0  0  0  0  0  0  0  0  0  0  0
    2.4819   -0.5006    0.1072 C   0  0  0  0  0  0  0  0  0  0  0  0
    1.1812   -0.8513    0.0976 N   0  0  0  0  0  0  0  0  0  0  0  0
    0.2700    0.1266   -0.1043 C   0  0  0  0  0  0  0  0  0  0  0  0
    0.7061    1.4535   -0.3177 C   0  0  0  0  0  0  0  0  0  0  0  0
    2.0051    1.8242   -0.2980 N   0  0  0  0  0  0  0  0  0  0  0  0
    2.8936    0.8406   -0.0881 C   0  0  0  0  0  0  0  0  0  0  0  0
    4.2500    1.1417   -0.0626 C   0  0  0  0  0  0  0  0  0  0  0  0
   -0.1647    2.4997   -0.5320 O   0  0  0  0  0  0  0  0  0  0  0  0
   -1.4345    2.0433   -1.0125 C   0  0  0  0  0  0  0  0  0  0  0  0
   -2.0067    0.9332   -0.1185 C   0  0  0  0  0  0  0  0  0  0  0  0
   -3.3639    0.4573   -0.6428 C   0  0  0  0  0  0  0  0  0  0  0  0
   -3.9238   -0.7215    0.1590 C   0  0  0  0  0  0  0  0  0  0  0  0
   -2.8853   -1.3969    1.0526 C   0  0  0  0  0  0  0  0  0  0  0  0
   -1.5120   -1.4974    0.3891 C   0  0  0  0  0  0  0  0  0  0  0  0
   -1.0839   -0.1992   -0.1152 N   0  0  0  0  0  0  0  0  0  0  0  0
    6.2662    0.4122    0.1642 H   0  0  0  0  0  0  0  0  0  0  0  0
    5.5451   -1.9451    0.5046 H   0  0  0  0  0  0  0  0  0  0  0  0
    3.1315   -2.5063    0.4654 H   0  0  0  0  0  0  0  0  0  0  0  0
    4.5621    2.1726   -0.2126 H   0  0  0  0  0  0  0  0  0  0  0  0
   -1.3214    1.7146   -2.0544 H   0  0  0  0  0  0  0  0  0  0  0  0
   -2.1091    2.9065   -1.0150 H   0  0  0  0  0  0  0  0  0  0  0  0
   -2.1078    1.3161    0.9063 H   0  0  0  0  0  0  0  0  0  0  0  0
   -4.0872    1.2813   -0.6407 H   0  0  0  0  0  0  0  0  0  0  0  0
   -3.2607    0.1421   -1.6901 H   0  0  0  0  0  0  0  0  0  0  0  0
   -4.3436   -1.4564   -0.5389 H   0  0  0  0  0  0  0  0  0  0  0  0
   -4.7600   -0.3818    0.7819 H   0  0  0  0  0  0  0  0  0  0  0  0
   -3.2368   -2.3934    1.3435 H   0  0  0  0  0  0  0  0  0  0  0  0
   -2.7902   -0.8191    1.9814 H   0  0  0  0  0  0  0  0  0  0  0  0
   -1.5539   -2.2063   -0.4460 H   0  0  0  0  0  0  0  0  0  0  0  0
   -0.8145   -1.9024    1.1323 H   0  0  0  0  0  0  0  0  0  0  0  0
  1  2  2  0
  2  3  1  0
  3  4  2  0
  4  5  1  0
  5  6  2  0
  6  7  1  0
  7  8  2  0
  8  9  1  0
  9 10  2  0
  7 11  1  0
 11 12  1  0
 12 13  1  0
 13 14  1  0
 14 15  1  0
 15 16  1  0
 16 17  1  0
 17 18  1  0
 10  1  1  0
 18 13  1  0
  9  4  1  0
 18  6  1  0
  1 19  1  0
  2 20  1  0
  3 21  1  0
 10 22  1  0
 12 23  1  0
 12 24  1  0
 13 25  1  0
 14 26  1  0
 14 27  1  0
 15 28  1  0
 15 29  1  0
 16 30  1  0
 16 31  1  0
 17 32  1  0
 17 33  1  0
M  END
$$$$
