
     RDKit          3D

 40 42  0  0  0  0  0  0  0  0999 V2000
   -4.0642    1.3199   -2.4118 C   0  0  0  0  0  0  0  0  0  0  0  0
   -3.2162    0.7335   -1.4336 O   0  0  0  0  0  0  0  0  0  0  0  0
   -3.5838    0.8563   -0.1166 C   0  0  0  0  0  0  0  0  0  0  0  0
   -4.7863    1.4324    0.3128 C   0  0  0  0  0  0  0  0  0  0  0  0
   -5.0775    1.5391    1.6755 C   0  0  0  0  0  0  0  0  0  0  0  0
   -4.1712    1.0745    2.6227 C   0  0  0  0  0  0  0  0  0  0  0  0
   -2.9727    0.4952    2.2087 C   0  0  0  0  0  0  0  0  0  0  0  0
   -2.6714    0.3682    0.8432 C   0  0  0  0  0  0  0  0  0  0  0  0
   -1.3770   -0.2431    0.4998 C   0  0  0  0  0  0  0  0  0  0  0  0
   -1.2623   -1.2763   -0.3458 C   0  0  0  0  0  0  0  0  0  0  0  0
    0.0621   -1.8555   -0.6638 C   0  0  0  0  0  0  0  0  0  0  0  0
    1.1358   -1.6058    0.0131 N   0  0  0  0  0  0  0  0  0  0  0  0
    2.2696   -2.2443   -0.4017 N   0  0  0  0  0  0  0  0  0  0  0  0
    3.5137   -1.6839   -0.2963 C   0  0  0  0  0  0  0  0  0  0  0  0
    3.6900   -0.2484   -0.0565 C   0  0  0  0  0  0  0  0  0  0  0  0
    4.3933    0.1261    1.0969 C   0  0  0  0  0  0  0  0  0  0  0  0
    4.5802    1.4778    1.3900 C   0  0  0  0  0  0  0  0  0  0  0  0
    4.0747    2.4483    0.5261 C   0  0  0  0  0  0  0  0  0  0  0  0
    4.3056    4.1140    0.8893 Cl  0  0  0  0  0  0  0  0  0  0  0  0
    3.3943    2.0824   -0.6349 C   0  0  0  0  0  0  0  0  0  0  0  0
    3.2058    0.7297   -0.9337 C   0  0  0  0  0  0  0  0  0  0  0  0
    2.4323    0.3427   -2.4300 Cl  0  0  0  0  0  0  0  0  0  0  0  0
    4.5037   -2.5305   -0.3895 N   0  0  0  0  0  0  0  0  0  0  0  0
    3.8886   -3.7435   -0.5611 N   0  0  0  0  0  0  0  0  0  0  0  0
    2.4999   -3.6089   -0.4783 C   0  0  0  0  0  0  0  0  0  0  0  0
    1.4705   -4.9105   -0.4309 S   0  0  0  0  0  0  0  0  0  0  0  0
   -5.0398    0.8237   -2.4346 H   0  0  0  0  0  0  0  0  0  0  0  0
   -4.1698    2.3979   -2.2513 H   0  0  0  0  0  0  0  0  0  0  0  0
   -3.5955    1.1744   -3.3899 H   0  0  0  0  0  0  0  0  0  0  0  0
   -5.5217    1.8116   -0.3888 H   0  0  0  0  0  0  0  0  0  0  0  0
   -6.0138    1.9894    1.9961 H   0  0  0  0  0  0  0  0  0  0  0  0
   -4.3961    1.1606    3.6826 H   0  0  0  0  0  0  0  0  0  0  0  0
   -2.2747    0.1325    2.9607 H   0  0  0  0  0  0  0  0  0  0  0  0
   -0.5068    0.1784    0.9965 H   0  0  0  0  0  0  0  0  0  0  0  0
   -2.1154   -1.7177   -0.8477 H   0  0  0  0  0  0  0  0  0  0  0  0
    0.0620   -2.5084   -1.5550 H   0  0  0  0  0  0  0  0  0  0  0  0
    4.7864   -0.6328    1.7706 H   0  0  0  0  0  0  0  0  0  0  0  0
    5.1186    1.7657    2.2899 H   0  0  0  0  0  0  0  0  0  0  0  0
    3.0213    2.8486   -1.3099 H   0  0  0  0  0  0  0  0  0  0  0  0
    4.4079   -4.6132   -0.5448 H   0  0  0  0  0  0  0  0  0  0  0  0
  1  2  1  0
  2  3  1  0
  3  4  2  0
  4  5  1  0
  5  6  2  0
  6  7  1  0
  7  8  2  0
  8  9  1  0
  9 10  2  3
 10 11  1  0
 11 12  2  3
 12 13  1  0
 13 14  1  0
 14 15  1  0
 15 16  2  0
 16 17  1  0
 17 18  2  0
 18 19  1  0
 18 20  1  0
 20 21  2  0
 21 22  1  0
 14 23  2  0
 23 24  1  0
 24 25  1  0
 25 26  2  0
  8  3  1  0
 25 13  1  0
 21 15  1  0
  1 27  1  0
  1 28  1  0
  1 29  1  0
  4 30  1  0
  5 31  1  0
  6 32  1  0
  7 33  1  0
  9 34  1  0
 10 35  1  0
 11 36  1  0
 16 37  1  0
 17 38  1  0
 20 39  1  0
 24 40  1  0
M  END
$$$$
