
     RDKit          3D

 39 40  0  0  0  0  0  0  0  0999 V2000
   -4.6097    1.9437   -1.6862 N   0  0  0  0  0  0  0  0  0  0  0  0
   -5.4514    0.6445   -1.0337 S   0  0  0  0  0  6  0  0  0  0  0  0
   -6.3771    1.2083   -0.0798 O   0  0  0  0  0  0  0  0  0  0  0  0
   -5.8835   -0.1492   -2.1603 O   0  0  0  0  0  0  0  0  0  0  0  0
   -4.1738   -0.2178   -0.1669 C   0  0  0  0  0  0  0  0  0  0  0  0
   -3.5102   -1.2795   -0.7857 C   0  0  0  0  0  0  0  0  0  0  0  0
   -2.5221   -1.9749   -0.0863 C   0  0  0  0  0  0  0  0  0  0  0  0
   -2.1983   -1.6191    1.2318 C   0  0  0  0  0  0  0  0  0  0  0  0
   -1.1186   -2.3674    1.9820 C   0  0  0  0  0  0  0  0  0  0  0  0
    0.1557   -1.5448    2.1878 C   0  0  0  0  0  0  0  0  0  0  0  0
    0.7989   -1.1884    0.9325 N   0  0  0  0  0  0  0  0  0  0  0  0
    2.0751   -0.6559    0.9608 C   0  0  0  0  0  0  0  0  0  0  0  0
    2.7211   -0.5407    1.9923 O   0  0  0  0  0  0  0  0  0  0  0  0
    2.4804   -0.3143   -0.3112 N   0  0  0  0  0  0  0  0  0  0  0  0
    3.6773    0.3258   -0.6876 C   0  0  0  0  0  0  0  0  0  0  0  0
    3.9496    0.4161   -2.0580 C   0  0  0  0  0  0  0  0  0  0  0  0
    5.1127    1.0438   -2.5134 C   0  0  0  0  0  0  0  0  0  0  0  0
    6.0151    1.5938   -1.6015 C   0  0  0  0  0  0  0  0  0  0  0  0
    7.4306    2.3566   -2.2324 Cl  0  0  0  0  0  0  0  0  0  0  0  0
    5.7476    1.5145   -0.2316 C   0  0  0  0  0  0  0  0  0  0  0  0
    6.8150    2.1819    0.9541 Cl  0  0  0  0  0  0  0  0  0  0  0  0
    4.5808    0.8835    0.2208 C   0  0  0  0  0  0  0  0  0  0  0  0
   -2.8844   -0.5593    1.8440 C   0  0  0  0  0  0  0  0  0  0  0  0
   -3.8733    0.1394    1.1495 C   0  0  0  0  0  0  0  0  0  0  0  0
   -4.9724    2.8156   -1.2986 H   0  0  0  0  0  0  0  0  0  0  0  0
   -4.6522    1.9014   -2.7050 H   0  0  0  0  0  0  0  0  0  0  0  0
   -3.7596   -1.5743   -1.8027 H   0  0  0  0  0  0  0  0  0  0  0  0
   -2.0119   -2.8036   -0.5742 H   0  0  0  0  0  0  0  0  0  0  0  0
   -0.8730   -3.2953    1.4500 H   0  0  0  0  0  0  0  0  0  0  0  0
   -1.5196   -2.6709    2.9572 H   0  0  0  0  0  0  0  0  0  0  0  0
    0.8677   -2.1226    2.7885 H   0  0  0  0  0  0  0  0  0  0  0  0
   -0.0515   -0.6142    2.7289 H   0  0  0  0  0  0  0  0  0  0  0  0
    0.1920   -0.7423    0.2586 H   0  0  0  0  0  0  0  0  0  0  0  0
    1.9157   -0.7037   -1.0516 H   0  0  0  0  0  0  0  0  0  0  0  0
    3.2648   -0.0032   -2.7915 H   0  0  0  0  0  0  0  0  0  0  0  0
    5.3082    1.1002   -3.5817 H   0  0  0  0  0  0  0  0  0  0  0  0
    4.3966    0.8455    1.2906 H   0  0  0  0  0  0  0  0  0  0  0  0
   -2.6579   -0.2758    2.8704 H   0  0  0  0  0  0  0  0  0  0  0  0
   -4.4046    0.9523    1.6400 H   0  0  0  0  0  0  0  0  0  0  0  0
  1  2  1  0
  2  3  2  0
  2  4  2  0
  2  5  1  0
  5  6  2  0
  6  7  1  0
  7  8  2  0
  8  9  1  0
  9 10  1  0
 10 11  1  0
 11 12  1  0
 12 13  2  0
 12 14  1  0
 14 15  1  0
 15 16  2  0
 16 17  1  0
 17 18  2  0
 18 19  1  0
 18 20  1  0
 20 21  1  0
 20 22  2  0
  8 23  1  0
 23 24  2  0
 24  5  1  0
 22 15  1  0
  1 25  1  0
  1 26  1  0
  6 27  1  0
  7 28  1  0
  9 29  1  0
  9 30  1  0
 10 31  1  0
 10 32  1  0
 11 33  1  0
 14 34  1  0
 16 35  1  0
 17 36  1  0
 22 37  1  0
 23 38  1  0
 24 39  1  0
M  END
$$$$
