
     RDKit          3D

 36 37  0  0  0  0  0  0  0  0999 V2000
   -6.7429    0.6419   -1.1925 C   0  0  0  0  0  0  0  0  0  0  0  0
   -5.4340   -0.0032   -0.8116 C   0  0  0  0  0  0  0  0  0  0  0  0
   -5.3028   -1.2215   -0.8341 O   0  0  0  0  0  0  0  0  0  0  0  0
   -4.4743    0.9346   -0.4740 N   0  0  0  0  0  0  0  0  0  0  0  0
   -3.1391    0.6965   -0.0905 C   0  0  0  0  0  0  0  0  0  0  0  0
   -2.3616    1.8080    0.2499 C   0  0  0  0  0  0  0  0  0  0  0  0
   -1.0230    1.6602    0.6396 C   0  0  0  0  0  0  0  0  0  0  0  0
   -0.4371    0.3975    0.6894 C   0  0  0  0  0  0  0  0  0  0  0  0
    0.9007    0.1591    1.0612 N   0  0  0  0  0  0  0  0  0  0  0  0
    1.8609    1.0933    1.4135 C   0  0  0  0  0  0  0  0  0  0  0  0
    1.7045    2.3094    1.4858 O   0  0  0  0  0  0  0  0  0  0  0  0
    3.2022    0.4634    1.7643 C   0  0  0  0  0  0  0  0  0  0  0  0
    3.8290   -0.3094    0.6253 C   0  0  0  0  0  0  0  0  0  0  0  0
    4.0707    0.3169   -0.6082 C   0  0  0  0  0  0  0  0  0  0  0  0
    4.6644   -0.3903   -1.6551 C   0  0  0  0  0  0  0  0  0  0  0  0
    5.0213   -1.7198   -1.4694 C   0  0  0  0  0  0  0  0  0  0  0  0
    5.5965   -2.3970   -2.4735 F   0  0  0  0  0  0  0  0  0  0  0  0
    4.7972   -2.3567   -0.2543 C   0  0  0  0  0  0  0  0  0  0  0  0
    4.2043   -1.6517    0.7955 C   0  0  0  0  0  0  0  0  0  0  0  0
   -1.2148   -0.7142    0.3487 C   0  0  0  0  0  0  0  0  0  0  0  0
   -2.5547   -0.5668   -0.0357 C   0  0  0  0  0  0  0  0  0  0  0  0
   -7.0315    1.3881   -0.4465 H   0  0  0  0  0  0  0  0  0  0  0  0
   -6.6450    1.1155   -2.1722 H   0  0  0  0  0  0  0  0  0  0  0  0
   -7.5270   -0.1193   -1.2397 H   0  0  0  0  0  0  0  0  0  0  0  0
   -4.7606    1.9064   -0.4954 H   0  0  0  0  0  0  0  0  0  0  0  0
   -2.7785    2.8116    0.2236 H   0  0  0  0  0  0  0  0  0  0  0  0
   -0.4690    2.5578    0.8977 H   0  0  0  0  0  0  0  0  0  0  0  0
    1.2039   -0.8068    1.0210 H   0  0  0  0  0  0  0  0  0  0  0  0
    3.8950    1.2564    2.0680 H   0  0  0  0  0  0  0  0  0  0  0  0
    3.0508   -0.1788    2.6398 H   0  0  0  0  0  0  0  0  0  0  0  0
    3.8016    1.3624   -0.7582 H   0  0  0  0  0  0  0  0  0  0  0  0
    4.8555    0.0909   -2.6090 H   0  0  0  0  0  0  0  0  0  0  0  0
    5.0944   -3.3921   -0.1311 H   0  0  0  0  0  0  0  0  0  0  0  0
    4.0494   -2.1554    1.7466 H   0  0  0  0  0  0  0  0  0  0  0  0
   -0.7979   -1.7187    0.3725 H   0  0  0  0  0  0  0  0  0  0  0  0
   -3.1086   -1.4643   -0.2913 H   0  0  0  0  0  0  0  0  0  0  0  0
  1  2  1  0
  2  3  2  0
  2  4  1  0
  4  5  1  0
  5  6  2  0
  6  7  1  0
  7  8  2  0
  8  9  1  0
  9 10  1  0
 10 11  2  0
 10 12  1  0
 12 13  1  0
 13 14  2  0
 14 15  1  0
 15 16  2  0
 16 17  1  0
 16 18  1  0
 18 19  2  0
  8 20  1  0
 20 21  2  0
 21  5  1  0
 19 13  1  0
  1 22  1  0
  1 23  1  0
  1 24  1  0
  4 25  1  0
  6 26  1  0
  7 27  1  0
  9 28  1  0
 12 29  1  0
 12 30  1  0
 14 31  1  0
 15 32  1  0
 18 33  1  0
 19 34  1  0
 20 35  1  0
 21 36  1  0
M  END
$$$$
