
     RDKit          3D

 56 58  0  0  0  0  0  0  0  0999 V2000
   -9.0530   -0.3087    1.8795 C   0  0  0  0  0  0  0  0  0  0  0  0
   -8.3104   -0.6001    0.7049 O   0  0  0  0  0  0  0  0  0  0  0  0
   -7.0154   -0.1473    0.6415 C   0  0  0  0  0  0  0  0  0  0  0  0
   -6.3916    0.6064    1.6409 C   0  0  0  0  0  0  0  0  0  0  0  0
   -5.0676    1.0260    1.4898 C   0  0  0  0  0  0  0  0  0  0  0  0
   -4.3483    0.7040    0.3353 C   0  0  0  0  0  0  0  0  0  0  0  0
   -2.9144    1.1453    0.1827 C   0  0  0  0  0  0  0  0  0  0  0  0
   -1.9346    0.1233    0.7568 C   0  0  0  0  0  0  0  0  0  0  0  0
   -0.5559    0.5518    0.5927 N   0  0  0  0  0  0  0  0  0  0  0  0
    0.4430   -0.0157    1.3471 C   0  0  0  0  0  0  0  0  0  0  0  0
    0.2359   -0.8064    2.2606 O   0  0  0  0  0  0  0  0  0  0  0  0
    1.8259    0.3962    0.9663 C   0  0  0  0  0  0  0  0  0  0  0  0
    2.8465   -0.3899    1.3577 C   0  0  0  0  0  0  0  0  0  0  0  0
    4.2924   -0.1056    1.0761 C   0  0  0  0  0  0  0  0  0  0  0  0
    4.4191    0.9544    0.0409 N   0  0  0  0  0  0  0  0  0  0  0  0
    6.0296    1.4028   -0.3112 S   0  0  0  0  0  6  0  0  0  0  0  0
    6.6885    1.6784    0.9479 O   0  0  0  0  0  0  0  0  0  0  0  0
    6.0032    2.3834   -1.3752 O   0  0  0  0  0  0  0  0  0  0  0  0
    6.7140   -0.0877   -0.9938 C   0  0  0  0  0  0  0  0  0  0  0  0
    7.7314   -0.7691   -0.3164 C   0  0  0  0  0  0  0  0  0  0  0  0
    8.2575   -1.9360   -0.8721 C   0  0  0  0  0  0  0  0  0  0  0  0
    7.7690   -2.3999   -2.0910 C   0  0  0  0  0  0  0  0  0  0  0  0
    8.2781   -3.5197   -2.6201 F   0  0  0  0  0  0  0  0  0  0  0  0
    6.7632   -1.7187   -2.7712 C   0  0  0  0  0  0  0  0  0  0  0  0
    6.2306   -0.5519   -2.2233 C   0  0  0  0  0  0  0  0  0  0  0  0
    3.5416    2.1185    0.3487 C   0  0  0  0  0  0  0  0  0  0  0  0
    2.0785    1.6818    0.2332 C   0  0  0  0  0  0  0  0  0  0  0  0
   -4.9701   -0.0575   -0.6658 C   0  0  0  0  0  0  0  0  0  0  0  0
   -6.2969   -0.4844   -0.5229 C   0  0  0  0  0  0  0  0  0  0  0  0
   -6.9777   -1.2267   -1.4569 O   0  0  0  0  0  0  0  0  0  0  0  0
   -6.2687   -1.6448   -2.6140 C   0  0  0  0  0  0  0  0  0  0  0  0
   -8.5882   -0.7577    2.7633 H   0  0  0  0  0  0  0  0  0  0  0  0
  -10.0468   -0.7528    1.7655 H   0  0  0  0  0  0  0  0  0  0  0  0
   -9.1850    0.7706    2.0061 H   0  0  0  0  0  0  0  0  0  0  0  0
   -6.9085    0.8847    2.5530 H   0  0  0  0  0  0  0  0  0  0  0  0
   -4.6032    1.6073    2.2843 H   0  0  0  0  0  0  0  0  0  0  0  0
   -2.7737    2.1174    0.6736 H   0  0  0  0  0  0  0  0  0  0  0  0
   -2.6959    1.3221   -0.8786 H   0  0  0  0  0  0  0  0  0  0  0  0
   -2.1320   -0.0463    1.8218 H   0  0  0  0  0  0  0  0  0  0  0  0
   -2.0354   -0.8428    0.2487 H   0  0  0  0  0  0  0  0  0  0  0  0
   -0.3037    0.9852   -0.2841 H   0  0  0  0  0  0  0  0  0  0  0  0
    2.6472   -1.2996    1.9223 H   0  0  0  0  0  0  0  0  0  0  0  0
    4.7493   -1.0293    0.7082 H   0  0  0  0  0  0  0  0  0  0  0  0
    4.7855    0.1895    2.0081 H   0  0  0  0  0  0  0  0  0  0  0  0
    8.1198   -0.3996    0.6301 H   0  0  0  0  0  0  0  0  0  0  0  0
    9.0479   -2.4841   -0.3680 H   0  0  0  0  0  0  0  0  0  0  0  0
    6.4082   -2.0984   -3.7249 H   0  0  0  0  0  0  0  0  0  0  0  0
    5.4493   -0.0088   -2.7512 H   0  0  0  0  0  0  0  0  0  0  0  0
    3.7571    2.4943    1.3569 H   0  0  0  0  0  0  0  0  0  0  0  0
    3.7121    2.9349   -0.3608 H   0  0  0  0  0  0  0  0  0  0  0  0
    1.4429    2.4841    0.6251 H   0  0  0  0  0  0  0  0  0  0  0  0
    1.8263    1.5410   -0.8251 H   0  0  0  0  0  0  0  0  0  0  0  0
   -4.3979   -0.3051   -1.5539 H   0  0  0  0  0  0  0  0  0  0  0  0
   -5.4168   -2.2799   -2.3490 H   0  0  0  0  0  0  0  0  0  0  0  0
   -5.9516   -0.7856   -3.2141 H   0  0  0  0  0  0  0  0  0  0  0  0
   -6.9503   -2.2430   -3.2263 H   0  0  0  0  0  0  0  0  0  0  0  0
  1  2  1  0
  2  3  1  0
  3  4  2  0
  4  5  1  0
  5  6  2  0
  6  7  1  0
  7  8  1  0
  8  9  1  0
  9 10  1  0
 10 11  2  0
 10 12  1  0
 12 13  2  0
 13 14  1  0
 14 15  1  0
 15 16  1  0
 16 17  2  0
 16 18  2  0
 16 19  1  0
 19 20  2  0
 20 21  1  0
 21 22  2  0
 22 23  1  0
 22 24  1  0
 24 25  2  0
 15 26  1  0
 26 27  1  0
  6 28  1  0
 28 29  2  0
 29 30  1  0
 30 31  1  0
 29  3  1  0
 27 12  1  0
 25 19  1  0
  1 32  1  0
  1 33  1  0
  1 34  1  0
  4 35  1  0
  5 36  1  0
  7 37  1  0
  7 38  1  0
  8 39  1  0
  8 40  1  0
  9 41  1  0
 13 42  1  0
 14 43  1  0
 14 44  1  0
 20 45  1  0
 21 46  1  0
 24 47  1  0
 25 48  1  0
 26 49  1  0
 26 50  1  0
 27 51  1  0
 27 52  1  0
 28 53  1  0
 31 54  1  0
 31 55  1  0
 31 56  1  0
M  END
$$$$
