
     RDKit          3D

 48 50  0  0  0  0  0  0  0  0999 V2000
    6.3400    0.6331    1.1426 C   0  0  0  0  0  0  0  0  0  0  0  0
    5.5346    1.1795   -0.0265 C   0  0  0  0  0  0  0  0  0  0  0  0
    4.6300    0.1593   -0.5729 N   0  0  0  0  0  0  0  0  0  0  0  0
    5.1870   -0.7253   -1.6048 C   0  0  0  0  0  0  0  0  0  0  0  0
    5.3511   -2.1510   -1.0943 C   0  0  0  0  0  0  0  0  0  0  0  0
    3.2941    0.0954   -0.1857 C   0  0  0  0  0  0  0  0  0  0  0  0
    2.3294   -0.6103   -0.9266 C   0  0  0  0  0  0  0  0  0  0  0  0
    0.9822   -0.6807   -0.5394 C   0  0  0  0  0  0  0  0  0  0  0  0
    0.5502   -0.0387    0.6173 C   0  0  0  0  0  0  0  0  0  0  0  0
   -0.8449   -0.1287    1.0508 C   0  0  0  0  0  0  0  0  0  0  0  0
   -1.8885    0.6029    0.6094 C   0  0  0  0  0  0  0  0  0  0  0  0
   -1.7786    1.6680   -0.4104 C   0  0  0  0  0  0  0  0  0  0  0  0
   -0.7314    2.0690   -0.9016 O   0  0  0  0  0  0  0  0  0  0  0  0
   -2.9648    2.2311   -0.7778 N   0  0  0  0  0  0  0  0  0  0  0  0
   -4.1880    2.0416   -0.2084 C   0  0  0  0  0  0  0  0  0  0  0  0
   -5.1125    2.7845   -0.5323 O   0  0  0  0  0  0  0  0  0  0  0  0
   -4.2862    1.0392    0.7328 N   0  0  0  0  0  0  0  0  0  0  0  0
   -5.6060    0.7458    1.2755 C   0  0  0  0  0  0  0  0  0  0  0  0
   -6.1939   -0.4051    0.5341 C   0  0  0  0  0  0  0  0  0  0  0  0
   -6.2200   -1.7655    0.7639 C   0  0  0  0  0  0  0  0  0  0  0  0
   -6.9315   -2.3398   -0.3165 C   0  0  0  0  0  0  0  0  0  0  0  0
   -7.2922   -1.2963   -1.1353 C   0  0  0  0  0  0  0  0  0  0  0  0
   -6.8469   -0.1185   -0.6284 O   0  0  0  0  0  0  0  0  0  0  0  0
   -3.2175    0.2978    1.2103 C   0  0  0  0  0  0  0  0  0  0  0  0
   -3.3386   -0.5575    2.0885 O   0  0  0  0  0  0  0  0  0  0  0  0
    1.4774    0.6657    1.3787 C   0  0  0  0  0  0  0  0  0  0  0  0
    2.8209    0.7280    0.9778 C   0  0  0  0  0  0  0  0  0  0  0  0
    5.6922    0.2637    1.9430 H   0  0  0  0  0  0  0  0  0  0  0  0
    6.9824    1.4165    1.5574 H   0  0  0  0  0  0  0  0  0  0  0  0
    6.9832   -0.1937    0.8257 H   0  0  0  0  0  0  0  0  0  0  0  0
    6.2301    1.5149   -0.8062 H   0  0  0  0  0  0  0  0  0  0  0  0
    4.9960    2.0876    0.2684 H   0  0  0  0  0  0  0  0  0  0  0  0
    6.1781   -0.3681   -1.9122 H   0  0  0  0  0  0  0  0  0  0  0  0
    4.5824   -0.7017   -2.5184 H   0  0  0  0  0  0  0  0  0  0  0  0
    4.3923   -2.6050   -0.8263 H   0  0  0  0  0  0  0  0  0  0  0  0
    5.8117   -2.7752   -1.8662 H   0  0  0  0  0  0  0  0  0  0  0  0
    5.9918   -2.1818   -0.2072 H   0  0  0  0  0  0  0  0  0  0  0  0
    2.5967   -1.1211   -1.8459 H   0  0  0  0  0  0  0  0  0  0  0  0
    0.2849   -1.2393   -1.1581 H   0  0  0  0  0  0  0  0  0  0  0  0
   -0.9934   -0.8923    1.8147 H   0  0  0  0  0  0  0  0  0  0  0  0
   -2.9040    2.9900   -1.4418 H   0  0  0  0  0  0  0  0  0  0  0  0
   -6.2653    1.6169    1.1970 H   0  0  0  0  0  0  0  0  0  0  0  0
   -5.5241    0.5005    2.3406 H   0  0  0  0  0  0  0  0  0  0  0  0
   -5.7716   -2.2754    1.6064 H   0  0  0  0  0  0  0  0  0  0  0  0
   -7.1530   -3.3848   -0.4804 H   0  0  0  0  0  0  0  0  0  0  0  0
   -7.8371   -1.2273   -2.0665 H   0  0  0  0  0  0  0  0  0  0  0  0
    1.1756    1.1730    2.2914 H   0  0  0  0  0  0  0  0  0  0  0  0
    3.4959    1.2790    1.6254 H   0  0  0  0  0  0  0  0  0  0  0  0
  1  2  1  0
  2  3  1  0
  3  4  1  0
  4  5  1  0
  3  6  1  0
  6  7  2  0
  7  8  1  0
  8  9  2  0
  9 10  1  0
 10 11  2  3
 11 12  1  0
 12 13  2  0
 12 14  1  0
 14 15  1  0
 15 16  2  0
 15 17  1  0
 17 18  1  0
 18 19  1  0
 19 20  2  0
 20 21  1  0
 21 22  2  0
 22 23  1  0
 17 24  1  0
 24 25  2  0
  9 26  1  0
 26 27  2  0
 27  6  1  0
 24 11  1  0
 23 19  1  0
  1 28  1  0
  1 29  1  0
  1 30  1  0
  2 31  1  0
  2 32  1  0
  4 33  1  0
  4 34  1  0
  5 35  1  0
  5 36  1  0
  5 37  1  0
  7 38  1  0
  8 39  1  0
 10 40  1  0
 14 41  1  0
 18 42  1  0
 18 43  1  0
 20 44  1  0
 21 45  1  0
 22 46  1  0
 26 47  1  0
 27 48  1  0
M  END
$$$$
