
     RDKit          3D

 47 48  0  0  0  0  0  0  0  0999 V2000
    9.7661   -0.3509    1.2709 C   0  0  0  0  0  0  0  0  0  0  0  0
    8.3995   -0.1662    0.6809 C   0  0  0  0  0  0  0  0  0  0  0  0
    7.5849   -1.2731    0.4195 C   0  0  0  0  0  0  0  0  0  0  0  0
    6.2991   -1.1006   -0.0984 C   0  0  0  0  0  0  0  0  0  0  0  0
    5.8020    0.1839   -0.3587 C   0  0  0  0  0  0  0  0  0  0  0  0
    4.4077    0.3711   -0.9042 C   0  0  0  0  0  0  0  0  0  0  0  0
    3.1842    0.4909    0.4316 S   0  0  0  0  0  0  0  0  0  0  0  0
    1.7336    0.6756   -0.5005 C   0  0  0  0  0  0  0  0  0  0  0  0
    1.6774    0.7506   -1.8154 N   0  0  0  0  0  0  0  0  0  0  0  0
    0.3480    0.8955   -2.1521 N   0  0  0  0  0  0  0  0  0  0  0  0
   -0.3180    0.8935   -1.0177 C   0  0  0  0  0  0  0  0  0  0  0  0
   -1.7721    1.0231   -0.7793 C   0  0  0  0  0  0  0  0  0  0  0  0
   -2.5515   -0.0179   -1.5808 C   0  0  0  0  0  0  0  0  0  0  0  0
   -3.9840    0.1122   -1.4145 N   0  0  0  0  0  0  0  0  0  0  0  0
   -4.6352   -0.2940   -0.2901 C   0  0  0  0  0  0  0  0  0  0  0  0
   -4.0912   -0.7756    0.6898 O   0  0  0  0  0  0  0  0  0  0  0  0
   -5.9571   -0.0653   -0.4471 O   0  0  0  0  0  0  0  0  0  0  0  0
   -6.8967   -0.4058    0.6053 C   0  0  0  0  0  0  0  0  0  0  0  0
   -6.6241    0.4016    1.8793 C   0  0  0  0  0  0  0  0  0  0  0  0
   -6.9073   -1.9147    0.8746 C   0  0  0  0  0  0  0  0  0  0  0  0
   -8.2695    0.0035    0.0503 C   0  0  0  0  0  0  0  0  0  0  0  0
    0.4922    0.7617    0.0751 O   0  0  0  0  0  0  0  0  0  0  0  0
    6.6119    1.2922   -0.0754 C   0  0  0  0  0  0  0  0  0  0  0  0
    7.8981    1.1180    0.4415 C   0  0  0  0  0  0  0  0  0  0  0  0
   10.4390    0.4547    0.9586 H   0  0  0  0  0  0  0  0  0  0  0  0
    9.7039   -0.3571    2.3632 H   0  0  0  0  0  0  0  0  0  0  0  0
   10.2119   -1.2937    0.9362 H   0  0  0  0  0  0  0  0  0  0  0  0
    7.9454   -2.2794    0.6208 H   0  0  0  0  0  0  0  0  0  0  0  0
    5.6849   -1.9776   -0.2914 H   0  0  0  0  0  0  0  0  0  0  0  0
    4.1584   -0.4705   -1.5614 H   0  0  0  0  0  0  0  0  0  0  0  0
    4.3750    1.2783   -1.5192 H   0  0  0  0  0  0  0  0  0  0  0  0
   -1.9894    0.9209    0.2902 H   0  0  0  0  0  0  0  0  0  0  0  0
   -2.0934    2.0309   -1.0682 H   0  0  0  0  0  0  0  0  0  0  0  0
   -2.2599   -1.0306   -1.2765 H   0  0  0  0  0  0  0  0  0  0  0  0
   -2.3468    0.0798   -2.6531 H   0  0  0  0  0  0  0  0  0  0  0  0
   -4.5620    0.4827   -2.1568 H   0  0  0  0  0  0  0  0  0  0  0  0
   -5.6884    0.1022    2.3608 H   0  0  0  0  0  0  0  0  0  0  0  0
   -7.4264    0.2701    2.6136 H   0  0  0  0  0  0  0  0  0  0  0  0
   -6.5323    1.4694    1.6508 H   0  0  0  0  0  0  0  0  0  0  0  0
   -7.0184   -2.4755   -0.0601 H   0  0  0  0  0  0  0  0  0  0  0  0
   -5.9744   -2.2543    1.3348 H   0  0  0  0  0  0  0  0  0  0  0  0
   -7.7254   -2.1938    1.5477 H   0  0  0  0  0  0  0  0  0  0  0  0
   -8.4854   -0.5268   -0.8848 H   0  0  0  0  0  0  0  0  0  0  0  0
   -9.0753   -0.2067    0.7614 H   0  0  0  0  0  0  0  0  0  0  0  0
   -8.2893    1.0730   -0.1895 H   0  0  0  0  0  0  0  0  0  0  0  0
    6.2443    2.3011   -0.2500 H   0  0  0  0  0  0  0  0  0  0  0  0
    8.5060    1.9936    0.6590 H   0  0  0  0  0  0  0  0  0  0  0  0
  1  2  1  0
  2  3  2  0
  3  4  1  0
  4  5  2  0
  5  6  1  0
  6  7  1  0
  7  8  1  0
  8  9  2  0
  9 10  1  0
 10 11  2  0
 11 12  1  0
 12 13  1  0
 13 14  1  0
 14 15  1  0
 15 16  2  0
 15 17  1  0
 17 18  1  0
 18 19  1  0
 18 20  1  0
 18 21  1  0
 11 22  1  0
  5 23  1  0
 23 24  2  0
 24  2  1  0
 22  8  1  0
  1 25  1  0
  1 26  1  0
  1 27  1  0
  3 28  1  0
  4 29  1  0
  6 30  1  0
  6 31  1  0
 12 32  1  0
 12 33  1  0
 13 34  1  0
 13 35  1  0
 14 36  1  0
 19 37  1  0
 19 38  1  0
 19 39  1  0
 20 40  1  0
 20 41  1  0
 20 42  1  0
 21 43  1  0
 21 44  1  0
 21 45  1  0
 23 46  1  0
 24 47  1  0
M  END
$$$$
