
     RDKit          3D

 52 55  0  0  0  0  0  0  0  0999 V2000
   -6.6920    0.3849    0.7399 C   0  0  0  0  0  0  0  0  0  0  0  0
   -5.2916    0.9660    0.6130 C   0  0  0  0  0  0  0  0  0  0  0  0
   -4.8473    1.6361    1.9138 C   0  0  0  0  0  0  0  0  0  0  0  0
   -3.4379    2.2346    1.8590 C   0  0  0  0  0  0  0  0  0  0  0  0
   -2.3718    1.1949    1.8213 C   0  0  0  0  0  0  0  0  0  0  0  0
   -2.0074    0.5291    2.9051 N   0  0  0  0  0  0  0  0  0  0  0  0
   -0.9935   -0.3228    2.5814 N   0  0  0  0  0  0  0  0  0  0  0  0
   -0.7362   -0.1607    1.3047 C   0  0  0  0  0  0  0  0  0  0  0  0
    0.2642   -0.8199    0.5092 C   0  0  0  0  0  0  0  0  0  0  0  0
    1.1312   -1.7571    1.1348 N   0  0  0  0  0  0  0  0  0  0  0  0
    1.4672   -1.7183    2.5762 C   0  0  0  0  0  0  0  0  0  0  0  0
    2.0005   -2.9058    0.2329 S   0  0  0  0  0  6  0  0  0  0  0  0
    2.3094   -4.0225    1.1068 O   0  0  0  0  0  0  0  0  0  0  0  0
    1.3618   -3.1538   -1.0421 O   0  0  0  0  0  0  0  0  0  0  0  0
    3.5300   -2.0479   -0.0865 C   0  0  0  0  0  0  0  0  0  0  0  0
    4.6379   -2.2678    0.7363 C   0  0  0  0  0  0  0  0  0  0  0  0
    5.8387   -1.6086    0.4663 C   0  0  0  0  0  0  0  0  0  0  0  0
    5.9397   -0.7333   -0.6237 C   0  0  0  0  0  0  0  0  0  0  0  0
    7.2426   -0.0554   -0.9324 C   0  0  0  0  0  0  0  0  0  0  0  0
    4.8316   -0.5506   -1.4619 C   0  0  0  0  0  0  0  0  0  0  0  0
    3.6286   -1.2074   -1.1976 C   0  0  0  0  0  0  0  0  0  0  0  0
    0.3760   -0.5395   -0.7495 N   0  0  0  0  0  0  0  0  0  0  0  0
   -0.5072    0.3875   -1.3370 C   0  0  0  0  0  0  0  0  0  0  0  0
   -0.3634    0.6211   -2.7074 C   0  0  0  0  0  0  0  0  0  0  0  0
   -1.2002    1.5177   -3.3675 C   0  0  0  0  0  0  0  0  0  0  0  0
   -2.1939    2.1853   -2.6576 C   0  0  0  0  0  0  0  0  0  0  0  0
   -2.3565    1.9642   -1.2861 C   0  0  0  0  0  0  0  0  0  0  0  0
   -1.5143    1.0722   -0.6214 C   0  0  0  0  0  0  0  0  0  0  0  0
   -1.5929    0.7692    0.7570 N   0  0  0  0  0  0  0  0  0  0  0  0
   -6.9939   -0.0844   -0.2017 H   0  0  0  0  0  0  0  0  0  0  0  0
   -7.4209    1.1658    0.9792 H   0  0  0  0  0  0  0  0  0  0  0  0
   -6.7313   -0.3755    1.5264 H   0  0  0  0  0  0  0  0  0  0  0  0
   -5.2872    1.6977   -0.2019 H   0  0  0  0  0  0  0  0  0  0  0  0
   -4.6005    0.1614    0.3401 H   0  0  0  0  0  0  0  0  0  0  0  0
   -5.5526    2.4422    2.1530 H   0  0  0  0  0  0  0  0  0  0  0  0
   -4.9102    0.9124    2.7368 H   0  0  0  0  0  0  0  0  0  0  0  0
   -3.3469    2.9860    1.0767 H   0  0  0  0  0  0  0  0  0  0  0  0
   -3.2925    2.8002    2.7903 H   0  0  0  0  0  0  0  0  0  0  0  0
    2.4305   -2.1853    2.7975 H   0  0  0  0  0  0  0  0  0  0  0  0
    0.6983   -2.2396    3.1531 H   0  0  0  0  0  0  0  0  0  0  0  0
    1.5551   -0.6826    2.9193 H   0  0  0  0  0  0  0  0  0  0  0  0
    4.5808   -2.9533    1.5787 H   0  0  0  0  0  0  0  0  0  0  0  0
    6.6996   -1.7877    1.1074 H   0  0  0  0  0  0  0  0  0  0  0  0
    7.8457   -0.6869   -1.5919 H   0  0  0  0  0  0  0  0  0  0  0  0
    7.8075    0.1406   -0.0150 H   0  0  0  0  0  0  0  0  0  0  0  0
    7.0741    0.9094   -1.4222 H   0  0  0  0  0  0  0  0  0  0  0  0
    4.9012    0.1002   -2.3311 H   0  0  0  0  0  0  0  0  0  0  0  0
    2.7795   -1.0652   -1.8626 H   0  0  0  0  0  0  0  0  0  0  0  0
    0.4050    0.0887   -3.2637 H   0  0  0  0  0  0  0  0  0  0  0  0
   -1.0809    1.6870   -4.4348 H   0  0  0  0  0  0  0  0  0  0  0  0
   -2.8531    2.8780   -3.1773 H   0  0  0  0  0  0  0  0  0  0  0  0
   -3.1601    2.4995   -0.8050 H   0  0  0  0  0  0  0  0  0  0  0  0
  1  2  1  0
  2  3  1  0
  3  4  1  0
  4  5  1  0
  5  6  2  0
  6  7  1  0
  7  8  2  0
  8  9  1  0
  9 10  1  0
 10 11  1  0
 10 12  1  0
 12 13  2  0
 12 14  2  0
 12 15  1  0
 15 16  2  0
 16 17  1  0
 17 18  2  0
 18 19  1  0
 18 20  1  0
 20 21  2  0
  9 22  2  0
 22 23  1  0
 23 24  2  0
 24 25  1  0
 25 26  2  0
 26 27  1  0
 27 28  2  0
 28 29  1  0
 29  5  1  0
 29  8  1  0
 21 15  1  0
 28 23  1  0
  1 30  1  0
  1 31  1  0
  1 32  1  0
  2 33  1  0
  2 34  1  0
  3 35  1  0
  3 36  1  0
  4 37  1  0
  4 38  1  0
 11 39  1  0
 11 40  1  0
 11 41  1  0
 16 42  1  0
 17 43  1  0
 19 44  1  0
 19 45  1  0
 19 46  1  0
 20 47  1  0
 21 48  1  0
 24 49  1  0
 25 50  1  0
 26 51  1  0
 27 52  1  0
M  END
$$$$
