
     RDKit          3D

 51 54  0  0  0  0  0  0  0  0999 V2000
    7.6981   -1.0039    2.3514 C   0  0  0  0  0  0  0  0  0  0  0  0
    6.4932   -0.8435    1.4725 C   0  0  0  0  0  0  0  0  0  0  0  0
    6.6364   -0.7520    0.0838 C   0  0  0  0  0  0  0  0  0  0  0  0
    5.5179   -0.5721   -0.7328 C   0  0  0  0  0  0  0  0  0  0  0  0
    4.2371   -0.4650   -0.1739 C   0  0  0  0  0  0  0  0  0  0  0  0
    3.0342   -0.2873   -1.0665 C   0  0  0  0  0  0  0  0  0  0  0  0
    2.7410   -1.5170   -1.7901 N   0  0  0  0  0  0  0  0  0  0  0  0
    1.6451   -1.4870   -3.0482 S   0  0  0  0  0  6  0  0  0  0  0  0
    1.4411   -2.8566   -3.4623 O   0  0  0  0  0  0  0  0  0  0  0  0
    2.0616   -0.4598   -3.9772 O   0  0  0  0  0  0  0  0  0  0  0  0
    0.1535   -0.9387   -2.2522 C   0  0  0  0  0  0  0  0  0  0  0  0
   -0.5295   -1.8257   -1.4025 C   0  0  0  0  0  0  0  0  0  0  0  0
   -1.6994   -1.4154   -0.7545 C   0  0  0  0  0  0  0  0  0  0  0  0
   -2.1703   -0.1310   -0.9799 C   0  0  0  0  0  0  0  0  0  0  0  0
   -1.4925    0.7374   -1.8402 C   0  0  0  0  0  0  0  0  0  0  0  0
   -0.3268    0.3532   -2.4872 C   0  0  0  0  0  0  0  0  0  0  0  0
   -2.1709    2.0666   -1.9197 C   0  0  0  0  0  0  0  0  0  0  0  0
   -3.4274    1.8355   -1.0718 C   0  0  0  0  0  0  0  0  0  0  0  0
   -3.3140    0.5024   -0.4580 N   0  0  0  0  0  0  0  0  0  0  0  0
   -4.2111   -0.0466    0.4539 C   0  0  0  0  0  0  0  0  0  0  0  0
   -4.0640   -1.1709    0.9477 O   0  0  0  0  0  0  0  0  0  0  0  0
   -5.4276    0.8513    0.8262 C   0  0  0  0  0  0  0  0  0  0  0  0
   -5.2329    1.8708    1.9843 C   0  0  0  0  0  0  0  0  0  0  0  0
   -6.6915    1.5943    2.3913 C   0  0  0  0  0  0  0  0  0  0  0  0
   -6.5464    0.2221    1.7091 C   0  0  0  0  0  0  0  0  0  0  0  0
    4.0960   -0.5501    1.2172 C   0  0  0  0  0  0  0  0  0  0  0  0
    5.2160   -0.7296    2.0331 C   0  0  0  0  0  0  0  0  0  0  0  0
    8.0939   -0.0215    2.6266 H   0  0  0  0  0  0  0  0  0  0  0  0
    8.4824   -1.5712    1.8393 H   0  0  0  0  0  0  0  0  0  0  0  0
    7.4451   -1.5524    3.2649 H   0  0  0  0  0  0  0  0  0  0  0  0
    7.6209   -0.8250   -0.3734 H   0  0  0  0  0  0  0  0  0  0  0  0
    5.6480   -0.5191   -1.8124 H   0  0  0  0  0  0  0  0  0  0  0  0
    3.2283    0.5392   -1.7592 H   0  0  0  0  0  0  0  0  0  0  0  0
    2.1702   -0.0071   -0.4540 H   0  0  0  0  0  0  0  0  0  0  0  0
    2.8044   -2.3998   -1.2877 H   0  0  0  0  0  0  0  0  0  0  0  0
   -0.1592   -2.8370   -1.2463 H   0  0  0  0  0  0  0  0  0  0  0  0
   -2.2181   -2.1103   -0.1021 H   0  0  0  0  0  0  0  0  0  0  0  0
    0.1919    1.0372   -3.1532 H   0  0  0  0  0  0  0  0  0  0  0  0
   -1.5414    2.8480   -1.4820 H   0  0  0  0  0  0  0  0  0  0  0  0
   -2.4287    2.3341   -2.9487 H   0  0  0  0  0  0  0  0  0  0  0  0
   -3.5320    2.5975   -0.2931 H   0  0  0  0  0  0  0  0  0  0  0  0
   -4.3290    1.8545   -1.6949 H   0  0  0  0  0  0  0  0  0  0  0  0
   -5.8777    1.3179   -0.0621 H   0  0  0  0  0  0  0  0  0  0  0  0
   -5.0217    2.9002    1.6832 H   0  0  0  0  0  0  0  0  0  0  0  0
   -4.4964    1.5623    2.7355 H   0  0  0  0  0  0  0  0  0  0  0  0
   -7.4181    2.2545    1.9041 H   0  0  0  0  0  0  0  0  0  0  0  0
   -6.8908    1.5741    3.4655 H   0  0  0  0  0  0  0  0  0  0  0  0
   -7.4309   -0.1299    1.1715 H   0  0  0  0  0  0  0  0  0  0  0  0
   -6.2073   -0.5686    2.3884 H   0  0  0  0  0  0  0  0  0  0  0  0
    3.1143   -0.4754    1.6798 H   0  0  0  0  0  0  0  0  0  0  0  0
    5.0849   -0.7834    3.1118 H   0  0  0  0  0  0  0  0  0  0  0  0
  1  2  1  0
  2  3  2  0
  3  4  1  0
  4  5  2  0
  5  6  1  0
  6  7  1  0
  7  8  1  0
  8  9  2  0
  8 10  2  0
  8 11  1  0
 11 12  2  0
 12 13  1  0
 13 14  2  0
 14 15  1  0
 15 16  2  0
 15 17  1  0
 17 18  1  0
 18 19  1  0
 19 20  1  0
 20 21  2  0
 20 22  1  0
 22 23  1  0
 23 24  1  0
 24 25  1  0
  5 26  1  0
 26 27  2  0
 27  2  1  0
 16 11  1  0
 25 22  1  0
 19 14  1  0
  1 28  1  0
  1 29  1  0
  1 30  1  0
  3 31  1  0
  4 32  1  0
  6 33  1  0
  6 34  1  0
  7 35  1  0
 12 36  1  0
 13 37  1  0
 16 38  1  0
 17 39  1  0
 17 40  1  0
 18 41  1  0
 18 42  1  0
 22 43  1  0
 23 44  1  0
 23 45  1  0
 24 46  1  0
 24 47  1  0
 25 48  1  0
 25 49  1  0
 26 50  1  0
 27 51  1  0
M  END
$$$$
