
     RDKit          3D

 43 46  0  0  0  0  0  0  0  0999 V2000
    2.1750   -0.1792    2.5929 O   0  0  0  0  0  0  0  0  0  0  0  0
    2.6371   -0.2393    1.4552 C   0  0  0  0  0  0  0  0  0  0  0  0
    3.9611    0.3549    1.1984 C   0  0  0  0  0  0  0  0  0  0  0  0
    4.7108    0.9286    2.2311 C   0  0  0  0  0  0  0  0  0  0  0  0
    5.9589    1.4873    1.9523 C   0  0  0  0  0  0  0  0  0  0  0  0
    6.4530    1.4732    0.6470 C   0  0  0  0  0  0  0  0  0  0  0  0
    5.7014    0.9012   -0.3821 C   0  0  0  0  0  0  0  0  0  0  0  0
    4.4547    0.3426   -0.0980 C   0  0  0  0  0  0  0  0  0  0  0  0
    3.6977   -0.2254   -1.1187 N   0  0  0  0  0  0  0  0  0  0  0  0
    2.4721   -0.8061   -0.9346 C   0  0  0  0  0  0  0  0  0  0  0  0
    1.7349   -1.4167   -2.3134 S   0  0  0  0  0  0  0  0  0  0  0  0
    1.9738   -0.8289    0.3673 N   0  0  0  0  0  0  0  0  0  0  0  0
    0.6573   -1.4141    0.6809 C   0  0  0  0  0  0  0  0  0  0  0  0
   -0.4693   -0.3592    0.6177 C   0  0  0  0  0  0  0  0  0  0  0  0
   -1.8118   -0.9101    0.8863 N   0  0  0  0  0  0  0  0  0  0  0  0
   -2.2251   -1.8844   -0.1503 C   0  0  0  0  0  0  0  0  0  0  0  0
   -3.7225   -1.8962   -0.5035 C   0  0  0  0  0  0  0  0  0  0  0  0
   -4.1354   -0.4982   -0.8771 C   0  0  0  0  0  0  0  0  0  0  0  0
   -4.9841   -0.2163   -1.9484 C   0  0  0  0  0  0  0  0  0  0  0  0
   -5.3111    1.1082   -2.2386 C   0  0  0  0  0  0  0  0  0  0  0  0
   -4.8009    2.1462   -1.4563 C   0  0  0  0  0  0  0  0  0  0  0  0
   -3.9648    1.8657   -0.3744 C   0  0  0  0  0  0  0  0  0  0  0  0
   -3.6250    0.5424   -0.0827 C   0  0  0  0  0  0  0  0  0  0  0  0
   -2.7961    0.1649    1.1217 C   0  0  0  0  0  0  0  0  0  0  0  0
    4.3256    0.9410    3.2485 H   0  0  0  0  0  0  0  0  0  0  0  0
    6.5448    1.9336    2.7527 H   0  0  0  0  0  0  0  0  0  0  0  0
    7.4258    1.9097    0.4315 H   0  0  0  0  0  0  0  0  0  0  0  0
    6.0990    0.8988   -1.3933 H   0  0  0  0  0  0  0  0  0  0  0  0
    4.0559   -0.2230   -2.0675 H   0  0  0  0  0  0  0  0  0  0  0  0
    0.4574   -2.2491    0.0038 H   0  0  0  0  0  0  0  0  0  0  0  0
    0.6886   -1.8475    1.6887 H   0  0  0  0  0  0  0  0  0  0  0  0
   -0.4555    0.1588   -0.3498 H   0  0  0  0  0  0  0  0  0  0  0  0
   -0.2364    0.4029    1.3727 H   0  0  0  0  0  0  0  0  0  0  0  0
   -1.9322   -2.8877    0.1803 H   0  0  0  0  0  0  0  0  0  0  0  0
   -1.6811   -1.6903   -1.0856 H   0  0  0  0  0  0  0  0  0  0  0  0
   -3.8917   -2.5860   -1.3382 H   0  0  0  0  0  0  0  0  0  0  0  0
   -4.3231   -2.2417    0.3461 H   0  0  0  0  0  0  0  0  0  0  0  0
   -5.3862   -1.0176   -2.5622 H   0  0  0  0  0  0  0  0  0  0  0  0
   -5.9668    1.3332   -3.0757 H   0  0  0  0  0  0  0  0  0  0  0  0
   -5.0637    3.1758   -1.6852 H   0  0  0  0  0  0  0  0  0  0  0  0
   -3.5901    2.6806    0.2394 H   0  0  0  0  0  0  0  0  0  0  0  0
   -3.4931   -0.1870    1.8943 H   0  0  0  0  0  0  0  0  0  0  0  0
   -2.3192    1.0544    1.5523 H   0  0  0  0  0  0  0  0  0  0  0  0
  1  2  2  0
  2  3  1  0
  3  4  2  0
  4  5  1  0
  5  6  2  0
  6  7  1  0
  7  8  2  0
  8  9  1  0
  9 10  1  0
 10 11  2  0
 10 12  1  0
 12 13  1  0
 13 14  1  0
 14 15  1  0
 15 16  1  0
 16 17  1  0
 17 18  1  0
 18 19  2  0
 19 20  1  0
 20 21  2  0
 21 22  1  0
 22 23  2  0
 23 24  1  0
 12  2  1  0
 24 15  1  0
  8  3  1  0
 23 18  1  0
  4 25  1  0
  5 26  1  0
  6 27  1  0
  7 28  1  0
  9 29  1  0
 13 30  1  0
 13 31  1  0
 14 32  1  0
 14 33  1  0
 16 34  1  0
 16 35  1  0
 17 36  1  0
 17 37  1  0
 19 38  1  0
 20 39  1  0
 21 40  1  0
 22 41  1  0
 24 42  1  0
 24 43  1  0
M  END
$$$$
