
     RDKit          3D

 33 36  0  0  0  0  0  0  0  0999 V2000
    6.8639   -0.0786   -0.8277 C   0  0  0  0  0  0  0  0  0  0  0  0
    5.3972    0.0048   -0.5243 C   0  0  0  0  0  0  0  0  0  0  0  0
    4.9422    0.7255    0.5850 C   0  0  0  0  0  0  0  0  0  0  0  0
    3.5729    0.8297    0.8500 C   0  0  0  0  0  0  0  0  0  0  0  0
    2.6328    0.2243    0.0053 C   0  0  0  0  0  0  0  0  0  0  0  0
    1.2041    0.3379    0.2890 C   0  0  0  0  0  0  0  0  0  0  0  0
    0.7267    1.0409    1.3927 N   0  0  0  0  0  0  0  0  0  0  0  0
   -0.5595    0.8937    1.2681 C   0  0  0  0  0  0  0  0  0  0  0  0
   -1.9338    1.4047    2.1480 S   0  0  0  0  0  0  0  0  0  0  0  0
   -2.9889    0.5670    0.9904 C   0  0  0  0  0  0  0  0  0  0  0  0
   -4.3195    0.6144    1.1501 C   0  0  0  0  0  0  0  0  0  0  0  0
   -5.3004    0.0045    0.3237 C   0  0  0  0  0  0  0  0  0  0  0  0
   -5.3446   -1.2219   -0.3300 C   0  0  0  0  0  0  0  0  0  0  0  0
   -6.5934   -1.3274   -0.9889 C   0  0  0  0  0  0  0  0  0  0  0  0
   -7.2697   -0.1745   -0.6911 C   0  0  0  0  0  0  0  0  0  0  0  0
   -6.5159    0.6202    0.1042 O   0  0  0  0  0  0  0  0  0  0  0  0
   -2.1931   -0.0952   -0.0988 C   0  0  0  0  0  0  0  0  0  0  0  0
   -2.5471   -0.7370   -1.0686 O   0  0  0  0  0  0  0  0  0  0  0  0
   -0.8673    0.1619    0.1836 N   0  0  0  0  0  0  0  0  0  0  0  0
    0.2391   -0.2188   -0.4775 N   0  0  0  0  0  0  0  0  0  0  0  0
    3.0925   -0.4844   -1.1132 C   0  0  0  0  0  0  0  0  0  0  0  0
    4.4617   -0.5888   -1.3785 C   0  0  0  0  0  0  0  0  0  0  0  0
    7.1627    0.7606   -1.4633 H   0  0  0  0  0  0  0  0  0  0  0  0
    7.1038   -1.0153   -1.3417 H   0  0  0  0  0  0  0  0  0  0  0  0
    7.4553   -0.0535    0.0936 H   0  0  0  0  0  0  0  0  0  0  0  0
    5.6499    1.2116    1.2531 H   0  0  0  0  0  0  0  0  0  0  0  0
    3.2458    1.3919    1.7227 H   0  0  0  0  0  0  0  0  0  0  0  0
   -4.7317    1.2051    1.9664 H   0  0  0  0  0  0  0  0  0  0  0  0
   -4.5633   -1.9698   -0.3349 H   0  0  0  0  0  0  0  0  0  0  0  0
   -6.9523   -2.1454   -1.5971 H   0  0  0  0  0  0  0  0  0  0  0  0
   -8.2465    0.2105   -0.9484 H   0  0  0  0  0  0  0  0  0  0  0  0
    2.3863   -0.9602   -1.7914 H   0  0  0  0  0  0  0  0  0  0  0  0
    4.7902   -1.1385   -2.2580 H   0  0  0  0  0  0  0  0  0  0  0  0
  1  2  1  0
  2  3  2  0
  3  4  1  0
  4  5  2  0
  5  6  1  0
  6  7  1  0
  7  8  2  0
  8  9  1  0
  9 10  1  0
 10 11  2  3
 11 12  1  0
 12 13  2  0
 13 14  1  0
 14 15  2  0
 15 16  1  0
 10 17  1  0
 17 18  2  0
 17 19  1  0
 19 20  1  0
  5 21  1  0
 21 22  2  0
 22  2  1  0
 20  6  2  0
 19  8  1  0
 16 12  1  0
  1 23  1  0
  1 24  1  0
  1 25  1  0
  3 26  1  0
  4 27  1  0
 11 28  1  0
 13 29  1  0
 14 30  1  0
 15 31  1  0
 21 32  1  0
 22 33  1  0
M  END
$$$$
