
     RDKit          3D

 48 50  0  0  0  0  0  0  0  0999 V2000
    4.1812    3.0469   -0.2341 C   0  0  0  0  0  0  0  0  0  0  0  0
    3.1354    2.0092   -0.4659 C   0  0  0  0  0  0  0  0  0  0  0  0
    1.7680    2.1943   -0.4345 C   0  0  0  0  0  0  0  0  0  0  0  0
    1.1364    0.9384   -0.5966 C   0  0  0  0  0  0  0  0  0  0  0  0
   -0.2916    0.6634   -0.6091 C   0  0  0  0  0  0  0  0  0  0  0  0
   -1.1118    1.6556   -0.4688 N   0  0  0  0  0  0  0  0  0  0  0  0
   -2.4609    1.4005   -0.4409 N   0  0  0  0  0  0  0  0  0  0  0  0
   -3.0607    0.2553    0.0931 C   0  0  0  0  0  0  0  0  0  0  0  0
   -2.4580   -0.7362    0.4860 O   0  0  0  0  0  0  0  0  0  0  0  0
   -4.5710    0.3883    0.0876 C   0  0  0  0  0  0  0  0  0  0  0  0
   -5.3423   -0.7601    0.7350 C   0  0  0  0  0  0  0  0  0  0  0  0
   -5.0907   -2.1271    0.1018 C   0  0  0  0  0  0  0  0  0  0  0  0
   -5.0718   -0.8023    2.1450 O   0  0  0  0  0  0  0  0  0  0  0  0
   -6.3464   -0.9538    2.7643 C   0  0  0  0  0  0  0  0  0  0  0  0
   -7.2559   -0.1830    1.8506 C   0  0  0  0  0  0  0  0  0  0  0  0
   -6.7534   -0.4775    0.5466 O   0  0  0  0  0  0  0  0  0  0  0  0
    2.1494   -0.0009   -0.7616 C   0  0  0  0  0  0  0  0  0  0  0  0
    2.0077   -1.4552   -1.0831 C   0  0  0  0  0  0  0  0  0  0  0  0
    3.3794    0.6516   -0.6490 N   0  0  0  0  0  0  0  0  0  0  0  0
    4.6638    0.0336   -0.6959 C   0  0  0  0  0  0  0  0  0  0  0  0
    4.9048   -1.1375    0.0323 C   0  0  0  0  0  0  0  0  0  0  0  0
    6.1660   -1.7382   -0.0076 C   0  0  0  0  0  0  0  0  0  0  0  0
    7.1906   -1.1761   -0.7741 C   0  0  0  0  0  0  0  0  0  0  0  0
    8.7232   -1.9731   -0.7754 Cl  0  0  0  0  0  0  0  0  0  0  0  0
    6.9509   -0.0064   -1.5038 C   0  0  0  0  0  0  0  0  0  0  0  0
    8.1661    0.7391   -2.4811 Cl  0  0  0  0  0  0  0  0  0  0  0  0
    5.6895    0.5986   -1.4637 C   0  0  0  0  0  0  0  0  0  0  0  0
    4.6005    3.3940   -1.1829 H   0  0  0  0  0  0  0  0  0  0  0  0
    3.7485    3.9185    0.2698 H   0  0  0  0  0  0  0  0  0  0  0  0
    4.9872    2.6763    0.4063 H   0  0  0  0  0  0  0  0  0  0  0  0
    1.2659    3.1424   -0.2805 H   0  0  0  0  0  0  0  0  0  0  0  0
   -0.6040   -0.3794   -0.7685 H   0  0  0  0  0  0  0  0  0  0  0  0
   -3.0207    2.2473   -0.4878 H   0  0  0  0  0  0  0  0  0  0  0  0
   -4.8215    1.3207    0.6114 H   0  0  0  0  0  0  0  0  0  0  0  0
   -4.8974    0.5116   -0.9532 H   0  0  0  0  0  0  0  0  0  0  0  0
   -5.8123   -2.8615    0.4792 H   0  0  0  0  0  0  0  0  0  0  0  0
   -5.2190   -2.0885   -0.9851 H   0  0  0  0  0  0  0  0  0  0  0  0
   -4.0989   -2.5219    0.3357 H   0  0  0  0  0  0  0  0  0  0  0  0
   -6.5975   -2.0198    2.7843 H   0  0  0  0  0  0  0  0  0  0  0  0
   -6.3294   -0.5674    3.7863 H   0  0  0  0  0  0  0  0  0  0  0  0
   -8.3059   -0.4733    1.9352 H   0  0  0  0  0  0  0  0  0  0  0  0
   -7.1647    0.8967    2.0104 H   0  0  0  0  0  0  0  0  0  0  0  0
    1.9663   -2.0480   -0.1645 H   0  0  0  0  0  0  0  0  0  0  0  0
    2.8258   -1.8196   -1.7115 H   0  0  0  0  0  0  0  0  0  0  0  0
    1.0868   -1.6433   -1.6444 H   0  0  0  0  0  0  0  0  0  0  0  0
    4.1386   -1.5738    0.6693 H   0  0  0  0  0  0  0  0  0  0  0  0
    6.3455   -2.6419    0.5708 H   0  0  0  0  0  0  0  0  0  0  0  0
    5.5084    1.4833   -2.0684 H   0  0  0  0  0  0  0  0  0  0  0  0
  1  2  1  0
  2  3  2  0
  3  4  1  0
  4  5  1  0
  5  6  2  3
  6  7  1  0
  7  8  1  0
  8  9  2  0
  8 10  1  0
 10 11  1  0
 11 12  1  0
 11 13  1  0
 13 14  1  0
 14 15  1  0
 15 16  1  0
  4 17  2  0
 17 18  1  0
 17 19  1  0
 19 20  1  0
 20 21  2  0
 21 22  1  0
 22 23  2  0
 23 24  1  0
 23 25  1  0
 25 26  1  0
 25 27  2  0
 19  2  1  0
 27 20  1  0
 16 11  1  0
  1 28  1  0
  1 29  1  0
  1 30  1  0
  3 31  1  0
  5 32  1  0
  7 33  1  0
 10 34  1  0
 10 35  1  0
 12 36  1  0
 12 37  1  0
 12 38  1  0
 14 39  1  0
 14 40  1  0
 15 41  1  0
 15 42  1  0
 18 43  1  0
 18 44  1  0
 18 45  1  0
 21 46  1  0
 22 47  1  0
 27 48  1  0
M  END
$$$$
