
     RDKit          3D

 54 57  0  0  0  0  0  0  0  0999 V2000
   -2.9231    5.8209   -1.5842 C   0  0  0  0  0  0  0  0  0  0  0  0
   -2.1923    4.7326   -2.1347 O   0  0  0  0  0  0  0  0  0  0  0  0
   -1.8128    3.7419   -1.2720 C   0  0  0  0  0  0  0  0  0  0  0  0
   -1.1135    2.6888   -1.8629 C   0  0  0  0  0  0  0  0  0  0  0  0
   -0.6656    1.6099   -1.0970 C   0  0  0  0  0  0  0  0  0  0  0  0
   -0.9156    1.5603    0.2817 C   0  0  0  0  0  0  0  0  0  0  0  0
   -0.4223    0.4137    1.1522 C   0  0  0  0  0  0  0  0  0  0  0  0
    1.0508    0.5988    1.5209 C   0  0  0  0  0  0  0  0  0  0  0  0
    1.6685   -0.5387    0.7556 C   0  0  0  0  0  0  0  0  0  0  0  0
    3.1366   -0.7175    0.6715 C   0  0  0  0  0  0  0  0  0  0  0  0
    3.6490   -1.7708   -0.0931 C   0  0  0  0  0  0  0  0  0  0  0  0
    5.0274   -1.9620   -0.1862 C   0  0  0  0  0  0  0  0  0  0  0  0
    5.9025   -1.1038    0.4838 C   0  0  0  0  0  0  0  0  0  0  0  0
    5.4005   -0.0513    1.2503 C   0  0  0  0  0  0  0  0  0  0  0  0
    6.1445    0.8558    1.9545 O   0  0  0  0  0  0  0  0  0  0  0  0
    7.5581    0.7034    1.9079 C   0  0  0  0  0  0  0  0  0  0  0  0
    4.0170    0.1383    1.3414 C   0  0  0  0  0  0  0  0  0  0  0  0
    0.8227   -1.3575    0.2072 N   0  0  0  0  0  0  0  0  0  0  0  0
   -0.4306   -0.8809    0.4663 N   0  0  0  0  0  0  0  0  0  0  0  0
   -1.5574   -1.6509    0.1828 C   0  0  0  0  0  0  0  0  0  0  0  0
   -1.4281   -2.9150   -0.4242 C   0  0  0  0  0  0  0  0  0  0  0  0
   -2.5377   -3.7091   -0.7311 C   0  0  0  0  0  0  0  0  0  0  0  0
   -3.8146   -3.2367   -0.4395 C   0  0  0  0  0  0  0  0  0  0  0  0
   -5.2232   -4.2313   -0.8415 S   0  0  0  0  0  6  0  0  0  0  0  0
   -5.4397   -3.8608   -2.4712 N   0  0  0  0  0  0  0  0  0  0  0  0
   -4.8483   -5.6216   -0.7451 O   0  0  0  0  0  0  0  0  0  0  0  0
   -6.3799   -3.6888   -0.1657 O   0  0  0  0  0  0  0  0  0  0  0  0
   -3.9847   -1.9977    0.1737 C   0  0  0  0  0  0  0  0  0  0  0  0
   -2.8617   -1.2173    0.4764 C   0  0  0  0  0  0  0  0  0  0  0  0
   -1.6110    2.6286    0.8706 C   0  0  0  0  0  0  0  0  0  0  0  0
   -2.0584    3.7087    0.0999 C   0  0  0  0  0  0  0  0  0  0  0  0
   -3.8723    5.4819   -1.1569 H   0  0  0  0  0  0  0  0  0  0  0  0
   -3.1535    6.5146   -2.3985 H   0  0  0  0  0  0  0  0  0  0  0  0
   -2.3257    6.3629   -0.8438 H   0  0  0  0  0  0  0  0  0  0  0  0
   -0.9158    2.7057   -2.9321 H   0  0  0  0  0  0  0  0  0  0  0  0
   -0.1259    0.8016   -1.5887 H   0  0  0  0  0  0  0  0  0  0  0  0
   -1.0198    0.3597    2.0714 H   0  0  0  0  0  0  0  0  0  0  0  0
    1.4686    1.5651    1.2259 H   0  0  0  0  0  0  0  0  0  0  0  0
    1.2112    0.4324    2.5914 H   0  0  0  0  0  0  0  0  0  0  0  0
    2.9793   -2.4479   -0.6198 H   0  0  0  0  0  0  0  0  0  0  0  0
    5.4199   -2.7827   -0.7819 H   0  0  0  0  0  0  0  0  0  0  0  0
    6.9678   -1.2856    0.3868 H   0  0  0  0  0  0  0  0  0  0  0  0
    7.9344    0.8221    0.8866 H   0  0  0  0  0  0  0  0  0  0  0  0
    7.9998    1.4959    2.5198 H   0  0  0  0  0  0  0  0  0  0  0  0
    7.8656   -0.2570    2.3347 H   0  0  0  0  0  0  0  0  0  0  0  0
    3.6525    0.9628    1.9464 H   0  0  0  0  0  0  0  0  0  0  0  0
   -0.4360   -3.2953   -0.6618 H   0  0  0  0  0  0  0  0  0  0  0  0
   -2.3913   -4.6841   -1.1908 H   0  0  0  0  0  0  0  0  0  0  0  0
   -4.6667   -3.3237   -2.8638 H   0  0  0  0  0  0  0  0  0  0  0  0
   -6.3328   -3.3782   -2.5821 H   0  0  0  0  0  0  0  0  0  0  0  0
   -4.9769   -1.6260    0.4198 H   0  0  0  0  0  0  0  0  0  0  0  0
   -3.0341   -0.2530    0.9455 H   0  0  0  0  0  0  0  0  0  0  0  0
   -1.8135    2.6306    1.9399 H   0  0  0  0  0  0  0  0  0  0  0  0
   -2.5917    4.5083    0.6036 H   0  0  0  0  0  0  0  0  0  0  0  0
  1  2  1  0
  2  3  1  0
  3  4  2  0
  4  5  1  0
  5  6  2  0
  6  7  1  0
  7  8  1  0
  8  9  1  0
  9 10  1  0
 10 11  2  0
 11 12  1  0
 12 13  2  0
 13 14  1  0
 14 15  1  0
 15 16  1  0
 14 17  2  0
  9 18  2  0
 18 19  1  0
 19 20  1  0
 20 21  2  0
 21 22  1  0
 22 23  2  0
 23 24  1  0
 24 25  1  0
 24 26  2  0
 24 27  2  0
 23 28  1  0
 28 29  2  0
  6 30  1  0
 30 31  2  0
 31  3  1  0
 19  7  1  0
 29 20  1  0
 17 10  1  0
  1 32  1  0
  1 33  1  0
  1 34  1  0
  4 35  1  0
  5 36  1  0
  7 37  1  0
  8 38  1  0
  8 39  1  0
 11 40  1  0
 12 41  1  0
 13 42  1  0
 16 43  1  0
 16 44  1  0
 16 45  1  0
 17 46  1  0
 21 47  1  0
 22 48  1  0
 25 49  1  0
 25 50  1  0
 28 51  1  0
 29 52  1  0
 30 53  1  0
 31 54  1  0
M  END
$$$$
