
     RDKit          3D

 50 52  0  0  0  0  0  0  0  0999 V2000
   -2.9494   -2.9615   -1.7770 C   0  0  0  0  0  0  0  0  0  0  0  0
   -3.7820   -2.3256   -0.8168 O   0  0  0  0  0  0  0  0  0  0  0  0
   -3.3906   -1.0978   -0.3502 C   0  0  0  0  0  0  0  0  0  0  0  0
   -2.2700   -0.3978   -0.7932 C   0  0  0  0  0  0  0  0  0  0  0  0
   -1.9575    0.8431   -0.2239 C   0  0  0  0  0  0  0  0  0  0  0  0
   -0.7716    1.5994   -0.6837 C   0  0  0  0  0  0  0  0  0  0  0  0
   -0.9433    2.7521   -1.0711 O   0  0  0  0  0  0  0  0  0  0  0  0
    0.4712    0.9794   -0.6538 N   0  0  0  0  0  0  0  0  0  0  0  0
    1.6228    1.7064   -1.1966 C   0  0  0  0  0  0  0  0  0  0  0  0
    2.7721    0.7734   -1.6220 C   0  0  0  0  0  0  0  0  0  0  0  0
    3.1720   -0.1620   -0.5411 N   0  0  0  0  0  0  0  0  0  0  0  0
    4.5449   -0.3659   -0.3516 C   0  0  0  0  0  0  0  0  0  0  0  0
    5.1394   -0.1350    0.9048 C   0  0  0  0  0  0  0  0  0  0  0  0
    6.5106   -0.3153    1.1157 C   0  0  0  0  0  0  0  0  0  0  0  0
    7.1821   -0.0017    2.6696 Cl  0  0  0  0  0  0  0  0  0  0  0  0
    7.3369   -0.7402    0.0844 C   0  0  0  0  0  0  0  0  0  0  0  0
    6.7831   -0.9960   -1.1660 C   0  0  0  0  0  0  0  0  0  0  0  0
    5.4078   -0.8181   -1.3830 C   0  0  0  0  0  0  0  0  0  0  0  0
    4.8277   -1.2666   -2.9552 Cl  0  0  0  0  0  0  0  0  0  0  0  0
    2.2416   -0.2742    0.5965 C   0  0  0  0  0  0  0  0  0  0  0  0
    0.7808   -0.2421    0.1077 C   0  0  0  0  0  0  0  0  0  0  0  0
   -2.7764    1.4215    0.7532 C   0  0  0  0  0  0  0  0  0  0  0  0
   -3.9032    0.7371    1.2047 C   0  0  0  0  0  0  0  0  0  0  0  0
   -4.7632    1.1933    2.1694 O   0  0  0  0  0  0  0  0  0  0  0  0
   -4.4938    2.4672    2.7394 C   0  0  0  0  0  0  0  0  0  0  0  0
   -4.2046   -0.5180    0.6419 C   0  0  0  0  0  0  0  0  0  0  0  0
   -5.2854   -1.2275    1.1202 O   0  0  0  0  0  0  0  0  0  0  0  0
   -6.4520   -0.8980    0.3677 C   0  0  0  0  0  0  0  0  0  0  0  0
   -2.9124   -2.3859   -2.7077 H   0  0  0  0  0  0  0  0  0  0  0  0
   -3.3883   -3.9372   -2.0066 H   0  0  0  0  0  0  0  0  0  0  0  0
   -1.9444   -3.1339   -1.3777 H   0  0  0  0  0  0  0  0  0  0  0  0
   -1.6314   -0.7831   -1.5805 H   0  0  0  0  0  0  0  0  0  0  0  0
    1.3049    2.3166   -2.0494 H   0  0  0  0  0  0  0  0  0  0  0  0
    1.9658    2.3925   -0.4122 H   0  0  0  0  0  0  0  0  0  0  0  0
    2.4286    0.1809   -2.4777 H   0  0  0  0  0  0  0  0  0  0  0  0
    3.6143    1.3949   -1.9502 H   0  0  0  0  0  0  0  0  0  0  0  0
    4.5432    0.2170    1.7410 H   0  0  0  0  0  0  0  0  0  0  0  0
    8.4017   -0.8823    0.2472 H   0  0  0  0  0  0  0  0  0  0  0  0
    7.4237   -1.3493   -1.9707 H   0  0  0  0  0  0  0  0  0  0  0  0
    2.4130   -1.2159    1.1312 H   0  0  0  0  0  0  0  0  0  0  0  0
    2.3952    0.5558    1.2971 H   0  0  0  0  0  0  0  0  0  0  0  0
    0.6000   -1.0900   -0.5630 H   0  0  0  0  0  0  0  0  0  0  0  0
    0.1060   -0.3278    0.9650 H   0  0  0  0  0  0  0  0  0  0  0  0
   -2.5038    2.3988    1.1388 H   0  0  0  0  0  0  0  0  0  0  0  0
   -4.5366    3.2560    1.9811 H   0  0  0  0  0  0  0  0  0  0  0  0
   -5.2735    2.6742    3.4787 H   0  0  0  0  0  0  0  0  0  0  0  0
   -3.5312    2.4704    3.2613 H   0  0  0  0  0  0  0  0  0  0  0  0
   -6.3344   -1.1625   -0.6889 H   0  0  0  0  0  0  0  0  0  0  0  0
   -7.2852   -1.4819    0.7702 H   0  0  0  0  0  0  0  0  0  0  0  0
   -6.7055    0.1631    0.4661 H   0  0  0  0  0  0  0  0  0  0  0  0
  1  2  1  0
  2  3  1  0
  3  4  2  0
  4  5  1  0
  5  6  1  0
  6  7  2  0
  6  8  1  0
  8  9  1  0
  9 10  1  0
 10 11  1  0
 11 12  1  0
 12 13  2  0
 13 14  1  0
 14 15  1  0
 14 16  2  0
 16 17  1  0
 17 18  2  0
 18 19  1  0
 11 20  1  0
 20 21  1  0
  5 22  2  0
 22 23  1  0
 23 24  1  0
 24 25  1  0
 23 26  2  0
 26 27  1  0
 27 28  1  0
 26  3  1  0
 21  8  1  0
 18 12  1  0
  1 29  1  0
  1 30  1  0
  1 31  1  0
  4 32  1  0
  9 33  1  0
  9 34  1  0
 10 35  1  0
 10 36  1  0
 13 37  1  0
 16 38  1  0
 17 39  1  0
 20 40  1  0
 20 41  1  0
 21 42  1  0
 21 43  1  0
 22 44  1  0
 25 45  1  0
 25 46  1  0
 25 47  1  0
 28 48  1  0
 28 49  1  0
 28 50  1  0
M  END
$$$$
