
     RDKit          3D

 57 59  0  0  0  0  0  0  0  0999 V2000
   -2.3634   -2.3314   -0.3471 C   0  0  0  0  0  0  0  0  0  0  0  0
   -2.9529   -1.8469    0.9731 C   0  0  0  0  0  0  0  0  0  0  0  0
   -3.1335   -0.3875    1.0249 N   0  0  0  0  0  0  0  0  0  0  0  0
   -1.9552    0.3744    1.0717 C   0  0  0  0  0  0  0  0  0  0  0  0
   -0.8486   -0.1510    1.2347 O   0  0  0  0  0  0  0  0  0  0  0  0
   -2.0647    1.9008    0.9135 C   0  0  0  0  0  0  0  0  0  0  0  0
   -0.7958    2.4756    0.5922 O   0  0  0  0  0  0  0  0  0  0  0  0
   -0.4058    2.2237   -0.6805 C   0  0  0  0  0  0  0  0  0  0  0  0
   -1.0731    1.7198   -1.5673 O   0  0  0  0  0  0  0  0  0  0  0  0
    1.0318    2.5049   -0.7970 C   0  0  0  0  0  0  0  0  0  0  0  0
    1.8582    1.4301   -1.1496 C   0  0  0  0  0  0  0  0  0  0  0  0
    3.2467    1.6104   -1.2290 C   0  0  0  0  0  0  0  0  0  0  0  0
    4.2500    0.2150   -1.6673 S   0  0  0  0  0  6  0  0  0  0  0  0
    5.1160    0.6233   -2.7499 O   0  0  0  0  0  0  0  0  0  0  0  0
    3.3760   -0.9280   -1.8258 O   0  0  0  0  0  0  0  0  0  0  0  0
    5.1735   -0.0455   -0.2667 N   0  0  0  0  0  0  0  0  0  0  0  0
    4.4507   -0.5299    0.9525 C   0  0  0  0  0  0  0  0  0  0  0  0
    4.2909   -2.0566    0.9594 C   0  0  0  0  0  0  0  0  0  0  0  0
    5.5526   -2.7182    0.7907 O   0  0  0  0  0  0  0  0  0  0  0  0
    6.1614   -2.3311   -0.4504 C   0  0  0  0  0  0  0  0  0  0  0  0
    6.4342   -0.8254   -0.4683 C   0  0  0  0  0  0  0  0  0  0  0  0
    3.8048    2.8661   -0.9756 C   0  0  0  0  0  0  0  0  0  0  0  0
    5.4976    3.1989   -1.0103 Cl  0  0  0  0  0  0  0  0  0  0  0  0
    2.9647    3.9410   -0.6502 C   0  0  0  0  0  0  0  0  0  0  0  0
    1.5800    3.7663   -0.5621 C   0  0  0  0  0  0  0  0  0  0  0  0
    0.6134    5.1485   -0.1971 Cl  0  0  0  0  0  0  0  0  0  0  0  0
   -4.4859    0.2085    0.9078 C   0  0  0  0  0  0  0  0  0  0  0  0
   -4.9952    0.2802   -0.5399 C   0  0  0  0  0  0  0  0  0  0  0  0
   -5.8035   -0.9755   -0.8176 C   0  0  0  0  0  0  0  0  0  0  0  0
   -6.6629   -1.3183    0.6997 S   0  0  0  0  0  6  0  0  0  0  0  0
   -7.9352   -0.6268    0.6674 O   0  0  0  0  0  0  0  0  0  0  0  0
   -6.5599   -2.7334    0.9854 O   0  0  0  0  0  0  0  0  0  0  0  0
   -5.5724   -0.4243    1.7869 C   0  0  0  0  0  0  0  0  0  0  0  0
   -2.9479   -1.9857   -1.2033 H   0  0  0  0  0  0  0  0  0  0  0  0
   -1.3393   -1.9731   -0.4886 H   0  0  0  0  0  0  0  0  0  0  0  0
   -2.3366   -3.4256   -0.3669 H   0  0  0  0  0  0  0  0  0  0  0  0
   -3.9023   -2.3514    1.1555 H   0  0  0  0  0  0  0  0  0  0  0  0
   -2.2817   -2.1357    1.7910 H   0  0  0  0  0  0  0  0  0  0  0  0
   -2.3787    2.3190    1.8749 H   0  0  0  0  0  0  0  0  0  0  0  0
   -2.7983    2.1825    0.1520 H   0  0  0  0  0  0  0  0  0  0  0  0
    1.4097    0.4547   -1.3418 H   0  0  0  0  0  0  0  0  0  0  0  0
    3.4783   -0.0397    1.0542 H   0  0  0  0  0  0  0  0  0  0  0  0
    5.0502   -0.2227    1.8187 H   0  0  0  0  0  0  0  0  0  0  0  0
    3.6000   -2.4052    0.1859 H   0  0  0  0  0  0  0  0  0  0  0  0
    3.8813   -2.3748    1.9237 H   0  0  0  0  0  0  0  0  0  0  0  0
    7.1056   -2.8779   -0.5368 H   0  0  0  0  0  0  0  0  0  0  0  0
    5.5195   -2.6416   -1.2822 H   0  0  0  0  0  0  0  0  0  0  0  0
    7.1103   -0.5622    0.3549 H   0  0  0  0  0  0  0  0  0  0  0  0
    6.9365   -0.5291   -1.3940 H   0  0  0  0  0  0  0  0  0  0  0  0
    3.3952    4.9239   -0.4634 H   0  0  0  0  0  0  0  0  0  0  0  0
   -4.3891    1.2367    1.2699 H   0  0  0  0  0  0  0  0  0  0  0  0
   -4.1892    0.4084   -1.2694 H   0  0  0  0  0  0  0  0  0  0  0  0
   -5.6602    1.1486   -0.6325 H   0  0  0  0  0  0  0  0  0  0  0  0
   -6.5270   -0.8360   -1.6240 H   0  0  0  0  0  0  0  0  0  0  0  0
   -5.1692   -1.8334   -1.0444 H   0  0  0  0  0  0  0  0  0  0  0  0
   -5.1842   -1.0914    2.5595 H   0  0  0  0  0  0  0  0  0  0  0  0
   -6.1773    0.3541    2.2643 H   0  0  0  0  0  0  0  0  0  0  0  0
  1  2  1  0
  2  3  1  0
  3  4  1  0
  4  5  2  0
  4  6  1  0
  6  7  1  0
  7  8  1  0
  8  9  2  0
  8 10  1  0
 10 11  2  0
 11 12  1  0
 12 13  1  0
 13 14  2  0
 13 15  2  0
 13 16  1  0
 16 17  1  0
 17 18  1  0
 18 19  1  0
 19 20  1  0
 20 21  1  0
 12 22  2  0
 22 23  1  0
 22 24  1  0
 24 25  2  0
 25 26  1  0
  3 27  1  0
 27 28  1  0
 28 29  1  0
 29 30  1  0
 30 31  2  0
 30 32  2  0
 30 33  1  0
 25 10  1  0
 33 27  1  0
 21 16  1  0
  1 34  1  0
  1 35  1  0
  1 36  1  0
  2 37  1  0
  2 38  1  0
  6 39  1  0
  6 40  1  0
 11 41  1  0
 17 42  1  0
 17 43  1  0
 18 44  1  0
 18 45  1  0
 20 46  1  0
 20 47  1  0
 21 48  1  0
 21 49  1  0
 24 50  1  0
 27 51  1  0
 28 52  1  0
 28 53  1  0
 29 54  1  0
 29 55  1  0
 33 56  1  0
 33 57  1  0
M  END
$$$$
