
     RDKit          3D

 50 52  0  0  0  0  0  0  0  0999 V2000
    3.2743   -0.3260   -3.7940 O   0  0  0  0  0  0  0  0  0  0  0  0
    2.7912   -0.2491   -2.6813 C   0  0  0  0  0  0  0  0  0  0  0  0
    1.5827   -0.7593   -2.3892 O   0  0  0  0  0  0  0  0  0  0  0  0
    3.3973    0.4379   -1.5163 C   0  0  0  0  0  0  0  0  0  0  0  0
    2.8034    0.3844   -0.2503 C   0  0  0  0  0  0  0  0  0  0  0  0
    3.3524    1.1017    0.8095 C   0  0  0  0  0  0  0  0  0  0  0  0
    2.6752    1.1440    2.0614 N   0  0  0  0  0  0  0  0  0  0  0  0
    1.3562    2.2031    2.2033 S   0  0  0  0  0  6  0  0  0  0  0  0
    1.1150    2.3578    3.6215 O   0  0  0  0  0  0  0  0  0  0  0  0
    1.5648    3.3458    1.3424 O   0  0  0  0  0  0  0  0  0  0  0  0
    0.0163    1.2394    1.5459 C   0  0  0  0  0  0  0  0  0  0  0  0
   -0.5621    0.2403    2.3333 C   0  0  0  0  0  0  0  0  0  0  0  0
   -1.6095   -0.5350    1.8189 C   0  0  0  0  0  0  0  0  0  0  0  0
   -2.1013   -0.3330    0.5171 C   0  0  0  0  0  0  0  0  0  0  0  0
   -3.1318   -1.1277   -0.0069 N   0  0  0  0  0  0  0  0  0  0  0  0
   -4.3070   -1.3162    0.8500 C   0  0  0  0  0  0  0  0  0  0  0  0
   -5.4858   -1.7628   -0.0179 C   0  0  0  0  0  0  0  0  0  0  0  0
   -5.0923   -2.7828   -1.0909 C   0  0  0  0  0  0  0  0  0  0  0  0
   -3.7325   -3.4094   -0.8085 C   0  0  0  0  0  0  0  0  0  0  0  0
   -2.6368   -2.3461   -0.6814 C   0  0  0  0  0  0  0  0  0  0  0  0
   -1.4956    0.6917   -0.2346 C   0  0  0  0  0  0  0  0  0  0  0  0
   -1.9571    0.9659   -1.5783 N   0  0  0  0  0  4  0  0  0  0  0  0
   -1.3931    0.3579   -2.5013 O   0  0  0  0  0  0  0  0  0  0  0  0
   -2.8261    1.8387   -1.7093 O   0  0  0  0  0  1  0  0  0  0  0  0
   -0.4588    1.4933    0.2599 C   0  0  0  0  0  0  0  0  0  0  0  0
    4.5087    1.8561    0.6229 C   0  0  0  0  0  0  0  0  0  0  0  0
    5.1260    1.8882   -0.6350 C   0  0  0  0  0  0  0  0  0  0  0  0
    6.3601    2.6950   -0.7829 C   0  0  0  0  0  0  0  0  0  0  0  0
    6.9293    3.2878    0.1141 O   0  0  0  0  0  0  0  0  0  0  0  0
    6.8196    2.7149   -2.0444 O   0  0  0  0  0  0  0  0  0  0  0  0
    4.5668    1.1819   -1.7076 C   0  0  0  0  0  0  0  0  0  0  0  0
    1.2188   -1.0657   -3.2482 H   0  0  0  0  0  0  0  0  0  0  0  0
    1.9128   -0.2173   -0.0946 H   0  0  0  0  0  0  0  0  0  0  0  0
    3.2467    1.1856    2.9068 H   0  0  0  0  0  0  0  0  0  0  0  0
   -0.2025    0.0536    3.3439 H   0  0  0  0  0  0  0  0  0  0  0  0
   -2.0281   -1.3181    2.4474 H   0  0  0  0  0  0  0  0  0  0  0  0
   -4.5807   -0.3828    1.3579 H   0  0  0  0  0  0  0  0  0  0  0  0
   -4.1078   -2.0675    1.6248 H   0  0  0  0  0  0  0  0  0  0  0  0
   -6.2649   -2.1820    0.6299 H   0  0  0  0  0  0  0  0  0  0  0  0
   -5.9340   -0.8915   -0.5117 H   0  0  0  0  0  0  0  0  0  0  0  0
   -5.0597   -2.2830   -2.0673 H   0  0  0  0  0  0  0  0  0  0  0  0
   -5.8613   -3.5599   -1.1655 H   0  0  0  0  0  0  0  0  0  0  0  0
   -3.4675   -4.1198   -1.5997 H   0  0  0  0  0  0  0  0  0  0  0  0
   -3.7904   -3.9882    0.1222 H   0  0  0  0  0  0  0  0  0  0  0  0
   -1.7840   -2.7855   -0.1479 H   0  0  0  0  0  0  0  0  0  0  0  0
   -2.2902   -2.0758   -1.6852 H   0  0  0  0  0  0  0  0  0  0  0  0
   -0.0279    2.2823   -0.3531 H   0  0  0  0  0  0  0  0  0  0  0  0
    4.9253    2.4371    1.4434 H   0  0  0  0  0  0  0  0  0  0  0  0
    7.6186    3.2820   -2.0041 H   0  0  0  0  0  0  0  0  0  0  0  0
    5.0273    1.2180   -2.6938 H   0  0  0  0  0  0  0  0  0  0  0  0
  1  2  2  0
  2  3  1  0
  2  4  1  0
  4  5  2  0
  5  6  1  0
  6  7  1  0
  7  8  1  0
  8  9  2  0
  8 10  2  0
  8 11  1  0
 11 12  2  0
 12 13  1  0
 13 14  2  0
 14 15  1  0
 15 16  1  0
 16 17  1  0
 17 18  1  0
 18 19  1  0
 19 20  1  0
 14 21  1  0
 21 22  1  0
 22 23  2  0
 22 24  1  0
 21 25  2  0
  6 26  2  0
 26 27  1  0
 27 28  1  0
 28 29  2  0
 28 30  1  0
 27 31  2  0
 31  4  1  0
 25 11  1  0
 20 15  1  0
  3 32  1  0
  5 33  1  0
  7 34  1  0
 12 35  1  0
 13 36  1  0
 16 37  1  0
 16 38  1  0
 17 39  1  0
 17 40  1  0
 18 41  1  0
 18 42  1  0
 19 43  1  0
 19 44  1  0
 20 45  1  0
 20 46  1  0
 25 47  1  0
 26 48  1  0
 30 49  1  0
 31 50  1  0
M  CHG  2  22   1  24  -1
M  END
$$$$
