
     RDKit          3D

 43 44  0  0  0  0  0  0  0  0999 V2000
   -8.1787    0.0713    0.0347 C   0  0  0  0  0  0  0  0  0  0  0  0
   -8.2065    1.3775    0.8173 C   0  0  0  0  0  0  0  0  0  0  0  0
   -7.0573    2.3188    0.4567 C   0  0  0  0  0  0  0  0  0  0  0  0
   -5.7432    1.8044    0.9069 C   0  0  0  0  0  0  0  0  0  0  0  0
   -5.2176    1.7827    2.1123 N   0  0  0  0  0  0  0  0  0  0  0  0
   -3.9798    1.1885    1.9801 N   0  0  0  0  0  0  0  0  0  0  0  0
   -3.8359    0.8897    0.7048 C   0  0  0  0  0  0  0  0  0  0  0  0
   -2.4372    0.1328    0.0138 S   0  0  0  0  0  0  0  0  0  0  0  0
   -1.6490   -0.4957    1.5237 C   0  0  0  0  0  0  0  0  0  0  0  0
   -0.3757   -1.2397    1.1585 C   0  0  0  0  0  0  0  0  0  0  0  0
   -0.3174   -2.4627    1.2405 O   0  0  0  0  0  0  0  0  0  0  0  0
    0.6486   -0.3918    0.7606 N   0  0  0  0  0  0  0  0  0  0  0  0
    1.9559   -0.7460    0.3717 C   0  0  0  0  0  0  0  0  0  0  0  0
    2.7919    0.2874   -0.0711 C   0  0  0  0  0  0  0  0  0  0  0  0
    4.1047    0.0238   -0.4805 C   0  0  0  0  0  0  0  0  0  0  0  0
    4.6016   -1.2837   -0.4490 C   0  0  0  0  0  0  0  0  0  0  0  0
    5.9872   -1.6252   -0.8724 C   0  0  0  0  0  0  0  0  0  0  0  0
    6.4669   -2.7437   -0.7776 O   0  0  0  0  0  0  0  0  0  0  0  0
    6.6142   -0.5326   -1.3764 O   0  0  0  0  0  0  0  0  0  0  0  0
    7.9524   -0.7803   -1.8247 C   0  0  0  0  0  0  0  0  0  0  0  0
    8.4952    0.5035   -2.4208 C   0  0  0  0  0  0  0  0  0  0  0  0
    3.7706   -2.3159    0.0002 C   0  0  0  0  0  0  0  0  0  0  0  0
    2.4570   -2.0481    0.4068 C   0  0  0  0  0  0  0  0  0  0  0  0
   -4.9212    1.2635   -0.0429 O   0  0  0  0  0  0  0  0  0  0  0  0
   -8.1989    0.2581   -1.0442 H   0  0  0  0  0  0  0  0  0  0  0  0
   -9.0542   -0.5355    0.2893 H   0  0  0  0  0  0  0  0  0  0  0  0
   -7.2853   -0.5165    0.2669 H   0  0  0  0  0  0  0  0  0  0  0  0
   -8.1957    1.1558    1.8913 H   0  0  0  0  0  0  0  0  0  0  0  0
   -9.1546    1.8866    0.6066 H   0  0  0  0  0  0  0  0  0  0  0  0
   -7.0444    2.5003   -0.6242 H   0  0  0  0  0  0  0  0  0  0  0  0
   -7.2308    3.2891    0.9371 H   0  0  0  0  0  0  0  0  0  0  0  0
   -1.4013    0.3230    2.2078 H   0  0  0  0  0  0  0  0  0  0  0  0
   -2.3226   -1.1871    2.0408 H   0  0  0  0  0  0  0  0  0  0  0  0
    0.4089    0.5892    0.6725 H   0  0  0  0  0  0  0  0  0  0  0  0
    2.4362    1.3144   -0.1083 H   0  0  0  0  0  0  0  0  0  0  0  0
    4.7258    0.8496   -0.8188 H   0  0  0  0  0  0  0  0  0  0  0  0
    7.9506   -1.5690   -2.5852 H   0  0  0  0  0  0  0  0  0  0  0  0
    8.5733   -1.0870   -0.9757 H   0  0  0  0  0  0  0  0  0  0  0  0
    8.4840    1.3082   -1.6782 H   0  0  0  0  0  0  0  0  0  0  0  0
    7.8702    0.8343   -3.2572 H   0  0  0  0  0  0  0  0  0  0  0  0
    9.5197    0.3659   -2.7772 H   0  0  0  0  0  0  0  0  0  0  0  0
    4.1376   -3.3407    0.0364 H   0  0  0  0  0  0  0  0  0  0  0  0
    1.8549   -2.8854    0.7468 H   0  0  0  0  0  0  0  0  0  0  0  0
  1  2  1  0
  2  3  1  0
  3  4  1  0
  4  5  2  0
  5  6  1  0
  6  7  2  0
  7  8  1  0
  8  9  1  0
  9 10  1  0
 10 11  2  0
 10 12  1  0
 12 13  1  0
 13 14  2  0
 14 15  1  0
 15 16  2  0
 16 17  1  0
 17 18  2  0
 17 19  1  0
 19 20  1  0
 20 21  1  0
 16 22  1  0
 22 23  2  0
  7 24  1  0
 24  4  1  0
 23 13  1  0
  1 25  1  0
  1 26  1  0
  1 27  1  0
  2 28  1  0
  2 29  1  0
  3 30  1  0
  3 31  1  0
  9 32  1  0
  9 33  1  0
 12 34  1  0
 14 35  1  0
 15 36  1  0
 20 37  1  0
 20 38  1  0
 21 39  1  0
 21 40  1  0
 21 41  1  0
 22 42  1  0
 23 43  1  0
M  END
$$$$
