
     RDKit          3D

 51 54  0  0  0  0  0  0  0  0999 V2000
   -0.6127   -1.9255    2.1787 O   0  0  0  0  0  0  0  0  0  0  0  0
   -0.8559   -0.9964    1.4060 C   0  0  0  0  0  0  0  0  0  0  0  0
    0.2014   -0.0288    1.0772 C   0  0  0  0  0  0  0  0  0  0  0  0
    1.6003   -0.2517    1.1847 C   0  0  0  0  0  0  0  0  0  0  0  0
    2.1782    0.9389    0.8203 C   0  0  0  0  0  0  0  0  0  0  0  0
    3.5711    1.4287    0.7082 C   0  0  0  0  0  0  0  0  0  0  0  0
    4.3423    0.3580    0.1644 O   0  0  0  0  0  0  0  0  0  0  0  0
    5.6788    0.5817   -0.0161 C   0  0  0  0  0  0  0  0  0  0  0  0
    6.3665    1.7553    0.2918 C   0  0  0  0  0  0  0  0  0  0  0  0
    7.7417    1.8437    0.0586 C   0  0  0  0  0  0  0  0  0  0  0  0
    8.4351    0.7620   -0.4848 C   0  0  0  0  0  0  0  0  0  0  0  0
    7.7580   -0.4210   -0.8093 C   0  0  0  0  0  0  0  0  0  0  0  0
    8.4975   -1.6059   -1.3774 C   0  0  0  0  0  0  0  0  0  0  0  0
    7.7552   -2.3221   -2.2677 F   0  0  0  0  0  0  0  0  0  0  0  0
    8.8803   -2.4877   -0.4134 F   0  0  0  0  0  0  0  0  0  0  0  0
    9.6365   -1.2594   -2.0401 F   0  0  0  0  0  0  0  0  0  0  0  0
    6.3781   -0.4993   -0.5618 C   0  0  0  0  0  0  0  0  0  0  0  0
    1.1970    1.8352    0.5367 O   0  0  0  0  0  0  0  0  0  0  0  0
   -0.0382    1.2436    0.7129 N   0  0  0  0  0  0  0  0  0  0  0  0
   -2.1401   -0.8269    0.8532 N   0  0  0  0  0  0  0  0  0  0  0  0
   -3.1895   -1.7046    1.3624 C   0  0  0  0  0  0  0  0  0  0  0  0
   -4.5746   -1.0872    1.1926 C   0  0  0  0  0  0  0  0  0  0  0  0
   -4.8140   -0.6601   -0.2632 C   0  0  0  0  0  0  0  0  0  0  0  0
   -6.1863   -0.0425   -0.4495 C   0  0  0  0  0  0  0  0  0  0  0  0
   -6.5482    1.1618    0.1641 C   0  0  0  0  0  0  0  0  0  0  0  0
   -7.8227    1.6667   -0.0481 C   0  0  0  0  0  0  0  0  0  0  0  0
   -8.7525    1.0633   -0.8175 N   0  0  0  0  0  0  0  0  0  0  0  0
   -8.3896   -0.0980   -1.3998 C   0  0  0  0  0  0  0  0  0  0  0  0
   -7.1402   -0.6819   -1.2486 C   0  0  0  0  0  0  0  0  0  0  0  0
   -3.6864    0.2741   -0.7313 C   0  0  0  0  0  0  0  0  0  0  0  0
   -2.3244   -0.3827   -0.5307 C   0  0  0  0  0  0  0  0  0  0  0  0
    2.1025   -1.1595    1.4860 H   0  0  0  0  0  0  0  0  0  0  0  0
    3.9356    1.6968    1.7066 H   0  0  0  0  0  0  0  0  0  0  0  0
    3.6104    2.2989    0.0425 H   0  0  0  0  0  0  0  0  0  0  0  0
    5.8691    2.6214    0.7163 H   0  0  0  0  0  0  0  0  0  0  0  0
    8.2746    2.7600    0.3036 H   0  0  0  0  0  0  0  0  0  0  0  0
    9.5075    0.8463   -0.6569 H   0  0  0  0  0  0  0  0  0  0  0  0
    5.8366   -1.4149   -0.7996 H   0  0  0  0  0  0  0  0  0  0  0  0
   -3.1194   -2.6586    0.8255 H   0  0  0  0  0  0  0  0  0  0  0  0
   -3.0194   -1.9134    2.4248 H   0  0  0  0  0  0  0  0  0  0  0  0
   -5.3387   -1.8069    1.5108 H   0  0  0  0  0  0  0  0  0  0  0  0
   -4.6591   -0.2205    1.8611 H   0  0  0  0  0  0  0  0  0  0  0  0
   -4.7627   -1.5666   -0.8835 H   0  0  0  0  0  0  0  0  0  0  0  0
   -5.8585    1.7065    0.8006 H   0  0  0  0  0  0  0  0  0  0  0  0
   -8.1370    2.5991    0.4119 H   0  0  0  0  0  0  0  0  0  0  0  0
   -9.1545   -0.5667   -2.0125 H   0  0  0  0  0  0  0  0  0  0  0  0
   -6.9250   -1.6203   -1.7493 H   0  0  0  0  0  0  0  0  0  0  0  0
   -3.8195    0.5286   -1.7899 H   0  0  0  0  0  0  0  0  0  0  0  0
   -3.7091    1.2178   -0.1718 H   0  0  0  0  0  0  0  0  0  0  0  0
   -1.5387    0.2953   -0.8629 H   0  0  0  0  0  0  0  0  0  0  0  0
   -2.2375   -1.2746   -1.1647 H   0  0  0  0  0  0  0  0  0  0  0  0
  1  2  2  0
  2  3  1  0
  3  4  1  0
  4  5  2  0
  5  6  1  0
  6  7  1  0
  7  8  1  0
  8  9  2  0
  9 10  1  0
 10 11  2  0
 11 12  1  0
 12 13  1  0
 13 14  1  0
 13 15  1  0
 13 16  1  0
 12 17  2  0
  5 18  1  0
 18 19  1  0
  2 20  1  0
 20 21  1  0
 21 22  1  0
 22 23  1  0
 23 24  1  0
 24 25  2  0
 25 26  1  0
 26 27  2  0
 27 28  1  0
 28 29  2  0
 23 30  1  0
 30 31  1  0
 19  3  2  0
 31 20  1  0
 17  8  1  0
 29 24  1  0
  4 32  1  0
  6 33  1  0
  6 34  1  0
  9 35  1  0
 10 36  1  0
 11 37  1  0
 17 38  1  0
 21 39  1  0
 21 40  1  0
 22 41  1  0
 22 42  1  0
 23 43  1  0
 25 44  1  0
 26 45  1  0
 28 46  1  0
 29 47  1  0
 30 48  1  0
 30 49  1  0
 31 50  1  0
 31 51  1  0
M  END
$$$$
