
     RDKit          3D

 66 70  0  0  0  0  0  0  0  0999 V2000
    2.8343    0.1076   -0.5422 C   0  0  0  0  0  0  0  0  0  0  0  0
    2.7340    1.1545    0.5093 C   0  0  0  0  0  0  0  0  0  0  0  0
    2.0592    2.3628    0.4600 C   0  0  0  0  0  0  0  0  0  0  0  0
    1.1841    2.9667   -0.6108 C   0  0  0  0  0  0  0  0  0  0  0  0
   -0.3072    2.7157   -0.3412 C   0  0  0  0  0  0  0  0  0  0  0  0
   -0.8016    1.6056   -1.1158 O   0  0  0  0  0  0  0  0  0  0  0  0
   -0.7342    0.3743   -0.5431 C   0  0  0  0  0  0  0  0  0  0  0  0
   -0.1223    0.1075    0.4870 O   0  0  0  0  0  0  0  0  0  0  0  0
   -1.4835   -0.6434   -1.3726 C   0  0  0  0  0  0  0  0  0  0  0  0
   -2.9798   -0.7886   -1.0219 C   0  0  0  0  0  0  0  0  0  0  0  0
   -3.1872   -1.2233    0.4526 C   0  0  0  0  0  0  0  0  0  0  0  0
   -4.6837   -1.4160    0.7562 C   0  0  0  0  0  0  0  0  0  0  0  0
   -5.2591   -2.4978   -0.1696 C   0  0  0  0  0  0  0  0  0  0  0  0
   -5.0911   -2.0727   -1.6376 C   0  0  0  0  0  0  0  0  0  0  0  0
   -5.8308   -0.7482   -1.8784 C   0  0  0  0  0  0  0  0  0  0  0  0
   -5.2668    0.3567   -0.9584 C   0  0  0  0  0  0  0  0  0  0  0  0
   -6.0041    1.6779   -1.2052 C   0  0  0  0  0  0  0  0  0  0  0  0
   -5.4294   -0.0916    0.5130 C   0  0  0  0  0  0  0  0  0  0  0  0
   -3.7568    0.5318   -1.2590 C   0  0  0  0  0  0  0  0  0  0  0  0
   -3.5946   -1.8808   -1.9374 C   0  0  0  0  0  0  0  0  0  0  0  0
    2.3222    3.2397    1.9214 S   0  0  0  0  0  0  0  0  0  0  0  0
    3.2357    1.9692    2.5952 C   0  0  0  0  0  0  0  0  0  0  0  0
    3.3588    0.9610    1.7450 N   0  0  0  0  0  4  0  0  0  0  0  0
    4.0286   -0.2762    2.1627 C   0  0  0  0  0  0  0  0  0  0  0  0
    5.4238   -0.4078    1.5802 C   0  0  0  0  0  0  0  0  0  0  0  0
    5.9299   -1.6983    1.3314 C   0  0  0  0  0  0  0  0  0  0  0  0
    7.2407   -1.8873    0.8842 C   0  0  0  0  0  0  0  0  0  0  0  0
    8.0620   -0.7772    0.6750 C   0  0  0  0  0  0  0  0  0  0  0  0
    9.4463   -0.9664    0.2273 N   0  0  0  0  0  4  0  0  0  0  0  0
   10.0383    0.0220   -0.2350 O   0  0  0  0  0  0  0  0  0  0  0  0
    9.9337   -2.0951    0.3519 O   0  0  0  0  0  1  0  0  0  0  0  0
    7.5796    0.5154    0.9115 C   0  0  0  0  0  0  0  0  0  0  0  0
    6.2696    0.6951    1.3719 C   0  0  0  0  0  0  0  0  0  0  0  0
    2.4565   -0.8552   -0.1903 H   0  0  0  0  0  0  0  0  0  0  0  0
    3.8703   -0.0104   -0.8667 H   0  0  0  0  0  0  0  0  0  0  0  0
    2.2424    0.3673   -1.4291 H   0  0  0  0  0  0  0  0  0  0  0  0
    1.4764    2.5941   -1.5971 H   0  0  0  0  0  0  0  0  0  0  0  0
    1.3671    4.0479   -0.6121 H   0  0  0  0  0  0  0  0  0  0  0  0
   -0.8871    3.5887   -0.6723 H   0  0  0  0  0  0  0  0  0  0  0  0
   -0.5332    2.5696    0.7270 H   0  0  0  0  0  0  0  0  0  0  0  0
   -0.9634   -1.6031   -1.2414 H   0  0  0  0  0  0  0  0  0  0  0  0
   -1.3547   -0.3810   -2.4320 H   0  0  0  0  0  0  0  0  0  0  0  0
   -2.7805   -0.4695    1.1389 H   0  0  0  0  0  0  0  0  0  0  0  0
   -2.6457   -2.1575    0.6481 H   0  0  0  0  0  0  0  0  0  0  0  0
   -4.8082   -1.7229    1.8013 H   0  0  0  0  0  0  0  0  0  0  0  0
   -6.3224   -2.6596    0.0574 H   0  0  0  0  0  0  0  0  0  0  0  0
   -4.7462   -3.4532    0.0057 H   0  0  0  0  0  0  0  0  0  0  0  0
   -5.5020   -2.8468   -2.2950 H   0  0  0  0  0  0  0  0  0  0  0  0
   -6.9059   -0.8871   -1.6949 H   0  0  0  0  0  0  0  0  0  0  0  0
   -5.7253   -0.4533   -2.9321 H   0  0  0  0  0  0  0  0  0  0  0  0
   -7.0739    1.5848   -0.9820 H   0  0  0  0  0  0  0  0  0  0  0  0
   -5.9022    1.9910   -2.2535 H   0  0  0  0  0  0  0  0  0  0  0  0
   -5.5969    2.4774   -0.5786 H   0  0  0  0  0  0  0  0  0  0  0  0
   -6.4931   -0.2187    0.7520 H   0  0  0  0  0  0  0  0  0  0  0  0
   -5.0429    0.6793    1.1916 H   0  0  0  0  0  0  0  0  0  0  0  0
   -3.3547    1.3253   -0.6161 H   0  0  0  0  0  0  0  0  0  0  0  0
   -3.6201    0.8674   -2.2981 H   0  0  0  0  0  0  0  0  0  0  0  0
   -3.0711   -2.8363   -1.7902 H   0  0  0  0  0  0  0  0  0  0  0  0
   -3.4651   -1.6070   -2.9952 H   0  0  0  0  0  0  0  0  0  0  0  0
    3.6401    1.9880    3.5999 H   0  0  0  0  0  0  0  0  0  0  0  0
    3.3969   -1.1262    1.8757 H   0  0  0  0  0  0  0  0  0  0  0  0
    4.1105   -0.3009    3.2584 H   0  0  0  0  0  0  0  0  0  0  0  0
    5.3161   -2.5824    1.5000 H   0  0  0  0  0  0  0  0  0  0  0  0
    7.6070   -2.9001    0.7130 H   0  0  0  0  0  0  0  0  0  0  0  0
    8.2190    1.3839    0.7594 H   0  0  0  0  0  0  0  0  0  0  0  0
    5.9434    1.7136    1.5717 H   0  0  0  0  0  0  0  0  0  0  0  0
  1  2  1  0
  2  3  2  0
  3  4  1  0
  4  5  1  0
  5  6  1  0
  6  7  1  0
  7  8  2  0
  7  9  1  0
  9 10  1  0
 10 11  1  0
 11 12  1  0
 12 13  1  0
 13 14  1  0
 14 15  1  0
 15 16  1  0
 16 17  1  0
 16 18  1  0
 16 19  1  0
 14 20  1  0
  3 21  1  0
 21 22  1  0
 22 23  2  0
 23 24  1  0
 24 25  1  0
 25 26  2  0
 26 27  1  0
 27 28  2  0
 28 29  1  0
 29 30  2  0
 29 31  1  0
 28 32  1  0
 32 33  2  0
 23  2  1  0
 33 25  1  0
 19 10  1  0
 20 10  1  0
 18 12  1  0
  1 34  1  0
  1 35  1  0
  1 36  1  0
  4 37  1  0
  4 38  1  0
  5 39  1  0
  5 40  1  0
  9 41  1  0
  9 42  1  0
 11 43  1  0
 11 44  1  0
 12 45  1  0
 13 46  1  0
 13 47  1  0
 14 48  1  0
 15 49  1  0
 15 50  1  0
 17 51  1  0
 17 52  1  0
 17 53  1  0
 18 54  1  0
 18 55  1  0
 19 56  1  0
 19 57  1  0
 20 58  1  0
 20 59  1  0
 22 60  1  0
 24 61  1  0
 24 62  1  0
 26 63  1  0
 27 64  1  0
 32 65  1  0
 33 66  1  0
M  CHG  3  23   1  29   1  31  -1
M  END
$$$$
