
     RDKit          3D

 45 47  0  0  0  0  0  0  0  0999 V2000
   -5.8237    2.1973   -4.4640 C   0  0  0  0  0  0  0  0  0  0  0  0
   -5.7853    1.5031   -3.1346 C   0  0  0  0  0  0  0  0  0  0  0  0
   -6.8032    0.6162   -2.7693 C   0  0  0  0  0  0  0  0  0  0  0  0
   -6.7425   -0.0647   -1.5541 C   0  0  0  0  0  0  0  0  0  0  0  0
   -5.6616    0.1302   -0.6949 C   0  0  0  0  0  0  0  0  0  0  0  0
   -4.6277    1.0092   -1.0436 C   0  0  0  0  0  0  0  0  0  0  0  0
   -3.4574    1.2181   -0.1209 C   0  0  0  0  0  0  0  0  0  0  0  0
   -2.1470    0.0694   -0.5275 S   0  0  0  0  0  6  0  0  0  0  0  0
   -2.6136   -1.2784   -0.2447 O   0  0  0  0  0  0  0  0  0  0  0  0
   -1.6179    0.4218   -1.8336 O   0  0  0  0  0  0  0  0  0  0  0  0
   -0.9295    0.4931    0.7071 C   0  0  0  0  0  0  0  0  0  0  0  0
    0.3213   -0.2707    0.4918 C   0  0  0  0  0  0  0  0  0  0  0  0
    0.6271   -1.5691    0.1449 C   0  0  0  0  0  0  0  0  0  0  0  0
    2.0414   -1.6589    0.1282 C   0  0  0  0  0  0  0  0  0  0  0  0
    2.5310   -0.4147    0.4865 C   0  0  0  0  0  0  0  0  0  0  0  0
    3.8695    0.1247    0.6528 C   0  0  0  0  0  0  0  0  0  0  0  0
    4.0972    1.2845    0.9914 O   0  0  0  0  0  0  0  0  0  0  0  0
    4.8944   -0.7689    0.4104 N   0  0  0  0  0  0  0  0  0  0  0  0
    6.2691   -0.4346    0.6978 C   0  0  0  0  0  0  0  0  0  0  0  0
    6.5980   -0.9470    2.0495 C   0  0  0  0  0  0  0  0  0  0  0  0
    6.5984   -0.3737    3.3043 C   0  0  0  0  0  0  0  0  0  0  0  0
    6.9985   -1.3883    4.2061 C   0  0  0  0  0  0  0  0  0  0  0  0
    7.2118   -2.5145    3.4465 C   0  0  0  0  0  0  0  0  0  0  0  0
    6.9667   -2.2588    2.1353 O   0  0  0  0  0  0  0  0  0  0  0  0
    1.4721    0.4252    0.7158 O   0  0  0  0  0  0  0  0  0  0  0  0
   -4.6954    1.6838   -2.2726 C   0  0  0  0  0  0  0  0  0  0  0  0
   -5.3198    1.5867   -5.2194 H   0  0  0  0  0  0  0  0  0  0  0  0
   -5.3297    3.1730   -4.4091 H   0  0  0  0  0  0  0  0  0  0  0  0
   -6.8563    2.3743   -4.7829 H   0  0  0  0  0  0  0  0  0  0  0  0
   -7.6460    0.4430   -3.4345 H   0  0  0  0  0  0  0  0  0  0  0  0
   -7.5342   -0.7579   -1.2816 H   0  0  0  0  0  0  0  0  0  0  0  0
   -5.6268   -0.4241    0.2409 H   0  0  0  0  0  0  0  0  0  0  0  0
   -3.7449    1.0501    0.9218 H   0  0  0  0  0  0  0  0  0  0  0  0
   -3.0622    2.2345   -0.2140 H   0  0  0  0  0  0  0  0  0  0  0  0
   -1.3544    0.2677    1.6892 H   0  0  0  0  0  0  0  0  0  0  0  0
   -0.7481    1.5694    0.6276 H   0  0  0  0  0  0  0  0  0  0  0  0
   -0.0807   -2.3567   -0.0826 H   0  0  0  0  0  0  0  0  0  0  0  0
    2.6229   -2.5354   -0.1183 H   0  0  0  0  0  0  0  0  0  0  0  0
    4.6817   -1.7485    0.3023 H   0  0  0  0  0  0  0  0  0  0  0  0
    6.4307    0.6461    0.6363 H   0  0  0  0  0  0  0  0  0  0  0  0
    6.8915   -0.9202   -0.0603 H   0  0  0  0  0  0  0  0  0  0  0  0
    6.3338    0.6503    3.5324 H   0  0  0  0  0  0  0  0  0  0  0  0
    7.1140   -1.3102    5.2779 H   0  0  0  0  0  0  0  0  0  0  0  0
    7.5217   -3.5245    3.6759 H   0  0  0  0  0  0  0  0  0  0  0  0
   -3.8851    2.3479   -2.5718 H   0  0  0  0  0  0  0  0  0  0  0  0
  1  2  1  0
  2  3  2  0
  3  4  1  0
  4  5  2  0
  5  6  1  0
  6  7  1  0
  7  8  1  0
  8  9  2  0
  8 10  2  0
  8 11  1  0
 11 12  1  0
 12 13  2  0
 13 14  1  0
 14 15  2  0
 15 16  1  0
 16 17  2  0
 16 18  1  0
 18 19  1  0
 19 20  1  0
 20 21  2  0
 21 22  1  0
 22 23  2  0
 23 24  1  0
 15 25  1  0
  6 26  2  0
 26  2  1  0
 25 12  1  0
 24 20  1  0
  1 27  1  0
  1 28  1  0
  1 29  1  0
  3 30  1  0
  4 31  1  0
  5 32  1  0
  7 33  1  0
  7 34  1  0
 11 35  1  0
 11 36  1  0
 13 37  1  0
 14 38  1  0
 18 39  1  0
 19 40  1  0
 19 41  1  0
 21 42  1  0
 22 43  1  0
 23 44  1  0
 26 45  1  0
M  END
$$$$
