
     RDKit          3D

 59 62  0  0  0  0  0  0  0  0999 V2000
    5.9448   -1.3101   -6.9691 C   0  0  0  0  0  0  0  0  0  0  0  0
    5.2151   -0.4793   -5.9557 C   0  0  0  0  0  0  0  0  0  0  0  0
    5.7672   -0.2650   -4.6882 C   0  0  0  0  0  0  0  0  0  0  0  0
    5.1042    0.5326   -3.7531 C   0  0  0  0  0  0  0  0  0  0  0  0
    3.8848    1.1439   -4.0738 C   0  0  0  0  0  0  0  0  0  0  0  0
    3.1634    1.9809   -3.0498 C   0  0  0  0  0  0  0  0  0  0  0  0
    2.3871    1.1471   -2.1611 N   0  0  0  0  0  0  0  0  0  0  0  0
    2.8660    0.7593   -0.9287 C   0  0  0  0  0  0  0  0  0  0  0  0
    3.9086    1.1791   -0.4392 O   0  0  0  0  0  0  0  0  0  0  0  0
    1.9508   -0.2304   -0.2351 C   0  0  0  0  0  0  0  0  0  0  0  0
    2.5297   -0.7213    1.0906 C   0  0  0  0  0  0  0  0  0  0  0  0
    1.6824   -1.8165    1.7386 C   0  0  0  0  0  0  0  0  0  0  0  0
    0.3873   -1.3313    2.2049 N   0  0  0  0  0  0  0  0  0  0  0  0
    0.4022   -0.6808    3.4439 N   0  0  0  0  0  0  0  0  0  0  0  0
   -0.6875   -0.1840    3.9589 C   0  0  0  0  0  0  0  0  0  0  0  0
   -0.5973    0.5038    5.2913 C   0  0  0  0  0  0  0  0  0  0  0  0
   -1.9316   -0.3112    3.2405 C   0  0  0  0  0  0  0  0  0  0  0  0
   -3.2461    0.0267    3.5176 C   0  0  0  0  0  0  0  0  0  0  0  0
   -3.8525    0.5367    4.7745 C   0  0  0  0  0  0  0  0  0  0  0  0
   -3.9609   -0.2756    2.3513 N   0  0  0  0  0  0  0  0  0  0  0  0
   -5.3034    0.0400    1.9730 C   0  0  0  0  0  0  0  0  0  0  0  0
   -5.8905   -0.6664    0.9080 C   0  0  0  0  0  0  0  0  0  0  0  0
   -7.1985   -0.3894    0.5031 C   0  0  0  0  0  0  0  0  0  0  0  0
   -7.9299    0.6051    1.1453 C   0  0  0  0  0  0  0  0  0  0  0  0
   -7.3495    1.3313    2.1829 C   0  0  0  0  0  0  0  0  0  0  0  0
   -6.0397    1.0568    2.5929 C   0  0  0  0  0  0  0  0  0  0  0  0
   -3.1889   -0.9791    1.4781 N   0  0  0  0  0  0  0  0  0  0  0  0
   -1.9582   -0.9412    1.9925 C   0  0  0  0  0  0  0  0  0  0  0  0
   -0.7526   -1.4946    1.3897 C   0  0  0  0  0  0  0  0  0  0  0  0
   -0.7281   -2.0332    0.2843 O   0  0  0  0  0  0  0  0  0  0  0  0
    3.3358    0.9325   -5.3451 C   0  0  0  0  0  0  0  0  0  0  0  0
    4.0002    0.1347   -6.2804 C   0  0  0  0  0  0  0  0  0  0  0  0
    6.6564   -0.6881   -7.5207 H   0  0  0  0  0  0  0  0  0  0  0  0
    5.2467   -1.7636   -7.6807 H   0  0  0  0  0  0  0  0  0  0  0  0
    6.4888   -2.1269   -6.4833 H   0  0  0  0  0  0  0  0  0  0  0  0
    6.7167   -0.7210   -4.4169 H   0  0  0  0  0  0  0  0  0  0  0  0
    5.5419    0.6754   -2.7657 H   0  0  0  0  0  0  0  0  0  0  0  0
    3.8770    2.5924   -2.4861 H   0  0  0  0  0  0  0  0  0  0  0  0
    2.4662    2.6680   -3.5421 H   0  0  0  0  0  0  0  0  0  0  0  0
    1.6261    0.6191   -2.5677 H   0  0  0  0  0  0  0  0  0  0  0  0
    0.9890    0.2678   -0.0703 H   0  0  0  0  0  0  0  0  0  0  0  0
    1.7926   -1.0805   -0.9095 H   0  0  0  0  0  0  0  0  0  0  0  0
    2.6437    0.1247    1.7797 H   0  0  0  0  0  0  0  0  0  0  0  0
    3.5364   -1.1218    0.9173 H   0  0  0  0  0  0  0  0  0  0  0  0
    1.5364   -2.6457    1.0372 H   0  0  0  0  0  0  0  0  0  0  0  0
    2.2136   -2.2237    2.6073 H   0  0  0  0  0  0  0  0  0  0  0  0
   -1.0380   -0.1349    6.0612 H   0  0  0  0  0  0  0  0  0  0  0  0
   -1.1226    1.4618    5.2604 H   0  0  0  0  0  0  0  0  0  0  0  0
    0.4489    0.6895    5.5526 H   0  0  0  0  0  0  0  0  0  0  0  0
   -3.8422    1.6304    4.7950 H   0  0  0  0  0  0  0  0  0  0  0  0
   -4.8759    0.1758    4.9117 H   0  0  0  0  0  0  0  0  0  0  0  0
   -3.2993    0.1803    5.6479 H   0  0  0  0  0  0  0  0  0  0  0  0
   -5.3420   -1.4496    0.3860 H   0  0  0  0  0  0  0  0  0  0  0  0
   -7.6414   -0.9511   -0.3156 H   0  0  0  0  0  0  0  0  0  0  0  0
   -8.9466    0.8231    0.8283 H   0  0  0  0  0  0  0  0  0  0  0  0
   -7.9143    2.1241    2.6675 H   0  0  0  0  0  0  0  0  0  0  0  0
   -5.6209    1.6911    3.3643 H   0  0  0  0  0  0  0  0  0  0  0  0
    2.3879    1.3899   -5.6189 H   0  0  0  0  0  0  0  0  0  0  0  0
    3.5605   -0.0073   -7.2652 H   0  0  0  0  0  0  0  0  0  0  0  0
  1  2  1  0
  2  3  2  0
  3  4  1  0
  4  5  2  0
  5  6  1  0
  6  7  1  0
  7  8  1  0
  8  9  2  0
  8 10  1  0
 10 11  1  0
 11 12  1  0
 12 13  1  0
 13 14  1  0
 14 15  2  0
 15 16  1  0
 15 17  1  0
 17 18  2  0
 18 19  1  0
 18 20  1  0
 20 21  1  0
 21 22  2  0
 22 23  1  0
 23 24  2  0
 24 25  1  0
 25 26  2  0
 20 27  1  0
 27 28  2  0
 28 29  1  0
 29 30  2  0
  5 31  1  0
 31 32  2  0
 32  2  1  0
 29 13  1  0
 28 17  1  0
 26 21  1  0
  1 33  1  0
  1 34  1  0
  1 35  1  0
  3 36  1  0
  4 37  1  0
  6 38  1  0
  6 39  1  0
  7 40  1  0
 10 41  1  0
 10 42  1  0
 11 43  1  0
 11 44  1  0
 12 45  1  0
 12 46  1  0
 16 47  1  0
 16 48  1  0
 16 49  1  0
 19 50  1  0
 19 51  1  0
 19 52  1  0
 22 53  1  0
 23 54  1  0
 24 55  1  0
 25 56  1  0
 26 57  1  0
 31 58  1  0
 32 59  1  0
M  END
$$$$
