
     RDKit          3D

 41 41  0  0  0  0  0  0  0  0999 V2000
    3.9051   -1.4725    3.4940 C   0  0  0  0  0  0  0  0  0  0  0  0
    3.5984   -0.8086    2.1611 C   0  0  0  0  0  0  0  0  0  0  0  0
    2.1081   -0.8810    1.8292 C   0  0  0  0  0  0  0  0  0  0  0  0
    1.8038   -0.2120    0.4861 C   0  0  0  0  0  0  0  0  0  0  0  0
    0.3068   -0.2766    0.1613 C   0  0  0  0  0  0  0  0  0  0  0  0
   -0.0496    0.2181   -1.2669 C   0  0  0  0  0  0  0  0  0  0  0  0
    0.4290    1.6486   -1.5361 C   0  0  0  0  0  0  0  0  0  0  0  0
   -0.3156    2.6395   -0.6608 C   0  0  0  0  0  0  0  0  0  0  0  0
    0.3673    3.6288   -0.1719 N   0  0  0  0  0  0  0  0  0  0  0  0
   -0.4245    4.4829    0.6039 O   0  0  0  0  0  0  0  0  0  0  0  0
   -1.7803    2.4078   -0.4841 C   0  0  0  0  0  0  0  0  0  0  0  0
   -2.3647    1.2789   -0.9284 C   0  0  0  0  0  0  0  0  0  0  0  0
   -3.8646    1.1484   -0.8794 C   0  0  0  0  0  0  0  0  0  0  0  0
   -1.5732    0.1433   -1.5733 C   0  0  0  0  0  0  0  0  0  0  0  0
   -2.0966   -1.2663   -1.2556 C   0  0  0  0  0  0  0  0  0  0  0  0
   -2.7231   -1.5941   -0.2575 O   0  0  0  0  0  0  0  0  0  0  0  0
   -1.7241   -2.1245   -2.2522 O   0  0  0  0  0  0  0  0  0  0  0  0
   -2.1359   -3.4753   -2.0387 C   0  0  0  0  0  0  0  0  0  0  0  0
    4.9759   -1.4092    3.7115 H   0  0  0  0  0  0  0  0  0  0  0  0
    3.3632   -0.9835    4.3097 H   0  0  0  0  0  0  0  0  0  0  0  0
    3.6234   -2.5302    3.4794 H   0  0  0  0  0  0  0  0  0  0  0  0
    3.9215    0.2383    2.1983 H   0  0  0  0  0  0  0  0  0  0  0  0
    4.1799   -1.2999    1.3723 H   0  0  0  0  0  0  0  0  0  0  0  0
    1.7900   -1.9302    1.7985 H   0  0  0  0  0  0  0  0  0  0  0  0
    1.5304   -0.3910    2.6225 H   0  0  0  0  0  0  0  0  0  0  0  0
    2.1352    0.8311    0.5303 H   0  0  0  0  0  0  0  0  0  0  0  0
    2.3751   -0.7070   -0.3081 H   0  0  0  0  0  0  0  0  0  0  0  0
   -0.0102   -1.3213    0.2638 H   0  0  0  0  0  0  0  0  0  0  0  0
   -0.2488    0.2900    0.9178 H   0  0  0  0  0  0  0  0  0  0  0  0
    0.4697   -0.4449   -1.9729 H   0  0  0  0  0  0  0  0  0  0  0  0
    1.5081    1.7484   -1.3826 H   0  0  0  0  0  0  0  0  0  0  0  0
    0.2382    1.9229   -2.5816 H   0  0  0  0  0  0  0  0  0  0  0  0
    0.2229    5.1457    0.9087 H   0  0  0  0  0  0  0  0  0  0  0  0
   -2.3502    3.2092   -0.0278 H   0  0  0  0  0  0  0  0  0  0  0  0
   -4.3501    2.1063   -0.6619 H   0  0  0  0  0  0  0  0  0  0  0  0
   -4.1742    0.4438   -0.1029 H   0  0  0  0  0  0  0  0  0  0  0  0
   -4.2494    0.8049   -1.8452 H   0  0  0  0  0  0  0  0  0  0  0  0
   -1.7172    0.2786   -2.6564 H   0  0  0  0  0  0  0  0  0  0  0  0
   -1.7923   -4.0722   -2.8880 H   0  0  0  0  0  0  0  0  0  0  0  0
   -1.6801   -3.8750   -1.1275 H   0  0  0  0  0  0  0  0  0  0  0  0
   -3.2274   -3.5402   -1.9887 H   0  0  0  0  0  0  0  0  0  0  0  0
  1  2  1  0
  2  3  1  0
  3  4  1  0
  4  5  1  0
  5  6  1  0
  6  7  1  0
  7  8  1  0
  8  9  2  3
  9 10  1  0
  8 11  1  0
 11 12  2  0
 12 13  1  0
 12 14  1  0
 14 15  1  0
 15 16  2  0
 15 17  1  0
 17 18  1  0
 14  6  1  0
  1 19  1  0
  1 20  1  0
  1 21  1  0
  2 22  1  0
  2 23  1  0
  3 24  1  0
  3 25  1  0
  4 26  1  0
  4 27  1  0
  5 28  1  0
  5 29  1  0
  6 30  1  0
  7 31  1  0
  7 32  1  0
 10 33  1  0
 11 34  1  0
 13 35  1  0
 13 36  1  0
 13 37  1  0
 14 38  1  0
 18 39  1  0
 18 40  1  0
 18 41  1  0
M  END
$$$$
