
     RDKit          3D

 36 38  0  0  0  0  0  0  0  0999 V2000
   -0.6554    2.2189   -2.0718 C   0  0  0  0  0  0  0  0  0  0  0  0
   -1.0729    0.7746   -2.3149 C   0  0  0  0  0  0  0  0  0  0  0  0
   -1.5169    0.1215   -1.0783 N   0  0  0  0  0  0  0  0  0  0  0  0
   -0.6551   -0.5128   -0.1994 C   0  0  0  0  0  0  0  0  0  0  0  0
    0.7727   -0.6104   -0.5905 C   0  0  0  0  0  0  0  0  0  0  0  0
    1.6916   -0.1062    0.2441 C   0  0  0  0  0  0  0  0  0  0  0  0
    3.0869   -0.1602   -0.0227 C   0  0  0  0  0  0  0  0  0  0  0  0
    3.8098   -0.7590   -1.0558 C   0  0  0  0  0  0  0  0  0  0  0  0
    5.1894   -0.5102   -0.8400 C   0  0  0  0  0  0  0  0  0  0  0  0
    5.2386    0.2274    0.3130 C   0  0  0  0  0  0  0  0  0  0  0  0
    6.3347    0.7806    1.0426 N   0  0  0  0  0  4  0  0  0  0  0  0
    6.0842    1.4232    2.0698 O   0  0  0  0  0  0  0  0  0  0  0  0
    7.4629    0.5693    0.5762 O   0  0  0  0  0  1  0  0  0  0  0  0
    4.0002    0.4483    0.8168 O   0  0  0  0  0  0  0  0  0  0  0  0
   -1.0236   -1.0330    0.9296 N   0  0  0  0  0  0  0  0  0  0  0  0
   -2.3693   -0.9562    1.2982 C   0  0  0  0  0  0  0  0  0  0  0  0
   -2.7727   -1.5302    2.5062 C   0  0  0  0  0  0  0  0  0  0  0  0
   -4.1092   -1.4723    2.9114 C   0  0  0  0  0  0  0  0  0  0  0  0
   -5.0555   -0.8367    2.1083 C   0  0  0  0  0  0  0  0  0  0  0  0
   -4.6640   -0.2599    0.9008 C   0  0  0  0  0  0  0  0  0  0  0  0
   -3.3222   -0.3260    0.5053 C   0  0  0  0  0  0  0  0  0  0  0  0
   -2.8688    0.2744   -0.7596 C   0  0  0  0  0  0  0  0  0  0  0  0
   -3.6773    0.8802   -1.4602 O   0  0  0  0  0  0  0  0  0  0  0  0
    0.1731    2.2801   -1.3594 H   0  0  0  0  0  0  0  0  0  0  0  0
   -1.4857    2.8066   -1.6670 H   0  0  0  0  0  0  0  0  0  0  0  0
   -0.3342    2.6833   -3.0092 H   0  0  0  0  0  0  0  0  0  0  0  0
   -0.2423    0.2217   -2.7620 H   0  0  0  0  0  0  0  0  0  0  0  0
   -1.8850    0.7546   -3.0510 H   0  0  0  0  0  0  0  0  0  0  0  0
    1.0025   -1.1145   -1.5186 H   0  0  0  0  0  0  0  0  0  0  0  0
    1.3864    0.3727    1.1727 H   0  0  0  0  0  0  0  0  0  0  0  0
    3.3870   -1.3225   -1.8769 H   0  0  0  0  0  0  0  0  0  0  0  0
    6.0295   -0.8282   -1.4422 H   0  0  0  0  0  0  0  0  0  0  0  0
   -2.0367   -2.0251    3.1349 H   0  0  0  0  0  0  0  0  0  0  0  0
   -4.4088   -1.9230    3.8545 H   0  0  0  0  0  0  0  0  0  0  0  0
   -6.0953   -0.7896    2.4228 H   0  0  0  0  0  0  0  0  0  0  0  0
   -5.3985    0.2385    0.2723 H   0  0  0  0  0  0  0  0  0  0  0  0
  1  2  1  0
  2  3  1  0
  3  4  1  0
  4  5  1  0
  5  6  2  3
  6  7  1  0
  7  8  2  0
  8  9  1  0
  9 10  2  0
 10 11  1  0
 11 12  2  0
 11 13  1  0
 10 14  1  0
  4 15  2  0
 15 16  1  0
 16 17  2  0
 17 18  1  0
 18 19  2  0
 19 20  1  0
 20 21  2  0
 21 22  1  0
 22 23  2  0
 22  3  1  0
 14  7  1  0
 21 16  1  0
  1 24  1  0
  1 25  1  0
  1 26  1  0
  2 27  1  0
  2 28  1  0
  5 29  1  0
  6 30  1  0
  8 31  1  0
  9 32  1  0
 17 33  1  0
 18 34  1  0
 19 35  1  0
 20 36  1  0
M  CHG  2  11   1  13  -1
M  END
$$$$
