
     RDKit          3D

 43 46  0  0  0  0  0  0  0  0999 V2000
   -5.2778   -2.8537    1.0132 C   0  0  0  0  0  0  0  0  0  0  0  0
   -3.9036   -2.4699    0.5002 C   0  0  0  0  0  0  0  0  0  0  0  0
   -3.8840   -1.0539    0.2927 O   0  0  0  0  0  0  0  0  0  0  0  0
   -2.6945   -0.5683   -0.1595 C   0  0  0  0  0  0  0  0  0  0  0  0
   -1.7101   -1.2556   -0.4035 O   0  0  0  0  0  0  0  0  0  0  0  0
   -2.7718    0.8730   -0.3191 C   0  0  0  0  0  0  0  0  0  0  0  0
   -3.8706    1.6995   -0.1108 C   0  0  0  0  0  0  0  0  0  0  0  0
   -3.4428    3.0268   -0.3803 C   0  0  0  0  0  0  0  0  0  0  0  0
   -4.0863    4.6340   -0.3876 S   0  0  0  0  0  0  0  0  0  0  0  0
   -2.5488    5.2421   -0.8596 C   0  0  0  0  0  0  0  0  0  0  0  0
   -1.5806    4.2729   -1.0147 C   0  0  0  0  0  0  0  0  0  0  0  0
   -2.1286    2.9894   -0.7347 C   0  0  0  0  0  0  0  0  0  0  0  0
   -1.7111    1.6748   -0.7090 N   0  0  0  0  0  0  0  0  0  0  0  0
   -0.3628    1.2533   -1.0671 C   0  0  0  0  0  0  0  0  0  0  0  0
    0.5054    0.9790    0.1461 C   0  0  0  0  0  0  0  0  0  0  0  0
    0.3463    1.5528    1.2232 O   0  0  0  0  0  0  0  0  0  0  0  0
    1.6705    0.0607    0.0003 C   0  0  0  0  0  0  0  0  0  0  0  0
    1.6604   -1.0374   -0.8688 C   0  0  0  0  0  0  0  0  0  0  0  0
    2.7885   -1.8573   -0.9758 C   0  0  0  0  0  0  0  0  0  0  0  0
    3.9237   -1.5857   -0.2160 C   0  0  0  0  0  0  0  0  0  0  0  0
    3.9231   -0.5153    0.6824 C   0  0  0  0  0  0  0  0  0  0  0  0
    2.8056    0.3114    0.7845 C   0  0  0  0  0  0  0  0  0  0  0  0
    4.9902   -0.2128    1.4888 O   0  0  0  0  0  0  0  0  0  0  0  0
    5.9114   -1.3070    1.5654 C   0  0  0  0  0  0  0  0  0  0  0  0
    6.1890   -1.8690    0.1809 C   0  0  0  0  0  0  0  0  0  0  0  0
    4.9970   -2.4200   -0.3920 O   0  0  0  0  0  0  0  0  0  0  0  0
   -5.3423   -3.9314    1.1873 H   0  0  0  0  0  0  0  0  0  0  0  0
   -6.0520   -2.5643    0.2949 H   0  0  0  0  0  0  0  0  0  0  0  0
   -5.4999   -2.3302    1.9489 H   0  0  0  0  0  0  0  0  0  0  0  0
   -3.7052   -2.9852   -0.4463 H   0  0  0  0  0  0  0  0  0  0  0  0
   -3.1427   -2.7470    1.2385 H   0  0  0  0  0  0  0  0  0  0  0  0
   -4.8589    1.3898    0.2029 H   0  0  0  0  0  0  0  0  0  0  0  0
   -2.4329    6.3083   -0.9985 H   0  0  0  0  0  0  0  0  0  0  0  0
   -0.5576    4.4790   -1.3002 H   0  0  0  0  0  0  0  0  0  0  0  0
    0.1059    2.0565   -1.6458 H   0  0  0  0  0  0  0  0  0  0  0  0
   -0.4675    0.3960   -1.7325 H   0  0  0  0  0  0  0  0  0  0  0  0
    0.7816   -1.3010   -1.4502 H   0  0  0  0  0  0  0  0  0  0  0  0
    2.7801   -2.7095   -1.6509 H   0  0  0  0  0  0  0  0  0  0  0  0
    2.8197    1.1452    1.4836 H   0  0  0  0  0  0  0  0  0  0  0  0
    5.4926   -2.0703    2.2329 H   0  0  0  0  0  0  0  0  0  0  0  0
    6.8362   -0.9312    2.0141 H   0  0  0  0  0  0  0  0  0  0  0  0
    6.9303   -2.6721    0.2399 H   0  0  0  0  0  0  0  0  0  0  0  0
    6.5747   -1.0964   -0.4957 H   0  0  0  0  0  0  0  0  0  0  0  0
  1  2  1  0
  2  3  1  0
  3  4  1  0
  4  5  2  0
  4  6  1  0
  6  7  2  0
  7  8  1  0
  8  9  1  0
  9 10  1  0
 10 11  2  0
 11 12  1  0
 12 13  1  0
 13 14  1  0
 14 15  1  0
 15 16  2  0
 15 17  1  0
 17 18  2  0
 18 19  1  0
 19 20  2  0
 20 21  1  0
 21 22  2  0
 21 23  1  0
 23 24  1  0
 24 25  1  0
 25 26  1  0
 13  6  1  0
 22 17  1  0
 12  8  2  0
 26 20  1  0
  1 27  1  0
  1 28  1  0
  1 29  1  0
  2 30  1  0
  2 31  1  0
  7 32  1  0
 10 33  1  0
 11 34  1  0
 14 35  1  0
 14 36  1  0
 18 37  1  0
 19 38  1  0
 22 39  1  0
 24 40  1  0
 24 41  1  0
 25 42  1  0
 25 43  1  0
M  END
$$$$
