
     RDKit          3D

 60 63  0  0  0  0  0  0  0  0999 V2000
   -9.0255    1.5957   -0.4858 C   0  0  0  0  0  0  0  0  0  0  0  0
   -7.8708    1.1704    0.4190 C   0  0  0  0  0  0  0  0  0  0  0  0
   -8.4169    0.5693    1.7108 C   0  0  0  0  0  0  0  0  0  0  0  0
   -7.1262    0.1843   -0.3025 O   0  0  0  0  0  0  0  0  0  0  0  0
   -5.7952    0.0271   -0.0421 C   0  0  0  0  0  0  0  0  0  0  0  0
   -5.1469   -0.8858   -0.8731 C   0  0  0  0  0  0  0  0  0  0  0  0
   -3.7816   -1.1516   -0.7190 C   0  0  0  0  0  0  0  0  0  0  0  0
   -3.0178   -0.5097    0.2700 C   0  0  0  0  0  0  0  0  0  0  0  0
   -1.5754   -0.7970    0.4177 C   0  0  0  0  0  0  0  0  0  0  0  0
   -0.6613    0.1397    0.8657 C   0  0  0  0  0  0  0  0  0  0  0  0
    0.6806   -0.2299    0.9667 C   0  0  0  0  0  0  0  0  0  0  0  0
    1.6095    0.8363    1.4012 C   0  0  0  0  0  0  0  0  0  0  0  0
    1.3880    1.4613    2.4303 O   0  0  0  0  0  0  0  0  0  0  0  0
    2.6593    1.0872    0.5537 N   0  0  0  0  0  0  0  0  0  0  0  0
    3.7201    2.0128    0.8994 C   0  0  0  0  0  0  0  0  0  0  0  0
    4.6739    2.2324   -0.2886 C   0  0  0  0  0  0  0  0  0  0  0  0
    5.0772    0.9687   -0.9417 N   0  0  0  0  0  0  0  0  0  0  0  0
    5.6489    1.2406   -2.2802 C   0  0  0  0  0  0  0  0  0  0  0  0
    6.5033    0.0672   -2.7807 C   0  0  0  0  0  0  0  0  0  0  0  0
    7.6562   -0.1685   -1.9609 O   0  0  0  0  0  0  0  0  0  0  0  0
    7.4804    0.2583   -0.6044 C   0  0  0  0  0  0  0  0  0  0  0  0
    6.0212    0.1692   -0.1281 C   0  0  0  0  0  0  0  0  0  0  0  0
    1.1026   -1.5426    0.6640 C   0  0  0  0  0  0  0  0  0  0  0  0
    2.4254   -2.0363    0.8129 C   0  0  0  0  0  0  0  0  0  0  0  0
    2.7481   -3.3484    0.4725 C   0  0  0  0  0  0  0  0  0  0  0  0
    1.7570   -4.1899   -0.0094 C   0  0  0  0  0  0  0  0  0  0  0  0
    0.4495   -3.7158   -0.1356 C   0  0  0  0  0  0  0  0  0  0  0  0
    0.1015   -2.4137    0.1991 C   0  0  0  0  0  0  0  0  0  0  0  0
   -1.1848   -2.0481    0.0683 N   0  0  0  0  0  0  0  0  0  0  0  0
   -3.6920    0.3975    1.1069 C   0  0  0  0  0  0  0  0  0  0  0  0
   -5.0617    0.6640    0.9543 C   0  0  0  0  0  0  0  0  0  0  0  0
   -9.6533    2.3503   -0.0021 H   0  0  0  0  0  0  0  0  0  0  0  0
   -9.6515    0.7381   -0.7564 H   0  0  0  0  0  0  0  0  0  0  0  0
   -8.6405    2.0117   -1.4231 H   0  0  0  0  0  0  0  0  0  0  0  0
   -7.2718    2.0656    0.6206 H   0  0  0  0  0  0  0  0  0  0  0  0
   -9.0367    1.2914    2.2513 H   0  0  0  0  0  0  0  0  0  0  0  0
   -9.0189   -0.3224    1.5027 H   0  0  0  0  0  0  0  0  0  0  0  0
   -7.6070    0.2494    2.3736 H   0  0  0  0  0  0  0  0  0  0  0  0
   -5.7074   -1.4005   -1.6499 H   0  0  0  0  0  0  0  0  0  0  0  0
   -3.3111   -1.8729   -1.3856 H   0  0  0  0  0  0  0  0  0  0  0  0
   -0.9622    1.1528    1.1130 H   0  0  0  0  0  0  0  0  0  0  0  0
    2.8311    0.4924   -0.2515 H   0  0  0  0  0  0  0  0  0  0  0  0
    4.2480    1.6015    1.7662 H   0  0  0  0  0  0  0  0  0  0  0  0
    3.2711    2.9631    1.2088 H   0  0  0  0  0  0  0  0  0  0  0  0
    4.1283    2.8408   -1.0224 H   0  0  0  0  0  0  0  0  0  0  0  0
    5.5457    2.8173    0.0293 H   0  0  0  0  0  0  0  0  0  0  0  0
    6.2807    2.1383   -2.2497 H   0  0  0  0  0  0  0  0  0  0  0  0
    4.8317    1.4266   -2.9858 H   0  0  0  0  0  0  0  0  0  0  0  0
    6.8596    0.2665   -3.7965 H   0  0  0  0  0  0  0  0  0  0  0  0
    5.9148   -0.8571   -2.8176 H   0  0  0  0  0  0  0  0  0  0  0  0
    7.8551    1.2848   -0.5159 H   0  0  0  0  0  0  0  0  0  0  0  0
    8.1180   -0.3742    0.0217 H   0  0  0  0  0  0  0  0  0  0  0  0
    5.6984   -0.8762   -0.2129 H   0  0  0  0  0  0  0  0  0  0  0  0
    5.9682    0.4212    0.9360 H   0  0  0  0  0  0  0  0  0  0  0  0
    3.2148   -1.4033    1.2127 H   0  0  0  0  0  0  0  0  0  0  0  0
    3.7661   -3.7109    0.5904 H   0  0  0  0  0  0  0  0  0  0  0  0
    1.9900   -5.2172   -0.2773 H   0  0  0  0  0  0  0  0  0  0  0  0
   -0.3261   -4.3868   -0.4996 H   0  0  0  0  0  0  0  0  0  0  0  0
   -3.1639    0.9007    1.9147 H   0  0  0  0  0  0  0  0  0  0  0  0
   -5.5178    1.3643    1.6450 H   0  0  0  0  0  0  0  0  0  0  0  0
  1  2  1  0
  2  3  1  0
  2  4  1  0
  4  5  1  0
  5  6  2  0
  6  7  1  0
  7  8  2  0
  8  9  1  0
  9 10  2  0
 10 11  1  0
 11 12  1  0
 12 13  2  0
 12 14  1  0
 14 15  1  0
 15 16  1  0
 16 17  1  0
 17 18  1  0
 18 19  1  0
 19 20  1  0
 20 21  1  0
 21 22  1  0
 11 23  2  0
 23 24  1  0
 24 25  2  0
 25 26  1  0
 26 27  2  0
 27 28  1  0
 28 29  2  0
  8 30  1  0
 30 31  2  0
 31  5  1  0
 29  9  1  0
 22 17  1  0
 28 23  1  0
  1 32  1  0
  1 33  1  0
  1 34  1  0
  2 35  1  0
  3 36  1  0
  3 37  1  0
  3 38  1  0
  6 39  1  0
  7 40  1  0
 10 41  1  0
 14 42  1  0
 15 43  1  0
 15 44  1  0
 16 45  1  0
 16 46  1  0
 18 47  1  0
 18 48  1  0
 19 49  1  0
 19 50  1  0
 21 51  1  0
 21 52  1  0
 22 53  1  0
 22 54  1  0
 24 55  1  0
 25 56  1  0
 26 57  1  0
 27 58  1  0
 30 59  1  0
 31 60  1  0
M  END
$$$$
