
     RDKit          3D

 52 55  0  0  0  0  0  0  0  0999 V2000
    7.7446    1.2412    1.2910 C   0  0  0  0  0  0  0  0  0  0  0  0
    6.3011    0.9972    0.9546 C   0  0  0  0  0  0  0  0  0  0  0  0
    5.3825    2.0560    1.0075 C   0  0  0  0  0  0  0  0  0  0  0  0
    4.0369    1.8741    0.6701 C   0  0  0  0  0  0  0  0  0  0  0  0
    3.6625    0.5936    0.2731 C   0  0  0  0  0  0  0  0  0  0  0  0
    2.4099    0.2228   -0.0961 O   0  0  0  0  0  0  0  0  0  0  0  0
    2.4464   -1.1121   -0.4035 C   0  0  0  0  0  0  0  0  0  0  0  0
    1.2420   -1.7741   -0.8853 C   0  0  0  0  0  0  0  0  0  0  0  0
    1.3100   -2.7419   -1.6461 O   0  0  0  0  0  0  0  0  0  0  0  0
   -0.0079   -1.2626   -0.4876 N   0  0  0  0  0  0  0  0  0  0  0  0
   -1.1900   -1.8523   -1.1045 C   0  0  0  0  0  0  0  0  0  0  0  0
   -2.3706   -0.8842   -1.1080 C   0  0  0  0  0  0  0  0  0  0  0  0
   -2.6617   -0.3110    0.2916 C   0  0  0  0  0  0  0  0  0  0  0  0
   -3.0636   -1.3930    1.1486 O   0  0  0  0  0  0  0  0  0  0  0  0
   -3.8366    0.6726    0.2297 C   0  0  0  0  0  0  0  0  0  0  0  0
   -3.6995    2.0493    0.4608 C   0  0  0  0  0  0  0  0  0  0  0  0
   -4.8026    2.9053    0.3948 C   0  0  0  0  0  0  0  0  0  0  0  0
   -6.0670    2.4040    0.0943 C   0  0  0  0  0  0  0  0  0  0  0  0
   -6.2430    1.0380   -0.1511 C   0  0  0  0  0  0  0  0  0  0  0  0
   -7.6098    0.4752   -0.4557 C   0  0  0  0  0  0  0  0  0  0  0  0
   -8.4817    1.4048   -0.9379 F   0  0  0  0  0  0  0  0  0  0  0  0
   -7.5794   -0.5212   -1.3840 F   0  0  0  0  0  0  0  0  0  0  0  0
   -8.2047   -0.0584    0.6470 F   0  0  0  0  0  0  0  0  0  0  0  0
   -5.1267    0.1869   -0.0737 C   0  0  0  0  0  0  0  0  0  0  0  0
   -1.3620    0.2685    0.8845 C   0  0  0  0  0  0  0  0  0  0  0  0
   -0.2298   -0.7537    0.8649 C   0  0  0  0  0  0  0  0  0  0  0  0
    3.7455   -1.5898   -0.2604 C   0  0  0  0  0  0  0  0  0  0  0  0
    4.2110   -2.9733   -0.5349 C   0  0  0  0  0  0  0  0  0  0  0  0
    4.5302   -0.4853    0.1929 C   0  0  0  0  0  0  0  0  0  0  0  0
    5.8818   -0.2791    0.5326 C   0  0  0  0  0  0  0  0  0  0  0  0
    7.8331    1.9394    2.1299 H   0  0  0  0  0  0  0  0  0  0  0  0
    8.2650    1.6575    0.4231 H   0  0  0  0  0  0  0  0  0  0  0  0
    8.2434    0.3124    1.5873 H   0  0  0  0  0  0  0  0  0  0  0  0
    5.7143    3.0465    1.3148 H   0  0  0  0  0  0  0  0  0  0  0  0
    3.3205    2.6852    0.7074 H   0  0  0  0  0  0  0  0  0  0  0  0
   -0.9667   -2.1400   -2.1384 H   0  0  0  0  0  0  0  0  0  0  0  0
   -1.4335   -2.7718   -0.5582 H   0  0  0  0  0  0  0  0  0  0  0  0
   -2.1565   -0.0615   -1.8035 H   0  0  0  0  0  0  0  0  0  0  0  0
   -3.2414   -1.4216   -1.5030 H   0  0  0  0  0  0  0  0  0  0  0  0
   -3.5846   -1.0098    1.8768 H   0  0  0  0  0  0  0  0  0  0  0  0
   -2.7357    2.4934    0.6954 H   0  0  0  0  0  0  0  0  0  0  0  0
   -4.6720    3.9696    0.5787 H   0  0  0  0  0  0  0  0  0  0  0  0
   -6.9151    3.0856    0.0494 H   0  0  0  0  0  0  0  0  0  0  0  0
   -5.2670   -0.8809   -0.2535 H   0  0  0  0  0  0  0  0  0  0  0  0
   -1.0359    1.1446    0.3098 H   0  0  0  0  0  0  0  0  0  0  0  0
   -1.5235    0.5876    1.9217 H   0  0  0  0  0  0  0  0  0  0  0  0
    0.6677   -0.3088    1.2958 H   0  0  0  0  0  0  0  0  0  0  0  0
   -0.4672   -1.6153    1.5018 H   0  0  0  0  0  0  0  0  0  0  0  0
    3.5357   -3.7072   -0.0832 H   0  0  0  0  0  0  0  0  0  0  0  0
    4.2506   -3.1538   -1.6139 H   0  0  0  0  0  0  0  0  0  0  0  0
    5.2105   -3.1487   -0.1255 H   0  0  0  0  0  0  0  0  0  0  0  0
    6.5906   -1.1000    0.4688 H   0  0  0  0  0  0  0  0  0  0  0  0
  1  2  1  0
  2  3  2  0
  3  4  1  0
  4  5  2  0
  5  6  1  0
  6  7  1  0
  7  8  1  0
  8  9  2  0
  8 10  1  0
 10 11  1  0
 11 12  1  0
 12 13  1  0
 13 14  1  0
 13 15  1  0
 15 16  2  0
 16 17  1  0
 17 18  2  0
 18 19  1  0
 19 20  1  0
 20 21  1  0
 20 22  1  0
 20 23  1  0
 19 24  2  0
 13 25  1  0
 25 26  1  0
  7 27  2  0
 27 28  1  0
 27 29  1  0
 29 30  2  0
 30  2  1  0
 29  5  1  0
 26 10  1  0
 24 15  1  0
  1 31  1  0
  1 32  1  0
  1 33  1  0
  3 34  1  0
  4 35  1  0
 11 36  1  0
 11 37  1  0
 12 38  1  0
 12 39  1  0
 14 40  1  0
 16 41  1  0
 17 42  1  0
 18 43  1  0
 24 44  1  0
 25 45  1  0
 25 46  1  0
 26 47  1  0
 26 48  1  0
 28 49  1  0
 28 50  1  0
 28 51  1  0
 30 52  1  0
M  END
$$$$
