
     RDKit          3D

 52 55  0  0  0  0  0  0  0  0999 V2000
    3.2551   -1.6117    1.7502 O   0  0  0  0  0  0  0  0  0  0  0  0
    3.2343   -0.4950    1.2400 C   0  0  0  0  0  0  0  0  0  0  0  0
    2.2890    0.4676    1.5582 N   0  0  0  0  0  0  0  0  0  0  0  0
    1.2148    0.0433    2.3913 N   0  0  0  0  0  0  0  0  0  0  0  0
   -0.0195    0.0241    1.6931 C   0  0  0  0  0  0  0  0  0  0  0  0
   -0.5901    1.1988    1.2534 C   0  0  0  0  0  0  0  0  0  0  0  0
   -1.7823    1.1076    0.5715 C   0  0  0  0  0  0  0  0  0  0  0  0
   -2.4120    2.2359    0.0740 N   0  0  0  0  0  0  0  0  0  0  0  0
   -2.3575    3.5154    0.7802 C   0  0  0  0  0  0  0  0  0  0  0  0
   -3.7116    4.1693    0.4979 C   0  0  0  0  0  0  0  0  0  0  0  0
   -4.1766    3.5003   -0.7853 C   0  0  0  0  0  0  0  0  0  0  0  0
   -3.6996    2.0648   -0.5955 C   0  0  0  0  0  0  0  0  0  0  0  0
   -2.3319   -0.0943    0.3331 N   0  0  0  0  0  0  0  0  0  0  0  0
   -1.7357   -1.1986    0.8085 C   0  0  0  0  0  0  0  0  0  0  0  0
   -2.3362   -2.4119    0.5915 N   0  0  0  0  0  0  0  0  0  0  0  0
   -3.4085   -2.5333   -0.3766 C   0  0  0  0  0  0  0  0  0  0  0  0
   -3.6466   -4.0399   -0.4240 C   0  0  0  0  0  0  0  0  0  0  0  0
   -2.2440   -4.6050   -0.2492 C   0  0  0  0  0  0  0  0  0  0  0  0
   -1.5863   -3.6474    0.7482 C   0  0  0  0  0  0  0  0  0  0  0  0
   -0.5906   -1.1670    1.4989 N   0  0  0  0  0  0  0  0  0  0  0  0
    4.2299   -0.1245    0.1973 C   0  0  0  0  0  0  0  0  0  0  0  0
    4.6064    1.2066   -0.0343 C   0  0  0  0  0  0  0  0  0  0  0  0
    5.5511    1.5071   -1.0226 C   0  0  0  0  0  0  0  0  0  0  0  0
    6.1244    0.4713   -1.7747 C   0  0  0  0  0  0  0  0  0  0  0  0
    7.1157    0.7872   -2.8119 N   0  0  0  0  0  4  0  0  0  0  0  0
    7.6073   -0.1563   -3.4464 O   0  0  0  0  0  0  0  0  0  0  0  0
    7.3983    1.9803   -2.9916 O   0  0  0  0  0  1  0  0  0  0  0  0
    5.7640   -0.8616   -1.5400 C   0  0  0  0  0  0  0  0  0  0  0  0
    4.8205   -1.1544   -0.5505 C   0  0  0  0  0  0  0  0  0  0  0  0
    2.1099    1.2622    0.9549 H   0  0  0  0  0  0  0  0  0  0  0  0
    1.3700   -0.9466    2.6417 H   0  0  0  0  0  0  0  0  0  0  0  0
   -0.1132    2.1485    1.4441 H   0  0  0  0  0  0  0  0  0  0  0  0
   -1.5428    4.1234    0.3717 H   0  0  0  0  0  0  0  0  0  0  0  0
   -2.2146    3.4100    1.8618 H   0  0  0  0  0  0  0  0  0  0  0  0
   -3.6398    5.2570    0.4094 H   0  0  0  0  0  0  0  0  0  0  0  0
   -4.4114    3.9406    1.3111 H   0  0  0  0  0  0  0  0  0  0  0  0
   -5.2578    3.5682   -0.9329 H   0  0  0  0  0  0  0  0  0  0  0  0
   -3.6780    3.9565   -1.6490 H   0  0  0  0  0  0  0  0  0  0  0  0
   -3.6002    1.5495   -1.5566 H   0  0  0  0  0  0  0  0  0  0  0  0
   -4.4096    1.5196    0.0394 H   0  0  0  0  0  0  0  0  0  0  0  0
   -3.0923   -2.1713   -1.3628 H   0  0  0  0  0  0  0  0  0  0  0  0
   -4.3142   -2.0003   -0.0687 H   0  0  0  0  0  0  0  0  0  0  0  0
   -4.2815   -4.3500    0.4148 H   0  0  0  0  0  0  0  0  0  0  0  0
   -4.1221   -4.3613   -1.3548 H   0  0  0  0  0  0  0  0  0  0  0  0
   -1.7087   -4.5699   -1.2060 H   0  0  0  0  0  0  0  0  0  0  0  0
   -2.2426   -5.6405    0.1024 H   0  0  0  0  0  0  0  0  0  0  0  0
   -0.5190   -3.5503    0.5188 H   0  0  0  0  0  0  0  0  0  0  0  0
   -1.6971   -4.0193    1.7727 H   0  0  0  0  0  0  0  0  0  0  0  0
    4.1999    2.0197    0.5620 H   0  0  0  0  0  0  0  0  0  0  0  0
    5.8353    2.5454   -1.1861 H   0  0  0  0  0  0  0  0  0  0  0  0
    6.2049   -1.6781   -2.1092 H   0  0  0  0  0  0  0  0  0  0  0  0
    4.5433   -2.1917   -0.3635 H   0  0  0  0  0  0  0  0  0  0  0  0
  1  2  2  0
  2  3  1  0
  3  4  1  0
  4  5  1  0
  5  6  2  0
  6  7  1  0
  7  8  1  0
  8  9  1  0
  9 10  1  0
 10 11  1  0
 11 12  1  0
  7 13  2  0
 13 14  1  0
 14 15  1  0
 15 16  1  0
 16 17  1  0
 17 18  1  0
 18 19  1  0
 14 20  2  0
  2 21  1  0
 21 22  2  0
 22 23  1  0
 23 24  2  0
 24 25  1  0
 25 26  2  0
 25 27  1  0
 24 28  1  0
 28 29  2  0
 20  5  1  0
 29 21  1  0
 12  8  1  0
 19 15  1  0
  3 30  1  0
  4 31  1  0
  6 32  1  0
  9 33  1  0
  9 34  1  0
 10 35  1  0
 10 36  1  0
 11 37  1  0
 11 38  1  0
 12 39  1  0
 12 40  1  0
 16 41  1  0
 16 42  1  0
 17 43  1  0
 17 44  1  0
 18 45  1  0
 18 46  1  0
 19 47  1  0
 19 48  1  0
 22 49  1  0
 23 50  1  0
 28 51  1  0
 29 52  1  0
M  CHG  2  25   1  27  -1
M  END
$$$$
