
     RDKit          3D

 53 56  0  0  0  0  0  0  0  0999 V2000
    4.1463    4.1916    2.6471 C   0  0  0  0  0  0  0  0  0  0  0  0
    3.3747    3.1506    2.0618 O   0  0  0  0  0  0  0  0  0  0  0  0
    4.0285    2.2887    1.2260 C   0  0  0  0  0  0  0  0  0  0  0  0
    5.3799    2.3300    0.8996 C   0  0  0  0  0  0  0  0  0  0  0  0
    5.9235    1.3839    0.0212 C   0  0  0  0  0  0  0  0  0  0  0  0
    5.1249    0.3800   -0.5428 C   0  0  0  0  0  0  0  0  0  0  0  0
    5.5966   -0.5564   -1.4273 O   0  0  0  0  0  0  0  0  0  0  0  0
    6.9237   -0.4053   -1.9137 C   0  0  0  0  0  0  0  0  0  0  0  0
    3.7586    0.3195   -0.2010 C   0  0  0  0  0  0  0  0  0  0  0  0
    2.8403   -0.6930   -0.7201 C   0  0  0  0  0  0  0  0  0  0  0  0
    3.1562   -2.0265   -0.8943 C   0  0  0  0  0  0  0  0  0  0  0  0
    1.7931   -2.8756   -1.4910 S   0  0  0  0  0  0  0  0  0  0  0  0
    0.8859   -1.4375   -1.4444 C   0  0  0  0  0  0  0  0  0  0  0  0
   -0.4282   -1.3663   -1.8202 N   0  0  0  0  0  0  0  0  0  0  0  0
   -1.2496   -2.3947   -2.2307 C   0  0  0  0  0  0  0  0  0  0  0  0
   -0.9288   -3.5717   -2.3776 O   0  0  0  0  0  0  0  0  0  0  0  0
   -2.6511   -1.9272   -2.5797 C   0  0  0  0  0  0  0  0  0  0  0  0
   -3.3716   -1.4150   -1.4247 N   0  0  0  0  0  0  0  0  0  0  0  0
   -3.2422   -0.1408   -0.9186 C   0  0  0  0  0  0  0  0  0  0  0  0
   -2.3857    0.7197   -1.4589 O   0  0  0  0  0  0  0  0  0  0  0  0
   -4.0980   -0.0274    0.1558 C   0  0  0  0  0  0  0  0  0  0  0  0
   -4.7690   -1.2797    0.2987 C   0  0  0  0  0  0  0  0  0  0  0  0
   -4.2960   -2.1171   -0.6896 C   0  0  0  0  0  0  0  0  0  0  0  0
   -4.5822   -3.3781   -0.9845 O   0  0  0  0  0  0  0  0  0  0  0  0
   -5.7638   -1.5493    1.3785 C   0  0  0  0  0  0  0  0  0  0  0  0
   -6.2553   -0.2472    2.0305 C   0  0  0  0  0  0  0  0  0  0  0  0
   -5.0962    0.7158    2.3297 C   0  0  0  0  0  0  0  0  0  0  0  0
   -4.3593    1.1396    1.0492 C   0  0  0  0  0  0  0  0  0  0  0  0
    1.5223   -0.3705   -1.0214 N   0  0  0  0  0  0  0  0  0  0  0  0
    3.2289    1.2873    0.6729 C   0  0  0  0  0  0  0  0  0  0  0  0
    4.9365    3.7851    3.2869 H   0  0  0  0  0  0  0  0  0  0  0  0
    3.4800    4.7868    3.2789 H   0  0  0  0  0  0  0  0  0  0  0  0
    4.5595    4.8555    1.8807 H   0  0  0  0  0  0  0  0  0  0  0  0
    6.0432    3.0864    1.3062 H   0  0  0  0  0  0  0  0  0  0  0  0
    6.9826    1.4622   -0.2023 H   0  0  0  0  0  0  0  0  0  0  0  0
    7.0592    0.5630   -2.4069 H   0  0  0  0  0  0  0  0  0  0  0  0
    7.6540   -0.5486   -1.1109 H   0  0  0  0  0  0  0  0  0  0  0  0
    7.0956   -1.1856   -2.6614 H   0  0  0  0  0  0  0  0  0  0  0  0
    4.0903   -2.5357   -0.7079 H   0  0  0  0  0  0  0  0  0  0  0  0
   -0.8285   -0.4390   -1.7071 H   0  0  0  0  0  0  0  0  0  0  0  0
   -3.2191   -2.7581   -3.0104 H   0  0  0  0  0  0  0  0  0  0  0  0
   -2.6041   -1.1367   -3.3370 H   0  0  0  0  0  0  0  0  0  0  0  0
   -2.4829    1.5594   -0.9705 H   0  0  0  0  0  0  0  0  0  0  0  0
   -5.2147   -3.6975   -0.3177 H   0  0  0  0  0  0  0  0  0  0  0  0
   -5.2900   -2.1800    2.1408 H   0  0  0  0  0  0  0  0  0  0  0  0
   -6.6209   -2.1041    0.9806 H   0  0  0  0  0  0  0  0  0  0  0  0
   -6.7931   -0.4837    2.9556 H   0  0  0  0  0  0  0  0  0  0  0  0
   -6.9702    0.2506    1.3628 H   0  0  0  0  0  0  0  0  0  0  0  0
   -4.3914    0.2254    3.0135 H   0  0  0  0  0  0  0  0  0  0  0  0
   -5.4737    1.6067    2.8443 H   0  0  0  0  0  0  0  0  0  0  0  0
   -3.4196    1.6359    1.3165 H   0  0  0  0  0  0  0  0  0  0  0  0
   -4.9711    1.8678    0.5028 H   0  0  0  0  0  0  0  0  0  0  0  0
    2.1716    1.2569    0.9322 H   0  0  0  0  0  0  0  0  0  0  0  0
  1  2  1  0
  2  3  1  0
  3  4  2  0
  4  5  1  0
  5  6  2  0
  6  7  1  0
  7  8  1  0
  6  9  1  0
  9 10  1  0
 10 11  2  0
 11 12  1  0
 12 13  1  0
 13 14  1  0
 14 15  1  0
 15 16  2  0
 15 17  1  0
 17 18  1  0
 18 19  1  0
 19 20  1  0
 19 21  2  0
 21 22  1  0
 22 23  2  0
 23 24  1  0
 22 25  1  0
 25 26  1  0
 26 27  1  0
 27 28  1  0
 13 29  2  0
  9 30  2  0
 30  3  1  0
 29 10  1  0
 23 18  1  0
 28 21  1  0
  1 31  1  0
  1 32  1  0
  1 33  1  0
  4 34  1  0
  5 35  1  0
  8 36  1  0
  8 37  1  0
  8 38  1  0
 11 39  1  0
 14 40  1  0
 17 41  1  0
 17 42  1  0
 20 43  1  0
 24 44  1  0
 25 45  1  0
 25 46  1  0
 26 47  1  0
 26 48  1  0
 27 49  1  0
 27 50  1  0
 28 51  1  0
 28 52  1  0
 30 53  1  0
M  END
$$$$
