
     RDKit          3D

 44 45  0  0  0  0  0  0  0  0999 V2000
    6.1669   -1.6267   -1.2635 C   0  0  0  0  0  0  0  0  0  0  0  0
    5.2045   -0.5115   -1.5706 C   0  0  0  0  0  0  0  0  0  0  0  0
    5.5839    0.6116   -1.8835 O   0  0  0  0  0  0  0  0  0  0  0  0
    3.8795   -0.8588   -1.4481 N   0  0  0  0  0  0  0  0  0  0  0  0
    2.8202    0.1135   -1.6476 C   0  0  0  0  0  0  0  0  0  0  0  0
    2.6447    1.0567   -0.4546 C   0  0  0  0  0  0  0  0  0  0  0  0
    1.5151    1.9114   -0.6406 O   0  0  0  0  0  0  0  0  0  0  0  0
    0.3665    1.4324   -0.0477 C   0  0  0  0  0  0  0  0  0  0  0  0
   -0.4981    2.3660    0.3077 N   0  0  0  0  0  0  0  0  0  0  0  0
   -1.6209    1.9210    0.8501 C   0  0  0  0  0  0  0  0  0  0  0  0
   -2.5693    2.8464    1.2939 N   0  0  0  0  0  0  0  0  0  0  0  0
   -3.9188    2.3249    1.4334 C   0  0  0  0  0  0  0  0  0  0  0  0
   -2.4334    4.1796    0.7265 C   0  0  0  0  0  0  0  0  0  0  0  0
   -1.8725    0.6215    1.0051 N   0  0  0  0  0  0  0  0  0  0  0  0
   -0.9582   -0.2519    0.5920 C   0  0  0  0  0  0  0  0  0  0  0  0
   -1.2059   -1.6184    0.7511 N   0  0  0  0  0  0  0  0  0  0  0  0
   -0.5973   -2.4858   -0.2726 C   0  0  0  0  0  0  0  0  0  0  0  0
   -1.4511   -2.4754   -1.5535 C   0  0  0  0  0  0  0  0  0  0  0  0
   -2.8089   -2.8670   -1.2786 O   0  0  0  0  0  0  0  0  0  0  0  0
   -3.4115   -1.9905   -0.3072 C   0  0  0  0  0  0  0  0  0  0  0  0
   -2.6124   -1.9799    1.0084 C   0  0  0  0  0  0  0  0  0  0  0  0
    0.1887    0.1216    0.0440 N   0  0  0  0  0  0  0  0  0  0  0  0
    6.6141   -1.4530   -0.2813 H   0  0  0  0  0  0  0  0  0  0  0  0
    6.9488   -1.6451   -2.0277 H   0  0  0  0  0  0  0  0  0  0  0  0
    5.6683   -2.5999   -1.2619 H   0  0  0  0  0  0  0  0  0  0  0  0
    3.6385   -1.7500   -1.0341 H   0  0  0  0  0  0  0  0  0  0  0  0
    1.9035   -0.4475   -1.8531 H   0  0  0  0  0  0  0  0  0  0  0  0
    3.0370    0.6992   -2.5489 H   0  0  0  0  0  0  0  0  0  0  0  0
    3.5223    1.7094   -0.3786 H   0  0  0  0  0  0  0  0  0  0  0  0
    2.6036    0.5097    0.4975 H   0  0  0  0  0  0  0  0  0  0  0  0
   -4.5896    3.1004    1.8201 H   0  0  0  0  0  0  0  0  0  0  0  0
   -3.9603    1.4964    2.1498 H   0  0  0  0  0  0  0  0  0  0  0  0
   -4.3183    1.9879    0.4698 H   0  0  0  0  0  0  0  0  0  0  0  0
   -3.1851    4.8533    1.1533 H   0  0  0  0  0  0  0  0  0  0  0  0
   -1.4572    4.6205    0.9594 H   0  0  0  0  0  0  0  0  0  0  0  0
   -2.5750    4.1677   -0.3605 H   0  0  0  0  0  0  0  0  0  0  0  0
    0.4451   -2.2276   -0.4899 H   0  0  0  0  0  0  0  0  0  0  0  0
   -0.5812   -3.5075    0.1282 H   0  0  0  0  0  0  0  0  0  0  0  0
   -1.4564   -1.4875   -2.0284 H   0  0  0  0  0  0  0  0  0  0  0  0
   -1.0434   -3.1902   -2.2751 H   0  0  0  0  0  0  0  0  0  0  0  0
   -3.4946   -0.9876   -0.7413 H   0  0  0  0  0  0  0  0  0  0  0  0
   -4.4258   -2.3569   -0.1202 H   0  0  0  0  0  0  0  0  0  0  0  0
   -3.0873   -1.3384    1.7596 H   0  0  0  0  0  0  0  0  0  0  0  0
   -2.6187   -2.9944    1.4274 H   0  0  0  0  0  0  0  0  0  0  0  0
  1  2  1  0
  2  3  2  0
  2  4  1  0
  4  5  1  0
  5  6  1  0
  6  7  1  0
  7  8  1  0
  8  9  2  0
  9 10  1  0
 10 11  1  0
 11 12  1  0
 11 13  1  0
 10 14  2  0
 14 15  1  0
 15 16  1  0
 16 17  1  0
 17 18  1  0
 18 19  1  0
 19 20  1  0
 20 21  1  0
 15 22  2  0
 22  8  1  0
 21 16  1  0
  1 23  1  0
  1 24  1  0
  1 25  1  0
  4 26  1  0
  5 27  1  0
  5 28  1  0
  6 29  1  0
  6 30  1  0
 12 31  1  0
 12 32  1  0
 12 33  1  0
 13 34  1  0
 13 35  1  0
 13 36  1  0
 17 37  1  0
 17 38  1  0
 18 39  1  0
 18 40  1  0
 20 41  1  0
 20 42  1  0
 21 43  1  0
 21 44  1  0
M  END
$$$$
