
     RDKit          3D

 38 40  0  0  0  0  0  0  0  0999 V2000
   -5.3726    1.4472   -2.1901 C   0  0  0  0  0  0  0  0  0  0  0  0
   -4.0425    1.0967   -1.8258 O   0  0  0  0  0  0  0  0  0  0  0  0
   -3.8949    0.0929   -0.9088 C   0  0  0  0  0  0  0  0  0  0  0  0
   -4.9288   -0.6153   -0.2950 C   0  0  0  0  0  0  0  0  0  0  0  0
   -4.6359   -1.6346    0.6145 C   0  0  0  0  0  0  0  0  0  0  0  0
   -3.3124   -1.9392    0.9175 C   0  0  0  0  0  0  0  0  0  0  0  0
   -3.1089   -2.9706    1.7940 O   0  0  0  0  0  0  0  0  0  0  0  0
   -2.2647   -1.2119    0.3389 C   0  0  0  0  0  0  0  0  0  0  0  0
   -0.8630   -1.5427    0.6967 C   0  0  0  0  0  0  0  0  0  0  0  0
   -0.6054   -2.6899    1.0618 O   0  0  0  0  0  0  0  0  0  0  0  0
    0.2302   -0.5515    0.6561 C   0  0  0  0  0  0  0  0  0  0  0  0
    0.0469    0.7744    1.0243 C   0  0  0  0  0  0  0  0  0  0  0  0
    1.0334    1.7031    1.0043 N   0  0  0  0  0  0  0  0  0  0  0  0
    2.2609    1.2801    0.6393 C   0  0  0  0  0  0  0  0  0  0  0  0
    2.5523   -0.0235    0.2790 C   0  0  0  0  0  0  0  0  0  0  0  0
    1.5137   -0.9584    0.2876 C   0  0  0  0  0  0  0  0  0  0  0  0
    3.9299   -0.3553   -0.1835 C   0  0  0  0  0  0  0  0  0  0  0  0
    4.9259    0.6230    0.2154 N   0  0  0  0  0  0  0  0  0  0  0  0
    6.3133    0.2910   -0.0492 C   0  0  0  0  0  0  0  0  0  0  0  0
    4.5929    1.9441    0.4397 C   0  0  0  0  0  0  0  0  0  0  0  0
    5.4192    2.8521    0.5028 O   0  0  0  0  0  0  0  0  0  0  0  0
    3.2745    2.2169    0.6302 N   0  0  0  0  0  0  0  0  0  0  0  0
   -2.5653   -0.2121   -0.5948 C   0  0  0  0  0  0  0  0  0  0  0  0
   -5.8879    0.6035   -2.6608 H   0  0  0  0  0  0  0  0  0  0  0  0
   -5.9322    1.8216   -1.3265 H   0  0  0  0  0  0  0  0  0  0  0  0
   -5.3155    2.2552   -2.9258 H   0  0  0  0  0  0  0  0  0  0  0  0
   -5.9727   -0.4097   -0.5088 H   0  0  0  0  0  0  0  0  0  0  0  0
   -5.4403   -2.1988    1.0801 H   0  0  0  0  0  0  0  0  0  0  0  0
   -2.1560   -3.2128    1.7570 H   0  0  0  0  0  0  0  0  0  0  0  0
   -0.9126    1.1517    1.3676 H   0  0  0  0  0  0  0  0  0  0  0  0
    1.6983   -1.9932    0.0064 H   0  0  0  0  0  0  0  0  0  0  0  0
    4.2318   -1.3248    0.2292 H   0  0  0  0  0  0  0  0  0  0  0  0
    3.9408   -0.4160   -1.2781 H   0  0  0  0  0  0  0  0  0  0  0  0
    6.9913    1.0111    0.4174 H   0  0  0  0  0  0  0  0  0  0  0  0
    6.4765    0.2989   -1.1310 H   0  0  0  0  0  0  0  0  0  0  0  0
    6.5292   -0.7043    0.3497 H   0  0  0  0  0  0  0  0  0  0  0  0
    3.0305    3.1642    0.8762 H   0  0  0  0  0  0  0  0  0  0  0  0
   -1.7797    0.3368   -1.1083 H   0  0  0  0  0  0  0  0  0  0  0  0
  1  2  1  0
  2  3  1  0
  3  4  2  0
  4  5  1  0
  5  6  2  0
  6  7  1  0
  6  8  1  0
  8  9  1  0
  9 10  2  0
  9 11  1  0
 11 12  2  0
 12 13  1  0
 13 14  2  0
 14 15  1  0
 15 16  2  0
 15 17  1  0
 17 18  1  0
 18 19  1  0
 18 20  1  0
 20 21  2  0
 20 22  1  0
  8 23  2  0
 23  3  1  0
 16 11  1  0
 22 14  1  0
  1 24  1  0
  1 25  1  0
  1 26  1  0
  4 27  1  0
  5 28  1  0
  7 29  1  0
 12 30  1  0
 16 31  1  0
 17 32  1  0
 17 33  1  0
 19 34  1  0
 19 35  1  0
 19 36  1  0
 22 37  1  0
 23 38  1  0
M  END
$$$$
