
     RDKit          3D

 37 39  0  0  0  0  0  0  0  0999 V2000
    4.8897   -1.9112    1.5697 C   0  0  0  0  0  0  0  0  0  0  0  0
    3.5533   -1.3058    1.2639 C   0  0  0  0  0  0  0  0  0  0  0  0
    2.3791   -1.9269    1.6796 C   0  0  0  0  0  0  0  0  0  0  0  0
    1.1288   -1.3823    1.3564 C   0  0  0  0  0  0  0  0  0  0  0  0
    1.0032   -0.2138    0.5906 C   0  0  0  0  0  0  0  0  0  0  0  0
    2.1999    0.4295    0.2046 C   0  0  0  0  0  0  0  0  0  0  0  0
    3.4544   -0.1324    0.5165 C   0  0  0  0  0  0  0  0  0  0  0  0
    2.1831    1.7136   -0.5757 C   0  0  0  0  0  0  0  0  0  0  0  0
    0.9512    2.5035   -0.1982 C   0  0  0  0  0  0  0  0  0  0  0  0
   -0.2772    1.6506   -0.4537 C   0  0  0  0  0  0  0  0  0  0  0  0
   -0.2854    0.3478    0.2274 N   0  0  0  0  0  0  0  0  0  0  0  0
   -1.4809   -0.4112    0.3007 C   0  0  0  0  0  0  0  0  0  0  0  0
   -1.5295   -1.6130    0.5794 O   0  0  0  0  0  0  0  0  0  0  0  0
   -2.8118    0.3183   -0.0371 C   0  0  0  0  0  0  0  0  0  0  0  0
   -3.0180    0.4228   -1.5483 C   0  0  0  0  0  0  0  0  0  0  0  0
   -4.4458   -0.0214   -1.7585 C   0  0  0  0  0  0  0  0  0  0  0  0
   -4.6488   -0.9833   -0.6166 C   0  0  0  0  0  0  0  0  0  0  0  0
   -3.9593   -0.3852    0.4821 O   0  0  0  0  0  0  0  0  0  0  0  0
    5.1856   -2.5911    0.7650 H   0  0  0  0  0  0  0  0  0  0  0  0
    5.6547   -1.1349    1.6769 H   0  0  0  0  0  0  0  0  0  0  0  0
    4.8605   -2.4694    2.5114 H   0  0  0  0  0  0  0  0  0  0  0  0
    2.4160   -2.8441    2.2635 H   0  0  0  0  0  0  0  0  0  0  0  0
    0.2643   -1.9076    1.7494 H   0  0  0  0  0  0  0  0  0  0  0  0
    4.3636    0.3620    0.1785 H   0  0  0  0  0  0  0  0  0  0  0  0
    3.0723    2.3148   -0.3527 H   0  0  0  0  0  0  0  0  0  0  0  0
    2.1917    1.4848   -1.6479 H   0  0  0  0  0  0  0  0  0  0  0  0
    0.8984    3.4260   -0.7870 H   0  0  0  0  0  0  0  0  0  0  0  0
    0.9913    2.7930    0.8599 H   0  0  0  0  0  0  0  0  0  0  0  0
   -0.3801    1.4530   -1.5278 H   0  0  0  0  0  0  0  0  0  0  0  0
   -1.1453    2.2371   -0.1456 H   0  0  0  0  0  0  0  0  0  0  0  0
   -2.8345    1.2935    0.4551 H   0  0  0  0  0  0  0  0  0  0  0  0
   -2.8500    1.4381   -1.9208 H   0  0  0  0  0  0  0  0  0  0  0  0
   -2.3328   -0.2393   -2.0913 H   0  0  0  0  0  0  0  0  0  0  0  0
   -5.1152    0.8395   -1.6457 H   0  0  0  0  0  0  0  0  0  0  0  0
   -4.6238   -0.4713   -2.7385 H   0  0  0  0  0  0  0  0  0  0  0  0
   -5.7028   -1.1225   -0.3621 H   0  0  0  0  0  0  0  0  0  0  0  0
   -4.2001   -1.9612   -0.8233 H   0  0  0  0  0  0  0  0  0  0  0  0
  1  2  1  0
  2  3  2  0
  3  4  1  0
  4  5  2  0
  5  6  1  0
  6  7  2  0
  6  8  1  0
  8  9  1  0
  9 10  1  0
 10 11  1  0
 11 12  1  0
 12 13  2  0
 12 14  1  0
 14 15  1  0
 15 16  1  0
 16 17  1  0
 17 18  1  0
  7  2  1  0
 18 14  1  0
 11  5  1  0
  1 19  1  0
  1 20  1  0
  1 21  1  0
  3 22  1  0
  4 23  1  0
  7 24  1  0
  8 25  1  0
  8 26  1  0
  9 27  1  0
  9 28  1  0
 10 29  1  0
 10 30  1  0
 14 31  1  0
 15 32  1  0
 15 33  1  0
 16 34  1  0
 16 35  1  0
 17 36  1  0
 17 37  1  0
M  END
$$$$
