
     RDKit          3D

 43 45  0  0  0  0  0  0  0  0999 V2000
    6.2123   -1.2823    1.7177 C   0  0  0  0  0  0  0  0  0  0  0  0
    6.5358   -0.1615    0.9054 O   0  0  0  0  0  0  0  0  0  0  0  0
    5.5328    0.3591    0.1342 C   0  0  0  0  0  0  0  0  0  0  0  0
    5.9205    1.4215   -0.6821 C   0  0  0  0  0  0  0  0  0  0  0  0
    4.9922    2.0506   -1.5085 C   0  0  0  0  0  0  0  0  0  0  0  0
    3.6665    1.6134   -1.5308 C   0  0  0  0  0  0  0  0  0  0  0  0
    3.2653    0.5356   -0.7407 C   0  0  0  0  0  0  0  0  0  0  0  0
    1.9352    0.0613   -0.6781 N   0  0  0  0  0  0  0  0  0  0  0  0
    0.8914    0.1375   -1.5937 C   0  0  0  0  0  0  0  0  0  0  0  0
    1.0761    0.3655   -3.2495 S   0  0  0  0  0  0  0  0  0  0  0  0
   -0.3611   -0.0708   -0.9774 N   0  0  0  0  0  0  0  0  0  0  0  0
   -0.5672    0.1890    0.4633 C   0  0  0  0  0  0  0  0  0  0  0  0
   -2.0160    0.5642    0.8215 C   0  0  0  0  0  0  0  0  0  0  0  0
   -2.9355   -0.4900    0.3730 N   0  0  0  0  0  0  0  0  0  0  0  0
   -4.2583   -0.3510    0.7916 C   0  0  0  0  0  0  0  0  0  0  0  0
   -5.1959   -1.3572    0.5468 C   0  0  0  0  0  0  0  0  0  0  0  0
   -6.5123   -1.2131    0.9849 C   0  0  0  0  0  0  0  0  0  0  0  0
   -6.8738   -0.0666    1.6722 C   0  0  0  0  0  0  0  0  0  0  0  0
   -5.8944    0.8806    1.8963 C   0  0  0  0  0  0  0  0  0  0  0  0
   -4.6135    0.7568    1.4802 N   0  0  0  0  0  0  0  0  0  0  0  0
   -2.6939   -1.0410   -0.9718 C   0  0  0  0  0  0  0  0  0  0  0  0
   -1.6049   -0.2722   -1.7481 C   0  0  0  0  0  0  0  0  0  0  0  0
    4.2035   -0.0728    0.1097 C   0  0  0  0  0  0  0  0  0  0  0  0
    5.8789   -2.1292    1.1089 H   0  0  0  0  0  0  0  0  0  0  0  0
    7.1219   -1.5881    2.2435 H   0  0  0  0  0  0  0  0  0  0  0  0
    5.4643   -1.0185    2.4727 H   0  0  0  0  0  0  0  0  0  0  0  0
    6.9516    1.7659   -0.6683 H   0  0  0  0  0  0  0  0  0  0  0  0
    5.2970    2.8886   -2.1299 H   0  0  0  0  0  0  0  0  0  0  0  0
    2.9627    2.1591   -2.1503 H   0  0  0  0  0  0  0  0  0  0  0  0
    1.7578   -0.6090    0.0575 H   0  0  0  0  0  0  0  0  0  0  0  0
   -0.2850   -0.7307    0.9902 H   0  0  0  0  0  0  0  0  0  0  0  0
    0.1048    0.9899    0.7907 H   0  0  0  0  0  0  0  0  0  0  0  0
   -2.0717    0.6894    1.9101 H   0  0  0  0  0  0  0  0  0  0  0  0
   -2.2743    1.5218    0.3506 H   0  0  0  0  0  0  0  0  0  0  0  0
   -4.9070   -2.2690    0.0355 H   0  0  0  0  0  0  0  0  0  0  0  0
   -7.2406   -1.9959    0.7955 H   0  0  0  0  0  0  0  0  0  0  0  0
   -7.8855    0.0820    2.0305 H   0  0  0  0  0  0  0  0  0  0  0  0
   -6.1153    1.7968    2.4360 H   0  0  0  0  0  0  0  0  0  0  0  0
   -3.6005   -1.0377   -1.5894 H   0  0  0  0  0  0  0  0  0  0  0  0
   -2.3777   -2.0845   -0.8533 H   0  0  0  0  0  0  0  0  0  0  0  0
   -1.3938   -0.8162   -2.6737 H   0  0  0  0  0  0  0  0  0  0  0  0
   -1.9752    0.7239   -2.0215 H   0  0  0  0  0  0  0  0  0  0  0  0
    3.8829   -0.8951    0.7391 H   0  0  0  0  0  0  0  0  0  0  0  0
  1  2  1  0
  2  3  1  0
  3  4  2  0
  4  5  1  0
  5  6  2  0
  6  7  1  0
  7  8  1  0
  8  9  1  0
  9 10  2  0
  9 11  1  0
 11 12  1  0
 12 13  1  0
 13 14  1  0
 14 15  1  0
 15 16  2  0
 16 17  1  0
 17 18  2  0
 18 19  1  0
 19 20  2  0
 14 21  1  0
 21 22  1  0
  7 23  2  0
 23  3  1  0
 22 11  1  0
 20 15  1  0
  1 24  1  0
  1 25  1  0
  1 26  1  0
  4 27  1  0
  5 28  1  0
  6 29  1  0
  8 30  1  0
 12 31  1  0
 12 32  1  0
 13 33  1  0
 13 34  1  0
 16 35  1  0
 17 36  1  0
 18 37  1  0
 19 38  1  0
 21 39  1  0
 21 40  1  0
 22 41  1  0
 22 42  1  0
 23 43  1  0
M  END
$$$$
