
     RDKit          3D

 62 65  0  0  0  0  0  0  0  0999 V2000
   -7.4406   -2.2789   -1.4476 C   0  0  0  0  0  0  0  0  0  0  0  0
   -7.2907   -1.3297   -0.4025 O   0  0  0  0  0  0  0  0  0  0  0  0
   -6.4726   -1.8211    0.6574 C   0  0  0  0  0  0  0  0  0  0  0  0
   -5.0278   -1.4660    0.4617 C   0  0  0  0  0  0  0  0  0  0  0  0
   -4.5689   -0.4663   -0.3075 C   0  0  0  0  0  0  0  0  0  0  0  0
   -3.1618   -0.1253   -0.4404 C   0  0  0  0  0  0  0  0  0  0  0  0
   -2.3354   -1.0301   -1.0183 C   0  0  0  0  0  0  0  0  0  0  0  0
   -0.9169   -0.7114   -1.1942 C   0  0  0  0  0  0  0  0  0  0  0  0
   -0.1010   -1.6061   -1.7644 C   0  0  0  0  0  0  0  0  0  0  0  0
    1.3372   -1.3299   -1.9788 C   0  0  0  0  0  0  0  0  0  0  0  0
    2.0400   -2.2510   -2.3920 O   0  0  0  0  0  0  0  0  0  0  0  0
    1.8827    0.0831   -1.7466 C   0  0  0  0  0  0  0  0  0  0  0  0
    1.9519    0.7549   -3.1262 C   0  0  0  0  0  0  0  0  0  0  0  0
    3.2355    0.0447   -1.2719 O   0  0  0  0  0  0  0  0  0  0  0  0
    3.4103   -0.5511   -0.0640 C   0  0  0  0  0  0  0  0  0  0  0  0
    2.5146   -1.0038    0.6328 O   0  0  0  0  0  0  0  0  0  0  0  0
    4.8500   -0.6130    0.2919 C   0  0  0  0  0  0  0  0  0  0  0  0
    5.2255   -1.2818    1.4431 C   0  0  0  0  0  0  0  0  0  0  0  0
    6.5220   -1.4049    1.8207 N   0  0  0  0  0  0  0  0  0  0  0  0
    7.4375   -0.8363    1.0107 C   0  0  0  0  0  0  0  0  0  0  0  0
    8.7867   -0.9292    1.3270 C   0  0  0  0  0  0  0  0  0  0  0  0
    9.7643   -0.3500    0.5187 C   0  0  0  0  0  0  0  0  0  0  0  0
    9.3869    0.3356   -0.6268 C   0  0  0  0  0  0  0  0  0  0  0  0
    8.0352    0.4330   -0.9583 C   0  0  0  0  0  0  0  0  0  0  0  0
    7.0526   -0.1421   -0.1649 C   0  0  0  0  0  0  0  0  0  0  0  0
    5.7611   -0.0294   -0.5289 N   0  0  0  0  0  0  0  0  0  0  0  0
    0.9998    0.9727   -0.8713 C   0  0  0  0  0  0  0  0  0  0  0  0
    1.4264    1.9996   -0.3429 O   0  0  0  0  0  0  0  0  0  0  0  0
   -0.4275    0.5799   -0.7303 C   0  0  0  0  0  0  0  0  0  0  0  0
   -1.3128    1.4247   -0.1707 C   0  0  0  0  0  0  0  0  0  0  0  0
   -2.6790    1.1348    0.0037 N   0  0  0  0  0  0  0  0  0  0  0  0
   -3.5375    2.1297    0.6879 C   0  0  0  0  0  0  0  0  0  0  0  0
   -3.2626    2.2002    2.2049 C   0  0  0  0  0  0  0  0  0  0  0  0
   -3.6157    0.9021    2.9276 C   0  0  0  0  0  0  0  0  0  0  0  0
   -4.0487    3.3579    2.8211 C   0  0  0  0  0  0  0  0  0  0  0  0
   -7.9541   -3.1737   -1.0756 H   0  0  0  0  0  0  0  0  0  0  0  0
   -6.4757   -2.5430   -1.8816 H   0  0  0  0  0  0  0  0  0  0  0  0
   -8.0547   -1.8228   -2.2218 H   0  0  0  0  0  0  0  0  0  0  0  0
   -6.5934   -2.9040    0.7750 H   0  0  0  0  0  0  0  0  0  0  0  0
   -6.8210   -1.3525    1.5837 H   0  0  0  0  0  0  0  0  0  0  0  0
   -4.3227   -2.0517    1.0507 H   0  0  0  0  0  0  0  0  0  0  0  0
   -5.2662    0.1738   -0.8423 H   0  0  0  0  0  0  0  0  0  0  0  0
   -2.7079   -1.9895   -1.3673 H   0  0  0  0  0  0  0  0  0  0  0  0
   -0.4379   -2.5837   -2.0947 H   0  0  0  0  0  0  0  0  0  0  0  0
    2.3152    1.7863   -3.0464 H   0  0  0  0  0  0  0  0  0  0  0  0
    2.6524    0.2290   -3.7837 H   0  0  0  0  0  0  0  0  0  0  0  0
    0.9753    0.7759   -3.6230 H   0  0  0  0  0  0  0  0  0  0  0  0
    4.4993   -1.7481    2.1006 H   0  0  0  0  0  0  0  0  0  0  0  0
    9.0807   -1.4654    2.2216 H   0  0  0  0  0  0  0  0  0  0  0  0
   10.8144   -0.4342    0.7872 H   0  0  0  0  0  0  0  0  0  0  0  0
   10.1373    0.7943   -1.2652 H   0  0  0  0  0  0  0  0  0  0  0  0
    7.7405    0.9706   -1.8554 H   0  0  0  0  0  0  0  0  0  0  0  0
   -1.0129    2.4039    0.1952 H   0  0  0  0  0  0  0  0  0  0  0  0
   -4.6025    1.9466    0.5082 H   0  0  0  0  0  0  0  0  0  0  0  0
   -3.3394    3.1131    0.2398 H   0  0  0  0  0  0  0  0  0  0  0  0
   -2.1975    2.3980    2.3728 H   0  0  0  0  0  0  0  0  0  0  0  0
   -4.6673    0.6384    2.7823 H   0  0  0  0  0  0  0  0  0  0  0  0
   -3.4401    1.0021    4.0033 H   0  0  0  0  0  0  0  0  0  0  0  0
   -3.0001    0.0722    2.5752 H   0  0  0  0  0  0  0  0  0  0  0  0
   -5.1277    3.2139    2.7030 H   0  0  0  0  0  0  0  0  0  0  0  0
   -3.7793    4.3092    2.3496 H   0  0  0  0  0  0  0  0  0  0  0  0
   -3.8356    3.4458    3.8907 H   0  0  0  0  0  0  0  0  0  0  0  0
  1  2  1  0
  2  3  1  0
  3  4  1  0
  4  5  2  3
  5  6  1  0
  6  7  2  0
  7  8  1  0
  8  9  2  0
  9 10  1  0
 10 11  2  0
 10 12  1  0
 12 13  1  0
 12 14  1  0
 14 15  1  0
 15 16  2  0
 15 17  1  0
 17 18  2  0
 18 19  1  0
 19 20  2  0
 20 21  1  0
 21 22  2  0
 22 23  1  0
 23 24  2  0
 24 25  1  0
 25 26  2  0
 12 27  1  0
 27 28  2  0
 27 29  1  0
 29 30  2  0
 30 31  1  0
 31 32  1  0
 32 33  1  0
 33 34  1  0
 33 35  1  0
 31  6  1  0
 29  8  1  0
 26 17  1  0
 25 20  1  0
  1 36  1  0
  1 37  1  0
  1 38  1  0
  3 39  1  0
  3 40  1  0
  4 41  1  0
  5 42  1  0
  7 43  1  0
  9 44  1  0
 13 45  1  0
 13 46  1  0
 13 47  1  0
 18 48  1  0
 21 49  1  0
 22 50  1  0
 23 51  1  0
 24 52  1  0
 30 53  1  0
 32 54  1  0
 32 55  1  0
 33 56  1  0
 34 57  1  0
 34 58  1  0
 34 59  1  0
 35 60  1  0
 35 61  1  0
 35 62  1  0
M  END
$$$$
