
     RDKit          3D

 57 60  0  0  0  0  0  0  0  0999 V2000
   -6.9175    0.9021   -0.7335 C   0  0  0  0  0  0  0  0  0  0  0  0
   -6.2031   -0.0760    0.1197 C   0  0  0  0  0  0  0  0  0  0  0  0
   -6.8822   -1.0621    0.7147 N   0  0  0  0  0  0  0  0  0  0  0  0
   -5.9474   -1.7860    1.4269 O   0  0  0  0  0  0  0  0  0  0  0  0
   -4.7180   -1.2319    1.2606 C   0  0  0  0  0  0  0  0  0  0  0  0
   -3.6070   -1.9020    1.9652 C   0  0  0  0  0  0  0  0  0  0  0  0
   -4.8147   -0.1380    0.4249 C   0  0  0  0  0  0  0  0  0  0  0  0
   -3.7399    0.7798   -0.0396 C   0  0  0  0  0  0  0  0  0  0  0  0
   -2.4723    0.1483   -0.2541 O   0  0  0  0  0  0  0  0  0  0  0  0
   -2.3273   -0.7150   -1.3061 C   0  0  0  0  0  0  0  0  0  0  0  0
   -3.1749   -0.7709   -2.4158 C   0  0  0  0  0  0  0  0  0  0  0  0
   -2.9502   -1.7066   -3.4331 C   0  0  0  0  0  0  0  0  0  0  0  0
   -1.8807   -2.5970   -3.3536 C   0  0  0  0  0  0  0  0  0  0  0  0
   -1.0225   -2.5483   -2.2588 C   0  0  0  0  0  0  0  0  0  0  0  0
   -1.2362   -1.5979   -1.2527 C   0  0  0  0  0  0  0  0  0  0  0  0
   -0.3093   -1.6059   -0.1025 C   0  0  0  0  0  0  0  0  0  0  0  0
   -0.3447   -2.5728    0.6555 O   0  0  0  0  0  0  0  0  0  0  0  0
    0.5734   -0.5454    0.0512 N   0  0  0  0  0  0  0  0  0  0  0  0
    0.7363    0.5681   -0.8947 C   0  0  0  0  0  0  0  0  0  0  0  0
    2.1781    1.1112   -0.9211 C   0  0  0  0  0  0  0  0  0  0  0  0
    2.6648    1.4972    0.4286 N   0  0  0  0  0  0  0  0  0  0  0  0
    4.0562    1.6387    0.4920 C   0  0  0  0  0  0  0  0  0  0  0  0
    4.6861    2.6098   -0.3036 C   0  0  0  0  0  0  0  0  0  0  0  0
    6.0712    2.7916   -0.2863 C   0  0  0  0  0  0  0  0  0  0  0  0
    6.8650    1.9978    0.5345 C   0  0  0  0  0  0  0  0  0  0  0  0
    6.2756    1.0231    1.3478 C   0  0  0  0  0  0  0  0  0  0  0  0
    7.1220    0.1340    2.2226 C   0  0  0  0  0  0  0  0  0  0  0  0
    8.3212    0.6887    2.5559 F   0  0  0  0  0  0  0  0  0  0  0  0
    6.5193   -0.1807    3.4037 F   0  0  0  0  0  0  0  0  0  0  0  0
    7.4138   -1.0539    1.6247 F   0  0  0  0  0  0  0  0  0  0  0  0
    4.8774    0.8515    1.3109 C   0  0  0  0  0  0  0  0  0  0  0  0
    1.9298    0.8980    1.5643 C   0  0  0  0  0  0  0  0  0  0  0  0
    1.4289   -0.5171    1.2406 C   0  0  0  0  0  0  0  0  0  0  0  0
   -6.6315    0.7705   -1.7819 H   0  0  0  0  0  0  0  0  0  0  0  0
   -8.0038    0.7855   -0.6607 H   0  0  0  0  0  0  0  0  0  0  0  0
   -6.6694    1.9255   -0.4340 H   0  0  0  0  0  0  0  0  0  0  0  0
   -3.9481   -2.3301    2.9132 H   0  0  0  0  0  0  0  0  0  0  0  0
   -3.2023   -2.7114    1.3507 H   0  0  0  0  0  0  0  0  0  0  0  0
   -2.8000   -1.1981    2.1894 H   0  0  0  0  0  0  0  0  0  0  0  0
   -3.5749    1.5221    0.7512 H   0  0  0  0  0  0  0  0  0  0  0  0
   -4.0324    1.3586   -0.9229 H   0  0  0  0  0  0  0  0  0  0  0  0
   -4.0257   -0.1077   -2.5254 H   0  0  0  0  0  0  0  0  0  0  0  0
   -3.6234   -1.7482   -4.2870 H   0  0  0  0  0  0  0  0  0  0  0  0
   -1.7223   -3.3327   -4.1385 H   0  0  0  0  0  0  0  0  0  0  0  0
   -0.1953   -3.2498   -2.1801 H   0  0  0  0  0  0  0  0  0  0  0  0
    0.0477    1.3596   -0.5765 H   0  0  0  0  0  0  0  0  0  0  0  0
    0.4480    0.2570   -1.9029 H   0  0  0  0  0  0  0  0  0  0  0  0
    2.8281    0.3303   -1.3393 H   0  0  0  0  0  0  0  0  0  0  0  0
    2.2126    1.9769   -1.5923 H   0  0  0  0  0  0  0  0  0  0  0  0
    4.0861    3.2609   -0.9352 H   0  0  0  0  0  0  0  0  0  0  0  0
    6.5242    3.5576   -0.9102 H   0  0  0  0  0  0  0  0  0  0  0  0
    7.9438    2.1436    0.5410 H   0  0  0  0  0  0  0  0  0  0  0  0
    4.4474    0.0630    1.9242 H   0  0  0  0  0  0  0  0  0  0  0  0
    1.0613    1.5405    1.7608 H   0  0  0  0  0  0  0  0  0  0  0  0
    2.5087    0.9032    2.4942 H   0  0  0  0  0  0  0  0  0  0  0  0
    0.8760   -0.9224    2.0953 H   0  0  0  0  0  0  0  0  0  0  0  0
    2.2741   -1.1868    1.0420 H   0  0  0  0  0  0  0  0  0  0  0  0
  1  2  1  0
  2  3  2  0
  3  4  1  0
  4  5  1  0
  5  6  1  0
  5  7  2  0
  7  8  1  0
  8  9  1  0
  9 10  1  0
 10 11  2  0
 11 12  1  0
 12 13  2  0
 13 14  1  0
 14 15  2  0
 15 16  1  0
 16 17  2  0
 16 18  1  0
 18 19  1  0
 19 20  1  0
 20 21  1  0
 21 22  1  0
 22 23  2  0
 23 24  1  0
 24 25  2  0
 25 26  1  0
 26 27  1  0
 27 28  1  0
 27 29  1  0
 27 30  1  0
 26 31  2  0
 21 32  1  0
 32 33  1  0
  7  2  1  0
 15 10  1  0
 33 18  1  0
 31 22  1  0
  1 34  1  0
  1 35  1  0
  1 36  1  0
  6 37  1  0
  6 38  1  0
  6 39  1  0
  8 40  1  0
  8 41  1  0
 11 42  1  0
 12 43  1  0
 13 44  1  0
 14 45  1  0
 19 46  1  0
 19 47  1  0
 20 48  1  0
 20 49  1  0
 23 50  1  0
 24 51  1  0
 25 52  1  0
 31 53  1  0
 32 54  1  0
 32 55  1  0
 33 56  1  0
 33 57  1  0
M  END
$$$$
