
     RDKit          3D

 68 73  0  0  0  0  0  0  0  0999 V2000
   -4.7185    4.9729   -1.3774 C   0  0  0  0  0  0  0  0  0  0  0  0
   -3.7119    3.9776   -1.2466 O   0  0  0  0  0  0  0  0  0  0  0  0
   -3.4946    3.4697    0.0053 C   0  0  0  0  0  0  0  0  0  0  0  0
   -4.1628    3.8672    1.1794 C   0  0  0  0  0  0  0  0  0  0  0  0
   -3.8613    3.2794    2.4145 C   0  0  0  0  0  0  0  0  0  0  0  0
   -2.8942    2.2985    2.4346 C   0  0  0  0  0  0  0  0  0  0  0  0
   -2.2245    1.8848    1.2814 C   0  0  0  0  0  0  0  0  0  0  0  0
   -2.5128    2.4726    0.0595 C   0  0  0  0  0  0  0  0  0  0  0  0
   -1.2542    0.8057    1.6503 C   0  0  1  0  0  0  0  0  0  0  0  0
   -1.4427    0.6787    3.1884 C   0  0  0  0  0  0  0  0  0  0  0  0
   -0.8496   -0.0449    3.9739 O   0  0  0  0  0  0  0  0  0  0  0  0
   -2.4413    1.5919    3.5411 N   0  0  0  0  0  0  0  0  0  0  0  0
   -1.5931   -0.4444    0.9140 C   0  0  0  0  0  0  0  0  0  0  0  0
   -0.4124   -1.0880    0.5087 C   0  0  0  0  0  0  0  0  0  0  0  0
   -0.7369   -2.2405   -0.1520 C   0  0  0  0  0  0  0  0  0  0  0  0
    0.0550   -3.2011   -0.6219 O   0  0  0  0  0  0  0  0  0  0  0  0
   -2.1485   -2.3105   -0.2102 N   0  0  0  0  0  0  0  0  0  0  0  0
   -2.9202   -3.3440   -0.8466 C   0  0  0  0  0  0  0  0  0  0  0  0
   -2.3804   -4.0947   -1.9018 C   0  0  0  0  0  0  0  0  0  0  0  0
   -3.1328   -5.0958   -2.5250 C   0  0  0  0  0  0  0  0  0  0  0  0
   -4.4306   -5.3635   -2.1005 C   0  0  0  0  0  0  0  0  0  0  0  0
   -4.9781   -4.6283   -1.0534 C   0  0  0  0  0  0  0  0  0  0  0  0
   -4.2300   -3.6233   -0.4309 C   0  0  0  0  0  0  0  0  0  0  0  0
   -2.6624   -1.1802    0.4697 C   0  0  0  0  0  0  0  0  0  0  0  0
   -3.9654   -0.9195    0.5522 O   0  0  0  0  0  0  0  0  0  0  0  0
    0.7633   -0.3304    0.9880 C   0  0  1  0  0  0  0  0  0  0  0  0
    1.9652   -0.1663    0.0639 C   0  0  0  0  0  0  0  0  0  0  0  0
    2.9213    0.8088    0.6258 N   0  0  0  0  0  0  0  0  0  0  0  0
    4.2517    0.8206    0.2406 C   0  0  0  0  0  0  0  0  0  0  0  0
    5.0190    1.7412    0.4891 O   0  0  0  0  0  0  0  0  0  0  0  0
    4.5949   -0.3055   -0.4357 O   0  0  0  0  0  0  0  0  0  0  0  0
    5.9418   -0.4994   -0.9370 C   0  0  0  0  0  0  0  0  0  0  0  0
    6.3044    0.5598   -1.9828 C   0  0  0  0  0  0  0  0  0  0  0  0
    6.9612   -0.5531    0.2052 C   0  0  0  0  0  0  0  0  0  0  0  0
    5.9026   -1.8733   -1.6242 C   0  0  0  0  0  0  0  0  0  0  0  0
    2.3521    2.0591    1.1567 C   0  0  0  0  0  0  0  0  0  0  0  0
    1.0393    1.8699    1.9597 C   0  0  0  0  0  0  0  0  0  0  0  0
    0.1401    1.0122    1.2050 N   0  0  0  0  0  0  0  0  0  0  0  0
   -5.6992    4.5844   -1.0828 H   0  0  0  0  0  0  0  0  0  0  0  0
   -4.7762    5.2536   -2.4337 H   0  0  0  0  0  0  0  0  0  0  0  0
   -4.4600    5.8710   -0.8070 H   0  0  0  0  0  0  0  0  0  0  0  0
   -4.9242    4.6410    1.1596 H   0  0  0  0  0  0  0  0  0  0  0  0
   -4.3753    3.5936    3.3160 H   0  0  0  0  0  0  0  0  0  0  0  0
   -1.9916    2.1618   -0.8422 H   0  0  0  0  0  0  0  0  0  0  0  0
   -2.7546    1.7136    4.4927 H   0  0  0  0  0  0  0  0  0  0  0  0
    0.9620   -3.0237   -0.3231 H   0  0  0  0  0  0  0  0  0  0  0  0
   -1.3854   -3.8986   -2.2899 H   0  0  0  0  0  0  0  0  0  0  0  0
   -2.7026   -5.6606   -3.3483 H   0  0  0  0  0  0  0  0  0  0  0  0
   -5.0132   -6.1425   -2.5838 H   0  0  0  0  0  0  0  0  0  0  0  0
   -5.9881   -4.8384   -0.7107 H   0  0  0  0  0  0  0  0  0  0  0  0
   -4.6871   -3.1008    0.4038 H   0  0  0  0  0  0  0  0  0  0  0  0
   -4.0750   -0.0160    0.8950 H   0  0  0  0  0  0  0  0  0  0  0  0
    1.0889   -0.7565    1.9481 H   0  0  0  0  0  0  0  0  0  0  0  0
    2.4530   -1.1357   -0.0834 H   0  0  0  0  0  0  0  0  0  0  0  0
    1.6688    0.2005   -0.9275 H   0  0  0  0  0  0  0  0  0  0  0  0
    6.4104    1.5539   -1.5384 H   0  0  0  0  0  0  0  0  0  0  0  0
    5.5205    0.6383   -2.7444 H   0  0  0  0  0  0  0  0  0  0  0  0
    7.2505    0.3210   -2.4802 H   0  0  0  0  0  0  0  0  0  0  0  0
    6.6301   -1.2445    0.9884 H   0  0  0  0  0  0  0  0  0  0  0  0
    7.9448   -0.8768   -0.1524 H   0  0  0  0  0  0  0  0  0  0  0  0
    7.0927    0.4226    0.6828 H   0  0  0  0  0  0  0  0  0  0  0  0
    5.6202   -2.6572   -0.9119 H   0  0  0  0  0  0  0  0  0  0  0  0
    6.8701   -2.1372   -2.0634 H   0  0  0  0  0  0  0  0  0  0  0  0
    5.1459   -1.8909   -2.4170 H   0  0  0  0  0  0  0  0  0  0  0  0
    2.1632    2.7079    0.2917 H   0  0  0  0  0  0  0  0  0  0  0  0
    3.0945    2.5633    1.7855 H   0  0  0  0  0  0  0  0  0  0  0  0
    1.2747    1.4350    2.9385 H   0  0  0  0  0  0  0  0  0  0  0  0
    0.5898    2.8541    2.1317 H   0  0  0  0  0  0  0  0  0  0  0  0
  1  2  1  0
  2  3  1  0
  3  4  2  0
  4  5  1  0
  5  6  2  0
  6  7  1  0
  7  8  2  0
  7  9  1  0
  9 10  1  0
 10 11  2  0
 10 12  1  0
  9 13  1  0
 13 14  1  0
 14 15  2  0
 15 16  1  0
 15 17  1  0
 17 18  1  0
 18 19  2  0
 19 20  1  0
 20 21  2  0
 21 22  1  0
 22 23  2  0
 17 24  1  0
 24 25  1  0
 14 26  1  0
 26 27  1  0
 27 28  1  0
 28 29  1  0
 29 30  2  0
 29 31  1  0
 31 32  1  0
 32 33  1  0
 32 34  1  0
 32 35  1  0
 28 36  1  0
 36 37  1  0
 37 38  1  0
  8  3  1  0
  9 38  1  1
 12  6  1  0
 24 13  2  0
 38 26  1  0
 23 18  1  0
  1 39  1  0
  1 40  1  0
  1 41  1  0
  4 42  1  0
  5 43  1  0
  8 44  1  0
 12 45  1  0
 16 46  1  0
 19 47  1  0
 20 48  1  0
 21 49  1  0
 22 50  1  0
 23 51  1  0
 25 52  1  0
 26 53  1  1
 27 54  1  0
 27 55  1  0
 33 56  1  0
 33 57  1  0
 33 58  1  0
 34 59  1  0
 34 60  1  0
 34 61  1  0
 35 62  1  0
 35 63  1  0
 35 64  1  0
 36 65  1  0
 36 66  1  0
 37 67  1  0
 37 68  1  0
M  END
$$$$
