
     RDKit          3D

 75 77  0  0  0  0  0  0  0  0999 V2000
   -3.0602    6.0485   -2.6989 C   0  0  0  0  0  0  0  0  0  0  0  0
   -2.0417    5.6777   -1.6334 C   0  0  0  0  0  0  0  0  0  0  0  0
   -2.2712    4.3460   -1.1715 O   0  0  0  0  0  0  0  0  0  0  0  0
   -1.4531    3.3579   -1.6426 C   0  0  0  0  0  0  0  0  0  0  0  0
   -0.7854    3.3750   -2.8648 C   0  0  0  0  0  0  0  0  0  0  0  0
    0.0075    2.2886   -3.2405 C   0  0  0  0  0  0  0  0  0  0  0  0
    0.1330    1.1819   -2.3974 C   0  0  0  0  0  0  0  0  0  0  0  0
   -0.5316    1.1495   -1.1677 C   0  0  0  0  0  0  0  0  0  0  0  0
   -0.4215    0.0248   -0.2990 N   0  0  0  0  0  0  0  0  0  0  0  0
    0.7770   -0.6264   -0.0029 C   0  0  0  0  0  0  0  0  0  0  0  0
    0.8179   -1.7400    0.5302 O   0  0  0  0  0  0  0  0  0  0  0  0
    2.0789    0.1088   -0.2850 C   0  0  0  0  0  0  0  0  0  0  0  0
    3.1292   -0.2374    0.7674 C   0  0  0  0  0  0  0  0  0  0  0  0
    4.4524    0.4410    0.4730 C   0  0  0  0  0  0  0  0  0  0  0  0
    4.7033    0.9453   -0.6165 O   0  0  0  0  0  0  0  0  0  0  0  0
    5.3047    0.3900    1.5516 N   0  0  0  0  0  0  0  0  0  0  0  0
    6.5835    0.8987    1.5774 C   0  0  0  0  0  0  0  0  0  0  0  0
    7.3360    1.4887    0.5383 C   0  0  0  0  0  0  0  0  0  0  0  0
    8.5407    1.8004    1.1173 C   0  0  0  0  0  0  0  0  0  0  0  0
    9.7859    2.4207    0.6330 C   0  0  0  0  0  0  0  0  0  0  0  0
    8.5115    1.4373    2.4271 O   0  0  0  0  0  0  0  0  0  0  0  0
    7.2861    0.8655    2.7166 N   0  0  0  0  0  0  0  0  0  0  0  0
   -1.6880   -0.6079    0.1426 C   0  0  0  0  0  0  0  0  0  0  0  0
   -1.7467   -0.7880    1.6891 C   0  0  0  0  0  0  0  0  0  0  0  0
   -1.0186   -0.1489    2.4519 O   0  0  0  0  0  0  0  0  0  0  0  0
   -2.7655   -1.6087    2.1515 N   0  0  0  0  0  0  0  0  0  0  0  0
   -2.9816   -1.9672    3.5622 C   0  0  0  0  0  0  0  0  0  0  0  0
   -1.7574   -2.7018    4.1330 C   0  0  0  0  0  0  0  0  0  0  0  0
   -4.1922   -2.9182    3.6291 C   0  0  0  0  0  0  0  0  0  0  0  0
   -3.2999   -0.7270    4.4131 C   0  0  0  0  0  0  0  0  0  0  0  0
   -2.0605   -1.8177   -0.7213 C   0  0  0  0  0  0  0  0  0  0  0  0
   -1.6590   -3.1239   -0.4133 C   0  0  0  0  0  0  0  0  0  0  0  0
   -2.0037   -4.1902   -1.2495 C   0  0  0  0  0  0  0  0  0  0  0  0
   -2.7434   -3.9786   -2.4123 C   0  0  0  0  0  0  0  0  0  0  0  0
   -3.0014   -5.1064   -3.1408 O   0  0  0  0  0  0  0  0  0  0  0  0
   -3.7426   -4.9389   -4.3441 C   0  0  0  0  0  0  0  0  0  0  0  0
   -3.1432   -2.6837   -2.7348 C   0  0  0  0  0  0  0  0  0  0  0  0
   -2.7988   -1.6133   -1.9006 C   0  0  0  0  0  0  0  0  0  0  0  0
   -1.3379    2.2389   -0.8104 C   0  0  0  0  0  0  0  0  0  0  0  0
   -2.9675    7.1046   -2.9731 H   0  0  0  0  0  0  0  0  0  0  0  0
   -4.0778    5.8605   -2.3390 H   0  0  0  0  0  0  0  0  0  0  0  0
   -2.9271    5.4444   -3.6005 H   0  0  0  0  0  0  0  0  0  0  0  0
   -1.0111    5.8422   -1.9682 H   0  0  0  0  0  0  0  0  0  0  0  0
   -2.1900    6.3372   -0.7702 H   0  0  0  0  0  0  0  0  0  0  0  0
   -0.8748    4.2091   -3.5545 H   0  0  0  0  0  0  0  0  0  0  0  0
    0.5203    2.2972   -4.2005 H   0  0  0  0  0  0  0  0  0  0  0  0
    0.7269    0.3363   -2.7343 H   0  0  0  0  0  0  0  0  0  0  0  0
    1.9296    1.1908   -0.2782 H   0  0  0  0  0  0  0  0  0  0  0  0
    2.4286   -0.1952   -1.2763 H   0  0  0  0  0  0  0  0  0  0  0  0
    3.3096   -1.3191    0.8000 H   0  0  0  0  0  0  0  0  0  0  0  0
    2.7748    0.0739    1.7575 H   0  0  0  0  0  0  0  0  0  0  0  0
    4.9999   -0.0060    2.4305 H   0  0  0  0  0  0  0  0  0  0  0  0
    7.0500    1.6620   -0.4869 H   0  0  0  0  0  0  0  0  0  0  0  0
    9.9241    3.4073    1.0856 H   0  0  0  0  0  0  0  0  0  0  0  0
    9.7634    2.5421   -0.4555 H   0  0  0  0  0  0  0  0  0  0  0  0
   10.6499    1.7977    0.8840 H   0  0  0  0  0  0  0  0  0  0  0  0
   -2.5051    0.1102   -0.0147 H   0  0  0  0  0  0  0  0  0  0  0  0
   -3.2741   -2.1477    1.4618 H   0  0  0  0  0  0  0  0  0  0  0  0
   -1.4997   -3.5734    3.5187 H   0  0  0  0  0  0  0  0  0  0  0  0
   -0.8718   -2.0565    4.1672 H   0  0  0  0  0  0  0  0  0  0  0  0
   -1.9475   -3.0543    5.1538 H   0  0  0  0  0  0  0  0  0  0  0  0
   -4.0137   -3.8238    3.0364 H   0  0  0  0  0  0  0  0  0  0  0  0
   -4.4013   -3.2283    4.6591 H   0  0  0  0  0  0  0  0  0  0  0  0
   -5.0937   -2.4376    3.2297 H   0  0  0  0  0  0  0  0  0  0  0  0
   -2.4492   -0.0419    4.4786 H   0  0  0  0  0  0  0  0  0  0  0  0
   -3.5638   -1.0095    5.4391 H   0  0  0  0  0  0  0  0  0  0  0  0
   -4.1423   -0.1664    3.9909 H   0  0  0  0  0  0  0  0  0  0  0  0
   -1.0567   -3.3312    0.4702 H   0  0  0  0  0  0  0  0  0  0  0  0
   -1.6701   -5.1956   -0.9992 H   0  0  0  0  0  0  0  0  0  0  0  0
   -3.1975   -4.3102   -5.0565 H   0  0  0  0  0  0  0  0  0  0  0  0
   -3.8745   -5.9260   -4.7981 H   0  0  0  0  0  0  0  0  0  0  0  0
   -4.7397   -4.5337   -4.1428 H   0  0  0  0  0  0  0  0  0  0  0  0
   -3.7136   -2.4691   -3.6324 H   0  0  0  0  0  0  0  0  0  0  0  0
   -3.1074   -0.6087   -2.1887 H   0  0  0  0  0  0  0  0  0  0  0  0
   -1.8496    2.2575    0.1492 H   0  0  0  0  0  0  0  0  0  0  0  0
  1  2  1  0
  2  3  1  0
  3  4  1  0
  4  5  2  0
  5  6  1  0
  6  7  2  0
  7  8  1  0
  8  9  1  0
  9 10  1  0
 10 11  2  0
 10 12  1  0
 12 13  1  0
 13 14  1  0
 14 15  2  0
 14 16  1  0
 16 17  1  0
 17 18  1  0
 18 19  2  0
 19 20  1  0
 19 21  1  0
 21 22  1  0
  9 23  1  0
 23 24  1  0
 24 25  2  0
 24 26  1  0
 26 27  1  0
 27 28  1  0
 27 29  1  0
 27 30  1  0
 23 31  1  0
 31 32  2  0
 32 33  1  0
 33 34  2  0
 34 35  1  0
 35 36  1  0
 34 37  1  0
 37 38  2  0
  8 39  2  0
 39  4  1  0
 22 17  2  0
 38 31  1  0
  1 40  1  0
  1 41  1  0
  1 42  1  0
  2 43  1  0
  2 44  1  0
  5 45  1  0
  6 46  1  0
  7 47  1  0
 12 48  1  0
 12 49  1  0
 13 50  1  0
 13 51  1  0
 16 52  1  0
 18 53  1  0
 20 54  1  0
 20 55  1  0
 20 56  1  0
 23 57  1  0
 26 58  1  0
 28 59  1  0
 28 60  1  0
 28 61  1  0
 29 62  1  0
 29 63  1  0
 29 64  1  0
 30 65  1  0
 30 66  1  0
 30 67  1  0
 32 68  1  0
 33 69  1  0
 36 70  1  0
 36 71  1  0
 36 72  1  0
 37 73  1  0
 38 74  1  0
 39 75  1  0
M  END
$$$$
