
     RDKit          3D

 53 57  0  0  0  0  0  0  0  0999 V2000
    1.2952    2.0148    3.3067 C   0  0  0  0  0  0  0  0  0  0  0  0
    2.4747    1.0953    3.1767 C   0  0  0  0  0  0  0  0  0  0  0  0
    3.7277    1.5597    3.6208 C   0  0  0  0  0  0  0  0  0  0  0  0
    4.8701    0.7605    3.5387 C   0  0  0  0  0  0  0  0  0  0  0  0
    4.7853   -0.5226    3.0130 C   0  0  0  0  0  0  0  0  0  0  0  0
    3.5569   -1.0055    2.5663 C   0  0  0  0  0  0  0  0  0  0  0  0
    2.4035   -0.2022    2.6378 C   0  0  0  0  0  0  0  0  0  0  0  0
    0.8931   -0.9536    2.0440 S   0  0  0  0  0  6  0  0  0  0  0  0
    0.8739   -2.3060    2.5667 O   0  0  0  0  0  0  0  0  0  0  0  0
   -0.2448   -0.0840    2.2568 O   0  0  0  0  0  0  0  0  0  0  0  0
    1.1685   -1.1095    0.3863 N   0  0  0  0  0  0  0  0  0  0  0  0
    0.8885    0.0754   -0.3447 C   0  0  0  0  0  0  0  0  0  0  0  0
    1.7722    1.0768   -0.2018 N   0  0  0  0  0  0  0  0  0  0  0  0
    1.4445    2.2261   -0.8146 C   0  0  0  0  0  0  0  0  0  0  0  0
    2.2979    3.3158   -0.7047 C   0  0  0  0  0  0  0  0  0  0  0  0
    2.0006    4.5348   -1.3148 C   0  0  0  0  0  0  0  0  0  0  0  0
    0.8295    4.6659   -2.0489 C   0  0  0  0  0  0  0  0  0  0  0  0
   -0.0369    3.5776   -2.1670 C   0  0  0  0  0  0  0  0  0  0  0  0
    0.2445    2.3588   -1.5643 C   0  0  0  0  0  0  0  0  0  0  0  0
   -0.6231    1.3352   -1.7058 N   0  0  0  0  0  0  0  0  0  0  0  0
   -0.3056    0.1793   -1.0857 C   0  0  0  0  0  0  0  0  0  0  0  0
   -1.1434   -0.9566   -1.2046 N   0  0  0  0  0  0  0  0  0  0  0  0
   -0.8946   -1.6567   -2.4868 C   0  0  0  0  0  0  0  0  0  0  0  0
   -2.1626   -2.1795   -3.1858 C   0  0  0  0  0  0  0  0  0  0  0  0
   -3.2016   -2.6384   -2.2000 C   0  0  0  0  0  0  0  0  0  0  0  0
   -3.9919   -3.7703   -2.4094 C   0  0  0  0  0  0  0  0  0  0  0  0
   -4.9572   -4.1228   -1.4659 C   0  0  0  0  0  0  0  0  0  0  0  0
   -5.1435   -3.3409   -0.3237 C   0  0  0  0  0  0  0  0  0  0  0  0
   -4.3665   -2.2000   -0.1178 C   0  0  0  0  0  0  0  0  0  0  0  0
   -3.3903   -1.8459   -1.0530 C   0  0  0  0  0  0  0  0  0  0  0  0
   -2.5392   -0.6048   -0.9068 C   0  0  0  0  0  0  0  0  0  0  0  0
    1.5911    2.9904    3.7098 H   0  0  0  0  0  0  0  0  0  0  0  0
    0.8403    2.2060    2.3312 H   0  0  0  0  0  0  0  0  0  0  0  0
    0.5578    1.5964    3.9984 H   0  0  0  0  0  0  0  0  0  0  0  0
    3.8231    2.5600    4.0385 H   0  0  0  0  0  0  0  0  0  0  0  0
    5.8262    1.1427    3.8880 H   0  0  0  0  0  0  0  0  0  0  0  0
    5.6723   -1.1481    2.9502 H   0  0  0  0  0  0  0  0  0  0  0  0
    3.4999   -2.0129    2.1578 H   0  0  0  0  0  0  0  0  0  0  0  0
    0.6035   -1.8936    0.0550 H   0  0  0  0  0  0  0  0  0  0  0  0
    3.2140    3.2114   -0.1277 H   0  0  0  0  0  0  0  0  0  0  0  0
    2.6832    5.3750   -1.2140 H   0  0  0  0  0  0  0  0  0  0  0  0
    0.5863    5.6101   -2.5295 H   0  0  0  0  0  0  0  0  0  0  0  0
   -0.9540    3.6818   -2.7407 H   0  0  0  0  0  0  0  0  0  0  0  0
   -0.3350   -1.0411   -3.2054 H   0  0  0  0  0  0  0  0  0  0  0  0
   -0.2514   -2.5153   -2.2525 H   0  0  0  0  0  0  0  0  0  0  0  0
   -1.8865   -2.9888   -3.8728 H   0  0  0  0  0  0  0  0  0  0  0  0
   -2.6041   -1.3787   -3.7933 H   0  0  0  0  0  0  0  0  0  0  0  0
   -3.8602   -4.3833   -3.2979 H   0  0  0  0  0  0  0  0  0  0  0  0
   -5.5682   -5.0086   -1.6207 H   0  0  0  0  0  0  0  0  0  0  0  0
   -5.8970   -3.6215    0.4082 H   0  0  0  0  0  0  0  0  0  0  0  0
   -4.5239   -1.5960    0.7727 H   0  0  0  0  0  0  0  0  0  0  0  0
   -2.6113   -0.2283    0.1212 H   0  0  0  0  0  0  0  0  0  0  0  0
   -2.9318    0.1655   -1.5839 H   0  0  0  0  0  0  0  0  0  0  0  0
  1  2  1  0
  2  3  2  0
  3  4  1  0
  4  5  2  0
  5  6  1  0
  6  7  2  0
  7  8  1  0
  8  9  2  0
  8 10  2  0
  8 11  1  0
 11 12  1  0
 12 13  2  0
 13 14  1  0
 14 15  2  0
 15 16  1  0
 16 17  2  0
 17 18  1  0
 18 19  2  0
 19 20  1  0
 20 21  2  0
 21 22  1  0
 22 23  1  0
 23 24  1  0
 24 25  1  0
 25 26  2  0
 26 27  1  0
 27 28  2  0
 28 29  1  0
 29 30  2  0
 30 31  1  0
  7  2  1  0
 21 12  1  0
 31 22  1  0
 19 14  1  0
 30 25  1  0
  1 32  1  0
  1 33  1  0
  1 34  1  0
  3 35  1  0
  4 36  1  0
  5 37  1  0
  6 38  1  0
 11 39  1  0
 15 40  1  0
 16 41  1  0
 17 42  1  0
 18 43  1  0
 23 44  1  0
 23 45  1  0
 24 46  1  0
 24 47  1  0
 26 48  1  0
 27 49  1  0
 28 50  1  0
 29 51  1  0
 31 52  1  0
 31 53  1  0
M  END
$$$$
