
     RDKit          3D

 48 50  0  0  0  0  0  0  0  0999 V2000
   -0.4231   -0.0980    2.3114 C   0  0  0  0  0  0  0  0  0  0  0  0
   -0.1300   -0.1715    1.0048 C   0  0  0  0  0  0  0  0  0  0  0  0
    1.2205   -0.3719    0.4251 C   0  0  0  0  0  0  0  0  0  0  0  0
    2.3641   -0.5413    1.1126 C   0  0  0  0  0  0  0  0  0  0  0  0
    3.6407   -0.7300    0.5128 C   0  0  0  0  0  0  0  0  0  0  0  0
    4.9572    0.2872    0.9733 S   0  0  0  0  0  0  0  0  0  0  0  0
    5.9850   -0.5449   -0.0951 C   0  0  0  0  0  0  0  0  0  0  0  0
    7.3060   -0.2207   -0.2742 N   0  0  0  0  0  0  0  0  0  0  0  0
    8.0140    0.7703    0.3646 C   0  0  0  0  0  0  0  0  0  0  0  0
    9.4500    0.8350   -0.0960 C   0  0  0  0  0  0  0  0  0  0  0  0
    7.6113    1.5336    1.2345 O   0  0  0  0  0  0  0  0  0  0  0  0
    5.4462   -1.5390   -0.7605 N   0  0  0  0  0  0  0  0  0  0  0  0
    4.1272   -1.6495   -0.4018 C   0  0  0  0  0  0  0  0  0  0  0  0
    3.3663   -2.6260   -0.9169 O   0  0  0  0  0  0  0  0  0  0  0  0
    1.0733   -0.3235   -1.0268 C   0  0  0  0  0  0  0  0  0  0  0  0
   -0.2330   -0.1257   -1.2942 C   0  0  0  0  0  0  0  0  0  0  0  0
   -0.8221   -0.0862   -2.6638 C   0  0  0  0  0  0  0  0  0  0  0  0
   -0.9838   -0.0308   -0.1035 N   0  0  0  0  0  0  0  0  0  0  0  0
   -2.3958    0.0681   -0.0477 C   0  0  0  0  0  0  0  0  0  0  0  0
   -3.1631   -0.9023    0.6095 C   0  0  0  0  0  0  0  0  0  0  0  0
   -4.5588   -0.8078    0.6558 C   0  0  0  0  0  0  0  0  0  0  0  0
   -5.2228    0.2625    0.0460 C   0  0  0  0  0  0  0  0  0  0  0  0
   -6.6296    0.2840    0.1373 N   0  0  0  0  0  0  0  0  0  0  0  0
   -7.4942    1.2220   -0.3975 C   0  0  0  0  0  0  0  0  0  0  0  0
   -8.9370    0.9059   -0.0902 C   0  0  0  0  0  0  0  0  0  0  0  0
   -7.1985    2.2013   -1.0723 O   0  0  0  0  0  0  0  0  0  0  0  0
   -4.4666    1.2353   -0.6059 C   0  0  0  0  0  0  0  0  0  0  0  0
   -3.0694    1.1369   -0.6517 C   0  0  0  0  0  0  0  0  0  0  0  0
    0.3249   -0.2027    3.0867 H   0  0  0  0  0  0  0  0  0  0  0  0
   -1.4358    0.0951    2.6468 H   0  0  0  0  0  0  0  0  0  0  0  0
    2.3521   -0.5058    2.1974 H   0  0  0  0  0  0  0  0  0  0  0  0
    7.7685   -0.8121   -0.9496 H   0  0  0  0  0  0  0  0  0  0  0  0
    9.7788    1.8781   -0.1020 H   0  0  0  0  0  0  0  0  0  0  0  0
    9.5658    0.4397   -1.1092 H   0  0  0  0  0  0  0  0  0  0  0  0
   10.0737    0.2577    0.5913 H   0  0  0  0  0  0  0  0  0  0  0  0
    3.9429   -3.1358   -1.5105 H   0  0  0  0  0  0  0  0  0  0  0  0
    1.8605   -0.4457   -1.7514 H   0  0  0  0  0  0  0  0  0  0  0  0
   -0.0765   -0.3443   -3.4240 H   0  0  0  0  0  0  0  0  0  0  0  0
   -1.1952    0.9143   -2.9003 H   0  0  0  0  0  0  0  0  0  0  0  0
   -1.6432   -0.8040   -2.7576 H   0  0  0  0  0  0  0  0  0  0  0  0
   -2.6719   -1.7540    1.0744 H   0  0  0  0  0  0  0  0  0  0  0  0
   -5.1115   -1.5883    1.1714 H   0  0  0  0  0  0  0  0  0  0  0  0
   -7.0501   -0.4841    0.6443 H   0  0  0  0  0  0  0  0  0  0  0  0
   -9.3089    0.1731   -0.8111 H   0  0  0  0  0  0  0  0  0  0  0  0
   -9.5329    1.8207   -0.1615 H   0  0  0  0  0  0  0  0  0  0  0  0
   -9.0428    0.5114    0.9246 H   0  0  0  0  0  0  0  0  0  0  0  0
   -4.9277    2.0918   -1.0876 H   0  0  0  0  0  0  0  0  0  0  0  0
   -2.5045    1.9222   -1.1483 H   0  0  0  0  0  0  0  0  0  0  0  0
  1  2  2  0
  2  3  1  0
  3  4  2  3
  4  5  1  0
  5  6  1  0
  6  7  1  0
  7  8  1  0
  8  9  1  0
  9 10  1  0
  9 11  2  0
  7 12  2  0
 12 13  1  0
 13 14  1  0
  3 15  1  0
 15 16  2  0
 16 17  1  0
 16 18  1  0
 18 19  1  0
 19 20  2  0
 20 21  1  0
 21 22  2  0
 22 23  1  0
 23 24  1  0
 24 25  1  0
 24 26  2  0
 22 27  1  0
 27 28  2  0
 18  2  1  0
 28 19  1  0
 13  5  2  0
  1 29  1  0
  1 30  1  0
  4 31  1  0
  8 32  1  0
 10 33  1  0
 10 34  1  0
 10 35  1  0
 14 36  1  0
 15 37  1  0
 17 38  1  0
 17 39  1  0
 17 40  1  0
 20 41  1  0
 21 42  1  0
 23 43  1  0
 25 44  1  0
 25 45  1  0
 25 46  1  0
 27 47  1  0
 28 48  1  0
M  END
$$$$
