
     RDKit          3D

 43 46  0  0  0  0  0  0  0  0999 V2000
   -5.0857   -2.8341    1.4344 C   0  0  0  0  0  0  0  0  0  0  0  0
   -3.6666   -2.3162    1.3040 C   0  0  0  0  0  0  0  0  0  0  0  0
   -3.7230   -0.9896    0.7701 O   0  0  0  0  0  0  0  0  0  0  0  0
   -2.5055   -0.4055    0.5894 C   0  0  0  0  0  0  0  0  0  0  0  0
   -1.4343   -0.9298    0.8691 O   0  0  0  0  0  0  0  0  0  0  0  0
   -2.6690    0.9256    0.0313 C   0  0  0  0  0  0  0  0  0  0  0  0
   -3.8529    1.5905   -0.2680 C   0  0  0  0  0  0  0  0  0  0  0  0
   -3.4891    2.8516   -0.8112 C   0  0  0  0  0  0  0  0  0  0  0  0
   -4.2487    4.2764   -1.4360 S   0  0  0  0  0  0  0  0  0  0  0  0
   -2.7014    4.9631   -1.7375 C   0  0  0  0  0  0  0  0  0  0  0  0
   -1.6440    4.1550   -1.3771 C   0  0  0  0  0  0  0  0  0  0  0  0
   -2.1298    2.9317   -0.8354 C   0  0  0  0  0  0  0  0  0  0  0  0
   -1.6190    1.7616   -0.3133 N   0  0  0  0  0  0  0  0  0  0  0  0
   -0.1935    1.5086   -0.1489 C   0  0  0  0  0  0  0  0  0  0  0  0
    0.3608    0.5612   -1.1946 C   0  0  0  0  0  0  0  0  0  0  0  0
   -0.1688    0.3921   -2.2925 O   0  0  0  0  0  0  0  0  0  0  0  0
    1.6278   -0.1686   -0.8917 C   0  0  0  0  0  0  0  0  0  0  0  0
    1.9788   -1.2583   -1.7037 C   0  0  0  0  0  0  0  0  0  0  0  0
    3.1534   -1.9746   -1.4610 C   0  0  0  0  0  0  0  0  0  0  0  0
    3.9835   -1.6041   -0.4074 C   0  0  0  0  0  0  0  0  0  0  0  0
    3.6571   -0.4976    0.3829 C   0  0  0  0  0  0  0  0  0  0  0  0
    2.4774    0.2126    0.1535 C   0  0  0  0  0  0  0  0  0  0  0  0
    4.4482   -0.0502    1.4112 O   0  0  0  0  0  0  0  0  0  0  0  0
    5.7611   -0.6213    1.3489 C   0  0  0  0  0  0  0  0  0  0  0  0
    5.6864   -2.1144    1.0756 C   0  0  0  0  0  0  0  0  0  0  0  0
    5.1081   -2.3625   -0.2109 O   0  0  0  0  0  0  0  0  0  0  0  0
   -5.0948   -3.8494    1.8405 H   0  0  0  0  0  0  0  0  0  0  0  0
   -5.6741   -2.1849    2.0913 H   0  0  0  0  0  0  0  0  0  0  0  0
   -5.5855   -2.8382    0.4601 H   0  0  0  0  0  0  0  0  0  0  0  0
   -3.0975   -2.9642    0.6281 H   0  0  0  0  0  0  0  0  0  0  0  0
   -3.1878   -2.2985    2.2895 H   0  0  0  0  0  0  0  0  0  0  0  0
   -4.8570    1.2144   -0.1217 H   0  0  0  0  0  0  0  0  0  0  0  0
   -2.6487    5.9492   -2.1784 H   0  0  0  0  0  0  0  0  0  0  0  0
   -0.6045    4.4272   -1.5025 H   0  0  0  0  0  0  0  0  0  0  0  0
   -0.0598    1.1187    0.8640 H   0  0  0  0  0  0  0  0  0  0  0  0
    0.3374    2.4633   -0.2215 H   0  0  0  0  0  0  0  0  0  0  0  0
    1.3323   -1.5609   -2.5263 H   0  0  0  0  0  0  0  0  0  0  0  0
    3.4115   -2.8250   -2.0864 H   0  0  0  0  0  0  0  0  0  0  0  0
    2.2612    1.0635    0.7911 H   0  0  0  0  0  0  0  0  0  0  0  0
    6.2486   -0.4364    2.3112 H   0  0  0  0  0  0  0  0  0  0  0  0
    6.3309   -0.0987    0.5706 H   0  0  0  0  0  0  0  0  0  0  0  0
    6.6902   -2.5506    1.0779 H   0  0  0  0  0  0  0  0  0  0  0  0
    5.0863   -2.6324    1.8340 H   0  0  0  0  0  0  0  0  0  0  0  0
  1  2  1  0
  2  3  1  0
  3  4  1  0
  4  5  2  0
  4  6  1  0
  6  7  2  0
  7  8  1  0
  8  9  1  0
  9 10  1  0
 10 11  2  0
 11 12  1  0
 12 13  1  0
 13 14  1  0
 14 15  1  0
 15 16  2  0
 15 17  1  0
 17 18  2  0
 18 19  1  0
 19 20  2  0
 20 21  1  0
 21 22  2  0
 21 23  1  0
 23 24  1  0
 24 25  1  0
 25 26  1  0
 13  6  1  0
 22 17  1  0
 12  8  2  0
 26 20  1  0
  1 27  1  0
  1 28  1  0
  1 29  1  0
  2 30  1  0
  2 31  1  0
  7 32  1  0
 10 33  1  0
 11 34  1  0
 14 35  1  0
 14 36  1  0
 18 37  1  0
 19 38  1  0
 22 39  1  0
 24 40  1  0
 24 41  1  0
 25 42  1  0
 25 43  1  0
M  END
$$$$
