
     RDKit          3D

 51 54  0  0  0  0  0  0  0  0999 V2000
    2.8002    0.1862    2.3859 C   0  0  0  0  0  0  0  0  0  0  0  0
    2.7083    1.1171    1.1731 C   0  0  0  0  0  0  0  0  0  0  0  0
    1.4605    2.0206    1.2816 C   0  0  0  0  0  0  0  0  0  0  0  0
    0.5473    1.4057    0.2714 C   0  0  0  0  0  0  0  0  0  0  0  0
   -0.7860    1.7192    0.0511 C   0  0  0  0  0  0  0  0  0  0  0  0
   -1.4430    1.0733   -1.0002 C   0  0  0  0  0  0  0  0  0  0  0  0
   -3.1501    1.4581   -1.3071 S   0  0  0  0  0  6  0  0  0  0  0  0
   -3.2979    2.8906   -1.1565 O   0  0  0  0  0  0  0  0  0  0  0  0
   -3.5667    0.7856   -2.5197 O   0  0  0  0  0  0  0  0  0  0  0  0
   -3.9484    0.6971    0.0020 N   0  0  0  0  0  0  0  0  0  0  0  0
   -3.7492   -0.7776    0.0991 C   0  0  0  0  0  0  0  0  0  0  0  0
   -4.6956   -1.3763    1.1324 C   0  0  0  0  0  0  0  0  0  0  0  0
   -6.1550   -1.1872    0.7253 C   0  0  0  0  0  0  0  0  0  0  0  0
   -6.3560    0.0494   -0.1474 C   0  0  0  0  0  0  0  0  0  0  0  0
   -5.3593    1.1473    0.1976 C   0  0  0  0  0  0  0  0  0  0  0  0
   -0.7690    0.1589   -1.8251 C   0  0  0  0  0  0  0  0  0  0  0  0
    0.5781   -0.1386   -1.5874 C   0  0  0  0  0  0  0  0  0  0  0  0
    1.2265    0.4845   -0.5309 C   0  0  0  0  0  0  0  0  0  0  0  0
    2.5643    0.3484   -0.0922 N   0  0  0  0  0  0  0  0  0  0  0  0
    3.5442   -0.4121   -0.7329 C   0  0  0  0  0  0  0  0  0  0  0  0
    3.3077   -1.0811   -1.7485 O   0  0  0  0  0  0  0  0  0  0  0  0
    4.9863   -0.3813   -0.1280 C   0  0  0  0  0  0  0  0  0  0  0  0
    6.1739   -0.5270   -1.1214 C   0  0  0  0  0  0  0  0  0  0  0  0
    6.2251   -2.0239   -0.7731 C   0  0  0  0  0  0  0  0  0  0  0  0
    5.4955   -1.6886    0.5383 C   0  0  0  0  0  0  0  0  0  0  0  0
    1.9249   -0.4696    2.4529 H   0  0  0  0  0  0  0  0  0  0  0  0
    2.8634    0.7662    3.3126 H   0  0  0  0  0  0  0  0  0  0  0  0
    3.6837   -0.4546    2.3373 H   0  0  0  0  0  0  0  0  0  0  0  0
    3.6064    1.7414    1.1262 H   0  0  0  0  0  0  0  0  0  0  0  0
    1.7021    3.0445    0.9753 H   0  0  0  0  0  0  0  0  0  0  0  0
    1.0240    2.0346    2.2847 H   0  0  0  0  0  0  0  0  0  0  0  0
   -1.3021    2.4503    0.6672 H   0  0  0  0  0  0  0  0  0  0  0  0
   -3.9083   -1.2572   -0.8731 H   0  0  0  0  0  0  0  0  0  0  0  0
   -2.7208   -0.9763    0.4176 H   0  0  0  0  0  0  0  0  0  0  0  0
   -4.4860   -2.4429    1.2702 H   0  0  0  0  0  0  0  0  0  0  0  0
   -4.5259   -0.8938    2.1036 H   0  0  0  0  0  0  0  0  0  0  0  0
   -6.5112   -2.0690    0.1795 H   0  0  0  0  0  0  0  0  0  0  0  0
   -6.7706   -1.1147    1.6299 H   0  0  0  0  0  0  0  0  0  0  0  0
   -6.2385   -0.2291   -1.2025 H   0  0  0  0  0  0  0  0  0  0  0  0
   -7.3820    0.4168   -0.0330 H   0  0  0  0  0  0  0  0  0  0  0  0
   -5.5824    2.0345   -0.4040 H   0  0  0  0  0  0  0  0  0  0  0  0
   -5.4711    1.4506    1.2456 H   0  0  0  0  0  0  0  0  0  0  0  0
   -1.2816   -0.3233   -2.6552 H   0  0  0  0  0  0  0  0  0  0  0  0
    1.0819   -0.8501   -2.2331 H   0  0  0  0  0  0  0  0  0  0  0  0
    5.1576    0.4906    0.5111 H   0  0  0  0  0  0  0  0  0  0  0  0
    7.0693    0.0273   -0.8159 H   0  0  0  0  0  0  0  0  0  0  0  0
    5.9629   -0.2971   -2.1694 H   0  0  0  0  0  0  0  0  0  0  0  0
    5.6427   -2.6559   -1.4527 H   0  0  0  0  0  0  0  0  0  0  0  0
    7.2252   -2.4507   -0.6630 H   0  0  0  0  0  0  0  0  0  0  0  0
    4.7283   -2.4074    0.8393 H   0  0  0  0  0  0  0  0  0  0  0  0
    6.1666   -1.5135    1.3871 H   0  0  0  0  0  0  0  0  0  0  0  0
  1  2  1  0
  2  3  1  0
  3  4  1  0
  4  5  2  0
  5  6  1  0
  6  7  1  0
  7  8  2  0
  7  9  2  0
  7 10  1  0
 10 11  1  0
 11 12  1  0
 12 13  1  0
 13 14  1  0
 14 15  1  0
  6 16  2  0
 16 17  1  0
 17 18  2  0
 18 19  1  0
 19 20  1  0
 20 21  2  0
 20 22  1  0
 22 23  1  0
 23 24  1  0
 24 25  1  0
 19  2  1  0
 25 22  1  0
 18  4  1  0
 15 10  1  0
  1 26  1  0
  1 27  1  0
  1 28  1  0
  2 29  1  0
  3 30  1  0
  3 31  1  0
  5 32  1  0
 11 33  1  0
 11 34  1  0
 12 35  1  0
 12 36  1  0
 13 37  1  0
 13 38  1  0
 14 39  1  0
 14 40  1  0
 15 41  1  0
 15 42  1  0
 16 43  1  0
 17 44  1  0
 22 45  1  0
 23 46  1  0
 23 47  1  0
 24 48  1  0
 24 49  1  0
 25 50  1  0
 25 51  1  0
M  END
$$$$
