
     RDKit          3D

 40 42  0  0  0  0  0  0  0  0999 V2000
    6.0687    1.3174    0.6500 C   0  0  0  0  0  0  0  0  0  0  0  0
    5.4815    0.4428   -0.4471 C   0  0  0  0  0  0  0  0  0  0  0  0
    3.9877    0.2940   -0.3058 C   0  0  0  0  0  0  0  0  0  0  0  0
    3.4480   -0.7454    0.4610 C   0  0  0  0  0  0  0  0  0  0  0  0
    2.0644   -0.8753    0.6037 C   0  0  0  0  0  0  0  0  0  0  0  0
    1.2013    0.0360   -0.0155 C   0  0  0  0  0  0  0  0  0  0  0  0
   -0.2613   -0.1279    0.1594 C   0  0  0  0  0  0  0  0  0  0  0  0
   -0.7809   -1.0137    0.9530 N   0  0  0  0  0  0  0  0  0  0  0  0
   -2.2621   -0.9038    0.7967 N   0  0  0  0  0  0  0  0  0  0  0  0
   -3.2466   -1.0369    2.1790 S   0  0  0  0  0  6  0  0  0  0  0  0
   -2.5456    0.2253    3.2204 C   0  0  0  0  0  0  0  0  0  0  0  0
   -3.0053   -2.3115    2.8227 O   0  0  0  0  0  0  0  0  0  0  0  0
   -4.5903   -0.6142    1.8338 O   0  0  0  0  0  0  0  0  0  0  0  0
   -2.5968    0.1429   -0.1917 C   0  0  0  0  0  0  0  0  0  0  0  0
   -3.3064   -0.4868   -1.3647 C   0  0  0  0  0  0  0  0  0  0  0  0
   -4.6334   -0.3203   -1.7216 C   0  0  0  0  0  0  0  0  0  0  0  0
   -4.9905   -1.0685   -2.8797 C   0  0  0  0  0  0  0  0  0  0  0  0
   -3.9296   -1.7940   -3.3700 C   0  0  0  0  0  0  0  0  0  0  0  0
   -2.5172   -1.5773   -2.4347 S   0  0  0  0  0  0  0  0  0  0  0  0
   -1.2476    0.7758   -0.5377 C   0  0  0  0  0  0  0  0  0  0  0  0
    1.7352    1.0801   -0.7772 C   0  0  0  0  0  0  0  0  0  0  0  0
    3.1207    1.2078   -0.9182 C   0  0  0  0  0  0  0  0  0  0  0  0
    7.1521    1.4077    0.5227 H   0  0  0  0  0  0  0  0  0  0  0  0
    5.8777    0.8929    1.6415 H   0  0  0  0  0  0  0  0  0  0  0  0
    5.6392    2.3247    0.6277 H   0  0  0  0  0  0  0  0  0  0  0  0
    5.7182    0.8705   -1.4289 H   0  0  0  0  0  0  0  0  0  0  0  0
    5.9545   -0.5466   -0.4256 H   0  0  0  0  0  0  0  0  0  0  0  0
    4.1012   -1.4641    0.9520 H   0  0  0  0  0  0  0  0  0  0  0  0
    1.6697   -1.6967    1.1992 H   0  0  0  0  0  0  0  0  0  0  0  0
   -2.6066    1.1880    2.7102 H   0  0  0  0  0  0  0  0  0  0  0  0
   -3.1313    0.2609    4.1419 H   0  0  0  0  0  0  0  0  0  0  0  0
   -1.5113   -0.0320    3.4546 H   0  0  0  0  0  0  0  0  0  0  0  0
   -3.2368    0.9202    0.2423 H   0  0  0  0  0  0  0  0  0  0  0  0
   -5.3260    0.2997   -1.1632 H   0  0  0  0  0  0  0  0  0  0  0  0
   -5.9793   -1.0847   -3.3214 H   0  0  0  0  0  0  0  0  0  0  0  0
   -3.9179   -2.4535   -4.2268 H   0  0  0  0  0  0  0  0  0  0  0  0
   -1.0483    0.8572   -1.6092 H   0  0  0  0  0  0  0  0  0  0  0  0
   -1.1712    1.7721   -0.0866 H   0  0  0  0  0  0  0  0  0  0  0  0
    1.1004    1.8099   -1.2701 H   0  0  0  0  0  0  0  0  0  0  0  0
    3.5222    2.0271   -1.5117 H   0  0  0  0  0  0  0  0  0  0  0  0
  1  2  1  0
  2  3  1  0
  3  4  2  0
  4  5  1  0
  5  6  2  0
  6  7  1  0
  7  8  2  0
  8  9  1  0
  9 10  1  0
 10 11  1  0
 10 12  2  0
 10 13  2  0
  9 14  1  0
 14 15  1  0
 15 16  2  0
 16 17  1  0
 17 18  2  0
 18 19  1  0
 14 20  1  0
  6 21  1  0
 21 22  2  0
 22  3  1  0
 20  7  1  0
 19 15  1  0
  1 23  1  0
  1 24  1  0
  1 25  1  0
  2 26  1  0
  2 27  1  0
  4 28  1  0
  5 29  1  0
 11 30  1  0
 11 31  1  0
 11 32  1  0
 14 33  1  0
 16 34  1  0
 17 35  1  0
 18 36  1  0
 20 37  1  0
 20 38  1  0
 21 39  1  0
 22 40  1  0
M  END
$$$$
