
     RDKit          3D

 54 57  0  0  0  0  0  0  0  0999 V2000
   -3.8168   -5.0469   -1.1504 C   0  0  0  0  0  0  0  0  0  0  0  0
   -4.4421   -3.8472   -1.5879 O   0  0  0  0  0  0  0  0  0  0  0  0
   -4.0849   -2.6946   -0.9446 C   0  0  0  0  0  0  0  0  0  0  0  0
   -3.1775   -2.5893    0.1091 C   0  0  0  0  0  0  0  0  0  0  0  0
   -2.9017   -1.3398    0.6782 C   0  0  0  0  0  0  0  0  0  0  0  0
   -3.5279   -0.1807    0.2023 C   0  0  0  0  0  0  0  0  0  0  0  0
   -3.2171    1.1278    0.7925 C   0  0  0  0  0  0  0  0  0  0  0  0
   -4.4748    1.9840    1.5764 S   0  0  0  0  0  0  0  0  0  0  0  0
   -3.4476    3.2925    1.9997 C   0  0  0  0  0  0  0  0  0  0  0  0
   -3.8120    4.4559    2.7073 C   0  0  0  0  0  0  0  0  0  0  0  0
   -2.8432    5.4288    2.9598 C   0  0  0  0  0  0  0  0  0  0  0  0
   -1.5404    5.2542    2.5185 C   0  0  0  0  0  0  0  0  0  0  0  0
   -1.1840    4.0979    1.8183 C   0  0  0  0  0  0  0  0  0  0  0  0
   -2.1425    3.0849    1.5497 C   0  0  0  0  0  0  0  0  0  0  0  0
   -2.0163    1.8198    0.8564 C   0  0  0  0  0  0  0  0  0  0  0  0
   -0.7880    1.2908    0.2699 C   0  0  0  0  0  0  0  0  0  0  0  0
   -0.6621    1.1488   -1.1144 C   0  0  0  0  0  0  0  0  0  0  0  0
    0.5200    0.6417   -1.6596 C   0  0  0  0  0  0  0  0  0  0  0  0
    1.5875    0.2761   -0.8354 C   0  0  0  0  0  0  0  0  0  0  0  0
    2.6816   -0.2042   -1.5000 O   0  0  0  0  0  0  0  0  0  0  0  0
    3.8067   -0.5980   -0.7079 C   0  0  0  0  0  0  0  0  0  0  0  0
    4.9053   -1.1041   -1.6600 C   0  0  0  0  0  0  0  0  0  0  0  0
    6.1698   -1.5663   -1.0639 N   0  0  0  0  0  0  0  0  0  0  0  0
    5.9936   -2.7334   -0.2053 C   0  0  0  0  0  0  0  0  0  0  0  0
    6.8852   -0.5018   -0.3669 C   0  0  0  0  0  0  0  0  0  0  0  0
    1.4645    0.4226    0.5467 C   0  0  0  0  0  0  0  0  0  0  0  0
    0.2814    0.9289    1.0971 C   0  0  0  0  0  0  0  0  0  0  0  0
   -4.4374   -0.2934   -0.8558 C   0  0  0  0  0  0  0  0  0  0  0  0
   -4.7123   -1.5417   -1.4213 C   0  0  0  0  0  0  0  0  0  0  0  0
   -4.2010   -5.8672   -1.7645 H   0  0  0  0  0  0  0  0  0  0  0  0
   -4.0688   -5.2657   -0.1075 H   0  0  0  0  0  0  0  0  0  0  0  0
   -2.7322   -5.0027   -1.2951 H   0  0  0  0  0  0  0  0  0  0  0  0
   -2.6652   -3.4557    0.5130 H   0  0  0  0  0  0  0  0  0  0  0  0
   -2.1911   -1.2791    1.4994 H   0  0  0  0  0  0  0  0  0  0  0  0
   -4.8334    4.5965    3.0499 H   0  0  0  0  0  0  0  0  0  0  0  0
   -3.1160    6.3304    3.5031 H   0  0  0  0  0  0  0  0  0  0  0  0
   -0.7923    6.0187    2.7133 H   0  0  0  0  0  0  0  0  0  0  0  0
   -0.1597    3.9799    1.4720 H   0  0  0  0  0  0  0  0  0  0  0  0
   -1.4780    1.4276   -1.7770 H   0  0  0  0  0  0  0  0  0  0  0  0
    0.6082    0.5301   -2.7377 H   0  0  0  0  0  0  0  0  0  0  0  0
    4.1740    0.2651   -0.1416 H   0  0  0  0  0  0  0  0  0  0  0  0
    3.5087   -1.4008   -0.0243 H   0  0  0  0  0  0  0  0  0  0  0  0
    4.4884   -1.9139   -2.2742 H   0  0  0  0  0  0  0  0  0  0  0  0
    5.1274   -0.3123   -2.3885 H   0  0  0  0  0  0  0  0  0  0  0  0
    6.9680   -3.1343    0.0959 H   0  0  0  0  0  0  0  0  0  0  0  0
    5.4782   -3.5368   -0.7430 H   0  0  0  0  0  0  0  0  0  0  0  0
    5.4271   -2.5055    0.7041 H   0  0  0  0  0  0  0  0  0  0  0  0
    7.8823   -0.8454   -0.0695 H   0  0  0  0  0  0  0  0  0  0  0  0
    6.3625   -0.1632    0.5342 H   0  0  0  0  0  0  0  0  0  0  0  0
    7.0357    0.3607   -1.0255 H   0  0  0  0  0  0  0  0  0  0  0  0
    2.2661    0.1530    1.2257 H   0  0  0  0  0  0  0  0  0  0  0  0
    0.1987    1.0339    2.1768 H   0  0  0  0  0  0  0  0  0  0  0  0
   -4.9344    0.5883   -1.2536 H   0  0  0  0  0  0  0  0  0  0  0  0
   -5.4204   -1.6150   -2.2431 H   0  0  0  0  0  0  0  0  0  0  0  0
  1  2  1  0
  2  3  1  0
  3  4  2  0
  4  5  1  0
  5  6  2  0
  6  7  1  0
  7  8  1  0
  8  9  1  0
  9 10  2  0
 10 11  1  0
 11 12  2  0
 12 13  1  0
 13 14  2  0
 14 15  1  0
 15 16  1  0
 16 17  2  0
 17 18  1  0
 18 19  2  0
 19 20  1  0
 20 21  1  0
 21 22  1  0
 22 23  1  0
 23 24  1  0
 23 25  1  0
 19 26  1  0
 26 27  2  0
  6 28  1  0
 28 29  2  0
 29  3  1  0
 15  7  2  0
 27 16  1  0
 14  9  1  0
  1 30  1  0
  1 31  1  0
  1 32  1  0
  4 33  1  0
  5 34  1  0
 10 35  1  0
 11 36  1  0
 12 37  1  0
 13 38  1  0
 17 39  1  0
 18 40  1  0
 21 41  1  0
 21 42  1  0
 22 43  1  0
 22 44  1  0
 24 45  1  0
 24 46  1  0
 24 47  1  0
 25 48  1  0
 25 49  1  0
 25 50  1  0
 26 51  1  0
 27 52  1  0
 28 53  1  0
 29 54  1  0
M  END
$$$$
