
     RDKit          3D

 45 47  0  0  0  0  0  0  0  0999 V2000
   -6.1924   -0.3941    0.8880 C   0  0  0  0  0  0  0  0  0  0  0  0
   -5.1612    0.6872    1.1724 C   0  0  0  0  0  0  0  0  0  0  0  0
   -4.2318    0.8470    0.0466 N   0  0  0  0  0  0  0  0  0  0  0  0
   -4.6404    1.7795   -1.0132 C   0  0  0  0  0  0  0  0  0  0  0  0
   -5.0004    1.0468   -2.2989 C   0  0  0  0  0  0  0  0  0  0  0  0
   -2.9994    0.2004    0.0265 C   0  0  0  0  0  0  0  0  0  0  0  0
   -1.9665    0.5757   -0.8488 C   0  0  0  0  0  0  0  0  0  0  0  0
   -0.7206   -0.0731   -0.8739 C   0  0  0  0  0  0  0  0  0  0  0  0
   -0.4516   -1.1257   -0.0048 C   0  0  0  0  0  0  0  0  0  0  0  0
    0.8120   -1.8679   -0.0258 C   0  0  0  0  0  0  0  0  0  0  0  0
    2.0530   -1.3669    0.0363 C   0  0  0  0  0  0  0  0  0  0  0  0
    3.2380   -2.2697    0.0207 C   0  0  0  0  0  0  0  0  0  0  0  0
    3.2634   -3.4798   -0.0586 O   0  0  0  0  0  0  0  0  0  0  0  0
    4.4047   -1.3874    0.1247 C   0  0  0  0  0  0  0  0  0  0  0  0
    5.7410   -1.7434    0.1504 C   0  0  0  0  0  0  0  0  0  0  0  0
    6.6839   -0.7136    0.2566 C   0  0  0  0  0  0  0  0  0  0  0  0
    6.2777    0.6404    0.3345 C   0  0  0  0  0  0  0  0  0  0  0  0
    7.2628    1.7442    0.4467 C   0  0  0  0  0  0  0  0  0  0  0  0
    6.9965    2.9289    0.5127 O   0  0  0  0  0  0  0  0  0  0  0  0
    8.5329    1.3069    0.4703 O   0  0  0  0  0  0  0  0  0  0  0  0
    4.9154    0.9760    0.3066 C   0  0  0  0  0  0  0  0  0  0  0  0
    4.0005   -0.0578    0.2012 C   0  0  0  0  0  0  0  0  0  0  0  0
    2.5357    0.0370    0.1526 C   0  0  0  0  0  0  0  0  0  0  0  0
    1.9070    1.0714    0.1982 O   0  0  0  0  0  0  0  0  0  0  0  0
   -1.4630   -1.5346    0.8621 C   0  0  0  0  0  0  0  0  0  0  0  0
   -2.7048   -0.8791    0.8761 C   0  0  0  0  0  0  0  0  0  0  0  0
   -5.7210   -1.3569    0.6688 H   0  0  0  0  0  0  0  0  0  0  0  0
   -6.8177   -0.1258    0.0307 H   0  0  0  0  0  0  0  0  0  0  0  0
   -6.8498   -0.5253    1.7532 H   0  0  0  0  0  0  0  0  0  0  0  0
   -4.6338    0.4782    2.1104 H   0  0  0  0  0  0  0  0  0  0  0  0
   -5.6859    1.6329    1.3585 H   0  0  0  0  0  0  0  0  0  0  0  0
   -3.8709    2.5378   -1.1952 H   0  0  0  0  0  0  0  0  0  0  0  0
   -5.5251    2.3462   -0.6964 H   0  0  0  0  0  0  0  0  0  0  0  0
   -4.1464    0.5052   -2.7158 H   0  0  0  0  0  0  0  0  0  0  0  0
   -5.8020    0.3213   -2.1294 H   0  0  0  0  0  0  0  0  0  0  0  0
   -5.3446    1.7606   -3.0540 H   0  0  0  0  0  0  0  0  0  0  0  0
   -2.0926    1.4031   -1.5397 H   0  0  0  0  0  0  0  0  0  0  0  0
    0.0290    0.2721   -1.5814 H   0  0  0  0  0  0  0  0  0  0  0  0
    0.6874   -2.9499   -0.0763 H   0  0  0  0  0  0  0  0  0  0  0  0
    6.0458   -2.7844    0.0905 H   0  0  0  0  0  0  0  0  0  0  0  0
    7.7423   -0.9704    0.2786 H   0  0  0  0  0  0  0  0  0  0  0  0
    9.0653    2.1275    0.5463 H   0  0  0  0  0  0  0  0  0  0  0  0
    4.5814    2.0092    0.3658 H   0  0  0  0  0  0  0  0  0  0  0  0
   -1.3058   -2.3685    1.5424 H   0  0  0  0  0  0  0  0  0  0  0  0
   -3.4479   -1.2613    1.5689 H   0  0  0  0  0  0  0  0  0  0  0  0
  1  2  1  0
  2  3  1  0
  3  4  1  0
  4  5  1  0
  3  6  1  0
  6  7  2  0
  7  8  1  0
  8  9  2  0
  9 10  1  0
 10 11  2  3
 11 12  1  0
 12 13  2  0
 12 14  1  0
 14 15  2  0
 15 16  1  0
 16 17  2  0
 17 18  1  0
 18 19  2  0
 18 20  1  0
 17 21  1  0
 21 22  2  0
 22 23  1  0
 23 24  2  0
  9 25  1  0
 25 26  2  0
 26  6  1  0
 23 11  1  0
 22 14  1  0
  1 27  1  0
  1 28  1  0
  1 29  1  0
  2 30  1  0
  2 31  1  0
  4 32  1  0
  4 33  1  0
  5 34  1  0
  5 35  1  0
  5 36  1  0
  7 37  1  0
  8 38  1  0
 10 39  1  0
 15 40  1  0
 16 41  1  0
 20 42  1  0
 21 43  1  0
 25 44  1  0
 26 45  1  0
M  END
$$$$
