
     RDKit          3D

 48 50  0  0  0  0  0  0  0  0999 V2000
    5.4306   -4.3986   -0.3232 C   0  0  0  0  0  0  0  0  0  0  0  0
    5.4138   -2.8905   -0.5078 C   0  0  0  0  0  0  0  0  0  0  0  0
    4.0796   -2.2919   -0.0804 C   0  0  0  0  0  0  0  0  0  0  0  0
    4.0480   -0.5282   -0.3445 S   0  0  0  0  0  6  0  0  0  0  0  0
    4.0612   -0.2591   -1.7697 O   0  0  0  0  0  0  0  0  0  0  0  0
    4.9820    0.1041    0.5683 O   0  0  0  0  0  0  0  0  0  0  0  0
    2.4321   -0.0675    0.2151 C   0  0  0  0  0  0  0  0  0  0  0  0
    1.4883   -0.8987    0.5994 N   0  0  0  0  0  0  0  0  0  0  0  0
    0.3667   -0.1544    0.9816 C   0  0  0  0  0  0  0  0  0  0  0  0
   -1.0950   -0.9690    1.4968 S   0  0  0  0  0  6  0  0  0  0  0  0
   -1.7991   -0.0226    2.3442 O   0  0  0  0  0  0  0  0  0  0  0  0
   -0.6624   -2.2620    1.9913 O   0  0  0  0  0  0  0  0  0  0  0  0
   -2.0087   -1.1965   -0.0019 C   0  0  0  0  0  0  0  0  0  0  0  0
   -1.8410   -2.3701   -0.7407 C   0  0  0  0  0  0  0  0  0  0  0  0
   -2.5670   -2.5493   -1.9192 C   0  0  0  0  0  0  0  0  0  0  0  0
   -3.4581   -1.5618   -2.3629 C   0  0  0  0  0  0  0  0  0  0  0  0
   -4.2538   -1.7760   -3.6179 C   0  0  0  0  0  0  0  0  0  0  0  0
   -3.6357   -0.4022   -1.5964 C   0  0  0  0  0  0  0  0  0  0  0  0
   -2.9134   -0.2158   -0.4168 C   0  0  0  0  0  0  0  0  0  0  0  0
    0.4785    1.2301    0.8634 C   0  0  0  0  0  0  0  0  0  0  0  0
   -0.4597    2.1766    1.1518 N   0  0  0  0  0  0  0  0  0  0  0  0
   -0.1784    3.6065    1.1908 C   0  0  0  0  0  0  0  0  0  0  0  0
   -1.3554    4.4283    1.5971 C   0  0  0  0  0  0  0  0  0  0  0  0
   -1.6328    5.2034    2.7059 C   0  0  0  0  0  0  0  0  0  0  0  0
   -2.9339    5.7268    2.5100 C   0  0  0  0  0  0  0  0  0  0  0  0
   -3.3680    5.2358    1.3001 C   0  0  0  0  0  0  0  0  0  0  0  0
   -2.4177    4.4457    0.7382 O   0  0  0  0  0  0  0  0  0  0  0  0
    2.0508    1.5889    0.2400 S   0  0  0  0  0  0  0  0  0  0  0  0
    5.2564   -4.6712    0.7223 H   0  0  0  0  0  0  0  0  0  0  0  0
    4.6583   -4.8744   -0.9364 H   0  0  0  0  0  0  0  0  0  0  0  0
    6.4008   -4.8059   -0.6235 H   0  0  0  0  0  0  0  0  0  0  0  0
    5.6107   -2.6549   -1.5603 H   0  0  0  0  0  0  0  0  0  0  0  0
    6.2292   -2.4426    0.0729 H   0  0  0  0  0  0  0  0  0  0  0  0
    3.9045   -2.4665    0.9863 H   0  0  0  0  0  0  0  0  0  0  0  0
    3.2583   -2.7287   -0.6585 H   0  0  0  0  0  0  0  0  0  0  0  0
   -1.1534   -3.1458   -0.4094 H   0  0  0  0  0  0  0  0  0  0  0  0
   -2.4363   -3.4654   -2.4922 H   0  0  0  0  0  0  0  0  0  0  0  0
   -3.6331   -2.2397   -4.3924 H   0  0  0  0  0  0  0  0  0  0  0  0
   -4.6218   -0.8263   -4.0209 H   0  0  0  0  0  0  0  0  0  0  0  0
   -5.1116   -2.4239   -3.4105 H   0  0  0  0  0  0  0  0  0  0  0  0
   -4.3393    0.3654   -1.9147 H   0  0  0  0  0  0  0  0  0  0  0  0
   -3.0631    0.6928    0.1627 H   0  0  0  0  0  0  0  0  0  0  0  0
   -1.2530    1.9122    1.7470 H   0  0  0  0  0  0  0  0  0  0  0  0
    0.1513    3.9498    0.2025 H   0  0  0  0  0  0  0  0  0  0  0  0
    0.6375    3.7997    1.8986 H   0  0  0  0  0  0  0  0  0  0  0  0
   -0.9780    5.3673    3.5526 H   0  0  0  0  0  0  0  0  0  0  0  0
   -3.4894    6.3789    3.1701 H   0  0  0  0  0  0  0  0  0  0  0  0
   -4.2796    5.3475    0.7289 H   0  0  0  0  0  0  0  0  0  0  0  0
  1  2  1  0
  2  3  1  0
  3  4  1  0
  4  5  2  0
  4  6  2  0
  4  7  1  0
  7  8  2  0
  8  9  1  0
  9 10  1  0
 10 11  2  0
 10 12  2  0
 10 13  1  0
 13 14  2  0
 14 15  1  0
 15 16  2  0
 16 17  1  0
 16 18  1  0
 18 19  2  0
  9 20  2  0
 20 21  1  0
 21 22  1  0
 22 23  1  0
 23 24  2  0
 24 25  1  0
 25 26  2  0
 26 27  1  0
 20 28  1  0
 28  7  1  0
 19 13  1  0
 27 23  1  0
  1 29  1  0
  1 30  1  0
  1 31  1  0
  2 32  1  0
  2 33  1  0
  3 34  1  0
  3 35  1  0
 14 36  1  0
 15 37  1  0
 17 38  1  0
 17 39  1  0
 17 40  1  0
 18 41  1  0
 19 42  1  0
 21 43  1  0
 22 44  1  0
 22 45  1  0
 24 46  1  0
 25 47  1  0
 26 48  1  0
M  END
$$$$
