
     RDKit          3D

 35 37  0  0  0  0  0  0  0  0999 V2000
   -3.1827   -1.2239   -2.5202 C   0  0  0  0  0  0  0  0  0  0  0  0
   -3.1384   -1.4714   -1.1206 O   0  0  0  0  0  0  0  0  0  0  0  0
   -3.9924   -0.6064   -0.3698 C   0  0  0  0  0  0  0  0  0  0  0  0
   -3.3423    0.7541   -0.0661 C   0  0  0  0  0  0  0  0  0  0  0  0
   -2.0967    0.6195    0.7093 N   0  0  0  0  0  0  0  0  0  0  0  0
   -2.1244    0.4870    2.1115 C   0  0  0  0  0  0  0  0  0  0  0  0
   -3.4837    0.5502    3.0997 S   0  0  0  0  0  0  0  0  0  0  0  0
   -0.9247    0.2954    2.7523 N   0  0  0  0  0  0  0  0  0  0  0  0
    0.2241    0.2269    2.0319 C   0  0  0  0  0  0  0  0  0  0  0  0
    1.6824   -0.0220    2.8232 S   0  0  0  0  0  0  0  0  0  0  0  0
    2.5158    0.0309    1.3317 C   0  0  0  0  0  0  0  0  0  0  0  0
    1.6669    0.2257    0.2503 C   0  0  0  0  0  0  0  0  0  0  0  0
    0.3048    0.3519    0.6794 C   0  0  0  0  0  0  0  0  0  0  0  0
   -0.9135    0.5862   -0.0709 C   0  0  0  0  0  0  0  0  0  0  0  0
   -0.8838    0.7731   -1.2854 O   0  0  0  0  0  0  0  0  0  0  0  0
    2.1823    0.3134   -1.1565 C   0  0  0  0  0  0  0  0  0  0  0  0
    3.6230   -0.2112   -1.2714 C   0  0  0  0  0  0  0  0  0  0  0  0
    4.5127    0.3050   -0.1313 C   0  0  0  0  0  0  0  0  0  0  0  0
    3.9989   -0.1521    1.2428 C   0  0  0  0  0  0  0  0  0  0  0  0
   -4.1811   -1.4451   -2.9098 H   0  0  0  0  0  0  0  0  0  0  0  0
   -2.4655   -1.8894   -3.0081 H   0  0  0  0  0  0  0  0  0  0  0  0
   -2.9135   -0.1911   -2.7540 H   0  0  0  0  0  0  0  0  0  0  0  0
   -4.2173   -1.1314    0.5634 H   0  0  0  0  0  0  0  0  0  0  0  0
   -4.9451   -0.4665   -0.8943 H   0  0  0  0  0  0  0  0  0  0  0  0
   -3.1356    1.2816   -1.0030 H   0  0  0  0  0  0  0  0  0  0  0  0
   -4.0522    1.3826    0.4806 H   0  0  0  0  0  0  0  0  0  0  0  0
   -0.8994    0.1899    3.7593 H   0  0  0  0  0  0  0  0  0  0  0  0
    1.5399   -0.2562   -1.8370 H   0  0  0  0  0  0  0  0  0  0  0  0
    2.1520    1.3632   -1.4732 H   0  0  0  0  0  0  0  0  0  0  0  0
    4.0431    0.0865   -2.2387 H   0  0  0  0  0  0  0  0  0  0  0  0
    3.6157   -1.3087   -1.2499 H   0  0  0  0  0  0  0  0  0  0  0  0
    4.5403    1.4017   -0.1675 H   0  0  0  0  0  0  0  0  0  0  0  0
    5.5415   -0.0456   -0.2710 H   0  0  0  0  0  0  0  0  0  0  0  0
    4.2347   -1.2141    1.3840 H   0  0  0  0  0  0  0  0  0  0  0  0
    4.5140    0.4103    2.0298 H   0  0  0  0  0  0  0  0  0  0  0  0
  1  2  1  0
  2  3  1  0
  3  4  1  0
  4  5  1  0
  5  6  1  0
  6  7  2  0
  6  8  1  0
  8  9  1  0
  9 10  1  0
 10 11  1  0
 11 12  2  0
 12 13  1  0
 13 14  1  0
 14 15  2  0
 12 16  1  0
 16 17  1  0
 17 18  1  0
 18 19  1  0
 14  5  1  0
 13  9  2  0
 19 11  1  0
  1 20  1  0
  1 21  1  0
  1 22  1  0
  3 23  1  0
  3 24  1  0
  4 25  1  0
  4 26  1  0
  8 27  1  0
 16 28  1  0
 16 29  1  0
 17 30  1  0
 17 31  1  0
 18 32  1  0
 18 33  1  0
 19 34  1  0
 19 35  1  0
M  END
$$$$
