
     RDKit          3D

 55 57  0  0  0  0  0  0  0  0999 V2000
   -8.0555   -1.8121    0.0098 C   0  0  0  0  0  0  0  0  0  0  0  0
   -7.0204   -0.9173    0.6257 C   0  0  0  0  0  0  0  0  0  0  0  0
   -7.1017   -0.5699    1.9768 C   0  0  0  0  0  0  0  0  0  0  0  0
   -6.1294    0.2464    2.5600 C   0  0  0  0  0  0  0  0  0  0  0  0
   -5.0405    0.7190    1.8118 C   0  0  0  0  0  0  0  0  0  0  0  0
   -4.0184    1.5971    2.4806 C   0  0  0  0  0  0  0  0  0  0  0  0
   -4.9526    0.3613    0.4543 C   0  0  0  0  0  0  0  0  0  0  0  0
   -3.8295    0.8459   -0.3926 C   0  0  0  0  0  0  0  0  0  0  0  0
   -3.4937    2.0274   -0.3538 O   0  0  0  0  0  0  0  0  0  0  0  0
   -3.1457   -0.1783   -1.2931 C   0  0  0  0  0  0  0  0  0  0  0  0
   -1.8160    0.2162   -1.6376 O   0  0  0  0  0  0  0  0  0  0  0  0
   -0.9238    0.0824   -0.6246 C   0  0  0  0  0  0  0  0  0  0  0  0
   -1.1528   -0.4277    0.4608 O   0  0  0  0  0  0  0  0  0  0  0  0
    0.4090    0.6138   -1.0178 C   0  0  0  0  0  0  0  0  0  0  0  0
    0.6247    1.2700   -2.2334 C   0  0  0  0  0  0  0  0  0  0  0  0
    1.8970    1.7495   -2.5595 C   0  0  0  0  0  0  0  0  0  0  0  0
    2.9843    1.5790   -1.6861 C   0  0  0  0  0  0  0  0  0  0  0  0
    4.3188    2.1455   -2.0866 C   0  0  0  0  0  0  0  0  0  0  0  0
    2.7575    0.9209   -0.4614 C   0  0  0  0  0  0  0  0  0  0  0  0
    4.0668    0.6753    0.7300 S   0  0  0  0  0  6  0  0  0  0  0  0
    3.5242   -0.0154    1.8812 O   0  0  0  0  0  0  0  0  0  0  0  0
    4.7737    1.9281    0.8807 O   0  0  0  0  0  0  0  0  0  0  0  0
    5.0965   -0.4321   -0.0605 N   0  0  0  0  0  0  0  0  0  0  0  0
    6.4680   -0.4862    0.5465 C   0  0  0  0  0  0  0  0  0  0  0  0
    7.2050   -1.7457    0.0848 C   0  0  0  0  0  0  0  0  0  0  0  0
    6.5634   -2.9586    0.5019 O   0  0  0  0  0  0  0  0  0  0  0  0
    5.1443   -2.8238    0.6652 C   0  0  0  0  0  0  0  0  0  0  0  0
    4.5292   -1.8014   -0.2940 C   0  0  0  0  0  0  0  0  0  0  0  0
    1.4770    0.4492   -0.1285 C   0  0  0  0  0  0  0  0  0  0  0  0
   -5.9345   -0.4565   -0.1297 C   0  0  0  0  0  0  0  0  0  0  0  0
   -9.0329   -1.6603    0.4801 H   0  0  0  0  0  0  0  0  0  0  0  0
   -7.7631   -2.8599    0.1305 H   0  0  0  0  0  0  0  0  0  0  0  0
   -8.1728   -1.5972   -1.0574 H   0  0  0  0  0  0  0  0  0  0  0  0
   -7.9292   -0.9269    2.5876 H   0  0  0  0  0  0  0  0  0  0  0  0
   -6.2273    0.5103    3.6117 H   0  0  0  0  0  0  0  0  0  0  0  0
   -3.0031    1.2600    2.2485 H   0  0  0  0  0  0  0  0  0  0  0  0
   -4.1454    2.6365    2.1617 H   0  0  0  0  0  0  0  0  0  0  0  0
   -4.1206    1.5661    3.5711 H   0  0  0  0  0  0  0  0  0  0  0  0
   -3.7123   -0.2369   -2.2279 H   0  0  0  0  0  0  0  0  0  0  0  0
   -3.1419   -1.1738   -0.8345 H   0  0  0  0  0  0  0  0  0  0  0  0
   -0.1911    1.4296   -2.9352 H   0  0  0  0  0  0  0  0  0  0  0  0
    2.0304    2.2693   -3.5075 H   0  0  0  0  0  0  0  0  0  0  0  0
    5.1136    1.4018   -1.9888 H   0  0  0  0  0  0  0  0  0  0  0  0
    4.3162    2.4586   -3.1365 H   0  0  0  0  0  0  0  0  0  0  0  0
    4.5552    3.0274   -1.4839 H   0  0  0  0  0  0  0  0  0  0  0  0
    7.0262    0.4012    0.2315 H   0  0  0  0  0  0  0  0  0  0  0  0
    6.3893   -0.4917    1.6395 H   0  0  0  0  0  0  0  0  0  0  0  0
    7.2830   -1.7678   -1.0083 H   0  0  0  0  0  0  0  0  0  0  0  0
    8.2231   -1.7586    0.4868 H   0  0  0  0  0  0  0  0  0  0  0  0
    4.7023   -3.8109    0.4962 H   0  0  0  0  0  0  0  0  0  0  0  0
    4.9485   -2.5510    1.7080 H   0  0  0  0  0  0  0  0  0  0  0  0
    3.4403   -1.8093   -0.1960 H   0  0  0  0  0  0  0  0  0  0  0  0
    4.7592   -2.0699   -1.3319 H   0  0  0  0  0  0  0  0  0  0  0  0
    1.3044   -0.0464    0.8267 H   0  0  0  0  0  0  0  0  0  0  0  0
   -5.8772   -0.7212   -1.1825 H   0  0  0  0  0  0  0  0  0  0  0  0
  1  2  1  0
  2  3  2  0
  3  4  1  0
  4  5  2  0
  5  6  1  0
  5  7  1  0
  7  8  1  0
  8  9  2  0
  8 10  1  0
 10 11  1  0
 11 12  1  0
 12 13  2  0
 12 14  1  0
 14 15  2  0
 15 16  1  0
 16 17  2  0
 17 18  1  0
 17 19  1  0
 19 20  1  0
 20 21  2  0
 20 22  2  0
 20 23  1  0
 23 24  1  0
 24 25  1  0
 25 26  1  0
 26 27  1  0
 27 28  1  0
 19 29  2  0
  7 30  2  0
 30  2  1  0
 29 14  1  0
 28 23  1  0
  1 31  1  0
  1 32  1  0
  1 33  1  0
  3 34  1  0
  4 35  1  0
  6 36  1  0
  6 37  1  0
  6 38  1  0
 10 39  1  0
 10 40  1  0
 15 41  1  0
 16 42  1  0
 18 43  1  0
 18 44  1  0
 18 45  1  0
 24 46  1  0
 24 47  1  0
 25 48  1  0
 25 49  1  0
 27 50  1  0
 27 51  1  0
 28 52  1  0
 28 53  1  0
 29 54  1  0
 30 55  1  0
M  END
$$$$
