
     RDKit          3D

 44 46  0  0  0  0  0  0  0  0999 V2000
    1.1164   -0.9858   -4.2594 C   0  0  0  0  0  0  0  0  0  0  0  0
    1.1308   -0.9841   -2.8301 O   0  0  0  0  0  0  0  0  0  0  0  0
    1.7344    0.0988   -2.2757 C   0  0  0  0  0  0  0  0  0  0  0  0
    2.2338    1.0192   -2.9114 O   0  0  0  0  0  0  0  0  0  0  0  0
    1.6798    0.0768   -0.7665 C   0  0  0  0  0  0  0  0  0  0  0  0
    1.6320   -1.3212   -0.1883 C   0  0  0  0  0  0  0  0  0  0  0  0
    2.9304   -2.0879   -0.1193 C   0  0  0  0  0  0  0  0  0  0  0  0
    0.5532   -1.9099    0.2307 N   0  0  0  0  0  0  0  0  0  0  0  0
   -0.6490   -1.2481    0.1527 C   0  0  0  0  0  0  0  0  0  0  0  0
   -0.7311    0.0686   -0.0703 C   0  0  0  0  0  0  0  0  0  0  0  0
   -2.0583    0.7049   -0.1657 C   0  0  0  0  0  0  0  0  0  0  0  0
   -2.1498    1.8706   -0.5462 O   0  0  0  0  0  0  0  0  0  0  0  0
   -3.1379   -0.0813    0.1710 N   0  0  0  0  0  0  0  0  0  0  0  0
   -4.4567    0.5219    0.1428 C   0  0  0  0  0  0  0  0  0  0  0  0
   -3.0651   -1.4555    0.3524 C   0  0  0  0  0  0  0  0  0  0  0  0
   -4.0793   -2.1408    0.5002 O   0  0  0  0  0  0  0  0  0  0  0  0
   -1.7884   -2.0040    0.3418 N   0  0  0  0  0  0  0  0  0  0  0  0
   -1.6520   -3.4422    0.5561 C   0  0  0  0  0  0  0  0  0  0  0  0
    0.4882    0.9210   -0.2909 C   0  0  0  0  0  0  0  0  0  0  0  0
    0.8440    1.7370    0.9544 C   0  0  0  0  0  0  0  0  0  0  0  0
    0.8419    3.1403    0.8810 C   0  0  0  0  0  0  0  0  0  0  0  0
    1.1668    3.9152    1.9972 C   0  0  0  0  0  0  0  0  0  0  0  0
    1.4948    3.2947    3.1987 C   0  0  0  0  0  0  0  0  0  0  0  0
    1.8956    4.2474    4.5738 Cl  0  0  0  0  0  0  0  0  0  0  0  0
    1.4973    1.9058    3.2944 C   0  0  0  0  0  0  0  0  0  0  0  0
    1.1723    1.1292    2.1787 C   0  0  0  0  0  0  0  0  0  0  0  0
    0.6109   -1.8967   -4.5914 H   0  0  0  0  0  0  0  0  0  0  0  0
    0.5599   -0.1224   -4.6370 H   0  0  0  0  0  0  0  0  0  0  0  0
    2.1379   -0.9925   -4.6522 H   0  0  0  0  0  0  0  0  0  0  0  0
    2.6296    0.5205   -0.4358 H   0  0  0  0  0  0  0  0  0  0  0  0
    3.6389   -1.5423    0.5098 H   0  0  0  0  0  0  0  0  0  0  0  0
    2.7697   -3.0827    0.3052 H   0  0  0  0  0  0  0  0  0  0  0  0
    3.3472   -2.1919   -1.1244 H   0  0  0  0  0  0  0  0  0  0  0  0
   -5.1025    0.0669    0.9002 H   0  0  0  0  0  0  0  0  0  0  0  0
   -4.4061    1.5991    0.3265 H   0  0  0  0  0  0  0  0  0  0  0  0
   -4.8948    0.3482   -0.8452 H   0  0  0  0  0  0  0  0  0  0  0  0
   -1.0759   -3.6183    1.4706 H   0  0  0  0  0  0  0  0  0  0  0  0
   -1.1404   -3.8904   -0.3022 H   0  0  0  0  0  0  0  0  0  0  0  0
   -2.6204   -3.9376    0.6671 H   0  0  0  0  0  0  0  0  0  0  0  0
    0.2542    1.6368   -1.0919 H   0  0  0  0  0  0  0  0  0  0  0  0
    0.5758    3.6454   -0.0468 H   0  0  0  0  0  0  0  0  0  0  0  0
    1.1562    4.9993    1.9211 H   0  0  0  0  0  0  0  0  0  0  0  0
    1.7456    1.4208    4.2349 H   0  0  0  0  0  0  0  0  0  0  0  0
    1.1701    0.0470    2.2894 H   0  0  0  0  0  0  0  0  0  0  0  0
  1  2  1  0
  2  3  1  0
  3  4  2  0
  3  5  1  0
  5  6  1  0
  6  7  1  0
  6  8  2  0
  8  9  1  0
  9 10  2  0
 10 11  1  0
 11 12  2  0
 11 13  1  0
 13 14  1  0
 13 15  1  0
 15 16  2  0
 15 17  1  0
 17 18  1  0
 10 19  1  0
 19 20  1  0
 20 21  2  0
 21 22  1  0
 22 23  2  0
 23 24  1  0
 23 25  1  0
 25 26  2  0
 19  5  1  0
 26 20  1  0
 17  9  1  0
  1 27  1  0
  1 28  1  0
  1 29  1  0
  5 30  1  0
  7 31  1  0
  7 32  1  0
  7 33  1  0
 14 34  1  0
 14 35  1  0
 14 36  1  0
 18 37  1  0
 18 38  1  0
 18 39  1  0
 19 40  1  0
 21 41  1  0
 22 42  1  0
 25 43  1  0
 26 44  1  0
M  END
$$$$
