
     RDKit          3D

 67 72  0  0  0  0  0  0  0  0999 V2000
    2.1678    0.6363   -2.7266 O   0  0  0  0  0  0  0  0  0  0  0  0
    2.1820    0.4868   -1.5021 C   0  0  0  0  0  0  0  0  0  0  0  0
    0.9139    0.1033   -0.7427 C   0  0  0  0  0  0  0  0  0  0  0  0
    0.9553   -1.3796   -0.3198 C   0  0  0  0  0  0  0  0  0  0  0  0
   -0.2769   -2.1613   -0.7651 C   0  0  0  0  0  0  0  0  0  0  0  0
   -1.5659   -1.4193   -0.4110 C   0  0  0  0  0  0  0  0  0  0  0  0
   -1.5248   -0.0350   -0.8869 N   0  0  0  0  0  0  0  0  0  0  0  0
   -2.7468    0.5409   -1.2415 C   0  0  0  0  0  0  0  0  0  0  0  0
   -2.7840    1.4678   -2.2468 N   0  0  0  0  0  0  0  0  0  0  0  0
   -3.9612    2.0241   -2.5997 C   0  0  0  0  0  0  0  0  0  0  0  0
   -5.1779    1.8033   -2.0736 N   0  0  0  0  0  0  0  0  0  0  0  0
   -5.1105    0.9015   -1.0794 C   0  0  0  0  0  0  0  0  0  0  0  0
   -3.9847    0.2424   -0.6138 C   0  0  0  0  0  0  0  0  0  0  0  0
   -4.3296   -0.6088    0.4228 N   0  0  0  0  0  0  0  0  0  0  0  0
   -5.6329   -0.4700    0.5918 C   0  0  0  0  0  0  0  0  0  0  0  0
   -6.1470    0.4461   -0.3033 N   0  0  0  0  0  0  0  0  0  0  0  0
   -7.5053    0.9413   -0.4050 C   0  0  0  0  0  0  0  0  0  0  0  0
   -8.5904   -0.0717   -0.0581 C   0  0  0  0  0  0  0  0  0  0  0  0
   -8.7912   -0.2643    1.4457 C   0  0  0  0  0  0  0  0  0  0  0  0
   -7.5134   -0.3920    2.2770 C   0  0  0  0  0  0  0  0  0  0  0  0
   -6.4279   -1.2262    1.6104 C   0  0  0  0  0  0  0  0  0  0  0  0
   -0.3257    0.4242   -1.5947 C   0  0  0  0  0  0  0  0  0  0  0  0
    3.3622    0.6179   -0.7832 N   0  0  0  0  0  0  0  0  0  0  0  0
    3.5234    0.5010    0.6701 C   0  0  0  0  0  0  0  0  0  0  0  0
    4.7889   -0.2906    1.0526 C   0  0  0  0  0  0  0  0  0  0  0  0
    6.0044    0.2550    0.4189 N   0  0  0  0  0  0  0  0  0  0  0  0
    7.2304    0.1044    1.0618 C   0  0  0  0  0  0  0  0  0  0  0  0
    7.4809   -0.9904    1.9104 C   0  0  0  0  0  0  0  0  0  0  0  0
    8.6958   -1.1478    2.5875 C   0  0  0  0  0  0  0  0  0  0  0  0
    9.7101   -0.2131    2.4198 C   0  0  0  0  0  0  0  0  0  0  0  0
    9.5073    0.8664    1.5693 C   0  0  0  0  0  0  0  0  0  0  0  0
    8.2851    1.0175    0.8996 C   0  0  0  0  0  0  0  0  0  0  0  0
    5.8071    1.2500   -0.6513 C   0  0  0  0  0  0  0  0  0  0  0  0
    4.5920    0.8974   -1.5324 C   0  0  0  0  0  0  0  0  0  0  0  0
    0.8541    0.7318    0.1556 H   0  0  0  0  0  0  0  0  0  0  0  0
    1.0106   -1.4337    0.7758 H   0  0  0  0  0  0  0  0  0  0  0  0
    1.8560   -1.8811   -0.6954 H   0  0  0  0  0  0  0  0  0  0  0  0
   -0.2269   -2.3247   -1.8497 H   0  0  0  0  0  0  0  0  0  0  0  0
   -0.2814   -3.1534   -0.2986 H   0  0  0  0  0  0  0  0  0  0  0  0
   -1.6963   -1.4153    0.6799 H   0  0  0  0  0  0  0  0  0  0  0  0
   -2.4007   -1.9815   -0.8505 H   0  0  0  0  0  0  0  0  0  0  0  0
   -3.9183    2.7340   -3.4226 H   0  0  0  0  0  0  0  0  0  0  0  0
   -7.5724    1.8309    0.2316 H   0  0  0  0  0  0  0  0  0  0  0  0
   -7.6582    1.2627   -1.4422 H   0  0  0  0  0  0  0  0  0  0  0  0
   -8.3728   -1.0383   -0.5292 H   0  0  0  0  0  0  0  0  0  0  0  0
   -9.5423    0.2704   -0.4808 H   0  0  0  0  0  0  0  0  0  0  0  0
   -9.4084   -1.1603    1.5974 H   0  0  0  0  0  0  0  0  0  0  0  0
   -9.3750    0.5717    1.8494 H   0  0  0  0  0  0  0  0  0  0  0  0
   -7.7845   -0.8582    3.2329 H   0  0  0  0  0  0  0  0  0  0  0  0
   -7.1303    0.6066    2.5254 H   0  0  0  0  0  0  0  0  0  0  0  0
   -6.8491   -2.1251    1.1504 H   0  0  0  0  0  0  0  0  0  0  0  0
   -5.7329   -1.5696    2.3882 H   0  0  0  0  0  0  0  0  0  0  0  0
   -0.3512    1.5134   -1.7462 H   0  0  0  0  0  0  0  0  0  0  0  0
   -0.2737   -0.0403   -2.5889 H   0  0  0  0  0  0  0  0  0  0  0  0
    3.5920    1.5239    1.0596 H   0  0  0  0  0  0  0  0  0  0  0  0
    2.6565    0.0409    1.1415 H   0  0  0  0  0  0  0  0  0  0  0  0
    4.8685   -0.2678    2.1455 H   0  0  0  0  0  0  0  0  0  0  0  0
    4.6707   -1.3347    0.7365 H   0  0  0  0  0  0  0  0  0  0  0  0
    6.7269   -1.7610    2.0502 H   0  0  0  0  0  0  0  0  0  0  0  0
    8.8452   -2.0074    3.2358 H   0  0  0  0  0  0  0  0  0  0  0  0
   10.6541   -0.3285    2.9438 H   0  0  0  0  0  0  0  0  0  0  0  0
   10.2956    1.6010    1.4259 H   0  0  0  0  0  0  0  0  0  0  0  0
    8.1741    1.8883    0.2611 H   0  0  0  0  0  0  0  0  0  0  0  0
    6.6820    1.3011   -1.3093 H   0  0  0  0  0  0  0  0  0  0  0  0
    5.6625    2.2389   -0.1986 H   0  0  0  0  0  0  0  0  0  0  0  0
    4.8142   -0.0041   -2.1198 H   0  0  0  0  0  0  0  0  0  0  0  0
    4.4007    1.7121   -2.2420 H   0  0  0  0  0  0  0  0  0  0  0  0
  1  2  2  0
  2  3  1  0
  3  4  1  0
  4  5  1  0
  5  6  1  0
  6  7  1  0
  7  8  1  0
  8  9  2  0
  9 10  1  0
 10 11  2  0
 11 12  1  0
 12 13  2  0
 13 14  1  0
 14 15  2  0
 15 16  1  0
 16 17  1  0
 17 18  1  0
 18 19  1  0
 19 20  1  0
 20 21  1  0
  7 22  1  0
  2 23  1  0
 23 24  1  0
 24 25  1  0
 25 26  1  0
 26 27  1  0
 27 28  2  0
 28 29  1  0
 29 30  2  0
 30 31  1  0
 31 32  2  0
 26 33  1  0
 33 34  1  0
 22  3  1  0
 34 23  1  0
 13  8  1  0
 21 15  1  0
 32 27  1  0
 16 12  1  0
  3 35  1  0
  4 36  1  0
  4 37  1  0
  5 38  1  0
  5 39  1  0
  6 40  1  0
  6 41  1  0
 10 42  1  0
 17 43  1  0
 17 44  1  0
 18 45  1  0
 18 46  1  0
 19 47  1  0
 19 48  1  0
 20 49  1  0
 20 50  1  0
 21 51  1  0
 21 52  1  0
 22 53  1  0
 22 54  1  0
 24 55  1  0
 24 56  1  0
 25 57  1  0
 25 58  1  0
 28 59  1  0
 29 60  1  0
 30 61  1  0
 31 62  1  0
 32 63  1  0
 33 64  1  0
 33 65  1  0
 34 66  1  0
 34 67  1  0
M  END
$$$$
