
     RDKit          3D

 46 50  0  0  0  0  0  0  0  0999 V2000
   -0.6241    1.6245   -2.8196 O   0  0  0  0  0  0  0  0  0  0  0  0
   -0.9338    1.2166   -1.7045 C   0  0  0  0  0  0  0  0  0  0  0  0
   -2.0906    1.8121   -1.0103 C   0  0  0  0  0  0  0  0  0  0  0  0
   -2.7347    2.9343   -1.5420 C   0  0  0  0  0  0  0  0  0  0  0  0
   -3.7952    3.5056   -0.8432 C   0  0  0  0  0  0  0  0  0  0  0  0
   -4.5925    4.8899   -1.4799 Cl  0  0  0  0  0  0  0  0  0  0  0  0
   -4.2106    2.9687    0.3754 C   0  0  0  0  0  0  0  0  0  0  0  0
   -3.5660    1.8443    0.8960 C   0  0  0  0  0  0  0  0  0  0  0  0
   -2.5133    1.2564    0.1952 C   0  0  0  0  0  0  0  0  0  0  0  0
   -1.9505    0.1522    0.7687 O   0  0  0  0  0  0  0  0  0  0  0  0
   -1.1793   -0.7038   -0.1189 C   0  0  0  0  0  0  0  0  0  0  0  0
   -2.1633   -1.4939   -1.0353 C   0  0  0  0  0  0  0  0  0  0  0  0
   -1.7841   -2.9652   -1.1622 C   0  0  0  0  0  0  0  0  0  0  0  0
   -1.8437   -3.6493    0.1282 N   0  0  0  0  0  0  0  0  0  0  0  0
   -1.3887   -2.8352    1.2529 C   0  0  0  0  0  0  0  0  0  0  0  0
   -0.4586   -1.7007    0.8304 C   0  0  0  0  0  0  0  0  0  0  0  0
   -0.1637    0.1546   -0.9247 C   0  0  0  0  0  0  0  0  0  0  0  0
    0.8984    0.8729   -0.1008 C   0  0  0  0  0  0  0  0  0  0  0  0
    2.0810    0.0356   -0.4414 C   0  0  0  0  0  0  0  0  0  0  0  0
    3.3728    0.1780    0.2704 C   0  0  0  0  0  0  0  0  0  0  0  0
    4.4157   -0.7057   -0.0343 C   0  0  0  0  0  0  0  0  0  0  0  0
    5.6427   -0.5999    0.6232 C   0  0  0  0  0  0  0  0  0  0  0  0
    5.8341    0.3892    1.5860 C   0  0  0  0  0  0  0  0  0  0  0  0
    4.8011    1.2747    1.8912 C   0  0  0  0  0  0  0  0  0  0  0  0
    3.5712    1.1723    1.2354 C   0  0  0  0  0  0  0  0  0  0  0  0
    1.8895   -0.8155   -1.3972 N   0  0  0  0  0  0  0  0  0  0  0  0
    0.5599   -0.6641   -1.8507 O   0  0  0  0  0  0  0  0  0  0  0  0
   -2.4055    3.3611   -2.4870 H   0  0  0  0  0  0  0  0  0  0  0  0
   -5.0369    3.4173    0.9218 H   0  0  0  0  0  0  0  0  0  0  0  0
   -3.8958    1.4198    1.8416 H   0  0  0  0  0  0  0  0  0  0  0  0
   -3.1867   -1.4249   -0.6411 H   0  0  0  0  0  0  0  0  0  0  0  0
   -2.2068   -1.0596   -2.0406 H   0  0  0  0  0  0  0  0  0  0  0  0
   -2.4736   -3.4641   -1.8517 H   0  0  0  0  0  0  0  0  0  0  0  0
   -0.7811   -3.0634   -1.5937 H   0  0  0  0  0  0  0  0  0  0  0  0
   -1.2984   -4.5103    0.0719 H   0  0  0  0  0  0  0  0  0  0  0  0
   -2.2651   -2.4261    1.7694 H   0  0  0  0  0  0  0  0  0  0  0  0
   -0.8784   -3.4806    1.9770 H   0  0  0  0  0  0  0  0  0  0  0  0
    0.4218   -2.1470    0.3554 H   0  0  0  0  0  0  0  0  0  0  0  0
   -0.1118   -1.1860    1.7348 H   0  0  0  0  0  0  0  0  0  0  0  0
    0.6894    0.8810    0.9712 H   0  0  0  0  0  0  0  0  0  0  0  0
    1.0864    1.8989   -0.4365 H   0  0  0  0  0  0  0  0  0  0  0  0
    4.2814   -1.4807   -0.7867 H   0  0  0  0  0  0  0  0  0  0  0  0
    6.4485   -1.2883    0.3806 H   0  0  0  0  0  0  0  0  0  0  0  0
    6.7910    0.4724    2.0959 H   0  0  0  0  0  0  0  0  0  0  0  0
    4.9562    2.0488    2.6391 H   0  0  0  0  0  0  0  0  0  0  0  0
    2.7914    1.8831    1.4904 H   0  0  0  0  0  0  0  0  0  0  0  0
  1  2  2  0
  2  3  1  0
  3  4  2  0
  4  5  1  0
  5  6  1  0
  5  7  2  0
  7  8  1  0
  8  9  2  0
  9 10  1  0
 10 11  1  0
 11 12  1  0
 12 13  1  0
 13 14  1  0
 14 15  1  0
 15 16  1  0
 11 17  1  0
 17 18  1  0
 18 19  1  0
 19 20  1  0
 20 21  2  0
 21 22  1  0
 22 23  2  0
 23 24  1  0
 24 25  2  0
 19 26  2  0
 26 27  1  0
 17  2  1  0
 25 20  1  0
  9  3  1  0
 16 11  1  0
 27 17  1  0
  4 28  1  0
  7 29  1  0
  8 30  1  0
 12 31  1  0
 12 32  1  0
 13 33  1  0
 13 34  1  0
 14 35  1  0
 15 36  1  0
 15 37  1  0
 16 38  1  0
 16 39  1  0
 18 40  1  0
 18 41  1  0
 21 42  1  0
 22 43  1  0
 23 44  1  0
 24 45  1  0
 25 46  1  0
M  END
$$$$
