
     RDKit          3D

 64 68  0  0  0  0  0  0  0  0999 V2000
    0.9362   -0.2750    2.3218 O   0  0  0  0  0  0  0  0  0  0  0  0
    1.2901   -0.4798    1.1591 C   0  0  0  0  0  0  0  0  0  0  0  0
    0.2628   -0.5091    0.0184 C   0  0  0  0  0  0  0  0  0  0  0  0
    0.3032    0.8159   -0.7689 C   0  0  0  0  0  0  0  0  0  0  0  0
   -0.8196    1.7642   -0.3542 C   0  0  0  0  0  0  0  0  0  0  0  0
   -2.2167    1.1649   -0.6147 C   0  0  0  0  0  0  0  0  0  0  0  0
   -3.2510    1.8712    0.2835 C   0  0  0  0  0  0  0  0  0  0  0  0
   -4.5993    1.6735   -0.2188 N   0  0  0  0  0  0  0  0  0  0  0  0
   -5.5968    0.8229    0.2294 C   0  0  0  0  0  0  0  0  0  0  0  0
   -5.3987    0.1003    1.3766 N   0  0  0  0  0  0  0  0  0  0  0  0
   -6.2788   -0.7896    1.9318 C   0  0  0  0  0  0  0  0  0  0  0  0
   -5.8101   -1.5811    3.3336 S   0  0  0  0  0  0  0  0  0  0  0  0
   -7.4820   -0.9893    1.3190 N   0  0  0  0  0  0  0  0  0  0  0  0
   -7.7173   -0.3200    0.2373 C   0  0  0  0  0  0  0  0  0  0  0  0
   -9.0264   -0.5206   -0.4450 C   0  0  0  0  0  0  0  0  0  0  0  0
   -9.3253    0.1420   -1.5697 C   0  0  0  0  0  0  0  0  0  0  0  0
   -8.4079    1.0757   -2.1733 C   0  0  0  0  0  0  0  0  0  0  0  0
   -7.2067    1.3232   -1.6316 C   0  0  0  0  0  0  0  0  0  0  0  0
   -6.7787    0.6579   -0.4107 C   0  0  0  0  0  0  0  0  0  0  0  0
   -2.2202   -0.3670   -0.4426 C   0  0  0  0  0  0  0  0  0  0  0  0
   -1.1515   -0.8292    0.5423 C   0  0  0  0  0  0  0  0  0  0  0  0
    2.6304   -0.6260    0.8295 N   0  0  0  0  0  0  0  0  0  0  0  0
    3.1440   -1.0150   -0.4899 C   0  0  0  0  0  0  0  0  0  0  0  0
    4.6005   -1.5212   -0.4668 C   0  0  0  0  0  0  0  0  0  0  0  0
    5.4936   -0.5632    0.2004 N   0  0  0  0  0  0  0  0  0  0  0  0
    6.8671   -0.5862   -0.0073 C   0  0  0  0  0  0  0  0  0  0  0  0
    7.5140   -1.6677   -0.6324 C   0  0  0  0  0  0  0  0  0  0  0  0
    8.8980   -1.6793   -0.8445 C   0  0  0  0  0  0  0  0  0  0  0  0
    9.6609   -0.5968   -0.4391 C   0  0  0  0  0  0  0  0  0  0  0  0
   10.9847   -0.6045   -0.6412 F   0  0  0  0  0  0  0  0  0  0  0  0
    9.0651    0.4934    0.1725 C   0  0  0  0  0  0  0  0  0  0  0  0
    7.6814    0.4944    0.3827 C   0  0  0  0  0  0  0  0  0  0  0  0
    4.9427    0.1687    1.3598 C   0  0  0  0  0  0  0  0  0  0  0  0
    3.6383   -0.4617    1.8813 C   0  0  0  0  0  0  0  0  0  0  0  0
    0.5285   -1.3227   -0.6638 H   0  0  0  0  0  0  0  0  0  0  0  0
    1.2628    1.3305   -0.6437 H   0  0  0  0  0  0  0  0  0  0  0  0
    0.2043    0.5997   -1.8407 H   0  0  0  0  0  0  0  0  0  0  0  0
   -0.7246    2.7098   -0.9021 H   0  0  0  0  0  0  0  0  0  0  0  0
   -0.6992    2.0112    0.7088 H   0  0  0  0  0  0  0  0  0  0  0  0
   -2.4803    1.3710   -1.6616 H   0  0  0  0  0  0  0  0  0  0  0  0
   -3.0617    2.9512    0.2660 H   0  0  0  0  0  0  0  0  0  0  0  0
   -3.1403    1.5642    1.3287 H   0  0  0  0  0  0  0  0  0  0  0  0
   -4.7794    2.1298   -1.1051 H   0  0  0  0  0  0  0  0  0  0  0  0
   -4.5295    0.2047    1.8755 H   0  0  0  0  0  0  0  0  0  0  0  0
   -9.7137   -1.2217    0.0128 H   0  0  0  0  0  0  0  0  0  0  0  0
  -10.2840   -0.0108   -2.0566 H   0  0  0  0  0  0  0  0  0  0  0  0
   -8.7225    1.5773   -3.0846 H   0  0  0  0  0  0  0  0  0  0  0  0
   -6.5514    2.0368   -2.1153 H   0  0  0  0  0  0  0  0  0  0  0  0
   -2.0227   -0.8339   -1.4167 H   0  0  0  0  0  0  0  0  0  0  0  0
   -3.1988   -0.7387   -0.1285 H   0  0  0  0  0  0  0  0  0  0  0  0
   -1.3424   -0.3636    1.5165 H   0  0  0  0  0  0  0  0  0  0  0  0
   -1.2366   -1.9109    0.7025 H   0  0  0  0  0  0  0  0  0  0  0  0
    3.0706   -0.1336   -1.1356 H   0  0  0  0  0  0  0  0  0  0  0  0
    2.5107   -1.7988   -0.9128 H   0  0  0  0  0  0  0  0  0  0  0  0
    4.9062   -1.6824   -1.5075 H   0  0  0  0  0  0  0  0  0  0  0  0
    4.6454   -2.4846    0.0561 H   0  0  0  0  0  0  0  0  0  0  0  0
    6.9544   -2.5429   -0.9506 H   0  0  0  0  0  0  0  0  0  0  0  0
    9.3773   -2.5283   -1.3205 H   0  0  0  0  0  0  0  0  0  0  0  0
    9.6717    1.3395    0.4777 H   0  0  0  0  0  0  0  0  0  0  0  0
    7.2418    1.3771    0.8397 H   0  0  0  0  0  0  0  0  0  0  0  0
    4.7469    1.2036    1.0547 H   0  0  0  0  0  0  0  0  0  0  0  0
    5.6568    0.1858    2.1921 H   0  0  0  0  0  0  0  0  0  0  0  0
    3.8397   -1.4617    2.2854 H   0  0  0  0  0  0  0  0  0  0  0  0
    3.2437    0.1479    2.7008 H   0  0  0  0  0  0  0  0  0  0  0  0
  1  2  2  0
  2  3  1  0
  3  4  1  0
  4  5  1  0
  5  6  1  0
  6  7  1  0
  7  8  1  0
  8  9  1  0
  9 10  1  0
 10 11  1  0
 11 12  2  0
 11 13  1  0
 13 14  2  0
 14 15  1  0
 15 16  2  0
 16 17  1  0
 17 18  2  0
 18 19  1  0
  6 20  1  0
 20 21  1  0
  2 22  1  0
 22 23  1  0
 23 24  1  0
 24 25  1  0
 25 26  1  0
 26 27  2  0
 27 28  1  0
 28 29  2  0
 29 30  1  0
 29 31  1  0
 31 32  2  0
 25 33  1  0
 33 34  1  0
 21  3  1  0
 34 22  1  0
 19  9  2  0
 32 26  1  0
 19 14  1  0
  3 35  1  0
  4 36  1  0
  4 37  1  0
  5 38  1  0
  5 39  1  0
  6 40  1  0
  7 41  1  0
  7 42  1  0
  8 43  1  0
 10 44  1  0
 15 45  1  0
 16 46  1  0
 17 47  1  0
 18 48  1  0
 20 49  1  0
 20 50  1  0
 21 51  1  0
 21 52  1  0
 23 53  1  0
 23 54  1  0
 24 55  1  0
 24 56  1  0
 27 57  1  0
 28 58  1  0
 31 59  1  0
 32 60  1  0
 33 61  1  0
 33 62  1  0
 34 63  1  0
 34 64  1  0
M  END
$$$$
