
     RDKit          3D

 47 49  0  0  0  0  0  0  0  0999 V2000
    1.3352    0.5259   -3.2204 O   0  0  0  0  0  0  0  0  0  0  0  0
    1.3104   -0.0594   -2.1438 C   0  0  0  0  0  0  0  0  0  0  0  0
    2.5134   -0.1014   -1.2183 C   0  0  0  0  0  0  0  0  0  0  0  0
    3.6855    0.6729   -1.8088 C   0  0  0  0  0  0  0  0  0  0  0  0
    5.1583    0.5984   -0.7246 S   0  0  0  0  0  0  0  0  0  0  0  0
    4.6111    1.5945    0.6509 C   0  0  0  0  0  0  0  0  0  0  0  0
    4.6111    1.0381    1.9337 C   0  0  0  0  0  0  0  0  0  0  0  0
    4.1912    1.7922    3.0313 C   0  0  0  0  0  0  0  0  0  0  0  0
    3.7767    3.1106    2.8531 C   0  0  0  0  0  0  0  0  0  0  0  0
    3.7878    3.6768    1.5795 C   0  0  0  0  0  0  0  0  0  0  0  0
    4.2094    2.9235    0.4819 C   0  0  0  0  0  0  0  0  0  0  0  0
    0.2320   -0.7349   -1.6032 N   0  0  0  0  0  0  0  0  0  0  0  0
   -1.0317   -0.9886   -2.1921 C   0  0  0  0  0  0  0  0  0  0  0  0
   -1.3224   -0.6719   -3.5233 C   0  0  0  0  0  0  0  0  0  0  0  0
   -2.5586   -1.0090   -4.0868 C   0  0  0  0  0  0  0  0  0  0  0  0
   -3.5194   -1.6773   -3.3328 C   0  0  0  0  0  0  0  0  0  0  0  0
   -3.2568   -1.9878   -2.0010 C   0  0  0  0  0  0  0  0  0  0  0  0
   -2.0351   -1.6151   -1.4211 C   0  0  0  0  0  0  0  0  0  0  0  0
   -1.7898   -1.9228    0.0099 C   0  0  0  0  0  0  0  0  0  0  0  0
   -0.7468   -2.5081    0.3005 O   0  0  0  0  0  0  0  0  0  0  0  0
   -2.6951   -1.4830    0.9613 N   0  0  0  0  0  0  0  0  0  0  0  0
   -3.7385   -0.4795    0.7784 C   0  0  0  0  0  0  0  0  0  0  0  0
   -4.3588   -0.3192    2.1589 C   0  0  0  0  0  0  0  0  0  0  0  0
   -3.1890   -0.5979    3.0905 C   0  0  0  0  0  0  0  0  0  0  0  0
   -2.4409   -1.7137    2.3754 C   0  0  0  0  0  0  0  0  0  0  0  0
    2.2086    0.3234   -0.2545 H   0  0  0  0  0  0  0  0  0  0  0  0
    2.7875   -1.1529   -1.0670 H   0  0  0  0  0  0  0  0  0  0  0  0
    3.4163    1.7155   -2.0077 H   0  0  0  0  0  0  0  0  0  0  0  0
    3.9741    0.2343   -2.7705 H   0  0  0  0  0  0  0  0  0  0  0  0
    4.9362    0.0119    2.0887 H   0  0  0  0  0  0  0  0  0  0  0  0
    4.1925    1.3507    4.0243 H   0  0  0  0  0  0  0  0  0  0  0  0
    3.4537    3.7003    3.7074 H   0  0  0  0  0  0  0  0  0  0  0  0
    3.4770    4.7095    1.4404 H   0  0  0  0  0  0  0  0  0  0  0  0
    4.2319    3.3890   -0.5000 H   0  0  0  0  0  0  0  0  0  0  0  0
    0.3698   -1.1661   -0.6877 H   0  0  0  0  0  0  0  0  0  0  0  0
   -0.5955   -0.1827   -4.1650 H   0  0  0  0  0  0  0  0  0  0  0  0
   -2.7566   -0.7651   -5.1282 H   0  0  0  0  0  0  0  0  0  0  0  0
   -4.4669   -1.9594   -3.7849 H   0  0  0  0  0  0  0  0  0  0  0  0
   -3.9999   -2.5287   -1.4201 H   0  0  0  0  0  0  0  0  0  0  0  0
   -3.2643    0.4478    0.4394 H   0  0  0  0  0  0  0  0  0  0  0  0
   -4.4799   -0.7950    0.0424 H   0  0  0  0  0  0  0  0  0  0  0  0
   -4.8014    0.6693    2.3089 H   0  0  0  0  0  0  0  0  0  0  0  0
   -5.1405   -1.0733    2.3103 H   0  0  0  0  0  0  0  0  0  0  0  0
   -2.5530    0.2927    3.1629 H   0  0  0  0  0  0  0  0  0  0  0  0
   -3.5016   -0.8790    4.0995 H   0  0  0  0  0  0  0  0  0  0  0  0
   -2.8559   -2.6956    2.6274 H   0  0  0  0  0  0  0  0  0  0  0  0
   -1.3712   -1.7099    2.6050 H   0  0  0  0  0  0  0  0  0  0  0  0
  1  2  2  0
  2  3  1  0
  3  4  1  0
  4  5  1  0
  5  6  1  0
  6  7  2  0
  7  8  1  0
  8  9  2  0
  9 10  1  0
 10 11  2  0
  2 12  1  0
 12 13  1  0
 13 14  2  0
 14 15  1  0
 15 16  2  0
 16 17  1  0
 17 18  2  0
 18 19  1  0
 19 20  2  0
 19 21  1  0
 21 22  1  0
 22 23  1  0
 23 24  1  0
 24 25  1  0
 11  6  1  0
 18 13  1  0
 25 21  1  0
  3 26  1  0
  3 27  1  0
  4 28  1  0
  4 29  1  0
  7 30  1  0
  8 31  1  0
  9 32  1  0
 10 33  1  0
 11 34  1  0
 12 35  1  0
 14 36  1  0
 15 37  1  0
 16 38  1  0
 17 39  1  0
 22 40  1  0
 22 41  1  0
 23 42  1  0
 23 43  1  0
 24 44  1  0
 24 45  1  0
 25 46  1  0
 25 47  1  0
M  END
$$$$
