
     RDKit          3D

 44 45  0  0  0  0  0  0  0  0999 V2000
    3.8853    2.1907   -3.4835 C   0  0  0  0  0  0  0  0  0  0  0  0
    3.5383    1.9709   -2.0179 C   0  0  0  0  0  0  0  0  0  0  0  0
    2.9601    0.5837   -1.7276 C   0  0  0  0  0  0  0  0  0  0  0  0
    1.6130    0.3370   -2.4124 C   0  0  0  0  0  0  0  0  0  0  0  0
    1.0284   -0.9394   -1.9580 N   0  0  0  0  0  0  0  0  0  0  0  0
    1.3853   -2.0865   -2.8009 C   0  0  0  0  0  0  0  0  0  0  0  0
    0.1137   -1.0366   -0.8895 C   0  0  0  0  0  0  0  0  0  0  0  0
   -0.0889   -0.0565    0.0186 C   0  0  0  0  0  0  0  0  0  0  0  0
   -0.9960   -0.1465    1.1538 C   0  0  0  0  0  0  0  0  0  0  0  0
   -1.2391    0.9270    1.9298 C   0  0  0  0  0  0  0  0  0  0  0  0
   -2.1336    0.9088    3.0940 C   0  0  0  0  0  0  0  0  0  0  0  0
   -2.4700    2.0274    3.7865 C   0  0  0  0  0  0  0  0  0  0  0  0
   -3.3290    1.9669    4.9239 C   0  0  0  0  0  0  0  0  0  0  0  0
   -4.0286    1.9032    5.8479 N   0  0  0  0  0  0  0  0  0  0  0  0
   -1.9658    3.3177    3.4446 C   0  0  0  0  0  0  0  0  0  0  0  0
   -1.5282    4.3600    3.1764 N   0  0  0  0  0  0  0  0  0  0  0  0
   -2.6355   -0.4784    3.4765 C   0  0  0  0  0  0  0  0  0  0  0  0
   -2.9114   -1.3523    2.2538 C   0  0  0  0  0  0  0  0  0  0  0  0
   -1.6453   -1.4902    1.4002 C   0  0  0  0  0  0  0  0  0  0  0  0
   -1.9593   -2.1865    0.0760 C   0  0  0  0  0  0  0  0  0  0  0  0
   -0.6942   -2.3258   -0.7734 C   0  0  0  0  0  0  0  0  0  0  0  0
    4.3699    3.1637   -3.6119 H   0  0  0  0  0  0  0  0  0  0  0  0
    4.5737    1.4195   -3.8446 H   0  0  0  0  0  0  0  0  0  0  0  0
    2.9905    2.1803   -4.1132 H   0  0  0  0  0  0  0  0  0  0  0  0
    2.8332    2.7440   -1.6899 H   0  0  0  0  0  0  0  0  0  0  0  0
    4.4487    2.0986   -1.4205 H   0  0  0  0  0  0  0  0  0  0  0  0
    3.6799   -0.1864   -2.0349 H   0  0  0  0  0  0  0  0  0  0  0  0
    2.8500    0.4795   -0.6415 H   0  0  0  0  0  0  0  0  0  0  0  0
    0.9219    1.1688   -2.2253 H   0  0  0  0  0  0  0  0  0  0  0  0
    1.7438    0.3094   -3.5012 H   0  0  0  0  0  0  0  0  0  0  0  0
    0.6303   -2.2261   -3.5816 H   0  0  0  0  0  0  0  0  0  0  0  0
    1.4694   -3.0072   -2.2158 H   0  0  0  0  0  0  0  0  0  0  0  0
    2.3555   -1.9375   -3.2884 H   0  0  0  0  0  0  0  0  0  0  0  0
    0.4664    0.8726   -0.0640 H   0  0  0  0  0  0  0  0  0  0  0  0
   -0.7463    1.8655    1.6795 H   0  0  0  0  0  0  0  0  0  0  0  0
   -3.5515   -0.4414    4.0740 H   0  0  0  0  0  0  0  0  0  0  0  0
   -1.8724   -0.9611    4.1033 H   0  0  0  0  0  0  0  0  0  0  0  0
   -3.2481   -2.3442    2.5795 H   0  0  0  0  0  0  0  0  0  0  0  0
   -3.7301   -0.9146    1.6662 H   0  0  0  0  0  0  0  0  0  0  0  0
   -0.9249   -2.1106    1.9530 H   0  0  0  0  0  0  0  0  0  0  0  0
   -2.3881   -3.1802    0.2565 H   0  0  0  0  0  0  0  0  0  0  0  0
   -2.7111   -1.6135   -0.4850 H   0  0  0  0  0  0  0  0  0  0  0  0
   -0.0519   -3.1057   -0.3456 H   0  0  0  0  0  0  0  0  0  0  0  0
   -1.0080   -2.6676   -1.7674 H   0  0  0  0  0  0  0  0  0  0  0  0
  1  2  1  0
  2  3  1  0
  3  4  1  0
  4  5  1  0
  5  6  1  0
  5  7  1  0
  7  8  2  0
  8  9  1  0
  9 10  2  0
 10 11  1  0
 11 12  2  3
 12 13  1  0
 13 14  3  0
 12 15  1  0
 15 16  3  0
 11 17  1  0
 17 18  1  0
 18 19  1  0
 19 20  1  0
 20 21  1  0
 21  7  1  0
 19  9  1  0
  1 22  1  0
  1 23  1  0
  1 24  1  0
  2 25  1  0
  2 26  1  0
  3 27  1  0
  3 28  1  0
  4 29  1  0
  4 30  1  0
  6 31  1  0
  6 32  1  0
  6 33  1  0
  8 34  1  0
 10 35  1  0
 17 36  1  0
 17 37  1  0
 18 38  1  0
 18 39  1  0
 19 40  1  0
 20 41  1  0
 20 42  1  0
 21 43  1  0
 21 44  1  0
M  END
$$$$
