
     RDKit          3D

 52 55  0  0  0  0  0  0  0  0999 V2000
    7.9882   -1.7634    1.2717 C   0  0  0  0  0  0  0  0  0  0  0  0
    7.7922   -0.6034    0.3138 C   0  0  0  0  0  0  0  0  0  0  0  0
    6.3968   -0.2925    0.1925 O   0  0  0  0  0  0  0  0  0  0  0  0
    5.7033   -1.0005   -0.7459 C   0  0  0  0  0  0  0  0  0  0  0  0
    6.2074   -1.8676   -1.4506 O   0  0  0  0  0  0  0  0  0  0  0  0
    4.3016   -0.5994   -0.7477 C   0  0  0  0  0  0  0  0  0  0  0  0
    3.1888   -1.6609   -1.5145 S   0  0  0  0  0  0  0  0  0  0  0  0
    1.8562   -0.6974   -1.1024 C   0  0  0  0  0  0  0  0  0  0  0  0
    0.6042   -1.0650   -1.4508 N   0  0  0  0  0  0  0  0  0  0  0  0
   -0.3514   -0.2595   -1.0863 C   0  0  0  0  0  0  0  0  0  0  0  0
   -1.7908   -0.5711   -1.4384 C   0  0  0  0  0  0  0  0  0  0  0  0
   -2.1740   -1.9806   -2.3730 S   0  0  0  0  0  0  0  0  0  0  0  0
   -1.6358   -3.3300   -1.2789 C   0  0  0  0  0  0  0  0  0  0  0  0
   -2.3927   -3.3772    0.0293 C   0  0  0  0  0  0  0  0  0  0  0  0
   -3.0252   -2.4891    0.5787 O   0  0  0  0  0  0  0  0  0  0  0  0
   -2.2694   -4.5804    0.6333 O   0  0  0  0  0  0  0  0  0  0  0  0
   -2.7636    0.2723   -1.0651 C   0  0  0  0  0  0  0  0  0  0  0  0
   -2.4748    1.4414   -0.2754 C   0  0  0  0  0  0  0  0  0  0  0  0
   -3.5251    2.3927    0.1896 C   0  0  0  0  0  0  0  0  0  0  0  0
   -3.3451    3.6089    0.1259 O   0  0  0  0  0  0  0  0  0  0  0  0
   -4.8233    1.8841    0.7066 C   0  0  0  0  0  0  0  0  0  0  0  0
   -4.9396    0.6165    1.2961 C   0  0  0  0  0  0  0  0  0  0  0  0
   -6.1793    0.1674    1.7607 C   0  0  0  0  0  0  0  0  0  0  0  0
   -7.3053    0.9824    1.6543 C   0  0  0  0  0  0  0  0  0  0  0  0
   -7.1941    2.2546    1.0956 C   0  0  0  0  0  0  0  0  0  0  0  0
   -5.9585    2.7064    0.6368 C   0  0  0  0  0  0  0  0  0  0  0  0
   -5.9320    3.9777    0.1267 O   0  0  0  0  0  0  0  0  0  0  0  0
   -1.2028    1.7412    0.0214 C   0  0  0  0  0  0  0  0  0  0  0  0
   -0.1347    0.9285   -0.3593 N   0  0  0  0  0  0  0  0  0  0  0  0
    1.1620    1.3203    0.0290 C   0  0  0  0  0  0  0  0  0  0  0  0
    1.3970    2.3199    0.7057 O   0  0  0  0  0  0  0  0  0  0  0  0
    2.2254    0.4268   -0.4084 C   0  0  0  0  0  0  0  0  0  0  0  0
    3.6591    0.5268   -0.2299 C   0  0  0  0  0  0  0  0  0  0  0  0
    4.3429    1.6853    0.4333 C   0  0  0  0  0  0  0  0  0  0  0  0
    7.5344   -1.5405    2.2429 H   0  0  0  0  0  0  0  0  0  0  0  0
    9.0522   -1.9699    1.4181 H   0  0  0  0  0  0  0  0  0  0  0  0
    7.5048   -2.6704    0.8953 H   0  0  0  0  0  0  0  0  0  0  0  0
    8.2435   -0.8074   -0.6639 H   0  0  0  0  0  0  0  0  0  0  0  0
    8.2840    0.2896    0.7132 H   0  0  0  0  0  0  0  0  0  0  0  0
   -0.5658   -3.2773   -1.0685 H   0  0  0  0  0  0  0  0  0  0  0  0
   -1.8326   -4.2624   -1.8182 H   0  0  0  0  0  0  0  0  0  0  0  0
   -2.7775   -4.4947    1.4672 H   0  0  0  0  0  0  0  0  0  0  0  0
   -3.7963    0.0848   -1.3480 H   0  0  0  0  0  0  0  0  0  0  0  0
   -4.0808   -0.0399    1.4149 H   0  0  0  0  0  0  0  0  0  0  0  0
   -6.2645   -0.8200    2.2092 H   0  0  0  0  0  0  0  0  0  0  0  0
   -8.2691    0.6322    2.0159 H   0  0  0  0  0  0  0  0  0  0  0  0
   -8.0666    2.8991    1.0246 H   0  0  0  0  0  0  0  0  0  0  0  0
   -4.9913    4.2444    0.0224 H   0  0  0  0  0  0  0  0  0  0  0  0
   -0.9549    2.6384    0.5881 H   0  0  0  0  0  0  0  0  0  0  0  0
    5.3065    1.9005   -0.0389 H   0  0  0  0  0  0  0  0  0  0  0  0
    3.7611    2.6064    0.3480 H   0  0  0  0  0  0  0  0  0  0  0  0
    4.5054    1.4723    1.4942 H   0  0  0  0  0  0  0  0  0  0  0  0
  1  2  1  0
  2  3  1  0
  3  4  1  0
  4  5  2  0
  4  6  1  0
  6  7  1  0
  7  8  1  0
  8  9  1  0
  9 10  2  0
 10 11  1  0
 11 12  1  0
 12 13  1  0
 13 14  1  0
 14 15  2  0
 14 16  1  0
 11 17  2  0
 17 18  1  0
 18 19  1  0
 19 20  2  0
 19 21  1  0
 21 22  2  0
 22 23  1  0
 23 24  2  0
 24 25  1  0
 25 26  2  0
 26 27  1  0
 18 28  2  0
 28 29  1  0
 29 30  1  0
 30 31  2  0
 30 32  1  0
 32 33  1  0
 33 34  1  0
 33  6  2  0
 32  8  2  0
 29 10  1  0
 26 21  1  0
  1 35  1  0
  1 36  1  0
  1 37  1  0
  2 38  1  0
  2 39  1  0
 13 40  1  0
 13 41  1  0
 16 42  1  0
 17 43  1  0
 22 44  1  0
 23 45  1  0
 24 46  1  0
 25 47  1  0
 27 48  1  0
 28 49  1  0
 34 50  1  0
 34 51  1  0
 34 52  1  0
M  END
$$$$
