
     RDKit          3D

 41 42  0  0  0  0  0  0  0  0999 V2000
   -2.2837   -0.4177   -3.4467 O   0  0  0  0  0  0  0  0  0  0  0  0
   -1.7139   -0.4866   -2.3607 C   0  0  0  0  0  0  0  0  0  0  0  0
   -0.2155   -0.7568   -2.2469 C   0  0  0  0  0  0  0  0  0  0  0  0
    0.2570   -0.5300   -0.9198 O   0  0  0  0  0  0  0  0  0  0  0  0
    1.6480   -0.7162   -0.9019 N   0  0  0  0  0  0  0  0  0  0  0  0
    2.0807   -0.5453    0.3051 C   0  0  0  0  0  0  0  0  0  0  0  0
    3.5109   -0.6698    0.6437 C   0  0  0  0  0  0  0  0  0  0  0  0
    3.8967   -0.5373    1.9826 C   0  0  0  0  0  0  0  0  0  0  0  0
    5.2432   -0.6518    2.3357 C   0  0  0  0  0  0  0  0  0  0  0  0
    6.2057   -0.8964    1.3539 C   0  0  0  0  0  0  0  0  0  0  0  0
    5.8119   -1.0273    0.0134 C   0  0  0  0  0  0  0  0  0  0  0  0
    6.8248   -1.2862   -1.0178 N   0  0  0  0  0  4  0  0  0  0  0  0
    6.4536   -1.3068   -2.1995 O   0  0  0  0  0  0  0  0  0  0  0  0
    7.9928   -1.4652   -0.6435 O   0  0  0  0  0  1  0  0  0  0  0  0
    4.4642   -0.9151   -0.3498 C   0  0  0  0  0  0  0  0  0  0  0  0
   -2.3688   -0.3498   -1.1529 N   0  0  0  0  0  0  0  0  0  0  0  0
   -3.7687    0.0435   -1.0661 C   0  0  0  0  0  0  0  0  0  0  0  0
   -3.9349    1.5573   -1.2647 C   0  0  0  0  0  0  0  0  0  0  0  0
   -3.4220    2.3635   -0.0719 C   0  0  0  0  0  0  0  0  0  0  0  0
   -4.0669    1.9065    1.2333 C   0  0  0  0  0  0  0  0  0  0  0  0
   -3.8845    0.4090    1.4590 C   0  0  0  0  0  0  0  0  0  0  0  0
   -4.3787   -0.4106    0.2667 C   0  0  0  0  0  0  0  0  0  0  0  0
   -0.0338   -1.7997   -2.5285 H   0  0  0  0  0  0  0  0  0  0  0  0
    0.3021   -0.0812   -2.9374 H   0  0  0  0  0  0  0  0  0  0  0  0
    1.3849   -0.3053    1.1301 H   0  0  0  0  0  0  0  0  0  0  0  0
    3.1586   -0.3470    2.7589 H   0  0  0  0  0  0  0  0  0  0  0  0
    5.5435   -0.5503    3.3769 H   0  0  0  0  0  0  0  0  0  0  0  0
    7.2510   -0.9820    1.6461 H   0  0  0  0  0  0  0  0  0  0  0  0
    4.1526   -1.0142   -1.3881 H   0  0  0  0  0  0  0  0  0  0  0  0
   -1.7735   -0.2390   -0.3390 H   0  0  0  0  0  0  0  0  0  0  0  0
   -4.2952   -0.4701   -1.8803 H   0  0  0  0  0  0  0  0  0  0  0  0
   -4.9997    1.7812   -1.4077 H   0  0  0  0  0  0  0  0  0  0  0  0
   -3.4187    1.8876   -2.1734 H   0  0  0  0  0  0  0  0  0  0  0  0
   -2.3323    2.2640    0.0018 H   0  0  0  0  0  0  0  0  0  0  0  0
   -3.6327    3.4270   -0.2323 H   0  0  0  0  0  0  0  0  0  0  0  0
   -5.1376    2.1436    1.2136 H   0  0  0  0  0  0  0  0  0  0  0  0
   -3.6337    2.4605    2.0737 H   0  0  0  0  0  0  0  0  0  0  0  0
   -2.8253    0.1944    1.6450 H   0  0  0  0  0  0  0  0  0  0  0  0
   -4.4284    0.1059    2.3611 H   0  0  0  0  0  0  0  0  0  0  0  0
   -5.4704   -0.3145    0.2065 H   0  0  0  0  0  0  0  0  0  0  0  0
   -4.1631   -1.4720    0.4418 H   0  0  0  0  0  0  0  0  0  0  0  0
  1  2  2  0
  2  3  1  0
  3  4  1  0
  4  5  1  0
  5  6  2  3
  6  7  1  0
  7  8  2  0
  8  9  1  0
  9 10  2  0
 10 11  1  0
 11 12  1  0
 12 13  2  0
 12 14  1  0
 11 15  2  0
  2 16  1  0
 16 17  1  0
 17 18  1  0
 18 19  1  0
 19 20  1  0
 20 21  1  0
 21 22  1  0
 15  7  1  0
 22 17  1  0
  3 23  1  0
  3 24  1  0
  6 25  1  0
  8 26  1  0
  9 27  1  0
 10 28  1  0
 15 29  1  0
 16 30  1  0
 17 31  1  0
 18 32  1  0
 18 33  1  0
 19 34  1  0
 19 35  1  0
 20 36  1  0
 20 37  1  0
 21 38  1  0
 21 39  1  0
 22 40  1  0
 22 41  1  0
M  CHG  2  12   1  14  -1
M  END
$$$$
