
     RDKit          3D

 41 43  0  0  0  0  0  0  0  0999 V2000
   -3.3806   -3.4952    1.8347 C   0  0  0  0  0  0  0  0  0  0  0  0
   -1.9206   -3.1283    1.6188 C   0  0  0  0  0  0  0  0  0  0  0  0
   -1.6569   -1.6198    1.6493 C   0  0  0  0  0  0  0  0  0  0  0  0
   -2.3459   -0.8739    0.5056 C   0  0  0  0  0  0  0  0  0  0  0  0
   -1.8847    0.8848    0.4774 S   0  0  0  0  0  0  0  0  0  0  0  0
   -0.2928    0.8324   -0.2219 C   0  0  0  0  0  0  0  0  0  0  0  0
    0.1668   -0.2679   -0.7359 N   0  0  0  0  0  0  0  0  0  0  0  0
    1.4614    0.0254   -1.0719 C   0  0  0  0  0  0  0  0  0  0  0  0
    2.3854   -0.7719   -1.6270 C   0  0  0  0  0  0  0  0  0  0  0  0
    2.2674   -2.1483   -2.0183 C   0  0  0  0  0  0  0  0  0  0  0  0
    3.3396   -2.8822   -2.6204 C   0  0  0  0  0  0  0  0  0  0  0  0
    2.9945   -4.1854   -2.9058 C   0  0  0  0  0  0  0  0  0  0  0  0
    1.3849   -4.5348   -2.4523 S   0  0  0  0  0  0  0  0  0  0  0  0
    1.1465   -2.9398   -1.8740 C   0  0  0  0  0  0  0  0  0  0  0  0
    1.7638    1.4399   -0.7102 C   0  0  0  0  0  0  0  0  0  0  0  0
    2.8341    1.9942   -0.8909 O   0  0  0  0  0  0  0  0  0  0  0  0
    0.5708    1.8984   -0.1974 N   0  0  0  0  0  0  0  0  0  0  0  0
    0.3718    3.2437    0.2201 C   0  0  0  0  0  0  0  0  0  0  0  0
   -0.8590    3.8997    0.0765 C   0  0  0  0  0  0  0  0  0  0  0  0
   -1.0282    5.2275    0.4874 C   0  0  0  0  0  0  0  0  0  0  0  0
    0.0362    5.9306    1.0401 C   0  0  0  0  0  0  0  0  0  0  0  0
    1.2724    5.3096    1.1717 C   0  0  0  0  0  0  0  0  0  0  0  0
    1.4386    3.9829    0.7595 C   0  0  0  0  0  0  0  0  0  0  0  0
   -3.7612   -3.0623    2.7651 H   0  0  0  0  0  0  0  0  0  0  0  0
   -4.0078   -3.1480    1.0084 H   0  0  0  0  0  0  0  0  0  0  0  0
   -3.4889   -4.5827    1.8978 H   0  0  0  0  0  0  0  0  0  0  0  0
   -1.3223   -3.6011    2.4068 H   0  0  0  0  0  0  0  0  0  0  0  0
   -1.5762   -3.5471    0.6659 H   0  0  0  0  0  0  0  0  0  0  0  0
   -0.5711   -1.4746    1.6020 H   0  0  0  0  0  0  0  0  0  0  0  0
   -1.9882   -1.2142    2.6136 H   0  0  0  0  0  0  0  0  0  0  0  0
   -3.4311   -0.9076    0.6460 H   0  0  0  0  0  0  0  0  0  0  0  0
   -2.1389   -1.3395   -0.4633 H   0  0  0  0  0  0  0  0  0  0  0  0
    3.3634   -0.3244   -1.8074 H   0  0  0  0  0  0  0  0  0  0  0  0
    4.3217   -2.4786   -2.8370 H   0  0  0  0  0  0  0  0  0  0  0  0
    3.6105   -4.9499   -3.3588 H   0  0  0  0  0  0  0  0  0  0  0  0
    0.1839   -2.6800   -1.4574 H   0  0  0  0  0  0  0  0  0  0  0  0
   -1.7068    3.4235   -0.4061 H   0  0  0  0  0  0  0  0  0  0  0  0
   -1.9925    5.7139    0.3607 H   0  0  0  0  0  0  0  0  0  0  0  0
   -0.0944    6.9620    1.3569 H   0  0  0  0  0  0  0  0  0  0  0  0
    2.1134    5.8533    1.5951 H   0  0  0  0  0  0  0  0  0  0  0  0
    2.4209    3.5357    0.8969 H   0  0  0  0  0  0  0  0  0  0  0  0
  1  2  1  0
  2  3  1  0
  3  4  1  0
  4  5  1  0
  5  6  1  0
  6  7  2  0
  7  8  1  0
  8  9  2  3
  9 10  1  0
 10 11  1  0
 11 12  2  0
 12 13  1  0
 13 14  1  0
  8 15  1  0
 15 16  2  0
 15 17  1  0
 17 18  1  0
 18 19  2  0
 19 20  1  0
 20 21  2  0
 21 22  1  0
 22 23  2  0
 17  6  1  0
 23 18  1  0
 14 10  2  0
  1 24  1  0
  1 25  1  0
  1 26  1  0
  2 27  1  0
  2 28  1  0
  3 29  1  0
  3 30  1  0
  4 31  1  0
  4 32  1  0
  9 33  1  0
 11 34  1  0
 12 35  1  0
 14 36  1  0
 19 37  1  0
 20 38  1  0
 21 39  1  0
 22 40  1  0
 23 41  1  0
M  END
$$$$
