
     RDKit          3D

 46 47  0  0  0  0  0  0  0  0999 V2000
    0.7236   -3.1506    3.1102 C   0  0  0  0  0  0  0  0  0  0  0  0
    1.4951   -2.8448    1.8406 C   0  0  0  0  0  0  0  0  0  0  0  0
    1.2790   -1.4864    1.4331 O   0  0  0  0  0  0  0  0  0  0  0  0
    2.1043   -0.5607    1.9997 C   0  0  0  0  0  0  0  0  0  0  0  0
    3.0205   -0.8224    2.7694 O   0  0  0  0  0  0  0  0  0  0  0  0
    1.8639    0.7793    1.4757 C   0  0  0  0  0  0  0  0  0  0  0  0
    2.8709    1.6256    1.0195 C   0  0  0  0  0  0  0  0  0  0  0  0
    4.3457    1.4293    0.9734 C   0  0  0  0  0  0  0  0  0  0  0  0
    2.2890    2.7812    0.5650 N   0  0  0  0  0  0  0  0  0  0  0  0
    0.9270    2.7152    0.7170 C   0  0  0  0  0  0  0  0  0  0  0  0
    0.0522    3.8477    0.3133 C   0  0  0  0  0  0  0  0  0  0  0  0
    0.6368    1.5005    1.3277 C   0  0  0  0  0  0  0  0  0  0  0  0
   -0.9421    0.9801    1.8409 S   0  0  0  0  0  6  0  0  0  0  0  0
   -0.7299   -0.1393    2.7256 O   0  0  0  0  0  0  0  0  0  0  0  0
   -1.5814    2.1958    2.2937 O   0  0  0  0  0  0  0  0  0  0  0  0
   -1.7840    0.4782    0.4818 N   0  0  0  0  0  0  0  0  0  0  0  0
   -1.2819   -0.7046   -0.2148 C   0  0  0  0  0  0  0  0  0  0  0  0
   -2.0871   -0.9614   -1.4707 C   0  0  0  0  0  0  0  0  0  0  0  0
   -3.2742   -1.7080   -1.3628 C   0  0  0  0  0  0  0  0  0  0  0  0
   -4.0663   -1.9596   -2.4818 C   0  0  0  0  0  0  0  0  0  0  0  0
   -3.6879   -1.4619   -3.7237 C   0  0  0  0  0  0  0  0  0  0  0  0
   -2.5226   -0.7052   -3.8461 C   0  0  0  0  0  0  0  0  0  0  0  0
   -1.7169   -0.4354   -2.7277 C   0  0  0  0  0  0  0  0  0  0  0  0
   -0.4713    0.3885   -2.9110 C   0  0  0  0  0  0  0  0  0  0  0  0
    0.8623   -4.1944    3.4055 H   0  0  0  0  0  0  0  0  0  0  0  0
   -0.3457   -2.9677    2.9632 H   0  0  0  0  0  0  0  0  0  0  0  0
    1.0486   -2.5072    3.9338 H   0  0  0  0  0  0  0  0  0  0  0  0
    2.5631   -3.0606    1.9589 H   0  0  0  0  0  0  0  0  0  0  0  0
    1.1300   -3.4822    1.0285 H   0  0  0  0  0  0  0  0  0  0  0  0
    4.7630    1.4559    1.9849 H   0  0  0  0  0  0  0  0  0  0  0  0
    4.8367    2.2092    0.3824 H   0  0  0  0  0  0  0  0  0  0  0  0
    4.5906    0.4629    0.5215 H   0  0  0  0  0  0  0  0  0  0  0  0
    2.7939    3.5737    0.1857 H   0  0  0  0  0  0  0  0  0  0  0  0
    0.5627    4.5135   -0.3905 H   0  0  0  0  0  0  0  0  0  0  0  0
   -0.2367    4.4373    1.1889 H   0  0  0  0  0  0  0  0  0  0  0  0
   -0.8548    3.4824   -0.1780 H   0  0  0  0  0  0  0  0  0  0  0  0
   -2.0241    1.2611   -0.1229 H   0  0  0  0  0  0  0  0  0  0  0  0
   -1.3459   -1.5808    0.4407 H   0  0  0  0  0  0  0  0  0  0  0  0
   -0.2302   -0.5781   -0.4838 H   0  0  0  0  0  0  0  0  0  0  0  0
   -3.5892   -2.0939   -0.3945 H   0  0  0  0  0  0  0  0  0  0  0  0
   -4.9793   -2.5407   -2.3820 H   0  0  0  0  0  0  0  0  0  0  0  0
   -4.3030   -1.6581   -4.5981 H   0  0  0  0  0  0  0  0  0  0  0  0
   -2.2489   -0.3221   -4.8272 H   0  0  0  0  0  0  0  0  0  0  0  0
    0.4177   -0.2330   -2.7654 H   0  0  0  0  0  0  0  0  0  0  0  0
   -0.4182    0.8178   -3.9172 H   0  0  0  0  0  0  0  0  0  0  0  0
   -0.4550    1.2239   -2.2039 H   0  0  0  0  0  0  0  0  0  0  0  0
  1  2  1  0
  2  3  1  0
  3  4  1  0
  4  5  2  0
  4  6  1  0
  6  7  2  0
  7  8  1  0
  7  9  1  0
  9 10  1  0
 10 11  1  0
 10 12  2  0
 12 13  1  0
 13 14  2  0
 13 15  2  0
 13 16  1  0
 16 17  1  0
 17 18  1  0
 18 19  2  0
 19 20  1  0
 20 21  2  0
 21 22  1  0
 22 23  2  0
 23 24  1  0
 12  6  1  0
 23 18  1  0
  1 25  1  0
  1 26  1  0
  1 27  1  0
  2 28  1  0
  2 29  1  0
  8 30  1  0
  8 31  1  0
  8 32  1  0
  9 33  1  0
 11 34  1  0
 11 35  1  0
 11 36  1  0
 16 37  1  0
 17 38  1  0
 17 39  1  0
 19 40  1  0
 20 41  1  0
 21 42  1  0
 22 43  1  0
 24 44  1  0
 24 45  1  0
 24 46  1  0
M  END
$$$$
