
     RDKit          3D

 50 53  0  0  0  0  0  0  0  0999 V2000
   -7.3161    2.5919   -0.3096 C   0  0  0  0  0  0  0  0  0  0  0  0
   -6.0216    1.8787   -0.0448 C   0  0  0  0  0  0  0  0  0  0  0  0
   -4.9085    2.5840    0.4205 C   0  0  0  0  0  0  0  0  0  0  0  0
   -3.6931    1.9285    0.6404 C   0  0  0  0  0  0  0  0  0  0  0  0
   -3.5751    0.5568    0.3882 C   0  0  0  0  0  0  0  0  0  0  0  0
   -2.2057   -0.1710    0.6414 C   0  0  0  0  0  0  0  0  0  0  0  0
   -1.0227    0.4233    1.0666 C   0  0  0  0  0  0  0  0  0  0  0  0
   -0.0292   -0.5511    1.1529 N   0  0  0  0  0  4  0  0  0  0  0  0
    1.3811   -0.3508    1.5153 C   0  0  0  0  0  0  0  0  0  0  0  0
    2.3044   -0.4844    0.2944 C   0  0  0  0  0  0  0  0  0  0  0  0
    1.9681   -1.1834   -0.6591 O   0  0  0  0  0  0  0  0  0  0  0  0
    3.4900    0.2232    0.4271 N   0  0  0  0  0  0  0  0  0  0  0  0
    4.5520    0.3190   -0.5092 C   0  0  0  0  0  0  0  0  0  0  0  0
    4.5155   -0.3138   -1.7577 C   0  0  0  0  0  0  0  0  0  0  0  0
    5.5812   -0.1999   -2.6550 C   0  0  0  0  0  0  0  0  0  0  0  0
    6.7003    0.5489   -2.3179 C   0  0  0  0  0  0  0  0  0  0  0  0
    6.7542    1.1888   -1.0830 C   0  0  0  0  0  0  0  0  0  0  0  0
    5.6896    1.0867   -0.1685 C   0  0  0  0  0  0  0  0  0  0  0  0
    5.8214    1.8113    1.1452 C   0  0  0  0  0  0  0  0  0  0  0  0
   -0.5690   -1.7031    0.7612 C   0  0  0  0  0  0  0  0  0  0  0  0
   -1.8604   -1.5035    0.5089 N   0  0  0  0  0  0  0  0  0  0  0  0
   -2.5323   -2.7379    0.1265 C   0  0  0  0  0  0  0  0  0  0  0  0
   -1.5124   -3.8405    0.5222 C   0  0  0  0  0  0  0  0  0  0  0  0
   -0.1537   -3.1161    0.5876 C   0  0  0  0  0  0  0  0  0  0  0  0
   -4.6782   -0.1460   -0.0969 C   0  0  0  0  0  0  0  0  0  0  0  0
   -5.8929    0.5130   -0.3147 C   0  0  0  0  0  0  0  0  0  0  0  0
   -7.4709    3.3974    0.4165 H   0  0  0  0  0  0  0  0  0  0  0  0
   -7.3096    3.0172   -1.3179 H   0  0  0  0  0  0  0  0  0  0  0  0
   -8.1658    1.9072   -0.2209 H   0  0  0  0  0  0  0  0  0  0  0  0
   -4.9843    3.6526    0.6149 H   0  0  0  0  0  0  0  0  0  0  0  0
   -2.8625    2.5214    1.0091 H   0  0  0  0  0  0  0  0  0  0  0  0
   -0.7566    1.4378    1.3115 H   0  0  0  0  0  0  0  0  0  0  0  0
    1.6604   -1.1105    2.2532 H   0  0  0  0  0  0  0  0  0  0  0  0
    1.4901    0.6404    1.9678 H   0  0  0  0  0  0  0  0  0  0  0  0
    3.6408    0.7292    1.2898 H   0  0  0  0  0  0  0  0  0  0  0  0
    3.6707   -0.9124   -2.0788 H   0  0  0  0  0  0  0  0  0  0  0  0
    5.5340   -0.7013   -3.6194 H   0  0  0  0  0  0  0  0  0  0  0  0
    7.5303    0.6360   -3.0153 H   0  0  0  0  0  0  0  0  0  0  0  0
    7.6413    1.7723   -0.8377 H   0  0  0  0  0  0  0  0  0  0  0  0
    6.7673    2.3608    1.2142 H   0  0  0  0  0  0  0  0  0  0  0  0
    5.0119    2.5395    1.2599 H   0  0  0  0  0  0  0  0  0  0  0  0
    5.7967    1.0980    1.9755 H   0  0  0  0  0  0  0  0  0  0  0  0
   -3.4707   -2.8607    0.6717 H   0  0  0  0  0  0  0  0  0  0  0  0
   -2.7041   -2.7265   -0.9543 H   0  0  0  0  0  0  0  0  0  0  0  0
   -1.7657   -4.2159    1.5207 H   0  0  0  0  0  0  0  0  0  0  0  0
   -1.5128   -4.6890   -0.1667 H   0  0  0  0  0  0  0  0  0  0  0  0
    0.3867   -3.1805   -0.3582 H   0  0  0  0  0  0  0  0  0  0  0  0
    0.4616   -3.4155    1.4364 H   0  0  0  0  0  0  0  0  0  0  0  0
   -4.6326   -1.2019   -0.3289 H   0  0  0  0  0  0  0  0  0  0  0  0
   -6.7430   -0.0482   -0.7002 H   0  0  0  0  0  0  0  0  0  0  0  0
  1  2  1  0
  2  3  2  0
  3  4  1  0
  4  5  2  0
  5  6  1  0
  6  7  2  0
  7  8  1  0
  8  9  1  0
  9 10  1  0
 10 11  2  0
 10 12  1  0
 12 13  1  0
 13 14  2  0
 14 15  1  0
 15 16  2  0
 16 17  1  0
 17 18  2  0
 18 19  1  0
  8 20  2  0
 20 21  1  0
 21 22  1  0
 22 23  1  0
 23 24  1  0
  5 25  1  0
 25 26  2  0
 26  2  1  0
 21  6  1  0
 18 13  1  0
 24 20  1  0
  1 27  1  0
  1 28  1  0
  1 29  1  0
  3 30  1  0
  4 31  1  0
  7 32  1  0
  9 33  1  0
  9 34  1  0
 12 35  1  0
 14 36  1  0
 15 37  1  0
 16 38  1  0
 17 39  1  0
 19 40  1  0
 19 41  1  0
 19 42  1  0
 22 43  1  0
 22 44  1  0
 23 45  1  0
 23 46  1  0
 24 47  1  0
 24 48  1  0
 25 49  1  0
 26 50  1  0
M  CHG  1   8   1
M  END
$$$$
