
     RDKit          3D

 22 22  0  0  0  0  0  0  0  0999 V2000
    2.9896    1.1965    0.0738 C   0  0  0  0  0  0  0  0  0  0  0  0
    1.5208    0.9071   -0.0595 C   0  0  0  0  0  0  0  0  0  0  0  0
    0.7284    1.9955   -0.2437 N   0  0  0  0  0  0  0  0  0  0  0  0
   -0.6056    1.7967   -0.3358 C   0  0  0  0  0  0  0  0  0  0  0  0
   -1.2059    0.5559   -0.2301 C   0  0  0  0  0  0  0  0  0  0  0  0
   -2.6557    0.4322   -0.4422 C   0  0  0  0  0  0  0  0  0  0  0  0
   -3.2295   -0.4872   -0.9924 O   0  0  0  0  0  0  0  0  0  0  0  0
   -3.3232    1.4962    0.0380 O   0  0  0  0  0  0  0  0  0  0  0  0
   -0.3786   -0.5484   -0.0143 C   0  0  0  0  0  0  0  0  0  0  0  0
   -0.9560   -1.8859    0.2011 C   0  0  0  0  0  0  0  0  0  0  0  0
   -0.5578   -2.9211   -0.3011 O   0  0  0  0  0  0  0  0  0  0  0  0
   -1.9250   -1.8598    1.1326 O   0  0  0  0  0  0  0  0  0  0  0  0
    1.0257   -0.4073    0.0039 C   0  0  0  0  0  0  0  0  0  0  0  0
    1.8739   -1.4953    0.3075 N   0  0  0  0  0  0  0  0  0  0  0  0
    3.3653    0.8347    1.0359 H   0  0  0  0  0  0  0  0  0  0  0  0
    3.5465    0.7208   -0.7393 H   0  0  0  0  0  0  0  0  0  0  0  0
    3.1799    2.2739    0.0247 H   0  0  0  0  0  0  0  0  0  0  0  0
   -1.1852    2.6993   -0.5133 H   0  0  0  0  0  0  0  0  0  0  0  0
   -4.2668    1.2880   -0.1336 H   0  0  0  0  0  0  0  0  0  0  0  0
   -2.2349   -2.7882    1.1888 H   0  0  0  0  0  0  0  0  0  0  0  0
    2.8230   -1.4040   -0.0416 H   0  0  0  0  0  0  0  0  0  0  0  0
    1.4709   -2.3995    0.0407 H   0  0  0  0  0  0  0  0  0  0  0  0
  1  2  1  0
  2  3  2  0
  3  4  1  0
  4  5  2  0
  5  6  1  0
  6  7  2  0
  6  8  1  0
  5  9  1  0
  9 10  1  0
 10 11  2  0
 10 12  1  0
  9 13  2  0
 13 14  1  0
 13  2  1  0
  1 15  1  0
  1 16  1  0
  1 17  1  0
  4 18  1  0
  8 19  1  0
 12 20  1  0
 14 21  1  0
 14 22  1  0
M  END
$$$$
