
     RDKit          3D

 48 52  0  0  0  0  0  0  0  0999 V2000
    5.6738   -0.9308   -0.2926 C   0  0  0  0  0  0  0  0  0  0  0  0
    4.2276   -0.6072   -0.5213 C   0  0  0  0  0  0  0  0  0  0  0  0
    3.4259   -0.1598    0.5328 C   0  0  0  0  0  0  0  0  0  0  0  0
    2.0844    0.1675    0.3160 C   0  0  0  0  0  0  0  0  0  0  0  0
    1.5158    0.0768   -0.9663 C   0  0  0  0  0  0  0  0  0  0  0  0
    0.0691    0.4156   -1.2558 C   0  0  0  0  0  0  0  0  0  0  0  0
   -0.1982    1.7745   -0.7315 C   0  0  0  0  0  0  0  0  0  0  0  0
   -1.2109    1.7489    0.2405 C   0  0  0  0  0  0  0  0  0  0  0  0
   -1.4722    3.0297    0.6425 C   0  0  0  0  0  0  0  0  0  0  0  0
   -2.3754    3.4697    1.5096 O   0  0  0  0  0  0  0  0  0  0  0  0
   -0.5863    3.8410   -0.0555 N   0  0  0  0  0  0  0  0  0  0  0  0
   -0.5013    5.2801    0.0595 C   0  0  0  0  0  0  0  0  0  0  0  0
    0.2076    3.0728   -0.8929 C   0  0  0  0  0  0  0  0  0  0  0  0
    1.1513    3.6182   -1.6491 O   0  0  0  0  0  0  0  0  0  0  0  0
   -1.6966    0.3778    0.4978 C   0  0  0  0  0  0  0  0  0  0  0  0
   -1.3768   -0.1664    1.8862 C   0  0  0  0  0  0  0  0  0  0  0  0
   -0.9052    0.4961    2.8126 O   0  0  0  0  0  0  0  0  0  0  0  0
   -1.7412   -1.4636    2.1507 N   0  0  0  0  0  0  0  0  0  0  0  0
   -2.3261   -2.4111    1.2923 C   0  0  0  0  0  0  0  0  0  0  0  0
   -3.0939   -3.3962    1.9401 C   0  0  0  0  0  0  0  0  0  0  0  0
   -3.7649   -4.3850    1.2189 C   0  0  0  0  0  0  0  0  0  0  0  0
   -3.6615   -4.4198   -0.1645 C   0  0  0  0  0  0  0  0  0  0  0  0
   -2.8696   -3.4774   -0.8192 C   0  0  0  0  0  0  0  0  0  0  0  0
   -2.1889   -2.4688   -0.1062 C   0  0  0  0  0  0  0  0  0  0  0  0
   -1.2426   -1.6467   -0.9148 C   0  0  0  0  0  0  0  0  0  0  0  0
   -0.7896   -2.1191   -1.9568 O   0  0  0  0  0  0  0  0  0  0  0  0
   -0.9000   -0.3917   -0.4833 N   0  0  0  0  0  0  0  0  0  0  0  0
    2.3313   -0.3733   -2.0179 C   0  0  0  0  0  0  0  0  0  0  0  0
    3.6721   -0.7027   -1.8004 C   0  0  0  0  0  0  0  0  0  0  0  0
    5.8336   -1.3103    0.7221 H   0  0  0  0  0  0  0  0  0  0  0  0
    6.0153   -1.7062   -0.9863 H   0  0  0  0  0  0  0  0  0  0  0  0
    6.2847   -0.0342   -0.4354 H   0  0  0  0  0  0  0  0  0  0  0  0
    3.8366   -0.0653    1.5356 H   0  0  0  0  0  0  0  0  0  0  0  0
    1.4898    0.5055    1.1630 H   0  0  0  0  0  0  0  0  0  0  0  0
   -0.1716    0.3536   -2.3235 H   0  0  0  0  0  0  0  0  0  0  0  0
   -2.2101    4.4045    1.7120 H   0  0  0  0  0  0  0  0  0  0  0  0
    0.1794    5.6851   -0.6922 H   0  0  0  0  0  0  0  0  0  0  0  0
   -0.1341    5.5198    1.0606 H   0  0  0  0  0  0  0  0  0  0  0  0
   -1.4992    5.6987   -0.0951 H   0  0  0  0  0  0  0  0  0  0  0  0
    1.6762    2.8863   -2.0235 H   0  0  0  0  0  0  0  0  0  0  0  0
   -2.7655    0.2805    0.2801 H   0  0  0  0  0  0  0  0  0  0  0  0
   -1.6895   -1.6753    3.1405 H   0  0  0  0  0  0  0  0  0  0  0  0
   -3.2016   -3.3907    3.0234 H   0  0  0  0  0  0  0  0  0  0  0  0
   -4.3655   -5.1270    1.7397 H   0  0  0  0  0  0  0  0  0  0  0  0
   -4.1727   -5.1918   -0.7346 H   0  0  0  0  0  0  0  0  0  0  0  0
   -2.7597   -3.5488   -1.9012 H   0  0  0  0  0  0  0  0  0  0  0  0
    1.9198   -0.4871   -3.0195 H   0  0  0  0  0  0  0  0  0  0  0  0
    4.2763   -1.0464   -2.6371 H   0  0  0  0  0  0  0  0  0  0  0  0
  1  2  1  0
  2  3  2  0
  3  4  1  0
  4  5  2  0
  5  6  1  0
  6  7  1  0
  7  8  1  0
  8  9  2  0
  9 10  1  0
  9 11  1  0
 11 12  1  0
 11 13  1  0
 13 14  1  0
  8 15  1  0
 15 16  1  0
 16 17  2  0
 16 18  1  0
 18 19  1  0
 19 20  2  0
 20 21  1  0
 21 22  2  0
 22 23  1  0
 23 24  2  0
 24 25  1  0
 25 26  2  0
 25 27  1  0
  5 28  1  0
 28 29  2  0
 29  2  1  0
 27  6  1  0
 13  7  2  0
 27 15  1  0
 24 19  1  0
  1 30  1  0
  1 31  1  0
  1 32  1  0
  3 33  1  0
  4 34  1  0
  6 35  1  0
 10 36  1  0
 12 37  1  0
 12 38  1  0
 12 39  1  0
 14 40  1  0
 15 41  1  0
 18 42  1  0
 20 43  1  0
 21 44  1  0
 22 45  1  0
 23 46  1  0
 28 47  1  0
 29 48  1  0
M  END
$$$$
