
     RDKit          3D

 43 46  0  0  0  0  0  0  0  0999 V2000
   -4.3954   -3.0822   -1.3673 C   0  0  0  0  0  0  0  0  0  0  0  0
   -3.8780   -1.7299   -1.5138 N   0  0  0  0  0  0  0  0  0  0  0  0
   -4.4479   -0.9213   -2.4957 C   0  0  0  0  0  0  0  0  0  0  0  0
   -5.3499   -1.2939   -3.2421 O   0  0  0  0  0  0  0  0  0  0  0  0
   -3.9143    0.5077   -2.6493 C   0  0  0  0  0  0  0  0  0  0  0  0
   -4.4091    1.2283   -3.5126 O   0  0  0  0  0  0  0  0  0  0  0  0
   -2.8883    0.9164   -1.7994 N   0  0  0  0  0  0  0  0  0  0  0  0
   -2.3929    2.2781   -1.9414 C   0  0  0  0  0  0  0  0  0  0  0  0
   -2.3373    0.0483   -0.8176 C   0  0  0  0  0  0  0  0  0  0  0  0
   -1.2973    0.4834    0.0216 C   0  0  0  0  0  0  0  0  0  0  0  0
   -0.7508   -0.3739    0.9813 C   0  0  0  0  0  0  0  0  0  0  0  0
    0.5641    0.2293    2.0204 S   0  0  0  0  0  6  0  0  0  0  0  0
    0.9113   -0.8289    2.9468 O   0  0  0  0  0  0  0  0  0  0  0  0
    0.1340    1.5294    2.4905 O   0  0  0  0  0  0  0  0  0  0  0  0
    1.8319    0.4038    0.8971 N   0  0  0  0  0  0  0  0  0  0  0  0
    2.2674   -0.8507    0.1918 C   0  0  0  0  0  0  0  0  0  0  0  0
    3.7465   -0.6488   -0.1719 C   0  0  0  0  0  0  0  0  0  0  0  0
    4.1516    0.4423    0.7623 C   0  0  0  0  0  0  0  0  0  0  0  0
    5.4335    0.9134    1.0033 C   0  0  0  0  0  0  0  0  0  0  0  0
    5.5868    2.0049    1.8588 C   0  0  0  0  0  0  0  0  0  0  0  0
    4.4657    2.6188    2.4360 C   0  0  0  0  0  0  0  0  0  0  0  0
    3.1775    2.1408    2.1755 C   0  0  0  0  0  0  0  0  0  0  0  0
    3.0379    1.0284    1.3638 C   0  0  0  0  0  0  0  0  0  0  0  0
   -1.2351   -1.6658    1.1369 C   0  0  0  0  0  0  0  0  0  0  0  0
   -2.2682   -2.1051    0.3086 C   0  0  0  0  0  0  0  0  0  0  0  0
   -2.8289   -1.2646   -0.6748 C   0  0  0  0  0  0  0  0  0  0  0  0
   -4.8019   -3.2093   -0.3588 H   0  0  0  0  0  0  0  0  0  0  0  0
   -3.5909   -3.8017   -1.5498 H   0  0  0  0  0  0  0  0  0  0  0  0
   -5.1991   -3.2968   -2.0773 H   0  0  0  0  0  0  0  0  0  0  0  0
   -2.5452    2.8209   -1.0031 H   0  0  0  0  0  0  0  0  0  0  0  0
   -1.3299    2.2534   -2.2019 H   0  0  0  0  0  0  0  0  0  0  0  0
   -2.9148    2.8273   -2.7301 H   0  0  0  0  0  0  0  0  0  0  0  0
   -0.8906    1.4894   -0.0478 H   0  0  0  0  0  0  0  0  0  0  0  0
    1.6631   -1.0222   -0.7042 H   0  0  0  0  0  0  0  0  0  0  0  0
    2.1728   -1.7213    0.8515 H   0  0  0  0  0  0  0  0  0  0  0  0
    3.8492   -0.3107   -1.2084 H   0  0  0  0  0  0  0  0  0  0  0  0
    4.3231   -1.5664   -0.0244 H   0  0  0  0  0  0  0  0  0  0  0  0
    6.2984    0.4571    0.5322 H   0  0  0  0  0  0  0  0  0  0  0  0
    6.5805    2.3951    2.0672 H   0  0  0  0  0  0  0  0  0  0  0  0
    4.5977    3.4821    3.0844 H   0  0  0  0  0  0  0  0  0  0  0  0
    2.3228    2.6487    2.6081 H   0  0  0  0  0  0  0  0  0  0  0  0
   -0.8268   -2.3326    1.8938 H   0  0  0  0  0  0  0  0  0  0  0  0
   -2.6228   -3.1213    0.4597 H   0  0  0  0  0  0  0  0  0  0  0  0
  1  2  1  0
  2  3  1  0
  3  4  2  0
  3  5  1  0
  5  6  2  0
  5  7  1  0
  7  8  1  0
  7  9  1  0
  9 10  2  0
 10 11  1  0
 11 12  1  0
 12 13  2  0
 12 14  2  0
 12 15  1  0
 15 16  1  0
 16 17  1  0
 17 18  1  0
 18 19  2  0
 19 20  1  0
 20 21  2  0
 21 22  1  0
 22 23  2  0
 11 24  2  0
 24 25  1  0
 25 26  2  0
 26  2  1  0
 26  9  1  0
 23 15  1  0
 23 18  1  0
  1 27  1  0
  1 28  1  0
  1 29  1  0
  8 30  1  0
  8 31  1  0
  8 32  1  0
 10 33  1  0
 16 34  1  0
 16 35  1  0
 17 36  1  0
 17 37  1  0
 19 38  1  0
 20 39  1  0
 21 40  1  0
 22 41  1  0
 24 42  1  0
 25 43  1  0
M  END
$$$$
