
     RDKit          3D

 28 29  0  0  0  0  0  0  0  0999 V2000
   -5.8478   -0.9016   -0.4674 O   0  0  0  0  0  0  0  0  0  0  0  0
   -5.2376    0.0507    0.0352 N   0  0  0  0  0  4  0  0  0  0  0  0
   -5.6505    0.7861    0.9397 O   0  0  0  0  0  1  0  0  0  0  0  0
   -3.8940    0.2803   -0.4391 C   0  0  0  0  0  0  0  0  0  0  0  0
   -2.9199   -0.6748   -0.1156 C   0  0  0  0  0  0  0  0  0  0  0  0
   -1.6098   -0.4691   -0.5503 C   0  0  0  0  0  0  0  0  0  0  0  0
   -0.6022   -1.5008   -0.2249 C   0  0  0  0  0  0  0  0  0  0  0  0
    0.6542   -1.3553    0.0752 N   0  0  0  0  0  0  0  0  0  0  0  0
    1.1329   -0.0925    0.2261 N   0  0  0  0  0  0  0  0  0  0  0  0
    2.4807    0.0789    0.5903 C   0  0  0  0  0  0  0  0  0  0  0  0
    3.4681   -0.8163    0.1862 C   0  0  0  0  0  0  0  0  0  0  0  0
    4.7916   -0.5843    0.5525 C   0  0  0  0  0  0  0  0  0  0  0  0
    5.0970    0.5399    1.3063 C   0  0  0  0  0  0  0  0  0  0  0  0
    4.0604    1.3865    1.6577 C   0  0  0  0  0  0  0  0  0  0  0  0
    2.7684    1.1846    1.3132 N   0  0  0  0  0  0  0  0  0  0  0  0
   -1.2964    0.6530   -1.3266 C   0  0  0  0  0  0  0  0  0  0  0  0
   -2.2862    1.5921   -1.6437 C   0  0  0  0  0  0  0  0  0  0  0  0
   -3.5982    1.4128   -1.1981 C   0  0  0  0  0  0  0  0  0  0  0  0
   -4.7755    2.5861   -1.6553 Cl  0  0  0  0  0  0  0  0  0  0  0  0
   -3.1804   -1.5518    0.4732 H   0  0  0  0  0  0  0  0  0  0  0  0
   -0.9786   -2.5392   -0.2353 H   0  0  0  0  0  0  0  0  0  0  0  0
    0.5967    0.5893    0.7630 H   0  0  0  0  0  0  0  0  0  0  0  0
    3.2052   -1.6870   -0.4052 H   0  0  0  0  0  0  0  0  0  0  0  0
    5.5712   -1.2769    0.2497 H   0  0  0  0  0  0  0  0  0  0  0  0
    6.1155    0.7524    1.6104 H   0  0  0  0  0  0  0  0  0  0  0  0
    4.2457    2.2812    2.2449 H   0  0  0  0  0  0  0  0  0  0  0  0
   -0.2875    0.7964   -1.7113 H   0  0  0  0  0  0  0  0  0  0  0  0
   -2.0229    2.4568   -2.2509 H   0  0  0  0  0  0  0  0  0  0  0  0
  1  2  2  0
  2  3  1  0
  2  4  1  0
  4  5  2  0
  5  6  1  0
  6  7  1  0
  7  8  2  3
  8  9  1  0
  9 10  1  0
 10 11  2  0
 11 12  1  0
 12 13  2  0
 13 14  1  0
 14 15  2  0
  6 16  2  0
 16 17  1  0
 17 18  2  0
 18 19  1  0
 18  4  1  0
 15 10  1  0
  5 20  1  0
  7 21  1  0
  9 22  1  0
 11 23  1  0
 12 24  1  0
 13 25  1  0
 14 26  1  0
 16 27  1  0
 17 28  1  0
M  CHG  2   2   1   3  -1
M  END
$$$$
