
     RDKit          3D

 42 45  0  0  0  0  0  0  0  0999 V2000
   -2.8701    0.6151   -2.0029 O   0  0  0  0  0  0  0  0  0  0  0  0
   -3.1486    0.5632   -0.8007 C   0  0  0  0  0  0  0  0  0  0  0  0
   -2.1492    0.9902    0.1953 C   0  0  0  0  0  0  0  0  0  0  0  0
   -0.8431    1.4712   -0.1064 C   0  0  0  0  0  0  0  0  0  0  0  0
   -0.2666    1.7358    1.1110 C   0  0  0  0  0  0  0  0  0  0  0  0
    1.0480    2.2398    1.5692 C   0  0  0  0  0  0  0  0  0  0  0  0
    1.9286    2.3651    0.4486 O   0  0  0  0  0  0  0  0  0  0  0  0
    2.7902    1.3330    0.1976 C   0  0  0  0  0  0  0  0  0  0  0  0
    3.9173    1.6762   -0.5511 C   0  0  0  0  0  0  0  0  0  0  0  0
    4.8690    0.7105   -0.8910 C   0  0  0  0  0  0  0  0  0  0  0  0
    4.6911   -0.6224   -0.4953 C   0  0  0  0  0  0  0  0  0  0  0  0
    5.6657   -1.5920   -0.8492 N   0  0  0  0  0  0  0  0  0  0  0  0
    5.6833   -2.9409   -0.5811 C   0  0  0  0  0  0  0  0  0  0  0  0
    6.7663   -3.4979   -1.0749 N   0  0  0  0  0  0  0  0  0  0  0  0
    7.4047   -2.4425   -1.6510 C   0  0  0  0  0  0  0  0  0  0  0  0
    6.7854   -1.2665   -1.5447 N   0  0  0  0  0  0  0  0  0  0  0  0
    3.5503   -0.9729    0.2396 C   0  0  0  0  0  0  0  0  0  0  0  0
    2.6040    0.0042    0.5811 C   0  0  0  0  0  0  0  0  0  0  0  0
   -1.1637    1.4479    2.0901 O   0  0  0  0  0  0  0  0  0  0  0  0
   -2.3334    0.9844    1.5270 N   0  0  0  0  0  0  0  0  0  0  0  0
   -4.3970    0.1060   -0.3952 N   0  0  0  0  0  0  0  0  0  0  0  0
   -5.4032   -0.2480   -1.3816 C   0  0  0  0  0  0  0  0  0  0  0  0
   -6.7000   -0.3282   -0.5905 C   0  0  0  0  0  0  0  0  0  0  0  0
   -6.2308   -0.8102    0.7756 C   0  0  0  0  0  0  0  0  0  0  0  0
   -4.9016   -0.0875    0.9593 C   0  0  0  0  0  0  0  0  0  0  0  0
   -0.3977    1.5951   -1.0840 H   0  0  0  0  0  0  0  0  0  0  0  0
    1.4747    1.6270    2.3717 H   0  0  0  0  0  0  0  0  0  0  0  0
    0.9155    3.2466    1.9807 H   0  0  0  0  0  0  0  0  0  0  0  0
    4.0617    2.7063   -0.8719 H   0  0  0  0  0  0  0  0  0  0  0  0
    5.7398    1.0150   -1.4700 H   0  0  0  0  0  0  0  0  0  0  0  0
    4.9052   -3.4572   -0.0394 H   0  0  0  0  0  0  0  0  0  0  0  0
    8.3533   -2.5325   -2.1655 H   0  0  0  0  0  0  0  0  0  0  0  0
    3.3565   -1.9936    0.5585 H   0  0  0  0  0  0  0  0  0  0  0  0
    1.7216   -0.3126    1.1295 H   0  0  0  0  0  0  0  0  0  0  0  0
   -5.4472    0.4899   -2.1892 H   0  0  0  0  0  0  0  0  0  0  0  0
   -5.1310   -1.2226   -1.8033 H   0  0  0  0  0  0  0  0  0  0  0  0
   -7.4347   -0.9935   -1.0513 H   0  0  0  0  0  0  0  0  0  0  0  0
   -7.1473    0.6696   -0.4981 H   0  0  0  0  0  0  0  0  0  0  0  0
   -6.9428   -0.5917    1.5772 H   0  0  0  0  0  0  0  0  0  0  0  0
   -6.0667   -1.8951    0.7489 H   0  0  0  0  0  0  0  0  0  0  0  0
   -5.0488    0.8985    1.4150 H   0  0  0  0  0  0  0  0  0  0  0  0
   -4.2086   -0.6832    1.5611 H   0  0  0  0  0  0  0  0  0  0  0  0
  1  2  2  0
  2  3  1  0
  3  4  1  0
  4  5  2  0
  5  6  1  0
  6  7  1  0
  7  8  1  0
  8  9  2  0
  9 10  1  0
 10 11  2  0
 11 12  1  0
 12 13  1  0
 13 14  2  0
 14 15  1  0
 15 16  2  0
 11 17  1  0
 17 18  2  0
  5 19  1  0
 19 20  1  0
  2 21  1  0
 21 22  1  0
 22 23  1  0
 23 24  1  0
 24 25  1  0
 20  3  2  0
 25 21  1  0
 18  8  1  0
 16 12  1  0
  4 26  1  0
  6 27  1  0
  6 28  1  0
  9 29  1  0
 10 30  1  0
 13 31  1  0
 15 32  1  0
 17 33  1  0
 18 34  1  0
 22 35  1  0
 22 36  1  0
 23 37  1  0
 23 38  1  0
 24 39  1  0
 24 40  1  0
 25 41  1  0
 25 42  1  0
M  END
$$$$
