
     RDKit          3D

 54 57  0  0  0  0  0  0  0  0999 V2000
   -2.6789    5.6189   -1.5739 C   0  0  0  0  0  0  0  0  0  0  0  0
   -2.7485    4.1721   -1.6897 N   0  0  0  0  0  0  0  0  0  0  0  0
   -1.9211    3.4295   -0.8573 C   0  0  0  0  0  0  0  0  0  0  0  0
   -1.0794    3.9505   -0.1366 O   0  0  0  0  0  0  0  0  0  0  0  0
   -2.0494    1.9707   -0.9267 C   0  0  0  0  0  0  0  0  0  0  0  0
   -1.4896    1.0617   -0.0417 C   0  0  0  0  0  0  0  0  0  0  0  0
   -0.6193    1.4582    1.4603 S   0  0  0  0  0  0  0  0  0  0  0  0
    1.0418    1.6909    0.7630 C   0  0  0  0  0  0  0  0  0  0  0  0
    2.0710    1.6534    1.8814 C   0  0  0  0  0  0  0  0  0  0  0  0
    2.2600    2.5936    2.6539 O   0  0  0  0  0  0  0  0  0  0  0  0
    2.7883    0.4724    1.9417 N   0  0  0  0  0  0  0  0  0  0  0  0
    3.7190    0.2077    3.0258 C   0  0  0  0  0  0  0  0  0  0  0  0
    4.7068   -0.8833    2.6192 C   0  0  0  0  0  0  0  0  0  0  0  0
    5.6904   -1.2578    3.7124 C   0  0  0  0  0  0  0  0  0  0  0  0
    6.0685   -2.6594    3.3020 C   0  0  0  0  0  0  0  0  0  0  0  0
    4.7474   -3.2086    2.8031 C   0  0  0  0  0  0  0  0  0  0  0  0
    3.9936   -2.0980    2.2963 O   0  0  0  0  0  0  0  0  0  0  0  0
   -1.6166   -0.2758   -0.2023 N   0  0  0  0  0  0  0  0  0  0  0  0
   -2.3100   -0.7074   -1.2611 C   0  0  0  0  0  0  0  0  0  0  0  0
   -2.5092   -2.1493   -1.4104 C   0  0  0  0  0  0  0  0  0  0  0  0
   -3.0332   -2.8887   -0.3285 C   0  0  0  0  0  0  0  0  0  0  0  0
   -3.2898   -4.2590   -0.4385 C   0  0  0  0  0  0  0  0  0  0  0  0
   -3.0225   -4.9234   -1.6343 C   0  0  0  0  0  0  0  0  0  0  0  0
   -2.4780   -4.2215   -2.7078 C   0  0  0  0  0  0  0  0  0  0  0  0
   -2.2197   -2.8469   -2.5983 C   0  0  0  0  0  0  0  0  0  0  0  0
   -1.4876   -2.0783   -3.9668 Cl  0  0  0  0  0  0  0  0  0  0  0  0
   -2.9125    0.1007   -2.1396 N   0  0  0  0  0  0  0  0  0  0  0  0
   -2.7762    1.4312   -1.9637 C   0  0  0  0  0  0  0  0  0  0  0  0
   -3.4199    2.2708   -2.8970 N   0  0  0  0  0  0  0  0  0  0  0  0
   -4.1359    1.6333   -3.9945 C   0  0  0  0  0  0  0  0  0  0  0  0
   -3.4212    3.6447   -2.7842 C   0  0  0  0  0  0  0  0  0  0  0  0
   -3.9717    4.3636   -3.6142 O   0  0  0  0  0  0  0  0  0  0  0  0
   -3.5792    6.0923   -1.9748 H   0  0  0  0  0  0  0  0  0  0  0  0
   -1.8114    5.9680   -2.1410 H   0  0  0  0  0  0  0  0  0  0  0  0
   -2.5570    5.9142   -0.5259 H   0  0  0  0  0  0  0  0  0  0  0  0
    1.1257    2.6522    0.2506 H   0  0  0  0  0  0  0  0  0  0  0  0
    1.2584    0.9029    0.0338 H   0  0  0  0  0  0  0  0  0  0  0  0
    2.3879   -0.3568    1.5044 H   0  0  0  0  0  0  0  0  0  0  0  0
    3.1117   -0.1116    3.8819 H   0  0  0  0  0  0  0  0  0  0  0  0
    4.2432    1.1303    3.2986 H   0  0  0  0  0  0  0  0  0  0  0  0
    5.2451   -0.5808    1.7101 H   0  0  0  0  0  0  0  0  0  0  0  0
    6.5443   -0.5748    3.7701 H   0  0  0  0  0  0  0  0  0  0  0  0
    5.1987   -1.2798    4.6935 H   0  0  0  0  0  0  0  0  0  0  0  0
    6.7948   -2.6193    2.4785 H   0  0  0  0  0  0  0  0  0  0  0  0
    6.5000   -3.2546    4.1097 H   0  0  0  0  0  0  0  0  0  0  0  0
    4.8768   -3.9593    2.0168 H   0  0  0  0  0  0  0  0  0  0  0  0
    4.1720   -3.6579    3.6213 H   0  0  0  0  0  0  0  0  0  0  0  0
   -3.2543   -2.3861    0.6133 H   0  0  0  0  0  0  0  0  0  0  0  0
   -3.7060   -4.8012    0.4059 H   0  0  0  0  0  0  0  0  0  0  0  0
   -3.2261   -5.9887   -1.7247 H   0  0  0  0  0  0  0  0  0  0  0  0
   -2.2520   -4.7532   -3.6324 H   0  0  0  0  0  0  0  0  0  0  0  0
   -4.5494    2.3692   -4.6908 H   0  0  0  0  0  0  0  0  0  0  0  0
   -4.9680    1.0452   -3.5886 H   0  0  0  0  0  0  0  0  0  0  0  0
   -3.4519    0.9836   -4.5540 H   0  0  0  0  0  0  0  0  0  0  0  0
  1  2  1  0
  2  3  1  0
  3  4  2  0
  3  5  1  0
  5  6  2  0
  6  7  1  0
  7  8  1  0
  8  9  1  0
  9 10  2  0
  9 11  1  0
 11 12  1  0
 12 13  1  0
 13 14  1  0
 14 15  1  0
 15 16  1  0
 16 17  1  0
  6 18  1  0
 18 19  2  0
 19 20  1  0
 20 21  2  0
 21 22  1  0
 22 23  2  0
 23 24  1  0
 24 25  2  0
 25 26  1  0
 19 27  1  0
 27 28  2  0
 28 29  1  0
 29 30  1  0
 29 31  1  0
 31 32  2  0
 31  2  1  0
 28  5  1  0
 17 13  1  0
 25 20  1  0
  1 33  1  0
  1 34  1  0
  1 35  1  0
  8 36  1  0
  8 37  1  0
 11 38  1  0
 12 39  1  0
 12 40  1  0
 13 41  1  0
 14 42  1  0
 14 43  1  0
 15 44  1  0
 15 45  1  0
 16 46  1  0
 16 47  1  0
 21 48  1  0
 22 49  1  0
 23 50  1  0
 24 51  1  0
 30 52  1  0
 30 53  1  0
 30 54  1  0
M  END
$$$$
