
     RDKit          3D

 33 33  0  0  0  0  0  0  0  0999 V2000
    4.6822    2.9952    3.2220 C   0  0  0  0  0  0  0  0  0  0  0  0
    4.0412    1.8835    3.6183 C   0  0  0  0  0  0  0  0  0  0  0  0
    3.3017    0.8978    2.7655 C   0  0  0  0  0  0  0  0  0  0  0  0
    3.8065    0.8954    1.4087 N   0  0  0  0  0  0  0  0  0  0  0  0
    3.2795    0.2429    0.3344 C   0  0  0  0  0  0  0  0  0  0  0  0
    4.2160    0.0933   -1.0464 S   0  0  0  0  0  0  0  0  0  0  0  0
    2.0219   -0.2869    0.4869 N   0  0  0  0  0  0  0  0  0  0  0  0
    1.3339   -0.8179   -0.6291 N   0  0  0  0  0  0  0  0  0  0  0  0
   -0.0131   -0.4995   -0.7319 C   0  0  0  0  0  0  0  0  0  0  0  0
   -0.6275    0.0274    0.1960 O   0  0  0  0  0  0  0  0  0  0  0  0
   -0.6448   -0.9071   -2.0655 C   0  0  0  0  0  0  0  0  0  0  0  0
   -1.7452   -0.0977   -2.4572 O   0  0  0  0  0  0  0  0  0  0  0  0
   -3.0026   -0.5860   -2.2163 C   0  0  0  0  0  0  0  0  0  0  0  0
   -3.3368   -1.3357   -1.0837 C   0  0  0  0  0  0  0  0  0  0  0  0
   -4.6567   -1.7582   -0.8824 C   0  0  0  0  0  0  0  0  0  0  0  0
   -5.6466   -1.4244   -1.8069 C   0  0  0  0  0  0  0  0  0  0  0  0
   -7.2682   -1.9441   -1.5482 Cl  0  0  0  0  0  0  0  0  0  0  0  0
   -5.3339   -0.6696   -2.9330 C   0  0  0  0  0  0  0  0  0  0  0  0
   -4.0158   -0.2475   -3.1316 C   0  0  0  0  0  0  0  0  0  0  0  0
   -3.6701    0.6840   -4.5495 Cl  0  0  0  0  0  0  0  0  0  0  0  0
    4.7138    3.3109    2.1819 H   0  0  0  0  0  0  0  0  0  0  0  0
    5.1771    3.6358    3.9466 H   0  0  0  0  0  0  0  0  0  0  0  0
    4.0320    1.6574    4.6848 H   0  0  0  0  0  0  0  0  0  0  0  0
    2.2313    1.1258    2.7760 H   0  0  0  0  0  0  0  0  0  0  0  0
    3.4414   -0.1135    3.1615 H   0  0  0  0  0  0  0  0  0  0  0  0
    4.7813    1.1448    1.2888 H   0  0  0  0  0  0  0  0  0  0  0  0
    1.3946    0.1244    1.1788 H   0  0  0  0  0  0  0  0  0  0  0  0
    1.9034   -0.9518   -1.4651 H   0  0  0  0  0  0  0  0  0  0  0  0
   -0.8957   -1.9747   -2.0355 H   0  0  0  0  0  0  0  0  0  0  0  0
    0.1136   -0.7873   -2.8487 H   0  0  0  0  0  0  0  0  0  0  0  0
   -2.5996   -1.5762   -0.3237 H   0  0  0  0  0  0  0  0  0  0  0  0
   -4.9063   -2.3340    0.0062 H   0  0  0  0  0  0  0  0  0  0  0  0
   -6.1087   -0.4068   -3.6481 H   0  0  0  0  0  0  0  0  0  0  0  0
  1  2  2  0
  2  3  1  0
  3  4  1  0
  4  5  1  0
  5  6  2  0
  5  7  1  0
  7  8  1  0
  8  9  1  0
  9 10  2  0
  9 11  1  0
 11 12  1  0
 12 13  1  0
 13 14  2  0
 14 15  1  0
 15 16  2  0
 16 17  1  0
 16 18  1  0
 18 19  2  0
 19 20  1  0
 19 13  1  0
  1 21  1  0
  1 22  1  0
  2 23  1  0
  3 24  1  0
  3 25  1  0
  4 26  1  0
  7 27  1  0
  8 28  1  0
 11 29  1  0
 11 30  1  0
 14 31  1  0
 15 32  1  0
 18 33  1  0
M  END
$$$$
