
     RDKit          3D

 47 48  0  0  0  0  0  0  0  0999 V2000
    6.4956   -1.7012    2.6416 C   0  0  0  0  0  0  0  0  0  0  0  0
    4.9980   -1.6414    2.4016 C   0  0  0  0  0  0  0  0  0  0  0  0
    4.7441   -0.6586    1.3906 O   0  0  0  0  0  0  0  0  0  0  0  0
    3.4367   -0.5714    1.0096 C   0  0  0  0  0  0  0  0  0  0  0  0
    2.5358   -1.2271    1.5203 O   0  0  0  0  0  0  0  0  0  0  0  0
    3.2024    0.3841   -0.0759 C   0  0  0  0  0  0  0  0  0  0  0  0
    4.1317    1.2495   -0.6534 C   0  0  0  0  0  0  0  0  0  0  0  0
    5.5692    1.4992   -0.3535 C   0  0  0  0  0  0  0  0  0  0  0  0
    3.5081    1.9263   -1.6729 N   0  0  0  0  0  0  0  0  0  0  0  0
    2.2031    1.5280   -1.7766 C   0  0  0  0  0  0  0  0  0  0  0  0
    1.2936    2.0937   -2.8104 C   0  0  0  0  0  0  0  0  0  0  0  0
    1.9644    0.5861   -0.7851 C   0  0  0  0  0  0  0  0  0  0  0  0
    0.6685   -0.0710   -0.5911 C   0  0  0  0  0  0  0  0  0  0  0  0
    0.1733   -0.7557   -1.4898 O   0  0  0  0  0  0  0  0  0  0  0  0
   -0.0676    0.1750    0.7306 C   0  0  0  0  0  0  0  0  0  0  0  0
   -1.4840   -0.0034    0.6141 O   0  0  0  0  0  0  0  0  0  0  0  0
   -2.1116    0.9667   -0.0908 C   0  0  0  0  0  0  0  0  0  0  0  0
   -1.5949    1.9897   -0.5149 O   0  0  0  0  0  0  0  0  0  0  0  0
   -3.5418    0.6570   -0.3029 C   0  0  0  0  0  0  0  0  0  0  0  0
   -4.1610   -0.4222    0.2032 C   0  0  0  0  0  0  0  0  0  0  0  0
   -5.5819   -0.7026   -0.0211 C   0  0  0  0  0  0  0  0  0  0  0  0
   -6.1490   -0.6650   -1.3056 C   0  0  0  0  0  0  0  0  0  0  0  0
   -7.5048   -0.9601   -1.4908 C   0  0  0  0  0  0  0  0  0  0  0  0
   -8.2929   -1.3012   -0.3935 C   0  0  0  0  0  0  0  0  0  0  0  0
   -9.9624   -1.6585   -0.6205 Cl  0  0  0  0  0  0  0  0  0  0  0  0
   -7.7393   -1.3547    0.8876 C   0  0  0  0  0  0  0  0  0  0  0  0
   -6.3842   -1.0626    1.0717 C   0  0  0  0  0  0  0  0  0  0  0  0
    7.0203   -1.9497    1.7140 H   0  0  0  0  0  0  0  0  0  0  0  0
    6.7380   -2.4551    3.3960 H   0  0  0  0  0  0  0  0  0  0  0  0
    6.8805   -0.7297    2.9725 H   0  0  0  0  0  0  0  0  0  0  0  0
    4.6471   -2.6224    2.0610 H   0  0  0  0  0  0  0  0  0  0  0  0
    4.4774   -1.3628    3.3234 H   0  0  0  0  0  0  0  0  0  0  0  0
    5.6974    1.7983    0.6925 H   0  0  0  0  0  0  0  0  0  0  0  0
    6.1597    0.5958   -0.5371 H   0  0  0  0  0  0  0  0  0  0  0  0
    5.9791    2.2995   -0.9822 H   0  0  0  0  0  0  0  0  0  0  0  0
    3.9519    2.6121   -2.2719 H   0  0  0  0  0  0  0  0  0  0  0  0
    0.4676    2.6348   -2.3352 H   0  0  0  0  0  0  0  0  0  0  0  0
    0.8744    1.2954   -3.4346 H   0  0  0  0  0  0  0  0  0  0  0  0
    1.8199    2.7945   -3.4684 H   0  0  0  0  0  0  0  0  0  0  0  0
    0.2689   -0.5601    1.4662 H   0  0  0  0  0  0  0  0  0  0  0  0
    0.1579    1.1757    1.1222 H   0  0  0  0  0  0  0  0  0  0  0  0
   -4.0668    1.3920   -0.9052 H   0  0  0  0  0  0  0  0  0  0  0  0
   -3.6318   -1.1399    0.8280 H   0  0  0  0  0  0  0  0  0  0  0  0
   -5.5408   -0.4187   -2.1748 H   0  0  0  0  0  0  0  0  0  0  0  0
   -7.9334   -0.9274   -2.4920 H   0  0  0  0  0  0  0  0  0  0  0  0
   -8.3524   -1.6225    1.7440 H   0  0  0  0  0  0  0  0  0  0  0  0
   -5.9638   -1.1081    2.0768 H   0  0  0  0  0  0  0  0  0  0  0  0
  1  2  1  0
  2  3  1  0
  3  4  1  0
  4  5  2  0
  4  6  1  0
  6  7  2  0
  7  8  1  0
  7  9  1  0
  9 10  1  0
 10 11  1  0
 10 12  2  0
 12 13  1  0
 13 14  2  0
 13 15  1  0
 15 16  1  0
 16 17  1  0
 17 18  2  0
 17 19  1  0
 19 20  2  3
 20 21  1  0
 21 22  2  0
 22 23  1  0
 23 24  2  0
 24 25  1  0
 24 26  1  0
 26 27  2  0
 12  6  1  0
 27 21  1  0
  1 28  1  0
  1 29  1  0
  1 30  1  0
  2 31  1  0
  2 32  1  0
  8 33  1  0
  8 34  1  0
  8 35  1  0
  9 36  1  0
 11 37  1  0
 11 38  1  0
 11 39  1  0
 15 40  1  0
 15 41  1  0
 19 42  1  0
 20 43  1  0
 22 44  1  0
 23 45  1  0
 26 46  1  0
 27 47  1  0
M  END
$$$$
