
     RDKit          3D

 46 48  0  0  0  0  0  0  0  0999 V2000
    7.9484   -1.3304   -0.7231 C   0  0  0  0  0  0  0  0  0  0  0  0
    7.6056   -0.3821    0.2803 O   0  0  0  0  0  0  0  0  0  0  0  0
    6.1961   -0.2688    0.4804 C   0  0  0  0  0  0  0  0  0  0  0  0
    5.5577    0.6859   -0.5347 C   0  0  0  0  0  0  0  0  0  0  0  0
    4.1193    0.8407   -0.3179 N   0  0  0  0  0  0  0  0  0  0  0  0
    3.2722   -0.1224   -0.8379 C   0  0  0  0  0  0  0  0  0  0  0  0
    3.6172   -1.1113   -1.4707 O   0  0  0  0  0  0  0  0  0  0  0  0
    1.8618    0.1928   -0.4968 C   0  0  0  0  0  0  0  0  0  0  0  0
    0.8478   -0.5831   -0.9009 C   0  0  0  0  0  0  0  0  0  0  0  0
   -0.5686   -0.3514   -0.5954 C   0  0  0  0  0  0  0  0  0  0  0  0
   -1.2759    0.5944   -1.3401 C   0  0  0  0  0  0  0  0  0  0  0  0
   -2.6282    0.8440   -1.0754 C   0  0  0  0  0  0  0  0  0  0  0  0
   -3.3267    0.1673   -0.0670 C   0  0  0  0  0  0  0  0  0  0  0  0
   -4.6543    0.4166    0.1892 N   0  0  0  0  0  0  0  0  0  0  0  0
   -5.4201    1.4992   -0.4247 C   0  0  0  0  0  0  0  0  0  0  0  0
   -6.6975    1.5662    0.4088 C   0  0  0  0  0  0  0  0  0  0  0  0
   -6.8924    0.1280    0.8545 C   0  0  0  0  0  0  0  0  0  0  0  0
   -5.4672   -0.3392    1.1388 C   0  0  0  0  0  0  0  0  0  0  0  0
   -2.5935   -0.7821    0.6650 C   0  0  0  0  0  0  0  0  0  0  0  0
   -1.2316   -1.0562    0.4190 C   0  0  0  0  0  0  0  0  0  0  0  0
   -0.5243   -2.0818    1.2624 C   0  0  0  0  0  0  0  0  0  0  0  0
    1.7891    1.6165    0.4596 S   0  0  0  0  0  0  0  0  0  0  0  0
    3.5351    1.8341    0.4393 C   0  0  0  0  0  0  0  0  0  0  0  0
    4.2817    3.0858    1.2490 S   0  0  0  0  0  0  0  0  0  0  0  0
    9.0387   -1.3730   -0.7938 H   0  0  0  0  0  0  0  0  0  0  0  0
    7.5797   -2.3246   -0.4530 H   0  0  0  0  0  0  0  0  0  0  0  0
    7.5514   -1.0322   -1.6970 H   0  0  0  0  0  0  0  0  0  0  0  0
    5.7240   -1.2585    0.4625 H   0  0  0  0  0  0  0  0  0  0  0  0
    6.0507    0.1284    1.4910 H   0  0  0  0  0  0  0  0  0  0  0  0
    5.7154    0.3074   -1.5512 H   0  0  0  0  0  0  0  0  0  0  0  0
    6.0612    1.6575   -0.4981 H   0  0  0  0  0  0  0  0  0  0  0  0
    1.0427   -1.4739   -1.4954 H   0  0  0  0  0  0  0  0  0  0  0  0
   -0.7869    1.1506   -2.1364 H   0  0  0  0  0  0  0  0  0  0  0  0
   -3.1295    1.5850   -1.6913 H   0  0  0  0  0  0  0  0  0  0  0  0
   -4.8974    2.4611   -0.3889 H   0  0  0  0  0  0  0  0  0  0  0  0
   -5.6536    1.2505   -1.4663 H   0  0  0  0  0  0  0  0  0  0  0  0
   -7.5473    1.9566   -0.1579 H   0  0  0  0  0  0  0  0  0  0  0  0
   -6.5427    2.2101    1.2831 H   0  0  0  0  0  0  0  0  0  0  0  0
   -7.3256   -0.4609    0.0369 H   0  0  0  0  0  0  0  0  0  0  0  0
   -7.5452    0.0360    1.7269 H   0  0  0  0  0  0  0  0  0  0  0  0
   -5.3894   -1.4220    0.9937 H   0  0  0  0  0  0  0  0  0  0  0  0
   -5.1789   -0.0876    2.1659 H   0  0  0  0  0  0  0  0  0  0  0  0
   -3.0839   -1.3293    1.4661 H   0  0  0  0  0  0  0  0  0  0  0  0
    0.2636   -1.6071    1.8559 H   0  0  0  0  0  0  0  0  0  0  0  0
   -0.0870   -2.8616    0.6305 H   0  0  0  0  0  0  0  0  0  0  0  0
   -1.2117   -2.5750    1.9580 H   0  0  0  0  0  0  0  0  0  0  0  0
  1  2  1  0
  2  3  1  0
  3  4  1  0
  4  5  1  0
  5  6  1  0
  6  7  2  0
  6  8  1  0
  8  9  2  3
  9 10  1  0
 10 11  2  0
 11 12  1  0
 12 13  2  0
 13 14  1  0
 14 15  1  0
 15 16  1  0
 16 17  1  0
 17 18  1  0
 13 19  1  0
 19 20  2  0
 20 21  1  0
  8 22  1  0
 22 23  1  0
 23 24  2  0
 23  5  1  0
 20 10  1  0
 18 14  1  0
  1 25  1  0
  1 26  1  0
  1 27  1  0
  3 28  1  0
  3 29  1  0
  4 30  1  0
  4 31  1  0
  9 32  1  0
 11 33  1  0
 12 34  1  0
 15 35  1  0
 15 36  1  0
 16 37  1  0
 16 38  1  0
 17 39  1  0
 17 40  1  0
 18 41  1  0
 18 42  1  0
 19 43  1  0
 21 44  1  0
 21 45  1  0
 21 46  1  0
M  END
$$$$
