
     RDKit          3D

 57 58  0  0  0  0  0  0  0  0999 V2000
    6.8268   -1.0269    2.9307 C   0  0  0  0  0  0  0  0  0  0  0  0
    7.3606   -1.6252    1.6369 C   0  0  0  0  0  0  0  0  0  0  0  0
    6.3980   -1.4652    0.4582 C   0  0  0  0  0  0  0  0  0  0  0  0
    5.1168   -2.2907    0.6025 C   0  0  0  0  0  0  0  0  0  0  0  0
    4.2854   -2.1384   -0.5517 O   0  0  0  0  0  0  0  0  0  0  0  0
    3.4485   -1.0588   -0.6183 C   0  0  0  0  0  0  0  0  0  0  0  0
    3.2656   -0.0876    0.3636 C   0  0  0  0  0  0  0  0  0  0  0  0
    2.3626    0.9639    0.1593 C   0  0  0  0  0  0  0  0  0  0  0  0
    1.6386    1.0753   -1.0371 C   0  0  0  0  0  0  0  0  0  0  0  0
    0.6205    2.1822   -1.2715 C   0  0  0  0  0  0  0  0  0  0  0  0
    1.1232    3.5477   -0.7852 C   0  0  0  0  0  0  0  0  0  0  0  0
   -0.6380    1.7844   -0.6493 N   0  0  0  0  0  0  0  0  0  0  0  0
   -1.7912    2.5121   -0.8337 C   0  0  0  0  0  0  0  0  0  0  0  0
   -1.8573    3.5713   -1.4512 O   0  0  0  0  0  0  0  0  0  0  0  0
   -3.0256    1.8867   -0.2195 C   0  0  0  0  0  0  0  0  0  0  0  0
   -3.8269    1.1456   -1.2707 C   0  0  0  0  0  0  0  0  0  0  0  0
   -3.2948   -0.5469   -1.4881 S   0  0  0  0  0  6  0  0  0  0  0  0
   -1.8411   -0.5409   -1.5254 O   0  0  0  0  0  0  0  0  0  0  0  0
   -4.0342   -1.0939   -2.6070 O   0  0  0  0  0  0  0  0  0  0  0  0
   -3.7671   -1.4507   -0.0119 C   0  0  0  0  0  0  0  0  0  0  0  0
   -5.1554   -1.0986    0.4523 C   0  0  0  0  0  0  0  0  0  0  0  0
   -5.3336   -0.4035    1.6599 C   0  0  0  0  0  0  0  0  0  0  0  0
   -6.6128   -0.0773    2.1100 C   0  0  0  0  0  0  0  0  0  0  0  0
   -7.7306   -0.4472    1.3632 C   0  0  0  0  0  0  0  0  0  0  0  0
   -7.5659   -1.1473    0.1706 C   0  0  0  0  0  0  0  0  0  0  0  0
   -8.9469   -1.6089   -0.7465 Cl  0  0  0  0  0  0  0  0  0  0  0  0
   -6.2900   -1.4778   -0.2839 C   0  0  0  0  0  0  0  0  0  0  0  0
    1.8218    0.0866   -2.0150 C   0  0  0  0  0  0  0  0  0  0  0  0
    2.7188   -0.9649   -1.8055 C   0  0  0  0  0  0  0  0  0  0  0  0
    6.5610    0.0259    2.7900 H   0  0  0  0  0  0  0  0  0  0  0  0
    7.5894   -1.0813    3.7113 H   0  0  0  0  0  0  0  0  0  0  0  0
    5.9459   -1.5612    3.2872 H   0  0  0  0  0  0  0  0  0  0  0  0
    8.3029   -1.1200    1.3871 H   0  0  0  0  0  0  0  0  0  0  0  0
    7.5987   -2.6859    1.7883 H   0  0  0  0  0  0  0  0  0  0  0  0
    6.9085   -1.7709   -0.4654 H   0  0  0  0  0  0  0  0  0  0  0  0
    6.1587   -0.4044    0.3179 H   0  0  0  0  0  0  0  0  0  0  0  0
    5.3873   -3.3525    0.6461 H   0  0  0  0  0  0  0  0  0  0  0  0
    4.5671   -2.0894    1.5280 H   0  0  0  0  0  0  0  0  0  0  0  0
    3.8025   -0.1125    1.3039 H   0  0  0  0  0  0  0  0  0  0  0  0
    2.2300    1.6920    0.9542 H   0  0  0  0  0  0  0  0  0  0  0  0
    0.4327    2.2705   -2.3499 H   0  0  0  0  0  0  0  0  0  0  0  0
    0.4668    4.3571   -1.1232 H   0  0  0  0  0  0  0  0  0  0  0  0
    1.1591    3.6062    0.3108 H   0  0  0  0  0  0  0  0  0  0  0  0
    2.1283    3.7591   -1.1751 H   0  0  0  0  0  0  0  0  0  0  0  0
   -0.7794    0.7732   -0.6508 H   0  0  0  0  0  0  0  0  0  0  0  0
   -3.6224    2.7115    0.1855 H   0  0  0  0  0  0  0  0  0  0  0  0
   -2.7490    1.2516    0.6275 H   0  0  0  0  0  0  0  0  0  0  0  0
   -3.7303    1.6203   -2.2531 H   0  0  0  0  0  0  0  0  0  0  0  0
   -4.8901    1.1330   -1.0262 H   0  0  0  0  0  0  0  0  0  0  0  0
   -3.6954   -2.5186   -0.2427 H   0  0  0  0  0  0  0  0  0  0  0  0
   -3.0209   -1.2238    0.7564 H   0  0  0  0  0  0  0  0  0  0  0  0
   -4.4775   -0.1154    2.2691 H   0  0  0  0  0  0  0  0  0  0  0  0
   -6.7406    0.4599    3.0487 H   0  0  0  0  0  0  0  0  0  0  0  0
   -8.7252   -0.1938    1.7188 H   0  0  0  0  0  0  0  0  0  0  0  0
   -6.1850   -2.0314   -1.2169 H   0  0  0  0  0  0  0  0  0  0  0  0
    1.2562    0.1182   -2.9455 H   0  0  0  0  0  0  0  0  0  0  0  0
    2.8455   -1.7224   -2.5769 H   0  0  0  0  0  0  0  0  0  0  0  0
  1  2  1  0
  2  3  1  0
  3  4  1  0
  4  5  1  0
  5  6  1  0
  6  7  2  0
  7  8  1  0
  8  9  2  0
  9 10  1  0
 10 11  1  0
 10 12  1  0
 12 13  1  0
 13 14  2  0
 13 15  1  0
 15 16  1  0
 16 17  1  0
 17 18  2  0
 17 19  2  0
 17 20  1  0
 20 21  1  0
 21 22  2  0
 22 23  1  0
 23 24  2  0
 24 25  1  0
 25 26  1  0
 25 27  2  0
  9 28  1  0
 28 29  2  0
 29  6  1  0
 27 21  1  0
  1 30  1  0
  1 31  1  0
  1 32  1  0
  2 33  1  0
  2 34  1  0
  3 35  1  0
  3 36  1  0
  4 37  1  0
  4 38  1  0
  7 39  1  0
  8 40  1  0
 10 41  1  0
 11 42  1  0
 11 43  1  0
 11 44  1  0
 12 45  1  0
 15 46  1  0
 15 47  1  0
 16 48  1  0
 16 49  1  0
 20 50  1  0
 20 51  1  0
 22 52  1  0
 23 53  1  0
 24 54  1  0
 27 55  1  0
 28 56  1  0
 29 57  1  0
M  END
$$$$
