
     RDKit          3D

 56 59  0  0  0  0  0  0  0  0999 V2000
   -4.2630    2.4844   -3.2228 C   0  0  0  0  0  0  0  0  0  0  0  0
   -2.9504    1.7370   -3.0674 C   0  0  0  0  0  0  0  0  0  0  0  0
   -2.9451    1.1159   -1.7750 O   0  0  0  0  0  0  0  0  0  0  0  0
   -1.9252    0.2365   -1.5689 C   0  0  0  0  0  0  0  0  0  0  0  0
   -1.0674   -0.0185   -2.4101 O   0  0  0  0  0  0  0  0  0  0  0  0
   -1.9491   -0.3840   -0.2389 C   0  0  0  0  0  0  0  0  0  0  0  0
   -0.9220   -1.2187    0.1953 C   0  0  0  0  0  0  0  0  0  0  0  0
    0.2228   -1.5500   -0.5174 N   0  0  0  0  0  0  0  0  0  0  0  0
    1.2378   -2.4194   -0.1408 C   0  0  0  0  0  0  0  0  0  0  0  0
    1.3401   -3.0204    0.9260 O   0  0  0  0  0  0  0  0  0  0  0  0
    2.3173   -2.5507   -1.2189 C   0  0  0  0  0  0  0  0  0  0  0  0
    3.3943   -1.6008   -0.9728 N   0  0  0  0  0  0  0  0  0  0  0  0
    4.5371   -2.0991   -0.3958 N   0  0  0  0  0  0  0  0  0  0  0  0
    5.5189   -1.2836   -0.1489 C   0  0  0  0  0  0  0  0  0  0  0  0
    6.7512   -1.8786    0.5056 C   0  0  0  0  0  0  0  0  0  0  0  0
    7.7433   -2.2330   -0.0952 O   0  0  0  0  0  0  0  0  0  0  0  0
    6.6234   -1.9444    1.8336 O   0  0  0  0  0  0  0  0  0  0  0  0
    5.4973    0.1474   -0.4693 C   0  0  0  0  0  0  0  0  0  0  0  0
    6.5716    1.0047   -0.2041 C   0  0  0  0  0  0  0  0  0  0  0  0
    6.4793    2.3565   -0.5434 C   0  0  0  0  0  0  0  0  0  0  0  0
    5.3218    2.8531   -1.1433 C   0  0  0  0  0  0  0  0  0  0  0  0
    4.2511    1.9978   -1.4063 C   0  0  0  0  0  0  0  0  0  0  0  0
    4.3437    0.6419   -1.0692 C   0  0  0  0  0  0  0  0  0  0  0  0
    3.2200   -0.2729   -1.3456 C   0  0  0  0  0  0  0  0  0  0  0  0
    2.1944    0.1529   -1.8707 O   0  0  0  0  0  0  0  0  0  0  0  0
   -1.1906   -1.8266    1.7542 S   0  0  0  0  0  0  0  0  0  0  0  0
   -2.6499   -0.9832    1.9155 C   0  0  0  0  0  0  0  0  0  0  0  0
   -2.9768   -0.2653    0.7812 C   0  0  0  0  0  0  0  0  0  0  0  0
   -4.2483    0.5355    0.7138 C   0  0  0  0  0  0  0  0  0  0  0  0
   -5.2313    0.1816    1.8407 C   0  0  0  0  0  0  0  0  0  0  0  0
   -4.5233    0.0507    3.2038 C   0  0  0  0  0  0  0  0  0  0  0  0
   -5.5341   -0.1953    4.3207 C   0  0  0  0  0  0  0  0  0  0  0  0
   -3.4762   -1.0794    3.1630 C   0  0  0  0  0  0  0  0  0  0  0  0
   -5.1085    1.7954   -3.1208 H   0  0  0  0  0  0  0  0  0  0  0  0
   -4.3723    3.2427   -2.4422 H   0  0  0  0  0  0  0  0  0  0  0  0
   -4.3219    2.9717   -4.1991 H   0  0  0  0  0  0  0  0  0  0  0  0
   -2.8664    0.9799   -3.8568 H   0  0  0  0  0  0  0  0  0  0  0  0
   -2.1086    2.4376   -3.1325 H   0  0  0  0  0  0  0  0  0  0  0  0
    0.3422   -1.0473   -1.4012 H   0  0  0  0  0  0  0  0  0  0  0  0
    2.7089   -3.5737   -1.2058 H   0  0  0  0  0  0  0  0  0  0  0  0
    1.8907   -2.3737   -2.2119 H   0  0  0  0  0  0  0  0  0  0  0  0
    7.4297   -2.4057    2.1400 H   0  0  0  0  0  0  0  0  0  0  0  0
    7.4873    0.6485    0.2595 H   0  0  0  0  0  0  0  0  0  0  0  0
    7.3133    3.0256   -0.3395 H   0  0  0  0  0  0  0  0  0  0  0  0
    5.2552    3.9069   -1.4071 H   0  0  0  0  0  0  0  0  0  0  0  0
    3.3489    2.3884   -1.8739 H   0  0  0  0  0  0  0  0  0  0  0  0
   -3.9945    1.6023    0.7771 H   0  0  0  0  0  0  0  0  0  0  0  0
   -4.7540    0.3735   -0.2431 H   0  0  0  0  0  0  0  0  0  0  0  0
   -6.0132    0.9524    1.8877 H   0  0  0  0  0  0  0  0  0  0  0  0
   -5.7360   -0.7632    1.6001 H   0  0  0  0  0  0  0  0  0  0  0  0
   -4.0125    0.9997    3.4119 H   0  0  0  0  0  0  0  0  0  0  0  0
   -5.0297   -0.2745    5.2913 H   0  0  0  0  0  0  0  0  0  0  0  0
   -6.1048   -1.1164    4.1496 H   0  0  0  0  0  0  0  0  0  0  0  0
   -6.2482    0.6325    4.3835 H   0  0  0  0  0  0  0  0  0  0  0  0
   -2.8414   -1.0201    4.0562 H   0  0  0  0  0  0  0  0  0  0  0  0
   -3.9773   -2.0545    3.1772 H   0  0  0  0  0  0  0  0  0  0  0  0
  1  2  1  0
  2  3  1  0
  3  4  1  0
  4  5  2  0
  4  6  1  0
  6  7  2  0
  7  8  1  0
  8  9  1  0
  9 10  2  0
  9 11  1  0
 11 12  1  0
 12 13  1  0
 13 14  2  0
 14 15  1  0
 15 16  2  0
 15 17  1  0
 14 18  1  0
 18 19  2  0
 19 20  1  0
 20 21  2  0
 21 22  1  0
 22 23  2  0
 23 24  1  0
 24 25  2  0
  7 26  1  0
 26 27  1  0
 27 28  2  0
 28 29  1  0
 29 30  1  0
 30 31  1  0
 31 32  1  0
 31 33  1  0
 28  6  1  0
 24 12  1  0
 33 27  1  0
 23 18  1  0
  1 34  1  0
  1 35  1  0
  1 36  1  0
  2 37  1  0
  2 38  1  0
  8 39  1  0
 11 40  1  0
 11 41  1  0
 17 42  1  0
 19 43  1  0
 20 44  1  0
 21 45  1  0
 22 46  1  0
 29 47  1  0
 29 48  1  0
 30 49  1  0
 30 50  1  0
 31 51  1  0
 32 52  1  0
 32 53  1  0
 32 54  1  0
 33 55  1  0
 33 56  1  0
M  END
$$$$
