
     RDKit          3D

 80 85  0  0  0  0  0  0  0  0999 V2000
    5.4894   -2.1381    1.5263 C   0  0  0  0  0  0  0  0  0  0  0  0
    5.5364   -0.6538    1.1370 C   0  0  0  0  0  0  0  0  0  0  0  0
    6.0222   -0.4810   -0.3147 C   0  0  0  0  0  0  0  0  0  0  0  0
    4.9623   -0.7960   -1.3785 C   0  0  0  0  0  0  0  0  0  0  0  0
    3.6164   -0.0473   -1.1669 C   0  0  0  0  0  0  0  0  0  0  0  0
    3.7491    1.4575   -1.4257 C   0  0  0  0  0  0  0  0  0  0  0  0
    2.9999    2.3405   -1.0391 O   0  0  0  0  0  0  0  0  0  0  0  0
    4.7689    1.7888   -2.2422 O   0  0  0  0  0  0  0  0  0  0  0  0
    2.5777   -0.5262   -2.2241 C   0  0  0  0  0  0  0  0  0  0  0  0
    1.5305   -1.5085   -1.6904 C   0  0  0  0  0  0  0  0  0  0  0  0
    0.7563   -1.0587   -0.4007 C   0  0  0  0  0  0  0  0  0  0  0  0
    0.5735   -2.3659    0.4391 C   0  0  0  0  0  0  0  0  0  0  0  0
    1.6464   -0.1216    0.4537 C   0  0  0  0  0  0  0  0  0  0  0  0
    1.1016    0.8070    1.2588 C   0  0  0  0  0  0  0  0  0  0  0  0
   -0.3585    1.1374    1.3527 C   0  0  0  0  0  0  0  0  0  0  0  0
   -1.2963    0.1495    0.6342 C   0  0  0  0  0  0  0  0  0  0  0  0
   -2.8051    0.5943    0.6220 C   0  0  0  0  0  0  0  0  0  0  0  0
   -3.1002    2.0069    0.0503 C   0  0  0  0  0  0  0  0  0  0  0  0
   -4.5391    2.4171    0.3763 C   0  0  0  0  0  0  0  0  0  0  0  0
   -5.3159    1.1888    0.8612 C   0  0  0  0  0  0  0  0  0  0  0  0
   -6.6705    1.5435    1.0599 O   0  0  0  0  0  0  0  0  0  0  0  0
   -4.7774    0.8069    2.1279 O   0  0  0  0  0  0  0  0  0  0  0  0
   -3.3566    0.6154    2.0825 C   0  0  0  0  0  0  0  0  0  0  0  0
   -5.1898   -0.0122   -0.1299 C   0  0  0  0  0  0  0  0  0  0  0  0
   -6.0475   -1.2032    0.3668 C   0  0  0  0  0  0  0  0  0  0  0  0
   -5.7408    0.3703   -1.5217 C   0  0  0  0  0  0  0  0  0  0  0  0
   -3.6797   -0.4571   -0.1344 C   0  0  0  0  0  0  0  0  0  0  0  0
   -3.1008   -0.8252   -1.5056 C   0  0  0  0  0  0  0  0  0  0  0  0
   -1.6711   -1.3561   -1.3783 C   0  0  0  0  0  0  0  0  0  0  0  0
   -0.6733   -0.3574   -0.7227 C   0  0  0  0  0  0  0  0  0  0  0  0
   -0.4520    0.8106   -1.7197 C   0  0  0  0  0  0  0  0  0  0  0  0
    3.1476   -0.3623    0.2855 C   0  0  0  0  0  0  0  0  0  0  0  0
    4.1754    0.0684    1.3842 C   0  0  0  0  0  0  0  0  0  0  0  0
    4.4602    1.5708    1.5476 C   0  0  0  0  0  0  0  0  0  0  0  0
    6.4927   -2.5754    1.4725 H   0  0  0  0  0  0  0  0  0  0  0  0
    5.1341   -2.2571    2.5552 H   0  0  0  0  0  0  0  0  0  0  0  0
    4.8425   -2.7299    0.8734 H   0  0  0  0  0  0  0  0  0  0  0  0
    6.2923   -0.2020    1.7944 H   0  0  0  0  0  0  0  0  0  0  0  0
    6.3727    0.5480   -0.4550 H   0  0  0  0  0  0  0  0  0  0  0  0
    6.9004   -1.1154   -0.4892 H   0  0  0  0  0  0  0  0  0  0  0  0
    4.7757   -1.8782   -1.3751 H   0  0  0  0  0  0  0  0  0  0  0  0
    5.3830   -0.5771   -2.3679 H   0  0  0  0  0  0  0  0  0  0  0  0
    4.6813    2.7608   -2.3370 H   0  0  0  0  0  0  0  0  0  0  0  0
    3.0953   -1.0009   -3.0686 H   0  0  0  0  0  0  0  0  0  0  0  0
    2.0603    0.3289   -2.6720 H   0  0  0  0  0  0  0  0  0  0  0  0
    2.0636   -2.4499   -1.4944 H   0  0  0  0  0  0  0  0  0  0  0  0
    0.8341   -1.7560   -2.4977 H   0  0  0  0  0  0  0  0  0  0  0  0
    1.5380   -2.8126    0.7097 H   0  0  0  0  0  0  0  0  0  0  0  0
    0.0383   -3.1381   -0.1218 H   0  0  0  0  0  0  0  0  0  0  0  0
    0.0508   -2.2039    1.3849 H   0  0  0  0  0  0  0  0  0  0  0  0
    1.7253    1.4404    1.8759 H   0  0  0  0  0  0  0  0  0  0  0  0
   -0.6233    1.1843    2.4152 H   0  0  0  0  0  0  0  0  0  0  0  0
   -0.4762    2.1489    0.9523 H   0  0  0  0  0  0  0  0  0  0  0  0
   -1.3178   -0.7358    1.2825 H   0  0  0  0  0  0  0  0  0  0  0  0
   -2.4268    2.7667    0.4567 H   0  0  0  0  0  0  0  0  0  0  0  0
   -2.9878    2.0368   -1.0339 H   0  0  0  0  0  0  0  0  0  0  0  0
   -5.0178    2.8969   -0.4847 H   0  0  0  0  0  0  0  0  0  0  0  0
   -4.5262    3.1781    1.1682 H   0  0  0  0  0  0  0  0  0  0  0  0
   -6.6517    2.1726    1.7997 H   0  0  0  0  0  0  0  0  0  0  0  0
   -2.9015    1.4217    2.6684 H   0  0  0  0  0  0  0  0  0  0  0  0
   -3.1443   -0.3239    2.6055 H   0  0  0  0  0  0  0  0  0  0  0  0
   -7.1140   -0.9527    0.3793 H   0  0  0  0  0  0  0  0  0  0  0  0
   -5.9213   -2.0740   -0.2869 H   0  0  0  0  0  0  0  0  0  0  0  0
   -5.7682   -1.5087    1.3809 H   0  0  0  0  0  0  0  0  0  0  0  0
   -6.7697    0.7413   -1.4511 H   0  0  0  0  0  0  0  0  0  0  0  0
   -5.7615   -0.4927   -2.1963 H   0  0  0  0  0  0  0  0  0  0  0  0
   -5.1459    1.1509   -2.0045 H   0  0  0  0  0  0  0  0  0  0  0  0
   -3.6133   -1.3822    0.4602 H   0  0  0  0  0  0  0  0  0  0  0  0
   -3.1234    0.0222   -2.1966 H   0  0  0  0  0  0  0  0  0  0  0  0
   -3.7136   -1.6145   -1.9581 H   0  0  0  0  0  0  0  0  0  0  0  0
   -1.3259   -1.6497   -2.3756 H   0  0  0  0  0  0  0  0  0  0  0  0
   -1.7323   -2.2778   -0.7914 H   0  0  0  0  0  0  0  0  0  0  0  0
    0.2949    1.5283   -1.3709 H   0  0  0  0  0  0  0  0  0  0  0  0
   -0.1275    0.4370   -2.6960 H   0  0  0  0  0  0  0  0  0  0  0  0
   -1.3569    1.3761   -1.9246 H   0  0  0  0  0  0  0  0  0  0  0  0
    3.1939   -1.4563    0.3680 H   0  0  0  0  0  0  0  0  0  0  0  0
    3.7790   -0.2726    2.3510 H   0  0  0  0  0  0  0  0  0  0  0  0
    3.5622    2.1834    1.6051 H   0  0  0  0  0  0  0  0  0  0  0  0
    5.0833    1.9738    0.7460 H   0  0  0  0  0  0  0  0  0  0  0  0
    5.0141    1.7373    2.4792 H   0  0  0  0  0  0  0  0  0  0  0  0
  1  2  1  0
  2  3  1  0
  3  4  1  0
  4  5  1  0
  5  6  1  0
  6  7  2  0
  6  8  1  0
  5  9  1  0
  9 10  1  0
 10 11  1  0
 11 12  1  0
 11 13  1  0
 13 14  2  0
 14 15  1  0
 15 16  1  0
 16 17  1  0
 17 18  1  0
 18 19  1  0
 19 20  1  0
 20 21  1  0
 20 22  1  0
 22 23  1  0
 20 24  1  0
 24 25  1  0
 24 26  1  0
 24 27  1  0
 27 28  1  0
 28 29  1  0
 29 30  1  0
 30 31  1  0
 13 32  1  0
 32 33  1  0
 33 34  1  0
 33  2  1  0
 32  5  1  0
 30 11  1  0
 30 16  1  0
 23 17  1  0
 27 17  1  0
  1 35  1  0
  1 36  1  0
  1 37  1  0
  2 38  1  0
  3 39  1  0
  3 40  1  0
  4 41  1  0
  4 42  1  0
  8 43  1  0
  9 44  1  0
  9 45  1  0
 10 46  1  0
 10 47  1  0
 12 48  1  0
 12 49  1  0
 12 50  1  0
 14 51  1  0
 15 52  1  0
 15 53  1  0
 16 54  1  0
 18 55  1  0
 18 56  1  0
 19 57  1  0
 19 58  1  0
 21 59  1  0
 23 60  1  0
 23 61  1  0
 25 62  1  0
 25 63  1  0
 25 64  1  0
 26 65  1  0
 26 66  1  0
 26 67  1  0
 27 68  1  0
 28 69  1  0
 28 70  1  0
 29 71  1  0
 29 72  1  0
 31 73  1  0
 31 74  1  0
 31 75  1  0
 32 76  1  0
 33 77  1  0
 34 78  1  0
 34 79  1  0
 34 80  1  0
M  END
$$$$
