
     RDKit          3D

 39 40  0  0  0  0  0  0  0  0999 V2000
   -6.4388    0.2466    1.9313 N   0  0  0  0  0  0  0  0  0  0  0  0
   -4.8679    0.2454    2.5364 S   0  0  0  0  0  6  0  0  0  0  0  0
   -4.7054   -0.9257    3.3635 O   0  0  0  0  0  0  0  0  0  0  0  0
   -4.6376    1.5844    3.0284 O   0  0  0  0  0  0  0  0  0  0  0  0
   -3.9169    0.0207    1.0569 C   0  0  0  0  0  0  0  0  0  0  0  0
   -3.7057   -1.2716    0.5703 C   0  0  0  0  0  0  0  0  0  0  0  0
   -2.9501   -1.4547   -0.5885 C   0  0  0  0  0  0  0  0  0  0  0  0
   -2.3954   -0.3531   -1.2574 C   0  0  0  0  0  0  0  0  0  0  0  0
   -1.5582   -0.5532   -2.5016 C   0  0  0  0  0  0  0  0  0  0  0  0
   -0.1981   -1.1983   -2.2231 C   0  0  0  0  0  0  0  0  0  0  0  0
    0.6421   -0.3823   -1.3605 N   0  0  0  0  0  0  0  0  0  0  0  0
    1.9864   -0.6891   -1.2471 C   0  0  0  0  0  0  0  0  0  0  0  0
    2.5206   -1.5679   -1.9087 O   0  0  0  0  0  0  0  0  0  0  0  0
    2.5917    0.1374   -0.3251 N   0  0  0  0  0  0  0  0  0  0  0  0
    3.9276    0.0948    0.1200 C   0  0  0  0  0  0  0  0  0  0  0  0
    4.8236   -0.9237   -0.2102 C   0  0  0  0  0  0  0  0  0  0  0  0
    6.1359   -0.9020    0.2764 C   0  0  0  0  0  0  0  0  0  0  0  0
    6.5648    0.1377    1.1023 C   0  0  0  0  0  0  0  0  0  0  0  0
    8.1964    0.1017    1.6663 Cl  0  0  0  0  0  0  0  0  0  0  0  0
    5.6730    1.1577    1.4430 C   0  0  0  0  0  0  0  0  0  0  0  0
    6.1230    2.4791    2.4628 Cl  0  0  0  0  0  0  0  0  0  0  0  0
    4.3604    1.1328    0.9545 C   0  0  0  0  0  0  0  0  0  0  0  0
   -2.6100    0.9376   -0.7497 C   0  0  0  0  0  0  0  0  0  0  0  0
   -3.3659    1.1274    0.4081 C   0  0  0  0  0  0  0  0  0  0  0  0
   -6.8577    1.1631    2.0988 H   0  0  0  0  0  0  0  0  0  0  0  0
   -6.4951   -0.0253    0.9507 H   0  0  0  0  0  0  0  0  0  0  0  0
   -4.1195   -2.1352    1.0885 H   0  0  0  0  0  0  0  0  0  0  0  0
   -2.7917   -2.4646   -0.9634 H   0  0  0  0  0  0  0  0  0  0  0  0
   -1.4082    0.4102   -3.0053 H   0  0  0  0  0  0  0  0  0  0  0  0
   -2.1230   -1.1799   -3.2030 H   0  0  0  0  0  0  0  0  0  0  0  0
   -0.3104   -2.1771   -1.7424 H   0  0  0  0  0  0  0  0  0  0  0  0
    0.3275   -1.3572   -3.1719 H   0  0  0  0  0  0  0  0  0  0  0  0
    0.2147   -0.1123   -0.4851 H   0  0  0  0  0  0  0  0  0  0  0  0
    2.0412    0.9363   -0.0466 H   0  0  0  0  0  0  0  0  0  0  0  0
    4.5318   -1.7569   -0.8438 H   0  0  0  0  0  0  0  0  0  0  0  0
    6.8157   -1.7059    0.0032 H   0  0  0  0  0  0  0  0  0  0  0  0
    3.6801    1.9345    1.2309 H   0  0  0  0  0  0  0  0  0  0  0  0
   -2.1847    1.8046   -1.2529 H   0  0  0  0  0  0  0  0  0  0  0  0
   -3.5159    2.1336    0.7943 H   0  0  0  0  0  0  0  0  0  0  0  0
  1  2  1  0
  2  3  2  0
  2  4  2  0
  2  5  1  0
  5  6  2  0
  6  7  1  0
  7  8  2  0
  8  9  1  0
  9 10  1  0
 10 11  1  0
 11 12  1  0
 12 13  2  0
 12 14  1  0
 14 15  1  0
 15 16  2  0
 16 17  1  0
 17 18  2  0
 18 19  1  0
 18 20  1  0
 20 21  1  0
 20 22  2  0
  8 23  1  0
 23 24  2  0
 24  5  1  0
 22 15  1  0
  1 25  1  0
  1 26  1  0
  6 27  1  0
  7 28  1  0
  9 29  1  0
  9 30  1  0
 10 31  1  0
 10 32  1  0
 11 33  1  0
 14 34  1  0
 16 35  1  0
 17 36  1  0
 22 37  1  0
 23 38  1  0
 24 39  1  0
M  END
$$$$
