
     RDKit          3D

 48 53  0  0  0  0  0  0  0  0999 V2000
    2.7836   -1.8969   -0.2867 O   0  0  0  0  0  0  0  0  0  0  0  0
    3.1661   -0.9119    0.3357 C   0  0  0  0  0  0  0  0  0  0  0  0
    2.3542    0.0536    0.8867 N   0  0  0  0  0  0  0  0  0  0  0  0
    1.0464    0.0411    0.5377 N   0  0  0  0  0  0  0  0  0  0  0  0
    0.0613   -0.5931    1.2646 C   0  0  0  0  0  0  0  0  0  0  0  0
    0.3363   -1.3087    2.3517 O   0  0  0  0  0  0  0  0  0  0  0  0
   -1.1182   -0.3070    0.6162 C   0  0  0  0  0  0  0  0  0  0  0  0
   -0.8150    0.5813   -0.4939 C   0  0  0  0  0  0  0  0  0  0  0  0
    0.5411    0.8104   -0.4902 C   0  0  0  0  0  0  0  0  0  0  0  0
    1.3282    1.5749   -1.2433 O   0  0  0  0  0  0  0  0  0  0  0  0
   -2.0097    1.0361   -1.3044 C   0  0  0  0  0  0  0  0  0  0  0  0
   -2.8944    1.6439   -0.2028 C   0  0  0  0  0  0  0  0  0  0  0  0
   -3.3981    2.9394   -0.2218 C   0  0  0  0  0  0  0  0  0  0  0  0
   -4.1946    3.3652    0.8438 C   0  0  0  0  0  0  0  0  0  0  0  0
   -4.4867    2.5073    1.9161 C   0  0  0  0  0  0  0  0  0  0  0  0
   -3.9899    1.2022    1.9493 C   0  0  0  0  0  0  0  0  0  0  0  0
   -3.1945    0.7637    0.8970 C   0  0  0  0  0  0  0  0  0  0  0  0
   -2.5827   -0.6441    0.7947 C   0  0  0  0  0  0  0  0  0  0  0  0
   -2.9293   -1.1947   -0.5984 C   0  0  0  0  0  0  0  0  0  0  0  0
   -3.4956   -2.4423   -0.8334 C   0  0  0  0  0  0  0  0  0  0  0  0
   -3.7641   -2.8200   -2.1510 C   0  0  0  0  0  0  0  0  0  0  0  0
   -3.4722   -1.9617   -3.2228 C   0  0  0  0  0  0  0  0  0  0  0  0
   -2.9044   -0.7045   -3.0035 C   0  0  0  0  0  0  0  0  0  0  0  0
   -2.6294   -0.3145   -1.6978 C   0  0  0  0  0  0  0  0  0  0  0  0
    4.6298   -0.6834    0.5055 C   0  0  0  0  0  0  0  0  0  0  0  0
    5.1467    0.0332    1.5944 C   0  0  0  0  0  0  0  0  0  0  0  0
    6.5272    0.2210    1.7161 C   0  0  0  0  0  0  0  0  0  0  0  0
    7.3888   -0.3114    0.7571 C   0  0  0  0  0  0  0  0  0  0  0  0
    9.0861   -0.0770    0.9112 Cl  0  0  0  0  0  0  0  0  0  0  0  0
    6.8850   -1.0373   -0.3206 C   0  0  0  0  0  0  0  0  0  0  0  0
    5.5061   -1.2273   -0.4439 C   0  0  0  0  0  0  0  0  0  0  0  0
    2.7080    0.9880    1.0222 H   0  0  0  0  0  0  0  0  0  0  0  0
   -0.4828   -1.7553    2.6219 H   0  0  0  0  0  0  0  0  0  0  0  0
    0.7760    1.9436   -1.9539 H   0  0  0  0  0  0  0  0  0  0  0  0
   -1.7760    1.7029   -2.1362 H   0  0  0  0  0  0  0  0  0  0  0  0
   -3.1824    3.6134   -1.0448 H   0  0  0  0  0  0  0  0  0  0  0  0
   -4.5963    4.3760    0.8443 H   0  0  0  0  0  0  0  0  0  0  0  0
   -5.1102    2.8657    2.7322 H   0  0  0  0  0  0  0  0  0  0  0  0
   -4.2251    0.5498    2.7843 H   0  0  0  0  0  0  0  0  0  0  0  0
   -2.8047   -1.3113    1.6293 H   0  0  0  0  0  0  0  0  0  0  0  0
   -3.7245   -3.1178   -0.0152 H   0  0  0  0  0  0  0  0  0  0  0  0
   -4.2030   -3.7948   -2.3517 H   0  0  0  0  0  0  0  0  0  0  0  0
   -3.6897   -2.2836   -4.2388 H   0  0  0  0  0  0  0  0  0  0  0  0
   -2.6828   -0.0529   -3.8426 H   0  0  0  0  0  0  0  0  0  0  0  0
    4.4930    0.4258    2.3689 H   0  0  0  0  0  0  0  0  0  0  0  0
    6.9238    0.7735    2.5642 H   0  0  0  0  0  0  0  0  0  0  0  0
    7.5551   -1.4606   -1.0643 H   0  0  0  0  0  0  0  0  0  0  0  0
    5.1137   -1.7997   -1.2830 H   0  0  0  0  0  0  0  0  0  0  0  0
  1  2  2  0
  2  3  1  0
  3  4  1  0
  4  5  1  0
  5  6  1  0
  5  7  2  0
  7  8  1  0
  8  9  2  0
  9 10  1  0
  8 11  1  0
 11 12  1  0
 12 13  2  0
 13 14  1  0
 14 15  2  0
 15 16  1  0
 16 17  2  0
 17 18  1  0
 18 19  1  0
 19 20  2  0
 20 21  1  0
 21 22  2  0
 22 23  1  0
 23 24  2  0
  2 25  1  0
 25 26  2  0
 26 27  1  0
 27 28  2  0
 28 29  1  0
 28 30  1  0
 30 31  2  0
  9  4  1  0
 24 11  1  0
 31 25  1  0
 18  7  1  0
 24 19  1  0
 17 12  1  0
  3 32  1  0
  6 33  1  0
 10 34  1  0
 11 35  1  0
 13 36  1  0
 14 37  1  0
 15 38  1  0
 16 39  1  0
 18 40  1  0
 20 41  1  0
 21 42  1  0
 22 43  1  0
 23 44  1  0
 26 45  1  0
 27 46  1  0
 30 47  1  0
 31 48  1  0
M  END
$$$$
