
     RDKit          3D

 56 59  0  0  0  0  0  0  0  0999 V2000
   -2.9200    1.9417   -0.0112 C   0  0  0  0  0  0  0  0  0  0  0  0
   -2.0517    0.6799    0.0305 C   0  0  0  0  0  0  0  0  0  0  0  0
   -2.3239   -0.2109   -1.2036 C   0  0  0  0  0  0  0  0  0  0  0  0
   -1.4995   -0.2663   -2.1293 O   0  0  0  0  0  0  0  0  0  0  0  0
   -3.4995   -0.9371   -1.3127 N   0  0  0  0  0  0  0  0  0  0  0  0
   -3.7107   -1.7133   -2.5478 C   0  0  0  0  0  0  0  0  0  0  0  0
   -5.1196   -2.2940   -2.5064 C   0  0  0  0  0  0  0  0  0  0  0  0
   -5.5185   -2.0074   -1.0959 C   0  0  0  0  0  0  0  0  0  0  0  0
   -6.6896   -2.4358   -0.4822 C   0  0  0  0  0  0  0  0  0  0  0  0
   -6.9260   -2.0508    0.8327 C   0  0  0  0  0  0  0  0  0  0  0  0
   -5.9987   -1.2468    1.5025 C   0  0  0  0  0  0  0  0  0  0  0  0
   -4.8225   -0.8180    0.8686 C   0  0  0  0  0  0  0  0  0  0  0  0
   -4.5789   -1.1989   -0.4409 C   0  0  0  0  0  0  0  0  0  0  0  0
   -0.6185    1.0394    0.2181 N   0  0  0  0  0  0  0  0  0  0  0  0
    0.2262   -0.1084    0.5809 C   0  0  0  0  0  0  0  0  0  0  0  0
    1.6924    0.3168    0.7889 C   0  0  0  0  0  0  0  0  0  0  0  0
    2.2990    0.9149   -0.4439 N   0  0  0  0  0  0  0  0  0  0  0  0
    3.4726    2.1205   -0.1757 S   0  0  0  0  0  6  0  0  0  0  0  0
    4.0777    2.4616   -1.4455 O   0  0  0  0  0  0  0  0  0  0  0  0
    2.8838    3.1390    0.6679 O   0  0  0  0  0  0  0  0  0  0  0  0
    4.7031    1.2514    0.7683 C   0  0  0  0  0  0  0  0  0  0  0  0
    5.4481    0.2469    0.1446 C   0  0  0  0  0  0  0  0  0  0  0  0
    6.4211   -0.4397    0.8726 C   0  0  0  0  0  0  0  0  0  0  0  0
    6.6546   -0.1283    2.2230 C   0  0  0  0  0  0  0  0  0  0  0  0
    7.7234   -0.8545    3.0057 C   0  0  0  0  0  0  0  0  0  0  0  0
    7.4018   -1.0128    4.3202 F   0  0  0  0  0  0  0  0  0  0  0  0
    8.9157   -0.1987    2.9875 F   0  0  0  0  0  0  0  0  0  0  0  0
    7.9759   -2.1072    2.5332 F   0  0  0  0  0  0  0  0  0  0  0  0
    5.9063    0.8973    2.8275 C   0  0  0  0  0  0  0  0  0  0  0  0
    4.9313    1.5873    2.1043 C   0  0  0  0  0  0  0  0  0  0  0  0
    1.2741    1.2838   -1.4725 C   0  0  0  0  0  0  0  0  0  0  0  0
   -0.0073    1.8675   -0.8415 C   0  0  0  0  0  0  0  0  0  0  0  0
   -2.7259    2.5480   -0.9019 H   0  0  0  0  0  0  0  0  0  0  0  0
   -2.7439    2.5655    0.8719 H   0  0  0  0  0  0  0  0  0  0  0  0
   -3.9863    1.7008   -0.0362 H   0  0  0  0  0  0  0  0  0  0  0  0
   -2.3049    0.1054    0.9216 H   0  0  0  0  0  0  0  0  0  0  0  0
   -3.5634   -1.0744   -3.4263 H   0  0  0  0  0  0  0  0  0  0  0  0
   -2.9562   -2.5095   -2.5808 H   0  0  0  0  0  0  0  0  0  0  0  0
   -5.7819   -1.7698   -3.2031 H   0  0  0  0  0  0  0  0  0  0  0  0
   -5.1200   -3.3646   -2.7309 H   0  0  0  0  0  0  0  0  0  0  0  0
   -7.4074   -3.0529   -1.0139 H   0  0  0  0  0  0  0  0  0  0  0  0
   -7.8330   -2.3707    1.3397 H   0  0  0  0  0  0  0  0  0  0  0  0
   -6.1935   -0.9484    2.5306 H   0  0  0  0  0  0  0  0  0  0  0  0
   -4.1587   -0.1989    1.4512 H   0  0  0  0  0  0  0  0  0  0  0  0
   -0.1367   -0.5459    1.5185 H   0  0  0  0  0  0  0  0  0  0  0  0
    0.1820   -0.8964   -0.1806 H   0  0  0  0  0  0  0  0  0  0  0  0
    2.2836   -0.5639    1.0631 H   0  0  0  0  0  0  0  0  0  0  0  0
    1.7364    1.0223    1.6263 H   0  0  0  0  0  0  0  0  0  0  0  0
    5.2741    0.0023   -0.9018 H   0  0  0  0  0  0  0  0  0  0  0  0
    7.0015   -1.2200    0.3811 H   0  0  0  0  0  0  0  0  0  0  0  0
    6.0861    1.1644    3.8686 H   0  0  0  0  0  0  0  0  0  0  0  0
    4.3629    2.3816    2.5843 H   0  0  0  0  0  0  0  0  0  0  0  0
    1.0460    0.3797   -2.0495 H   0  0  0  0  0  0  0  0  0  0  0  0
    1.6826    1.9985   -2.1949 H   0  0  0  0  0  0  0  0  0  0  0  0
   -0.7062    2.0944   -1.6533 H   0  0  0  0  0  0  0  0  0  0  0  0
    0.2405    2.8330   -0.3837 H   0  0  0  0  0  0  0  0  0  0  0  0
  1  2  1  0
  2  3  1  0
  3  4  2  0
  3  5  1  0
  5  6  1  0
  6  7  1  0
  7  8  1  0
  8  9  2  0
  9 10  1  0
 10 11  2  0
 11 12  1  0
 12 13  2  0
  2 14  1  0
 14 15  1  0
 15 16  1  0
 16 17  1  0
 17 18  1  0
 18 19  2  0
 18 20  2  0
 18 21  1  0
 21 22  2  0
 22 23  1  0
 23 24  2  0
 24 25  1  0
 25 26  1  0
 25 27  1  0
 25 28  1  0
 24 29  1  0
 29 30  2  0
 17 31  1  0
 31 32  1  0
 13  5  1  0
 32 14  1  0
 13  8  1  0
 30 21  1  0
  1 33  1  0
  1 34  1  0
  1 35  1  0
  2 36  1  0
  6 37  1  0
  6 38  1  0
  7 39  1  0
  7 40  1  0
  9 41  1  0
 10 42  1  0
 11 43  1  0
 12 44  1  0
 15 45  1  0
 15 46  1  0
 16 47  1  0
 16 48  1  0
 22 49  1  0
 23 50  1  0
 29 51  1  0
 30 52  1  0
 31 53  1  0
 31 54  1  0
 32 55  1  0
 32 56  1  0
M  END
$$$$
