
     RDKit          3D

 45 46  0  0  0  0  0  0  0  0999 V2000
    6.0631    1.4711   -2.2422 C   0  0  0  0  0  0  0  0  0  0  0  0
    5.0661    0.4596   -2.2527 O   0  0  0  0  0  0  0  0  0  0  0  0
    4.0695    0.5455   -1.3149 C   0  0  0  0  0  0  0  0  0  0  0  0
    3.9414    1.5749   -0.3789 C   0  0  0  0  0  0  0  0  0  0  0  0
    2.8990    1.5582    0.5517 C   0  0  0  0  0  0  0  0  0  0  0  0
    1.9777    0.5104    0.5612 C   0  0  0  0  0  0  0  0  0  0  0  0
    2.0749   -0.5268   -0.3737 C   0  0  0  0  0  0  0  0  0  0  0  0
    1.1352   -1.6578   -0.3320 C   0  0  0  0  0  0  0  0  0  0  0  0
   -0.2023   -1.5936   -0.4138 C   0  0  0  0  0  0  0  0  0  0  0  0
   -0.9615   -0.3378   -0.6318 C   0  0  0  0  0  0  0  0  0  0  0  0
   -0.6969    0.3964   -1.5783 O   0  0  0  0  0  0  0  0  0  0  0  0
   -1.9788   -0.0912    0.2700 N   0  0  0  0  0  0  0  0  0  0  0  0
   -2.2443   -0.8803    1.4768 C   0  0  0  0  0  0  0  0  0  0  0  0
   -3.1304   -0.1122    2.4708 C   0  0  0  0  0  0  0  0  0  0  0  0
   -3.4417   -0.9618    3.6949 C   0  0  0  0  0  0  0  0  0  0  0  0
   -4.3795    0.2675    1.8773 O   0  0  0  0  0  0  0  0  0  0  0  0
   -4.2674    0.8487    0.5648 C   0  0  0  0  0  0  0  0  0  0  0  0
   -5.0409   -0.0455   -0.4009 C   0  0  0  0  0  0  0  0  0  0  0  0
   -2.8222    1.0878    0.0855 C   0  0  0  0  0  0  0  0  0  0  0  0
    3.1192   -0.4928   -1.3158 C   0  0  0  0  0  0  0  0  0  0  0  0
    3.2364   -1.5313   -2.2159 O   0  0  0  0  0  0  0  0  0  0  0  0
    2.6342   -1.1579   -3.4571 C   0  0  0  0  0  0  0  0  0  0  0  0
    5.6318    2.4520   -2.4672 H   0  0  0  0  0  0  0  0  0  0  0  0
    6.7847    1.2373   -3.0310 H   0  0  0  0  0  0  0  0  0  0  0  0
    6.6043    1.4842   -1.2905 H   0  0  0  0  0  0  0  0  0  0  0  0
    4.6377    2.4058   -0.3432 H   0  0  0  0  0  0  0  0  0  0  0  0
    2.8087    2.3630    1.2771 H   0  0  0  0  0  0  0  0  0  0  0  0
    1.1863    0.5109    1.3059 H   0  0  0  0  0  0  0  0  0  0  0  0
    1.6127   -2.6317   -0.2454 H   0  0  0  0  0  0  0  0  0  0  0  0
   -0.7959   -2.4989   -0.3717 H   0  0  0  0  0  0  0  0  0  0  0  0
   -2.7486   -1.7954    1.1443 H   0  0  0  0  0  0  0  0  0  0  0  0
   -1.2949   -1.1597    1.9458 H   0  0  0  0  0  0  0  0  0  0  0  0
   -2.6230    0.8028    2.8014 H   0  0  0  0  0  0  0  0  0  0  0  0
   -4.0003   -1.8618    3.4151 H   0  0  0  0  0  0  0  0  0  0  0  0
   -2.5267   -1.2632    4.2135 H   0  0  0  0  0  0  0  0  0  0  0  0
   -4.0733   -0.4052    4.3956 H   0  0  0  0  0  0  0  0  0  0  0  0
   -4.7808    1.8163    0.6070 H   0  0  0  0  0  0  0  0  0  0  0  0
   -4.6139   -1.0530   -0.4419 H   0  0  0  0  0  0  0  0  0  0  0  0
   -5.0478    0.3730   -1.4118 H   0  0  0  0  0  0  0  0  0  0  0  0
   -6.0774   -0.1600   -0.0651 H   0  0  0  0  0  0  0  0  0  0  0  0
   -2.8090    1.4195   -0.9584 H   0  0  0  0  0  0  0  0  0  0  0  0
   -2.3639    1.8849    0.6840 H   0  0  0  0  0  0  0  0  0  0  0  0
    3.1951   -0.3565   -3.9487 H   0  0  0  0  0  0  0  0  0  0  0  0
    1.5875   -0.8622   -3.3251 H   0  0  0  0  0  0  0  0  0  0  0  0
    2.6556   -2.0334   -4.1130 H   0  0  0  0  0  0  0  0  0  0  0  0
  1  2  1  0
  2  3  1  0
  3  4  2  0
  4  5  1  0
  5  6  2  0
  6  7  1  0
  7  8  1  0
  8  9  2  3
  9 10  1  0
 10 11  2  0
 10 12  1  0
 12 13  1  0
 13 14  1  0
 14 15  1  0
 14 16  1  0
 16 17  1  0
 17 18  1  0
 17 19  1  0
  7 20  2  0
 20 21  1  0
 21 22  1  0
 20  3  1  0
 19 12  1  0
  1 23  1  0
  1 24  1  0
  1 25  1  0
  4 26  1  0
  5 27  1  0
  6 28  1  0
  8 29  1  0
  9 30  1  0
 13 31  1  0
 13 32  1  0
 14 33  1  0
 15 34  1  0
 15 35  1  0
 15 36  1  0
 17 37  1  0
 18 38  1  0
 18 39  1  0
 18 40  1  0
 19 41  1  0
 19 42  1  0
 22 43  1  0
 22 44  1  0
 22 45  1  0
M  END
$$$$
