
     RDKit          3D

 52 55  0  0  0  0  0  0  0  0999 V2000
   -4.0903    0.5711    2.0688 C   0  0  0  0  0  0  0  0  0  0  0  0
   -5.2799    0.3649    1.1712 C   0  0  0  0  0  0  0  0  0  0  0  0
   -6.4277   -0.2327    1.7255 C   0  0  0  0  0  0  0  0  0  0  0  0
   -7.5856   -0.4119    0.9688 C   0  0  0  0  0  0  0  0  0  0  0  0
   -7.6184    0.0108   -0.3539 C   0  0  0  0  0  0  0  0  0  0  0  0
   -6.4847    0.5911   -0.9210 C   0  0  0  0  0  0  0  0  0  0  0  0
   -5.2926    0.7349   -0.1886 C   0  0  0  0  0  0  0  0  0  0  0  0
   -4.2174    1.3790   -0.8569 N   0  0  0  0  0  0  0  0  0  0  0  0
   -2.8458    1.0583   -0.7444 C   0  0  0  0  0  0  0  0  0  0  0  0
   -2.0426    2.0881   -0.3990 N   0  0  0  0  0  0  0  0  0  0  0  0
   -0.7061    1.8992   -0.2165 N   0  0  0  0  0  0  0  0  0  0  0  0
   -0.1618    0.6749   -0.3956 C   0  0  0  0  0  0  0  0  0  0  0  0
    1.2844    0.6296   -0.1274 C   0  0  0  0  0  0  0  0  0  0  0  0
    2.1780    1.3833   -0.9072 C   0  0  0  0  0  0  0  0  0  0  0  0
    3.5560    1.3559   -0.6609 C   0  0  0  0  0  0  0  0  0  0  0  0
    4.0666    0.5665    0.3749 C   0  0  0  0  0  0  0  0  0  0  0  0
    5.5226    0.4979    0.6818 C   0  0  0  0  0  0  0  0  0  0  0  0
    5.9086    0.1714    1.7993 O   0  0  0  0  0  0  0  0  0  0  0  0
    6.3936    0.7615   -0.3529 N   0  0  0  0  0  0  0  0  0  0  0  0
    7.8400    0.7211   -0.1796 C   0  0  0  0  0  0  0  0  0  0  0  0
    8.3835   -0.6978    0.0230 C   0  0  0  0  0  0  0  0  0  0  0  0
    8.2341   -1.1436    1.3666 O   0  0  0  0  0  0  0  0  0  0  0  0
    3.1844   -0.1647    1.1791 C   0  0  0  0  0  0  0  0  0  0  0  0
    1.8082   -0.1317    0.9308 C   0  0  0  0  0  0  0  0  0  0  0  0
   -0.9333   -0.4281   -0.8121 C   0  0  0  0  0  0  0  0  0  0  0  0
   -0.3891   -1.7125   -1.0734 C   0  0  0  0  0  0  0  0  0  0  0  0
   -1.1847   -2.7760   -1.4981 C   0  0  0  0  0  0  0  0  0  0  0  0
   -2.5429   -2.5819   -1.6862 C   0  0  0  0  0  0  0  0  0  0  0  0
   -3.1007   -1.3260   -1.4464 C   0  0  0  0  0  0  0  0  0  0  0  0
   -2.3220   -0.2288   -0.9978 C   0  0  0  0  0  0  0  0  0  0  0  0
   -3.6842    1.5806    1.9527 H   0  0  0  0  0  0  0  0  0  0  0  0
   -3.3168   -0.1723    1.8579 H   0  0  0  0  0  0  0  0  0  0  0  0
   -4.3677    0.4700    3.1237 H   0  0  0  0  0  0  0  0  0  0  0  0
   -6.4301   -0.5508    2.7664 H   0  0  0  0  0  0  0  0  0  0  0  0
   -8.4638   -0.8683    1.4180 H   0  0  0  0  0  0  0  0  0  0  0  0
   -8.5222   -0.1093   -0.9449 H   0  0  0  0  0  0  0  0  0  0  0  0
   -6.5203    0.9187   -1.9582 H   0  0  0  0  0  0  0  0  0  0  0  0
   -4.2575    2.3710   -0.6166 H   0  0  0  0  0  0  0  0  0  0  0  0
    1.7946    2.0137   -1.7087 H   0  0  0  0  0  0  0  0  0  0  0  0
    4.2028    1.9836   -1.2661 H   0  0  0  0  0  0  0  0  0  0  0  0
    6.0378    0.8450   -1.2945 H   0  0  0  0  0  0  0  0  0  0  0  0
    8.0946    1.3553    0.6764 H   0  0  0  0  0  0  0  0  0  0  0  0
    8.2678    1.1564   -1.0878 H   0  0  0  0  0  0  0  0  0  0  0  0
    9.4551   -0.7157   -0.1979 H   0  0  0  0  0  0  0  0  0  0  0  0
    7.8843   -1.4137   -0.6373 H   0  0  0  0  0  0  0  0  0  0  0  0
    7.3864   -0.7775    1.7055 H   0  0  0  0  0  0  0  0  0  0  0  0
    3.5645   -0.7594    2.0081 H   0  0  0  0  0  0  0  0  0  0  0  0
    1.1422   -0.6975    1.5815 H   0  0  0  0  0  0  0  0  0  0  0  0
    0.6774   -1.8979   -0.9591 H   0  0  0  0  0  0  0  0  0  0  0  0
   -0.7398   -3.7491   -1.6895 H   0  0  0  0  0  0  0  0  0  0  0  0
   -3.1732   -3.4001   -2.0262 H   0  0  0  0  0  0  0  0  0  0  0  0
   -4.1666   -1.2064   -1.6269 H   0  0  0  0  0  0  0  0  0  0  0  0
  1  2  1  0
  2  3  2  0
  3  4  1  0
  4  5  2  0
  5  6  1  0
  6  7  2  0
  7  8  1  0
  8  9  1  0
  9 10  2  0
 10 11  1  0
 11 12  2  0
 12 13  1  0
 13 14  2  0
 14 15  1  0
 15 16  2  0
 16 17  1  0
 17 18  2  0
 17 19  1  0
 19 20  1  0
 20 21  1  0
 21 22  1  0
 16 23  1  0
 23 24  2  0
 12 25  1  0
 25 26  2  0
 26 27  1  0
 27 28  2  0
 28 29  1  0
 29 30  2  0
  7  2  1  0
 30  9  1  0
 24 13  1  0
 30 25  1  0
  1 31  1  0
  1 32  1  0
  1 33  1  0
  3 34  1  0
  4 35  1  0
  5 36  1  0
  6 37  1  0
  8 38  1  0
 14 39  1  0
 15 40  1  0
 19 41  1  0
 20 42  1  0
 20 43  1  0
 21 44  1  0
 21 45  1  0
 22 46  1  0
 23 47  1  0
 24 48  1  0
 26 49  1  0
 27 50  1  0
 28 51  1  0
 29 52  1  0
M  END
$$$$
