
     RDKit          3D

 55 57  0  0  0  0  0  0  0  0999 V2000
   -0.3908    1.7959    1.0230 O   0  0  0  0  0  0  0  0  0  0  0  0
    0.0912    0.7366    1.4096 C   0  0  0  0  0  0  0  0  0  0  0  0
   -0.6693   -0.3647    1.7428 N   0  0  0  0  0  0  0  0  0  0  0  0
   -2.1114   -0.3685    1.5989 C   0  0  0  0  0  0  0  0  0  0  0  0
   -2.5307   -0.7007    0.1677 C   0  0  0  0  0  0  0  0  0  0  0  0
   -4.0553   -0.7312    0.0309 C   0  0  0  0  0  0  0  0  0  0  0  0
   -4.5177   -1.1442   -1.3780 C   0  0  0  0  0  0  0  0  0  0  0  0
   -4.2679   -0.0810   -2.4493 C   0  0  0  0  0  0  0  0  0  0  0  0
   -5.4311    0.8973   -2.3162 C   0  0  0  0  0  0  0  0  0  0  0  0
   -6.5731    0.1111   -1.6743 C   0  0  0  0  0  0  0  0  0  0  0  0
   -6.0390   -1.3000   -1.4487 C   0  0  0  0  0  0  0  0  0  0  0  0
    1.5884    0.5115    1.5549 C   0  0  0  0  0  0  0  0  0  0  0  0
    1.9866    0.2190    3.0150 C   0  0  0  0  0  0  0  0  0  0  0  0
    3.1250    1.1007    3.5284 C   0  0  0  0  0  0  0  0  0  0  0  0
    4.2354    1.2181    2.5048 C   0  0  0  0  0  0  0  0  0  0  0  0
    5.4143    1.0547    2.8023 O   0  0  0  0  0  0  0  0  0  0  0  0
    3.7884    1.5391    1.2333 N   0  0  0  0  0  0  0  0  0  0  0  0
    4.7200    1.6280    0.1179 C   0  0  0  0  0  0  0  0  0  0  0  0
    4.7013    0.3708   -0.7216 C   0  0  0  0  0  0  0  0  0  0  0  0
    5.3251   -0.7972   -0.2555 C   0  0  0  0  0  0  0  0  0  0  0  0
    5.2905   -1.9706   -1.0115 C   0  0  0  0  0  0  0  0  0  0  0  0
    4.6295   -1.9832   -2.2372 C   0  0  0  0  0  0  0  0  0  0  0  0
    4.5797   -3.4299   -3.1672 Cl  0  0  0  0  0  0  0  0  0  0  0  0
    4.0043   -0.8327   -2.7139 C   0  0  0  0  0  0  0  0  0  0  0  0
    4.0393    0.3415   -1.9579 C   0  0  0  0  0  0  0  0  0  0  0  0
    2.3596    1.7048    0.9923 C   0  0  0  0  0  0  0  0  0  0  0  0
   -0.2070   -1.2479    1.9183 H   0  0  0  0  0  0  0  0  0  0  0  0
   -2.5001   -1.1167    2.2977 H   0  0  0  0  0  0  0  0  0  0  0  0
   -2.5016    0.6118    1.8943 H   0  0  0  0  0  0  0  0  0  0  0  0
   -2.1013    0.0381   -0.5177 H   0  0  0  0  0  0  0  0  0  0  0  0
   -2.1129   -1.6741   -0.1181 H   0  0  0  0  0  0  0  0  0  0  0  0
   -4.4642    0.2492    0.3033 H   0  0  0  0  0  0  0  0  0  0  0  0
   -4.4567   -1.4500    0.7569 H   0  0  0  0  0  0  0  0  0  0  0  0
   -4.0298   -2.0878   -1.6489 H   0  0  0  0  0  0  0  0  0  0  0  0
   -3.3005    0.4204   -2.3662 H   0  0  0  0  0  0  0  0  0  0  0  0
   -4.3058   -0.5499   -3.4409 H   0  0  0  0  0  0  0  0  0  0  0  0
   -5.7173    1.3090   -3.2894 H   0  0  0  0  0  0  0  0  0  0  0  0
   -5.1517    1.7403   -1.6739 H   0  0  0  0  0  0  0  0  0  0  0  0
   -7.4663    0.1011   -2.3072 H   0  0  0  0  0  0  0  0  0  0  0  0
   -6.8535    0.5725   -0.7205 H   0  0  0  0  0  0  0  0  0  0  0  0
   -6.3028   -1.9277   -2.3093 H   0  0  0  0  0  0  0  0  0  0  0  0
   -6.4699   -1.7666   -0.5575 H   0  0  0  0  0  0  0  0  0  0  0  0
    1.8381   -0.3700    0.9472 H   0  0  0  0  0  0  0  0  0  0  0  0
    1.1337    0.3167    3.6972 H   0  0  0  0  0  0  0  0  0  0  0  0
    2.3042   -0.8305    3.0758 H   0  0  0  0  0  0  0  0  0  0  0  0
    2.7644    2.1084    3.7645 H   0  0  0  0  0  0  0  0  0  0  0  0
    3.5338    0.6736    4.4507 H   0  0  0  0  0  0  0  0  0  0  0  0
    4.4572    2.5081   -0.4810 H   0  0  0  0  0  0  0  0  0  0  0  0
    5.7392    1.7950    0.4858 H   0  0  0  0  0  0  0  0  0  0  0  0
    5.8414   -0.7935    0.7041 H   0  0  0  0  0  0  0  0  0  0  0  0
    5.7799   -2.8660   -0.6381 H   0  0  0  0  0  0  0  0  0  0  0  0
    3.4890   -0.8430   -3.6706 H   0  0  0  0  0  0  0  0  0  0  0  0
    3.5445    1.2322   -2.3396 H   0  0  0  0  0  0  0  0  0  0  0  0
    2.0539    2.6424    1.4736 H   0  0  0  0  0  0  0  0  0  0  0  0
    2.1698    1.8185   -0.0809 H   0  0  0  0  0  0  0  0  0  0  0  0
  1  2  2  0
  2  3  1  0
  3  4  1  0
  4  5  1  0
  5  6  1  0
  6  7  1  0
  7  8  1  0
  8  9  1  0
  9 10  1  0
 10 11  1  0
  2 12  1  0
 12 13  1  0
 13 14  1  0
 14 15  1  0
 15 16  2  0
 15 17  1  0
 17 18  1  0
 18 19  1  0
 19 20  2  0
 20 21  1  0
 21 22  2  0
 22 23  1  0
 22 24  1  0
 24 25  2  0
 17 26  1  0
 11  7  1  0
 26 12  1  0
 25 19  1  0
  3 27  1  0
  4 28  1  0
  4 29  1  0
  5 30  1  0
  5 31  1  0
  6 32  1  0
  6 33  1  0
  7 34  1  0
  8 35  1  0
  8 36  1  0
  9 37  1  0
  9 38  1  0
 10 39  1  0
 10 40  1  0
 11 41  1  0
 11 42  1  0
 12 43  1  0
 13 44  1  0
 13 45  1  0
 14 46  1  0
 14 47  1  0
 18 48  1  0
 18 49  1  0
 20 50  1  0
 21 51  1  0
 24 52  1  0
 25 53  1  0
 26 54  1  0
 26 55  1  0
M  END
$$$$
