
     RDKit          3D

 42 44  0  0  0  0  0  0  0  0999 V2000
   -3.9967    0.4745    0.5698 C   0  0  0  0  0  0  0  0  0  0  0  0
   -3.8401    1.1266   -0.6854 O   0  0  0  0  0  0  0  0  0  0  0  0
   -2.5554    1.3144   -1.1303 C   0  0  0  0  0  0  0  0  0  0  0  0
   -1.3933    0.9385   -0.4589 C   0  0  0  0  0  0  0  0  0  0  0  0
   -0.1358    1.1878   -1.0305 C   0  0  0  0  0  0  0  0  0  0  0  0
    1.0622    0.7978   -0.2732 C   0  0  0  0  0  0  0  0  0  0  0  0
    2.0437   -0.0196   -0.7041 C   0  0  0  0  0  0  0  0  0  0  0  0
    2.1108   -0.5851   -2.0045 C   0  0  0  0  0  0  0  0  0  0  0  0
    2.1347   -1.0485   -3.0684 N   0  0  0  0  0  0  0  0  0  0  0  0
    3.1643   -0.3257    0.2175 C   0  0  0  0  0  0  0  0  0  0  0  0
    4.3194   -0.0396   -0.0832 O   0  0  0  0  0  0  0  0  0  0  0  0
    2.7983   -0.9315    1.4973 C   0  0  0  0  0  0  0  0  0  0  0  0
    3.5847   -0.8036    2.6308 C   0  0  0  0  0  0  0  0  0  0  0  0
    2.9735   -1.4485    3.6673 N   0  0  0  0  0  0  0  0  0  0  0  0
    1.8033   -2.0279    3.2388 C   0  0  0  0  0  0  0  0  0  0  0  0
    0.8708   -2.7874    3.9568 C   0  0  0  0  0  0  0  0  0  0  0  0
   -0.2294   -3.2945    3.2634 C   0  0  0  0  0  0  0  0  0  0  0  0
   -0.3834   -3.0584    1.9021 C   0  0  0  0  0  0  0  0  0  0  0  0
    0.5574   -2.2957    1.1988 C   0  0  0  0  0  0  0  0  0  0  0  0
    1.6724   -1.7477    1.8750 C   0  0  0  0  0  0  0  0  0  0  0  0
   -0.0463    1.8332   -2.2734 C   0  0  0  0  0  0  0  0  0  0  0  0
   -1.2027    2.2029   -2.9651 C   0  0  0  0  0  0  0  0  0  0  0  0
   -1.2166    2.8327   -4.1811 O   0  0  0  0  0  0  0  0  0  0  0  0
   -0.0218    2.7773   -4.9493 C   0  0  0  0  0  0  0  0  0  0  0  0
   -2.4463    1.9459   -2.3774 C   0  0  0  0  0  0  0  0  0  0  0  0
   -3.5966    2.3134   -3.0340 O   0  0  0  0  0  0  0  0  0  0  0  0
   -3.5872   -0.5407    0.5409 H   0  0  0  0  0  0  0  0  0  0  0  0
   -3.5465    1.0611    1.3773 H   0  0  0  0  0  0  0  0  0  0  0  0
   -5.0689    0.3955    0.7733 H   0  0  0  0  0  0  0  0  0  0  0  0
   -1.4403    0.4491    0.5093 H   0  0  0  0  0  0  0  0  0  0  0  0
    1.0940    1.2031    0.7383 H   0  0  0  0  0  0  0  0  0  0  0  0
    4.5293   -0.2937    2.7768 H   0  0  0  0  0  0  0  0  0  0  0  0
    3.3329   -1.5100    4.6107 H   0  0  0  0  0  0  0  0  0  0  0  0
    0.9985   -2.9894    5.0158 H   0  0  0  0  0  0  0  0  0  0  0  0
   -0.9660   -3.8950    3.7929 H   0  0  0  0  0  0  0  0  0  0  0  0
   -1.2358   -3.4802    1.3740 H   0  0  0  0  0  0  0  0  0  0  0  0
    0.4139   -2.1557    0.1316 H   0  0  0  0  0  0  0  0  0  0  0  0
    0.9332    2.0567   -2.6850 H   0  0  0  0  0  0  0  0  0  0  0  0
    0.7502    3.4202   -4.5144 H   0  0  0  0  0  0  0  0  0  0  0  0
    0.3375    1.7485   -5.0605 H   0  0  0  0  0  0  0  0  0  0  0  0
   -0.2488    3.1607   -5.9487 H   0  0  0  0  0  0  0  0  0  0  0  0
   -4.3272    2.0383   -2.4497 H   0  0  0  0  0  0  0  0  0  0  0  0
  1  2  1  0
  2  3  1  0
  3  4  2  0
  4  5  1  0
  5  6  1  0
  6  7  2  3
  7  8  1  0
  8  9  3  0
  7 10  1  0
 10 11  2  0
 10 12  1  0
 12 13  2  0
 13 14  1  0
 14 15  1  0
 15 16  2  0
 16 17  1  0
 17 18  2  0
 18 19  1  0
 19 20  2  0
  5 21  2  0
 21 22  1  0
 22 23  1  0
 23 24  1  0
 22 25  2  0
 25 26  1  0
 25  3  1  0
 20 12  1  0
 20 15  1  0
  1 27  1  0
  1 28  1  0
  1 29  1  0
  4 30  1  0
  6 31  1  0
 13 32  1  0
 14 33  1  0
 16 34  1  0
 17 35  1  0
 18 36  1  0
 19 37  1  0
 21 38  1  0
 24 39  1  0
 24 40  1  0
 24 41  1  0
 26 42  1  0
M  END
$$$$
