
     RDKit          3D

 46 49  0  0  0  0  0  0  0  0999 V2000
    4.6507    1.5474   -1.1143 C   0  0  0  0  0  0  0  0  0  0  0  0
    4.7210    0.0829   -1.1225 N   0  0  0  0  0  0  0  0  0  0  0  0
    6.1189   -0.3610   -1.2696 C   0  0  0  0  0  0  0  0  0  0  0  0
    6.7007   -0.4068    0.1380 C   0  0  0  0  0  0  0  0  0  0  0  0
    5.4958   -0.4222    1.0709 C   0  0  0  0  0  0  0  0  0  0  0  0
    4.2881   -0.5513    0.1413 C   0  0  0  0  0  0  0  0  0  0  0  0
    2.9875   -0.0608    0.7883 C   0  0  0  0  0  0  0  0  0  0  0  0
    1.7698   -0.3015   -0.1074 C   0  0  0  0  0  0  0  0  0  0  0  0
    0.5611    0.1379    0.5903 N   0  0  0  0  0  0  0  0  0  0  0  0
   -0.6897   -0.0472   -0.0051 C   0  0  0  0  0  0  0  0  0  0  0  0
   -0.8812   -0.2027   -1.3774 C   0  0  0  0  0  0  0  0  0  0  0  0
   -2.1681   -0.3081   -1.9195 C   0  0  0  0  0  0  0  0  0  0  0  0
   -3.3070   -0.2328   -1.1069 C   0  0  0  0  0  0  0  0  0  0  0  0
   -4.8767   -0.3893   -1.9100 S   0  0  0  0  0  0  0  0  0  0  0  0
   -6.0369   -0.1284   -0.5970 C   0  0  0  0  0  0  0  0  0  0  0  0
   -7.3982   -0.1234   -0.9473 C   0  0  0  0  0  0  0  0  0  0  0  0
   -8.3911    0.0663    0.0159 C   0  0  0  0  0  0  0  0  0  0  0  0
   -8.0359    0.2525    1.3460 C   0  0  0  0  0  0  0  0  0  0  0  0
   -6.6891    0.2489    1.7067 C   0  0  0  0  0  0  0  0  0  0  0  0
   -5.6837    0.0600    0.7399 C   0  0  0  0  0  0  0  0  0  0  0  0
   -4.2754    0.0701    1.1998 C   0  0  0  0  0  0  0  0  0  0  0  0
   -4.0465    0.1758    2.4044 O   0  0  0  0  0  0  0  0  0  0  0  0
   -3.1352   -0.0386    0.2605 C   0  0  0  0  0  0  0  0  0  0  0  0
   -1.8347    0.0661    0.7944 C   0  0  0  0  0  0  0  0  0  0  0  0
    5.2106    2.0043   -0.2912 H   0  0  0  0  0  0  0  0  0  0  0  0
    3.6134    1.8913   -1.0579 H   0  0  0  0  0  0  0  0  0  0  0  0
    5.0470    1.9471   -2.0549 H   0  0  0  0  0  0  0  0  0  0  0  0
    6.7101    0.2652   -1.9472 H   0  0  0  0  0  0  0  0  0  0  0  0
    6.1192   -1.3714   -1.6978 H   0  0  0  0  0  0  0  0  0  0  0  0
    7.3266   -1.2944    0.2771 H   0  0  0  0  0  0  0  0  0  0  0  0
    7.3178    0.4762    0.3387 H   0  0  0  0  0  0  0  0  0  0  0  0
    5.4632    0.5079    1.6508 H   0  0  0  0  0  0  0  0  0  0  0  0
    5.5499   -1.2550    1.7801 H   0  0  0  0  0  0  0  0  0  0  0  0
    4.1523   -1.6213   -0.0756 H   0  0  0  0  0  0  0  0  0  0  0  0
    3.0545    1.0014    1.0549 H   0  0  0  0  0  0  0  0  0  0  0  0
    2.8448   -0.5959    1.7369 H   0  0  0  0  0  0  0  0  0  0  0  0
    1.6944   -1.3693   -0.3459 H   0  0  0  0  0  0  0  0  0  0  0  0
    1.8866    0.2568   -1.0418 H   0  0  0  0  0  0  0  0  0  0  0  0
    0.5486   -0.1274    1.5733 H   0  0  0  0  0  0  0  0  0  0  0  0
   -0.0378   -0.2438   -2.0606 H   0  0  0  0  0  0  0  0  0  0  0  0
   -2.2659   -0.4423   -2.9956 H   0  0  0  0  0  0  0  0  0  0  0  0
   -7.7002   -0.2694   -1.9833 H   0  0  0  0  0  0  0  0  0  0  0  0
   -9.4388    0.0671   -0.2749 H   0  0  0  0  0  0  0  0  0  0  0  0
   -8.8018    0.4002    2.1034 H   0  0  0  0  0  0  0  0  0  0  0  0
   -6.4228    0.3960    2.7526 H   0  0  0  0  0  0  0  0  0  0  0  0
   -1.7159    0.2426    1.8628 H   0  0  0  0  0  0  0  0  0  0  0  0
  1  2  1  0
  2  3  1  0
  3  4  1  0
  4  5  1  0
  5  6  1  0
  6  7  1  0
  7  8  1  0
  8  9  1  0
  9 10  1  0
 10 11  2  0
 11 12  1  0
 12 13  2  0
 13 14  1  0
 14 15  1  0
 15 16  2  0
 16 17  1  0
 17 18  2  0
 18 19  1  0
 19 20  2  0
 20 21  1  0
 21 22  2  0
 21 23  1  0
 23 24  2  0
  6  2  1  0
 24 10  1  0
 23 13  1  0
 20 15  1  0
  1 25  1  0
  1 26  1  0
  1 27  1  0
  3 28  1  0
  3 29  1  0
  4 30  1  0
  4 31  1  0
  5 32  1  0
  5 33  1  0
  6 34  1  0
  7 35  1  0
  7 36  1  0
  8 37  1  0
  8 38  1  0
  9 39  1  0
 11 40  1  0
 12 41  1  0
 16 42  1  0
 17 43  1  0
 18 44  1  0
 19 45  1  0
 24 46  1  0
M  END
$$$$
