
     RDKit          3D

 60 61  0  0  0  0  0  0  0  0999 V2000
   -0.4376   -3.2812   -3.5766 C   0  0  0  0  0  0  0  0  0  0  0  0
   -0.7551   -1.9909   -3.0689 O   0  0  0  0  0  0  0  0  0  0  0  0
    0.2470   -1.3446   -2.3925 C   0  0  0  0  0  0  0  0  0  0  0  0
    1.6030   -1.5213   -2.6888 C   0  0  0  0  0  0  0  0  0  0  0  0
    2.5839   -0.8273   -1.9750 C   0  0  0  0  0  0  0  0  0  0  0  0
    2.2190    0.0548   -0.9522 C   0  0  0  0  0  0  0  0  0  0  0  0
    3.2446    0.7866   -0.1578 C   0  0  0  0  0  0  0  0  0  0  0  0
    2.9269    1.8418    0.3818 O   0  0  0  0  0  0  0  0  0  0  0  0
    4.5849    0.1557    0.0150 C   0  0  0  0  0  0  0  0  0  0  0  0
    5.7111    0.7842    0.3860 C   0  0  0  0  0  0  0  0  0  0  0  0
    5.8766    2.2103    0.6699 C   0  0  0  0  0  0  0  0  0  0  0  0
    5.5068    2.7374    1.9120 C   0  0  0  0  0  0  0  0  0  0  0  0
    5.7009    4.0930    2.1850 C   0  0  0  0  0  0  0  0  0  0  0  0
    6.2646    4.9164    1.2179 C   0  0  0  0  0  0  0  0  0  0  0  0
    6.4410    6.2328    1.5284 O   0  0  0  0  0  0  0  0  0  0  0  0
    6.6359    4.4088   -0.0233 C   0  0  0  0  0  0  0  0  0  0  0  0
    6.4425    3.0515   -0.2958 C   0  0  0  0  0  0  0  0  0  0  0  0
    0.8534    0.2694   -0.6901 C   0  0  0  0  0  0  0  0  0  0  0  0
    0.4419    1.1593    0.2743 O   0  0  0  0  0  0  0  0  0  0  0  0
   -0.1450   -0.4251   -1.4003 C   0  0  0  0  0  0  0  0  0  0  0  0
   -1.6108   -0.2207   -1.0675 C   0  0  0  0  0  0  0  0  0  0  0  0
   -2.0674   -1.1098    0.0607 C   0  0  0  0  0  0  0  0  0  0  0  0
   -2.9342   -2.1429    0.0269 C   0  0  0  0  0  0  0  0  0  0  0  0
   -3.6153   -2.6537   -1.2129 C   0  0  0  0  0  0  0  0  0  0  0  0
   -3.2527   -2.9089    1.3003 C   0  0  0  0  0  0  0  0  0  0  0  0
   -4.6471   -2.6236    1.8795 C   0  0  0  0  0  0  0  0  0  0  0  0
   -4.7766   -1.2306    2.4381 C   0  0  0  0  0  0  0  0  0  0  0  0
   -5.5246   -0.2120    1.9707 C   0  0  0  0  0  0  0  0  0  0  0  0
   -5.5238    1.1216    2.6721 C   0  0  0  0  0  0  0  0  0  0  0  0
   -6.3910   -0.2595    0.7433 C   0  0  0  0  0  0  0  0  0  0  0  0
    0.1481   -3.2006   -4.4977 H   0  0  0  0  0  0  0  0  0  0  0  0
   -1.3783   -3.7830   -3.8233 H   0  0  0  0  0  0  0  0  0  0  0  0
    0.0824   -3.8940   -2.8318 H   0  0  0  0  0  0  0  0  0  0  0  0
    1.9216   -2.1825   -3.4891 H   0  0  0  0  0  0  0  0  0  0  0  0
    3.6238   -0.9755   -2.2529 H   0  0  0  0  0  0  0  0  0  0  0  0
    4.6354   -0.9142   -0.1617 H   0  0  0  0  0  0  0  0  0  0  0  0
    6.6281    0.2064    0.4834 H   0  0  0  0  0  0  0  0  0  0  0  0
    5.0523    2.1013    2.6680 H   0  0  0  0  0  0  0  0  0  0  0  0
    5.4070    4.5037    3.1464 H   0  0  0  0  0  0  0  0  0  0  0  0
    6.8173    6.6852    0.7562 H   0  0  0  0  0  0  0  0  0  0  0  0
    7.0740    5.0463   -0.7841 H   0  0  0  0  0  0  0  0  0  0  0  0
    6.7350    2.6570   -1.2652 H   0  0  0  0  0  0  0  0  0  0  0  0
    1.2163    1.7070    0.5393 H   0  0  0  0  0  0  0  0  0  0  0  0
   -2.2212   -0.3385   -1.9674 H   0  0  0  0  0  0  0  0  0  0  0  0
   -1.7819    0.8236   -0.7754 H   0  0  0  0  0  0  0  0  0  0  0  0
   -1.6338   -0.8324    1.0222 H   0  0  0  0  0  0  0  0  0  0  0  0
   -4.7018   -2.6360   -1.0921 H   0  0  0  0  0  0  0  0  0  0  0  0
   -3.3075   -3.6866   -1.4085 H   0  0  0  0  0  0  0  0  0  0  0  0
   -3.3867   -2.0730   -2.1077 H   0  0  0  0  0  0  0  0  0  0  0  0
   -3.1700   -3.9827    1.0879 H   0  0  0  0  0  0  0  0  0  0  0  0
   -2.4948   -2.7062    2.0692 H   0  0  0  0  0  0  0  0  0  0  0  0
   -5.4216   -2.8499    1.1420 H   0  0  0  0  0  0  0  0  0  0  0  0
   -4.8228   -3.3222    2.7075 H   0  0  0  0  0  0  0  0  0  0  0  0
   -4.1754   -1.0591    3.3317 H   0  0  0  0  0  0  0  0  0  0  0  0
   -4.8823    1.1252    3.5599 H   0  0  0  0  0  0  0  0  0  0  0  0
   -5.1613    1.9044    1.9974 H   0  0  0  0  0  0  0  0  0  0  0  0
   -6.5379    1.3806    2.9941 H   0  0  0  0  0  0  0  0  0  0  0  0
   -6.3514   -1.2138    0.2150 H   0  0  0  0  0  0  0  0  0  0  0  0
   -6.0790    0.5145    0.0337 H   0  0  0  0  0  0  0  0  0  0  0  0
   -7.4361   -0.0764    1.0146 H   0  0  0  0  0  0  0  0  0  0  0  0
  1  2  1  0
  2  3  1  0
  3  4  2  0
  4  5  1  0
  5  6  2  0
  6  7  1  0
  7  8  2  0
  7  9  1  0
  9 10  2  3
 10 11  1  0
 11 12  2  0
 12 13  1  0
 13 14  2  0
 14 15  1  0
 14 16  1  0
 16 17  2  0
  6 18  1  0
 18 19  1  0
 18 20  2  0
 20 21  1  0
 21 22  1  0
 22 23  2  3
 23 24  1  0
 23 25  1  0
 25 26  1  0
 26 27  1  0
 27 28  2  3
 28 29  1  0
 28 30  1  0
 20  3  1  0
 17 11  1  0
  1 31  1  0
  1 32  1  0
  1 33  1  0
  4 34  1  0
  5 35  1  0
  9 36  1  0
 10 37  1  0
 12 38  1  0
 13 39  1  0
 15 40  1  0
 16 41  1  0
 17 42  1  0
 19 43  1  0
 21 44  1  0
 21 45  1  0
 22 46  1  0
 24 47  1  0
 24 48  1  0
 24 49  1  0
 25 50  1  0
 25 51  1  0
 26 52  1  0
 26 53  1  0
 27 54  1  0
 29 55  1  0
 29 56  1  0
 29 57  1  0
 30 58  1  0
 30 59  1  0
 30 60  1  0
M  END
$$$$
