
     RDKit          3D

 44 46  0  0  0  0  0  0  0  0999 V2000
    4.6427   -1.2496   -0.4043 C   0  0  0  0  0  0  0  0  0  0  0  0
    3.2346   -1.4205   -0.5809 O   0  0  0  0  0  0  0  0  0  0  0  0
    2.6106   -0.3500   -1.1535 C   0  0  0  0  0  0  0  0  0  0  0  0
    3.1805    0.6616   -1.5349 O   0  0  0  0  0  0  0  0  0  0  0  0
    1.1265   -0.6146   -1.2505 C   0  0  0  0  0  0  0  0  0  0  0  0
    0.3273    0.2934   -2.1670 C   0  0  0  0  0  0  0  0  0  0  0  0
    0.9936    0.9310   -3.3629 C   0  0  0  0  0  0  0  0  0  0  0  0
   -0.9497    0.5009   -2.0294 N   0  0  0  0  0  0  0  0  0  0  0  0
   -1.6312   -0.1113   -1.0050 C   0  0  0  0  0  0  0  0  0  0  0  0
   -1.0066   -0.6635    0.0405 C   0  0  0  0  0  0  0  0  0  0  0  0
   -1.7986   -1.3347    1.0870 C   0  0  0  0  0  0  0  0  0  0  0  0
   -1.2295   -2.0042    1.9475 O   0  0  0  0  0  0  0  0  0  0  0  0
   -3.1648   -1.1762    1.0121 N   0  0  0  0  0  0  0  0  0  0  0  0
   -3.9796   -1.7710    2.0543 C   0  0  0  0  0  0  0  0  0  0  0  0
   -3.8214   -0.6477   -0.0913 C   0  0  0  0  0  0  0  0  0  0  0  0
   -5.0509   -0.6669   -0.1797 O   0  0  0  0  0  0  0  0  0  0  0  0
   -3.0090   -0.1172   -1.0865 N   0  0  0  0  0  0  0  0  0  0  0  0
   -3.6481    0.4832   -2.2544 C   0  0  0  0  0  0  0  0  0  0  0  0
    0.4919   -0.6666    0.1538 C   0  0  0  0  0  0  0  0  0  0  0  0
    0.9647    0.4164    1.1263 C   0  0  0  0  0  0  0  0  0  0  0  0
    0.8907    1.7860    0.8232 C   0  0  0  0  0  0  0  0  0  0  0  0
    1.3343    2.7436    1.7400 C   0  0  0  0  0  0  0  0  0  0  0  0
    1.8461    2.3435    2.9710 C   0  0  0  0  0  0  0  0  0  0  0  0
    2.3898    3.5244    4.0974 Cl  0  0  0  0  0  0  0  0  0  0  0  0
    1.9141    0.9926    3.2967 C   0  0  0  0  0  0  0  0  0  0  0  0
    1.4730    0.0349    2.3806 C   0  0  0  0  0  0  0  0  0  0  0  0
    5.1377   -1.1325   -1.3732 H   0  0  0  0  0  0  0  0  0  0  0  0
    5.0344   -2.1486    0.0794 H   0  0  0  0  0  0  0  0  0  0  0  0
    4.8460   -0.3910    0.2435 H   0  0  0  0  0  0  0  0  0  0  0  0
    1.0257   -1.6035   -1.7256 H   0  0  0  0  0  0  0  0  0  0  0  0
    0.2430    1.2176   -4.1058 H   0  0  0  0  0  0  0  0  0  0  0  0
    1.6876    0.2257   -3.8271 H   0  0  0  0  0  0  0  0  0  0  0  0
    1.5275    1.8310   -3.0484 H   0  0  0  0  0  0  0  0  0  0  0  0
   -4.2856   -2.7694    1.7260 H   0  0  0  0  0  0  0  0  0  0  0  0
   -3.4246   -1.8586    2.9929 H   0  0  0  0  0  0  0  0  0  0  0  0
   -4.8754   -1.1677    2.2311 H   0  0  0  0  0  0  0  0  0  0  0  0
   -3.2982   -0.0226   -3.1605 H   0  0  0  0  0  0  0  0  0  0  0  0
   -4.7375    0.3964   -2.2199 H   0  0  0  0  0  0  0  0  0  0  0  0
   -3.3951    1.5477   -2.2973 H   0  0  0  0  0  0  0  0  0  0  0  0
    0.8025   -1.6368    0.5687 H   0  0  0  0  0  0  0  0  0  0  0  0
    0.4851    2.1361   -0.1232 H   0  0  0  0  0  0  0  0  0  0  0  0
    1.2741    3.7990    1.4867 H   0  0  0  0  0  0  0  0  0  0  0  0
    2.3022    0.6768    4.2614 H   0  0  0  0  0  0  0  0  0  0  0  0
    1.5195   -1.0171    2.6608 H   0  0  0  0  0  0  0  0  0  0  0  0
  1  2  1  0
  2  3  1  0
  3  4  2  0
  3  5  1  0
  5  6  1  0
  6  7  1  0
  6  8  2  0
  8  9  1  0
  9 10  2  0
 10 11  1  0
 11 12  2  0
 11 13  1  0
 13 14  1  0
 13 15  1  0
 15 16  2  0
 15 17  1  0
 17 18  1  0
 10 19  1  0
 19 20  1  0
 20 21  2  0
 21 22  1  0
 22 23  2  0
 23 24  1  0
 23 25  1  0
 25 26  2  0
 19  5  1  0
 26 20  1  0
 17  9  1  0
  1 27  1  0
  1 28  1  0
  1 29  1  0
  5 30  1  0
  7 31  1  0
  7 32  1  0
  7 33  1  0
 14 34  1  0
 14 35  1  0
 14 36  1  0
 18 37  1  0
 18 38  1  0
 18 39  1  0
 19 40  1  0
 21 41  1  0
 22 42  1  0
 25 43  1  0
 26 44  1  0
M  END
$$$$
