
     RDKit          3D

 36 38  0  0  0  0  0  0  0  0999 V2000
    5.8479   -0.6572    0.7362 C   0  0  0  0  0  0  0  0  0  0  0  0
    4.4375   -0.4447    0.2683 C   0  0  0  0  0  0  0  0  0  0  0  0
    3.9354    0.8538    0.1037 C   0  0  0  0  0  0  0  0  0  0  0  0
    2.6358    1.0549   -0.3626 C   0  0  0  0  0  0  0  0  0  0  0  0
    1.8380   -0.0495   -0.6715 C   0  0  0  0  0  0  0  0  0  0  0  0
    0.1884    0.2225   -1.2602 S   0  0  0  0  0  6  0  0  0  0  0  0
    0.2617    1.1915   -2.3312 O   0  0  0  0  0  0  0  0  0  0  0  0
   -0.4576   -1.0581   -1.4527 O   0  0  0  0  0  0  0  0  0  0  0  0
   -0.5696    0.9720    0.0744 N   0  0  0  0  0  0  0  0  0  0  0  0
   -0.7820    0.0650    1.2474 C   0  0  0  0  0  0  0  0  0  0  0  0
   -2.1160   -0.6771    1.3396 C   0  0  0  0  0  0  0  0  0  0  0  0
   -2.3083   -1.5211    2.2163 O   0  0  0  0  0  0  0  0  0  0  0  0
   -3.1150   -0.2829    0.4868 N   0  0  0  0  0  0  0  0  0  0  0  0
   -4.5030   -0.6078    0.6668 C   0  0  0  0  0  0  0  0  0  0  0  0
   -5.1788    0.2072   -0.4187 C   0  0  0  0  0  0  0  0  0  0  0  0
   -4.2467    1.2740   -0.7055 O   0  0  0  0  0  0  0  0  0  0  0  0
   -2.9517    0.6717   -0.5754 C   0  0  0  0  0  0  0  0  0  0  0  0
   -1.8452    1.6852   -0.2748 C   0  0  0  0  0  0  0  0  0  0  0  0
    2.3305   -1.3487   -0.5347 C   0  0  0  0  0  0  0  0  0  0  0  0
    3.6314   -1.5419   -0.0671 C   0  0  0  0  0  0  0  0  0  0  0  0
    6.1605    0.1465    1.4112 H   0  0  0  0  0  0  0  0  0  0  0  0
    6.5265   -0.6833   -0.1218 H   0  0  0  0  0  0  0  0  0  0  0  0
    5.9382   -1.5984    1.2887 H   0  0  0  0  0  0  0  0  0  0  0  0
    4.5573    1.7161    0.3358 H   0  0  0  0  0  0  0  0  0  0  0  0
    2.2538    2.0656   -0.4882 H   0  0  0  0  0  0  0  0  0  0  0  0
   -0.7053    0.6905    2.1458 H   0  0  0  0  0  0  0  0  0  0  0  0
    0.0201   -0.6761    1.3170 H   0  0  0  0  0  0  0  0  0  0  0  0
   -4.6774   -1.6836    0.5783 H   0  0  0  0  0  0  0  0  0  0  0  0
   -4.8062   -0.2774    1.6659 H   0  0  0  0  0  0  0  0  0  0  0  0
   -5.3187   -0.3785   -1.3342 H   0  0  0  0  0  0  0  0  0  0  0  0
   -6.1414    0.6217   -0.1084 H   0  0  0  0  0  0  0  0  0  0  0  0
   -2.7463    0.1215   -1.5005 H   0  0  0  0  0  0  0  0  0  0  0  0
   -1.6979    2.3724   -1.1145 H   0  0  0  0  0  0  0  0  0  0  0  0
   -2.1291    2.3203    0.5745 H   0  0  0  0  0  0  0  0  0  0  0  0
    1.7177   -2.2103   -0.7903 H   0  0  0  0  0  0  0  0  0  0  0  0
    4.0157   -2.5554    0.0327 H   0  0  0  0  0  0  0  0  0  0  0  0
  1  2  1  0
  2  3  2  0
  3  4  1  0
  4  5  2  0
  5  6  1  0
  6  7  2  0
  6  8  2  0
  6  9  1  0
  9 10  1  0
 10 11  1  0
 11 12  2  0
 11 13  1  0
 13 14  1  0
 14 15  1  0
 15 16  1  0
 16 17  1  0
 17 18  1  0
  5 19  1  0
 19 20  2  0
 20  2  1  0
 18  9  1  0
 17 13  1  0
  1 21  1  0
  1 22  1  0
  1 23  1  0
  3 24  1  0
  4 25  1  0
 10 26  1  0
 10 27  1  0
 14 28  1  0
 14 29  1  0
 15 30  1  0
 15 31  1  0
 17 32  1  0
 18 33  1  0
 18 34  1  0
 19 35  1  0
 20 36  1  0
M  END
$$$$
