
     RDKit          3D

 56 59  0  0  0  0  0  0  0  0999 V2000
    3.2997   -2.4689   -1.2283 C   0  0  0  0  0  0  0  0  0  0  0  0
    2.7588   -1.1271   -0.7334 C   0  0  0  0  0  0  0  0  0  0  0  0
    3.8456   -0.2588   -0.0813 C   0  0  0  0  0  0  0  0  0  0  0  0
    4.9135    0.2138   -1.0712 C   0  0  0  0  0  0  0  0  0  0  0  0
    5.9075    1.1367   -0.4097 C   0  0  0  0  0  0  0  0  0  0  0  0
    5.6606    2.5144   -0.3421 C   0  0  0  0  0  0  0  0  0  0  0  0
    6.5708    3.3658    0.2859 C   0  0  0  0  0  0  0  0  0  0  0  0
    7.7329    2.8483    0.8550 C   0  0  0  0  0  0  0  0  0  0  0  0
    7.9850    1.4788    0.7985 C   0  0  0  0  0  0  0  0  0  0  0  0
    7.0757    0.6255    0.1713 C   0  0  0  0  0  0  0  0  0  0  0  0
    1.6804   -1.3542    0.2238 N   0  0  0  0  0  0  0  0  0  0  0  0
    0.3807   -1.5929   -0.1803 C   0  0  0  0  0  0  0  0  0  0  0  0
    0.0358   -1.6029   -1.3592 O   0  0  0  0  0  0  0  0  0  0  0  0
   -0.5890   -1.8672    0.9744 C   0  0  0  0  0  0  0  0  0  0  0  0
   -1.9488   -1.5681    0.6730 O   0  0  0  0  0  0  0  0  0  0  0  0
   -2.2214   -0.2400    0.6523 C   0  0  0  0  0  0  0  0  0  0  0  0
   -1.4491    0.6703    0.8972 O   0  0  0  0  0  0  0  0  0  0  0  0
   -3.6584   -0.0683    0.3663 C   0  0  0  0  0  0  0  0  0  0  0  0
   -4.1173   -0.1962   -0.9737 C   0  0  0  0  0  0  0  0  0  0  0  0
   -3.2823   -0.4575   -2.0880 C   0  0  0  0  0  0  0  0  0  0  0  0
   -3.7979   -0.5754   -3.3801 C   0  0  0  0  0  0  0  0  0  0  0  0
   -5.1609   -0.4317   -3.5956 C   0  0  0  0  0  0  0  0  0  0  0  0
   -6.0055   -0.1676   -2.5190 C   0  0  0  0  0  0  0  0  0  0  0  0
   -5.5002   -0.0461   -1.2128 C   0  0  0  0  0  0  0  0  0  0  0  0
   -6.3671    0.2269   -0.1433 C   0  0  0  0  0  0  0  0  0  0  0  0
   -5.9050    0.3655    1.1746 C   0  0  0  0  0  0  0  0  0  0  0  0
   -6.8078    0.6451    2.2151 C   0  0  0  0  0  0  0  0  0  0  0  0
   -6.3686    0.7890    3.5301 C   0  0  0  0  0  0  0  0  0  0  0  0
   -5.0186    0.6566    3.8227 C   0  0  0  0  0  0  0  0  0  0  0  0
   -4.1106    0.3775    2.7995 C   0  0  0  0  0  0  0  0  0  0  0  0
   -4.5290    0.2235    1.4533 C   0  0  0  0  0  0  0  0  0  0  0  0
    4.0459   -2.3355   -2.0168 H   0  0  0  0  0  0  0  0  0  0  0  0
    2.4957   -3.0882   -1.6410 H   0  0  0  0  0  0  0  0  0  0  0  0
    3.7603   -3.0340   -0.4104 H   0  0  0  0  0  0  0  0  0  0  0  0
    2.3350   -0.5868   -1.5889 H   0  0  0  0  0  0  0  0  0  0  0  0
    3.3677    0.6179    0.3775 H   0  0  0  0  0  0  0  0  0  0  0  0
    4.3162   -0.8084    0.7452 H   0  0  0  0  0  0  0  0  0  0  0  0
    5.4529   -0.6387   -1.4995 H   0  0  0  0  0  0  0  0  0  0  0  0
    4.4442    0.7327   -1.9165 H   0  0  0  0  0  0  0  0  0  0  0  0
    4.7557    2.9325   -0.7780 H   0  0  0  0  0  0  0  0  0  0  0  0
    6.3719    4.4333    0.3317 H   0  0  0  0  0  0  0  0  0  0  0  0
    8.4411    3.5122    1.3434 H   0  0  0  0  0  0  0  0  0  0  0  0
    8.8904    1.0749    1.2437 H   0  0  0  0  0  0  0  0  0  0  0  0
    7.2853   -0.4411    0.1379 H   0  0  0  0  0  0  0  0  0  0  0  0
    1.9179   -1.4468    1.2032 H   0  0  0  0  0  0  0  0  0  0  0  0
   -0.2746   -1.3374    1.8820 H   0  0  0  0  0  0  0  0  0  0  0  0
   -0.5332   -2.9394    1.1922 H   0  0  0  0  0  0  0  0  0  0  0  0
   -2.2065   -0.5727   -1.9649 H   0  0  0  0  0  0  0  0  0  0  0  0
   -3.1280   -0.7794   -4.2118 H   0  0  0  0  0  0  0  0  0  0  0  0
   -5.5672   -0.5224   -4.5993 H   0  0  0  0  0  0  0  0  0  0  0  0
   -7.0709   -0.0547   -2.7101 H   0  0  0  0  0  0  0  0  0  0  0  0
   -7.4323    0.3399   -0.3437 H   0  0  0  0  0  0  0  0  0  0  0  0
   -7.8703    0.7557    2.0068 H   0  0  0  0  0  0  0  0  0  0  0  0
   -7.0806    1.0076    4.3215 H   0  0  0  0  0  0  0  0  0  0  0  0
   -4.6669    0.7734    4.8446 H   0  0  0  0  0  0  0  0  0  0  0  0
   -3.0590    0.2903    3.0676 H   0  0  0  0  0  0  0  0  0  0  0  0
  1  2  1  0
  2  3  1  0
  3  4  1  0
  4  5  1  0
  5  6  2  0
  6  7  1  0
  7  8  2  0
  8  9  1  0
  9 10  2  0
  2 11  1  0
 11 12  1  0
 12 13  2  0
 12 14  1  0
 14 15  1  0
 15 16  1  0
 16 17  2  0
 16 18  1  0
 18 19  1  0
 19 20  2  0
 20 21  1  0
 21 22  2  0
 22 23  1  0
 23 24  2  0
 24 25  1  0
 25 26  2  0
 26 27  1  0
 27 28  2  0
 28 29  1  0
 29 30  2  0
 30 31  1  0
 10  5  1  0
 31 18  2  0
 24 19  1  0
 31 26  1  0
  1 32  1  0
  1 33  1  0
  1 34  1  0
  2 35  1  0
  3 36  1  0
  3 37  1  0
  4 38  1  0
  4 39  1  0
  6 40  1  0
  7 41  1  0
  8 42  1  0
  9 43  1  0
 10 44  1  0
 11 45  1  0
 14 46  1  0
 14 47  1  0
 20 48  1  0
 21 49  1  0
 22 50  1  0
 23 51  1  0
 25 52  1  0
 27 53  1  0
 28 54  1  0
 29 55  1  0
 30 56  1  0
M  END
$$$$
