
     RDKit          3D

 40 41  0  0  0  0  0  0  0  0999 V2000
   -6.5614    0.9125    0.6708 C   0  0  0  0  0  0  0  0  0  0  0  0
   -5.1293    0.7019    0.2808 C   0  0  0  0  0  0  0  0  0  0  0  0
   -4.6499    1.1722   -0.9446 C   0  0  0  0  0  0  0  0  0  0  0  0
   -3.3199    0.9525   -1.3288 C   0  0  0  0  0  0  0  0  0  0  0  0
   -2.4462    0.2549   -0.4989 C   0  0  0  0  0  0  0  0  0  0  0  0
   -1.0983   -0.0286   -0.7840 N   0  0  0  0  0  0  0  0  0  0  0  0
   -0.2194    0.3530   -1.7723 C   0  0  0  0  0  0  0  0  0  0  0  0
   -0.4101    1.4119   -3.0438 S   0  0  0  0  0  0  0  0  0  0  0  0
    1.0136   -0.2718   -1.6436 N   0  0  0  0  0  0  0  0  0  0  0  0
    1.3636   -0.8985   -0.4030 N   0  0  0  0  0  0  0  0  0  0  0  0
    1.6688   -2.3216   -0.6297 C   0  0  0  0  0  0  0  0  0  0  0  0
    2.5402   -0.2709    0.1191 C   0  0  0  0  0  0  0  0  0  0  0  0
    3.4423    0.2549   -0.7556 N   0  0  0  0  0  0  0  0  0  0  0  0
    4.5412    0.8443   -0.2247 C   0  0  0  0  0  0  0  0  0  0  0  0
    5.5425    1.4356   -1.1658 C   0  0  0  0  0  0  0  0  0  0  0  0
    4.7409    0.9022    1.1472 C   0  0  0  0  0  0  0  0  0  0  0  0
    3.8623    0.3920    2.0374 N   0  0  0  0  0  0  0  0  0  0  0  0
    2.7486   -0.1834    1.5088 C   0  0  0  0  0  0  0  0  0  0  0  0
    1.7377   -0.6972    2.4892 C   0  0  0  0  0  0  0  0  0  0  0  0
   -2.9380   -0.2365    0.7190 C   0  0  0  0  0  0  0  0  0  0  0  0
   -4.2645   -0.0189    1.1058 C   0  0  0  0  0  0  0  0  0  0  0  0
   -6.6664    0.9647    1.7596 H   0  0  0  0  0  0  0  0  0  0  0  0
   -7.1767    0.0892    0.2953 H   0  0  0  0  0  0  0  0  0  0  0  0
   -6.9426    1.8546    0.2628 H   0  0  0  0  0  0  0  0  0  0  0  0
   -5.3081    1.7157   -1.6195 H   0  0  0  0  0  0  0  0  0  0  0  0
   -3.0196    1.3322   -2.2963 H   0  0  0  0  0  0  0  0  0  0  0  0
   -0.6055   -0.5913   -0.0991 H   0  0  0  0  0  0  0  0  0  0  0  0
    1.8032    0.1299   -2.1556 H   0  0  0  0  0  0  0  0  0  0  0  0
    2.4825   -2.4588   -1.3530 H   0  0  0  0  0  0  0  0  0  0  0  0
    0.7790   -2.8279   -1.0210 H   0  0  0  0  0  0  0  0  0  0  0  0
    1.9389   -2.8270    0.3038 H   0  0  0  0  0  0  0  0  0  0  0  0
    5.6511    2.5084   -0.9784 H   0  0  0  0  0  0  0  0  0  0  0  0
    5.2261    1.3017   -2.2052 H   0  0  0  0  0  0  0  0  0  0  0  0
    6.5144    0.9484   -1.0401 H   0  0  0  0  0  0  0  0  0  0  0  0
    5.6209    1.3700    1.5759 H   0  0  0  0  0  0  0  0  0  0  0  0
    2.0248   -0.4357    3.5132 H   0  0  0  0  0  0  0  0  0  0  0  0
    1.6630   -1.7866    2.4311 H   0  0  0  0  0  0  0  0  0  0  0  0
    0.7555   -0.2539    2.2969 H   0  0  0  0  0  0  0  0  0  0  0  0
   -2.2914   -0.7955    1.3905 H   0  0  0  0  0  0  0  0  0  0  0  0
   -4.6138   -0.4154    2.0562 H   0  0  0  0  0  0  0  0  0  0  0  0
  1  2  1  0
  2  3  2  0
  3  4  1  0
  4  5  2  0
  5  6  1  0
  6  7  1  0
  7  8  2  0
  7  9  1  0
  9 10  1  0
 10 11  1  0
 10 12  1  0
 12 13  2  0
 13 14  1  0
 14 15  1  0
 14 16  2  0
 16 17  1  0
 17 18  2  0
 18 19  1  0
  5 20  1  0
 20 21  2  0
 21  2  1  0
 18 12  1  0
  1 22  1  0
  1 23  1  0
  1 24  1  0
  3 25  1  0
  4 26  1  0
  6 27  1  0
  9 28  1  0
 11 29  1  0
 11 30  1  0
 11 31  1  0
 15 32  1  0
 15 33  1  0
 15 34  1  0
 16 35  1  0
 19 36  1  0
 19 37  1  0
 19 38  1  0
 20 39  1  0
 21 40  1  0
M  END
$$$$
