
     RDKit          3D

 53 56  0  0  0  0  0  0  0  0999 V2000
   -2.5010    5.6865   -2.5303 C   0  0  0  0  0  0  0  0  0  0  0  0
   -2.3829    5.4558   -1.1322 O   0  0  0  0  0  0  0  0  0  0  0  0
   -1.9759    4.2088   -0.7438 C   0  0  0  0  0  0  0  0  0  0  0  0
   -1.9356    4.0140    0.6385 C   0  0  0  0  0  0  0  0  0  0  0  0
   -1.5300    2.7904    1.1762 C   0  0  0  0  0  0  0  0  0  0  0  0
   -1.1459    1.7363    0.3363 C   0  0  0  0  0  0  0  0  0  0  0  0
   -0.7288    0.4071    0.9429 C   0  0  0  0  0  0  0  0  0  0  0  0
   -1.9174   -0.5580    0.9929 C   0  0  0  0  0  0  0  0  0  0  0  0
   -1.3634   -1.7133    0.2110 C   0  0  0  0  0  0  0  0  0  0  0  0
   -2.1433   -2.9517   -0.0024 C   0  0  0  0  0  0  0  0  0  0  0  0
   -3.5206   -2.8360   -0.2469 C   0  0  0  0  0  0  0  0  0  0  0  0
   -4.2944   -3.9704   -0.4937 C   0  0  0  0  0  0  0  0  0  0  0  0
   -3.6999   -5.2262   -0.5047 C   0  0  0  0  0  0  0  0  0  0  0  0
   -2.3319   -5.3501   -0.2590 C   0  0  0  0  0  0  0  0  0  0  0  0
   -1.5315   -4.2194    0.0058 C   0  0  0  0  0  0  0  0  0  0  0  0
   -0.0644   -4.4202    0.3113 C   0  0  0  0  0  0  0  0  0  0  0  0
    0.3638   -3.7290    1.4037 F   0  0  0  0  0  0  0  0  0  0  0  0
    0.7614   -4.1099   -0.7225 F   0  0  0  0  0  0  0  0  0  0  0  0
    0.2212   -5.7280    0.6052 F   0  0  0  0  0  0  0  0  0  0  0  0
   -0.1595   -1.5578   -0.2363 N   0  0  0  0  0  0  0  0  0  0  0  0
    0.2652   -0.3157    0.1402 N   0  0  0  0  0  0  0  0  0  0  0  0
    1.6335   -0.0258    0.1209 C   0  0  0  0  0  0  0  0  0  0  0  0
    2.1693    1.1424    0.6898 C   0  0  0  0  0  0  0  0  0  0  0  0
    3.5430    1.4138    0.6590 C   0  0  0  0  0  0  0  0  0  0  0  0
    4.4102    0.5071    0.0524 C   0  0  0  0  0  0  0  0  0  0  0  0
    6.1480    0.8455    0.0167 S   0  0  0  0  0  6  0  0  0  0  0  0
    6.6299    0.2736    1.5273 N   0  0  0  0  0  0  0  0  0  0  0  0
    6.3354    2.2779    0.0607 O   0  0  0  0  0  0  0  0  0  0  0  0
    6.7680    0.0110   -0.9840 O   0  0  0  0  0  0  0  0  0  0  0  0
    3.9155   -0.6482   -0.5429 C   0  0  0  0  0  0  0  0  0  0  0  0
    2.5407   -0.9027   -0.5039 C   0  0  0  0  0  0  0  0  0  0  0  0
   -1.1972    1.9376   -1.0515 C   0  0  0  0  0  0  0  0  0  0  0  0
   -1.6055    3.1640   -1.5880 C   0  0  0  0  0  0  0  0  0  0  0  0
   -2.8434    6.7160   -2.6695 H   0  0  0  0  0  0  0  0  0  0  0  0
   -1.5332    5.5875   -3.0316 H   0  0  0  0  0  0  0  0  0  0  0  0
   -3.2498    5.0227   -2.9775 H   0  0  0  0  0  0  0  0  0  0  0  0
   -2.2174    4.8267    1.3038 H   0  0  0  0  0  0  0  0  0  0  0  0
   -1.5101    2.6734    2.2564 H   0  0  0  0  0  0  0  0  0  0  0  0
   -0.3479    0.5608    1.9612 H   0  0  0  0  0  0  0  0  0  0  0  0
   -2.8257   -0.1591    0.5341 H   0  0  0  0  0  0  0  0  0  0  0  0
   -2.1324   -0.8769    2.0177 H   0  0  0  0  0  0  0  0  0  0  0  0
   -4.0091   -1.8659   -0.2801 H   0  0  0  0  0  0  0  0  0  0  0  0
   -5.3586   -3.8718   -0.6951 H   0  0  0  0  0  0  0  0  0  0  0  0
   -4.2990   -6.1117   -0.7063 H   0  0  0  0  0  0  0  0  0  0  0  0
   -1.8867   -6.3459   -0.2682 H   0  0  0  0  0  0  0  0  0  0  0  0
    1.5244    1.8790    1.1601 H   0  0  0  0  0  0  0  0  0  0  0  0
    3.9181    2.3301    1.1080 H   0  0  0  0  0  0  0  0  0  0  0  0
    5.9105   -0.2789    1.9930 H   0  0  0  0  0  0  0  0  0  0  0  0
    6.9479    1.0602    2.0948 H   0  0  0  0  0  0  0  0  0  0  0  0
    4.5768   -1.3539   -1.0402 H   0  0  0  0  0  0  0  0  0  0  0  0
    2.1689   -1.8086   -0.9805 H   0  0  0  0  0  0  0  0  0  0  0  0
   -0.8993    1.1380   -1.7289 H   0  0  0  0  0  0  0  0  0  0  0  0
   -1.6102    3.2687   -2.6687 H   0  0  0  0  0  0  0  0  0  0  0  0
  1  2  1  0
  2  3  1  0
  3  4  2  0
  4  5  1  0
  5  6  2  0
  6  7  1  0
  7  8  1  0
  8  9  1  0
  9 10  1  0
 10 11  2  0
 11 12  1  0
 12 13  2  0
 13 14  1  0
 14 15  2  0
 15 16  1  0
 16 17  1  0
 16 18  1  0
 16 19  1  0
  9 20  2  0
 20 21  1  0
 21 22  1  0
 22 23  2  0
 23 24  1  0
 24 25  2  0
 25 26  1  0
 26 27  1  0
 26 28  2  0
 26 29  2  0
 25 30  1  0
 30 31  2  0
  6 32  1  0
 32 33  2  0
 33  3  1  0
 21  7  1  0
 31 22  1  0
 15 10  1  0
  1 34  1  0
  1 35  1  0
  1 36  1  0
  4 37  1  0
  5 38  1  0
  7 39  1  0
  8 40  1  0
  8 41  1  0
 11 42  1  0
 12 43  1  0
 13 44  1  0
 14 45  1  0
 23 46  1  0
 24 47  1  0
 27 48  1  0
 27 49  1  0
 30 50  1  0
 31 51  1  0
 32 52  1  0
 33 53  1  0
M  END
$$$$
