
     RDKit          3D

 32 34  0  0  0  0  0  0  0  0999 V2000
    4.6112   -0.2862    1.5237 C   0  0  0  0  0  0  0  0  0  0  0  0
    3.6067    0.0338    0.4544 C   0  0  0  0  0  0  0  0  0  0  0  0
    4.0037    0.7499   -0.6868 C   0  0  0  0  0  0  0  0  0  0  0  0
    3.1084    1.0421   -1.7250 C   0  0  0  0  0  0  0  0  0  0  0  0
    1.8024    0.5749   -1.5703 C   0  0  0  0  0  0  0  0  0  0  0  0
    0.6892    0.6649   -2.3661 N   0  0  0  0  0  0  0  0  0  0  0  0
   -0.3670    0.0301   -1.7339 C   0  0  0  0  0  0  0  0  0  0  0  0
   -1.6482    0.0023   -2.3721 C   0  0  0  0  0  0  0  0  0  0  0  0
   -1.7335    0.2372   -3.7836 C   0  0  0  0  0  0  0  0  0  0  0  0
   -1.7560    0.4530   -4.9238 N   0  0  0  0  0  0  0  0  0  0  0  0
   -2.8128   -0.1984   -1.7189 C   0  0  0  0  0  0  0  0  0  0  0  0
   -2.9912   -0.4038   -0.3233 C   0  0  0  0  0  0  0  0  0  0  0  0
   -2.4898   -1.3845    0.5313 C   0  0  0  0  0  0  0  0  0  0  0  0
   -2.9952   -1.1430    1.8350 C   0  0  0  0  0  0  0  0  0  0  0  0
   -3.8060   -0.0464    1.7016 C   0  0  0  0  0  0  0  0  0  0  0  0
   -4.5968    0.6761    2.6483 N   0  0  0  0  0  4  0  0  0  0  0  0
   -4.5561    0.2731    3.8196 O   0  0  0  0  0  0  0  0  0  0  0  0
   -5.2615    1.6363    2.2363 O   0  0  0  0  0  1  0  0  0  0  0  0
   -3.8403    0.3959    0.4186 O   0  0  0  0  0  0  0  0  0  0  0  0
    0.0482   -0.4703   -0.5830 N   0  0  0  0  0  0  0  0  0  0  0  0
    1.3742   -0.1402   -0.4627 C   0  0  0  0  0  0  0  0  0  0  0  0
    2.2819   -0.4226    0.5682 C   0  0  0  0  0  0  0  0  0  0  0  0
    4.1169   -0.5551    2.4669 H   0  0  0  0  0  0  0  0  0  0  0  0
    5.2414   -1.1251    1.2057 H   0  0  0  0  0  0  0  0  0  0  0  0
    5.2459    0.5831    1.7239 H   0  0  0  0  0  0  0  0  0  0  0  0
    5.0346    1.0882   -0.7782 H   0  0  0  0  0  0  0  0  0  0  0  0
    3.4264    1.5933   -2.6034 H   0  0  0  0  0  0  0  0  0  0  0  0
    0.6603    1.1311   -3.2631 H   0  0  0  0  0  0  0  0  0  0  0  0
   -3.7461   -0.1354   -2.2775 H   0  0  0  0  0  0  0  0  0  0  0  0
   -1.8069   -2.1744    0.2393 H   0  0  0  0  0  0  0  0  0  0  0  0
   -2.7926   -1.6935    2.7434 H   0  0  0  0  0  0  0  0  0  0  0  0
    1.9486   -0.9863    1.4338 H   0  0  0  0  0  0  0  0  0  0  0  0
  1  2  1  0
  2  3  2  0
  3  4  1  0
  4  5  2  0
  5  6  1  0
  6  7  1  0
  7  8  1  0
  8  9  1  0
  9 10  3  0
  8 11  2  3
 11 12  1  0
 12 13  2  0
 13 14  1  0
 14 15  2  0
 15 16  1  0
 16 17  2  0
 16 18  1  0
 15 19  1  0
  7 20  2  0
 20 21  1  0
 21 22  2  0
 22  2  1  0
 21  5  1  0
 19 12  1  0
  1 23  1  0
  1 24  1  0
  1 25  1  0
  3 26  1  0
  4 27  1  0
  6 28  1  0
 11 29  1  0
 13 30  1  0
 14 31  1  0
 22 32  1  0
M  CHG  2  16   1  18  -1
M  END
$$$$
