
     RDKit          3D

 57 60  0  0  0  0  0  0  0  0999 V2000
    7.7634   -2.4420    0.3700 C   0  0  0  0  0  0  0  0  0  0  0  0
    6.4973   -2.3295    1.0090 O   0  0  0  0  0  0  0  0  0  0  0  0
    5.5361   -1.6066    0.3571 C   0  0  0  0  0  0  0  0  0  0  0  0
    5.6822   -0.9763   -0.8729 C   0  0  0  0  0  0  0  0  0  0  0  0
    4.6081   -0.2724   -1.4235 C   0  0  0  0  0  0  0  0  0  0  0  0
    3.3726   -0.1841   -0.7561 C   0  0  0  0  0  0  0  0  0  0  0  0
    2.2995    0.5990   -1.4583 C   0  0  0  0  0  0  0  0  0  0  0  0
    2.5084    1.0780   -2.5697 O   0  0  0  0  0  0  0  0  0  0  0  0
    1.0968    0.7494   -0.8145 N   0  0  0  0  0  0  0  0  0  0  0  0
   -0.0385    1.4088   -1.4210 C   0  0  0  0  0  0  0  0  0  0  0  0
   -0.7415    0.5205   -2.4757 C   0  0  0  0  0  0  0  0  0  0  0  0
   -1.7448   -0.5286   -1.8988 C   0  0  0  0  0  0  0  0  0  0  0  0
   -1.0179   -1.6138   -1.0790 C   0  0  0  0  0  0  0  0  0  0  0  0
   -2.4435   -1.2307   -3.0814 C   0  0  0  0  0  0  0  0  0  0  0  0
   -2.8309    0.1659   -1.0195 C   0  0  0  0  0  0  0  0  0  0  0  0
   -2.2414    1.2264   -0.1493 C   0  0  0  0  0  0  0  0  0  0  0  0
   -0.9843    1.7762   -0.3315 C   0  0  0  0  0  0  0  0  0  0  0  0
   -0.8283    2.6724    0.7298 C   0  0  0  0  0  0  0  0  0  0  0  0
   -1.8849    2.6879    1.5374 N   0  0  0  0  0  0  0  0  0  0  0  0
   -2.7973    1.8449    0.9657 N   0  0  0  0  0  0  0  0  0  0  0  0
   -4.0951    1.7343    1.5584 C   0  0  0  0  0  0  0  0  0  0  0  0
   -4.3100    2.3117    2.8240 C   0  0  0  0  0  0  0  0  0  0  0  0
   -5.5574    2.2302    3.4485 C   0  0  0  0  0  0  0  0  0  0  0  0
   -6.6107    1.5797    2.8147 C   0  0  0  0  0  0  0  0  0  0  0  0
   -6.4180    1.0193    1.5547 C   0  0  0  0  0  0  0  0  0  0  0  0
   -5.1691    1.0983    0.9258 C   0  0  0  0  0  0  0  0  0  0  0  0
    3.2231   -0.8203    0.4933 C   0  0  0  0  0  0  0  0  0  0  0  0
    2.0064   -0.7242    1.1215 O   0  0  0  0  0  0  0  0  0  0  0  0
    1.8741   -1.2941    2.4195 C   0  0  0  0  0  0  0  0  0  0  0  0
    4.3113   -1.5257    1.0308 C   0  0  0  0  0  0  0  0  0  0  0  0
    7.6761   -2.9601   -0.5908 H   0  0  0  0  0  0  0  0  0  0  0  0
    8.2333   -1.4601    0.2495 H   0  0  0  0  0  0  0  0  0  0  0  0
    8.4105   -3.0441    1.0151 H   0  0  0  0  0  0  0  0  0  0  0  0
    6.6107   -1.0099   -1.4331 H   0  0  0  0  0  0  0  0  0  0  0  0
    4.7419    0.2141   -2.3892 H   0  0  0  0  0  0  0  0  0  0  0  0
    0.9734    0.2808    0.0772 H   0  0  0  0  0  0  0  0  0  0  0  0
    0.3285    2.3155   -1.9177 H   0  0  0  0  0  0  0  0  0  0  0  0
   -1.3072    1.1892   -3.1410 H   0  0  0  0  0  0  0  0  0  0  0  0
    0.0008    0.0200   -3.1102 H   0  0  0  0  0  0  0  0  0  0  0  0
   -0.6320   -1.2317   -0.1303 H   0  0  0  0  0  0  0  0  0  0  0  0
   -1.6979   -2.4372   -0.8307 H   0  0  0  0  0  0  0  0  0  0  0  0
   -0.1792   -2.0380   -1.6423 H   0  0  0  0  0  0  0  0  0  0  0  0
   -2.9701   -0.5100   -3.7169 H   0  0  0  0  0  0  0  0  0  0  0  0
   -3.1799   -1.9617   -2.7288 H   0  0  0  0  0  0  0  0  0  0  0  0
   -1.7189   -1.7609   -3.7098 H   0  0  0  0  0  0  0  0  0  0  0  0
   -3.5713    0.6411   -1.6755 H   0  0  0  0  0  0  0  0  0  0  0  0
   -3.3407   -0.5947   -0.4177 H   0  0  0  0  0  0  0  0  0  0  0  0
    0.0231    3.2993    0.9640 H   0  0  0  0  0  0  0  0  0  0  0  0
   -3.5055    2.8274    3.3466 H   0  0  0  0  0  0  0  0  0  0  0  0
   -5.7018    2.6781    4.4283 H   0  0  0  0  0  0  0  0  0  0  0  0
   -7.5826    1.5181    3.2972 H   0  0  0  0  0  0  0  0  0  0  0  0
   -7.2465    0.5262    1.0515 H   0  0  0  0  0  0  0  0  0  0  0  0
   -5.0994    0.6813   -0.0691 H   0  0  0  0  0  0  0  0  0  0  0  0
    2.5766   -0.8390    3.1252 H   0  0  0  0  0  0  0  0  0  0  0  0
    0.8613   -1.0797    2.7736 H   0  0  0  0  0  0  0  0  0  0  0  0
    1.9905   -2.3817    2.3842 H   0  0  0  0  0  0  0  0  0  0  0  0
    4.2408   -2.0366    1.9863 H   0  0  0  0  0  0  0  0  0  0  0  0
  1  2  1  0
  2  3  1  0
  3  4  2  0
  4  5  1  0
  5  6  2  0
  6  7  1  0
  7  8  2  0
  7  9  1  0
  9 10  1  0
 10 11  1  0
 11 12  1  0
 12 13  1  0
 12 14  1  0
 12 15  1  0
 15 16  1  0
 16 17  2  0
 17 18  1  0
 18 19  2  0
 19 20  1  0
 20 21  1  0
 21 22  2  0
 22 23  1  0
 23 24  2  0
 24 25  1  0
 25 26  2  0
  6 27  1  0
 27 28  1  0
 28 29  1  0
 27 30  2  0
 30  3  1  0
 17 10  1  0
 26 21  1  0
 20 16  1  0
  1 31  1  0
  1 32  1  0
  1 33  1  0
  4 34  1  0
  5 35  1  0
  9 36  1  0
 10 37  1  0
 11 38  1  0
 11 39  1  0
 13 40  1  0
 13 41  1  0
 13 42  1  0
 14 43  1  0
 14 44  1  0
 14 45  1  0
 15 46  1  0
 15 47  1  0
 18 48  1  0
 22 49  1  0
 23 50  1  0
 24 51  1  0
 25 52  1  0
 26 53  1  0
 29 54  1  0
 29 55  1  0
 29 56  1  0
 30 57  1  0
M  END
$$$$
