
     RDKit          3D

 46 46  0  0  0  0  0  0  0  0999 V2000
   -2.0022   -0.7660    1.6173 O   0  0  0  0  0  0  0  0  0  0  0  0
   -1.8974   -0.1914    0.5401 C   0  0  0  0  0  0  0  0  0  0  0  0
   -0.5697    0.1881   -0.0760 C   0  0  0  0  0  0  0  0  0  0  0  0
    0.5996   -0.2459    0.7987 C   0  0  0  0  0  0  0  0  0  0  0  0
    1.9138    0.1410    0.1743 C   0  0  0  0  0  0  0  0  0  0  0  0
    2.0427    0.7198   -0.8956 O   0  0  0  0  0  0  0  0  0  0  0  0
    2.9384   -0.2580    0.9789 O   0  0  0  0  0  0  0  0  0  0  0  0
    4.2600    0.0683    0.5178 C   0  0  0  0  0  0  0  0  0  0  0  0
    4.7668   -1.0265   -0.4182 C   0  0  0  0  0  0  0  0  0  0  0  0
    6.0840   -0.6954   -1.1269 C   0  0  0  0  0  0  0  0  0  0  0  0
    7.2630   -0.4685   -0.1841 C   0  0  0  0  0  0  0  0  0  0  0  0
    7.3376   -1.5146    0.6852 F   0  0  0  0  0  0  0  0  0  0  0  0
    7.0186    0.6379    0.5725 F   0  0  0  0  0  0  0  0  0  0  0  0
    8.5824   -0.3068   -0.9445 C   0  0  0  0  0  0  0  0  0  0  0  0
    9.6296   -0.1004   -0.1124 F   0  0  0  0  0  0  0  0  0  0  0  0
    8.8687   -1.4052   -1.6864 F   0  0  0  0  0  0  0  0  0  0  0  0
    8.5361    0.7436   -1.8011 F   0  0  0  0  0  0  0  0  0  0  0  0
   -2.9731    0.1730   -0.2433 N   0  0  0  0  0  0  0  0  0  0  0  0
   -4.3451    0.0010    0.2138 C   0  0  0  0  0  0  0  0  0  0  0  0
   -5.2998   -0.1164   -0.9853 C   0  0  0  0  0  0  0  0  0  0  0  0
   -6.7374    0.3043   -0.6690 C   0  0  0  0  0  0  0  0  0  0  0  0
   -7.0814    0.1052    0.8001 C   0  0  0  0  0  0  0  0  0  0  0  0
   -6.1696    0.9267    1.7128 C   0  0  0  0  0  0  0  0  0  0  0  0
   -4.7651    1.1423    1.1440 C   0  0  0  0  0  0  0  0  0  0  0  0
   -0.5521    1.2755   -0.2179 H   0  0  0  0  0  0  0  0  0  0  0  0
   -0.4986   -0.2826   -1.0641 H   0  0  0  0  0  0  0  0  0  0  0  0
    0.5301    0.2312    1.7829 H   0  0  0  0  0  0  0  0  0  0  0  0
    0.5860   -1.3336    0.9318 H   0  0  0  0  0  0  0  0  0  0  0  0
    4.2753    1.0553    0.0408 H   0  0  0  0  0  0  0  0  0  0  0  0
    4.8889    0.1290    1.4112 H   0  0  0  0  0  0  0  0  0  0  0  0
    4.8684   -1.9615    0.1468 H   0  0  0  0  0  0  0  0  0  0  0  0
    4.0077   -1.2342   -1.1825 H   0  0  0  0  0  0  0  0  0  0  0  0
    5.9373    0.1947   -1.7503 H   0  0  0  0  0  0  0  0  0  0  0  0
    6.3149   -1.5315   -1.7980 H   0  0  0  0  0  0  0  0  0  0  0  0
   -2.8046    0.8104   -1.0118 H   0  0  0  0  0  0  0  0  0  0  0  0
   -4.3855   -0.9366    0.7841 H   0  0  0  0  0  0  0  0  0  0  0  0
   -4.9445    0.4832   -1.8333 H   0  0  0  0  0  0  0  0  0  0  0  0
   -5.2900   -1.1567   -1.3357 H   0  0  0  0  0  0  0  0  0  0  0  0
   -6.8692    1.3628   -0.9269 H   0  0  0  0  0  0  0  0  0  0  0  0
   -7.4326   -0.2588   -1.3020 H   0  0  0  0  0  0  0  0  0  0  0  0
   -8.1271    0.3750    0.9861 H   0  0  0  0  0  0  0  0  0  0  0  0
   -6.9847   -0.9588    1.0510 H   0  0  0  0  0  0  0  0  0  0  0  0
   -6.6234    1.9062    1.9068 H   0  0  0  0  0  0  0  0  0  0  0  0
   -6.1026    0.4240    2.6853 H   0  0  0  0  0  0  0  0  0  0  0  0
   -4.0544    1.2611    1.9707 H   0  0  0  0  0  0  0  0  0  0  0  0
   -4.7399    2.0897    0.5888 H   0  0  0  0  0  0  0  0  0  0  0  0
  1  2  2  0
  2  3  1  0
  3  4  1  0
  4  5  1  0
  5  6  2  0
  5  7  1  0
  7  8  1  0
  8  9  1  0
  9 10  1  0
 10 11  1  0
 11 12  1  0
 11 13  1  0
 11 14  1  0
 14 15  1  0
 14 16  1  0
 14 17  1  0
  2 18  1  0
 18 19  1  0
 19 20  1  0
 20 21  1  0
 21 22  1  0
 22 23  1  0
 23 24  1  0
 24 19  1  0
  3 25  1  0
  3 26  1  0
  4 27  1  0
  4 28  1  0
  8 29  1  0
  8 30  1  0
  9 31  1  0
  9 32  1  0
 10 33  1  0
 10 34  1  0
 18 35  1  0
 19 36  1  0
 20 37  1  0
 20 38  1  0
 21 39  1  0
 21 40  1  0
 22 41  1  0
 22 42  1  0
 23 43  1  0
 23 44  1  0
 24 45  1  0
 24 46  1  0
M  END
$$$$
