
     RDKit          3D

 52 56  0  0  0  0  0  0  0  0999 V2000
    0.1709    3.0052   -1.5805 O   0  0  0  0  0  0  0  0  0  0  0  0
    0.1540    1.9962   -0.8819 C   0  0  0  0  0  0  0  0  0  0  0  0
    1.4335    1.5330   -0.3118 C   0  0  0  0  0  0  0  0  0  0  0  0
    1.9728    0.3530   -0.8207 C   0  0  0  0  0  0  0  0  0  0  0  0
    3.1631   -0.1013   -0.2837 C   0  0  0  0  0  0  0  0  0  0  0  0
    3.8176   -1.3359   -0.7387 C   0  0  0  0  0  0  0  0  0  0  0  0
    5.1282   -1.2611   -1.2525 C   0  0  0  0  0  0  0  0  0  0  0  0
    5.7975   -2.3974   -1.7140 C   0  0  0  0  0  0  0  0  0  0  0  0
    5.1726   -3.6389   -1.6652 C   0  0  0  0  0  0  0  0  0  0  0  0
    3.8829   -3.7443   -1.1473 C   0  0  0  0  0  0  0  0  0  0  0  0
    3.2110   -2.6055   -0.6835 C   0  0  0  0  0  0  0  0  0  0  0  0
    1.6310   -2.8472   -0.0129 Cl  0  0  0  0  0  0  0  0  0  0  0  0
    3.8247    0.5859    0.6798 N   0  0  0  0  0  0  0  0  0  0  0  0
    3.3099    1.7343    1.1502 C   0  0  0  0  0  0  0  0  0  0  0  0
    4.0074    2.4132    2.1409 C   0  0  0  0  0  0  0  0  0  0  0  0
    3.5382    3.6103    2.6889 C   0  0  0  0  0  0  0  0  0  0  0  0
    2.3413    4.1442    2.2340 C   0  0  0  0  0  0  0  0  0  0  0  0
    1.6921    5.7604    2.9642 Br  0  0  0  0  0  0  0  0  0  0  0  0
    1.6189    3.4883    1.2414 C   0  0  0  0  0  0  0  0  0  0  0  0
    2.0957    2.2736    0.6876 C   0  0  0  0  0  0  0  0  0  0  0  0
   -0.9921    1.2636   -0.6095 N   0  0  0  0  0  0  0  0  0  0  0  0
   -2.2449    1.6728   -1.2522 C   0  0  0  0  0  0  0  0  0  0  0  0
   -3.3078    0.5631   -1.2468 C   0  0  0  0  0  0  0  0  0  0  0  0
   -3.5848    0.1200    0.1297 N   0  0  0  0  0  0  0  0  0  0  0  0
   -4.6101   -0.8124    0.2674 C   0  0  0  0  0  0  0  0  0  0  0  0
   -5.0831   -1.1772    1.5300 C   0  0  0  0  0  0  0  0  0  0  0  0
   -6.1217   -2.1004    1.6523 C   0  0  0  0  0  0  0  0  0  0  0  0
   -6.6825   -2.6417    0.5078 C   0  0  0  0  0  0  0  0  0  0  0  0
   -6.1802   -2.2254   -0.7090 C   0  0  0  0  0  0  0  0  0  0  0  0
   -5.1745   -1.3317   -0.8458 N   0  0  0  0  0  0  0  0  0  0  0  0
   -2.4386    0.0447    1.0509 C   0  0  0  0  0  0  0  0  0  0  0  0
   -1.0826    0.1286    0.3208 C   0  0  0  0  0  0  0  0  0  0  0  0
    1.4708   -0.1875   -1.6167 H   0  0  0  0  0  0  0  0  0  0  0  0
    5.6363   -0.2977   -1.2920 H   0  0  0  0  0  0  0  0  0  0  0  0
    6.8076   -2.3091   -2.1070 H   0  0  0  0  0  0  0  0  0  0  0  0
    5.6918   -4.5254   -2.0208 H   0  0  0  0  0  0  0  0  0  0  0  0
    3.4069   -4.7208   -1.0988 H   0  0  0  0  0  0  0  0  0  0  0  0
    4.9468    1.9968    2.4995 H   0  0  0  0  0  0  0  0  0  0  0  0
    4.1160    4.1093    3.4622 H   0  0  0  0  0  0  0  0  0  0  0  0
    0.6865    3.9240    0.8860 H   0  0  0  0  0  0  0  0  0  0  0  0
   -2.6111    2.5481   -0.7017 H   0  0  0  0  0  0  0  0  0  0  0  0
   -2.0379    1.9906   -2.2803 H   0  0  0  0  0  0  0  0  0  0  0  0
   -4.2193    0.9584   -1.7118 H   0  0  0  0  0  0  0  0  0  0  0  0
   -2.9490   -0.2809   -1.8507 H   0  0  0  0  0  0  0  0  0  0  0  0
   -4.6684   -0.7289    2.4262 H   0  0  0  0  0  0  0  0  0  0  0  0
   -6.4910   -2.3812    2.6340 H   0  0  0  0  0  0  0  0  0  0  0  0
   -7.4929   -3.3590    0.5605 H   0  0  0  0  0  0  0  0  0  0  0  0
   -6.5847   -2.6075   -1.6417 H   0  0  0  0  0  0  0  0  0  0  0  0
   -2.4373   -0.8803    1.6400 H   0  0  0  0  0  0  0  0  0  0  0  0
   -2.5186    0.8828    1.7538 H   0  0  0  0  0  0  0  0  0  0  0  0
   -0.2789    0.1746    1.0614 H   0  0  0  0  0  0  0  0  0  0  0  0
   -0.9340   -0.7766   -0.2799 H   0  0  0  0  0  0  0  0  0  0  0  0
  1  2  2  0
  2  3  1  0
  3  4  2  0
  4  5  1  0
  5  6  1  0
  6  7  2  0
  7  8  1  0
  8  9  2  0
  9 10  1  0
 10 11  2  0
 11 12  1  0
  5 13  2  0
 13 14  1  0
 14 15  2  0
 15 16  1  0
 16 17  2  0
 17 18  1  0
 17 19  1  0
 19 20  2  0
  2 21  1  0
 21 22  1  0
 22 23  1  0
 23 24  1  0
 24 25  1  0
 25 26  2  0
 26 27  1  0
 27 28  2  0
 28 29  1  0
 29 30  2  0
 24 31  1  0
 31 32  1  0
 20  3  1  0
 32 21  1  0
 11  6  1  0
 20 14  1  0
 30 25  1  0
  4 33  1  0
  7 34  1  0
  8 35  1  0
  9 36  1  0
 10 37  1  0
 15 38  1  0
 16 39  1  0
 19 40  1  0
 22 41  1  0
 22 42  1  0
 23 43  1  0
 23 44  1  0
 26 45  1  0
 27 46  1  0
 28 47  1  0
 29 48  1  0
 31 49  1  0
 31 50  1  0
 32 51  1  0
 32 52  1  0
M  END
$$$$
