
     RDKit          3D

 55 58  0  0  0  0  0  0  0  0999 V2000
   -7.5071   -1.5734   -1.2824 C   0  0  0  0  0  0  0  0  0  0  0  0
   -6.9228   -0.8185   -0.2311 O   0  0  0  0  0  0  0  0  0  0  0  0
   -5.5938   -0.4944   -0.3415 C   0  0  0  0  0  0  0  0  0  0  0  0
   -4.7721   -0.8772   -1.4034 C   0  0  0  0  0  0  0  0  0  0  0  0
   -3.4233   -0.5019   -1.4288 C   0  0  0  0  0  0  0  0  0  0  0  0
   -2.8553    0.2590   -0.3946 C   0  0  0  0  0  0  0  0  0  0  0  0
   -1.4306    0.6533   -0.4013 C   0  0  0  0  0  0  0  0  0  0  0  0
   -0.4335   -0.1324   -0.9515 C   0  0  0  0  0  0  0  0  0  0  0  0
    0.8803    0.3312   -0.8964 C   0  0  0  0  0  0  0  0  0  0  0  0
    1.9119   -0.5475   -1.4793 C   0  0  0  0  0  0  0  0  0  0  0  0
    1.8833   -0.7184   -2.6951 O   0  0  0  0  0  0  0  0  0  0  0  0
    2.8500   -1.1460   -0.6304 N   0  0  0  0  0  0  0  0  0  0  0  0
    2.6091   -1.3404    0.8023 C   0  0  0  0  0  0  0  0  0  0  0  0
    3.9103   -1.3536    1.5945 C   0  0  0  0  0  0  0  0  0  0  0  0
    4.9067   -2.3502    1.0100 C   0  0  0  0  0  0  0  0  0  0  0  0
    5.1383   -2.1463   -0.4935 C   0  0  0  0  0  0  0  0  0  0  0  0
    6.0126   -0.9403   -0.7992 C   0  0  0  0  0  0  0  0  0  0  0  0
    6.2808   -0.8604   -2.1217 F   0  0  0  0  0  0  0  0  0  0  0  0
    7.2023   -1.0469   -0.1614 F   0  0  0  0  0  0  0  0  0  0  0  0
    5.4571    0.2282   -0.4214 F   0  0  0  0  0  0  0  0  0  0  0  0
    3.8134   -2.0554   -1.2489 C   0  0  0  0  0  0  0  0  0  0  0  0
    1.1959    1.5865   -0.3395 C   0  0  0  0  0  0  0  0  0  0  0  0
    2.4946    2.1534   -0.3000 C   0  0  0  0  0  0  0  0  0  0  0  0
    2.7154    3.3975    0.2858 C   0  0  0  0  0  0  0  0  0  0  0  0
    1.6466    4.0925    0.8329 C   0  0  0  0  0  0  0  0  0  0  0  0
    0.3641    3.5401    0.7849 C   0  0  0  0  0  0  0  0  0  0  0  0
    0.1168    2.3026    0.2051 C   0  0  0  0  0  0  0  0  0  0  0  0
   -1.1468    1.8419    0.1892 N   0  0  0  0  0  0  0  0  0  0  0  0
   -3.7011    0.6466    0.6633 C   0  0  0  0  0  0  0  0  0  0  0  0
   -5.0545    0.2816    0.7005 C   0  0  0  0  0  0  0  0  0  0  0  0
   -5.9212    0.6229    1.7103 O   0  0  0  0  0  0  0  0  0  0  0  0
   -5.4531    1.5300    2.6981 C   0  0  0  0  0  0  0  0  0  0  0  0
   -7.0376   -2.5588   -1.3690 H   0  0  0  0  0  0  0  0  0  0  0  0
   -7.4647   -1.0289   -2.2314 H   0  0  0  0  0  0  0  0  0  0  0  0
   -8.5619   -1.7291   -1.0362 H   0  0  0  0  0  0  0  0  0  0  0  0
   -5.1484   -1.4645   -2.2343 H   0  0  0  0  0  0  0  0  0  0  0  0
   -2.8268   -0.8022   -2.2883 H   0  0  0  0  0  0  0  0  0  0  0  0
   -0.6497   -1.0943   -1.4038 H   0  0  0  0  0  0  0  0  0  0  0  0
    1.9478   -0.5728    1.2095 H   0  0  0  0  0  0  0  0  0  0  0  0
    2.0857   -2.2984    0.9112 H   0  0  0  0  0  0  0  0  0  0  0  0
    3.7020   -1.6106    2.6394 H   0  0  0  0  0  0  0  0  0  0  0  0
    4.3489   -0.3494    1.5993 H   0  0  0  0  0  0  0  0  0  0  0  0
    4.5187   -3.3648    1.1696 H   0  0  0  0  0  0  0  0  0  0  0  0
    5.8546   -2.2915    1.5573 H   0  0  0  0  0  0  0  0  0  0  0  0
    5.6798   -3.0244   -0.8692 H   0  0  0  0  0  0  0  0  0  0  0  0
    3.3346   -3.0433   -1.2707 H   0  0  0  0  0  0  0  0  0  0  0  0
    3.9894   -1.7732   -2.2932 H   0  0  0  0  0  0  0  0  0  0  0  0
    3.3444    1.6289   -0.7336 H   0  0  0  0  0  0  0  0  0  0  0  0
    3.7167    3.8206    0.3080 H   0  0  0  0  0  0  0  0  0  0  0  0
    1.8016    5.0663    1.2902 H   0  0  0  0  0  0  0  0  0  0  0  0
   -0.4700    4.0966    1.2071 H   0  0  0  0  0  0  0  0  0  0  0  0
   -3.2677    1.2392    1.4644 H   0  0  0  0  0  0  0  0  0  0  0  0
   -5.1310    2.4759    2.2500 H   0  0  0  0  0  0  0  0  0  0  0  0
   -6.2869    1.7495    3.3719 H   0  0  0  0  0  0  0  0  0  0  0  0
   -4.6535    1.0810    3.2963 H   0  0  0  0  0  0  0  0  0  0  0  0
  1  2  1  0
  2  3  1  0
  3  4  2  0
  4  5  1  0
  5  6  2  0
  6  7  1  0
  7  8  2  0
  8  9  1  0
  9 10  1  0
 10 11  2  0
 10 12  1  0
 12 13  1  0
 13 14  1  0
 14 15  1  0
 15 16  1  0
 16 17  1  0
 17 18  1  0
 17 19  1  0
 17 20  1  0
 16 21  1  0
  9 22  2  0
 22 23  1  0
 23 24  2  0
 24 25  1  0
 25 26  2  0
 26 27  1  0
 27 28  2  0
  6 29  1  0
 29 30  2  0
 30 31  1  0
 31 32  1  0
 30  3  1  0
 28  7  1  0
 21 12  1  0
 27 22  1  0
  1 33  1  0
  1 34  1  0
  1 35  1  0
  4 36  1  0
  5 37  1  0
  8 38  1  0
 13 39  1  0
 13 40  1  0
 14 41  1  0
 14 42  1  0
 15 43  1  0
 15 44  1  0
 16 45  1  0
 21 46  1  0
 21 47  1  0
 23 48  1  0
 24 49  1  0
 25 50  1  0
 26 51  1  0
 29 52  1  0
 32 53  1  0
 32 54  1  0
 32 55  1  0
M  END
$$$$
