
     RDKit          3D

 46 48  0  0  0  0  0  0  0  0999 V2000
    7.9522   -1.3446   -0.6477 C   0  0  0  0  0  0  0  0  0  0  0  0
    7.6094   -0.3020    0.2573 O   0  0  0  0  0  0  0  0  0  0  0  0
    6.2006   -0.1790    0.4565 C   0  0  0  0  0  0  0  0  0  0  0  0
    5.5474    0.6642   -0.6444 C   0  0  0  0  0  0  0  0  0  0  0  0
    4.1094    0.8295   -0.4330 N   0  0  0  0  0  0  0  0  0  0  0  0
    3.2663   -0.1871   -0.8471 C   0  0  0  0  0  0  0  0  0  0  0  0
    3.6148   -1.2320   -1.3801 O   0  0  0  0  0  0  0  0  0  0  0  0
    1.8559    0.1506   -0.5284 C   0  0  0  0  0  0  0  0  0  0  0  0
    0.8453   -0.6693   -0.8446 C   0  0  0  0  0  0  0  0  0  0  0  0
   -0.5707   -0.4182   -0.5528 C   0  0  0  0  0  0  0  0  0  0  0  0
   -1.2913    0.4408   -1.3848 C   0  0  0  0  0  0  0  0  0  0  0  0
   -2.6440    0.7055   -1.1367 C   0  0  0  0  0  0  0  0  0  0  0  0
   -3.3291    0.1312   -0.0581 C   0  0  0  0  0  0  0  0  0  0  0  0
   -4.6568    0.3949    0.1826 N   0  0  0  0  0  0  0  0  0  0  0  0
   -5.3779   -0.0355    1.3785 C   0  0  0  0  0  0  0  0  0  0  0  0
   -6.6724    0.7732    1.3405 C   0  0  0  0  0  0  0  0  0  0  0  0
   -6.9158    0.9629   -0.1461 C   0  0  0  0  0  0  0  0  0  0  0  0
   -5.5105    1.1896   -0.6971 C   0  0  0  0  0  0  0  0  0  0  0  0
   -2.5828   -0.7331    0.7611 C   0  0  0  0  0  0  0  0  0  0  0  0
   -1.2204   -1.0205    0.5336 C   0  0  0  0  0  0  0  0  0  0  0  0
   -0.5001   -1.9541    1.4679 C   0  0  0  0  0  0  0  0  0  0  0  0
    1.7785    1.6626    0.2808 S   0  0  0  0  0  0  0  0  0  0  0  0
    3.5225    1.8897    0.2253 C   0  0  0  0  0  0  0  0  0  0  0  0
    4.2648    3.2217    0.8995 S   0  0  0  0  0  0  0  0  0  0  0  0
    7.5452   -1.1497   -1.6434 H   0  0  0  0  0  0  0  0  0  0  0  0
    7.5937   -2.3089   -0.2750 H   0  0  0  0  0  0  0  0  0  0  0  0
    9.0422   -1.3861   -0.7231 H   0  0  0  0  0  0  0  0  0  0  0  0
    5.7360   -1.1687    0.5420 H   0  0  0  0  0  0  0  0  0  0  0  0
    6.0595    0.3169    1.4231 H   0  0  0  0  0  0  0  0  0  0  0  0
    5.7009    0.1866   -1.6189 H   0  0  0  0  0  0  0  0  0  0  0  0
    6.0433    1.6381   -0.7095 H   0  0  0  0  0  0  0  0  0  0  0  0
    1.0431   -1.6139   -1.3481 H   0  0  0  0  0  0  0  0  0  0  0  0
   -0.8117    0.9192   -2.2355 H   0  0  0  0  0  0  0  0  0  0  0  0
   -3.1511    1.3893   -1.8110 H   0  0  0  0  0  0  0  0  0  0  0  0
   -5.5934   -1.1086    1.3212 H   0  0  0  0  0  0  0  0  0  0  0  0
   -4.8301    0.1765    2.3030 H   0  0  0  0  0  0  0  0  0  0  0  0
   -7.4980    0.2659    1.8472 H   0  0  0  0  0  0  0  0  0  0  0  0
   -6.5212    1.7474    1.8212 H   0  0  0  0  0  0  0  0  0  0  0  0
   -7.5910    1.7945   -0.3655 H   0  0  0  0  0  0  0  0  0  0  0  0
   -7.3452    0.0488   -0.5739 H   0  0  0  0  0  0  0  0  0  0  0  0
   -5.4581    0.8657   -1.7420 H   0  0  0  0  0  0  0  0  0  0  0  0
   -5.2387    2.2493   -0.6300 H   0  0  0  0  0  0  0  0  0  0  0  0
   -3.0683   -1.2148    1.6061 H   0  0  0  0  0  0  0  0  0  0  0  0
   -1.1759   -2.3693    2.2232 H   0  0  0  0  0  0  0  0  0  0  0  0
   -0.0745   -2.7968    0.9136 H   0  0  0  0  0  0  0  0  0  0  0  0
    0.2983   -1.4223    1.9954 H   0  0  0  0  0  0  0  0  0  0  0  0
  1  2  1  0
  2  3  1  0
  3  4  1  0
  4  5  1  0
  5  6  1  0
  6  7  2  0
  6  8  1  0
  8  9  2  3
  9 10  1  0
 10 11  2  0
 11 12  1  0
 12 13  2  0
 13 14  1  0
 14 15  1  0
 15 16  1  0
 16 17  1  0
 17 18  1  0
 13 19  1  0
 19 20  2  0
 20 21  1  0
  8 22  1  0
 22 23  1  0
 23 24  2  0
 23  5  1  0
 20 10  1  0
 18 14  1  0
  1 25  1  0
  1 26  1  0
  1 27  1  0
  3 28  1  0
  3 29  1  0
  4 30  1  0
  4 31  1  0
  9 32  1  0
 11 33  1  0
 12 34  1  0
 15 35  1  0
 15 36  1  0
 16 37  1  0
 16 38  1  0
 17 39  1  0
 17 40  1  0
 18 41  1  0
 18 42  1  0
 19 43  1  0
 21 44  1  0
 21 45  1  0
 21 46  1  0
M  END
$$$$
