
     RDKit          3D

 41 43  0  0  0  0  0  0  0  0999 V2000
   -1.7500    0.7557   -0.0759 C   0  0  0  0  0  0  0  0  0  0  0  0
   -2.2441   -0.0930   -1.2206 C   0  0  0  0  0  0  0  0  0  0  0  0
   -3.5159   -0.5404   -1.2956 C   0  0  0  0  0  0  0  0  0  0  0  0
   -4.5458   -0.3726   -0.2633 C   0  0  0  0  0  0  0  0  0  0  0  0
   -5.7083    0.3468   -0.5607 C   0  0  0  0  0  0  0  0  0  0  0  0
   -6.7069    0.5012    0.4034 C   0  0  0  0  0  0  0  0  0  0  0  0
   -6.5520   -0.0683    1.6665 C   0  0  0  0  0  0  0  0  0  0  0  0
   -5.4007   -0.7948    1.9666 C   0  0  0  0  0  0  0  0  0  0  0  0
   -4.4015   -0.9499    1.0037 C   0  0  0  0  0  0  0  0  0  0  0  0
   -1.3638   -0.3261   -2.3627 C   0  0  0  0  0  0  0  0  0  0  0  0
   -0.0339   -0.5006   -2.4281 C   0  0  0  0  0  0  0  0  0  0  0  0
    0.7692   -0.6837   -3.9657 S   0  0  0  0  0  0  0  0  0  0  0  0
    2.3728   -0.7758   -3.2496 C   0  0  0  0  0  0  0  0  0  0  0  0
    3.7666   -0.9873   -4.1409 S   0  0  0  0  0  0  0  0  0  0  0  0
    2.2413   -0.6865   -1.8823 N   0  0  0  0  0  0  0  0  0  0  0  0
    3.3503   -0.7125   -1.0120 N   0  0  0  0  0  0  0  0  0  0  0  0
    3.8664    0.5243   -0.6598 C   0  0  0  0  0  0  0  0  0  0  0  0
    3.5404    1.5755   -1.2021 O   0  0  0  0  0  0  0  0  0  0  0  0
    4.8331    0.5310    0.4681 C   0  0  0  0  0  0  0  0  0  0  0  0
    5.6213   -0.5798    0.7727 C   0  0  0  0  0  0  0  0  0  0  0  0
    6.4970   -0.4755    1.8388 C   0  0  0  0  0  0  0  0  0  0  0  0
    6.6293    0.6347    2.5945 N   0  0  0  0  0  0  0  0  0  0  0  0
    5.8673    1.6998    2.2653 C   0  0  0  0  0  0  0  0  0  0  0  0
    4.9655    1.6996    1.2185 C   0  0  0  0  0  0  0  0  0  0  0  0
    0.9727   -0.6138   -1.3309 C   0  0  0  0  0  0  0  0  0  0  0  0
    0.7317   -0.7160   -0.1359 O   0  0  0  0  0  0  0  0  0  0  0  0
   -0.9495    1.4336   -0.3914 H   0  0  0  0  0  0  0  0  0  0  0  0
   -1.3880    0.1314    0.7457 H   0  0  0  0  0  0  0  0  0  0  0  0
   -2.5431    1.4002    0.3194 H   0  0  0  0  0  0  0  0  0  0  0  0
   -3.8626   -1.0918   -2.1681 H   0  0  0  0  0  0  0  0  0  0  0  0
   -5.8412    0.7977   -1.5411 H   0  0  0  0  0  0  0  0  0  0  0  0
   -7.6051    1.0662    0.1684 H   0  0  0  0  0  0  0  0  0  0  0  0
   -7.3294    0.0525    2.4165 H   0  0  0  0  0  0  0  0  0  0  0  0
   -5.2804   -1.2423    2.9497 H   0  0  0  0  0  0  0  0  0  0  0  0
   -3.5111   -1.5248    1.2478 H   0  0  0  0  0  0  0  0  0  0  0  0
   -1.9069   -0.3553   -3.3110 H   0  0  0  0  0  0  0  0  0  0  0  0
    3.2954   -1.4282   -0.2932 H   0  0  0  0  0  0  0  0  0  0  0  0
    5.5909   -1.4944    0.1926 H   0  0  0  0  0  0  0  0  0  0  0  0
    7.1416   -1.3040    2.1205 H   0  0  0  0  0  0  0  0  0  0  0  0
    6.0075    2.5811    2.8853 H   0  0  0  0  0  0  0  0  0  0  0  0
    4.3802    2.5859    0.9952 H   0  0  0  0  0  0  0  0  0  0  0  0
  1  2  1  0
  2  3  2  3
  3  4  1  0
  4  5  2  0
  5  6  1  0
  6  7  2  0
  7  8  1  0
  8  9  2  0
  2 10  1  0
 10 11  2  3
 11 12  1  0
 12 13  1  0
 13 14  2  0
 13 15  1  0
 15 16  1  0
 16 17  1  0
 17 18  2  0
 17 19  1  0
 19 20  2  0
 20 21  1  0
 21 22  2  0
 22 23  1  0
 23 24  2  0
 15 25  1  0
 25 26  2  0
  9  4  1  0
 25 11  1  0
 24 19  1  0
  1 27  1  0
  1 28  1  0
  1 29  1  0
  3 30  1  0
  5 31  1  0
  6 32  1  0
  7 33  1  0
  8 34  1  0
  9 35  1  0
 10 36  1  0
 16 37  1  0
 20 38  1  0
 21 39  1  0
 23 40  1  0
 24 41  1  0
M  END
$$$$
