
     RDKit          3D

 58 61  0  0  0  0  0  0  0  0999 V2000
    3.5814    1.9102   -1.1164 O   0  0  0  0  0  0  0  0  0  0  0  0
    2.7854    1.3312   -0.3818 C   0  0  0  0  0  0  0  0  0  0  0  0
    3.1660    0.3459    0.5000 N   0  0  0  0  0  0  0  0  0  0  0  0
    4.5470   -0.0881    0.6031 C   0  0  0  0  0  0  0  0  0  0  0  0
    4.9400   -1.0397   -0.5294 C   0  0  0  0  0  0  0  0  0  0  0  0
    6.3681   -1.5077   -0.3956 C   0  0  0  0  0  0  0  0  0  0  0  0
    6.6663   -2.7200    0.2416 C   0  0  0  0  0  0  0  0  0  0  0  0
    7.9921   -3.1381    0.3777 C   0  0  0  0  0  0  0  0  0  0  0  0
    9.0239   -2.3443   -0.1191 C   0  0  0  0  0  0  0  0  0  0  0  0
   10.6564   -2.8605    0.0511 Cl  0  0  0  0  0  0  0  0  0  0  0  0
    8.7420   -1.1352   -0.7504 C   0  0  0  0  0  0  0  0  0  0  0  0
    7.4168   -0.7169   -0.8870 C   0  0  0  0  0  0  0  0  0  0  0  0
    1.2977    1.6634   -0.3993 C   0  0  0  0  0  0  0  0  0  0  0  0
    0.4570    0.4685   -0.8590 C   0  0  0  0  0  0  0  0  0  0  0  0
   -1.0310    0.8160   -0.8955 C   0  0  0  0  0  0  0  0  0  0  0  0
   -1.5285    1.3476    0.4608 C   0  0  0  0  0  0  0  0  0  0  0  0
   -3.0096    1.7630    0.3967 C   0  0  0  0  0  0  0  0  0  0  0  0
   -3.8578    0.6035    0.1595 N   0  0  0  0  0  0  0  0  0  0  0  0
   -5.2364    0.6187   -0.0141 C   0  0  0  0  0  0  0  0  0  0  0  0
   -5.8625    1.8099   -0.2701 N   0  0  0  0  0  0  0  0  0  0  0  0
   -7.2077    1.9880   -0.4562 C   0  0  0  0  0  0  0  0  0  0  0  0
   -7.7512    3.5427   -0.7726 S   0  0  0  0  0  0  0  0  0  0  0  0
   -8.0296    0.9012   -0.3698 N   0  0  0  0  0  0  0  0  0  0  0  0
   -7.4786   -0.2467   -0.1392 C   0  0  0  0  0  0  0  0  0  0  0  0
   -8.3568   -1.4468   -0.0406 C   0  0  0  0  0  0  0  0  0  0  0  0
   -7.8386   -2.6612    0.1831 C   0  0  0  0  0  0  0  0  0  0  0  0
   -6.4199   -2.8736    0.3283 C   0  0  0  0  0  0  0  0  0  0  0  0
   -5.5518   -1.8538    0.2657 C   0  0  0  0  0  0  0  0  0  0  0  0
   -6.0086   -0.4905    0.0489 C   0  0  0  0  0  0  0  0  0  0  0  0
   -0.6693    2.5367    0.9219 C   0  0  0  0  0  0  0  0  0  0  0  0
    0.8171    2.1857    0.9580 C   0  0  0  0  0  0  0  0  0  0  0  0
    2.4667   -0.1465    1.0384 H   0  0  0  0  0  0  0  0  0  0  0  0
    5.1914    0.7991    0.6039 H   0  0  0  0  0  0  0  0  0  0  0  0
    4.6559   -0.5787    1.5768 H   0  0  0  0  0  0  0  0  0  0  0  0
    4.2654   -1.9057   -0.5402 H   0  0  0  0  0  0  0  0  0  0  0  0
    4.8081   -0.5558   -1.5054 H   0  0  0  0  0  0  0  0  0  0  0  0
    5.8697   -3.3483    0.6338 H   0  0  0  0  0  0  0  0  0  0  0  0
    8.2128   -4.0811    0.8703 H   0  0  0  0  0  0  0  0  0  0  0  0
    9.5455   -0.5144   -1.1376 H   0  0  0  0  0  0  0  0  0  0  0  0
    7.2050    0.2306   -1.3805 H   0  0  0  0  0  0  0  0  0  0  0  0
    1.1726    2.4698   -1.1358 H   0  0  0  0  0  0  0  0  0  0  0  0
    0.7824    0.1452   -1.8553 H   0  0  0  0  0  0  0  0  0  0  0  0
    0.6054   -0.3902   -0.1928 H   0  0  0  0  0  0  0  0  0  0  0  0
   -1.5950   -0.0787   -1.1836 H   0  0  0  0  0  0  0  0  0  0  0  0
   -1.2067    1.5667   -1.6765 H   0  0  0  0  0  0  0  0  0  0  0  0
   -1.4210    0.5436    1.2024 H   0  0  0  0  0  0  0  0  0  0  0  0
   -3.3040    2.2281    1.3451 H   0  0  0  0  0  0  0  0  0  0  0  0
   -3.1471    2.5046   -0.3990 H   0  0  0  0  0  0  0  0  0  0  0  0
   -3.5229   -0.2425    0.6092 H   0  0  0  0  0  0  0  0  0  0  0  0
   -5.3044    2.6448   -0.3560 H   0  0  0  0  0  0  0  0  0  0  0  0
   -9.4218   -1.2849   -0.1579 H   0  0  0  0  0  0  0  0  0  0  0  0
   -8.4889   -3.5284    0.2522 H   0  0  0  0  0  0  0  0  0  0  0  0
   -6.0727   -3.8916    0.4808 H   0  0  0  0  0  0  0  0  0  0  0  0
   -4.4921   -2.0568    0.3593 H   0  0  0  0  0  0  0  0  0  0  0  0
   -0.8225    3.3904    0.2492 H   0  0  0  0  0  0  0  0  0  0  0  0
   -0.9855    2.8600    1.9209 H   0  0  0  0  0  0  0  0  0  0  0  0
    0.9880    1.4396    1.7438 H   0  0  0  0  0  0  0  0  0  0  0  0
    1.3966    3.0722    1.2430 H   0  0  0  0  0  0  0  0  0  0  0  0
  1  2  2  0
  2  3  1  0
  3  4  1  0
  4  5  1  0
  5  6  1  0
  6  7  2  0
  7  8  1  0
  8  9  2  0
  9 10  1  0
  9 11  1  0
 11 12  2  0
  2 13  1  0
 13 14  1  0
 14 15  1  0
 15 16  1  0
 16 17  1  0
 17 18  1  0
 18 19  1  0
 19 20  1  0
 20 21  1  0
 21 22  2  0
 21 23  1  0
 23 24  2  0
 24 25  1  0
 25 26  2  0
 26 27  1  0
 27 28  2  0
 28 29  1  0
 16 30  1  0
 30 31  1  0
 12  6  1  0
 31 13  1  0
 29 19  2  0
 29 24  1  0
  3 32  1  0
  4 33  1  0
  4 34  1  0
  5 35  1  0
  5 36  1  0
  7 37  1  0
  8 38  1  0
 11 39  1  0
 12 40  1  0
 13 41  1  0
 14 42  1  0
 14 43  1  0
 15 44  1  0
 15 45  1  0
 16 46  1  0
 17 47  1  0
 17 48  1  0
 18 49  1  0
 20 50  1  0
 25 51  1  0
 26 52  1  0
 27 53  1  0
 28 54  1  0
 30 55  1  0
 30 56  1  0
 31 57  1  0
 31 58  1  0
M  END
$$$$
