
     RDKit          3D

 45 46  0  0  0  0  0  0  0  0999 V2000
    4.9045   -1.4936    3.0882 C   0  0  0  0  0  0  0  0  0  0  0  0
    4.1458   -1.9298    1.8702 C   0  0  0  0  0  0  0  0  0  0  0  0
    4.6586   -2.9258    1.0347 C   0  0  0  0  0  0  0  0  0  0  0  0
    3.9596   -3.3096   -0.1086 C   0  0  0  0  0  0  0  0  0  0  0  0
    2.7527   -2.6881   -0.4394 C   0  0  0  0  0  0  0  0  0  0  0  0
    2.2454   -1.6631    0.3583 C   0  0  0  0  0  0  0  0  0  0  0  0
    1.0187   -1.0116    0.1118 N   0  0  0  0  0  0  0  0  0  0  0  0
    0.3053   -0.8144   -1.0640 C   0  0  0  0  0  0  0  0  0  0  0  0
    0.9773   -0.8281   -2.6044 S   0  0  0  0  0  0  0  0  0  0  0  0
   -1.0535   -0.5178   -0.7963 N   0  0  0  0  0  0  0  0  0  0  0  0
   -1.9220    0.1698   -1.7810 C   0  0  0  0  0  0  0  0  0  0  0  0
   -1.6021    1.6772   -1.9051 C   0  0  0  0  0  0  0  0  0  0  0  0
   -2.5171    2.4018   -2.8123 N   0  0  0  0  0  0  0  0  0  0  0  0
   -3.8374    2.5968   -2.2086 C   0  0  0  0  0  0  0  0  0  0  0  0
   -1.9420    3.7040   -3.1624 C   0  0  0  0  0  0  0  0  0  0  0  0
   -1.7481   -1.1824    0.3210 C   0  0  0  0  0  0  0  0  0  0  0  0
   -1.8933   -0.2733    1.5084 C   0  0  0  0  0  0  0  0  0  0  0  0
   -1.1804   -0.3002    2.6943 C   0  0  0  0  0  0  0  0  0  0  0  0
   -1.6039    0.7038    3.6114 C   0  0  0  0  0  0  0  0  0  0  0  0
   -2.6463    1.4494    3.1110 C   0  0  0  0  0  0  0  0  0  0  0  0
   -3.1176    0.9279    1.5544 S   0  0  0  0  0  0  0  0  0  0  0  0
    2.9404   -1.3023    1.5215 C   0  0  0  0  0  0  0  0  0  0  0  0
    5.5698   -0.6620    2.8365 H   0  0  0  0  0  0  0  0  0  0  0  0
    4.2192   -1.1731    3.8799 H   0  0  0  0  0  0  0  0  0  0  0  0
    5.5042   -2.3163    3.4918 H   0  0  0  0  0  0  0  0  0  0  0  0
    5.6010   -3.4144    1.2715 H   0  0  0  0  0  0  0  0  0  0  0  0
    4.3511   -4.0988   -0.7456 H   0  0  0  0  0  0  0  0  0  0  0  0
    2.2184   -3.0455   -1.3133 H   0  0  0  0  0  0  0  0  0  0  0  0
    0.7120   -0.3858    0.8450 H   0  0  0  0  0  0  0  0  0  0  0  0
   -2.9629    0.0337   -1.4726 H   0  0  0  0  0  0  0  0  0  0  0  0
   -1.8278   -0.3230   -2.7547 H   0  0  0  0  0  0  0  0  0  0  0  0
   -0.5791    1.7711   -2.2874 H   0  0  0  0  0  0  0  0  0  0  0  0
   -1.5909    2.1466   -0.9134 H   0  0  0  0  0  0  0  0  0  0  0  0
   -4.4927    3.1491   -2.8922 H   0  0  0  0  0  0  0  0  0  0  0  0
   -4.3360    1.6414   -2.0206 H   0  0  0  0  0  0  0  0  0  0  0  0
   -3.7834    3.1522   -1.2653 H   0  0  0  0  0  0  0  0  0  0  0  0
   -0.9818    3.5768   -3.6749 H   0  0  0  0  0  0  0  0  0  0  0  0
   -1.7834    4.3362   -2.2812 H   0  0  0  0  0  0  0  0  0  0  0  0
   -2.5963    4.2398   -3.8594 H   0  0  0  0  0  0  0  0  0  0  0  0
   -2.7239   -1.5465   -0.0222 H   0  0  0  0  0  0  0  0  0  0  0  0
   -1.1881   -2.0791    0.6141 H   0  0  0  0  0  0  0  0  0  0  0  0
   -0.3902   -1.0135    2.9002 H   0  0  0  0  0  0  0  0  0  0  0  0
   -1.1743    0.8642    4.5929 H   0  0  0  0  0  0  0  0  0  0  0  0
   -3.1657    2.2678    3.5909 H   0  0  0  0  0  0  0  0  0  0  0  0
    2.5560   -0.5117    2.1617 H   0  0  0  0  0  0  0  0  0  0  0  0
  1  2  1  0
  2  3  2  0
  3  4  1  0
  4  5  2  0
  5  6  1  0
  6  7  1  0
  7  8  1  0
  8  9  2  0
  8 10  1  0
 10 11  1  0
 11 12  1  0
 12 13  1  0
 13 14  1  0
 13 15  1  0
 10 16  1  0
 16 17  1  0
 17 18  2  0
 18 19  1  0
 19 20  2  0
 20 21  1  0
  6 22  2  0
 22  2  1  0
 21 17  1  0
  1 23  1  0
  1 24  1  0
  1 25  1  0
  3 26  1  0
  4 27  1  0
  5 28  1  0
  7 29  1  0
 11 30  1  0
 11 31  1  0
 12 32  1  0
 12 33  1  0
 14 34  1  0
 14 35  1  0
 14 36  1  0
 15 37  1  0
 15 38  1  0
 15 39  1  0
 16 40  1  0
 16 41  1  0
 18 42  1  0
 19 43  1  0
 20 44  1  0
 22 45  1  0
M  END
$$$$
