
     RDKit          3D

 69 71  0  0  0  0  0  0  0  0999 V2000
   -6.5169   -0.1792    0.0523 C   0  0  0  0  0  0  0  0  0  0  0  0
   -5.6058   -0.3586   -1.1508 C   0  0  0  0  0  0  0  0  0  0  0  0
   -5.1987    0.9613   -1.8211 C   0  0  0  0  0  0  0  0  0  0  0  0
   -4.4600    1.8951   -0.9634 N   0  0  0  0  0  0  0  0  0  0  0  0
   -4.8376    3.3126   -1.0336 C   0  0  0  0  0  0  0  0  0  0  0  0
   -5.8308    3.7287    0.0521 C   0  0  0  0  0  0  0  0  0  0  0  0
   -7.2815    3.5574   -0.3698 C   0  0  0  0  0  0  0  0  0  0  0  0
   -3.2246    1.4782   -0.4459 C   0  0  0  0  0  0  0  0  0  0  0  0
   -2.7294    0.3892   -0.7414 O   0  0  0  0  0  0  0  0  0  0  0  0
   -2.5166    2.4414    0.5212 C   0  0  0  0  0  0  0  0  0  0  0  0
   -1.5355    1.7312    1.3432 N   0  0  0  0  0  0  0  0  0  0  0  0
   -0.2089    1.7101    0.8980 C   0  0  0  0  0  0  0  0  0  0  0  0
    0.1387    2.3453   -0.1029 O   0  0  0  0  0  0  0  0  0  0  0  0
    0.7132    0.9637    1.6468 N   0  0  0  0  0  0  0  0  0  0  0  0
    2.0947    0.9413    1.1728 C   0  0  0  0  0  0  0  0  0  0  0  0
    2.3116   -0.0135   -0.0107 C   0  0  0  0  0  0  0  0  0  0  0  0
    2.1974   -1.4901    0.3777 C   0  0  0  0  0  0  0  0  0  0  0  0
    2.2970   -2.4503   -0.8154 C   0  0  0  0  0  0  0  0  0  0  0  0
    3.5886   -2.3563   -1.6271 C   0  0  0  0  0  0  0  0  0  0  0  0
    4.8307   -2.8077   -0.8713 C   0  0  0  0  0  0  0  0  0  0  0  0
    4.7644   -3.4440    0.1724 O   0  0  0  0  0  0  0  0  0  0  0  0
    5.9878   -2.4365   -1.5392 N   0  0  0  0  0  0  0  0  0  0  0  0
    7.3216   -2.6794   -1.1508 C   0  0  0  0  0  0  0  0  0  0  0  0
    8.3305   -2.2063   -2.0010 C   0  0  0  0  0  0  0  0  0  0  0  0
    9.6784   -2.4052   -1.6907 C   0  0  0  0  0  0  0  0  0  0  0  0
   10.0313   -3.0784   -0.5251 C   0  0  0  0  0  0  0  0  0  0  0  0
    9.0364   -3.5508    0.3272 C   0  0  0  0  0  0  0  0  0  0  0  0
    7.6871   -3.3527    0.0157 C   0  0  0  0  0  0  0  0  0  0  0  0
    0.4149    0.2479    2.8136 C   0  0  0  0  0  0  0  0  0  0  0  0
    1.2689   -0.3510    3.4655 O   0  0  0  0  0  0  0  0  0  0  0  0
   -0.9756    0.2913    3.1692 C   0  0  0  0  0  0  0  0  0  0  0  0
   -1.6221   -0.5329    4.5056 S   0  0  0  0  0  0  0  0  0  0  0  0
   -3.2001    0.0268    4.1455 C   0  0  0  0  0  0  0  0  0  0  0  0
   -3.2168    0.8343    3.0267 C   0  0  0  0  0  0  0  0  0  0  0  0
   -1.9155    0.9923    2.4639 C   0  0  0  0  0  0  0  0  0  0  0  0
   -6.7418   -1.1526    0.5001 H   0  0  0  0  0  0  0  0  0  0  0  0
   -7.4670    0.2744   -0.2416 H   0  0  0  0  0  0  0  0  0  0  0  0
   -6.0517    0.4434    0.8221 H   0  0  0  0  0  0  0  0  0  0  0  0
   -6.1255   -0.9773   -1.8924 H   0  0  0  0  0  0  0  0  0  0  0  0
   -4.7264   -0.9314   -0.8421 H   0  0  0  0  0  0  0  0  0  0  0  0
   -6.1030    1.4570   -2.1921 H   0  0  0  0  0  0  0  0  0  0  0  0
   -4.5669    0.7476   -2.6915 H   0  0  0  0  0  0  0  0  0  0  0  0
   -3.9354    3.9221   -0.9286 H   0  0  0  0  0  0  0  0  0  0  0  0
   -5.2213    3.5326   -2.0372 H   0  0  0  0  0  0  0  0  0  0  0  0
   -5.6774    4.7921    0.2724 H   0  0  0  0  0  0  0  0  0  0  0  0
   -5.6494    3.1774    0.9818 H   0  0  0  0  0  0  0  0  0  0  0  0
   -7.4999    4.1459   -1.2669 H   0  0  0  0  0  0  0  0  0  0  0  0
   -7.5202    2.5147   -0.5810 H   0  0  0  0  0  0  0  0  0  0  0  0
   -7.9487    3.8988    0.4274 H   0  0  0  0  0  0  0  0  0  0  0  0
   -3.2373    2.9283    1.1843 H   0  0  0  0  0  0  0  0  0  0  0  0
   -2.0222    3.2182   -0.0705 H   0  0  0  0  0  0  0  0  0  0  0  0
    2.7816    0.6838    1.9870 H   0  0  0  0  0  0  0  0  0  0  0  0
    2.3626    1.9566    0.8538 H   0  0  0  0  0  0  0  0  0  0  0  0
    3.3150    0.1786   -0.4059 H   0  0  0  0  0  0  0  0  0  0  0  0
    1.6018    0.2102   -0.8148 H   0  0  0  0  0  0  0  0  0  0  0  0
    2.9653   -1.7317    1.1208 H   0  0  0  0  0  0  0  0  0  0  0  0
    1.2297   -1.6700    0.8600 H   0  0  0  0  0  0  0  0  0  0  0  0
    1.4523   -2.2578   -1.4886 H   0  0  0  0  0  0  0  0  0  0  0  0
    2.1699   -3.4758   -0.4466 H   0  0  0  0  0  0  0  0  0  0  0  0
    3.7338   -1.3385   -2.0028 H   0  0  0  0  0  0  0  0  0  0  0  0
    3.4966   -3.0123   -2.5018 H   0  0  0  0  0  0  0  0  0  0  0  0
    5.8679   -1.9364   -2.4105 H   0  0  0  0  0  0  0  0  0  0  0  0
    8.0842   -1.6762   -2.9169 H   0  0  0  0  0  0  0  0  0  0  0  0
   10.4504   -2.0346   -2.3597 H   0  0  0  0  0  0  0  0  0  0  0  0
   11.0780   -3.2357   -0.2792 H   0  0  0  0  0  0  0  0  0  0  0  0
    9.3055   -4.0769    1.2396 H   0  0  0  0  0  0  0  0  0  0  0  0
    6.9462   -3.7390    0.7085 H   0  0  0  0  0  0  0  0  0  0  0  0
   -4.0351   -0.2651    4.7678 H   0  0  0  0  0  0  0  0  0  0  0  0
   -4.1285    1.2746    2.6445 H   0  0  0  0  0  0  0  0  0  0  0  0
  1  2  1  0
  2  3  1  0
  3  4  1  0
  4  5  1  0
  5  6  1  0
  6  7  1  0
  4  8  1  0
  8  9  2  0
  8 10  1  0
 10 11  1  0
 11 12  1  0
 12 13  2  0
 12 14  1  0
 14 15  1  0
 15 16  1  0
 16 17  1  0
 17 18  1  0
 18 19  1  0
 19 20  1  0
 20 21  2  0
 20 22  1  0
 22 23  1  0
 23 24  2  0
 24 25  1  0
 25 26  2  0
 26 27  1  0
 27 28  2  0
 14 29  1  0
 29 30  2  0
 29 31  1  0
 31 32  1  0
 32 33  1  0
 33 34  2  0
 34 35  1  0
 35 11  1  0
 28 23  1  0
 35 31  2  0
  1 36  1  0
  1 37  1  0
  1 38  1  0
  2 39  1  0
  2 40  1  0
  3 41  1  0
  3 42  1  0
  5 43  1  0
  5 44  1  0
  6 45  1  0
  6 46  1  0
  7 47  1  0
  7 48  1  0
  7 49  1  0
 10 50  1  0
 10 51  1  0
 15 52  1  0
 15 53  1  0
 16 54  1  0
 16 55  1  0
 17 56  1  0
 17 57  1  0
 18 58  1  0
 18 59  1  0
 19 60  1  0
 19 61  1  0
 22 62  1  0
 24 63  1  0
 25 64  1  0
 26 65  1  0
 27 66  1  0
 28 67  1  0
 33 68  1  0
 34 69  1  0
M  END
$$$$
