
     RDKit          3D

 46 50  0  0  0  0  0  0  0  0999 V2000
   -7.9679   -1.7809    1.0791 C   0  0  0  0  0  0  0  0  0  0  0  0
   -6.4969   -1.4662    0.9805 C   0  0  0  0  0  0  0  0  0  0  0  0
   -5.5917   -2.2213    1.7471 C   0  0  0  0  0  0  0  0  0  0  0  0
   -4.2148   -1.9897    1.7092 C   0  0  0  0  0  0  0  0  0  0  0  0
   -3.7762   -0.9671    0.8691 C   0  0  0  0  0  0  0  0  0  0  0  0
   -4.6400   -0.1898    0.0880 C   0  0  0  0  0  0  0  0  0  0  0  0
   -3.9391    0.7521   -0.6498 N   0  0  0  0  0  0  0  0  0  0  0  0
   -2.6980    0.5389   -0.3180 C   0  0  0  0  0  0  0  0  0  0  0  0
   -1.2169    1.2770   -0.7842 S   0  0  0  0  0  0  0  0  0  0  0  0
   -0.3410    0.1976    0.2710 C   0  0  0  0  0  0  0  0  0  0  0  0
    0.9783    0.0973    0.4801 C   0  0  0  0  0  0  0  0  0  0  0  0
    2.0006    0.8906   -0.1110 C   0  0  0  0  0  0  0  0  0  0  0  0
    2.0273    2.1984   -0.5833 C   0  0  0  0  0  0  0  0  0  0  0  0
    3.3348    2.4723   -1.0552 C   0  0  0  0  0  0  0  0  0  0  0  0
    4.0707    1.3344   -0.8255 C   0  0  0  0  0  0  0  0  0  0  0  0
    5.4481    0.9411   -1.0917 C   0  0  0  0  0  0  0  0  0  0  0  0
    6.0203    1.2930   -2.3276 C   0  0  0  0  0  0  0  0  0  0  0  0
    7.3147    0.8868   -2.6670 C   0  0  0  0  0  0  0  0  0  0  0  0
    8.0608    0.1176   -1.7788 C   0  0  0  0  0  0  0  0  0  0  0  0
    7.5190   -0.2326   -0.5436 C   0  0  0  0  0  0  0  0  0  0  0  0
    6.2268    0.1912   -0.1922 C   0  0  0  0  0  0  0  0  0  0  0  0
    5.7657   -0.1799    1.1589 C   0  0  0  0  0  0  0  0  0  0  0  0
    5.8515   -1.2830    1.6649 O   0  0  0  0  0  0  0  0  0  0  0  0
    5.3423    0.8924    1.8511 O   0  0  0  0  0  0  0  0  0  0  0  0
    3.2748    0.3852   -0.2636 O   0  0  0  0  0  0  0  0  0  0  0  0
   -1.2516   -0.7486    0.9846 C   0  0  0  0  0  0  0  0  0  0  0  0
   -0.9929   -1.6244    1.7890 O   0  0  0  0  0  0  0  0  0  0  0  0
   -2.5352   -0.4627    0.5770 N   0  0  0  0  0  0  0  0  0  0  0  0
   -6.0322   -0.4274    0.1295 C   0  0  0  0  0  0  0  0  0  0  0  0
   -6.9913    0.3861   -0.6950 C   0  0  0  0  0  0  0  0  0  0  0  0
   -8.5195   -0.9085    1.4433 H   0  0  0  0  0  0  0  0  0  0  0  0
   -8.3586   -2.0809    0.1017 H   0  0  0  0  0  0  0  0  0  0  0  0
   -8.1581   -2.6042    1.7759 H   0  0  0  0  0  0  0  0  0  0  0  0
   -5.9612   -3.0154    2.3955 H   0  0  0  0  0  0  0  0  0  0  0  0
   -3.5260   -2.5804    2.3062 H   0  0  0  0  0  0  0  0  0  0  0  0
    1.3431   -0.6911    1.1382 H   0  0  0  0  0  0  0  0  0  0  0  0
    1.2020    2.8963   -0.5829 H   0  0  0  0  0  0  0  0  0  0  0  0
    3.6966    3.3933   -1.4899 H   0  0  0  0  0  0  0  0  0  0  0  0
    5.4487    1.8690   -3.0532 H   0  0  0  0  0  0  0  0  0  0  0  0
    7.7334    1.1615   -3.6325 H   0  0  0  0  0  0  0  0  0  0  0  0
    9.0634   -0.2075   -2.0459 H   0  0  0  0  0  0  0  0  0  0  0  0
    8.1062   -0.8278    0.1532 H   0  0  0  0  0  0  0  0  0  0  0  0
    5.0892    0.5260    2.7229 H   0  0  0  0  0  0  0  0  0  0  0  0
   -7.5405   -0.2596   -1.3873 H   0  0  0  0  0  0  0  0  0  0  0  0
   -7.7004    0.9104   -0.0468 H   0  0  0  0  0  0  0  0  0  0  0  0
   -6.4682    1.1406   -1.2911 H   0  0  0  0  0  0  0  0  0  0  0  0
  1  2  1  0
  2  3  2  0
  3  4  1  0
  4  5  2  0
  5  6  1  0
  6  7  1  0
  7  8  2  0
  8  9  1  0
  9 10  1  0
 10 11  2  3
 11 12  1  0
 12 13  2  0
 13 14  1  0
 14 15  2  0
 15 16  1  0
 16 17  2  0
 17 18  1  0
 18 19  2  0
 19 20  1  0
 20 21  2  0
 21 22  1  0
 22 23  2  0
 22 24  1  0
 15 25  1  0
 10 26  1  0
 26 27  2  0
 26 28  1  0
  6 29  2  0
 29 30  1  0
 29  2  1  0
 28  5  1  0
 28  8  1  0
 25 12  1  0
 21 16  1  0
  1 31  1  0
  1 32  1  0
  1 33  1  0
  3 34  1  0
  4 35  1  0
 11 36  1  0
 13 37  1  0
 14 38  1  0
 17 39  1  0
 18 40  1  0
 19 41  1  0
 20 42  1  0
 24 43  1  0
 30 44  1  0
 30 45  1  0
 30 46  1  0
M  END
$$$$
