
     RDKit          3D

 47 49  0  0  0  0  0  0  0  0999 V2000
    7.8956    1.8877   -0.8845 C   0  0  0  0  0  0  0  0  0  0  0  0
    6.4206    1.7549   -0.5487 C   0  0  0  0  0  0  0  0  0  0  0  0
    6.0390    0.3971   -0.7677 O   0  0  0  0  0  0  0  0  0  0  0  0
    4.7385    0.0692   -0.5042 C   0  0  0  0  0  0  0  0  0  0  0  0
    3.7436    0.9379   -0.0666 C   0  0  0  0  0  0  0  0  0  0  0  0
    2.4419    0.4684    0.1694 C   0  0  0  0  0  0  0  0  0  0  0  0
    2.1107   -0.8794   -0.0256 C   0  0  0  0  0  0  0  0  0  0  0  0
    0.7777   -1.3626    0.2212 N   0  0  0  0  0  0  0  0  0  0  0  0
    0.4039   -2.6892    0.5019 C   0  0  0  0  0  0  0  0  0  0  0  0
    1.2834   -3.6809    0.6219 O   0  0  0  0  0  0  0  0  0  0  0  0
   -0.9648   -2.7388    0.6741 C   0  0  0  0  0  0  0  0  0  0  0  0
   -1.4709   -1.4407    0.4938 C   0  0  0  0  0  0  0  0  0  0  0  0
   -2.7741   -1.0284    0.5790 N   0  0  0  0  0  0  0  0  0  0  0  0
   -3.6930   -1.8360    1.3955 C   0  0  0  0  0  0  0  0  0  0  0  0
   -3.3941   -0.5136   -0.6646 C   0  0  0  0  0  0  0  0  0  0  0  0
   -4.4067    0.5835   -0.3967 C   0  0  0  0  0  0  0  0  0  0  0  0
   -5.5311    0.7021   -1.2296 C   0  0  0  0  0  0  0  0  0  0  0  0
   -6.4652    1.7213   -1.0285 C   0  0  0  0  0  0  0  0  0  0  0  0
   -6.2834    2.6416    0.0015 C   0  0  0  0  0  0  0  0  0  0  0  0
   -5.1656    2.5460    0.8274 C   0  0  0  0  0  0  0  0  0  0  0  0
   -4.2294    1.5281    0.6272 C   0  0  0  0  0  0  0  0  0  0  0  0
   -0.4018   -0.6019    0.2461 C   0  0  0  0  0  0  0  0  0  0  0  0
   -0.4339    0.7161    0.0527 O   0  0  0  0  0  0  0  0  0  0  0  0
    3.1192   -1.7433   -0.4705 C   0  0  0  0  0  0  0  0  0  0  0  0
    4.4177   -1.2711   -0.7074 C   0  0  0  0  0  0  0  0  0  0  0  0
    8.2361    2.9161   -0.7341 H   0  0  0  0  0  0  0  0  0  0  0  0
    8.0821    1.6003   -1.9246 H   0  0  0  0  0  0  0  0  0  0  0  0
    8.4954    1.2203   -0.2561 H   0  0  0  0  0  0  0  0  0  0  0  0
    5.8441    2.4214   -1.2002 H   0  0  0  0  0  0  0  0  0  0  0  0
    6.2675    2.0290    0.5017 H   0  0  0  0  0  0  0  0  0  0  0  0
    3.9403    1.9900    0.1077 H   0  0  0  0  0  0  0  0  0  0  0  0
    1.7183    1.1862    0.5410 H   0  0  0  0  0  0  0  0  0  0  0  0
    0.7863   -4.4977    0.8049 H   0  0  0  0  0  0  0  0  0  0  0  0
   -1.5291   -3.6305    0.9058 H   0  0  0  0  0  0  0  0  0  0  0  0
   -4.6286   -1.2980    1.5860 H   0  0  0  0  0  0  0  0  0  0  0  0
   -3.9374   -2.7807    0.8982 H   0  0  0  0  0  0  0  0  0  0  0  0
   -3.2513   -2.0518    2.3740 H   0  0  0  0  0  0  0  0  0  0  0  0
   -2.6457   -0.1006   -1.3527 H   0  0  0  0  0  0  0  0  0  0  0  0
   -3.8796   -1.3496   -1.1833 H   0  0  0  0  0  0  0  0  0  0  0  0
   -5.6923   -0.0028   -2.0417 H   0  0  0  0  0  0  0  0  0  0  0  0
   -7.3354    1.7976   -1.6770 H   0  0  0  0  0  0  0  0  0  0  0  0
   -7.0106    3.4342    0.1581 H   0  0  0  0  0  0  0  0  0  0  0  0
   -5.0207    3.2645    1.6301 H   0  0  0  0  0  0  0  0  0  0  0  0
   -3.3693    1.4661    1.2895 H   0  0  0  0  0  0  0  0  0  0  0  0
   -1.3581    0.9692    0.2330 H   0  0  0  0  0  0  0  0  0  0  0  0
    2.9284   -2.7905   -0.6778 H   0  0  0  0  0  0  0  0  0  0  0  0
    5.1818   -1.9607   -1.0566 H   0  0  0  0  0  0  0  0  0  0  0  0
  1  2  1  0
  2  3  1  0
  3  4  1  0
  4  5  2  0
  5  6  1  0
  6  7  2  0
  7  8  1  0
  8  9  1  0
  9 10  1  0
  9 11  2  0
 11 12  1  0
 12 13  1  0
 13 14  1  0
 13 15  1  0
 15 16  1  0
 16 17  2  0
 17 18  1  0
 18 19  2  0
 19 20  1  0
 20 21  2  0
 12 22  2  0
 22 23  1  0
  7 24  1  0
 24 25  2  0
 25  4  1  0
 22  8  1  0
 21 16  1  0
  1 26  1  0
  1 27  1  0
  1 28  1  0
  2 29  1  0
  2 30  1  0
  5 31  1  0
  6 32  1  0
 10 33  1  0
 11 34  1  0
 14 35  1  0
 14 36  1  0
 14 37  1  0
 15 38  1  0
 15 39  1  0
 17 40  1  0
 18 41  1  0
 19 42  1  0
 20 43  1  0
 21 44  1  0
 23 45  1  0
 24 46  1  0
 25 47  1  0
M  END
$$$$
