
     RDKit          3D

 52 55  0  0  0  0  0  0  0  0999 V2000
   -6.6980   -1.2948   -3.0763 C   0  0  0  0  0  0  0  0  0  0  0  0
   -6.5849   -1.6275   -1.6991 O   0  0  0  0  0  0  0  0  0  0  0  0
   -5.3316   -1.9161   -1.2341 C   0  0  0  0  0  0  0  0  0  0  0  0
   -4.1529   -1.8954   -1.9808 C   0  0  0  0  0  0  0  0  0  0  0  0
   -2.9303   -2.2081   -1.3746 C   0  0  0  0  0  0  0  0  0  0  0  0
   -2.8762   -2.5412   -0.0166 C   0  0  0  0  0  0  0  0  0  0  0  0
   -1.6044   -2.8724    0.6305 C   0  0  0  0  0  0  0  0  0  0  0  0
   -0.6398   -1.9964    0.9530 C   0  0  0  0  0  0  0  0  0  0  0  0
   -0.6601   -0.2957    0.7220 S   0  0  0  0  0  0  0  0  0  0  0  0
    0.9923   -0.1343    1.2954 C   0  0  0  0  0  0  0  0  0  0  0  0
    1.7013    0.9939    1.0664 C   0  0  0  0  0  0  0  0  0  0  0  0
    3.1045    1.1358    1.2248 C   0  0  0  0  0  0  0  0  0  0  0  0
    4.2534    1.2777    1.3035 N   0  0  0  0  0  0  0  0  0  0  0  0
    1.0195    2.1999    0.5330 C   0  0  0  0  0  0  0  0  0  0  0  0
    0.3217    2.8983    1.2601 O   0  0  0  0  0  0  0  0  0  0  0  0
    1.2447    2.4466   -0.7981 N   0  0  0  0  0  0  0  0  0  0  0  0
    0.5991    3.5502   -1.4739 C   0  0  0  0  0  0  0  0  0  0  0  0
    1.4849    4.0009   -2.5745 C   0  0  0  0  0  0  0  0  0  0  0  0
    2.3085    5.0963   -2.7344 C   0  0  0  0  0  0  0  0  0  0  0  0
    2.9081    4.9596   -4.0115 C   0  0  0  0  0  0  0  0  0  0  0  0
    2.4180    3.7879   -4.5444 C   0  0  0  0  0  0  0  0  0  0  0  0
    1.5561    3.1950   -3.6784 O   0  0  0  0  0  0  0  0  0  0  0  0
    1.4487   -1.3396    1.8466 N   0  0  0  0  0  0  0  0  0  0  0  0
    2.5579   -1.4992    2.7399 C   0  0  0  0  0  0  0  0  0  0  0  0
    3.3894   -2.6260    2.6628 C   0  0  0  0  0  0  0  0  0  0  0  0
    4.4545   -2.7909    3.5523 C   0  0  0  0  0  0  0  0  0  0  0  0
    4.6969   -1.8368    4.5378 C   0  0  0  0  0  0  0  0  0  0  0  0
    3.8671   -0.7231    4.6425 C   0  0  0  0  0  0  0  0  0  0  0  0
    2.7999   -0.5582    3.7552 C   0  0  0  0  0  0  0  0  0  0  0  0
    0.5984   -2.4451    1.6442 C   0  0  0  0  0  0  0  0  0  0  0  0
    0.7669   -3.6070    1.9931 O   0  0  0  0  0  0  0  0  0  0  0  0
   -4.0572   -2.5683    0.7277 C   0  0  0  0  0  0  0  0  0  0  0  0
   -5.2758   -2.2542    0.1200 C   0  0  0  0  0  0  0  0  0  0  0  0
   -7.7525   -1.0902   -3.2864 H   0  0  0  0  0  0  0  0  0  0  0  0
   -6.1302   -0.3874   -3.3121 H   0  0  0  0  0  0  0  0  0  0  0  0
   -6.3873   -2.1299   -3.7138 H   0  0  0  0  0  0  0  0  0  0  0  0
   -4.1477   -1.6400   -3.0356 H   0  0  0  0  0  0  0  0  0  0  0  0
   -2.0226   -2.1887   -1.9742 H   0  0  0  0  0  0  0  0  0  0  0  0
   -1.4850   -3.9292    0.8718 H   0  0  0  0  0  0  0  0  0  0  0  0
    1.7454    1.7872   -1.3824 H   0  0  0  0  0  0  0  0  0  0  0  0
    0.3999    4.3640   -0.7694 H   0  0  0  0  0  0  0  0  0  0  0  0
   -0.3585    3.1897   -1.8649 H   0  0  0  0  0  0  0  0  0  0  0  0
    2.4564    5.8919   -2.0114 H   0  0  0  0  0  0  0  0  0  0  0  0
    3.6168    5.6290   -4.4772 H   0  0  0  0  0  0  0  0  0  0  0  0
    2.5788    3.2658   -5.4804 H   0  0  0  0  0  0  0  0  0  0  0  0
    3.2305   -3.3870    1.9015 H   0  0  0  0  0  0  0  0  0  0  0  0
    5.0905   -3.6696    3.4757 H   0  0  0  0  0  0  0  0  0  0  0  0
    5.5260   -1.9658    5.2281 H   0  0  0  0  0  0  0  0  0  0  0  0
    4.0448    0.0152    5.4219 H   0  0  0  0  0  0  0  0  0  0  0  0
    2.1460    0.2992    3.8994 H   0  0  0  0  0  0  0  0  0  0  0  0
   -4.0421   -2.8253    1.7841 H   0  0  0  0  0  0  0  0  0  0  0  0
   -6.1899   -2.2686    0.7110 H   0  0  0  0  0  0  0  0  0  0  0  0
  1  2  1  0
  2  3  1  0
  3  4  2  0
  4  5  1  0
  5  6  2  0
  6  7  1  0
  7  8  2  3
  8  9  1  0
  9 10  1  0
 10 11  2  3
 11 12  1  0
 12 13  3  0
 11 14  1  0
 14 15  2  0
 14 16  1  0
 16 17  1  0
 17 18  1  0
 18 19  2  0
 19 20  1  0
 20 21  2  0
 21 22  1  0
 10 23  1  0
 23 24  1  0
 24 25  2  0
 25 26  1  0
 26 27  2  0
 27 28  1  0
 28 29  2  0
 23 30  1  0
 30 31  2  0
  6 32  1  0
 32 33  2  0
 33  3  1  0
 30  8  1  0
 22 18  1  0
 29 24  1  0
  1 34  1  0
  1 35  1  0
  1 36  1  0
  4 37  1  0
  5 38  1  0
  7 39  1  0
 16 40  1  0
 17 41  1  0
 17 42  1  0
 19 43  1  0
 20 44  1  0
 21 45  1  0
 25 46  1  0
 26 47  1  0
 27 48  1  0
 28 49  1  0
 29 50  1  0
 32 51  1  0
 33 52  1  0
M  END
$$$$
