
     RDKit          3D

 36 38  0  0  0  0  0  0  0  0999 V2000
   -2.4195    1.0222    0.4392 C   0  0  0  0  0  0  0  0  0  0  0  0
   -1.9587   -0.3755    0.8052 C   0  0  0  0  0  0  0  0  0  0  0  0
   -0.7212   -0.7718    0.6931 N   0  0  0  0  0  0  0  0  0  0  0  0
    0.1932    0.1088    0.2034 N   0  0  0  0  0  0  0  0  0  0  0  0
    1.5289   -0.3352    0.0813 C   0  0  0  0  0  0  0  0  0  0  0  0
    1.9089   -1.4937    0.6844 N   0  0  0  0  0  0  0  0  0  0  0  0
    3.1628   -1.9312    0.5423 C   0  0  0  0  0  0  0  0  0  0  0  0
    4.1454   -1.3542   -0.1450 N   0  0  0  0  0  0  0  0  0  0  0  0
    3.7612   -0.2001   -0.7122 C   0  0  0  0  0  0  0  0  0  0  0  0
    4.8770    0.6938   -1.6276 S   0  0  0  0  0  0  0  0  0  0  0  0
    3.7375    1.9204   -1.9546 C   0  0  0  0  0  0  0  0  0  0  0  0
    4.1497    3.0955   -2.7825 C   0  0  0  0  0  0  0  0  0  0  0  0
    2.5056    1.6653   -1.3638 C   0  0  0  0  0  0  0  0  0  0  0  0
    1.3372    2.5977   -1.4503 C   0  0  0  0  0  0  0  0  0  0  0  0
    2.5066    0.3899   -0.6503 C   0  0  0  0  0  0  0  0  0  0  0  0
   -2.9842   -1.3425    1.3102 C   0  0  0  0  0  0  0  0  0  0  0  0
   -2.5902   -2.5840    1.8009 C   0  0  0  0  0  0  0  0  0  0  0  0
   -3.5716   -3.4621    2.2523 C   0  0  0  0  0  0  0  0  0  0  0  0
   -4.9060   -3.0770    2.1976 C   0  0  0  0  0  0  0  0  0  0  0  0
   -5.2075   -1.8233    1.6903 C   0  0  0  0  0  0  0  0  0  0  0  0
   -4.2806   -0.9475    1.2440 N   0  0  0  0  0  0  0  0  0  0  0  0
   -1.7386    1.7617    0.8716 H   0  0  0  0  0  0  0  0  0  0  0  0
   -2.4180    1.1257   -0.6499 H   0  0  0  0  0  0  0  0  0  0  0  0
   -3.4201    1.2507    0.8111 H   0  0  0  0  0  0  0  0  0  0  0  0
   -0.0836    0.7060   -0.5662 H   0  0  0  0  0  0  0  0  0  0  0  0
    3.4037   -2.8638    1.0418 H   0  0  0  0  0  0  0  0  0  0  0  0
    5.1405    2.9661   -3.2303 H   0  0  0  0  0  0  0  0  0  0  0  0
    4.1742    4.0000   -2.1658 H   0  0  0  0  0  0  0  0  0  0  0  0
    3.4372    3.2530   -3.5991 H   0  0  0  0  0  0  0  0  0  0  0  0
    1.6209    3.5753   -1.8519 H   0  0  0  0  0  0  0  0  0  0  0  0
    0.9083    2.7725   -0.4585 H   0  0  0  0  0  0  0  0  0  0  0  0
    0.5667    2.1795   -2.1056 H   0  0  0  0  0  0  0  0  0  0  0  0
   -1.5416   -2.8651    1.8336 H   0  0  0  0  0  0  0  0  0  0  0  0
   -3.2939   -4.4376    2.6420 H   0  0  0  0  0  0  0  0  0  0  0  0
   -5.6932   -3.7390    2.5417 H   0  0  0  0  0  0  0  0  0  0  0  0
   -6.2367   -1.4804    1.6276 H   0  0  0  0  0  0  0  0  0  0  0  0
  1  2  1  0
  2  3  2  3
  3  4  1  0
  4  5  1  0
  5  6  2  0
  6  7  1  0
  7  8  2  0
  8  9  1  0
  9 10  1  0
 10 11  1  0
 11 12  1  0
 11 13  2  0
 13 14  1  0
 13 15  1  0
  2 16  1  0
 16 17  2  0
 17 18  1  0
 18 19  2  0
 19 20  1  0
 20 21  2  0
 15  5  1  0
 21 16  1  0
 15  9  2  0
  1 22  1  0
  1 23  1  0
  1 24  1  0
  4 25  1  0
  7 26  1  0
 12 27  1  0
 12 28  1  0
 12 29  1  0
 14 30  1  0
 14 31  1  0
 14 32  1  0
 17 33  1  0
 18 34  1  0
 19 35  1  0
 20 36  1  0
M  END
$$$$
