
     RDKit          3D

 74 77  0  0  0  0  0  0  0  0999 V2000
    2.4533    2.4102   -0.7193 C   0  0  0  0  0  0  0  0  0  0  0  0
    1.4335    2.3289    0.4244 C   0  0  0  0  0  0  0  0  0  0  0  0
    0.6391    3.6403    0.6134 C   0  0  0  0  0  0  0  0  0  0  0  0
    0.2197    4.2915   -0.6294 N   0  0  0  0  0  0  0  0  0  0  0  0
    0.7254    5.6624   -0.9281 C   0  0  0  0  0  0  0  0  0  0  0  0
    2.2416    5.8329   -0.8244 C   0  0  0  0  0  0  0  0  0  0  0  0
   -0.0259    6.7299   -0.0993 C   0  0  0  0  0  0  0  0  0  0  0  0
    0.3446    6.6877    1.2790 O   0  0  0  0  0  0  0  0  0  0  0  0
   -0.9542    3.9369   -1.3104 C   0  0  0  0  0  0  0  0  0  0  0  0
   -1.3611    4.5640   -2.2916 O   0  0  0  0  0  0  0  0  0  0  0  0
   -1.8543    2.8846   -0.7956 C   0  0  0  0  0  0  0  0  0  0  0  0
   -3.1678    3.3031   -0.5340 C   0  0  0  0  0  0  0  0  0  0  0  0
   -4.1409    2.3786   -0.1792 C   0  0  0  0  0  0  0  0  0  0  0  0
   -3.8227    1.0220   -0.1346 C   0  0  0  0  0  0  0  0  0  0  0  0
   -2.5243    0.5742   -0.4142 C   0  0  0  0  0  0  0  0  0  0  0  0
   -2.1917   -0.8020   -0.4957 N   0  0  0  0  0  0  0  0  0  0  0  0
   -3.0402   -1.8890   -0.3212 C   0  0  0  0  0  0  0  0  0  0  0  0
   -4.1954   -1.8108    0.0819 O   0  0  0  0  0  0  0  0  0  0  0  0
   -2.4092   -3.0687   -0.6768 N   0  0  0  0  0  0  0  0  0  0  0  0
   -2.9305   -4.3796   -0.6415 C   0  0  0  0  0  0  0  0  0  0  0  0
   -4.2243   -4.7013   -0.2290 C   0  0  0  0  0  0  0  0  0  0  0  0
   -4.6587   -6.0316   -0.2218 C   0  0  0  0  0  0  0  0  0  0  0  0
   -3.8023   -7.0524   -0.6249 C   0  0  0  0  0  0  0  0  0  0  0  0
   -2.5096   -6.7456   -1.0390 C   0  0  0  0  0  0  0  0  0  0  0  0
   -2.0784   -5.4159   -1.0483 C   0  0  0  0  0  0  0  0  0  0  0  0
   -1.5187    1.5289   -0.6888 C   0  0  0  0  0  0  0  0  0  0  0  0
   -0.2295    1.1068   -0.9118 O   0  0  0  0  0  0  0  0  0  0  0  0
    0.5175    1.0864    0.3244 C   0  0  0  0  0  0  0  0  0  0  0  0
    1.3780   -0.2042    0.3464 C   0  0  0  0  0  0  0  0  0  0  0  0
    0.7517   -1.2727    1.1812 N   0  0  0  0  0  0  0  0  0  0  0  0
    1.0164   -1.1191    2.6289 C   0  0  0  0  0  0  0  0  0  0  0  0
    0.8793   -2.8631    0.5793 S   0  0  0  0  0  6  0  0  0  0  0  0
    0.3818   -2.8276   -0.7842 O   0  0  0  0  0  0  0  0  0  0  0  0
    0.3029   -3.7678    1.5475 O   0  0  0  0  0  0  0  0  0  0  0  0
    2.6302   -3.1636    0.5327 C   0  0  0  0  0  0  0  0  0  0  0  0
    3.3483   -2.9054   -0.6401 C   0  0  0  0  0  0  0  0  0  0  0  0
    4.7204   -3.1543   -0.6739 C   0  0  0  0  0  0  0  0  0  0  0  0
    5.3644   -3.6742    0.4503 C   0  0  0  0  0  0  0  0  0  0  0  0
    4.6382   -3.9617    1.6097 C   0  0  0  0  0  0  0  0  0  0  0  0
    3.2662   -3.7130    1.6518 C   0  0  0  0  0  0  0  0  0  0  0  0
    1.9754    2.5880   -1.6879 H   0  0  0  0  0  0  0  0  0  0  0  0
    3.0406    1.4908   -0.8097 H   0  0  0  0  0  0  0  0  0  0  0  0
    3.1722    3.2121   -0.5290 H   0  0  0  0  0  0  0  0  0  0  0  0
    2.0075    2.1995    1.3535 H   0  0  0  0  0  0  0  0  0  0  0  0
    1.2728    4.3294    1.1781 H   0  0  0  0  0  0  0  0  0  0  0  0
   -0.2394    3.4766    1.2479 H   0  0  0  0  0  0  0  0  0  0  0  0
    0.4828    5.8754   -1.9770 H   0  0  0  0  0  0  0  0  0  0  0  0
    2.5260    6.8624   -1.0719 H   0  0  0  0  0  0  0  0  0  0  0  0
    2.6330    5.6200    0.1734 H   0  0  0  0  0  0  0  0  0  0  0  0
    2.7479    5.1769   -1.5395 H   0  0  0  0  0  0  0  0  0  0  0  0
    0.2133    7.7307   -0.4758 H   0  0  0  0  0  0  0  0  0  0  0  0
   -1.1110    6.5888   -0.1648 H   0  0  0  0  0  0  0  0  0  0  0  0
   -0.1570    7.3966    1.7170 H   0  0  0  0  0  0  0  0  0  0  0  0
   -3.4381    4.3521   -0.6351 H   0  0  0  0  0  0  0  0  0  0  0  0
   -5.1603    2.7023    0.0156 H   0  0  0  0  0  0  0  0  0  0  0  0
   -4.6308    0.3353    0.0972 H   0  0  0  0  0  0  0  0  0  0  0  0
   -1.2547   -0.9994   -0.8166 H   0  0  0  0  0  0  0  0  0  0  0  0
   -1.4416   -2.9926   -0.9777 H   0  0  0  0  0  0  0  0  0  0  0  0
   -4.9212   -3.9375    0.1048 H   0  0  0  0  0  0  0  0  0  0  0  0
   -5.6693   -6.2645    0.1057 H   0  0  0  0  0  0  0  0  0  0  0  0
   -4.1429   -8.0835   -0.6122 H   0  0  0  0  0  0  0  0  0  0  0  0
   -1.8320   -7.5364   -1.3477 H   0  0  0  0  0  0  0  0  0  0  0  0
   -1.0635   -5.2011   -1.3755 H   0  0  0  0  0  0  0  0  0  0  0  0
   -0.1573    1.0821    1.1922 H   0  0  0  0  0  0  0  0  0  0  0  0
    1.5104   -0.5549   -0.6828 H   0  0  0  0  0  0  0  0  0  0  0  0
    2.3762   -0.0156    0.7606 H   0  0  0  0  0  0  0  0  0  0  0  0
    2.0774   -1.2584    2.8533 H   0  0  0  0  0  0  0  0  0  0  0  0
    0.7329   -0.1144    2.9575 H   0  0  0  0  0  0  0  0  0  0  0  0
    0.4178   -1.8230    3.2137 H   0  0  0  0  0  0  0  0  0  0  0  0
    2.8528   -2.5191   -1.5284 H   0  0  0  0  0  0  0  0  0  0  0  0
    5.2901   -2.9501   -1.5798 H   0  0  0  0  0  0  0  0  0  0  0  0
    6.4336   -3.8720    0.4204 H   0  0  0  0  0  0  0  0  0  0  0  0
    5.1419   -4.3854    2.4758 H   0  0  0  0  0  0  0  0  0  0  0  0
    2.7017   -3.9568    2.5508 H   0  0  0  0  0  0  0  0  0  0  0  0
  1  2  1  0
  2  3  1  0
  3  4  1  0
  4  5  1  0
  5  6  1  0
  5  7  1  0
  7  8  1  0
  4  9  1  0
  9 10  2  0
  9 11  1  0
 11 12  2  0
 12 13  1  0
 13 14  2  0
 14 15  1  0
 15 16  1  0
 16 17  1  0
 17 18  2  0
 17 19  1  0
 19 20  1  0
 20 21  2  0
 21 22  1  0
 22 23  2  0
 23 24  1  0
 24 25  2  0
 15 26  2  0
 26 27  1  0
 27 28  1  0
 28 29  1  0
 29 30  1  0
 30 31  1  0
 30 32  1  0
 32 33  2  0
 32 34  2  0
 32 35  1  0
 35 36  2  0
 36 37  1  0
 37 38  2  0
 38 39  1  0
 39 40  2  0
 28  2  1  0
 40 35  1  0
 26 11  1  0
 25 20  1  0
  1 41  1  0
  1 42  1  0
  1 43  1  0
  2 44  1  0
  3 45  1  0
  3 46  1  0
  5 47  1  0
  6 48  1  0
  6 49  1  0
  6 50  1  0
  7 51  1  0
  7 52  1  0
  8 53  1  0
 12 54  1  0
 13 55  1  0
 14 56  1  0
 16 57  1  0
 19 58  1  0
 21 59  1  0
 22 60  1  0
 23 61  1  0
 24 62  1  0
 25 63  1  0
 28 64  1  0
 29 65  1  0
 29 66  1  0
 31 67  1  0
 31 68  1  0
 31 69  1  0
 36 70  1  0
 37 71  1  0
 38 72  1  0
 39 73  1  0
 40 74  1  0
M  END
$$$$
