
     RDKit          3D

 74 78  0  0  0  0  0  0  0  0999 V2000
    1.5668   -4.2908    2.3471 C   0  0  0  0  0  0  0  0  0  0  0  0
    0.8806   -3.3022    3.2815 C   0  0  0  0  0  0  0  0  0  0  0  0
   -0.4259   -2.8069    2.7215 C   0  0  0  0  0  0  0  0  0  0  0  0
   -1.7172   -3.5350    3.0218 C   0  0  0  0  0  0  0  0  0  0  0  0
   -1.6689   -4.7580    3.9127 C   0  0  0  0  0  0  0  0  0  0  0  0
   -2.8943   -3.1865    2.5884 N   0  0  0  0  0  0  0  0  0  0  0  0
   -2.9559   -2.0763    1.8034 C   0  0  0  0  0  0  0  0  0  0  0  0
   -4.0198   -1.4569    1.1936 C   0  0  0  0  0  0  0  0  0  0  0  0
   -3.4887   -0.3362    0.5105 C   0  0  0  0  0  0  0  0  0  0  0  0
   -4.2051    0.6639   -0.2927 C   0  0  0  0  0  0  0  0  0  0  0  0
   -5.5955    0.6117   -0.4498 C   0  0  0  0  0  0  0  0  0  0  0  0
   -6.2743    1.5690   -1.2129 C   0  0  0  0  0  0  0  0  0  0  0  0
   -7.6299    1.3844   -1.2705 O   0  0  0  0  0  0  0  0  0  0  0  0
   -8.3865    2.3459   -1.9962 C   0  0  0  0  0  0  0  0  0  0  0  0
   -5.5600    2.5957   -1.8347 C   0  0  0  0  0  0  0  0  0  0  0  0
   -4.1727    2.6658   -1.6918 C   0  0  0  0  0  0  0  0  0  0  0  0
   -3.3545    3.6121   -2.2478 O   0  0  0  0  0  0  0  0  0  0  0  0
   -3.9718    4.6282   -3.0271 C   0  0  0  0  0  0  0  0  0  0  0  0
   -3.5079    1.7045   -0.9237 C   0  0  0  0  0  0  0  0  0  0  0  0
   -2.1605   -0.2685    0.6809 N   0  0  0  0  0  0  0  0  0  0  0  0
   -1.8306   -1.3260    1.4761 N   0  0  0  0  0  0  0  0  0  0  0  0
   -0.5420   -1.6986    1.9517 C   0  0  0  0  0  0  0  0  0  0  0  0
    0.5785   -0.9106    1.5963 N   0  0  0  0  0  0  0  0  0  0  0  0
    0.9706   -0.8386    0.1622 C   0  0  0  0  0  0  0  0  0  0  0  0
    1.1216    0.6059   -0.3649 C   0  0  0  0  0  0  0  0  0  0  0  0
    1.9969    1.4833    0.4318 N   0  0  0  0  0  0  0  0  0  0  0  0
    3.3039    1.7666   -0.1740 C   0  0  0  0  0  0  0  0  0  0  0  0
    4.2409    0.5559   -0.4242 C   0  0  0  0  0  0  0  0  0  0  0  0
    5.5331    0.9288   -1.0334 N   0  0  0  0  0  0  0  0  0  0  0  0
    5.3587    1.4788   -2.3991 C   0  0  0  0  0  0  0  0  0  0  0  0
    6.5933    1.2528   -3.2846 C   0  0  0  0  0  0  0  0  0  0  0  0
    6.8654   -0.1392   -3.5028 O   0  0  0  0  0  0  0  0  0  0  0  0
    6.4989   -0.9665   -2.3913 C   0  0  0  0  0  0  0  0  0  0  0  0
    6.4760   -0.2119   -1.0526 C   0  0  0  0  0  0  0  0  0  0  0  0
    2.0638    1.0773    1.8446 C   0  0  0  0  0  0  0  0  0  0  0  0
    0.7780    0.3706    2.3248 C   0  0  0  0  0  0  0  0  0  0  0  0
    1.7898   -3.8319    1.3780 H   0  0  0  0  0  0  0  0  0  0  0  0
    0.9486   -5.1754    2.1675 H   0  0  0  0  0  0  0  0  0  0  0  0
    2.5134   -4.6250    2.7845 H   0  0  0  0  0  0  0  0  0  0  0  0
    0.7353   -3.7616    4.2645 H   0  0  0  0  0  0  0  0  0  0  0  0
    1.5626   -2.4626    3.4645 H   0  0  0  0  0  0  0  0  0  0  0  0
   -0.9224   -5.4691    3.5545 H   0  0  0  0  0  0  0  0  0  0  0  0
   -1.4341   -4.4549    4.9363 H   0  0  0  0  0  0  0  0  0  0  0  0
   -2.6405   -5.2617    3.9179 H   0  0  0  0  0  0  0  0  0  0  0  0
   -5.0457   -1.7877    1.2506 H   0  0  0  0  0  0  0  0  0  0  0  0
   -6.1813   -0.1734    0.0206 H   0  0  0  0  0  0  0  0  0  0  0  0
   -8.2801    3.3448   -1.5599 H   0  0  0  0  0  0  0  0  0  0  0  0
   -8.1111    2.3450   -3.0560 H   0  0  0  0  0  0  0  0  0  0  0  0
   -9.4410    2.0623   -1.9273 H   0  0  0  0  0  0  0  0  0  0  0  0
   -6.0810    3.3354   -2.4281 H   0  0  0  0  0  0  0  0  0  0  0  0
   -4.4729    4.2028   -3.9035 H   0  0  0  0  0  0  0  0  0  0  0  0
   -3.1854    5.2983   -3.3871 H   0  0  0  0  0  0  0  0  0  0  0  0
   -4.6654    5.2234   -2.4231 H   0  0  0  0  0  0  0  0  0  0  0  0
   -2.4267    1.7765   -0.8193 H   0  0  0  0  0  0  0  0  0  0  0  0
    0.2541   -1.3772   -0.4696 H   0  0  0  0  0  0  0  0  0  0  0  0
    1.9263   -1.3652    0.0610 H   0  0  0  0  0  0  0  0  0  0  0  0
    0.1294    1.0728   -0.3706 H   0  0  0  0  0  0  0  0  0  0  0  0
    1.4329    0.5815   -1.4160 H   0  0  0  0  0  0  0  0  0  0  0  0
    3.8300    2.4994    0.4523 H   0  0  0  0  0  0  0  0  0  0  0  0
    3.1142    2.2850   -1.1222 H   0  0  0  0  0  0  0  0  0  0  0  0
    3.7389   -0.1959   -1.0455 H   0  0  0  0  0  0  0  0  0  0  0  0
    4.4447    0.0847    0.5440 H   0  0  0  0  0  0  0  0  0  0  0  0
    5.1592    2.5531   -2.3278 H   0  0  0  0  0  0  0  0  0  0  0  0
    4.5017    1.0053   -2.8952 H   0  0  0  0  0  0  0  0  0  0  0  0
    7.4844    1.7165   -2.8452 H   0  0  0  0  0  0  0  0  0  0  0  0
    6.4405    1.7102   -4.2686 H   0  0  0  0  0  0  0  0  0  0  0  0
    5.5174   -1.4064   -2.6049 H   0  0  0  0  0  0  0  0  0  0  0  0
    7.2202   -1.7890   -2.3447 H   0  0  0  0  0  0  0  0  0  0  0  0
    7.4775    0.2008   -0.8720 H   0  0  0  0  0  0  0  0  0  0  0  0
    6.2854   -0.9094   -0.2288 H   0  0  0  0  0  0  0  0  0  0  0  0
    2.2326    1.9687    2.4592 H   0  0  0  0  0  0  0  0  0  0  0  0
    2.9031    0.3958    2.0238 H   0  0  0  0  0  0  0  0  0  0  0  0
   -0.0886    1.0310    2.1918 H   0  0  0  0  0  0  0  0  0  0  0  0
    0.8689    0.1602    3.3971 H   0  0  0  0  0  0  0  0  0  0  0  0
  1  2  1  0
  2  3  1  0
  3  4  1  0
  4  5  1  0
  4  6  2  0
  6  7  1  0
  7  8  2  0
  8  9  1  0
  9 10  1  0
 10 11  2  0
 11 12  1  0
 12 13  1  0
 13 14  1  0
 12 15  2  0
 15 16  1  0
 16 17  1  0
 17 18  1  0
 16 19  2  0
  9 20  2  0
 20 21  1  0
 21 22  1  0
 22 23  1  0
 23 24  1  0
 24 25  1  0
 25 26  1  0
 26 27  1  0
 27 28  1  0
 28 29  1  0
 29 30  1  0
 30 31  1  0
 31 32  1  0
 32 33  1  0
 33 34  1  0
 26 35  1  0
 35 36  1  0
 22  3  2  0
 36 23  1  0
 21  7  1  0
 34 29  1  0
 19 10  1  0
  1 37  1  0
  1 38  1  0
  1 39  1  0
  2 40  1  0
  2 41  1  0
  5 42  1  0
  5 43  1  0
  5 44  1  0
  8 45  1  0
 11 46  1  0
 14 47  1  0
 14 48  1  0
 14 49  1  0
 15 50  1  0
 18 51  1  0
 18 52  1  0
 18 53  1  0
 19 54  1  0
 24 55  1  0
 24 56  1  0
 25 57  1  0
 25 58  1  0
 27 59  1  0
 27 60  1  0
 28 61  1  0
 28 62  1  0
 30 63  1  0
 30 64  1  0
 31 65  1  0
 31 66  1  0
 33 67  1  0
 33 68  1  0
 34 69  1  0
 34 70  1  0
 35 71  1  0
 35 72  1  0
 36 73  1  0
 36 74  1  0
M  END
$$$$
