
     RDKit          3D

 36 38  0  0  0  0  0  0  0  0999 V2000
   -6.7936    0.0057   -0.3518 C   0  0  0  0  0  0  0  0  0  0  0  0
   -5.2989    0.1028   -0.4473 C   0  0  0  0  0  0  0  0  0  0  0  0
   -4.6606    1.3432   -0.3127 C   0  0  0  0  0  0  0  0  0  0  0  0
   -3.2731    1.4413   -0.4302 C   0  0  0  0  0  0  0  0  0  0  0  0
   -2.5202    0.2918   -0.6851 C   0  0  0  0  0  0  0  0  0  0  0  0
   -0.7622    0.4246   -0.8610 S   0  0  0  0  0  6  0  0  0  0  0  0
   -0.4579    1.7551   -1.3389 O   0  0  0  0  0  0  0  0  0  0  0  0
   -0.2656   -0.7590   -1.5323 O   0  0  0  0  0  0  0  0  0  0  0  0
   -0.2535    0.3659    0.7736 N   0  0  0  0  0  0  0  0  0  0  0  0
    0.8847   -0.6207    0.9950 N   0  0  0  0  0  0  0  0  0  0  0  0
    2.1732   -0.2035    0.7058 C   0  0  0  0  0  0  0  0  0  0  0  0
    2.4694    0.9465    0.4168 O   0  0  0  0  0  0  0  0  0  0  0  0
    3.1094   -1.3567    0.8579 C   0  0  0  0  0  0  0  0  0  0  0  0
    4.4334   -1.4179    0.6543 C   0  0  0  0  0  0  0  0  0  0  0  0
    5.2499   -0.3537    0.1807 C   0  0  0  0  0  0  0  0  0  0  0  0
    5.0774    0.5275   -0.8729 C   0  0  0  0  0  0  0  0  0  0  0  0
    6.1630    1.4392   -1.0245 C   0  0  0  0  0  0  0  0  0  0  0  0
    7.1520    1.2186   -0.0956 C   0  0  0  0  0  0  0  0  0  0  0  0
    6.7748   -0.0830    0.9425 S   0  0  0  0  0  0  0  0  0  0  0  0
    2.2227   -2.7505    1.4155 S   0  0  0  0  0  0  0  0  0  0  0  0
    0.6729   -1.9205    1.3914 C   0  0  0  0  0  0  0  0  0  0  0  0
   -0.7651   -2.6418    1.8220 S   0  0  0  0  0  0  0  0  0  0  0  0
   -3.1458   -0.9448   -0.8548 C   0  0  0  0  0  0  0  0  0  0  0  0
   -4.5334   -1.0358   -0.7336 C   0  0  0  0  0  0  0  0  0  0  0  0
   -7.2422    0.1608   -1.3378 H   0  0  0  0  0  0  0  0  0  0  0  0
   -7.0978   -0.9762    0.0256 H   0  0  0  0  0  0  0  0  0  0  0  0
   -7.1899    0.7562    0.3402 H   0  0  0  0  0  0  0  0  0  0  0  0
   -5.2439    2.2413   -0.1186 H   0  0  0  0  0  0  0  0  0  0  0  0
   -2.7942    2.4126   -0.3294 H   0  0  0  0  0  0  0  0  0  0  0  0
    0.0482    1.3196    1.0138 H   0  0  0  0  0  0  0  0  0  0  0  0
    4.9534   -2.3491    0.8771 H   0  0  0  0  0  0  0  0  0  0  0  0
    4.2032    0.5319   -1.5140 H   0  0  0  0  0  0  0  0  0  0  0  0
    6.2116    2.2149   -1.7788 H   0  0  0  0  0  0  0  0  0  0  0  0
    8.0831    1.7560    0.0203 H   0  0  0  0  0  0  0  0  0  0  0  0
   -2.5687   -1.8391   -1.0793 H   0  0  0  0  0  0  0  0  0  0  0  0
   -5.0157   -2.0026   -0.8646 H   0  0  0  0  0  0  0  0  0  0  0  0
  1  2  1  0
  2  3  2  0
  3  4  1  0
  4  5  2  0
  5  6  1  0
  6  7  2  0
  6  8  2  0
  6  9  1  0
  9 10  1  0
 10 11  1  0
 11 12  2  0
 11 13  1  0
 13 14  2  3
 14 15  1  0
 15 16  2  0
 16 17  1  0
 17 18  2  0
 18 19  1  0
 13 20  1  0
 20 21  1  0
 21 22  2  0
  5 23  1  0
 23 24  2  0
 24  2  1  0
 21 10  1  0
 19 15  1  0
  1 25  1  0
  1 26  1  0
  1 27  1  0
  3 28  1  0
  4 29  1  0
  9 30  1  0
 14 31  1  0
 16 32  1  0
 17 33  1  0
 18 34  1  0
 23 35  1  0
 24 36  1  0
M  END
$$$$
