
     RDKit          3D

 53 54  0  0  0  0  0  0  0  0999 V2000
    1.8088    4.2647    2.8056 C   0  0  0  0  0  0  0  0  0  0  0  0
    1.6263    3.3961    4.3833 S   0  0  0  0  0  0  0  0  0  0  0  0
    1.9543    1.6902    3.8254 C   0  0  0  0  0  0  0  0  0  0  0  0
    0.7233    1.0800    3.1535 C   0  0  0  0  0  0  0  0  0  0  0  0
    0.9603   -0.3759    2.7267 C   0  0  0  0  0  0  0  0  0  0  0  0
   -0.3323   -1.0517    2.5811 N   0  0  0  0  0  0  0  0  0  0  0  0
   -0.4385   -2.4176    2.7476 C   0  0  0  0  0  0  0  0  0  0  0  0
    0.4631   -3.1089    3.2129 O   0  0  0  0  0  0  0  0  0  0  0  0
   -1.7913   -2.9998    2.3396 C   0  0  0  0  0  0  0  0  0  0  0  0
   -2.4684   -2.1001    1.4630 O   0  0  0  0  0  0  0  0  0  0  0  0
   -3.6953   -2.4935    1.0042 C   0  0  0  0  0  0  0  0  0  0  0  0
   -4.3114   -1.5877    0.1360 C   0  0  0  0  0  0  0  0  0  0  0  0
   -5.5677   -1.8640   -0.4061 C   0  0  0  0  0  0  0  0  0  0  0  0
   -6.2172   -3.0520   -0.0814 C   0  0  0  0  0  0  0  0  0  0  0  0
   -5.6093   -3.9599    0.7838 C   0  0  0  0  0  0  0  0  0  0  0  0
   -4.3505   -3.6829    1.3267 C   0  0  0  0  0  0  0  0  0  0  0  0
    1.7746   -0.4117    1.4167 C   0  0  0  0  0  0  0  0  0  0  0  0
    2.9113    0.0323    1.3081 O   0  0  0  0  0  0  0  0  0  0  0  0
    1.0555   -0.9321    0.3805 O   0  0  0  0  0  0  0  0  0  0  0  0
    1.7531   -1.0460   -0.8697 C   0  0  0  0  0  0  0  0  0  0  0  0
    1.7437    0.2744   -1.6356 C   0  0  0  0  0  0  0  0  0  0  0  0
    2.3322    0.0583   -2.9169 O   0  0  0  0  0  0  0  0  0  0  0  0
    2.4044    1.1318   -3.7601 C   0  0  0  0  0  0  0  0  0  0  0  0
    2.9796    0.8564   -5.0045 C   0  0  0  0  0  0  0  0  0  0  0  0
    3.1165    1.8608   -5.9654 C   0  0  0  0  0  0  0  0  0  0  0  0
    2.6749    3.1490   -5.6782 C   0  0  0  0  0  0  0  0  0  0  0  0
    2.8557    4.5155   -6.9710 Br  0  0  0  0  0  0  0  0  0  0  0  0
    2.1005    3.4369   -4.4416 C   0  0  0  0  0  0  0  0  0  0  0  0
    1.9654    2.4275   -3.4816 C   0  0  0  0  0  0  0  0  0  0  0  0
    1.0396    3.9484    2.0971 H   0  0  0  0  0  0  0  0  0  0  0  0
    1.6979    5.3391    2.9754 H   0  0  0  0  0  0  0  0  0  0  0  0
    2.7996    4.0827    2.3816 H   0  0  0  0  0  0  0  0  0  0  0  0
    2.2163    1.1043    4.7129 H   0  0  0  0  0  0  0  0  0  0  0  0
    2.8288    1.6966    3.1703 H   0  0  0  0  0  0  0  0  0  0  0  0
    0.4234    1.6729    2.2803 H   0  0  0  0  0  0  0  0  0  0  0  0
   -0.1159    1.1134    3.8618 H   0  0  0  0  0  0  0  0  0  0  0  0
    1.5388   -0.9174    3.4839 H   0  0  0  0  0  0  0  0  0  0  0  0
   -1.0049   -0.6607    1.9264 H   0  0  0  0  0  0  0  0  0  0  0  0
   -1.5951   -3.9479    1.8260 H   0  0  0  0  0  0  0  0  0  0  0  0
   -2.3690   -3.1546    3.2577 H   0  0  0  0  0  0  0  0  0  0  0  0
   -3.8106   -0.6585   -0.1228 H   0  0  0  0  0  0  0  0  0  0  0  0
   -6.0373   -1.1529   -1.0806 H   0  0  0  0  0  0  0  0  0  0  0  0
   -7.1956   -3.2709   -0.5015 H   0  0  0  0  0  0  0  0  0  0  0  0
   -6.1163   -4.8878    1.0374 H   0  0  0  0  0  0  0  0  0  0  0  0
   -3.9155   -4.4182    1.9954 H   0  0  0  0  0  0  0  0  0  0  0  0
    1.2401   -1.8161   -1.4571 H   0  0  0  0  0  0  0  0  0  0  0  0
    2.7751   -1.4169   -0.7218 H   0  0  0  0  0  0  0  0  0  0  0  0
    0.7067    0.6174   -1.7405 H   0  0  0  0  0  0  0  0  0  0  0  0
    2.3083    1.0300   -1.0770 H   0  0  0  0  0  0  0  0  0  0  0  0
    3.3255   -0.1503   -5.2272 H   0  0  0  0  0  0  0  0  0  0  0  0
    3.5667    1.6265   -6.9259 H   0  0  0  0  0  0  0  0  0  0  0  0
    1.7560    4.4422   -4.2134 H   0  0  0  0  0  0  0  0  0  0  0  0
    1.5160    2.6889   -2.5297 H   0  0  0  0  0  0  0  0  0  0  0  0
  1  2  1  0
  2  3  1  0
  3  4  1  0
  4  5  1  0
  5  6  1  0
  6  7  1  0
  7  8  2  0
  7  9  1  0
  9 10  1  0
 10 11  1  0
 11 12  2  0
 12 13  1  0
 13 14  2  0
 14 15  1  0
 15 16  2  0
  5 17  1  0
 17 18  2  0
 17 19  1  0
 19 20  1  0
 20 21  1  0
 21 22  1  0
 22 23  1  0
 23 24  2  0
 24 25  1  0
 25 26  2  0
 26 27  1  0
 26 28  1  0
 28 29  2  0
 16 11  1  0
 29 23  1  0
  1 30  1  0
  1 31  1  0
  1 32  1  0
  3 33  1  0
  3 34  1  0
  4 35  1  0
  4 36  1  0
  5 37  1  0
  6 38  1  0
  9 39  1  0
  9 40  1  0
 12 41  1  0
 13 42  1  0
 14 43  1  0
 15 44  1  0
 16 45  1  0
 20 46  1  0
 20 47  1  0
 21 48  1  0
 21 49  1  0
 24 50  1  0
 25 51  1  0
 28 52  1  0
 29 53  1  0
M  END
$$$$
