
     RDKit          3D

 51 54  0  0  0  0  0  0  0  0999 V2000
    0.2089    3.2815    4.9803 C   0  0  0  0  0  0  0  0  0  0  0  0
    0.1830    2.3179    3.8071 C   0  0  0  0  0  0  0  0  0  0  0  0
   -0.3912    2.9964    2.6938 O   0  0  0  0  0  0  0  0  0  0  0  0
   -0.4752    2.3210    1.5013 C   0  0  0  0  0  0  0  0  0  0  0  0
   -0.0873    0.9876    1.3186 C   0  0  0  0  0  0  0  0  0  0  0  0
   -0.2076    0.3604    0.0652 C   0  0  0  0  0  0  0  0  0  0  0  0
    0.1778   -1.1145   -0.0715 C   0  0  0  0  0  0  0  0  0  0  0  0
   -1.0806   -1.9903    0.0536 C   0  0  0  0  0  0  0  0  0  0  0  0
   -1.1429   -2.6619    1.4184 C   0  0  0  0  0  0  0  0  0  0  0  0
   -0.5347   -2.2255    2.3953 O   0  0  0  0  0  0  0  0  0  0  0  0
   -2.0102   -3.8994    1.5479 C   0  0  0  0  0  0  0  0  0  0  0  0
   -3.0549   -3.9468    0.4415 C   0  0  0  0  0  0  0  0  0  0  0  0
   -2.4009   -3.9960   -0.9331 C   0  0  0  0  0  0  0  0  0  0  0  0
   -1.2378   -3.0235   -1.0466 C   0  0  0  0  0  0  0  0  0  0  0  0
   -0.4831   -3.1376   -2.0914 N   0  0  0  0  0  0  0  0  0  0  0  0
    0.5779   -2.3145   -2.2228 C   0  0  0  0  0  0  0  0  0  0  0  0
    1.4715   -2.2716   -3.1833 N   0  0  0  0  0  0  0  0  0  0  0  0
    2.3819   -1.3065   -2.7829 C   0  0  0  0  0  0  0  0  0  0  0  0
    3.5742   -0.9496   -3.5781 C   0  0  0  0  0  0  0  0  0  0  0  0
    3.8504   -1.4551   -4.6631 O   0  0  0  0  0  0  0  0  0  0  0  0
    4.3469    0.0111   -2.9770 O   0  0  0  0  0  0  0  0  0  0  0  0
    5.5093    0.3740   -3.7189 C   0  0  0  0  0  0  0  0  0  0  0  0
    2.0677   -0.7462   -1.5962 N   0  0  0  0  0  0  0  0  0  0  0  0
    0.9115   -1.3658   -1.3005 N   0  0  0  0  0  0  0  0  0  0  0  0
   -0.7429    1.0940   -1.0036 C   0  0  0  0  0  0  0  0  0  0  0  0
   -1.1289    2.4261   -0.8304 C   0  0  0  0  0  0  0  0  0  0  0  0
   -0.9970    3.0484    0.4145 C   0  0  0  0  0  0  0  0  0  0  0  0
   -1.3612    4.3466    0.6736 O   0  0  0  0  0  0  0  0  0  0  0  0
   -1.7267    5.1593   -0.4321 C   0  0  0  0  0  0  0  0  0  0  0  0
   -0.8035    3.6219    5.2226 H   0  0  0  0  0  0  0  0  0  0  0  0
    0.7951    4.1728    4.7342 H   0  0  0  0  0  0  0  0  0  0  0  0
    0.6430    2.8070    5.8649 H   0  0  0  0  0  0  0  0  0  0  0  0
   -0.4251    1.4465    4.0747 H   0  0  0  0  0  0  0  0  0  0  0  0
    1.2090    2.0079    3.5777 H   0  0  0  0  0  0  0  0  0  0  0  0
    0.3106    0.4093    2.1486 H   0  0  0  0  0  0  0  0  0  0  0  0
    0.9121   -1.3524    0.7099 H   0  0  0  0  0  0  0  0  0  0  0  0
   -1.9859   -1.3682   -0.0021 H   0  0  0  0  0  0  0  0  0  0  0  0
   -2.5097   -3.8712    2.5222 H   0  0  0  0  0  0  0  0  0  0  0  0
   -1.3610   -4.7805    1.5090 H   0  0  0  0  0  0  0  0  0  0  0  0
   -3.7001   -3.0616    0.5076 H   0  0  0  0  0  0  0  0  0  0  0  0
   -3.7015   -4.8216    0.5723 H   0  0  0  0  0  0  0  0  0  0  0  0
   -3.1348   -3.7614   -1.7114 H   0  0  0  0  0  0  0  0  0  0  0  0
   -2.0172   -5.0048   -1.1273 H   0  0  0  0  0  0  0  0  0  0  0  0
    5.2296    0.8004   -4.6874 H   0  0  0  0  0  0  0  0  0  0  0  0
    6.0502    1.1357   -3.1502 H   0  0  0  0  0  0  0  0  0  0  0  0
    6.1677   -0.4905   -3.8499 H   0  0  0  0  0  0  0  0  0  0  0  0
   -0.8613    0.6469   -1.9893 H   0  0  0  0  0  0  0  0  0  0  0  0
   -1.5342    2.9513   -1.6893 H   0  0  0  0  0  0  0  0  0  0  0  0
   -1.8991    6.1734   -0.0591 H   0  0  0  0  0  0  0  0  0  0  0  0
   -2.6604    4.8091   -0.8844 H   0  0  0  0  0  0  0  0  0  0  0  0
   -0.9216    5.2102   -1.1729 H   0  0  0  0  0  0  0  0  0  0  0  0
  1  2  1  0
  2  3  1  0
  3  4  1  0
  4  5  2  0
  5  6  1  0
  6  7  1  0
  7  8  1  0
  8  9  1  0
  9 10  2  0
  9 11  1  0
 11 12  1  0
 12 13  1  0
 13 14  1  0
 14 15  2  0
 15 16  1  0
 16 17  2  0
 17 18  1  0
 18 19  1  0
 19 20  2  0
 19 21  1  0
 21 22  1  0
 18 23  2  0
 23 24  1  0
  6 25  2  0
 25 26  1  0
 26 27  2  0
 27 28  1  0
 28 29  1  0
 27  4  1  0
 24  7  1  0
 14  8  1  0
 24 16  1  0
  1 30  1  0
  1 31  1  0
  1 32  1  0
  2 33  1  0
  2 34  1  0
  5 35  1  0
  7 36  1  0
  8 37  1  0
 11 38  1  0
 11 39  1  0
 12 40  1  0
 12 41  1  0
 13 42  1  0
 13 43  1  0
 22 44  1  0
 22 45  1  0
 22 46  1  0
 25 47  1  0
 26 48  1  0
 29 49  1  0
 29 50  1  0
 29 51  1  0
M  END
$$$$
