
     RDKit          3D

 47 49  0  0  0  0  0  0  0  0999 V2000
   -5.9379    2.6433    1.2426 C   0  0  0  0  0  0  0  0  0  0  0  0
   -5.8312    2.2059   -0.1052 O   0  0  0  0  0  0  0  0  0  0  0  0
   -4.9524    1.1837   -0.3737 C   0  0  0  0  0  0  0  0  0  0  0  0
   -4.1736    0.5356    0.5912 C   0  0  0  0  0  0  0  0  0  0  0  0
   -3.3146   -0.5051    0.2253 C   0  0  0  0  0  0  0  0  0  0  0  0
   -3.2222   -0.9077   -1.1093 C   0  0  0  0  0  0  0  0  0  0  0  0
   -2.3669   -2.0362   -1.4895 C   0  0  0  0  0  0  0  0  0  0  0  0
   -1.0279   -2.0344   -1.5463 C   0  0  0  0  0  0  0  0  0  0  0  0
   -0.1270   -3.4424   -1.9737 S   0  0  0  0  0  0  0  0  0  0  0  0
    1.4213   -2.6379   -1.7650 C   0  0  0  0  0  0  0  0  0  0  0  0
    2.8663   -3.4527   -1.9328 S   0  0  0  0  0  0  0  0  0  0  0  0
    1.2193   -1.3118   -1.4483 N   0  0  0  0  0  0  0  0  0  0  0  0
    2.2908   -0.3356   -1.2198 C   0  0  0  0  0  0  0  0  0  0  0  0
    2.6598   -0.2316    0.2548 C   0  0  0  0  0  0  0  0  0  0  0  0
    3.8085    0.7338    0.4534 C   0  0  0  0  0  0  0  0  0  0  0  0
    4.3542    1.3165   -0.4777 O   0  0  0  0  0  0  0  0  0  0  0  0
    4.1439    0.9295    1.7677 N   0  0  0  0  0  0  0  0  0  0  0  0
    5.1691    0.3002    2.2281 C   0  0  0  0  0  0  0  0  0  0  0  0
    5.6230    0.4636    3.5061 N   0  0  0  0  0  0  0  0  0  0  0  0
    6.9903    0.0346    3.7258 C   0  0  0  0  0  0  0  0  0  0  0  0
    7.1946   -1.1935    2.8451 C   0  0  0  0  0  0  0  0  0  0  0  0
    6.1823   -0.8569    1.3668 S   0  0  0  0  0  0  0  0  0  0  0  0
   -0.0940   -0.9050   -1.2713 C   0  0  0  0  0  0  0  0  0  0  0  0
   -0.4374    0.2121   -0.9177 O   0  0  0  0  0  0  0  0  0  0  0  0
   -3.9952   -0.2602   -2.0817 C   0  0  0  0  0  0  0  0  0  0  0  0
   -4.8540    0.7883   -1.7240 C   0  0  0  0  0  0  0  0  0  0  0  0
   -5.6557    1.4656   -2.6127 O   0  0  0  0  0  0  0  0  0  0  0  0
   -5.3621    1.3199   -3.9933 C   0  0  0  0  0  0  0  0  0  0  0  0
   -4.9855    3.0480    1.6023 H   0  0  0  0  0  0  0  0  0  0  0  0
   -6.6770    3.4518    1.2759 H   0  0  0  0  0  0  0  0  0  0  0  0
   -6.2968    1.8392    1.8934 H   0  0  0  0  0  0  0  0  0  0  0  0
   -4.2108    0.8148    1.6390 H   0  0  0  0  0  0  0  0  0  0  0  0
   -2.7225   -0.9974    0.9955 H   0  0  0  0  0  0  0  0  0  0  0  0
   -2.9213   -2.9402   -1.7374 H   0  0  0  0  0  0  0  0  0  0  0  0
    3.1665   -0.6052   -1.8190 H   0  0  0  0  0  0  0  0  0  0  0  0
    1.9528    0.6416   -1.5850 H   0  0  0  0  0  0  0  0  0  0  0  0
    2.9525   -1.2119    0.6460 H   0  0  0  0  0  0  0  0  0  0  0  0
    1.8034    0.1216    0.8390 H   0  0  0  0  0  0  0  0  0  0  0  0
    5.3102    1.3168    3.9558 H   0  0  0  0  0  0  0  0  0  0  0  0
    7.1639   -0.1980    4.7810 H   0  0  0  0  0  0  0  0  0  0  0  0
    7.6834    0.8341    3.4360 H   0  0  0  0  0  0  0  0  0  0  0  0
    6.8061   -2.0947    3.3327 H   0  0  0  0  0  0  0  0  0  0  0  0
    8.2458   -1.3533    2.5892 H   0  0  0  0  0  0  0  0  0  0  0  0
   -3.9227   -0.5952   -3.1116 H   0  0  0  0  0  0  0  0  0  0  0  0
   -5.9904    2.0290   -4.5434 H   0  0  0  0  0  0  0  0  0  0  0  0
   -4.3172    1.5639   -4.2097 H   0  0  0  0  0  0  0  0  0  0  0  0
   -5.6119    0.3134   -4.3422 H   0  0  0  0  0  0  0  0  0  0  0  0
  1  2  1  0
  2  3  1  0
  3  4  2  0
  4  5  1  0
  5  6  2  0
  6  7  1  0
  7  8  2  3
  8  9  1  0
  9 10  1  0
 10 11  2  0
 10 12  1  0
 12 13  1  0
 13 14  1  0
 14 15  1  0
 15 16  2  0
 15 17  1  0
 17 18  2  3
 18 19  1  0
 19 20  1  0
 20 21  1  0
 21 22  1  0
 12 23  1  0
 23 24  2  0
  6 25  1  0
 25 26  2  0
 26 27  1  0
 27 28  1  0
 26  3  1  0
 23  8  1  0
 22 18  1  0
  1 29  1  0
  1 30  1  0
  1 31  1  0
  4 32  1  0
  5 33  1  0
  7 34  1  0
 13 35  1  0
 13 36  1  0
 14 37  1  0
 14 38  1  0
 19 39  1  0
 20 40  1  0
 20 41  1  0
 21 42  1  0
 21 43  1  0
 25 44  1  0
 28 45  1  0
 28 46  1  0
 28 47  1  0
M  END
$$$$
