
     RDKit          3D

 50 52  0  0  0  0  0  0  0  0999 V2000
    3.2085   -0.3713   -0.7536 O   0  0  0  0  0  0  0  0  0  0  0  0
    3.6574    0.7293   -1.0427 C   0  0  0  0  0  0  0  0  0  0  0  0
    5.1095    1.1517   -0.9927 C   0  0  0  0  0  0  0  0  0  0  0  0
    6.0234    0.1377   -0.3442 C   0  0  0  0  0  0  0  0  0  0  0  0
    6.0870    0.0382    1.0554 C   0  0  0  0  0  0  0  0  0  0  0  0
    6.9227   -0.9028    1.6580 C   0  0  0  0  0  0  0  0  0  0  0  0
    7.6903   -1.7457    0.8640 C   0  0  0  0  0  0  0  0  0  0  0  0
    8.4931   -2.6483    1.4431 F   0  0  0  0  0  0  0  0  0  0  0  0
    7.6364   -1.6679   -0.5224 C   0  0  0  0  0  0  0  0  0  0  0  0
    6.8012   -0.7282   -1.1287 C   0  0  0  0  0  0  0  0  0  0  0  0
    2.8999    1.7756   -1.4919 O   0  0  0  0  0  0  0  0  0  0  0  0
    1.4933    1.5392   -1.4117 C   0  0  0  0  0  0  0  0  0  0  0  0
    0.9716    1.5904    0.0328 C   0  0  0  0  0  0  0  0  0  0  0  0
    1.6675    2.0469    0.9433 O   0  0  0  0  0  0  0  0  0  0  0  0
   -0.3144    1.1208    0.2605 N   0  0  0  0  0  0  0  0  0  0  0  0
   -1.2171    0.6154   -0.7782 C   0  0  0  0  0  0  0  0  0  0  0  0
   -2.6895    0.6799   -0.3494 C   0  0  0  0  0  0  0  0  0  0  0  0
   -2.9496   -0.0697    0.9214 N   0  0  0  0  0  0  0  0  0  0  0  0
   -3.7376   -1.5732    0.7420 S   0  0  0  0  0  6  0  0  0  0  0  0
   -3.0629   -2.2762   -0.3287 O   0  0  0  0  0  0  0  0  0  0  0  0
   -3.9047   -2.1590    2.0533 O   0  0  0  0  0  0  0  0  0  0  0  0
   -5.3516   -1.0943    0.1740 C   0  0  0  0  0  0  0  0  0  0  0  0
   -5.8193   -1.5345   -1.0678 C   0  0  0  0  0  0  0  0  0  0  0  0
   -7.0892   -1.1439   -1.4983 C   0  0  0  0  0  0  0  0  0  0  0  0
   -7.8773   -0.3247   -0.6873 C   0  0  0  0  0  0  0  0  0  0  0  0
   -9.4391    0.1563   -1.2247 Cl  0  0  0  0  0  0  0  0  0  0  0  0
   -7.4101    0.1074    0.5551 C   0  0  0  0  0  0  0  0  0  0  0  0
   -6.1419   -0.2793    0.9919 C   0  0  0  0  0  0  0  0  0  0  0  0
   -1.7607   -0.1419    1.8376 C   0  0  0  0  0  0  0  0  0  0  0  0
   -0.8086    1.0427    1.6384 C   0  0  0  0  0  0  0  0  0  0  0  0
    5.4427    1.3494   -2.0183 H   0  0  0  0  0  0  0  0  0  0  0  0
    5.1816    2.0932   -0.4345 H   0  0  0  0  0  0  0  0  0  0  0  0
    5.4790    0.6877    1.6828 H   0  0  0  0  0  0  0  0  0  0  0  0
    6.9747   -0.9868    2.7386 H   0  0  0  0  0  0  0  0  0  0  0  0
    8.2407   -2.3417   -1.1210 H   0  0  0  0  0  0  0  0  0  0  0  0
    6.7594   -0.6803   -2.2144 H   0  0  0  0  0  0  0  0  0  0  0  0
    1.0025    2.3422   -1.9711 H   0  0  0  0  0  0  0  0  0  0  0  0
    1.2432    0.5871   -1.8922 H   0  0  0  0  0  0  0  0  0  0  0  0
   -1.0776    1.1938   -1.6964 H   0  0  0  0  0  0  0  0  0  0  0  0
   -0.9217   -0.4200   -0.9835 H   0  0  0  0  0  0  0  0  0  0  0  0
   -2.9822    1.7225   -0.1735 H   0  0  0  0  0  0  0  0  0  0  0  0
   -3.3224    0.3171   -1.1650 H   0  0  0  0  0  0  0  0  0  0  0  0
   -5.2110   -2.1798   -1.6981 H   0  0  0  0  0  0  0  0  0  0  0  0
   -7.4609   -1.4839   -2.4620 H   0  0  0  0  0  0  0  0  0  0  0  0
   -8.0296    0.7392    1.1868 H   0  0  0  0  0  0  0  0  0  0  0  0
   -5.7764    0.0486    1.9630 H   0  0  0  0  0  0  0  0  0  0  0  0
   -1.2108   -1.0736    1.6559 H   0  0  0  0  0  0  0  0  0  0  0  0
   -2.1216   -0.1459    2.8717 H   0  0  0  0  0  0  0  0  0  0  0  0
    0.0294    0.9649    2.3391 H   0  0  0  0  0  0  0  0  0  0  0  0
   -1.3274    1.9868    1.8438 H   0  0  0  0  0  0  0  0  0  0  0  0
  1  2  2  0
  2  3  1  0
  3  4  1  0
  4  5  2  0
  5  6  1  0
  6  7  2  0
  7  8  1  0
  7  9  1  0
  9 10  2  0
  2 11  1  0
 11 12  1  0
 12 13  1  0
 13 14  2  0
 13 15  1  0
 15 16  1  0
 16 17  1  0
 17 18  1  0
 18 19  1  0
 19 20  2  0
 19 21  2  0
 19 22  1  0
 22 23  2  0
 23 24  1  0
 24 25  2  0
 25 26  1  0
 25 27  1  0
 27 28  2  0
 18 29  1  0
 29 30  1  0
 10  4  1  0
 30 15  1  0
 28 22  1  0
  3 31  1  0
  3 32  1  0
  5 33  1  0
  6 34  1  0
  9 35  1  0
 10 36  1  0
 12 37  1  0
 12 38  1  0
 16 39  1  0
 16 40  1  0
 17 41  1  0
 17 42  1  0
 23 43  1  0
 24 44  1  0
 27 45  1  0
 28 46  1  0
 29 47  1  0
 29 48  1  0
 30 49  1  0
 30 50  1  0
M  END
$$$$
