
     RDKit          3D

 55 57  0  0  0  0  0  0  0  0999 V2000
    6.9847    0.1741   -3.0661 C   0  0  0  0  0  0  0  0  0  0  0  0
    5.6283   -0.0853   -3.4036 O   0  0  0  0  0  0  0  0  0  0  0  0
    4.7042    0.0618   -2.4066 C   0  0  0  0  0  0  0  0  0  0  0  0
    4.9680    0.4329   -1.0898 C   0  0  0  0  0  0  0  0  0  0  0  0
    3.9216    0.5468   -0.1659 C   0  0  0  0  0  0  0  0  0  0  0  0
    2.5920    0.2921   -0.5407 C   0  0  0  0  0  0  0  0  0  0  0  0
    1.4736    0.4379    0.4853 C   0  0  0  0  0  0  0  0  0  0  0  0
    0.7029   -1.1963    0.8212 S   0  0  0  0  0  0  0  0  0  0  0  0
   -0.6659   -0.6723    1.8446 C   0  0  0  0  0  0  0  0  0  0  0  0
   -0.6791   -1.1473    3.1654 C   0  0  0  0  0  0  0  0  0  0  0  0
   -1.7487   -0.8666    4.0144 C   0  0  0  0  0  0  0  0  0  0  0  0
   -2.8239   -0.1206    3.5468 C   0  0  0  0  0  0  0  0  0  0  0  0
   -2.8293    0.3450    2.2305 C   0  0  0  0  0  0  0  0  0  0  0  0
   -1.7550    0.0841    1.3626 C   0  0  0  0  0  0  0  0  0  0  0  0
   -1.8147    0.5936    0.0274 N   0  0  0  0  0  0  0  0  0  0  0  0
   -3.0164    0.2911   -0.7689 C   0  0  0  0  0  0  0  0  0  0  0  0
   -2.9306   -1.0608   -1.5178 C   0  0  0  0  0  0  0  0  0  0  0  0
   -2.9582   -2.2498   -0.6405 N   0  0  0  0  0  0  0  0  0  0  0  0
   -4.2905   -2.4969   -0.0916 C   0  0  0  0  0  0  0  0  0  0  0  0
   -2.4913   -3.4295   -1.3708 C   0  0  0  0  0  0  0  0  0  0  0  0
   -0.7170    1.1185   -0.6600 C   0  0  0  0  0  0  0  0  0  0  0  0
   -0.7175    1.2443   -1.8899 O   0  0  0  0  0  0  0  0  0  0  0  0
    0.5029    1.5913    0.1577 C   0  0  0  0  0  0  0  0  0  0  0  0
    0.1754    2.2672    1.3936 O   0  0  0  0  0  0  0  0  0  0  0  0
   -0.5184    3.4281    1.2686 C   0  0  0  0  0  0  0  0  0  0  0  0
   -0.8183    3.9926    2.6229 C   0  0  0  0  0  0  0  0  0  0  0  0
   -0.8464    3.9493    0.2143 O   0  0  0  0  0  0  0  0  0  0  0  0
    2.3399   -0.0840   -1.8676 C   0  0  0  0  0  0  0  0  0  0  0  0
    3.3869   -0.1957   -2.7870 C   0  0  0  0  0  0  0  0  0  0  0  0
    7.1212    1.2140   -2.7511 H   0  0  0  0  0  0  0  0  0  0  0  0
    7.3410   -0.5219   -2.2995 H   0  0  0  0  0  0  0  0  0  0  0  0
    7.5889    0.0169   -3.9647 H   0  0  0  0  0  0  0  0  0  0  0  0
    5.9757    0.6399   -0.7459 H   0  0  0  0  0  0  0  0  0  0  0  0
    4.1610    0.8358    0.8556 H   0  0  0  0  0  0  0  0  0  0  0  0
    1.9553    0.6894    1.4401 H   0  0  0  0  0  0  0  0  0  0  0  0
    0.1414   -1.7570    3.5384 H   0  0  0  0  0  0  0  0  0  0  0  0
   -1.7459   -1.2425    5.0344 H   0  0  0  0  0  0  0  0  0  0  0  0
   -3.6617    0.0982    4.2042 H   0  0  0  0  0  0  0  0  0  0  0  0
   -3.6735    0.9462    1.9037 H   0  0  0  0  0  0  0  0  0  0  0  0
   -3.9219    0.3489   -0.1593 H   0  0  0  0  0  0  0  0  0  0  0  0
   -3.1257    1.0842   -1.5203 H   0  0  0  0  0  0  0  0  0  0  0  0
   -3.7463   -1.1157   -2.2504 H   0  0  0  0  0  0  0  0  0  0  0  0
   -1.9966   -1.0623   -2.0937 H   0  0  0  0  0  0  0  0  0  0  0  0
   -4.2768   -3.3727    0.5674 H   0  0  0  0  0  0  0  0  0  0  0  0
   -5.0341   -2.6718   -0.8774 H   0  0  0  0  0  0  0  0  0  0  0  0
   -4.6322   -1.6595    0.5240 H   0  0  0  0  0  0  0  0  0  0  0  0
   -3.1267   -3.6577   -2.2341 H   0  0  0  0  0  0  0  0  0  0  0  0
   -1.4643   -3.2838   -1.7240 H   0  0  0  0  0  0  0  0  0  0  0  0
   -2.4712   -4.3067   -0.7142 H   0  0  0  0  0  0  0  0  0  0  0  0
    1.0318    2.3345   -0.4561 H   0  0  0  0  0  0  0  0  0  0  0  0
   -1.4479    4.8801    2.5140 H   0  0  0  0  0  0  0  0  0  0  0  0
    0.1123    4.2787    3.1187 H   0  0  0  0  0  0  0  0  0  0  0  0
   -1.3618    3.2566    3.2207 H   0  0  0  0  0  0  0  0  0  0  0  0
    1.3294   -0.3028   -2.2074 H   0  0  0  0  0  0  0  0  0  0  0  0
    3.1694   -0.4884   -3.8116 H   0  0  0  0  0  0  0  0  0  0  0  0
  1  2  1  0
  2  3  1  0
  3  4  2  0
  4  5  1  0
  5  6  2  0
  6  7  1  0
  7  8  1  0
  8  9  1  0
  9 10  2  0
 10 11  1  0
 11 12  2  0
 12 13  1  0
 13 14  2  0
 14 15  1  0
 15 16  1  0
 16 17  1  0
 17 18  1  0
 18 19  1  0
 18 20  1  0
 15 21  1  0
 21 22  2  0
 21 23  1  0
 23 24  1  0
 24 25  1  0
 25 26  1  0
 25 27  2  0
  6 28  1  0
 28 29  2  0
 29  3  1  0
 23  7  1  0
 14  9  1  0
  1 30  1  0
  1 31  1  0
  1 32  1  0
  4 33  1  0
  5 34  1  0
  7 35  1  0
 10 36  1  0
 11 37  1  0
 12 38  1  0
 13 39  1  0
 16 40  1  0
 16 41  1  0
 17 42  1  0
 17 43  1  0
 19 44  1  0
 19 45  1  0
 19 46  1  0
 20 47  1  0
 20 48  1  0
 20 49  1  0
 23 50  1  0
 26 51  1  0
 26 52  1  0
 26 53  1  0
 28 54  1  0
 29 55  1  0
M  END
$$$$
