
     RDKit          3D

 67 71  0  0  0  0  0  0  0  0999 V2000
    9.6186   -1.9966    1.4125 O   0  0  0  0  0  0  0  0  0  0  0  0
    9.0565   -1.8185    0.3454 C   0  0  0  0  0  0  0  0  0  0  0  0
    9.6902   -1.2344   -0.8933 C   0  0  0  0  0  0  0  0  0  0  0  0
    8.6776   -1.5590   -1.9856 C   0  0  0  0  0  0  0  0  0  0  0  0
    7.3504   -1.5955   -1.2533 C   0  0  0  0  0  0  0  0  0  0  0  0
    7.7178   -2.0460    0.0661 N   0  0  0  0  0  0  0  0  0  0  0  0
    6.7408   -2.4925    1.0425 C   0  0  0  0  0  0  0  0  0  0  0  0
    6.4328   -1.4775    2.1457 C   0  0  0  0  0  0  0  0  0  0  0  0
    5.8773   -0.1459    1.6507 C   0  0  0  0  0  0  0  0  0  0  0  0
    4.6193   -0.3325    0.9524 N   0  0  0  0  0  0  0  0  0  0  0  0
    3.8843    0.6739    0.3776 C   0  0  0  0  0  0  0  0  0  0  0  0
    4.5163    1.9363   -0.1267 C   0  0  0  0  0  0  0  0  0  0  0  0
    3.7330    2.8771   -0.6686 C   0  0  0  0  0  0  0  0  0  0  0  0
    2.3479    2.6460   -0.7493 C   0  0  0  0  0  0  0  0  0  0  0  0
    1.3482    3.3630   -1.2127 N   0  0  0  0  0  0  0  0  0  0  0  0
    0.1946    2.6306   -1.0398 N   0  0  0  0  0  0  0  0  0  0  0  0
    0.5178    1.4826   -0.4721 C   0  0  0  0  0  0  0  0  0  0  0  0
   -0.3879    0.3616   -0.1012 C   0  0  0  0  0  0  0  0  0  0  0  0
   -1.8480    0.8052   -0.0498 C   0  0  0  0  0  0  0  0  0  0  0  0
   -2.7673   -0.3438    0.3207 C   0  0  0  0  0  0  0  0  0  0  0  0
   -2.3218   -1.4506    0.6237 O   0  0  0  0  0  0  0  0  0  0  0  0
   -4.1274   -0.0793    0.3023 N   0  0  0  0  0  0  0  0  0  0  0  0
   -4.7206    1.2217   -0.0308 C   0  0  0  0  0  0  0  0  0  0  0  0
   -6.1824    1.3668    0.4349 C   0  0  0  0  0  0  0  0  0  0  0  0
   -7.0181    0.2668   -0.0669 N   0  0  0  0  0  0  0  0  0  0  0  0
   -8.3943    0.3959   -0.1887 C   0  0  0  0  0  0  0  0  0  0  0  0
   -9.1086    1.4252    0.4460 C   0  0  0  0  0  0  0  0  0  0  0  0
  -10.4976    1.5551    0.3179 C   0  0  0  0  0  0  0  0  0  0  0  0
  -11.2141    0.6535   -0.4587 C   0  0  0  0  0  0  0  0  0  0  0  0
  -10.5388   -0.3731   -1.1055 C   0  0  0  0  0  0  0  0  0  0  0  0
   -9.1503   -0.4950   -0.9698 C   0  0  0  0  0  0  0  0  0  0  0  0
   -6.3725   -1.0482   -0.2386 C   0  0  0  0  0  0  0  0  0  0  0  0
   -5.0719   -1.1651    0.5769 C   0  0  0  0  0  0  0  0  0  0  0  0
    1.8775    1.4452   -0.2659 N   0  0  0  0  0  0  0  0  0  0  0  0
    2.5995    0.4362    0.3027 N   0  0  0  0  0  0  0  0  0  0  0  0
    9.8008   -0.1542   -0.7570 H   0  0  0  0  0  0  0  0  0  0  0  0
   10.6611   -1.6941   -1.0921 H   0  0  0  0  0  0  0  0  0  0  0  0
    8.8980   -2.5498   -2.4029 H   0  0  0  0  0  0  0  0  0  0  0  0
    8.6906   -0.8385   -2.8080 H   0  0  0  0  0  0  0  0  0  0  0  0
    6.9030   -0.6000   -1.1793 H   0  0  0  0  0  0  0  0  0  0  0  0
    6.6439   -2.2893   -1.7172 H   0  0  0  0  0  0  0  0  0  0  0  0
    5.8301   -2.7980    0.5164 H   0  0  0  0  0  0  0  0  0  0  0  0
    7.1568   -3.3896    1.5167 H   0  0  0  0  0  0  0  0  0  0  0  0
    5.7171   -1.9328    2.8418 H   0  0  0  0  0  0  0  0  0  0  0  0
    7.3430   -1.2769    2.7230 H   0  0  0  0  0  0  0  0  0  0  0  0
    5.7128    0.5115    2.5124 H   0  0  0  0  0  0  0  0  0  0  0  0
    6.6137    0.3430    1.0055 H   0  0  0  0  0  0  0  0  0  0  0  0
    4.0006   -1.0196    1.3787 H   0  0  0  0  0  0  0  0  0  0  0  0
    5.5867    2.0618   -0.0529 H   0  0  0  0  0  0  0  0  0  0  0  0
    4.1343    3.8075   -1.0517 H   0  0  0  0  0  0  0  0  0  0  0  0
   -0.2686   -0.4481   -0.8315 H   0  0  0  0  0  0  0  0  0  0  0  0
   -0.0951   -0.0419    0.8761 H   0  0  0  0  0  0  0  0  0  0  0  0
   -1.9606    1.5978    0.6987 H   0  0  0  0  0  0  0  0  0  0  0  0
   -2.1531    1.1971   -1.0271 H   0  0  0  0  0  0  0  0  0  0  0  0
   -4.1194    2.0246    0.4047 H   0  0  0  0  0  0  0  0  0  0  0  0
   -4.6679    1.3191   -1.1220 H   0  0  0  0  0  0  0  0  0  0  0  0
   -6.2208    1.3754    1.5309 H   0  0  0  0  0  0  0  0  0  0  0  0
   -6.5471    2.3346    0.0711 H   0  0  0  0  0  0  0  0  0  0  0  0
   -8.5989    2.1440    1.0806 H   0  0  0  0  0  0  0  0  0  0  0  0
  -11.0140    2.3615    0.8311 H   0  0  0  0  0  0  0  0  0  0  0  0
  -12.2909    0.7514   -0.5614 H   0  0  0  0  0  0  0  0  0  0  0  0
  -11.0851   -1.0804   -1.7232 H   0  0  0  0  0  0  0  0  0  0  0  0
   -8.6630   -1.2979   -1.5161 H   0  0  0  0  0  0  0  0  0  0  0  0
   -7.0359   -1.8593    0.0846 H   0  0  0  0  0  0  0  0  0  0  0  0
   -6.1482   -1.1919   -1.3023 H   0  0  0  0  0  0  0  0  0  0  0  0
   -4.6052   -2.1371    0.3809 H   0  0  0  0  0  0  0  0  0  0  0  0
   -5.2978   -1.1192    1.6498 H   0  0  0  0  0  0  0  0  0  0  0  0
  1  2  2  0
  2  3  1  0
  3  4  1  0
  4  5  1  0
  5  6  1  0
  6  7  1  0
  7  8  1  0
  8  9  1  0
  9 10  1  0
 10 11  1  0
 11 12  1  0
 12 13  2  0
 13 14  1  0
 14 15  2  0
 15 16  1  0
 16 17  2  0
 17 18  1  0
 18 19  1  0
 19 20  1  0
 20 21  2  0
 20 22  1  0
 22 23  1  0
 23 24  1  0
 24 25  1  0
 25 26  1  0
 26 27  2  0
 27 28  1  0
 28 29  2  0
 29 30  1  0
 30 31  2  0
 25 32  1  0
 32 33  1  0
 17 34  1  0
 34 35  1  0
  6  2  1  0
 35 11  2  0
 34 14  1  0
 33 22  1  0
 31 26  1  0
  3 36  1  0
  3 37  1  0
  4 38  1  0
  4 39  1  0
  5 40  1  0
  5 41  1  0
  7 42  1  0
  7 43  1  0
  8 44  1  0
  8 45  1  0
  9 46  1  0
  9 47  1  0
 10 48  1  0
 12 49  1  0
 13 50  1  0
 18 51  1  0
 18 52  1  0
 19 53  1  0
 19 54  1  0
 23 55  1  0
 23 56  1  0
 24 57  1  0
 24 58  1  0
 27 59  1  0
 28 60  1  0
 29 61  1  0
 30 62  1  0
 31 63  1  0
 32 64  1  0
 32 65  1  0
 33 66  1  0
 33 67  1  0
M  END
$$$$
