
     RDKit          3D

 71 75  0  0  0  0  0  0  0  0999 V2000
   -2.4443    5.0617    4.0740 C   0  0  0  0  0  0  0  0  0  0  0  0
   -2.6025    4.7238    2.7013 O   0  0  0  0  0  0  0  0  0  0  0  0
   -2.2079    3.4699    2.3241 C   0  0  0  0  0  0  0  0  0  0  0  0
   -1.6195    2.5116    3.1460 C   0  0  0  0  0  0  0  0  0  0  0  0
   -1.2659    1.2607    2.6253 C   0  0  0  0  0  0  0  0  0  0  0  0
   -1.4980    0.9387    1.2765 C   0  0  0  0  0  0  0  0  0  0  0  0
   -1.0861   -0.4431    0.7678 C   0  0  0  0  0  0  0  0  0  0  0  0
   -1.9056   -1.0343   -0.4089 C   0  0  0  0  0  0  0  0  0  0  0  0
   -3.3696   -1.3058   -0.0195 C   0  0  0  0  0  0  0  0  0  0  0  0
   -4.1201   -1.9260   -1.1211 N   0  0  0  0  0  0  0  0  0  0  0  0
   -5.5755   -1.7409   -0.9356 C   0  0  0  0  0  0  0  0  0  0  0  0
   -6.3804   -2.7061   -1.8175 C   0  0  0  0  0  0  0  0  0  0  0  0
   -6.1645   -4.0856   -1.4835 O   0  0  0  0  0  0  0  0  0  0  0  0
   -4.9027   -4.3163   -0.8476 C   0  0  0  0  0  0  0  0  0  0  0  0
   -3.7975   -3.3562   -1.3212 C   0  0  0  0  0  0  0  0  0  0  0  0
    0.4242   -0.5342    0.5000 C   0  0  0  0  0  0  0  0  0  0  0  0
    1.2449   -1.3300    1.3205 C   0  0  0  0  0  0  0  0  0  0  0  0
    0.6387   -2.0315    2.3319 O   0  0  0  0  0  0  0  0  0  0  0  0
    1.4353   -2.2515    3.4973 C   0  0  0  0  0  0  0  0  0  0  0  0
    2.6134   -1.4311    1.0563 C   0  0  0  0  0  0  0  0  0  0  0  0
    3.2000   -0.6981    0.0171 C   0  0  0  0  0  0  0  0  0  0  0  0
    4.5386   -0.8749   -0.2275 O   0  0  0  0  0  0  0  0  0  0  0  0
    5.3471   -0.3610    0.8328 C   0  0  0  0  0  0  0  0  0  0  0  0
    2.4243    0.1184   -0.8199 C   0  0  0  0  0  0  0  0  0  0  0  0
    2.9656    0.9215   -1.9416 C   0  0  0  0  0  0  0  0  0  0  0  0
    4.3780    1.0238   -2.3629 C   0  0  0  0  0  0  0  0  0  0  0  0
    4.9242    0.0790   -3.2433 C   0  0  0  0  0  0  0  0  0  0  0  0
    6.2570    0.1821   -3.6466 C   0  0  0  0  0  0  0  0  0  0  0  0
    7.0485    1.2297   -3.1778 C   0  0  0  0  0  0  0  0  0  0  0  0
    6.5096    2.1778   -2.3073 C   0  0  0  0  0  0  0  0  0  0  0  0
    5.1777    2.0783   -1.9016 C   0  0  0  0  0  0  0  0  0  0  0  0
    2.1194    1.6680   -2.6689 C   0  0  0  0  0  0  0  0  0  0  0  0
    0.6805    1.7349   -2.4149 C   0  0  0  0  0  0  0  0  0  0  0  0
   -0.0502    2.4395   -3.0987 O   0  0  0  0  0  0  0  0  0  0  0  0
    0.2084    0.9699   -1.3692 O   0  0  0  0  0  0  0  0  0  0  0  0
    1.0466    0.1741   -0.5547 C   0  0  0  0  0  0  0  0  0  0  0  0
   -2.0806    1.9160    0.4600 C   0  0  0  0  0  0  0  0  0  0  0  0
   -2.4304    3.1657    0.9810 C   0  0  0  0  0  0  0  0  0  0  0  0
   -1.3867    5.0588    4.3629 H   0  0  0  0  0  0  0  0  0  0  0  0
   -3.0309    4.3950    4.7160 H   0  0  0  0  0  0  0  0  0  0  0  0
   -2.8225    6.0790    4.2147 H   0  0  0  0  0  0  0  0  0  0  0  0
   -1.4205    2.7012    4.1945 H   0  0  0  0  0  0  0  0  0  0  0  0
   -0.8056    0.5280    3.2858 H   0  0  0  0  0  0  0  0  0  0  0  0
   -1.3227   -1.1173    1.6022 H   0  0  0  0  0  0  0  0  0  0  0  0
   -1.4301   -1.9738   -0.7162 H   0  0  0  0  0  0  0  0  0  0  0  0
   -1.8815   -0.3852   -1.2903 H   0  0  0  0  0  0  0  0  0  0  0  0
   -3.8359   -0.3453    0.2263 H   0  0  0  0  0  0  0  0  0  0  0  0
   -3.4246   -1.9262    0.8832 H   0  0  0  0  0  0  0  0  0  0  0  0
   -5.8509   -1.9151    0.1134 H   0  0  0  0  0  0  0  0  0  0  0  0
   -5.8422   -0.7085   -1.1879 H   0  0  0  0  0  0  0  0  0  0  0  0
   -6.1277   -2.5686   -2.8763 H   0  0  0  0  0  0  0  0  0  0  0  0
   -7.4529   -2.5091   -1.7111 H   0  0  0  0  0  0  0  0  0  0  0  0
   -4.6157   -5.3523   -1.0579 H   0  0  0  0  0  0  0  0  0  0  0  0
   -5.0464   -4.2348    0.2366 H   0  0  0  0  0  0  0  0  0  0  0  0
   -3.6606   -3.4988   -2.3992 H   0  0  0  0  0  0  0  0  0  0  0  0
   -2.8535   -3.6405   -0.8453 H   0  0  0  0  0  0  0  0  0  0  0  0
    1.9956   -1.3543    3.7851 H   0  0  0  0  0  0  0  0  0  0  0  0
    2.1067   -3.1041    3.3490 H   0  0  0  0  0  0  0  0  0  0  0  0
    0.7612   -2.4977    4.3234 H   0  0  0  0  0  0  0  0  0  0  0  0
    3.2395   -2.1059    1.6321 H   0  0  0  0  0  0  0  0  0  0  0  0
    5.3506   -1.0456    1.6879 H   0  0  0  0  0  0  0  0  0  0  0  0
    6.3727   -0.2818    0.4607 H   0  0  0  0  0  0  0  0  0  0  0  0
    5.0208    0.6382    1.1448 H   0  0  0  0  0  0  0  0  0  0  0  0
    4.3177   -0.7465   -3.6079 H   0  0  0  0  0  0  0  0  0  0  0  0
    6.6773   -0.5586   -4.3234 H   0  0  0  0  0  0  0  0  0  0  0  0
    8.0866    1.3089   -3.4910 H   0  0  0  0  0  0  0  0  0  0  0  0
    7.1267    2.9947   -1.9449 H   0  0  0  0  0  0  0  0  0  0  0  0
    4.7687    2.8236   -1.2218 H   0  0  0  0  0  0  0  0  0  0  0  0
    2.4540    2.2833   -3.4980 H   0  0  0  0  0  0  0  0  0  0  0  0
   -2.2681    1.7317   -0.5954 H   0  0  0  0  0  0  0  0  0  0  0  0
   -2.8797    3.9090    0.3259 H   0  0  0  0  0  0  0  0  0  0  0  0
  1  2  1  0
  2  3  1  0
  3  4  2  0
  4  5  1  0
  5  6  2  0
  6  7  1  0
  7  8  1  0
  8  9  1  0
  9 10  1  0
 10 11  1  0
 11 12  1  0
 12 13  1  0
 13 14  1  0
 14 15  1  0
  7 16  1  0
 16 17  2  0
 17 18  1  0
 18 19  1  0
 17 20  1  0
 20 21  2  0
 21 22  1  0
 22 23  1  0
 21 24  1  0
 24 25  1  0
 25 26  1  0
 26 27  2  0
 27 28  1  0
 28 29  2  0
 29 30  1  0
 30 31  2  0
 25 32  2  0
 32 33  1  0
 33 34  2  0
 33 35  1  0
 35 36  1  0
  6 37  1  0
 37 38  2  0
 38  3  1  0
 15 10  1  0
 36 16  1  0
 36 24  2  0
 31 26  1  0
  1 39  1  0
  1 40  1  0
  1 41  1  0
  4 42  1  0
  5 43  1  0
  7 44  1  0
  8 45  1  0
  8 46  1  0
  9 47  1  0
  9 48  1  0
 11 49  1  0
 11 50  1  0
 12 51  1  0
 12 52  1  0
 14 53  1  0
 14 54  1  0
 15 55  1  0
 15 56  1  0
 19 57  1  0
 19 58  1  0
 19 59  1  0
 20 60  1  0
 23 61  1  0
 23 62  1  0
 23 63  1  0
 27 64  1  0
 28 65  1  0
 29 66  1  0
 30 67  1  0
 31 68  1  0
 32 69  1  0
 37 70  1  0
 38 71  1  0
M  END
$$$$
