
     RDKit          3D

 49 51  0  0  0  0  0  0  0  0999 V2000
    7.4114   -1.7816    4.4815 N   0  0  0  0  0  0  0  0  0  0  0  0
    6.5414   -1.7049    3.7163 C   0  0  0  0  0  0  0  0  0  0  0  0
    5.4785   -1.6307    2.7581 C   0  0  0  0  0  0  0  0  0  0  0  0
    4.5269   -0.6877    2.9993 N   0  0  0  0  0  0  0  0  0  0  0  0
    3.5200   -0.6172    2.0891 C   0  0  0  0  0  0  0  0  0  0  0  0
    3.4383   -1.4389    0.9652 C   0  0  0  0  0  0  0  0  0  0  0  0
    2.3514   -1.3648   -0.0313 C   0  0  0  0  0  0  0  0  0  0  0  0
    1.9651   -2.5069   -0.7506 C   0  0  0  0  0  0  0  0  0  0  0  0
    0.9485   -2.4518   -1.7054 C   0  0  0  0  0  0  0  0  0  0  0  0
    0.2726   -1.2568   -1.9541 C   0  0  0  0  0  0  0  0  0  0  0  0
    0.6433   -0.0916   -1.2722 C   0  0  0  0  0  0  0  0  0  0  0  0
    1.6818   -0.1581   -0.3256 C   0  0  0  0  0  0  0  0  0  0  0  0
    0.0252    1.0833   -1.6181 O   0  0  0  0  0  0  0  0  0  0  0  0
   -0.0200    2.0990   -0.6109 C   0  0  0  0  0  0  0  0  0  0  0  0
   -1.0704    3.1408   -1.0060 C   0  0  0  0  0  0  0  0  0  0  0  0
   -1.4680    3.9741    0.0829 O   0  0  0  0  0  0  0  0  0  0  0  0
   -2.3416    3.3620    1.0403 C   0  0  0  0  0  0  0  0  0  0  0  0
   -3.7747    3.1601    0.5275 C   0  0  0  0  0  0  0  0  0  0  0  0
   -4.2161    1.8043    0.6968 O   0  0  0  0  0  0  0  0  0  0  0  0
   -3.7542    0.9439   -0.3414 C   0  0  0  0  0  0  0  0  0  0  0  0
   -4.3100   -0.4669   -0.1710 C   0  0  0  0  0  0  0  0  0  0  0  0
   -4.0093   -1.3144   -1.2824 O   0  0  0  0  0  0  0  0  0  0  0  0
   -2.6277   -1.6572   -1.4227 C   0  0  0  0  0  0  0  0  0  0  0  0
   -1.9910   -0.8863   -2.5855 C   0  0  0  0  0  0  0  0  0  0  0  0
   -0.6794   -1.3387   -2.9337 O   0  0  0  0  0  0  0  0  0  0  0  0
    4.3935   -2.3834    0.7479 N   0  0  0  0  0  0  0  0  0  0  0  0
    5.4111   -2.4632    1.6542 C   0  0  0  0  0  0  0  0  0  0  0  0
    6.4001   -3.4651    1.3864 C   0  0  0  0  0  0  0  0  0  0  0  0
    7.2113   -4.2721    1.1882 N   0  0  0  0  0  0  0  0  0  0  0  0
    2.7635    0.1290    2.3125 H   0  0  0  0  0  0  0  0  0  0  0  0
    2.4659   -3.4595   -0.5812 H   0  0  0  0  0  0  0  0  0  0  0  0
    0.6827   -3.3488   -2.2602 H   0  0  0  0  0  0  0  0  0  0  0  0
    2.0167    0.7544    0.1588 H   0  0  0  0  0  0  0  0  0  0  0  0
   -0.2606    1.6571    0.3608 H   0  0  0  0  0  0  0  0  0  0  0  0
    0.9541    2.5956   -0.5316 H   0  0  0  0  0  0  0  0  0  0  0  0
   -0.6329    3.7963   -1.7684 H   0  0  0  0  0  0  0  0  0  0  0  0
   -1.9403    2.6870   -1.4881 H   0  0  0  0  0  0  0  0  0  0  0  0
   -2.3792    4.0612    1.8831 H   0  0  0  0  0  0  0  0  0  0  0  0
   -1.9071    2.4381    1.4319 H   0  0  0  0  0  0  0  0  0  0  0  0
   -4.4494    3.7673    1.1412 H   0  0  0  0  0  0  0  0  0  0  0  0
   -3.9111    3.4864   -0.5095 H   0  0  0  0  0  0  0  0  0  0  0  0
   -4.0516    1.3392   -1.3195 H   0  0  0  0  0  0  0  0  0  0  0  0
   -2.6643    0.8954   -0.3032 H   0  0  0  0  0  0  0  0  0  0  0  0
   -5.4014   -0.4159   -0.0866 H   0  0  0  0  0  0  0  0  0  0  0  0
   -3.9542   -0.9228    0.7607 H   0  0  0  0  0  0  0  0  0  0  0  0
   -2.5799   -2.7299   -1.6420 H   0  0  0  0  0  0  0  0  0  0  0  0
   -2.0803   -1.5109   -0.4845 H   0  0  0  0  0  0  0  0  0  0  0  0
   -2.0148    0.1946   -2.4298 H   0  0  0  0  0  0  0  0  0  0  0  0
   -2.6137   -1.0430   -3.4753 H   0  0  0  0  0  0  0  0  0  0  0  0
  1  2  3  0
  2  3  1  0
  3  4  2  0
  4  5  1  0
  5  6  2  0
  6  7  1  0
  7  8  2  0
  8  9  1  0
  9 10  2  0
 10 11  1  0
 11 12  2  0
 11 13  1  0
 13 14  1  0
 14 15  1  0
 15 16  1  0
 16 17  1  0
 17 18  1  0
 18 19  1  0
 19 20  1  0
 20 21  1  0
 21 22  1  0
 22 23  1  0
 23 24  1  0
 24 25  1  0
  6 26  1  0
 26 27  2  0
 27 28  1  0
 28 29  3  0
 27  3  1  0
 12  7  1  0
 25 10  1  0
  5 30  1  0
  8 31  1  0
  9 32  1  0
 12 33  1  0
 14 34  1  0
 14 35  1  0
 15 36  1  0
 15 37  1  0
 17 38  1  0
 17 39  1  0
 18 40  1  0
 18 41  1  0
 20 42  1  0
 20 43  1  0
 21 44  1  0
 21 45  1  0
 23 46  1  0
 23 47  1  0
 24 48  1  0
 24 49  1  0
M  END
$$$$
