
     RDKit          3D

 40 41  0  0  0  0  0  0  0  0999 V2000
    5.4610    0.2914   -1.3088 C   0  0  0  0  0  0  0  0  0  0  0  0
    5.4667    0.0347    0.1881 C   0  0  0  0  0  0  0  0  0  0  0  0
    4.4790   -0.9337    0.5378 O   0  0  0  0  0  0  0  0  0  0  0  0
    3.2251   -0.5077    0.8732 C   0  0  0  0  0  0  0  0  0  0  0  0
    2.3936   -1.5100    1.3854 C   0  0  0  0  0  0  0  0  0  0  0  0
    1.0807   -1.2264    1.7667 C   0  0  0  0  0  0  0  0  0  0  0  0
    0.5884    0.0699    1.6109 C   0  0  0  0  0  0  0  0  0  0  0  0
   -1.0778    0.4543    2.1152 S   0  0  0  0  0  6  0  0  0  0  0  0
   -1.4848   -0.5448    3.0811 O   0  0  0  0  0  0  0  0  0  0  0  0
   -1.1156    1.8644    2.4427 O   0  0  0  0  0  0  0  0  0  0  0  0
   -1.9751    0.2123    0.6877 N   0  0  0  0  0  0  0  0  0  0  0  0
   -1.7430    1.1642   -0.4239 C   0  0  0  0  0  0  0  0  0  0  0  0
   -3.0538    1.5274   -1.1153 C   0  0  0  0  0  0  0  0  0  0  0  0
   -3.8431    0.3427   -1.6793 C   0  0  0  0  0  0  0  0  0  0  0  0
   -4.5147   -0.4956   -0.5925 C   0  0  0  0  0  0  0  0  0  0  0  0
   -3.6237   -1.5280    0.1008 C   0  0  0  0  0  0  0  0  0  0  0  0
   -2.1453   -1.1845    0.2286 C   0  0  0  0  0  0  0  0  0  0  0  0
    1.4144    1.0844    1.1187 C   0  0  0  0  0  0  0  0  0  0  0  0
    2.7296    0.7907    0.7418 C   0  0  0  0  0  0  0  0  0  0  0  0
    5.5977   -0.6459   -1.8583 H   0  0  0  0  0  0  0  0  0  0  0  0
    6.2635    0.9810   -1.5856 H   0  0  0  0  0  0  0  0  0  0  0  0
    4.5080    0.7152   -1.6390 H   0  0  0  0  0  0  0  0  0  0  0  0
    5.3778    0.9578    0.7715 H   0  0  0  0  0  0  0  0  0  0  0  0
    6.4355   -0.3996    0.4602 H   0  0  0  0  0  0  0  0  0  0  0  0
    2.7801   -2.5207    1.4997 H   0  0  0  0  0  0  0  0  0  0  0  0
    0.4606   -2.0148    2.1864 H   0  0  0  0  0  0  0  0  0  0  0  0
   -1.3005    2.0951   -0.0549 H   0  0  0  0  0  0  0  0  0  0  0  0
   -1.0317    0.7453   -1.1452 H   0  0  0  0  0  0  0  0  0  0  0  0
   -3.6894    2.0905   -0.4202 H   0  0  0  0  0  0  0  0  0  0  0  0
   -2.8211    2.2104   -1.9418 H   0  0  0  0  0  0  0  0  0  0  0  0
   -4.6348    0.7537   -2.3187 H   0  0  0  0  0  0  0  0  0  0  0  0
   -3.2132   -0.2786   -2.3259 H   0  0  0  0  0  0  0  0  0  0  0  0
   -5.3647   -1.0313   -1.0340 H   0  0  0  0  0  0  0  0  0  0  0  0
   -4.9484    0.1704    0.1645 H   0  0  0  0  0  0  0  0  0  0  0  0
   -3.7012   -2.4809   -0.4382 H   0  0  0  0  0  0  0  0  0  0  0  0
   -4.0387   -1.7169    1.0994 H   0  0  0  0  0  0  0  0  0  0  0  0
   -1.6345   -1.3423   -0.7285 H   0  0  0  0  0  0  0  0  0  0  0  0
   -1.6907   -1.8983    0.9224 H   0  0  0  0  0  0  0  0  0  0  0  0
    1.0471    2.1046    1.0303 H   0  0  0  0  0  0  0  0  0  0  0  0
    3.3370    1.5995    0.3498 H   0  0  0  0  0  0  0  0  0  0  0  0
  1  2  1  0
  2  3  1  0
  3  4  1  0
  4  5  2  0
  5  6  1  0
  6  7  2  0
  7  8  1  0
  8  9  2  0
  8 10  2  0
  8 11  1  0
 11 12  1  0
 12 13  1  0
 13 14  1  0
 14 15  1  0
 15 16  1  0
 16 17  1  0
  7 18  1  0
 18 19  2  0
 19  4  1  0
 17 11  1  0
  1 20  1  0
  1 21  1  0
  1 22  1  0
  2 23  1  0
  2 24  1  0
  5 25  1  0
  6 26  1  0
 12 27  1  0
 12 28  1  0
 13 29  1  0
 13 30  1  0
 14 31  1  0
 14 32  1  0
 15 33  1  0
 15 34  1  0
 16 35  1  0
 16 36  1  0
 17 37  1  0
 17 38  1  0
 18 39  1  0
 19 40  1  0
M  END
$$$$
