
     RDKit          3D

 32 32  0  0  0  0  0  0  0  0999 V2000
    6.6304   -0.0925    0.9660 C   0  0  0  0  0  0  0  0  0  0  0  0
    5.2184    0.3053    0.5729 C   0  0  0  0  0  0  0  0  0  0  0  0
    4.2662   -1.1699    0.1062 S   0  0  0  0  0  0  0  0  0  0  0  0
    2.7183   -0.4512   -0.2719 C   0  0  0  0  0  0  0  0  0  0  0  0
    2.5030    0.8454   -0.2482 N   0  0  0  0  0  0  0  0  0  0  0  0
    1.2045    1.1614   -0.5919 N   0  0  0  0  0  0  0  0  0  0  0  0
    0.4705    0.0962   -0.8167 C   0  0  0  0  0  0  0  0  0  0  0  0
   -0.8290    0.1617   -1.2192 N   0  0  0  0  0  0  0  0  0  0  0  0
   -1.9149    0.0669   -0.1604 C   0  0  0  0  0  0  0  0  0  0  0  0
   -3.0297   -0.0966   -1.1222 N   0  0  0  0  0  0  0  0  0  0  0  0
   -4.3454   -0.1291   -0.7566 C   0  0  0  0  0  0  0  0  0  0  0  0
   -5.2968   -0.4823   -1.8672 C   0  0  0  0  0  0  0  0  0  0  0  0
   -4.7240    0.1067    0.3803 O   0  0  0  0  0  0  0  0  0  0  0  0
   -1.9706    1.3364    0.7474 C   0  0  0  0  0  0  0  0  0  0  0  0
   -0.8067    1.5244    1.4149 F   0  0  0  0  0  0  0  0  0  0  0  0
   -2.9438    1.3380    1.6742 F   0  0  0  0  0  0  0  0  0  0  0  0
   -2.1463    2.4422   -0.0285 F   0  0  0  0  0  0  0  0  0  0  0  0
   -1.7840   -1.1118    0.8455 C   0  0  0  0  0  0  0  0  0  0  0  0
   -1.7039   -2.2942    0.1743 F   0  0  0  0  0  0  0  0  0  0  0  0
   -2.8268   -1.2283    1.6918 F   0  0  0  0  0  0  0  0  0  0  0  0
   -0.6707   -1.0241    1.6093 F   0  0  0  0  0  0  0  0  0  0  0  0
    1.3516   -1.3798   -0.7220 S   0  0  0  0  0  0  0  0  0  0  0  0
    7.1579   -0.5765    0.1369 H   0  0  0  0  0  0  0  0  0  0  0  0
    6.6328   -0.7717    1.8254 H   0  0  0  0  0  0  0  0  0  0  0  0
    7.2029    0.7977    1.2469 H   0  0  0  0  0  0  0  0  0  0  0  0
    5.2555    1.0010   -0.2716 H   0  0  0  0  0  0  0  0  0  0  0  0
    4.7306    0.8060    1.4156 H   0  0  0  0  0  0  0  0  0  0  0  0
   -0.9757    1.0815   -1.6455 H   0  0  0  0  0  0  0  0  0  0  0  0
   -2.7620   -0.5600   -1.9803 H   0  0  0  0  0  0  0  0  0  0  0  0
   -6.1210    0.2363   -1.8739 H   0  0  0  0  0  0  0  0  0  0  0  0
   -4.8059   -0.4495   -2.8438 H   0  0  0  0  0  0  0  0  0  0  0  0
   -5.6856   -1.4898   -1.6981 H   0  0  0  0  0  0  0  0  0  0  0  0
  1  2  1  0
  2  3  1  0
  3  4  1  0
  4  5  2  0
  5  6  1  0
  6  7  2  0
  7  8  1  0
  8  9  1  0
  9 10  1  0
 10 11  1  0
 11 12  1  0
 11 13  2  0
  9 14  1  0
 14 15  1  0
 14 16  1  0
 14 17  1  0
  9 18  1  0
 18 19  1  0
 18 20  1  0
 18 21  1  0
  7 22  1  0
 22  4  1  0
  1 23  1  0
  1 24  1  0
  1 25  1  0
  2 26  1  0
  2 27  1  0
  8 28  1  0
 10 29  1  0
 12 30  1  0
 12 31  1  0
 12 32  1  0
M  END
$$$$
