
     RDKit          3D

 41 44  0  0  0  0  0  0  0  0999 V2000
   -2.5304   -2.3749   -0.8387 C   0  0  0  0  0  0  0  0  0  0  0  0
   -3.0573   -1.1184   -0.1707 C   0  0  0  0  0  0  0  0  0  0  0  0
   -3.8243   -0.2299   -1.1701 C   0  0  0  0  0  0  0  0  0  0  0  0
   -3.4544    1.1296   -0.6587 C   0  0  0  0  0  0  0  0  0  0  0  0
   -4.0357    2.3444   -0.9834 C   0  0  0  0  0  0  0  0  0  0  0  0
   -3.5697    3.4867   -0.3421 C   0  0  0  0  0  0  0  0  0  0  0  0
   -2.5211    3.3995    0.5710 C   0  0  0  0  0  0  0  0  0  0  0  0
   -1.9280    2.1659    0.8591 C   0  0  0  0  0  0  0  0  0  0  0  0
   -2.4070    1.0234    0.2546 C   0  0  0  0  0  0  0  0  0  0  0  0
   -1.9662   -0.2954    0.4000 N   0  0  0  0  0  0  0  0  0  0  0  0
   -1.3284   -0.7656    1.6345 C   0  0  0  0  0  0  0  0  0  0  0  0
    0.0441   -1.3752    1.3121 C   0  0  0  0  0  0  0  0  0  0  0  0
    0.2939   -2.5485    1.5879 O   0  0  0  0  0  0  0  0  0  0  0  0
    0.9239   -0.4390    0.7662 N   0  0  0  0  0  0  0  0  0  0  0  0
    2.2704   -0.6350    0.4129 C   0  0  0  0  0  0  0  0  0  0  0  0
    2.8289   -1.9170    0.2041 C   0  0  0  0  0  0  0  0  0  0  0  0
    4.1760   -2.0619   -0.1486 C   0  0  0  0  0  0  0  0  0  0  0  0
    4.9352   -0.9140   -0.2565 C   0  0  0  0  0  0  0  0  0  0  0  0
    4.3975    0.3446   -0.0547 C   0  0  0  0  0  0  0  0  0  0  0  0
    3.0664    0.5193    0.2584 C   0  0  0  0  0  0  0  0  0  0  0  0
    5.3169    1.3410   -0.1975 O   0  0  0  0  0  0  0  0  0  0  0  0
    6.5087    0.5513   -0.4340 C   0  0  0  0  0  0  0  0  0  0  0  0
    6.2526   -0.8602   -0.5777 O   0  0  0  0  0  0  0  0  0  0  0  0
   -3.3572   -2.9827   -1.2241 H   0  0  0  0  0  0  0  0  0  0  0  0
   -1.9757   -2.9965   -0.1345 H   0  0  0  0  0  0  0  0  0  0  0  0
   -1.8752   -2.1336   -1.6861 H   0  0  0  0  0  0  0  0  0  0  0  0
   -3.7430   -1.4079    0.6364 H   0  0  0  0  0  0  0  0  0  0  0  0
   -3.4854   -0.3606   -2.2113 H   0  0  0  0  0  0  0  0  0  0  0  0
   -4.9045   -0.4149   -1.1021 H   0  0  0  0  0  0  0  0  0  0  0  0
   -4.8521    2.3983   -1.6893 H   0  0  0  0  0  0  0  0  0  0  0  0
   -4.0247    4.4464   -0.5519 H   0  0  0  0  0  0  0  0  0  0  0  0
   -2.1758    4.2958    1.0778 H   0  0  0  0  0  0  0  0  0  0  0  0
   -1.1173    2.1373    1.5693 H   0  0  0  0  0  0  0  0  0  0  0  0
   -1.9330   -1.5451    2.1113 H   0  0  0  0  0  0  0  0  0  0  0  0
   -1.1869    0.0231    2.3808 H   0  0  0  0  0  0  0  0  0  0  0  0
    0.5572    0.5090    0.6734 H   0  0  0  0  0  0  0  0  0  0  0  0
    2.2185   -2.8185    0.2712 H   0  0  0  0  0  0  0  0  0  0  0  0
    4.6029   -3.0493   -0.3305 H   0  0  0  0  0  0  0  0  0  0  0  0
    2.6775    1.5244    0.4128 H   0  0  0  0  0  0  0  0  0  0  0  0
    7.1831    0.6855    0.4109 H   0  0  0  0  0  0  0  0  0  0  0  0
    6.9996    0.9187   -1.3391 H   0  0  0  0  0  0  0  0  0  0  0  0
  1  2  1  0
  2  3  1  0
  3  4  1  0
  4  5  2  0
  5  6  1  0
  6  7  2  0
  7  8  1  0
  8  9  2  0
  9 10  1  0
 10 11  1  0
 11 12  1  0
 12 13  2  0
 12 14  1  0
 14 15  1  0
 15 16  2  0
 16 17  1  0
 17 18  2  0
 18 19  1  0
 19 20  2  0
 19 21  1  0
 21 22  1  0
 22 23  1  0
 10  2  1  0
 20 15  1  0
  9  4  1  0
 23 18  1  0
  1 24  1  0
  1 25  1  0
  1 26  1  0
  2 27  1  0
  3 28  1  0
  3 29  1  0
  5 30  1  0
  6 31  1  0
  7 32  1  0
  8 33  1  0
 11 34  1  0
 11 35  1  0
 14 36  1  0
 16 37  1  0
 17 38  1  0
 20 39  1  0
 22 40  1  0
 22 41  1  0
M  END
$$$$
