
     RDKit          3D

 35 36  0  0  0  0  0  0  0  0999 V2000
   -5.8691   -0.1436   -0.3269 C   0  0  0  0  0  0  0  0  0  0  0  0
   -4.3865   -0.1243   -0.1017 C   0  0  0  0  0  0  0  0  0  0  0  0
   -3.5041   -0.0594   -1.1849 C   0  0  0  0  0  0  0  0  0  0  0  0
   -2.1198   -0.0102   -0.9795 C   0  0  0  0  0  0  0  0  0  0  0  0
   -1.5971   -0.0009    0.3181 C   0  0  0  0  0  0  0  0  0  0  0  0
   -0.1909    0.0375    0.5730 N   0  0  0  0  0  0  0  0  0  0  0  0
    0.2609   -0.3355    1.8008 N   0  0  0  0  0  0  0  0  0  0  0  0
    1.5816   -0.4398    1.6670 C   0  0  0  0  0  0  0  0  0  0  0  0
    2.3983   -0.9382    2.8020 C   0  0  0  0  0  0  0  0  0  0  0  0
    2.0191   -0.0228    0.3850 C   0  0  0  0  0  0  0  0  0  0  0  0
    3.3428   -0.0038   -0.0278 N   0  0  0  0  0  0  0  0  0  0  0  0
    3.8180    0.0621   -1.3235 C   0  0  0  0  0  0  0  0  0  0  0  0
    3.1367    0.0988   -2.3455 O   0  0  0  0  0  0  0  0  0  0  0  0
    5.3334    0.1428   -1.4261 C   0  0  0  0  0  0  0  0  0  0  0  0
    6.1410   -0.7105   -0.0880 Cl  0  0  0  0  0  0  0  0  0  0  0  0
    0.8703    0.4173   -0.2496 C   0  0  0  0  0  0  0  0  0  0  0  0
    0.7047    1.2365   -1.4806 C   0  0  0  0  0  0  0  0  0  0  0  0
   -2.4843   -0.0789    1.4041 C   0  0  0  0  0  0  0  0  0  0  0  0
   -3.8659   -0.1261    1.1951 C   0  0  0  0  0  0  0  0  0  0  0  0
   -6.2556    0.8797   -0.3605 H   0  0  0  0  0  0  0  0  0  0  0  0
   -6.1149   -0.6462   -1.2682 H   0  0  0  0  0  0  0  0  0  0  0  0
   -6.3792   -0.6886    0.4744 H   0  0  0  0  0  0  0  0  0  0  0  0
   -3.8879   -0.0617   -2.2033 H   0  0  0  0  0  0  0  0  0  0  0  0
   -1.4853   -0.0249   -1.8581 H   0  0  0  0  0  0  0  0  0  0  0  0
    1.7745   -1.2189    3.6571 H   0  0  0  0  0  0  0  0  0  0  0  0
    2.9724   -1.8201    2.5002 H   0  0  0  0  0  0  0  0  0  0  0  0
    3.0994   -0.1658    3.1342 H   0  0  0  0  0  0  0  0  0  0  0  0
    4.0273   -0.2684    0.6745 H   0  0  0  0  0  0  0  0  0  0  0  0
    5.6591   -0.3249   -2.3590 H   0  0  0  0  0  0  0  0  0  0  0  0
    5.6411    1.1915   -1.4081 H   0  0  0  0  0  0  0  0  0  0  0  0
   -0.1691    1.8926   -1.4172 H   0  0  0  0  0  0  0  0  0  0  0  0
    1.5597    1.9070   -1.6166 H   0  0  0  0  0  0  0  0  0  0  0  0
    0.6128    0.6042   -2.3681 H   0  0  0  0  0  0  0  0  0  0  0  0
   -2.1134   -0.0882    2.4278 H   0  0  0  0  0  0  0  0  0  0  0  0
   -4.5298   -0.1683    2.0558 H   0  0  0  0  0  0  0  0  0  0  0  0
  1  2  1  0
  2  3  2  0
  3  4  1  0
  4  5  2  0
  5  6  1  0
  6  7  1  0
  7  8  2  0
  8  9  1  0
  8 10  1  0
 10 11  1  0
 11 12  1  0
 12 13  2  0
 12 14  1  0
 14 15  1  0
 10 16  2  0
 16 17  1  0
  5 18  1  0
 18 19  2  0
 19  2  1  0
 16  6  1  0
  1 20  1  0
  1 21  1  0
  1 22  1  0
  3 23  1  0
  4 24  1  0
  9 25  1  0
  9 26  1  0
  9 27  1  0
 11 28  1  0
 14 29  1  0
 14 30  1  0
 17 31  1  0
 17 32  1  0
 17 33  1  0
 18 34  1  0
 19 35  1  0
M  END
$$$$
