
     RDKit          3D

 44 46  0  0  0  0  0  0  0  0999 V2000
    2.8133    4.4597   -2.6678 C   0  0  0  0  0  0  0  0  0  0  0  0
    2.8897    3.0015   -2.6732 N   0  0  0  0  0  0  0  0  0  0  0  0
    1.6001    2.3834   -3.0433 C   0  0  0  0  0  0  0  0  0  0  0  0
    0.7301    1.8981   -1.8611 C   0  0  0  0  0  0  0  0  0  0  0  0
    1.4499    0.9307   -0.9976 N   0  0  0  0  0  0  0  0  0  0  0  0
    0.7920   -0.0238   -0.2018 C   0  0  0  0  0  0  0  0  0  0  0  0
   -0.5220    0.0355    0.1042 C   0  0  0  0  0  0  0  0  0  0  0  0
   -1.2233   -0.9260    0.9431 C   0  0  0  0  0  0  0  0  0  0  0  0
   -2.5617   -0.8728    1.0848 C   0  0  0  0  0  0  0  0  0  0  0  0
   -3.3334   -1.8007    1.9204 C   0  0  0  0  0  0  0  0  0  0  0  0
   -4.6909   -1.8143    1.9501 C   0  0  0  0  0  0  0  0  0  0  0  0
   -5.4081   -2.7107    2.7964 C   0  0  0  0  0  0  0  0  0  0  0  0
   -5.9793   -3.4444    3.4911 N   0  0  0  0  0  0  0  0  0  0  0  0
   -5.4801   -0.9334    1.1525 C   0  0  0  0  0  0  0  0  0  0  0  0
   -6.1113   -0.2095    0.5005 N   0  0  0  0  0  0  0  0  0  0  0  0
   -2.4847   -2.7433    2.7657 C   0  0  0  0  0  0  0  0  0  0  0  0
   -1.2194   -3.1914    2.0356 C   0  0  0  0  0  0  0  0  0  0  0  0
   -0.3774   -1.9777    1.6266 C   0  0  0  0  0  0  0  0  0  0  0  0
    0.7827   -2.4061    0.7270 C   0  0  0  0  0  0  0  0  0  0  0  0
    1.6203   -1.1948    0.3136 C   0  0  0  0  0  0  0  0  0  0  0  0
    2.9268    1.0504   -1.0574 C   0  0  0  0  0  0  0  0  0  0  0  0
    3.3595    2.5014   -1.3639 C   0  0  0  0  0  0  0  0  0  0  0  0
    3.7840    4.8949   -2.4052 H   0  0  0  0  0  0  0  0  0  0  0  0
    2.0634    4.8333   -1.9613 H   0  0  0  0  0  0  0  0  0  0  0  0
    2.5619    4.8340   -3.6663 H   0  0  0  0  0  0  0  0  0  0  0  0
    1.8344    1.5114   -3.6684 H   0  0  0  0  0  0  0  0  0  0  0  0
    1.0102    3.0509   -3.6838 H   0  0  0  0  0  0  0  0  0  0  0  0
   -0.1661    1.4297   -2.2851 H   0  0  0  0  0  0  0  0  0  0  0  0
    0.4102    2.7533   -1.2539 H   0  0  0  0  0  0  0  0  0  0  0  0
   -1.1196    0.8604   -0.2727 H   0  0  0  0  0  0  0  0  0  0  0  0
   -3.1055   -0.0986    0.5442 H   0  0  0  0  0  0  0  0  0  0  0  0
   -3.0367   -3.6441    3.0540 H   0  0  0  0  0  0  0  0  0  0  0  0
   -2.2070   -2.2274    3.6943 H   0  0  0  0  0  0  0  0  0  0  0  0
   -0.6315   -3.8485    2.6878 H   0  0  0  0  0  0  0  0  0  0  0  0
   -1.4961   -3.7843    1.1534 H   0  0  0  0  0  0  0  0  0  0  0  0
    0.0408   -1.5259    2.5379 H   0  0  0  0  0  0  0  0  0  0  0  0
    0.4014   -2.9083   -0.1727 H   0  0  0  0  0  0  0  0  0  0  0  0
    1.4219   -3.1303    1.2464 H   0  0  0  0  0  0  0  0  0  0  0  0
    2.2133   -0.8549    1.1720 H   0  0  0  0  0  0  0  0  0  0  0  0
    2.3230   -1.5296   -0.4589 H   0  0  0  0  0  0  0  0  0  0  0  0
    3.3172    0.3660   -1.8202 H   0  0  0  0  0  0  0  0  0  0  0  0
    3.3719    0.7705   -0.0959 H   0  0  0  0  0  0  0  0  0  0  0  0
    2.9825    3.1383   -0.5515 H   0  0  0  0  0  0  0  0  0  0  0  0
    4.4537    2.5621   -1.3400 H   0  0  0  0  0  0  0  0  0  0  0  0
  1  2  1  0
  2  3  1  0
  3  4  1  0
  4  5  1  0
  5  6  1  0
  6  7  2  0
  7  8  1  0
  8  9  2  0
  9 10  1  0
 10 11  2  3
 11 12  1  0
 12 13  3  0
 11 14  1  0
 14 15  3  0
 10 16  1  0
 16 17  1  0
 17 18  1  0
 18 19  1  0
 19 20  1  0
  5 21  1  0
 21 22  1  0
 22  2  1  0
 20  6  1  0
 18  8  1  0
  1 23  1  0
  1 24  1  0
  1 25  1  0
  3 26  1  0
  3 27  1  0
  4 28  1  0
  4 29  1  0
  7 30  1  0
  9 31  1  0
 16 32  1  0
 16 33  1  0
 17 34  1  0
 17 35  1  0
 18 36  1  0
 19 37  1  0
 19 38  1  0
 20 39  1  0
 20 40  1  0
 21 41  1  0
 21 42  1  0
 22 43  1  0
 22 44  1  0
M  END
$$$$
