
     RDKit          3D

 43 45  0  0  0  0  0  0  0  0999 V2000
   -2.1635    4.5292    1.4605 C   0  0  0  0  0  0  0  0  0  0  0  0
   -1.8705    3.6031    0.4128 O   0  0  0  0  0  0  0  0  0  0  0  0
   -1.4860    2.3684    0.8515 C   0  0  0  0  0  0  0  0  0  0  0  0
   -1.3471    2.0605    2.0278 O   0  0  0  0  0  0  0  0  0  0  0  0
   -1.2136    1.4756   -0.3304 C   0  0  0  0  0  0  0  0  0  0  0  0
   -1.0393    0.0847    0.0537 N   0  0  0  0  0  0  0  0  0  0  0  0
    0.1433   -0.5403    0.4140 C   0  0  0  0  0  0  0  0  0  0  0  0
    1.4621    0.1657    0.5592 C   0  0  0  0  0  0  0  0  0  0  0  0
    2.0005    0.6267   -0.7323 N   0  0  0  0  0  0  0  0  0  0  0  0
    2.4335   -0.4986   -1.5972 C   0  0  0  0  0  0  0  0  0  0  0  0
    3.9473   -0.7611   -1.5570 C   0  0  0  0  0  0  0  0  0  0  0  0
    4.7261    0.3734   -1.9621 O   0  0  0  0  0  0  0  0  0  0  0  0
    4.0754    1.6249   -1.7071 C   0  0  0  0  0  0  0  0  0  0  0  0
    3.1285    1.5589   -0.5008 C   0  0  0  0  0  0  0  0  0  0  0  0
   -0.0553   -1.8340    0.6278 N   0  0  0  0  0  0  0  0  0  0  0  0
   -1.3873   -2.0235    0.4435 C   0  0  0  0  0  0  0  0  0  0  0  0
   -2.0230   -0.8667    0.1011 C   0  0  0  0  0  0  0  0  0  0  0  0
   -3.4254   -0.8043   -0.1197 C   0  0  0  0  0  0  0  0  0  0  0  0
   -4.0478    0.2120   -0.4057 O   0  0  0  0  0  0  0  0  0  0  0  0
   -4.0373   -2.0286    0.0267 N   0  0  0  0  0  0  0  0  0  0  0  0
   -3.4409   -3.2280    0.3719 C   0  0  0  0  0  0  0  0  0  0  0  0
   -4.1453   -4.2325    0.4750 O   0  0  0  0  0  0  0  0  0  0  0  0
   -2.0664   -3.2150    0.5818 N   0  0  0  0  0  0  0  0  0  0  0  0
   -1.3621   -4.4250    0.9573 C   0  0  0  0  0  0  0  0  0  0  0  0
   -2.4840    5.4688    1.0021 H   0  0  0  0  0  0  0  0  0  0  0  0
   -1.2685    4.7231    2.0598 H   0  0  0  0  0  0  0  0  0  0  0  0
   -2.9781    4.1542    2.0880 H   0  0  0  0  0  0  0  0  0  0  0  0
   -2.0436    1.5293   -1.0401 H   0  0  0  0  0  0  0  0  0  0  0  0
   -0.3115    1.8179   -0.8408 H   0  0  0  0  0  0  0  0  0  0  0  0
    1.3047    1.0248    1.2243 H   0  0  0  0  0  0  0  0  0  0  0  0
    2.1757   -0.4968    1.0661 H   0  0  0  0  0  0  0  0  0  0  0  0
    2.1626   -0.2234   -2.6245 H   0  0  0  0  0  0  0  0  0  0  0  0
    1.8928   -1.4261   -1.3808 H   0  0  0  0  0  0  0  0  0  0  0  0
    4.2030   -1.5876   -2.2278 H   0  0  0  0  0  0  0  0  0  0  0  0
    4.2646   -1.0510   -0.5486 H   0  0  0  0  0  0  0  0  0  0  0  0
    4.8576    2.3705   -1.5318 H   0  0  0  0  0  0  0  0  0  0  0  0
    3.5369    1.9255   -2.6136 H   0  0  0  0  0  0  0  0  0  0  0  0
    2.7258    2.5563   -0.2926 H   0  0  0  0  0  0  0  0  0  0  0  0
    3.7145    1.2430    0.3728 H   0  0  0  0  0  0  0  0  0  0  0  0
   -5.0352   -2.0569   -0.1095 H   0  0  0  0  0  0  0  0  0  0  0  0
   -0.9067   -4.2818    1.9422 H   0  0  0  0  0  0  0  0  0  0  0  0
   -2.0349   -5.2855    1.0039 H   0  0  0  0  0  0  0  0  0  0  0  0
   -0.5815   -4.6297    0.2179 H   0  0  0  0  0  0  0  0  0  0  0  0
  1  2  1  0
  2  3  1  0
  3  4  2  0
  3  5  1  0
  5  6  1  0
  6  7  1  0
  7  8  1  0
  8  9  1  0
  9 10  1  0
 10 11  1  0
 11 12  1  0
 12 13  1  0
 13 14  1  0
  7 15  2  0
 15 16  1  0
 16 17  2  0
 17 18  1  0
 18 19  2  0
 18 20  1  0
 20 21  1  0
 21 22  2  0
 21 23  1  0
 23 24  1  0
 17  6  1  0
 14  9  1  0
 23 16  1  0
  1 25  1  0
  1 26  1  0
  1 27  1  0
  5 28  1  0
  5 29  1  0
  8 30  1  0
  8 31  1  0
 10 32  1  0
 10 33  1  0
 11 34  1  0
 11 35  1  0
 13 36  1  0
 13 37  1  0
 14 38  1  0
 14 39  1  0
 20 40  1  0
 24 41  1  0
 24 42  1  0
 24 43  1  0
M  END
$$$$
