
     RDKit          3D

 51 53  0  0  0  0  0  0  0  0999 V2000
   -2.6176   -0.3060   -3.5791 C   0  0  0  0  0  0  0  0  0  0  0  0
   -1.2332   -0.2777   -2.9841 C   0  0  0  0  0  0  0  0  0  0  0  0
   -0.1517   -0.5970   -3.8197 C   0  0  0  0  0  0  0  0  0  0  0  0
    1.1606   -0.5892   -3.3421 C   0  0  0  0  0  0  0  0  0  0  0  0
    1.4220   -0.2699   -2.0172 C   0  0  0  0  0  0  0  0  0  0  0  0
    2.7008   -0.2460   -1.4134 N   0  0  0  0  0  0  0  0  0  0  0  0
    3.9831   -0.3773   -1.8907 C   0  0  0  0  0  0  0  0  0  0  0  0
    4.5426   -0.5576   -3.4539 S   0  0  0  0  0  0  0  0  0  0  0  0
    4.9688   -0.3504   -0.9115 N   0  0  0  0  0  0  0  0  0  0  0  0
    4.8372   -0.2061    0.4638 C   0  0  0  0  0  0  0  0  0  0  0  0
    3.7699    0.0407    1.0187 O   0  0  0  0  0  0  0  0  0  0  0  0
    6.0896   -0.3099    1.2609 C   0  0  0  0  0  0  0  0  0  0  0  0
    6.1712    0.4067    2.4617 C   0  0  0  0  0  0  0  0  0  0  0  0
    7.3259    0.3391    3.2428 C   0  0  0  0  0  0  0  0  0  0  0  0
    8.3993   -0.4501    2.8318 C   0  0  0  0  0  0  0  0  0  0  0  0
    8.3180   -1.1789    1.6459 C   0  0  0  0  0  0  0  0  0  0  0  0
    7.1639   -1.1156    0.8607 C   0  0  0  0  0  0  0  0  0  0  0  0
    0.3343    0.0364   -1.1758 C   0  0  0  0  0  0  0  0  0  0  0  0
   -0.9897    0.0577   -1.6352 C   0  0  0  0  0  0  0  0  0  0  0  0
   -2.1055    0.3645   -0.8153 N   0  0  0  0  0  0  0  0  0  0  0  0
   -2.2488    0.9166    0.4358 C   0  0  0  0  0  0  0  0  0  0  0  0
   -1.1115    1.5624    1.4731 S   0  0  0  0  0  0  0  0  0  0  0  0
   -3.5588    0.9594    0.8992 N   0  0  0  0  0  0  0  0  0  0  0  0
   -4.7317    0.5763    0.2606 C   0  0  0  0  0  0  0  0  0  0  0  0
   -4.7788    0.2049   -0.9089 O   0  0  0  0  0  0  0  0  0  0  0  0
   -5.9794    0.6959    1.0601 C   0  0  0  0  0  0  0  0  0  0  0  0
   -7.1701    1.0048    0.3902 C   0  0  0  0  0  0  0  0  0  0  0  0
   -8.3625    1.1308    1.1041 C   0  0  0  0  0  0  0  0  0  0  0  0
   -8.3713    0.9376    2.4850 C   0  0  0  0  0  0  0  0  0  0  0  0
   -7.1915    0.6106    3.1545 C   0  0  0  0  0  0  0  0  0  0  0  0
   -5.9945    0.4855    2.4456 C   0  0  0  0  0  0  0  0  0  0  0  0
   -2.5927   -0.5302   -4.6510 H   0  0  0  0  0  0  0  0  0  0  0  0
   -3.1030    0.6687   -3.4650 H   0  0  0  0  0  0  0  0  0  0  0  0
   -3.2216   -1.0810   -3.0970 H   0  0  0  0  0  0  0  0  0  0  0  0
   -0.3218   -0.8591   -4.8623 H   0  0  0  0  0  0  0  0  0  0  0  0
    1.9371   -0.8622   -4.0425 H   0  0  0  0  0  0  0  0  0  0  0  0
    2.6773   -0.0476   -0.4099 H   0  0  0  0  0  0  0  0  0  0  0  0
    5.8994   -0.4293   -1.2972 H   0  0  0  0  0  0  0  0  0  0  0  0
    5.3348    1.0207    2.7930 H   0  0  0  0  0  0  0  0  0  0  0  0
    7.3853    0.8989    4.1731 H   0  0  0  0  0  0  0  0  0  0  0  0
    9.2971   -0.5048    3.4435 H   0  0  0  0  0  0  0  0  0  0  0  0
    9.1517   -1.8066    1.3394 H   0  0  0  0  0  0  0  0  0  0  0  0
    7.1159   -1.7244   -0.0378 H   0  0  0  0  0  0  0  0  0  0  0  0
    0.5553    0.2323   -0.1349 H   0  0  0  0  0  0  0  0  0  0  0  0
   -3.0079    0.1965   -1.2586 H   0  0  0  0  0  0  0  0  0  0  0  0
   -3.6328    1.3894    1.8110 H   0  0  0  0  0  0  0  0  0  0  0  0
   -7.1718    1.1519   -0.6884 H   0  0  0  0  0  0  0  0  0  0  0  0
   -9.2847    1.3762    0.5824 H   0  0  0  0  0  0  0  0  0  0  0  0
   -9.3024    1.0319    3.0394 H   0  0  0  0  0  0  0  0  0  0  0  0
   -7.2079    0.4441    4.2294 H   0  0  0  0  0  0  0  0  0  0  0  0
   -5.0976    0.1949    2.9860 H   0  0  0  0  0  0  0  0  0  0  0  0
  1  2  1  0
  2  3  2  0
  3  4  1  0
  4  5  2  0
  5  6  1  0
  6  7  1  0
  7  8  2  0
  7  9  1  0
  9 10  1  0
 10 11  2  0
 10 12  1  0
 12 13  2  0
 13 14  1  0
 14 15  2  0
 15 16  1  0
 16 17  2  0
  5 18  1  0
 18 19  2  0
 19 20  1  0
 20 21  1  0
 21 22  2  0
 21 23  1  0
 23 24  1  0
 24 25  2  0
 24 26  1  0
 26 27  2  0
 27 28  1  0
 28 29  2  0
 29 30  1  0
 30 31  2  0
 19  2  1  0
 31 26  1  0
 17 12  1  0
  1 32  1  0
  1 33  1  0
  1 34  1  0
  3 35  1  0
  4 36  1  0
  6 37  1  0
  9 38  1  0
 13 39  1  0
 14 40  1  0
 15 41  1  0
 16 42  1  0
 17 43  1  0
 18 44  1  0
 20 45  1  0
 23 46  1  0
 27 47  1  0
 28 48  1  0
 29 49  1  0
 30 50  1  0
 31 51  1  0
M  END
$$$$
