
     RDKit          3D

 34 36  0  0  0  0  0  0  0  0999 V2000
   -5.1958    1.6232   -0.1963 C   0  0  0  0  0  0  0  0  0  0  0  0
   -4.0136    0.7172   -0.1875 C   0  0  0  0  0  0  0  0  0  0  0  0
   -2.6832    1.0419   -0.3328 C   0  0  0  0  0  0  0  0  0  0  0  0
   -1.8082   -0.1018   -0.2690 C   0  0  0  0  0  0  0  0  0  0  0  0
   -0.2959   -0.0413   -0.4078 C   0  0  0  0  0  0  0  0  0  0  0  0
    0.1410    0.7157   -1.6444 C   0  0  0  0  0  0  0  0  0  0  0  0
    1.3792    0.1220   -2.2321 C   0  0  0  0  0  0  0  0  0  0  0  0
    1.4264   -0.1255   -3.4425 O   0  0  0  0  0  0  0  0  0  0  0  0
    2.4969   -0.1282   -1.5134 N   0  0  0  0  0  0  0  0  0  0  0  0
    2.8917    0.0164   -0.1686 C   0  0  0  0  0  0  0  0  0  0  0  0
    4.2571   -0.2909    0.0373 C   0  0  0  0  0  0  0  0  0  0  0  0
    4.8641   -0.1891    1.2890 C   0  0  0  0  0  0  0  0  0  0  0  0
    4.1150    0.2251    2.3744 C   0  0  0  0  0  0  0  0  0  0  0  0
    2.7648    0.5226    2.1978 C   0  0  0  0  0  0  0  0  0  0  0  0
    2.1261    0.4150    0.9399 C   0  0  0  0  0  0  0  0  0  0  0  0
    0.3931    0.8191    1.0390 S   0  0  0  0  0  0  0  0  0  0  0  0
   -2.5447   -1.2631   -0.0684 C   0  0  0  0  0  0  0  0  0  0  0  0
   -2.0488   -2.6668    0.0654 C   0  0  0  0  0  0  0  0  0  0  0  0
   -4.2260   -0.9595    0.0262 S   0  0  0  0  0  0  0  0  0  0  0  0
   -4.8899    2.6641   -0.3451 H   0  0  0  0  0  0  0  0  0  0  0  0
   -5.8831    1.3578   -1.0063 H   0  0  0  0  0  0  0  0  0  0  0  0
   -5.7363    1.5662    0.7543 H   0  0  0  0  0  0  0  0  0  0  0  0
   -2.3403    2.0607   -0.4753 H   0  0  0  0  0  0  0  0  0  0  0  0
    0.0924   -1.0665   -0.4126 H   0  0  0  0  0  0  0  0  0  0  0  0
   -0.6295    0.6303   -2.4237 H   0  0  0  0  0  0  0  0  0  0  0  0
    0.2967    1.7904   -1.4909 H   0  0  0  0  0  0  0  0  0  0  0  0
    3.2131   -0.4753   -2.1438 H   0  0  0  0  0  0  0  0  0  0  0  0
    4.8839   -0.6100   -0.7945 H   0  0  0  0  0  0  0  0  0  0  0  0
    5.9178   -0.4280    1.4079 H   0  0  0  0  0  0  0  0  0  0  0  0
    4.5702    0.3154    3.3572 H   0  0  0  0  0  0  0  0  0  0  0  0
    2.1991    0.8387    3.0749 H   0  0  0  0  0  0  0  0  0  0  0  0
   -1.3296   -2.7366    0.8882 H   0  0  0  0  0  0  0  0  0  0  0  0
   -1.5492   -2.9791   -0.8576 H   0  0  0  0  0  0  0  0  0  0  0  0
   -2.8547   -3.3799    0.2674 H   0  0  0  0  0  0  0  0  0  0  0  0
  1  2  1  0
  2  3  2  0
  3  4  1  0
  4  5  1  0
  5  6  1  0
  6  7  1  0
  7  8  2  0
  7  9  1  0
  9 10  1  0
 10 11  2  0
 11 12  1  0
 12 13  2  0
 13 14  1  0
 14 15  2  0
 15 16  1  0
  4 17  2  0
 17 18  1  0
 17 19  1  0
 19  2  1  0
 16  5  1  0
 15 10  1  0
  1 20  1  0
  1 21  1  0
  1 22  1  0
  3 23  1  0
  5 24  1  0
  6 25  1  0
  6 26  1  0
  9 27  1  0
 11 28  1  0
 12 29  1  0
 13 30  1  0
 14 31  1  0
 18 32  1  0
 18 33  1  0
 18 34  1  0
M  END
$$$$
