
     RDKit          3D

 57 61  0  0  0  0  0  0  0  0999 V2000
   -7.1170   -3.9895    1.2629 C   0  0  0  0  0  0  0  0  0  0  0  0
   -6.2417   -2.8433    0.8531 C   0  0  0  0  0  0  0  0  0  0  0  0
   -6.7915   -1.5943    0.5587 C   0  0  0  0  0  0  0  0  0  0  0  0
   -5.9651   -0.5222    0.2032 C   0  0  0  0  0  0  0  0  0  0  0  0
   -4.5658   -0.6548    0.1439 C   0  0  0  0  0  0  0  0  0  0  0  0
   -3.7150    0.4961   -0.2302 C   0  0  0  0  0  0  0  0  0  0  0  0
   -2.4151    0.6540    0.2176 C   0  0  0  0  0  0  0  0  0  0  0  0
   -1.7034    1.7747   -0.2079 C   0  0  0  0  0  0  0  0  0  0  0  0
   -0.3053    1.8931    0.2443 C   0  0  0  0  0  0  0  0  0  0  0  0
   -0.0775    2.5324    1.2601 O   0  0  0  0  0  0  0  0  0  0  0  0
    0.5822    1.2239   -0.5730 N   0  0  0  0  0  0  0  0  0  0  0  0
    1.9808    1.1368   -0.4236 C   0  0  0  0  0  0  0  0  0  0  0  0
    2.6787    0.3786   -1.3755 C   0  0  0  0  0  0  0  0  0  0  0  0
    4.0673    0.2390   -1.2995 C   0  0  0  0  0  0  0  0  0  0  0  0
    4.7630    0.8609   -0.2627 C   0  0  0  0  0  0  0  0  0  0  0  0
    6.5299    0.7169   -0.1610 S   0  0  0  0  0  6  0  0  0  0  0  0
    7.0114   -0.0695   -1.2776 O   0  0  0  0  0  0  0  0  0  0  0  0
    7.0344    2.0592    0.0525 O   0  0  0  0  0  0  0  0  0  0  0  0
    6.7811   -0.0989    1.2607 N   0  0  0  0  0  0  0  0  0  0  0  0
    6.6407   -1.4802    1.2491 C   0  0  0  0  0  0  0  0  0  0  0  0
    7.4773   -2.1007    2.0872 N   0  0  0  0  0  0  0  0  0  0  0  0
    7.2790   -3.4248    2.2280 C   0  0  0  0  0  0  0  0  0  0  0  0
    6.2674   -4.1113    1.5978 C   0  0  0  0  0  0  0  0  0  0  0  0
    5.4414   -3.3509    0.8031 C   0  0  0  0  0  0  0  0  0  0  0  0
    5.5931   -2.0253    0.6283 N   0  0  0  0  0  0  0  0  0  0  0  0
    4.0841    1.6291    0.6852 C   0  0  0  0  0  0  0  0  0  0  0  0
    2.6935    1.7602    0.6045 C   0  0  0  0  0  0  0  0  0  0  0  0
   -2.2781    2.7440   -1.0488 C   0  0  0  0  0  0  0  0  0  0  0  0
   -1.6178    3.9132   -1.5011 C   0  0  0  0  0  0  0  0  0  0  0  0
   -2.2652    4.8179   -2.3393 C   0  0  0  0  0  0  0  0  0  0  0  0
   -3.5720    4.5672   -2.7342 C   0  0  0  0  0  0  0  0  0  0  0  0
   -4.2232    3.4152   -2.2851 C   0  0  0  0  0  0  0  0  0  0  0  0
   -3.6018    2.4983   -1.4469 C   0  0  0  0  0  0  0  0  0  0  0  0
   -4.2892    1.4100   -1.0551 N   0  0  0  0  0  0  0  0  0  0  0  0
   -4.0309   -1.9193    0.4496 C   0  0  0  0  0  0  0  0  0  0  0  0
   -4.8541   -2.9954    0.8051 C   0  0  0  0  0  0  0  0  0  0  0  0
   -6.7502   -4.9276    0.8334 H   0  0  0  0  0  0  0  0  0  0  0  0
   -8.1435   -3.8494    0.9089 H   0  0  0  0  0  0  0  0  0  0  0  0
   -7.1321   -4.0776    2.3533 H   0  0  0  0  0  0  0  0  0  0  0  0
   -7.8673   -1.4404    0.5997 H   0  0  0  0  0  0  0  0  0  0  0  0
   -6.4270    0.4376   -0.0263 H   0  0  0  0  0  0  0  0  0  0  0  0
   -1.9557   -0.0548    0.8980 H   0  0  0  0  0  0  0  0  0  0  0  0
    0.1912    0.7482   -1.3780 H   0  0  0  0  0  0  0  0  0  0  0  0
    2.1534   -0.1158   -2.1888 H   0  0  0  0  0  0  0  0  0  0  0  0
    4.5935   -0.3564   -2.0421 H   0  0  0  0  0  0  0  0  0  0  0  0
    7.5842    0.2228    1.7870 H   0  0  0  0  0  0  0  0  0  0  0  0
    7.9760   -3.9320    2.8897 H   0  0  0  0  0  0  0  0  0  0  0  0
    6.1248   -5.1752    1.7267 H   0  0  0  0  0  0  0  0  0  0  0  0
    4.6046   -3.7966    0.2732 H   0  0  0  0  0  0  0  0  0  0  0  0
    4.6253    2.1280    1.4859 H   0  0  0  0  0  0  0  0  0  0  0  0
    2.1967    2.3617    1.3600 H   0  0  0  0  0  0  0  0  0  0  0  0
   -0.5973    4.1320   -1.1896 H   0  0  0  0  0  0  0  0  0  0  0  0
   -1.7523    5.7155   -2.6758 H   0  0  0  0  0  0  0  0  0  0  0  0
   -4.0915    5.2649   -3.3861 H   0  0  0  0  0  0  0  0  0  0  0  0
   -5.2485    3.2279   -2.5975 H   0  0  0  0  0  0  0  0  0  0  0  0
   -2.9593   -2.0966    0.4033 H   0  0  0  0  0  0  0  0  0  0  0  0
   -4.4011   -3.9563    1.0396 H   0  0  0  0  0  0  0  0  0  0  0  0
  1  2  1  0
  2  3  2  0
  3  4  1  0
  4  5  2  0
  5  6  1  0
  6  7  2  0
  7  8  1  0
  8  9  1  0
  9 10  2  0
  9 11  1  0
 11 12  1  0
 12 13  2  0
 13 14  1  0
 14 15  2  0
 15 16  1  0
 16 17  2  0
 16 18  2  0
 16 19  1  0
 19 20  1  0
 20 21  2  0
 21 22  1  0
 22 23  2  0
 23 24  1  0
 24 25  2  0
 15 26  1  0
 26 27  2  0
  8 28  2  0
 28 29  1  0
 29 30  2  0
 30 31  1  0
 31 32  2  0
 32 33  1  0
 33 34  2  0
  5 35  1  0
 35 36  2  0
 36  2  1  0
 34  6  1  0
 27 12  1  0
 33 28  1  0
 25 20  1  0
  1 37  1  0
  1 38  1  0
  1 39  1  0
  3 40  1  0
  4 41  1  0
  7 42  1  0
 11 43  1  0
 13 44  1  0
 14 45  1  0
 19 46  1  0
 22 47  1  0
 23 48  1  0
 24 49  1  0
 26 50  1  0
 27 51  1  0
 29 52  1  0
 30 53  1  0
 31 54  1  0
 32 55  1  0
 35 56  1  0
 36 57  1  0
M  END
$$$$
