
     RDKit          3D

 44 46  0  0  0  0  0  0  0  0999 V2000
    1.1150   -0.9855   -4.2591 C   0  0  0  0  0  0  0  0  0  0  0  0
    1.1296   -0.9834   -2.8298 O   0  0  0  0  0  0  0  0  0  0  0  0
    1.7343    0.0989   -2.2757 C   0  0  0  0  0  0  0  0  0  0  0  0
    2.2344    1.0188   -2.9115 O   0  0  0  0  0  0  0  0  0  0  0  0
    1.6798    0.0772   -0.7665 C   0  0  0  0  0  0  0  0  0  0  0  0
    1.6322   -1.3208   -0.1882 C   0  0  0  0  0  0  0  0  0  0  0  0
    2.9308   -2.0872   -0.1189 C   0  0  0  0  0  0  0  0  0  0  0  0
    0.5534   -1.9097    0.2308 N   0  0  0  0  0  0  0  0  0  0  0  0
   -0.6488   -1.2480    0.1526 C   0  0  0  0  0  0  0  0  0  0  0  0
   -0.7311    0.0686   -0.0704 C   0  0  0  0  0  0  0  0  0  0  0  0
   -2.0584    0.7048   -0.1660 C   0  0  0  0  0  0  0  0  0  0  0  0
   -2.1500    1.8704   -0.5468 O   0  0  0  0  0  0  0  0  0  0  0  0
   -3.1379   -0.0816    0.1709 N   0  0  0  0  0  0  0  0  0  0  0  0
   -4.4567    0.5215    0.1423 C   0  0  0  0  0  0  0  0  0  0  0  0
   -3.0650   -1.4557    0.3521 C   0  0  0  0  0  0  0  0  0  0  0  0
   -4.0791   -2.1412    0.4996 O   0  0  0  0  0  0  0  0  0  0  0  0
   -1.7881   -2.0041    0.3417 N   0  0  0  0  0  0  0  0  0  0  0  0
   -1.6516   -3.4423    0.5556 C   0  0  0  0  0  0  0  0  0  0  0  0
    0.4881    0.9212   -0.2908 C   0  0  0  0  0  0  0  0  0  0  0  0
    0.8439    1.7370    0.9546 C   0  0  0  0  0  0  0  0  0  0  0  0
    0.8432    3.1403    0.8811 C   0  0  0  0  0  0  0  0  0  0  0  0
    1.1685    3.9150    1.9973 C   0  0  0  0  0  0  0  0  0  0  0  0
    1.4953    3.2943    3.1991 C   0  0  0  0  0  0  0  0  0  0  0  0
    1.8963    4.2467    4.5743 Cl  0  0  0  0  0  0  0  0  0  0  0  0
    1.4963    1.9054    3.2949 C   0  0  0  0  0  0  0  0  0  0  0  0
    1.1711    1.1290    2.1791 C   0  0  0  0  0  0  0  0  0  0  0  0
    0.5587   -0.1221   -4.6368 H   0  0  0  0  0  0  0  0  0  0  0  0
    0.6091   -1.8964   -4.5907 H   0  0  0  0  0  0  0  0  0  0  0  0
    2.1364   -0.9928   -4.6520 H   0  0  0  0  0  0  0  0  0  0  0  0
    2.6295    0.5210   -0.4358 H   0  0  0  0  0  0  0  0  0  0  0  0
    3.3478   -2.1910   -1.1240 H   0  0  0  0  0  0  0  0  0  0  0  0
    2.7702   -3.0820    0.3055 H   0  0  0  0  0  0  0  0  0  0  0  0
    3.6390   -1.5414    0.5103 H   0  0  0  0  0  0  0  0  0  0  0  0
   -5.1028    0.0665    0.8995 H   0  0  0  0  0  0  0  0  0  0  0  0
   -4.4064    1.5987    0.3256 H   0  0  0  0  0  0  0  0  0  0  0  0
   -4.8946    0.3476   -0.8459 H   0  0  0  0  0  0  0  0  0  0  0  0
   -1.1399   -3.8903   -0.3027 H   0  0  0  0  0  0  0  0  0  0  0  0
   -2.6199   -3.9379    0.6665 H   0  0  0  0  0  0  0  0  0  0  0  0
   -1.0755   -3.6185    1.4701 H   0  0  0  0  0  0  0  0  0  0  0  0
    0.2541    1.6371   -1.0917 H   0  0  0  0  0  0  0  0  0  0  0  0
    0.5782    3.6456   -0.0469 H   0  0  0  0  0  0  0  0  0  0  0  0
    1.1590    4.9991    1.9211 H   0  0  0  0  0  0  0  0  0  0  0  0
    1.7438    1.4202    4.2356 H   0  0  0  0  0  0  0  0  0  0  0  0
    1.1678    0.0468    2.2899 H   0  0  0  0  0  0  0  0  0  0  0  0
  1  2  1  0
  2  3  1  0
  3  4  2  0
  3  5  1  0
  5  6  1  0
  6  7  1  0
  6  8  2  0
  8  9  1  0
  9 10  2  0
 10 11  1  0
 11 12  2  0
 11 13  1  0
 13 14  1  0
 13 15  1  0
 15 16  2  0
 15 17  1  0
 17 18  1  0
 10 19  1  0
 19 20  1  0
 20 21  2  0
 21 22  1  0
 22 23  2  0
 23 24  1  0
 23 25  1  0
 25 26  2  0
 19  5  1  0
 26 20  1  0
 17  9  1  0
  1 27  1  0
  1 28  1  0
  1 29  1  0
  5 30  1  0
  7 31  1  0
  7 32  1  0
  7 33  1  0
 14 34  1  0
 14 35  1  0
 14 36  1  0
 18 37  1  0
 18 38  1  0
 18 39  1  0
 19 40  1  0
 21 41  1  0
 22 42  1  0
 25 43  1  0
 26 44  1  0
M  END
$$$$
