
     RDKit          3D

 33 34  0  0  0  0  0  0  0  0999 V2000
    1.6808   -0.9024   -4.1410 C   0  0  0  0  0  0  0  0  0  0  0  0
    2.2192   -0.8665   -2.7218 C   0  0  0  0  0  0  0  0  0  0  0  0
    1.2648   -1.4966   -1.7158 C   0  0  0  0  0  0  0  0  0  0  0  0
    0.1733   -1.9552   -2.0593 O   0  0  0  0  0  0  0  0  0  0  0  0
    1.7181   -1.4844   -0.2704 C   0  0  0  0  0  0  0  0  0  0  0  0
    1.2182   -2.6380    0.4838 C   0  0  0  0  0  0  0  0  0  0  0  0
    0.8330   -3.5461    1.0975 N   0  0  0  0  0  0  0  0  0  0  0  0
    1.3304   -0.1834    0.3510 C   0  0  0  0  0  0  0  0  0  0  0  0
    2.2088    0.7208    0.7359 N   0  0  0  0  0  0  0  0  0  0  0  0
    1.5340    1.7924    1.2396 N   0  0  0  0  0  0  0  0  0  0  0  0
    0.2454    1.5455    1.1584 C   0  0  0  0  0  0  0  0  0  0  0  0
    0.0577    0.3085    0.5897 N   0  0  0  0  0  0  0  0  0  0  0  0
   -1.2022   -0.3445    0.2945 C   0  0  0  0  0  0  0  0  0  0  0  0
   -2.4792    0.1830    0.9612 C   0  0  0  0  0  0  0  0  0  0  0  0
   -2.3066    0.5077    2.4417 C   0  0  0  0  0  0  0  0  0  0  0  0
   -1.6938    1.8868    2.7126 C   0  0  0  0  0  0  0  0  0  0  0  0
   -0.8351    2.4650    1.5909 C   0  0  0  0  0  0  0  0  0  0  0  0
    2.3959   -0.4449   -4.8315 H   0  0  0  0  0  0  0  0  0  0  0  0
    0.7349   -0.3559   -4.2164 H   0  0  0  0  0  0  0  0  0  0  0  0
    1.5005   -1.9319   -4.4675 H   0  0  0  0  0  0  0  0  0  0  0  0
    2.3970    0.1728   -2.4273 H   0  0  0  0  0  0  0  0  0  0  0  0
    3.1682   -1.4111   -2.6795 H   0  0  0  0  0  0  0  0  0  0  0  0
    2.8137   -1.5577   -0.2770 H   0  0  0  0  0  0  0  0  0  0  0  0
   -1.3314   -0.3021   -0.7919 H   0  0  0  0  0  0  0  0  0  0  0  0
   -1.0939   -1.3934    0.5825 H   0  0  0  0  0  0  0  0  0  0  0  0
   -2.8676    1.0518    0.4174 H   0  0  0  0  0  0  0  0  0  0  0  0
   -3.2485   -0.5931    0.8579 H   0  0  0  0  0  0  0  0  0  0  0  0
   -1.6958   -0.2680    2.9209 H   0  0  0  0  0  0  0  0  0  0  0  0
   -3.2846    0.4668    2.9371 H   0  0  0  0  0  0  0  0  0  0  0  0
   -2.5066    2.5973    2.9110 H   0  0  0  0  0  0  0  0  0  0  0  0
   -1.1102    1.8320    3.6406 H   0  0  0  0  0  0  0  0  0  0  0  0
   -1.4517    2.7436    0.7287 H   0  0  0  0  0  0  0  0  0  0  0  0
   -0.3866    3.4012    1.9465 H   0  0  0  0  0  0  0  0  0  0  0  0
  1  2  1  0
  2  3  1  0
  3  4  2  0
  3  5  1  0
  5  6  1  0
  6  7  3  0
  5  8  1  0
  8  9  2  0
  9 10  1  0
 10 11  2  0
 11 12  1  0
 12 13  1  0
 13 14  1  0
 14 15  1  0
 15 16  1  0
 16 17  1  0
 12  8  1  0
 17 11  1  0
  1 18  1  0
  1 19  1  0
  1 20  1  0
  2 21  1  0
  2 22  1  0
  5 23  1  0
 13 24  1  0
 13 25  1  0
 14 26  1  0
 14 27  1  0
 15 28  1  0
 15 29  1  0
 16 30  1  0
 16 31  1  0
 17 32  1  0
 17 33  1  0
M  END
$$$$
