
     RDKit          3D

 49 51  0  0  0  0  0  0  0  0999 V2000
   -0.4892    3.9142    0.3715 N   0  0  0  0  0  0  0  0  0  0  0  0
    0.5966    3.1373    0.5421 C   0  0  0  0  0  0  0  0  0  0  0  0
    1.7658    3.6263    0.8276 N   0  0  0  0  0  0  0  0  0  0  0  0
    2.6392    2.4260    0.9490 C   0  0  0  0  0  0  0  0  0  0  0  0
    1.8188    1.2253    0.4323 C   0  0  0  0  0  0  0  0  0  0  0  0
    1.8934   -0.0013    1.3473 C   0  0  0  0  0  0  0  0  0  0  0  0
    3.2450   -0.6741    1.3184 C   0  0  0  0  0  0  0  0  0  0  0  0
    3.6209   -1.4676    0.2238 C   0  0  0  0  0  0  0  0  0  0  0  0
    4.8761   -2.0799    0.1883 C   0  0  0  0  0  0  0  0  0  0  0  0
    5.7561   -1.8976    1.2494 C   0  0  0  0  0  0  0  0  0  0  0  0
    6.9906   -2.4757    1.2566 O   0  0  0  0  0  0  0  0  0  0  0  0
    5.4012   -1.1159    2.3414 C   0  0  0  0  0  0  0  0  0  0  0  0
    4.1469   -0.5049    2.3778 C   0  0  0  0  0  0  0  0  0  0  0  0
    0.4632    1.7888    0.4052 N   0  0  0  0  0  0  0  0  0  0  0  0
   -0.5102    1.1619   -0.4865 C   0  0  0  0  0  0  0  0  0  0  0  0
   -1.7605    0.7470    0.2957 C   0  0  0  0  0  0  0  0  0  0  0  0
   -2.7596    0.0252   -0.5775 C   0  0  0  0  0  0  0  0  0  0  0  0
   -2.8170   -1.3748   -0.5840 C   0  0  0  0  0  0  0  0  0  0  0  0
   -3.7307   -2.0572   -1.4030 C   0  0  0  0  0  0  0  0  0  0  0  0
   -3.7602   -3.5680   -1.4098 C   0  0  0  0  0  0  0  0  0  0  0  0
   -2.7622   -4.0976   -2.1690 F   0  0  0  0  0  0  0  0  0  0  0  0
   -4.9208   -4.0824   -1.9018 F   0  0  0  0  0  0  0  0  0  0  0  0
   -3.6112   -4.1044   -0.1669 F   0  0  0  0  0  0  0  0  0  0  0  0
   -4.5845   -1.3143   -2.2339 C   0  0  0  0  0  0  0  0  0  0  0  0
   -4.5480    0.0896   -2.2386 C   0  0  0  0  0  0  0  0  0  0  0  0
   -5.4575    0.8796   -3.1511 C   0  0  0  0  0  0  0  0  0  0  0  0
   -6.6455    0.2570   -3.3867 F   0  0  0  0  0  0  0  0  0  0  0  0
   -5.7727    2.1089   -2.6574 F   0  0  0  0  0  0  0  0  0  0  0  0
   -4.8979    1.0961   -4.3724 F   0  0  0  0  0  0  0  0  0  0  0  0
   -3.6243    0.7476   -1.4113 C   0  0  0  0  0  0  0  0  0  0  0  0
   -0.2555    4.8725    0.6155 H   0  0  0  0  0  0  0  0  0  0  0  0
   -1.2754    3.6026    0.9249 H   0  0  0  0  0  0  0  0  0  0  0  0
    2.9320    2.3167    1.9988 H   0  0  0  0  0  0  0  0  0  0  0  0
    3.5464    2.5638    0.3513 H   0  0  0  0  0  0  0  0  0  0  0  0
    2.1426    0.9852   -0.5891 H   0  0  0  0  0  0  0  0  0  0  0  0
    1.1392   -0.7411    1.0476 H   0  0  0  0  0  0  0  0  0  0  0  0
    1.6290    0.2729    2.3773 H   0  0  0  0  0  0  0  0  0  0  0  0
    2.9368   -1.6169   -0.6089 H   0  0  0  0  0  0  0  0  0  0  0  0
    5.1458   -2.6902   -0.6677 H   0  0  0  0  0  0  0  0  0  0  0  0
    7.0975   -2.9898    0.4397 H   0  0  0  0  0  0  0  0  0  0  0  0
    6.0991   -0.9821    3.1633 H   0  0  0  0  0  0  0  0  0  0  0  0
    3.8828    0.1042    3.2398 H   0  0  0  0  0  0  0  0  0  0  0  0
   -0.0731    0.2713   -0.9568 H   0  0  0  0  0  0  0  0  0  0  0  0
   -0.7690    1.8364   -1.3124 H   0  0  0  0  0  0  0  0  0  0  0  0
   -2.2480    1.6195    0.7465 H   0  0  0  0  0  0  0  0  0  0  0  0
   -1.4761    0.1044    1.1389 H   0  0  0  0  0  0  0  0  0  0  0  0
   -2.1448   -1.9473    0.0567 H   0  0  0  0  0  0  0  0  0  0  0  0
   -5.2902   -1.8347   -2.8841 H   0  0  0  0  0  0  0  0  0  0  0  0
   -3.5809    1.8377   -1.4190 H   0  0  0  0  0  0  0  0  0  0  0  0
  1  2  1  0
  2  3  2  0
  3  4  1  0
  4  5  1  0
  5  6  1  0
  6  7  1  0
  7  8  2  0
  8  9  1  0
  9 10  2  0
 10 11  1  0
 10 12  1  0
 12 13  2  0
  5 14  1  0
 14 15  1  0
 15 16  1  0
 16 17  1  0
 17 18  2  0
 18 19  1  0
 19 20  1  0
 20 21  1  0
 20 22  1  0
 20 23  1  0
 19 24  2  0
 24 25  1  0
 25 26  1  0
 26 27  1  0
 26 28  1  0
 26 29  1  0
 25 30  2  0
 14  2  1  0
 30 17  1  0
 13  7  1  0
  1 31  1  0
  1 32  1  0
  4 33  1  0
  4 34  1  0
  5 35  1  0
  6 36  1  0
  6 37  1  0
  8 38  1  0
  9 39  1  0
 11 40  1  0
 12 41  1  0
 13 42  1  0
 15 43  1  0
 15 44  1  0
 16 45  1  0
 16 46  1  0
 18 47  1  0
 24 48  1  0
 30 49  1  0
M  END
$$$$
