
     RDKit          3D

 44 46  0  0  0  0  0  0  0  0999 V2000
    1.2697    2.1712    2.4858 C   0  0  0  0  0  0  0  0  0  0  0  0
    1.7147    1.5459    1.2905 O   0  0  0  0  0  0  0  0  0  0  0  0
    0.7647    0.9914    0.4673 C   0  0  0  0  0  0  0  0  0  0  0  0
   -0.6123    1.0107    0.7217 C   0  0  0  0  0  0  0  0  0  0  0  0
   -1.5094    0.4108   -0.1709 C   0  0  0  0  0  0  0  0  0  0  0  0
   -2.9496    0.4596    0.1158 C   0  0  0  0  0  0  0  0  0  0  0  0
   -3.7423   -0.6016    0.3859 C   0  0  0  0  0  0  0  0  0  0  0  0
   -3.2027   -1.9254    0.4201 C   0  0  0  0  0  0  0  0  0  0  0  0
   -2.7971   -3.0130    0.4461 N   0  0  0  0  0  0  0  0  0  0  0  0
   -5.1933   -0.4018    0.6639 C   0  0  0  0  0  0  0  0  0  0  0  0
   -6.0426   -1.4574    1.0058 C   0  0  0  0  0  0  0  0  0  0  0  0
   -7.3924   -1.2012    1.2490 C   0  0  0  0  0  0  0  0  0  0  0  0
   -7.8705    0.0973    1.1470 C   0  0  0  0  0  0  0  0  0  0  0  0
   -6.9743    1.0918    0.8054 C   0  0  0  0  0  0  0  0  0  0  0  0
   -5.6620    0.8713    0.5656 N   0  0  0  0  0  0  0  0  0  0  0  0
   -1.0243   -0.1944   -1.3328 C   0  0  0  0  0  0  0  0  0  0  0  0
    0.3478   -0.2186   -1.5957 C   0  0  0  0  0  0  0  0  0  0  0  0
    1.2490    0.3657   -0.6997 C   0  0  0  0  0  0  0  0  0  0  0  0
    2.6093    0.3985   -0.8805 O   0  0  0  0  0  0  0  0  0  0  0  0
    3.1600   -0.4308   -1.9009 C   0  0  0  0  0  0  0  0  0  0  0  0
    4.6710   -0.4167   -1.8088 C   0  0  0  0  0  0  0  0  0  0  0  0
    5.4501   -0.4160   -2.9765 C   0  0  0  0  0  0  0  0  0  0  0  0
    6.8451   -0.4427   -2.8988 C   0  0  0  0  0  0  0  0  0  0  0  0
    7.4694   -0.4796   -1.6531 C   0  0  0  0  0  0  0  0  0  0  0  0
    9.1874   -0.5155   -1.5598 Cl  0  0  0  0  0  0  0  0  0  0  0  0
    6.7117   -0.4927   -0.4845 C   0  0  0  0  0  0  0  0  0  0  0  0
    5.3173   -0.4661   -0.5627 C   0  0  0  0  0  0  0  0  0  0  0  0
    0.6230    3.0272    2.2665 H   0  0  0  0  0  0  0  0  0  0  0  0
    0.7693    1.4535    3.1444 H   0  0  0  0  0  0  0  0  0  0  0  0
    2.1508    2.5481    3.0143 H   0  0  0  0  0  0  0  0  0  0  0  0
   -1.0105    1.4855    1.6133 H   0  0  0  0  0  0  0  0  0  0  0  0
   -3.3589    1.4692    0.1140 H   0  0  0  0  0  0  0  0  0  0  0  0
   -5.6861   -2.4803    1.0908 H   0  0  0  0  0  0  0  0  0  0  0  0
   -8.0631   -2.0141    1.5159 H   0  0  0  0  0  0  0  0  0  0  0  0
   -8.9142    0.3282    1.3290 H   0  0  0  0  0  0  0  0  0  0  0  0
   -7.2947    2.1261    0.7111 H   0  0  0  0  0  0  0  0  0  0  0  0
   -1.7062   -0.6487   -2.0488 H   0  0  0  0  0  0  0  0  0  0  0  0
    0.6771   -0.6940   -2.5140 H   0  0  0  0  0  0  0  0  0  0  0  0
    2.8254   -1.4692   -1.7848 H   0  0  0  0  0  0  0  0  0  0  0  0
    2.8535   -0.0439   -2.8802 H   0  0  0  0  0  0  0  0  0  0  0  0
    4.9765   -0.3917   -3.9561 H   0  0  0  0  0  0  0  0  0  0  0  0
    7.4366   -0.4366   -3.8113 H   0  0  0  0  0  0  0  0  0  0  0  0
    7.1953   -0.5238    0.4880 H   0  0  0  0  0  0  0  0  0  0  0  0
    4.7315   -0.4760    0.3562 H   0  0  0  0  0  0  0  0  0  0  0  0
  1  2  1  0
  2  3  1  0
  3  4  2  0
  4  5  1  0
  5  6  1  0
  6  7  2  3
  7  8  1  0
  8  9  3  0
  7 10  1  0
 10 11  2  0
 11 12  1  0
 12 13  2  0
 13 14  1  0
 14 15  2  0
  5 16  2  0
 16 17  1  0
 17 18  2  0
 18 19  1  0
 19 20  1  0
 20 21  1  0
 21 22  2  0
 22 23  1  0
 23 24  2  0
 24 25  1  0
 24 26  1  0
 26 27  2  0
 18  3  1  0
 27 21  1  0
 15 10  1  0
  1 28  1  0
  1 29  1  0
  1 30  1  0
  4 31  1  0
  6 32  1  0
 11 33  1  0
 12 34  1  0
 13 35  1  0
 14 36  1  0
 16 37  1  0
 17 38  1  0
 20 39  1  0
 20 40  1  0
 22 41  1  0
 23 42  1  0
 26 43  1  0
 27 44  1  0
M  END
$$$$
