
     RDKit          3D

 52 54  0  0  0  0  0  0  0  0999 V2000
    2.8648    2.1685   -2.3588 C   0  0  0  0  0  0  0  0  0  0  0  0
    2.8920    0.8164   -1.6453 C   0  0  0  0  0  0  0  0  0  0  0  0
    3.8989    0.7828   -0.4854 C   0  0  0  0  0  0  0  0  0  0  0  0
    5.3535    0.9072   -0.9461 C   0  0  0  0  0  0  0  0  0  0  0  0
    6.3119    0.7585    0.2102 C   0  0  0  0  0  0  0  0  0  0  0  0
    6.6980    1.8765    0.9618 C   0  0  0  0  0  0  0  0  0  0  0  0
    7.5700    1.7348    2.0423 C   0  0  0  0  0  0  0  0  0  0  0  0
    8.0598    0.4757    2.3840 C   0  0  0  0  0  0  0  0  0  0  0  0
    7.6771   -0.6433    1.6467 C   0  0  0  0  0  0  0  0  0  0  0  0
    6.8053   -0.5039    0.5657 C   0  0  0  0  0  0  0  0  0  0  0  0
    1.5582    0.5018   -1.1413 N   0  0  0  0  0  0  0  0  0  0  0  0
    0.5924   -0.0711   -1.9428 C   0  0  0  0  0  0  0  0  0  0  0  0
    0.7980   -0.4353   -3.0953 O   0  0  0  0  0  0  0  0  0  0  0  0
   -0.7505   -0.2694   -1.3307 C   0  0  0  0  0  0  0  0  0  0  0  0
   -1.2486    0.5671   -0.3271 C   0  0  0  0  0  0  0  0  0  0  0  0
   -2.5210    0.3392    0.2146 C   0  0  0  0  0  0  0  0  0  0  0  0
   -3.3111   -0.7181   -0.2416 C   0  0  0  0  0  0  0  0  0  0  0  0
   -4.6013   -1.0068    0.2500 N   0  0  0  0  0  0  0  0  0  0  0  0
   -5.2518   -0.3921    1.3049 C   0  0  0  0  0  0  0  0  0  0  0  0
   -4.7948    0.4648    2.0514 O   0  0  0  0  0  0  0  0  0  0  0  0
   -6.6372   -0.8789    1.5577 C   0  0  0  0  0  0  0  0  0  0  0  0
   -7.0889   -0.9486    2.8826 C   0  0  0  0  0  0  0  0  0  0  0  0
   -8.3805   -1.3980    3.1617 C   0  0  0  0  0  0  0  0  0  0  0  0
   -9.2285   -1.7692    2.1183 C   0  0  0  0  0  0  0  0  0  0  0  0
   -8.7837   -1.6801    0.7993 C   0  0  0  0  0  0  0  0  0  0  0  0
   -9.9442   -2.1641   -0.6132 Br  0  0  0  0  0  0  0  0  0  0  0  0
   -7.4947   -1.2329    0.5087 C   0  0  0  0  0  0  0  0  0  0  0  0
   -2.8168   -1.5393   -1.2624 C   0  0  0  0  0  0  0  0  0  0  0  0
   -1.5475   -1.3157   -1.8058 C   0  0  0  0  0  0  0  0  0  0  0  0
    2.6274    2.9782   -1.6599 H   0  0  0  0  0  0  0  0  0  0  0  0
    2.1023    2.1819   -3.1454 H   0  0  0  0  0  0  0  0  0  0  0  0
    3.8251    2.3930   -2.8319 H   0  0  0  0  0  0  0  0  0  0  0  0
    3.1627    0.0442   -2.3758 H   0  0  0  0  0  0  0  0  0  0  0  0
    3.7743   -0.1624    0.0613 H   0  0  0  0  0  0  0  0  0  0  0  0
    3.6641    1.5775    0.2356 H   0  0  0  0  0  0  0  0  0  0  0  0
    5.5776    0.1463   -1.7042 H   0  0  0  0  0  0  0  0  0  0  0  0
    5.5291    1.8765   -1.4269 H   0  0  0  0  0  0  0  0  0  0  0  0
    6.3220    2.8652    0.7092 H   0  0  0  0  0  0  0  0  0  0  0  0
    7.8670    2.6074    2.6182 H   0  0  0  0  0  0  0  0  0  0  0  0
    8.7389    0.3661    3.2253 H   0  0  0  0  0  0  0  0  0  0  0  0
    8.0570   -1.6259    1.9139 H   0  0  0  0  0  0  0  0  0  0  0  0
    6.5125   -1.3869    0.0021 H   0  0  0  0  0  0  0  0  0  0  0  0
    1.3383    0.7523   -0.1874 H   0  0  0  0  0  0  0  0  0  0  0  0
   -0.6823    1.4214    0.0311 H   0  0  0  0  0  0  0  0  0  0  0  0
   -2.8719    1.0193    0.9852 H   0  0  0  0  0  0  0  0  0  0  0  0
   -5.0636   -1.7981   -0.1787 H   0  0  0  0  0  0  0  0  0  0  0  0
   -6.4325   -0.6525    3.6994 H   0  0  0  0  0  0  0  0  0  0  0  0
   -8.7256   -1.4535    4.1916 H   0  0  0  0  0  0  0  0  0  0  0  0
  -10.2345   -2.1155    2.3430 H   0  0  0  0  0  0  0  0  0  0  0  0
   -7.1796   -1.1339   -0.5260 H   0  0  0  0  0  0  0  0  0  0  0  0
   -3.4068   -2.3647   -1.6524 H   0  0  0  0  0  0  0  0  0  0  0  0
   -1.1800   -1.9625   -2.6006 H   0  0  0  0  0  0  0  0  0  0  0  0
  1  2  1  0
  2  3  1  0
  3  4  1  0
  4  5  1  0
  5  6  2  0
  6  7  1  0
  7  8  2  0
  8  9  1  0
  9 10  2  0
  2 11  1  0
 11 12  1  0
 12 13  2  0
 12 14  1  0
 14 15  2  0
 15 16  1  0
 16 17  2  0
 17 18  1  0
 18 19  1  0
 19 20  2  0
 19 21  1  0
 21 22  2  0
 22 23  1  0
 23 24  2  0
 24 25  1  0
 25 26  1  0
 25 27  2  0
 17 28  1  0
 28 29  2  0
 10  5  1  0
 29 14  1  0
 27 21  1  0
  1 30  1  0
  1 31  1  0
  1 32  1  0
  2 33  1  0
  3 34  1  0
  3 35  1  0
  4 36  1  0
  4 37  1  0
  6 38  1  0
  7 39  1  0
  8 40  1  0
  9 41  1  0
 10 42  1  0
 11 43  1  0
 15 44  1  0
 16 45  1  0
 18 46  1  0
 22 47  1  0
 23 48  1  0
 24 49  1  0
 27 50  1  0
 28 51  1  0
 29 52  1  0
M  END
$$$$
