
     RDKit          3D

 43 44  0  0  0  0  0  0  0  0999 V2000
    2.1441   -2.3955   -4.8657 C   0  0  0  0  0  0  0  0  0  0  0  0
    1.6406   -1.8245   -3.6654 O   0  0  0  0  0  0  0  0  0  0  0  0
    2.5523   -1.5207   -2.6901 C   0  0  0  0  0  0  0  0  0  0  0  0
    3.9169   -1.8050   -2.7344 C   0  0  0  0  0  0  0  0  0  0  0  0
    4.7369   -1.4481   -1.6638 C   0  0  0  0  0  0  0  0  0  0  0  0
    4.1960   -0.8010   -0.5509 C   0  0  0  0  0  0  0  0  0  0  0  0
    2.8279   -0.5080   -0.4919 C   0  0  0  0  0  0  0  0  0  0  0  0
    2.3629    0.1462    0.6707 N   0  0  0  0  0  0  0  0  0  0  0  0
    1.0700    0.5501    0.9451 C   0  0  0  0  0  0  0  0  0  0  0  0
    0.0856    0.4131    0.2204 O   0  0  0  0  0  0  0  0  0  0  0  0
    0.9187    1.2329    2.2843 C   0  0  0  0  0  0  0  0  0  0  0  0
    0.0768    0.4520    3.2701 C   0  0  0  0  0  0  0  0  0  0  0  0
    0.7970   -0.1474    4.4549 C   0  0  0  0  0  0  0  0  0  0  0  0
   -1.2111    0.2967    3.2174 N   0  0  0  0  0  0  0  0  0  0  0  0
   -1.8700    0.7430    2.1104 N   0  0  0  0  0  0  0  0  0  0  0  0
   -3.2535    0.7932    2.1006 C   0  0  0  0  0  0  0  0  0  0  0  0
   -4.0024    0.6336    3.0561 O   0  0  0  0  0  0  0  0  0  0  0  0
   -3.8206    1.0647    0.7643 C   0  0  0  0  0  0  0  0  0  0  0  0
   -3.6519    0.0955   -0.2361 C   0  0  0  0  0  0  0  0  0  0  0  0
   -4.1702    0.3157   -1.5127 C   0  0  0  0  0  0  0  0  0  0  0  0
   -4.8589    1.4958   -1.7902 C   0  0  0  0  0  0  0  0  0  0  0  0
   -5.0315    2.4583   -0.7907 C   0  0  0  0  0  0  0  0  0  0  0  0
   -4.5091    2.2493    0.4898 C   0  0  0  0  0  0  0  0  0  0  0  0
   -4.6901    3.5145    1.6491 Cl  0  0  0  0  0  0  0  0  0  0  0  0
    2.0151   -0.8752   -1.5673 C   0  0  0  0  0  0  0  0  0  0  0  0
    2.5906   -3.3771   -4.6791 H   0  0  0  0  0  0  0  0  0  0  0  0
    2.8565   -1.7236   -5.3563 H   0  0  0  0  0  0  0  0  0  0  0  0
    1.2995   -2.5392   -5.5464 H   0  0  0  0  0  0  0  0  0  0  0  0
    4.3703   -2.3077   -3.5828 H   0  0  0  0  0  0  0  0  0  0  0  0
    5.8000   -1.6747   -1.6970 H   0  0  0  0  0  0  0  0  0  0  0  0
    4.8631   -0.5333    0.2653 H   0  0  0  0  0  0  0  0  0  0  0  0
    3.0703    0.3394    1.3682 H   0  0  0  0  0  0  0  0  0  0  0  0
    0.4557    2.2123    2.1161 H   0  0  0  0  0  0  0  0  0  0  0  0
    1.8976    1.4341    2.7331 H   0  0  0  0  0  0  0  0  0  0  0  0
    1.6794   -0.6930    4.1110 H   0  0  0  0  0  0  0  0  0  0  0  0
    1.1076    0.6571    5.1273 H   0  0  0  0  0  0  0  0  0  0  0  0
    0.1428   -0.8355    4.9969 H   0  0  0  0  0  0  0  0  0  0  0  0
   -1.3612    0.8091    1.2254 H   0  0  0  0  0  0  0  0  0  0  0  0
   -3.1231   -0.8310   -0.0210 H   0  0  0  0  0  0  0  0  0  0  0  0
   -4.0404   -0.4357   -2.2884 H   0  0  0  0  0  0  0  0  0  0  0  0
   -5.2630    1.6699   -2.7855 H   0  0  0  0  0  0  0  0  0  0  0  0
   -5.5648    3.3776   -1.0219 H   0  0  0  0  0  0  0  0  0  0  0  0
    0.9478   -0.6780   -1.5687 H   0  0  0  0  0  0  0  0  0  0  0  0
  1  2  1  0
  2  3  1  0
  3  4  2  0
  4  5  1  0
  5  6  2  0
  6  7  1  0
  7  8  1  0
  8  9  1  0
  9 10  2  0
  9 11  1  0
 11 12  1  0
 12 13  1  0
 12 14  2  3
 14 15  1  0
 15 16  1  0
 16 17  2  0
 16 18  1  0
 18 19  2  0
 19 20  1  0
 20 21  2  0
 21 22  1  0
 22 23  2  0
 23 24  1  0
  7 25  2  0
 25  3  1  0
 23 18  1  0
  1 26  1  0
  1 27  1  0
  1 28  1  0
  4 29  1  0
  5 30  1  0
  6 31  1  0
  8 32  1  0
 11 33  1  0
 11 34  1  0
 13 35  1  0
 13 36  1  0
 13 37  1  0
 15 38  1  0
 19 39  1  0
 20 40  1  0
 21 41  1  0
 22 42  1  0
 25 43  1  0
M  END
$$$$
