
     RDKit          3D

 43 45  0  0  0  0  0  0  0  0999 V2000
    7.5015    0.9254    0.9112 C   0  0  0  0  0  0  0  0  0  0  0  0
    6.2194    0.3469    1.1220 O   0  0  0  0  0  0  0  0  0  0  0  0
    5.3048    0.4890    0.1141 C   0  0  0  0  0  0  0  0  0  0  0  0
    5.5040    1.1729   -1.0829 C   0  0  0  0  0  0  0  0  0  0  0  0
    4.4713    1.2497   -2.0190 C   0  0  0  0  0  0  0  0  0  0  0  0
    3.2413    0.6353   -1.7692 C   0  0  0  0  0  0  0  0  0  0  0  0
    3.0369   -0.0778   -0.5890 C   0  0  0  0  0  0  0  0  0  0  0  0
    1.8141   -0.6952   -0.2426 N   0  0  0  0  0  0  0  0  0  0  0  0
    0.7735   -1.1678   -1.0353 C   0  0  0  0  0  0  0  0  0  0  0  0
    0.9455   -1.6422   -2.6402 S   0  0  0  0  0  0  0  0  0  0  0  0
   -0.4380   -1.2661   -0.3150 N   0  0  0  0  0  0  0  0  0  0  0  0
   -0.6590   -0.4941    0.9291 C   0  0  0  0  0  0  0  0  0  0  0  0
   -2.1255   -0.4599    1.4070 C   0  0  0  0  0  0  0  0  0  0  0  0
   -3.0164   -0.0869    0.2979 N   0  0  0  0  0  0  0  0  0  0  0  0
   -4.3387    0.1800    0.6583 C   0  0  0  0  0  0  0  0  0  0  0  0
   -5.2421    0.6849   -0.2803 C   0  0  0  0  0  0  0  0  0  0  0  0
   -6.5575    0.9629    0.0905 C   0  0  0  0  0  0  0  0  0  0  0  0
   -6.9513    0.7402    1.3994 C   0  0  0  0  0  0  0  0  0  0  0  0
   -6.0042    0.2548    2.2797 C   0  0  0  0  0  0  0  0  0  0  0  0
   -4.7248   -0.0205    1.9384 N   0  0  0  0  0  0  0  0  0  0  0  0
   -2.8073   -0.8072   -0.9754 C   0  0  0  0  0  0  0  0  0  0  0  0
   -1.6745   -1.8484   -0.8742 C   0  0  0  0  0  0  0  0  0  0  0  0
    4.0697   -0.1232    0.3567 C   0  0  0  0  0  0  0  0  0  0  0  0
    7.4311    2.0134    0.8093 H   0  0  0  0  0  0  0  0  0  0  0  0
    7.9998    0.4776    0.0451 H   0  0  0  0  0  0  0  0  0  0  0  0
    8.1130    0.7129    1.7935 H   0  0  0  0  0  0  0  0  0  0  0  0
    6.4423    1.6645   -1.3158 H   0  0  0  0  0  0  0  0  0  0  0  0
    4.6186    1.7987   -2.9460 H   0  0  0  0  0  0  0  0  0  0  0  0
    2.4509    0.7603   -2.5019 H   0  0  0  0  0  0  0  0  0  0  0  0
    1.7742   -1.0374    0.7073 H   0  0  0  0  0  0  0  0  0  0  0  0
   -0.0356   -0.9251    1.7198 H   0  0  0  0  0  0  0  0  0  0  0  0
   -0.3140    0.5309    0.7448 H   0  0  0  0  0  0  0  0  0  0  0  0
   -2.4062   -1.4447    1.8030 H   0  0  0  0  0  0  0  0  0  0  0  0
   -2.1924    0.2655    2.2276 H   0  0  0  0  0  0  0  0  0  0  0  0
   -4.9243    0.8871   -1.2974 H   0  0  0  0  0  0  0  0  0  0  0  0
   -7.2590    1.3580   -0.6380 H   0  0  0  0  0  0  0  0  0  0  0  0
   -7.9632    0.9466    1.7274 H   0  0  0  0  0  0  0  0  0  0  0  0
   -6.2521    0.0679    3.3203 H   0  0  0  0  0  0  0  0  0  0  0  0
   -3.7133   -1.3351   -1.2985 H   0  0  0  0  0  0  0  0  0  0  0  0
   -2.5535   -0.0697   -1.7461 H   0  0  0  0  0  0  0  0  0  0  0  0
   -1.5212   -2.3159   -1.8482 H   0  0  0  0  0  0  0  0  0  0  0  0
   -1.9716   -2.6558   -0.1928 H   0  0  0  0  0  0  0  0  0  0  0  0
    3.9341   -0.6524    1.2965 H   0  0  0  0  0  0  0  0  0  0  0  0
  1  2  1  0
  2  3  1  0
  3  4  2  0
  4  5  1  0
  5  6  2  0
  6  7  1  0
  7  8  1  0
  8  9  1  0
  9 10  2  0
  9 11  1  0
 11 12  1  0
 12 13  1  0
 13 14  1  0
 14 15  1  0
 15 16  2  0
 16 17  1  0
 17 18  2  0
 18 19  1  0
 19 20  2  0
 14 21  1  0
 21 22  1  0
  7 23  2  0
 23  3  1  0
 22 11  1  0
 20 15  1  0
  1 24  1  0
  1 25  1  0
  1 26  1  0
  4 27  1  0
  5 28  1  0
  6 29  1  0
  8 30  1  0
 12 31  1  0
 12 32  1  0
 13 33  1  0
 13 34  1  0
 16 35  1  0
 17 36  1  0
 18 37  1  0
 19 38  1  0
 21 39  1  0
 21 40  1  0
 22 41  1  0
 22 42  1  0
 23 43  1  0
M  END
$$$$
