
     RDKit          3D

 39 41  0  0  0  0  0  0  0  0999 V2000
   -5.1158   -1.0987   -0.7676 C   0  0  0  0  0  0  0  0  0  0  0  0
   -4.8449   -0.2498    0.3519 O   0  0  0  0  0  0  0  0  0  0  0  0
   -3.8183    0.6290    0.0926 C   0  0  0  0  0  0  0  0  0  0  0  0
   -3.9038    1.5483   -0.9609 C   0  0  0  0  0  0  0  0  0  0  0  0
   -2.8629    2.4427   -1.1946 C   0  0  0  0  0  0  0  0  0  0  0  0
   -1.7374    2.4324   -0.3720 C   0  0  0  0  0  0  0  0  0  0  0  0
   -1.6661    1.5376    0.7006 C   0  0  0  0  0  0  0  0  0  0  0  0
   -2.7107    0.6321    0.9552 C   0  0  0  0  0  0  0  0  0  0  0  0
   -2.6192   -0.3206    2.1224 C   0  0  0  0  0  0  0  0  0  0  0  0
   -1.9241   -1.9486    1.7017 S   0  0  0  0  0  0  0  0  0  0  0  0
   -0.2584   -1.5542    1.5310 C   0  0  0  0  0  0  0  0  0  0  0  0
    0.3824   -1.3049    0.4153 N   0  0  0  0  0  0  0  0  0  0  0  0
    1.6727   -1.0061    0.7965 C   0  0  0  0  0  0  0  0  0  0  0  0
    2.7091   -0.6399   -0.1568 C   0  0  0  0  0  0  0  0  0  0  0  0
    2.4640   -0.8053   -1.5323 C   0  0  0  0  0  0  0  0  0  0  0  0
    3.4304   -0.4654   -2.4857 C   0  0  0  0  0  0  0  0  0  0  0  0
    4.6601    0.0473   -2.0599 C   0  0  0  0  0  0  0  0  0  0  0  0
    5.6938    0.3796   -3.0506 N   0  0  0  0  0  4  0  0  0  0  0  0
    5.4087    0.2576   -4.2510 O   0  0  0  0  0  0  0  0  0  0  0  0
    6.7969    0.7501   -2.6248 O   0  0  0  0  0  1  0  0  0  0  0  0
    4.9197    0.2320   -0.6947 C   0  0  0  0  0  0  0  0  0  0  0  0
    3.9453   -0.1151    0.2505 C   0  0  0  0  0  0  0  0  0  0  0  0
    1.7997   -1.1047    2.1715 C   0  0  0  0  0  0  0  0  0  0  0  0
    0.5624   -1.4913    2.6180 N   0  0  0  0  0  0  0  0  0  0  0  0
   -4.1941   -1.4934   -1.2106 H   0  0  0  0  0  0  0  0  0  0  0  0
   -5.7060   -0.5724   -1.5235 H   0  0  0  0  0  0  0  0  0  0  0  0
   -5.7083   -1.9462   -0.4071 H   0  0  0  0  0  0  0  0  0  0  0  0
   -4.7832    1.5801   -1.5974 H   0  0  0  0  0  0  0  0  0  0  0  0
   -2.9254    3.1442   -2.0236 H   0  0  0  0  0  0  0  0  0  0  0  0
   -0.9147    3.1184   -0.5639 H   0  0  0  0  0  0  0  0  0  0  0  0
   -0.7764    1.5425    1.3278 H   0  0  0  0  0  0  0  0  0  0  0  0
   -3.6162   -0.4812    2.5494 H   0  0  0  0  0  0  0  0  0  0  0  0
   -2.0309    0.1302    2.9328 H   0  0  0  0  0  0  0  0  0  0  0  0
    1.5073   -1.2073   -1.8691 H   0  0  0  0  0  0  0  0  0  0  0  0
    3.2077   -0.6132   -3.5421 H   0  0  0  0  0  0  0  0  0  0  0  0
    5.8696    0.6362   -0.3493 H   0  0  0  0  0  0  0  0  0  0  0  0
    4.1679    0.0404    1.3038 H   0  0  0  0  0  0  0  0  0  0  0  0
    2.6284   -0.9627    2.8541 H   0  0  0  0  0  0  0  0  0  0  0  0
    0.2909   -1.6997    3.5691 H   0  0  0  0  0  0  0  0  0  0  0  0
  1  2  1  0
  2  3  1  0
  3  4  2  0
  4  5  1  0
  5  6  2  0
  6  7  1  0
  7  8  2  0
  8  9  1  0
  9 10  1  0
 10 11  1  0
 11 12  2  0
 12 13  1  0
 13 14  1  0
 14 15  2  0
 15 16  1  0
 16 17  2  0
 17 18  1  0
 18 19  2  0
 18 20  1  0
 17 21  1  0
 21 22  2  0
 13 23  2  0
 23 24  1  0
  8  3  1  0
 24 11  1  0
 22 14  1  0
  1 25  1  0
  1 26  1  0
  1 27  1  0
  4 28  1  0
  5 29  1  0
  6 30  1  0
  7 31  1  0
  9 32  1  0
  9 33  1  0
 15 34  1  0
 16 35  1  0
 21 36  1  0
 22 37  1  0
 23 38  1  0
 24 39  1  0
M  CHG  2  18   1  20  -1
M  END
$$$$
