
     RDKit          3D

 55 56  0  0  0  0  0  0  0  0999 V2000
   -4.7681   -1.1179    1.8999 C   0  0  0  0  0  0  0  0  0  0  0  0
   -3.9930    0.1296    1.4722 C   0  0  0  0  0  0  0  0  0  0  0  0
   -3.8052    0.1244    0.0293 N   0  0  0  0  0  0  0  0  0  0  0  0
   -2.6071    0.4842   -0.5496 C   0  0  0  0  0  0  0  0  0  0  0  0
   -1.5835    0.7049    0.0885 O   0  0  0  0  0  0  0  0  0  0  0  0
   -2.6950    0.5993   -2.0577 C   0  0  0  0  0  0  0  0  0  0  0  0
   -1.3359    0.6901   -2.7428 C   0  0  0  0  0  0  0  0  0  0  0  0
   -0.6729   -0.9279   -3.2887 S   0  0  0  0  0  0  0  0  0  0  0  0
   -0.2278   -1.7125   -1.6942 C   0  0  0  0  0  0  0  0  0  0  0  0
    0.9452   -1.0520   -0.9817 C   0  0  0  0  0  0  0  0  0  0  0  0
    2.2880   -1.4007   -1.5926 C   0  0  0  0  0  0  0  0  0  0  0  0
    2.4943   -2.4220   -2.2386 O   0  0  0  0  0  0  0  0  0  0  0  0
    3.2671   -0.4751   -1.2949 N   0  0  0  0  0  0  0  0  0  0  0  0
    4.6642   -0.7045   -1.6265 C   0  0  0  0  0  0  0  0  0  0  0  0
    5.2748    0.5712   -2.2098 C   0  0  0  0  0  0  0  0  0  0  0  0
    5.3886   -1.2408   -0.4022 C   0  0  0  0  0  0  0  0  0  0  0  0
    5.4394   -2.6307   -0.1981 C   0  0  0  0  0  0  0  0  0  0  0  0
    6.0710   -3.1692    0.9243 C   0  0  0  0  0  0  0  0  0  0  0  0
    6.6537   -2.3260    1.8663 C   0  0  0  0  0  0  0  0  0  0  0  0
    6.5987   -0.9454    1.6894 C   0  0  0  0  0  0  0  0  0  0  0  0
    5.9658   -0.4051    0.5666 C   0  0  0  0  0  0  0  0  0  0  0  0
   -4.6413    1.4402    1.8872 C   0  0  0  0  0  0  0  0  0  0  0  0
   -3.8191    2.5267    2.2327 C   0  0  0  0  0  0  0  0  0  0  0  0
   -4.3699    3.7574    2.5942 C   0  0  0  0  0  0  0  0  0  0  0  0
   -5.7518    3.9245    2.6068 C   0  0  0  0  0  0  0  0  0  0  0  0
   -6.5819    2.8638    2.2520 C   0  0  0  0  0  0  0  0  0  0  0  0
   -6.0318    1.6316    1.8889 C   0  0  0  0  0  0  0  0  0  0  0  0
   -4.1915   -2.0204    1.6668 H   0  0  0  0  0  0  0  0  0  0  0  0
   -5.7255   -1.2109    1.3757 H   0  0  0  0  0  0  0  0  0  0  0  0
   -4.9655   -1.1112    2.9772 H   0  0  0  0  0  0  0  0  0  0  0  0
   -3.0111    0.0653    1.9587 H   0  0  0  0  0  0  0  0  0  0  0  0
   -4.6410    0.1835   -0.5370 H   0  0  0  0  0  0  0  0  0  0  0  0
   -3.2989   -0.2204   -2.4637 H   0  0  0  0  0  0  0  0  0  0  0  0
   -3.2410    1.5319   -2.2515 H   0  0  0  0  0  0  0  0  0  0  0  0
   -0.5902    1.2284   -2.1522 H   0  0  0  0  0  0  0  0  0  0  0  0
   -1.4641    1.2648   -3.6672 H   0  0  0  0  0  0  0  0  0  0  0  0
   -1.1117   -1.7200   -1.0514 H   0  0  0  0  0  0  0  0  0  0  0  0
   -0.0035   -2.7629   -1.9093 H   0  0  0  0  0  0  0  0  0  0  0  0
    0.9783   -1.4227    0.0507 H   0  0  0  0  0  0  0  0  0  0  0  0
    0.8301    0.0342   -0.9259 H   0  0  0  0  0  0  0  0  0  0  0  0
    3.0745    0.1966   -0.5643 H   0  0  0  0  0  0  0  0  0  0  0  0
    4.7237   -1.4639   -2.4169 H   0  0  0  0  0  0  0  0  0  0  0  0
    4.7742    0.8360   -3.1482 H   0  0  0  0  0  0  0  0  0  0  0  0
    5.1609    1.4293   -1.5384 H   0  0  0  0  0  0  0  0  0  0  0  0
    6.3413    0.4391   -2.4210 H   0  0  0  0  0  0  0  0  0  0  0  0
    4.9745   -3.3037   -0.9182 H   0  0  0  0  0  0  0  0  0  0  0  0
    6.1022   -4.2467    1.0626 H   0  0  0  0  0  0  0  0  0  0  0  0
    7.1450   -2.7445    2.7405 H   0  0  0  0  0  0  0  0  0  0  0  0
    7.0466   -0.2867    2.4289 H   0  0  0  0  0  0  0  0  0  0  0  0
    5.9302    0.6761    0.4660 H   0  0  0  0  0  0  0  0  0  0  0  0
   -2.7351    2.4177    2.2144 H   0  0  0  0  0  0  0  0  0  0  0  0
   -3.7182    4.5850    2.8619 H   0  0  0  0  0  0  0  0  0  0  0  0
   -6.1814    4.8822    2.8883 H   0  0  0  0  0  0  0  0  0  0  0  0
   -7.6609    2.9965    2.2555 H   0  0  0  0  0  0  0  0  0  0  0  0
   -6.7082    0.8292    1.6071 H   0  0  0  0  0  0  0  0  0  0  0  0
  1  2  1  0
  2  3  1  0
  3  4  1  0
  4  5  2  0
  4  6  1  0
  6  7  1  0
  7  8  1  0
  8  9  1  0
  9 10  1  0
 10 11  1  0
 11 12  2  0
 11 13  1  0
 13 14  1  0
 14 15  1  0
 14 16  1  0
 16 17  2  0
 17 18  1  0
 18 19  2  0
 19 20  1  0
 20 21  2  0
  2 22  1  0
 22 23  2  0
 23 24  1  0
 24 25  2  0
 25 26  1  0
 26 27  2  0
 21 16  1  0
 27 22  1  0
  1 28  1  0
  1 29  1  0
  1 30  1  0
  2 31  1  0
  3 32  1  0
  6 33  1  0
  6 34  1  0
  7 35  1  0
  7 36  1  0
  9 37  1  0
  9 38  1  0
 10 39  1  0
 10 40  1  0
 13 41  1  0
 14 42  1  0
 15 43  1  0
 15 44  1  0
 15 45  1  0
 17 46  1  0
 18 47  1  0
 19 48  1  0
 20 49  1  0
 21 50  1  0
 23 51  1  0
 24 52  1  0
 25 53  1  0
 26 54  1  0
 27 55  1  0
M  END
$$$$
