
     RDKit          3D

 52 54  0  0  0  0  0  0  0  0999 V2000
   -6.7716    0.0339    1.0656 C   0  0  0  0  0  0  0  0  0  0  0  0
   -6.9713   -0.8465   -0.1702 C   0  0  0  0  0  0  0  0  0  0  0  0
   -7.1883    0.0197   -1.4140 C   0  0  0  0  0  0  0  0  0  0  0  0
   -5.8507   -1.8908   -0.3677 C   0  0  0  0  0  0  0  0  0  0  0  0
   -4.4520   -1.3533   -0.6867 C   0  0  0  0  0  0  0  0  0  0  0  0
   -3.9177   -0.6971    0.4609 O   0  0  0  0  0  0  0  0  0  0  0  0
   -2.7141   -0.0651    0.3102 C   0  0  0  0  0  0  0  0  0  0  0  0
   -1.8446   -0.2136   -0.7737 C   0  0  0  0  0  0  0  0  0  0  0  0
   -0.6335    0.4840   -0.8002 C   0  0  0  0  0  0  0  0  0  0  0  0
   -0.2931    1.3251    0.2619 C   0  0  0  0  0  0  0  0  0  0  0  0
    0.9746    2.0805    0.2323 C   0  0  0  0  0  0  0  0  0  0  0  0
    0.9100    3.3086    0.1665 O   0  0  0  0  0  0  0  0  0  0  0  0
    2.1686    1.3642    0.2611 N   0  0  0  0  0  0  0  0  0  0  0  0
    3.4283    2.0988    0.1286 C   0  0  0  0  0  0  0  0  0  0  0  0
    4.5699    1.2442   -0.4509 C   0  0  0  0  0  0  0  0  0  0  0  0
    4.7334   -0.0167    0.2834 N   0  0  0  0  0  0  0  0  0  0  0  0
    6.0152   -0.4359    0.5826 C   0  0  0  0  0  0  0  0  0  0  0  0
    6.1906   -1.3381    1.5654 N   0  0  0  0  0  0  0  0  0  0  0  0
    7.4480   -1.7399    1.8324 C   0  0  0  0  0  0  0  0  0  0  0  0
    8.5497   -1.2844    1.1577 C   0  0  0  0  0  0  0  0  0  0  0  0
    8.2826   -0.3743    0.1688 C   0  0  0  0  0  0  0  0  0  0  0  0
    7.0427    0.0563   -0.1315 N   0  0  0  0  0  0  0  0  0  0  0  0
    3.6488   -0.4571    1.1605 C   0  0  0  0  0  0  0  0  0  0  0  0
    2.2813   -0.0715    0.5634 C   0  0  0  0  0  0  0  0  0  0  0  0
   -1.1614    1.4923    1.3414 C   0  0  0  0  0  0  0  0  0  0  0  0
   -2.3644    0.7845    1.3669 C   0  0  0  0  0  0  0  0  0  0  0  0
   -6.5524   -0.5755    1.9538 H   0  0  0  0  0  0  0  0  0  0  0  0
   -5.9581    0.7532    0.9268 H   0  0  0  0  0  0  0  0  0  0  0  0
   -7.6834    0.6116    1.2760 H   0  0  0  0  0  0  0  0  0  0  0  0
   -7.8967   -1.4160   -0.0083 H   0  0  0  0  0  0  0  0  0  0  0  0
   -7.3084   -0.6026   -2.3091 H   0  0  0  0  0  0  0  0  0  0  0  0
   -6.3513    0.7051   -1.5824 H   0  0  0  0  0  0  0  0  0  0  0  0
   -8.0959    0.6270   -1.3055 H   0  0  0  0  0  0  0  0  0  0  0  0
   -6.1500   -2.5576   -1.1859 H   0  0  0  0  0  0  0  0  0  0  0  0
   -5.7934   -2.5076    0.5389 H   0  0  0  0  0  0  0  0  0  0  0  0
   -4.4919   -0.6709   -1.5467 H   0  0  0  0  0  0  0  0  0  0  0  0
   -3.8119   -2.2104   -0.9401 H   0  0  0  0  0  0  0  0  0  0  0  0
   -2.0782   -0.8636   -1.6109 H   0  0  0  0  0  0  0  0  0  0  0  0
    0.0340    0.3793   -1.6499 H   0  0  0  0  0  0  0  0  0  0  0  0
    3.6960    2.4446    1.1338 H   0  0  0  0  0  0  0  0  0  0  0  0
    3.2780    2.9870   -0.4940 H   0  0  0  0  0  0  0  0  0  0  0  0
    5.4760    1.8623   -0.4467 H   0  0  0  0  0  0  0  0  0  0  0  0
    4.3460    1.0005   -1.4955 H   0  0  0  0  0  0  0  0  0  0  0  0
    7.5403   -2.4656    2.6353 H   0  0  0  0  0  0  0  0  0  0  0  0
    9.5514   -1.6176    1.3863 H   0  0  0  0  0  0  0  0  0  0  0  0
    9.0783    0.0526   -0.4340 H   0  0  0  0  0  0  0  0  0  0  0  0
    3.6646   -1.5476    1.2891 H   0  0  0  0  0  0  0  0  0  0  0  0
    3.7586    0.0065    2.1503 H   0  0  0  0  0  0  0  0  0  0  0  0
    2.1367   -0.6036   -0.3862 H   0  0  0  0  0  0  0  0  0  0  0  0
    1.4803   -0.3713    1.2490 H   0  0  0  0  0  0  0  0  0  0  0  0
   -0.9062    2.1676    2.1549 H   0  0  0  0  0  0  0  0  0  0  0  0
   -3.0433    0.9048    2.2108 H   0  0  0  0  0  0  0  0  0  0  0  0
  1  2  1  0
  2  3  1  0
  2  4  1  0
  4  5  1  0
  5  6  1  0
  6  7  1  0
  7  8  2  0
  8  9  1  0
  9 10  2  0
 10 11  1  0
 11 12  2  0
 11 13  1  0
 13 14  1  0
 14 15  1  0
 15 16  1  0
 16 17  1  0
 17 18  2  0
 18 19  1  0
 19 20  2  0
 20 21  1  0
 21 22  2  0
 16 23  1  0
 23 24  1  0
 10 25  1  0
 25 26  2  0
 26  7  1  0
 24 13  1  0
 22 17  1  0
  1 27  1  0
  1 28  1  0
  1 29  1  0
  2 30  1  0
  3 31  1  0
  3 32  1  0
  3 33  1  0
  4 34  1  0
  4 35  1  0
  5 36  1  0
  5 37  1  0
  8 38  1  0
  9 39  1  0
 14 40  1  0
 14 41  1  0
 15 42  1  0
 15 43  1  0
 19 44  1  0
 20 45  1  0
 21 46  1  0
 23 47  1  0
 23 48  1  0
 24 49  1  0
 24 50  1  0
 25 51  1  0
 26 52  1  0
M  END
$$$$
