
     RDKit          3D

 35 37  0  0  0  0  0  0  0  0999 V2000
    6.2609    0.5378    0.7332 C   0  0  0  0  0  0  0  0  0  0  0  0
    5.6070    0.6987   -0.6325 C   0  0  0  0  0  0  0  0  0  0  0  0
    4.0870    0.8549   -0.5762 C   0  0  0  0  0  0  0  0  0  0  0  0
    3.2589   -0.6745   -0.0339 S   0  0  0  0  0  0  0  0  0  0  0  0
    1.6023   -0.1794   -0.1012 C   0  0  0  0  0  0  0  0  0  0  0  0
    1.1716    1.0054   -0.4596 N   0  0  0  0  0  0  0  0  0  0  0  0
   -0.1970    0.9868   -0.3837 N   0  0  0  0  0  0  0  0  0  0  0  0
   -0.5818   -0.2106    0.0190 C   0  0  0  0  0  0  0  0  0  0  0  0
   -2.0920   -0.5901    0.2100 C   0  0  0  0  0  0  0  0  0  0  0  0
   -2.5972   -1.8047    0.6201 C   0  0  0  0  0  0  0  0  0  0  0  0
   -3.9659   -1.7047    0.6505 N   0  0  0  0  0  0  0  0  0  0  0  0
   -4.3629   -0.4463    0.2661 C   0  0  0  0  0  0  0  0  0  0  0  0
   -5.6494    0.0952    0.1507 C   0  0  0  0  0  0  0  0  0  0  0  0
   -5.7590    1.4234   -0.2699 C   0  0  0  0  0  0  0  0  0  0  0  0
   -4.6261    2.1772   -0.5626 C   0  0  0  0  0  0  0  0  0  0  0  0
   -3.3480    1.6195   -0.4411 C   0  0  0  0  0  0  0  0  0  0  0  0
   -3.2049    0.2805   -0.0183 C   0  0  0  0  0  0  0  0  0  0  0  0
    0.5411   -0.9844    0.2150 N   0  0  0  0  0  0  0  0  0  0  0  0
    0.5718   -2.3510    0.6584 C   0  0  0  0  0  0  0  0  0  0  0  0
    5.9652   -0.3971    1.2180 H   0  0  0  0  0  0  0  0  0  0  0  0
    7.3505    0.5251    0.6268 H   0  0  0  0  0  0  0  0  0  0  0  0
    5.9968    1.3690    1.3947 H   0  0  0  0  0  0  0  0  0  0  0  0
    6.0242    1.5973   -1.1039 H   0  0  0  0  0  0  0  0  0  0  0  0
    5.8832   -0.1449   -1.2766 H   0  0  0  0  0  0  0  0  0  0  0  0
    3.8212    1.6734    0.1016 H   0  0  0  0  0  0  0  0  0  0  0  0
    3.7217    1.1111   -1.5767 H   0  0  0  0  0  0  0  0  0  0  0  0
   -2.1336   -2.7389    0.8961 H   0  0  0  0  0  0  0  0  0  0  0  0
   -4.6005   -2.4456    0.9149 H   0  0  0  0  0  0  0  0  0  0  0  0
   -6.5351   -0.4889    0.3777 H   0  0  0  0  0  0  0  0  0  0  0  0
   -6.7435    1.8744   -0.3702 H   0  0  0  0  0  0  0  0  0  0  0  0
   -4.7291    3.2089   -0.8893 H   0  0  0  0  0  0  0  0  0  0  0  0
   -2.4713    2.2191   -0.6732 H   0  0  0  0  0  0  0  0  0  0  0  0
    0.0403   -2.9663   -0.0720 H   0  0  0  0  0  0  0  0  0  0  0  0
    0.0994   -2.4097    1.6422 H   0  0  0  0  0  0  0  0  0  0  0  0
    1.5942   -2.7207    0.7448 H   0  0  0  0  0  0  0  0  0  0  0  0
  1  2  1  0
  2  3  1  0
  3  4  1  0
  4  5  1  0
  5  6  2  0
  6  7  1  0
  7  8  2  0
  8  9  1  0
  9 10  2  0
 10 11  1  0
 11 12  1  0
 12 13  2  0
 13 14  1  0
 14 15  2  0
 15 16  1  0
 16 17  2  0
  8 18  1  0
 18 19  1  0
 18  5  1  0
 17  9  1  0
 17 12  1  0
  1 20  1  0
  1 21  1  0
  1 22  1  0
  2 23  1  0
  2 24  1  0
  3 25  1  0
  3 26  1  0
 10 27  1  0
 11 28  1  0
 13 29  1  0
 14 30  1  0
 15 31  1  0
 16 32  1  0
 19 33  1  0
 19 34  1  0
 19 35  1  0
M  END
$$$$
