
     RDKit          3D

 57 61  0  0  0  0  0  0  0  0999 V2000
    6.6579    0.5420   -1.5264 C   0  0  0  0  0  0  0  0  0  0  0  0
    5.5614   -0.4731   -1.6597 C   0  0  0  0  0  0  0  0  0  0  0  0
    4.2326   -0.0636   -1.8167 C   0  0  0  0  0  0  0  0  0  0  0  0
    3.2137   -1.0068   -1.9696 C   0  0  0  0  0  0  0  0  0  0  0  0
    3.5083   -2.3772   -1.9840 C   0  0  0  0  0  0  0  0  0  0  0  0
    2.4084   -3.3975   -2.1352 C   0  0  0  0  0  0  0  0  0  0  0  0
    1.9911   -3.9215   -0.8520 N   0  0  0  0  0  0  0  0  0  0  0  0
    2.4562   -5.1135   -0.4002 N   0  0  0  0  0  0  0  0  0  0  0  0
    1.8987   -5.3429    0.7890 N   0  0  0  0  0  0  0  0  0  0  0  0
    1.0734   -4.2950    1.0569 C   0  0  0  0  0  0  0  0  0  0  0  0
    0.2347   -4.0229    2.1919 C   0  0  0  0  0  0  0  0  0  0  0  0
    0.1012   -4.7389    3.1779 O   0  0  0  0  0  0  0  0  0  0  0  0
   -0.4462   -2.8185    2.0595 N   0  0  0  0  0  0  0  0  0  0  0  0
   -0.3541   -1.9828    0.9477 C   0  0  0  0  0  0  0  0  0  0  0  0
   -1.1859   -0.7132    1.0447 C   0  0  0  0  0  0  0  0  0  0  0  0
   -1.3586   -0.0230   -0.3100 C   0  0  0  0  0  0  0  0  0  0  0  0
   -2.2167    1.2355   -0.1916 C   0  0  0  0  0  0  0  0  0  0  0  0
   -1.9484    1.9841    1.0713 N   0  0  0  0  0  0  0  0  0  0  0  0
   -2.3256    3.6560    1.0204 S   0  0  0  0  0  6  0  0  0  0  0  0
   -2.1719    4.1941    2.3546 O   0  0  0  0  0  0  0  0  0  0  0  0
   -1.6164    4.2244   -0.1060 O   0  0  0  0  0  0  0  0  0  0  0  0
   -4.0639    3.6475    0.6523 C   0  0  0  0  0  0  0  0  0  0  0  0
   -4.5209    4.0988   -0.5911 C   0  0  0  0  0  0  0  0  0  0  0  0
   -5.8903    4.0880   -0.8593 C   0  0  0  0  0  0  0  0  0  0  0  0
   -6.7791    3.6362    0.1129 C   0  0  0  0  0  0  0  0  0  0  0  0
   -8.0919    3.6270   -0.1506 F   0  0  0  0  0  0  0  0  0  0  0  0
   -6.3277    3.1963    1.3545 C   0  0  0  0  0  0  0  0  0  0  0  0
   -4.9607    3.2030    1.6317 C   0  0  0  0  0  0  0  0  0  0  0  0
   -0.6069    1.7045    1.6389 C   0  0  0  0  0  0  0  0  0  0  0  0
   -0.5588    0.2419    2.0767 C   0  0  0  0  0  0  0  0  0  0  0  0
    0.4017   -2.2248   -0.0874 N   0  0  0  0  0  0  0  0  0  0  0  0
    1.0930   -3.3859    0.0266 C   0  0  0  0  0  0  0  0  0  0  0  0
    4.8408   -2.7847   -1.8325 C   0  0  0  0  0  0  0  0  0  0  0  0
    5.8585   -1.8402   -1.6800 C   0  0  0  0  0  0  0  0  0  0  0  0
    7.0136    0.8410   -2.5171 H   0  0  0  0  0  0  0  0  0  0  0  0
    6.3034    1.4305   -0.9935 H   0  0  0  0  0  0  0  0  0  0  0  0
    7.5002    0.1363   -0.9558 H   0  0  0  0  0  0  0  0  0  0  0  0
    3.9822    0.9950   -1.8161 H   0  0  0  0  0  0  0  0  0  0  0  0
    2.1864   -0.6626   -2.0727 H   0  0  0  0  0  0  0  0  0  0  0  0
    2.7398   -4.2356   -2.7597 H   0  0  0  0  0  0  0  0  0  0  0  0
    1.5285   -2.9638   -2.6244 H   0  0  0  0  0  0  0  0  0  0  0  0
   -1.0492   -2.5882    2.8358 H   0  0  0  0  0  0  0  0  0  0  0  0
   -2.1806   -1.0081    1.4085 H   0  0  0  0  0  0  0  0  0  0  0  0
   -1.8106   -0.7057   -1.0397 H   0  0  0  0  0  0  0  0  0  0  0  0
   -0.3768    0.2487   -0.7205 H   0  0  0  0  0  0  0  0  0  0  0  0
   -2.0458    1.8610   -1.0739 H   0  0  0  0  0  0  0  0  0  0  0  0
   -3.2732    0.9433   -0.1844 H   0  0  0  0  0  0  0  0  0  0  0  0
   -3.8260    4.4607   -1.3458 H   0  0  0  0  0  0  0  0  0  0  0  0
   -6.2724    4.4333   -1.8153 H   0  0  0  0  0  0  0  0  0  0  0  0
   -7.0442    2.8576    2.0964 H   0  0  0  0  0  0  0  0  0  0  0  0
   -4.5989    2.8691    2.6020 H   0  0  0  0  0  0  0  0  0  0  0  0
   -0.4105    2.3305    2.5157 H   0  0  0  0  0  0  0  0  0  0  0  0
    0.1701    1.9203    0.8956 H   0  0  0  0  0  0  0  0  0  0  0  0
    0.4817   -0.0249    2.2994 H   0  0  0  0  0  0  0  0  0  0  0  0
   -1.1076    0.1323    3.0216 H   0  0  0  0  0  0  0  0  0  0  0  0
    5.0961   -3.8435   -1.8263 H   0  0  0  0  0  0  0  0  0  0  0  0
    6.8861   -2.1809   -1.5710 H   0  0  0  0  0  0  0  0  0  0  0  0
  1  2  1  0
  2  3  2  0
  3  4  1  0
  4  5  2  0
  5  6  1  0
  6  7  1  0
  7  8  1  0
  8  9  2  0
  9 10  1  0
 10 11  1  0
 11 12  2  0
 11 13  1  0
 13 14  1  0
 14 15  1  0
 15 16  1  0
 16 17  1  0
 17 18  1  0
 18 19  1  0
 19 20  2  0
 19 21  2  0
 19 22  1  0
 22 23  2  0
 23 24  1  0
 24 25  2  0
 25 26  1  0
 25 27  1  0
 27 28  2  0
 18 29  1  0
 29 30  1  0
 14 31  2  0
 31 32  1  0
  5 33  1  0
 33 34  2  0
 34  2  1  0
 32  7  1  0
 32 10  2  0
 30 15  1  0
 28 22  1  0
  1 35  1  0
  1 36  1  0
  1 37  1  0
  3 38  1  0
  4 39  1  0
  6 40  1  0
  6 41  1  0
 13 42  1  0
 15 43  1  0
 16 44  1  0
 16 45  1  0
 17 46  1  0
 17 47  1  0
 23 48  1  0
 24 49  1  0
 27 50  1  0
 28 51  1  0
 29 52  1  0
 29 53  1  0
 30 54  1  0
 30 55  1  0
 33 56  1  0
 34 57  1  0
M  END
$$$$
