
     RDKit          3D

 49 52  0  0  0  0  0  0  0  0999 V2000
    5.1032   -0.3968    2.8617 C   0  0  0  0  0  0  0  0  0  0  0  0
    5.7882   -0.1941    1.5414 C   0  0  0  0  0  0  0  0  0  0  0  0
    6.8150    0.7530    1.4156 C   0  0  0  0  0  0  0  0  0  0  0  0
    7.4522    0.9434    0.1872 C   0  0  0  0  0  0  0  0  0  0  0  0
    8.7140    2.1061    0.0526 Cl  0  0  0  0  0  0  0  0  0  0  0  0
    7.0808    0.1965   -0.9293 C   0  0  0  0  0  0  0  0  0  0  0  0
    6.0556   -0.7421   -0.8207 C   0  0  0  0  0  0  0  0  0  0  0  0
    5.4008   -0.9162    0.4028 C   0  0  0  0  0  0  0  0  0  0  0  0
    4.4093   -1.8617    0.4959 O   0  0  0  0  0  0  0  0  0  0  0  0
    3.1600   -1.5989    0.0892 C   0  0  0  0  0  0  0  0  0  0  0  0
    2.2759   -2.5743    0.0696 N   0  0  0  0  0  0  0  0  0  0  0  0
    1.0537   -2.0977   -0.3576 C   0  0  0  0  0  0  0  0  0  0  0  0
    1.0038   -0.7518   -0.6560 C   0  0  0  0  0  0  0  0  0  0  0  0
   -0.1516    0.0670   -1.1434 C   0  0  0  0  0  0  0  0  0  0  0  0
   -0.6281    1.0256   -0.1345 N   0  0  0  0  0  0  0  0  0  0  0  0
   -1.5733    2.0006   -0.7269 C   0  0  0  0  0  0  0  0  0  0  0  0
   -2.9556    1.4233   -1.1139 C   0  0  0  0  0  0  0  0  0  0  0  0
   -3.5823    0.7369    0.0324 N   0  0  0  0  0  0  0  0  0  0  0  0
   -4.9173    0.3179   -0.0967 C   0  0  0  0  0  0  0  0  0  0  0  0
   -5.6494   -0.0503    1.0460 C   0  0  0  0  0  0  0  0  0  0  0  0
   -6.9835   -0.4655    0.9694 C   0  0  0  0  0  0  0  0  0  0  0  0
   -7.6260   -0.5140   -0.2613 C   0  0  0  0  0  0  0  0  0  0  0  0
   -6.9353   -0.1383   -1.4076 C   0  0  0  0  0  0  0  0  0  0  0  0
   -5.6004    0.2780   -1.3224 C   0  0  0  0  0  0  0  0  0  0  0  0
   -2.6959   -0.2439    0.7016 C   0  0  0  0  0  0  0  0  0  0  0  0
   -1.3100    0.3752    1.0091 C   0  0  0  0  0  0  0  0  0  0  0  0
    2.5558   -0.0643   -0.4096 S   0  0  0  0  0  0  0  0  0  0  0  0
    5.6460    0.0992    3.6730 H   0  0  0  0  0  0  0  0  0  0  0  0
    4.0904    0.0161    2.8284 H   0  0  0  0  0  0  0  0  0  0  0  0
    5.0524   -1.4621    3.1089 H   0  0  0  0  0  0  0  0  0  0  0  0
    7.1237    1.3413    2.2768 H   0  0  0  0  0  0  0  0  0  0  0  0
    7.5849    0.3392   -1.8813 H   0  0  0  0  0  0  0  0  0  0  0  0
    5.7668   -1.3337   -1.6856 H   0  0  0  0  0  0  0  0  0  0  0  0
    0.2196   -2.7854   -0.4306 H   0  0  0  0  0  0  0  0  0  0  0  0
   -0.9519   -0.5982   -1.4887 H   0  0  0  0  0  0  0  0  0  0  0  0
    0.1896    0.6136   -2.0334 H   0  0  0  0  0  0  0  0  0  0  0  0
   -1.1183    2.4804   -1.6021 H   0  0  0  0  0  0  0  0  0  0  0  0
   -1.7242    2.8071    0.0032 H   0  0  0  0  0  0  0  0  0  0  0  0
   -3.5858    2.2591   -1.4422 H   0  0  0  0  0  0  0  0  0  0  0  0
   -2.8375    0.7314   -1.9569 H   0  0  0  0  0  0  0  0  0  0  0  0
   -5.1918    0.0157    2.0297 H   0  0  0  0  0  0  0  0  0  0  0  0
   -7.5177   -0.7381    1.8753 H   0  0  0  0  0  0  0  0  0  0  0  0
   -8.6625   -0.8328   -0.3258 H   0  0  0  0  0  0  0  0  0  0  0  0
   -7.4320   -0.1650   -2.3738 H   0  0  0  0  0  0  0  0  0  0  0  0
   -5.1087    0.5559   -2.2488 H   0  0  0  0  0  0  0  0  0  0  0  0
   -3.1145   -0.5825    1.6556 H   0  0  0  0  0  0  0  0  0  0  0  0
   -2.5791   -1.1292    0.0643 H   0  0  0  0  0  0  0  0  0  0  0  0
   -0.6654   -0.3845    1.4659 H   0  0  0  0  0  0  0  0  0  0  0  0
   -1.4435    1.1389    1.7877 H   0  0  0  0  0  0  0  0  0  0  0  0
  1  2  1  0
  2  3  2  0
  3  4  1  0
  4  5  1  0
  4  6  2  0
  6  7  1  0
  7  8  2  0
  8  9  1  0
  9 10  1  0
 10 11  2  0
 11 12  1  0
 12 13  2  0
 13 14  1  0
 14 15  1  0
 15 16  1  0
 16 17  1  0
 17 18  1  0
 18 19  1  0
 19 20  2  0
 20 21  1  0
 21 22  2  0
 22 23  1  0
 23 24  2  0
 18 25  1  0
 25 26  1  0
 13 27  1  0
  8  2  1  0
 27 10  1  0
 26 15  1  0
 24 19  1  0
  1 28  1  0
  1 29  1  0
  1 30  1  0
  3 31  1  0
  6 32  1  0
  7 33  1  0
 12 34  1  0
 14 35  1  0
 14 36  1  0
 16 37  1  0
 16 38  1  0
 17 39  1  0
 17 40  1  0
 20 41  1  0
 21 42  1  0
 22 43  1  0
 23 44  1  0
 24 45  1  0
 25 46  1  0
 25 47  1  0
 26 48  1  0
 26 49  1  0
M  END
$$$$
