
     RDKit          3D

 51 54  0  0  0  0  0  0  0  0999 V2000
    6.3843   -1.0506    2.8704 C   0  0  0  0  0  0  0  0  0  0  0  0
    5.6093   -1.0195    1.5865 C   0  0  0  0  0  0  0  0  0  0  0  0
    4.2488   -0.6936    1.5878 C   0  0  0  0  0  0  0  0  0  0  0  0
    3.5199   -0.6939    0.3966 C   0  0  0  0  0  0  0  0  0  0  0  0
    4.1358   -1.0343   -0.8161 C   0  0  0  0  0  0  0  0  0  0  0  0
    3.3436   -1.0165   -2.0992 C   0  0  0  0  0  0  0  0  0  0  0  0
    3.0367    0.3506   -2.4948 N   0  0  0  0  0  0  0  0  0  0  0  0
    1.7725    0.6163   -3.5490 S   0  0  0  0  0  6  0  0  0  0  0  0
    1.7066   -0.5086   -4.4557 O   0  0  0  0  0  0  0  0  0  0  0  0
    1.9010    1.9754   -4.0233 O   0  0  0  0  0  0  0  0  0  0  0  0
    0.3717    0.5602   -2.4607 C   0  0  0  0  0  0  0  0  0  0  0  0
    0.2583    1.5287   -1.4487 C   0  0  0  0  0  0  0  0  0  0  0  0
   -0.8263    1.4983   -0.5660 C   0  0  0  0  0  0  0  0  0  0  0  0
   -1.7787    0.5020   -0.7161 C   0  0  0  0  0  0  0  0  0  0  0  0
   -1.6623   -0.4494   -1.7334 C   0  0  0  0  0  0  0  0  0  0  0  0
   -0.5936   -0.4378   -2.6187 C   0  0  0  0  0  0  0  0  0  0  0  0
   -2.8149   -1.4002   -1.7273 C   0  0  0  0  0  0  0  0  0  0  0  0
   -3.6072   -0.9366   -0.4991 C   0  0  0  0  0  0  0  0  0  0  0  0
   -2.9428    0.2622    0.0381 N   0  0  0  0  0  0  0  0  0  0  0  0
   -3.3842    1.0104    1.1264 C   0  0  0  0  0  0  0  0  0  0  0  0
   -2.7724    1.9936    1.5597 O   0  0  0  0  0  0  0  0  0  0  0  0
   -4.7184    0.5248    1.7790 C   0  0  0  0  0  0  0  0  0  0  0  0
   -5.1956    1.2459    3.0721 C   0  0  0  0  0  0  0  0  0  0  0  0
   -6.0865    2.1334    2.1864 C   0  0  0  0  0  0  0  0  0  0  0  0
   -6.0414    1.0171    1.1288 C   0  0  0  0  0  0  0  0  0  0  0  0
    5.4960   -1.3678   -0.8143 C   0  0  0  0  0  0  0  0  0  0  0  0
    6.2238   -1.3678    0.3785 C   0  0  0  0  0  0  0  0  0  0  0  0
    5.9930   -0.3150    3.5811 H   0  0  0  0  0  0  0  0  0  0  0  0
    7.4374   -0.8055    2.6970 H   0  0  0  0  0  0  0  0  0  0  0  0
    6.3219   -2.0459    3.3210 H   0  0  0  0  0  0  0  0  0  0  0  0
    3.7470   -0.4322    2.5171 H   0  0  0  0  0  0  0  0  0  0  0  0
    2.4658   -0.4233    0.4184 H   0  0  0  0  0  0  0  0  0  0  0  0
    2.4305   -1.6039   -1.9501 H   0  0  0  0  0  0  0  0  0  0  0  0
    3.9169   -1.4993   -2.8989 H   0  0  0  0  0  0  0  0  0  0  0  0
    3.7965    1.0249   -2.5544 H   0  0  0  0  0  0  0  0  0  0  0  0
    1.0123    2.3066   -1.3454 H   0  0  0  0  0  0  0  0  0  0  0  0
   -0.9006    2.2517    0.2112 H   0  0  0  0  0  0  0  0  0  0  0  0
   -0.5163   -1.1792   -3.4088 H   0  0  0  0  0  0  0  0  0  0  0  0
   -2.4846   -2.4375   -1.6183 H   0  0  0  0  0  0  0  0  0  0  0  0
   -3.4103   -1.2969   -2.6399 H   0  0  0  0  0  0  0  0  0  0  0  0
   -3.6139   -1.7105    0.2768 H   0  0  0  0  0  0  0  0  0  0  0  0
   -4.6449   -0.7008   -0.7566 H   0  0  0  0  0  0  0  0  0  0  0  0
   -4.7043   -0.5613    1.9390 H   0  0  0  0  0  0  0  0  0  0  0  0
   -5.7588    0.5952    3.7519 H   0  0  0  0  0  0  0  0  0  0  0  0
   -4.4335    1.7745    3.6509 H   0  0  0  0  0  0  0  0  0  0  0  0
   -7.0751    2.3669    2.5892 H   0  0  0  0  0  0  0  0  0  0  0  0
   -5.6033    3.0635    1.8664 H   0  0  0  0  0  0  0  0  0  0  0  0
   -5.9755    1.3625    0.0934 H   0  0  0  0  0  0  0  0  0  0  0  0
   -6.8626    0.2952    1.2082 H   0  0  0  0  0  0  0  0  0  0  0  0
    6.0014   -1.6327   -1.7405 H   0  0  0  0  0  0  0  0  0  0  0  0
    7.2772   -1.6391    0.3582 H   0  0  0  0  0  0  0  0  0  0  0  0
  1  2  1  0
  2  3  2  0
  3  4  1  0
  4  5  2  0
  5  6  1  0
  6  7  1  0
  7  8  1  0
  8  9  2  0
  8 10  2  0
  8 11  1  0
 11 12  2  0
 12 13  1  0
 13 14  2  0
 14 15  1  0
 15 16  2  0
 15 17  1  0
 17 18  1  0
 18 19  1  0
 19 20  1  0
 20 21  2  0
 20 22  1  0
 22 23  1  0
 23 24  1  0
 24 25  1  0
  5 26  1  0
 26 27  2  0
 27  2  1  0
 16 11  1  0
 25 22  1  0
 19 14  1  0
  1 28  1  0
  1 29  1  0
  1 30  1  0
  3 31  1  0
  4 32  1  0
  6 33  1  0
  6 34  1  0
  7 35  1  0
 12 36  1  0
 13 37  1  0
 16 38  1  0
 17 39  1  0
 17 40  1  0
 18 41  1  0
 18 42  1  0
 22 43  1  0
 23 44  1  0
 23 45  1  0
 24 46  1  0
 24 47  1  0
 25 48  1  0
 25 49  1  0
 26 50  1  0
 27 51  1  0
M  END
$$$$
