
     RDKit          3D

 47 49  0  0  0  0  0  0  0  0999 V2000
    5.4643    1.5155    0.4515 C   0  0  0  0  0  0  0  0  0  0  0  0
    5.0926    0.1135    0.0460 C   0  0  0  0  0  0  0  0  0  0  0  0
    3.8672   -0.0907   -0.6167 C   0  0  0  0  0  0  0  0  0  0  0  0
    3.4739   -1.3672   -1.0156 C   0  0  0  0  0  0  0  0  0  0  0  0
    2.3113   -1.6786   -1.6654 O   0  0  0  0  0  0  0  0  0  0  0  0
    1.6835   -0.6454   -2.4283 C   0  0  0  0  0  0  0  0  0  0  0  0
    0.5688   -0.0738   -1.6412 C   0  0  0  0  0  0  0  0  0  0  0  0
   -0.0813   -0.4116   -0.4770 C   0  0  0  0  0  0  0  0  0  0  0  0
   -1.0772    0.5854   -0.3219 C   0  0  0  0  0  0  0  0  0  0  0  0
   -2.0545    0.7107    0.7595 C   0  0  0  0  0  0  0  0  0  0  0  0
   -1.9099    1.5519    1.6470 O   0  0  0  0  0  0  0  0  0  0  0  0
   -3.1218   -0.2010    0.7639 N   0  0  0  0  0  0  0  0  0  0  0  0
   -3.4577   -1.0090   -0.4017 C   0  0  0  0  0  0  0  0  0  0  0  0
   -4.1891    0.0402    1.7350 C   0  0  0  0  0  0  0  0  0  0  0  0
   -5.2190    1.0567    1.2714 C   0  0  0  0  0  0  0  0  0  0  0  0
   -5.4748    2.1908    2.0437 C   0  0  0  0  0  0  0  0  0  0  0  0
   -6.4028    3.1239    1.5896 C   0  0  0  0  0  0  0  0  0  0  0  0
   -7.0464    2.9074    0.3771 C   0  0  0  0  0  0  0  0  0  0  0  0
   -6.7469    1.7533   -0.3285 C   0  0  0  0  0  0  0  0  0  0  0  0
   -5.8569    0.8264    0.0904 N   0  0  0  0  0  0  0  0  0  0  0  0
   -1.0138    1.4799   -1.3247 N   0  0  0  0  0  0  0  0  0  0  0  0
    0.0141    1.0631   -2.1462 O   0  0  0  0  0  0  0  0  0  0  0  0
    4.2859   -2.4600   -0.7122 C   0  0  0  0  0  0  0  0  0  0  0  0
    5.5042   -2.2967   -0.0341 C   0  0  0  0  0  0  0  0  0  0  0  0
    6.3384   -3.5122    0.2677 C   0  0  0  0  0  0  0  0  0  0  0  0
    5.9025   -0.9998    0.3438 C   0  0  0  0  0  0  0  0  0  0  0  0
    7.3953   -0.7762    1.2017 Cl  0  0  0  0  0  0  0  0  0  0  0  0
    5.2622    1.6773    1.5169 H   0  0  0  0  0  0  0  0  0  0  0  0
    4.8872    2.2498   -0.1249 H   0  0  0  0  0  0  0  0  0  0  0  0
    6.5171    1.7297    0.2443 H   0  0  0  0  0  0  0  0  0  0  0  0
    3.2280    0.7690   -0.7935 H   0  0  0  0  0  0  0  0  0  0  0  0
    1.2749   -1.1187   -3.3265 H   0  0  0  0  0  0  0  0  0  0  0  0
    2.3882    0.1186   -2.7755 H   0  0  0  0  0  0  0  0  0  0  0  0
    0.1354   -1.2462    0.1726 H   0  0  0  0  0  0  0  0  0  0  0  0
   -4.2754   -1.6963   -0.1675 H   0  0  0  0  0  0  0  0  0  0  0  0
   -2.5946   -1.6099   -0.7057 H   0  0  0  0  0  0  0  0  0  0  0  0
   -3.7398   -0.3514   -1.2329 H   0  0  0  0  0  0  0  0  0  0  0  0
   -4.6848   -0.9126    1.9657 H   0  0  0  0  0  0  0  0  0  0  0  0
   -3.7320    0.3830    2.6733 H   0  0  0  0  0  0  0  0  0  0  0  0
   -4.9436    2.3668    2.9751 H   0  0  0  0  0  0  0  0  0  0  0  0
   -6.6033    4.0222    2.1689 H   0  0  0  0  0  0  0  0  0  0  0  0
   -7.7605    3.6208   -0.0128 H   0  0  0  0  0  0  0  0  0  0  0  0
   -7.2134    1.5479   -1.2892 H   0  0  0  0  0  0  0  0  0  0  0  0
    3.9596   -3.4530   -1.0166 H   0  0  0  0  0  0  0  0  0  0  0  0
    7.3149   -3.4423   -0.2249 H   0  0  0  0  0  0  0  0  0  0  0  0
    6.4746   -3.6227    1.3471 H   0  0  0  0  0  0  0  0  0  0  0  0
    5.8553   -4.4282   -0.0898 H   0  0  0  0  0  0  0  0  0  0  0  0
  1  2  1  0
  2  3  2  0
  3  4  1  0
  4  5  1  0
  5  6  1  0
  6  7  1  0
  7  8  2  0
  8  9  1  0
  9 10  1  0
 10 11  2  0
 10 12  1  0
 12 13  1  0
 12 14  1  0
 14 15  1  0
 15 16  2  0
 16 17  1  0
 17 18  2  0
 18 19  1  0
 19 20  2  0
  9 21  2  0
 21 22  1  0
  4 23  2  0
 23 24  1  0
 24 25  1  0
 24 26  2  0
 26 27  1  0
 26  2  1  0
 22  7  1  0
 20 15  1  0
  1 28  1  0
  1 29  1  0
  1 30  1  0
  3 31  1  0
  6 32  1  0
  6 33  1  0
  8 34  1  0
 13 35  1  0
 13 36  1  0
 13 37  1  0
 14 38  1  0
 14 39  1  0
 16 40  1  0
 17 41  1  0
 18 42  1  0
 19 43  1  0
 23 44  1  0
 25 45  1  0
 25 46  1  0
 25 47  1  0
M  END
$$$$
