
     RDKit          3D

 35 37  0  0  0  0  0  0  0  0999 V2000
   -1.6235    1.2175   -1.4025 C   0  0  0  0  0  0  0  0  0  0  0  0
   -1.8987   -0.1991   -0.9742 C   0  0  0  0  0  0  0  0  0  0  0  0
   -1.6276   -1.2383   -1.8809 C   0  0  0  0  0  0  0  0  0  0  0  0
   -1.8867   -2.5677   -1.5498 C   0  0  0  0  0  0  0  0  0  0  0  0
   -2.4283   -2.8798   -0.3092 C   0  0  0  0  0  0  0  0  0  0  0  0
   -2.7021   -1.8622    0.6031 C   0  0  0  0  0  0  0  0  0  0  0  0
   -2.4332   -0.5134    0.2944 C   0  0  0  0  0  0  0  0  0  0  0  0
   -2.7197    0.5400    1.3464 C   0  0  0  0  0  0  0  0  0  0  0  0
   -1.6342    0.3911    2.7997 S   0  0  0  0  0  0  0  0  0  0  0  0
   -0.1322    0.8514    2.0412 C   0  0  0  0  0  0  0  0  0  0  0  0
    0.1534    2.1094    1.9328 N   0  0  0  0  0  0  0  0  0  0  0  0
    1.3408    2.4641    1.3130 C   0  0  0  0  0  0  0  0  0  0  0  0
    1.7130    3.6250    1.1830 O   0  0  0  0  0  0  0  0  0  0  0  0
    2.1725    1.3737    0.7582 C   0  0  0  0  0  0  0  0  0  0  0  0
    1.7856    0.1104    0.9236 C   0  0  0  0  0  0  0  0  0  0  0  0
    0.6474   -0.1807    1.6008 N   0  0  0  0  0  0  0  0  0  0  0  0
    2.7142   -0.8525    0.2799 C   0  0  0  0  0  0  0  0  0  0  0  0
    3.5838    0.0788   -0.5821 C   0  0  0  0  0  0  0  0  0  0  0  0
    3.4297    1.4984   -0.0107 C   0  0  0  0  0  0  0  0  0  0  0  0
   -1.2076    1.2583   -2.4151 H   0  0  0  0  0  0  0  0  0  0  0  0
   -2.5513    1.7982   -1.4071 H   0  0  0  0  0  0  0  0  0  0  0  0
   -0.8976    1.6891   -0.7361 H   0  0  0  0  0  0  0  0  0  0  0  0
   -1.2173   -1.0154   -2.8642 H   0  0  0  0  0  0  0  0  0  0  0  0
   -1.6767   -3.3570   -2.2670 H   0  0  0  0  0  0  0  0  0  0  0  0
   -2.6436   -3.9138   -0.0525 H   0  0  0  0  0  0  0  0  0  0  0  0
   -3.1303   -2.1266    1.5693 H   0  0  0  0  0  0  0  0  0  0  0  0
   -2.6477    1.5567    0.9507 H   0  0  0  0  0  0  0  0  0  0  0  0
   -3.7562    0.4211    1.6830 H   0  0  0  0  0  0  0  0  0  0  0  0
    0.2808   -1.1243    1.6038 H   0  0  0  0  0  0  0  0  0  0  0  0
    2.1942   -1.5894   -0.3393 H   0  0  0  0  0  0  0  0  0  0  0  0
    3.3157   -1.3733    1.0320 H   0  0  0  0  0  0  0  0  0  0  0  0
    3.2225    0.0603   -1.6190 H   0  0  0  0  0  0  0  0  0  0  0  0
    4.6305   -0.2422   -0.6017 H   0  0  0  0  0  0  0  0  0  0  0  0
    3.3651    2.2396   -0.8125 H   0  0  0  0  0  0  0  0  0  0  0  0
    4.2653    1.7526    0.6493 H   0  0  0  0  0  0  0  0  0  0  0  0
  1  2  1  0
  2  3  2  0
  3  4  1  0
  4  5  2  0
  5  6  1  0
  6  7  2  0
  7  8  1  0
  8  9  1  0
  9 10  1  0
 10 11  2  0
 11 12  1  0
 12 13  2  0
 12 14  1  0
 14 15  2  0
 15 16  1  0
 15 17  1  0
 17 18  1  0
 18 19  1  0
  7  2  1  0
 16 10  1  0
 19 14  1  0
  1 20  1  0
  1 21  1  0
  1 22  1  0
  3 23  1  0
  4 24  1  0
  5 25  1  0
  6 26  1  0
  8 27  1  0
  8 28  1  0
 16 29  1  0
 17 30  1  0
 17 31  1  0
 18 32  1  0
 18 33  1  0
 19 34  1  0
 19 35  1  0
M  END
$$$$
