
     RDKit          3D

 62 65  0  0  0  0  0  0  0  0999 V2000
    3.7493    3.5634   -3.2602 C   0  0  0  0  0  0  0  0  0  0  0  0
    2.9351    2.8553   -2.3319 O   0  0  0  0  0  0  0  0  0  0  0  0
    3.3999    1.6336   -1.8985 C   0  0  0  0  0  0  0  0  0  0  0  0
    4.6586    1.1050   -2.2042 C   0  0  0  0  0  0  0  0  0  0  0  0
    5.0325   -0.1440   -1.7057 C   0  0  0  0  0  0  0  0  0  0  0  0
    4.1409   -0.8613   -0.9065 C   0  0  0  0  0  0  0  0  0  0  0  0
    4.6078   -2.4489   -0.2663 S   0  0  0  0  0  6  0  0  0  0  0  0
    3.6461   -3.4104   -0.7571 O   0  0  0  0  0  0  0  0  0  0  0  0
    6.0270   -2.6314   -0.4912 O   0  0  0  0  0  0  0  0  0  0  0  0
    4.3904   -2.2713    1.4145 N   0  0  0  0  0  0  0  0  0  0  0  0
    5.2198   -1.2052    2.0656 C   0  0  0  0  0  0  0  0  0  0  0  0
    5.2891   -1.4325    3.5790 C   0  0  0  0  0  0  0  0  0  0  0  0
    5.9351   -2.6639    3.9298 O   0  0  0  0  0  0  0  0  0  0  0  0
    5.7491   -3.6981    2.9512 C   0  0  0  0  0  0  0  0  0  0  0  0
    4.4361   -3.5645    2.1752 C   0  0  0  0  0  0  0  0  0  0  0  0
    2.8789   -0.3477   -0.5914 C   0  0  0  0  0  0  0  0  0  0  0  0
    2.5069    0.9059   -1.0773 C   0  0  0  0  0  0  0  0  0  0  0  0
    1.2620    1.5145   -0.8021 N   0  0  0  0  0  0  0  0  0  0  0  0
    0.2405    1.0485    0.0042 C   0  0  0  0  0  0  0  0  0  0  0  0
    0.2574    0.0145    0.6667 O   0  0  0  0  0  0  0  0  0  0  0  0
   -0.9620    2.0017    0.0373 C   0  0  0  0  0  0  0  0  0  0  0  0
   -2.1656    1.3636    0.4587 O   0  0  0  0  0  0  0  0  0  0  0  0
   -2.7127    0.5515   -0.4868 C   0  0  0  0  0  0  0  0  0  0  0  0
   -2.3125    0.4513   -1.6391 O   0  0  0  0  0  0  0  0  0  0  0  0
   -3.9054   -0.1867    0.0696 C   0  0  0  0  0  0  0  0  0  0  0  0
   -5.1905    0.2239   -0.6530 C   0  0  0  0  0  0  0  0  0  0  0  0
   -5.6429    1.6609   -0.2990 C   0  0  0  0  0  0  0  0  0  0  0  0
   -7.0771    1.4584    0.2222 C   0  0  0  0  0  0  0  0  0  0  0  0
   -7.9857    1.0452   -0.9481 C   0  0  0  0  0  0  0  0  0  0  0  0
   -7.5463   -0.3988   -1.2323 C   0  0  0  0  0  0  0  0  0  0  0  0
   -6.4121   -0.6218   -0.2138 C   0  0  0  0  0  0  0  0  0  0  0  0
   -6.9435    0.1486    0.9969 C   0  0  0  0  0  0  0  0  0  0  0  0
    3.9255    2.9735   -4.1658 H   0  0  0  0  0  0  0  0  0  0  0  0
    3.2092    4.4688   -3.5532 H   0  0  0  0  0  0  0  0  0  0  0  0
    4.6919    3.8733   -2.7975 H   0  0  0  0  0  0  0  0  0  0  0  0
    5.3716    1.6378   -2.8252 H   0  0  0  0  0  0  0  0  0  0  0  0
    6.0115   -0.5516   -1.9513 H   0  0  0  0  0  0  0  0  0  0  0  0
    6.2358   -1.2144    1.6559 H   0  0  0  0  0  0  0  0  0  0  0  0
    4.7649   -0.2297    1.8689 H   0  0  0  0  0  0  0  0  0  0  0  0
    5.8482   -0.6223    4.0577 H   0  0  0  0  0  0  0  0  0  0  0  0
    4.2842   -1.4408    4.0174 H   0  0  0  0  0  0  0  0  0  0  0  0
    6.6072   -3.6729    2.2696 H   0  0  0  0  0  0  0  0  0  0  0  0
    5.7796   -4.6561    3.4801 H   0  0  0  0  0  0  0  0  0  0  0  0
    4.3096   -4.4251    1.5117 H   0  0  0  0  0  0  0  0  0  0  0  0
    3.5837   -3.5626    2.8649 H   0  0  0  0  0  0  0  0  0  0  0  0
    2.2117   -0.9454    0.0224 H   0  0  0  0  0  0  0  0  0  0  0  0
    1.1346    2.4022   -1.2798 H   0  0  0  0  0  0  0  0  0  0  0  0
   -1.1048    2.4936   -0.9325 H   0  0  0  0  0  0  0  0  0  0  0  0
   -0.7355    2.7847    0.7694 H   0  0  0  0  0  0  0  0  0  0  0  0
   -3.7100   -1.2579   -0.0618 H   0  0  0  0  0  0  0  0  0  0  0  0
   -3.9775   -0.0154    1.1499 H   0  0  0  0  0  0  0  0  0  0  0  0
   -5.0348    0.1372   -1.7362 H   0  0  0  0  0  0  0  0  0  0  0  0
   -5.6115    2.3211   -1.1726 H   0  0  0  0  0  0  0  0  0  0  0  0
   -5.0157    2.1041    0.4829 H   0  0  0  0  0  0  0  0  0  0  0  0
   -7.4581    2.3078    0.7931 H   0  0  0  0  0  0  0  0  0  0  0  0
   -9.0399    1.0653   -0.6500 H   0  0  0  0  0  0  0  0  0  0  0  0
   -7.8655    1.6930   -1.8224 H   0  0  0  0  0  0  0  0  0  0  0  0
   -8.3774   -1.0883   -1.0449 H   0  0  0  0  0  0  0  0  0  0  0  0
   -7.2183   -0.5346   -2.2679 H   0  0  0  0  0  0  0  0  0  0  0  0
   -6.1909   -1.6774   -0.0403 H   0  0  0  0  0  0  0  0  0  0  0  0
   -7.9019   -0.2342    1.3643 H   0  0  0  0  0  0  0  0  0  0  0  0
   -6.2339    0.2071    1.8281 H   0  0  0  0  0  0  0  0  0  0  0  0
  1  2  1  0
  2  3  1  0
  3  4  2  0
  4  5  1  0
  5  6  2  0
  6  7  1  0
  7  8  2  0
  7  9  2  0
  7 10  1  0
 10 11  1  0
 11 12  1  0
 12 13  1  0
 13 14  1  0
 14 15  1  0
  6 16  1  0
 16 17  2  0
 17 18  1  0
 18 19  1  0
 19 20  2  0
 19 21  1  0
 21 22  1  0
 22 23  1  0
 23 24  2  0
 23 25  1  0
 25 26  1  0
 26 27  1  0
 27 28  1  0
 28 29  1  0
 29 30  1  0
 30 31  1  0
 31 32  1  0
 17  3  1  0
 31 26  1  0
 15 10  1  0
 32 28  1  0
  1 33  1  0
  1 34  1  0
  1 35  1  0
  4 36  1  0
  5 37  1  0
 11 38  1  0
 11 39  1  0
 12 40  1  0
 12 41  1  0
 14 42  1  0
 14 43  1  0
 15 44  1  0
 15 45  1  0
 16 46  1  0
 18 47  1  0
 21 48  1  0
 21 49  1  0
 25 50  1  0
 25 51  1  0
 26 52  1  0
 27 53  1  0
 27 54  1  0
 28 55  1  0
 29 56  1  0
 29 57  1  0
 30 58  1  0
 30 59  1  0
 31 60  1  0
 32 61  1  0
 32 62  1  0
M  END
$$$$
