
     RDKit          3D

 57 58  0  0  0  0  0  0  0  0999 V2000
    7.9154   -1.8422    1.4276 C   0  0  0  0  0  0  0  0  0  0  0  0
    7.1894   -0.8087    0.5821 C   0  0  0  0  0  0  0  0  0  0  0  0
    6.1228   -1.4145   -0.3371 C   0  0  0  0  0  0  0  0  0  0  0  0
    4.9692   -2.1042    0.3977 C   0  0  0  0  0  0  0  0  0  0  0  0
    4.3694   -1.2560    1.3768 O   0  0  0  0  0  0  0  0  0  0  0  0
    3.4269   -0.3496    0.9818 C   0  0  0  0  0  0  0  0  0  0  0  0
    2.9231   -0.1804   -0.3053 C   0  0  0  0  0  0  0  0  0  0  0  0
    1.9546    0.7981   -0.5600 C   0  0  0  0  0  0  0  0  0  0  0  0
    1.4790    1.6335    0.4628 C   0  0  0  0  0  0  0  0  0  0  0  0
    0.3930    2.6483    0.1441 C   0  0  0  0  0  0  0  0  0  0  0  0
    0.5473    3.9688    0.9027 C   0  0  0  0  0  0  0  0  0  0  0  0
   -0.9036    2.0380    0.3976 N   0  0  0  0  0  0  0  0  0  0  0  0
   -2.0433    2.5165   -0.2016 C   0  0  0  0  0  0  0  0  0  0  0  0
   -2.0935    3.5524   -0.8564 O   0  0  0  0  0  0  0  0  0  0  0  0
   -3.2741    1.6681    0.0390 C   0  0  0  0  0  0  0  0  0  0  0  0
   -3.9179    1.2785   -1.2790 C   0  0  0  0  0  0  0  0  0  0  0  0
   -3.1124   -0.1252   -2.0503 S   0  0  0  0  0  6  0  0  0  0  0  0
   -3.7302   -0.3244   -3.3510 O   0  0  0  0  0  0  0  0  0  0  0  0
   -1.6755    0.0785   -1.9628 O   0  0  0  0  0  0  0  0  0  0  0  0
   -3.4859   -1.5558   -1.0334 C   0  0  0  0  0  0  0  0  0  0  0  0
   -4.9462   -1.6302   -0.6711 C   0  0  0  0  0  0  0  0  0  0  0  0
   -5.9234   -1.9087   -1.6402 C   0  0  0  0  0  0  0  0  0  0  0  0
   -7.2758   -1.9769   -1.2925 C   0  0  0  0  0  0  0  0  0  0  0  0
   -7.6692   -1.7792    0.0299 C   0  0  0  0  0  0  0  0  0  0  0  0
   -6.7056   -1.5195    1.0017 C   0  0  0  0  0  0  0  0  0  0  0  0
   -7.1817   -1.2813    2.6369 Cl  0  0  0  0  0  0  0  0  0  0  0  0
   -5.3527   -1.4484    0.6608 C   0  0  0  0  0  0  0  0  0  0  0  0
    1.9766    1.4414    1.7572 C   0  0  0  0  0  0  0  0  0  0  0  0
    2.9445    0.4640    2.0080 C   0  0  0  0  0  0  0  0  0  0  0  0
    8.3332   -2.6374    0.8035 H   0  0  0  0  0  0  0  0  0  0  0  0
    8.7396   -1.3717    1.9715 H   0  0  0  0  0  0  0  0  0  0  0  0
    7.2482   -2.2965    2.1650 H   0  0  0  0  0  0  0  0  0  0  0  0
    6.7422   -0.0510    1.2361 H   0  0  0  0  0  0  0  0  0  0  0  0
    7.9282   -0.2876   -0.0405 H   0  0  0  0  0  0  0  0  0  0  0  0
    5.7259   -0.6027   -0.9578 H   0  0  0  0  0  0  0  0  0  0  0  0
    6.5903   -2.1335   -1.0210 H   0  0  0  0  0  0  0  0  0  0  0  0
    5.3573   -2.9751    0.9396 H   0  0  0  0  0  0  0  0  0  0  0  0
    4.2285   -2.5128   -0.3002 H   0  0  0  0  0  0  0  0  0  0  0  0
    3.2545   -0.7879   -1.1394 H   0  0  0  0  0  0  0  0  0  0  0  0
    1.5649    0.9004   -1.5725 H   0  0  0  0  0  0  0  0  0  0  0  0
    0.4456    2.8871   -0.9258 H   0  0  0  0  0  0  0  0  0  0  0  0
    0.3550    3.8498    1.9734 H   0  0  0  0  0  0  0  0  0  0  0  0
    1.5541    4.3789    0.7787 H   0  0  0  0  0  0  0  0  0  0  0  0
   -0.1628    4.7174    0.5360 H   0  0  0  0  0  0  0  0  0  0  0  0
   -0.8777    1.0565    0.6405 H   0  0  0  0  0  0  0  0  0  0  0  0
   -3.9663    2.2881    0.6198 H   0  0  0  0  0  0  0  0  0  0  0  0
   -3.0373    0.7941    0.6516 H   0  0  0  0  0  0  0  0  0  0  0  0
   -3.8720    2.0923   -2.0110 H   0  0  0  0  0  0  0  0  0  0  0  0
   -4.9724    1.0268   -1.1453 H   0  0  0  0  0  0  0  0  0  0  0  0
   -2.8542   -1.4926   -0.1401 H   0  0  0  0  0  0  0  0  0  0  0  0
   -3.1827   -2.4474   -1.5931 H   0  0  0  0  0  0  0  0  0  0  0  0
   -5.6434   -2.0738   -2.6814 H   0  0  0  0  0  0  0  0  0  0  0  0
   -8.0237   -2.1869   -2.0562 H   0  0  0  0  0  0  0  0  0  0  0  0
   -8.7228   -1.8353    0.2950 H   0  0  0  0  0  0  0  0  0  0  0  0
   -4.6188   -1.2571    1.4425 H   0  0  0  0  0  0  0  0  0  0  0  0
    1.6190    2.0423    2.5883 H   0  0  0  0  0  0  0  0  0  0  0  0
    3.3272    0.3343    3.0181 H   0  0  0  0  0  0  0  0  0  0  0  0
  1  2  1  0
  2  3  1  0
  3  4  1  0
  4  5  1  0
  5  6  1  0
  6  7  2  0
  7  8  1  0
  8  9  2  0
  9 10  1  0
 10 11  1  0
 10 12  1  0
 12 13  1  0
 13 14  2  0
 13 15  1  0
 15 16  1  0
 16 17  1  0
 17 18  2  0
 17 19  2  0
 17 20  1  0
 20 21  1  0
 21 22  2  0
 22 23  1  0
 23 24  2  0
 24 25  1  0
 25 26  1  0
 25 27  2  0
  9 28  1  0
 28 29  2  0
 29  6  1  0
 27 21  1  0
  1 30  1  0
  1 31  1  0
  1 32  1  0
  2 33  1  0
  2 34  1  0
  3 35  1  0
  3 36  1  0
  4 37  1  0
  4 38  1  0
  7 39  1  0
  8 40  1  0
 10 41  1  0
 11 42  1  0
 11 43  1  0
 11 44  1  0
 12 45  1  0
 15 46  1  0
 15 47  1  0
 16 48  1  0
 16 49  1  0
 20 50  1  0
 20 51  1  0
 22 52  1  0
 23 53  1  0
 24 54  1  0
 27 55  1  0
 28 56  1  0
 29 57  1  0
M  END
$$$$
