
     RDKit          3D

 74 78  0  0  0  0  0  0  0  0999 V2000
    3.9187    5.0963    0.9001 C   0  0  0  0  0  0  0  0  0  0  0  0
    2.9701    3.9370    0.8174 C   0  0  0  0  0  0  0  0  0  0  0  0
    1.6387    4.1323    0.4423 C   0  0  0  0  0  0  0  0  0  0  0  0
    0.7446    3.0538    0.3388 C   0  0  0  0  0  0  0  0  0  0  0  0
   -0.6833    3.3498   -0.0332 C   0  0  0  0  0  0  0  0  0  0  0  0
    1.2217    1.7446    0.5608 C   0  0  0  0  0  0  0  0  0  0  0  0
    0.3364    0.6436    0.4206 N   0  0  0  0  0  0  0  0  0  0  0  0
   -0.2594    0.0439    1.5368 C   0  0  0  0  0  0  0  0  0  0  0  0
   -0.8060   -1.0620    1.4572 O   0  0  0  0  0  0  0  0  0  0  0  0
   -0.2254    0.8208    2.8572 C   0  0  0  0  0  0  0  0  0  0  0  0
   -0.5523   -0.0597    3.9777 N   0  0  0  0  0  0  0  0  0  0  0  0
    0.2003   -1.1837    4.3750 C   0  0  0  0  0  0  0  0  0  0  0  0
    1.3232   -1.4545    3.9915 O   0  0  0  0  0  0  0  0  0  0  0  0
   -0.5821   -1.9633    5.3523 C   0  0  0  0  0  0  0  0  0  0  0  0
   -0.1705   -3.1132    6.0072 C   0  0  0  0  0  0  0  0  0  0  0  0
   -1.0545   -3.7006    6.9199 C   0  0  0  0  0  0  0  0  0  0  0  0
   -2.3231   -3.1388    7.1616 C   0  0  0  0  0  0  0  0  0  0  0  0
   -2.7310   -1.9824    6.4926 C   0  0  0  0  0  0  0  0  0  0  0  0
   -1.8392   -1.4241    5.5951 C   0  0  0  0  0  0  0  0  0  0  0  0
   -2.0899    0.0066    4.6357 S   0  0  0  0  0  6  0  0  0  0  0  0
   -3.0822   -0.2817    3.6295 O   0  0  0  0  0  0  0  0  0  0  0  0
   -2.1668    1.1478    5.5196 O   0  0  0  0  0  0  0  0  0  0  0  0
    0.2966   -0.1241   -0.8470 C   0  0  0  0  0  0  0  0  0  0  0  0
   -1.1291   -0.0627   -1.4770 C   0  0  0  0  0  0  0  0  0  0  0  0
   -1.9820    0.7698   -1.1719 O   0  0  0  0  0  0  0  0  0  0  0  0
   -1.3596   -1.0226   -2.4505 N   0  0  0  0  0  0  0  0  0  0  0  0
   -2.5761   -1.0058   -3.2422 C   0  0  0  0  0  0  0  0  0  0  0  0
   -2.7007   -2.2840   -4.0685 C   0  0  0  0  0  0  0  0  0  0  0  0
   -3.9229   -2.3017   -4.9712 C   0  0  0  0  0  0  0  0  0  0  0  0
   -3.4618   -3.1965   -6.0949 C   0  0  0  0  0  0  0  0  0  0  0  0
   -2.0127   -2.7845   -6.2442 C   0  0  0  0  0  0  0  0  0  0  0  0
   -1.5506   -2.4144   -4.9367 O   0  0  0  0  0  0  0  0  0  0  0  0
    1.3684    0.2048   -1.8929 C   0  0  0  0  0  0  0  0  0  0  0  0
    2.4850   -0.6417   -2.0353 C   0  0  0  0  0  0  0  0  0  0  0  0
    3.4693   -0.3678   -2.9859 C   0  0  0  0  0  0  0  0  0  0  0  0
    3.3450    0.7515   -3.7984 C   0  0  0  0  0  0  0  0  0  0  0  0
    4.2915    1.0135   -4.7095 F   0  0  0  0  0  0  0  0  0  0  0  0
    2.2528    1.6016   -3.6805 C   0  0  0  0  0  0  0  0  0  0  0  0
    1.2647    1.3282   -2.7331 C   0  0  0  0  0  0  0  0  0  0  0  0
    2.5613    1.5332    0.9558 C   0  0  0  0  0  0  0  0  0  0  0  0
    3.1264    0.1859    1.3198 C   0  0  0  0  0  0  0  0  0  0  0  0
    3.4198    2.6391    1.0711 C   0  0  0  0  0  0  0  0  0  0  0  0
    4.6550    4.9394    1.6958 H   0  0  0  0  0  0  0  0  0  0  0  0
    4.4453    5.2137   -0.0527 H   0  0  0  0  0  0  0  0  0  0  0  0
    3.3868    6.0261    1.1299 H   0  0  0  0  0  0  0  0  0  0  0  0
    1.2885    5.1428    0.2368 H   0  0  0  0  0  0  0  0  0  0  0  0
   -0.8444    3.1751   -1.1007 H   0  0  0  0  0  0  0  0  0  0  0  0
   -0.9362    4.3960    0.1770 H   0  0  0  0  0  0  0  0  0  0  0  0
   -1.3800    2.7423    0.5525 H   0  0  0  0  0  0  0  0  0  0  0  0
   -0.9354    1.6511    2.7929 H   0  0  0  0  0  0  0  0  0  0  0  0
    0.7647    1.2373    3.0546 H   0  0  0  0  0  0  0  0  0  0  0  0
    0.8091   -3.5441    5.8185 H   0  0  0  0  0  0  0  0  0  0  0  0
   -0.7582   -4.6034    7.4510 H   0  0  0  0  0  0  0  0  0  0  0  0
   -2.9930   -3.6140    7.8772 H   0  0  0  0  0  0  0  0  0  0  0  0
   -3.7069   -1.5408    6.6688 H   0  0  0  0  0  0  0  0  0  0  0  0
    0.4330   -1.1815   -0.5753 H   0  0  0  0  0  0  0  0  0  0  0  0
   -0.5560   -1.4560   -2.8951 H   0  0  0  0  0  0  0  0  0  0  0  0
   -2.5103   -0.1266   -3.8938 H   0  0  0  0  0  0  0  0  0  0  0  0
   -3.4378   -0.8818   -2.5768 H   0  0  0  0  0  0  0  0  0  0  0  0
   -2.6999   -3.1626   -3.4112 H   0  0  0  0  0  0  0  0  0  0  0  0
   -4.8204   -2.6709   -4.4643 H   0  0  0  0  0  0  0  0  0  0  0  0
   -4.1374   -1.2990   -5.3616 H   0  0  0  0  0  0  0  0  0  0  0  0
   -3.5235   -4.2487   -5.7865 H   0  0  0  0  0  0  0  0  0  0  0  0
   -4.0358   -3.0738   -7.0183 H   0  0  0  0  0  0  0  0  0  0  0  0
   -1.9148   -1.9046   -6.8909 H   0  0  0  0  0  0  0  0  0  0  0  0
   -1.3848   -3.5842   -6.6479 H   0  0  0  0  0  0  0  0  0  0  0  0
    2.5960   -1.5211   -1.4029 H   0  0  0  0  0  0  0  0  0  0  0  0
    4.3308   -1.0191   -3.0966 H   0  0  0  0  0  0  0  0  0  0  0  0
    2.1766    2.4726   -4.3240 H   0  0  0  0  0  0  0  0  0  0  0  0
    0.4144    2.0030   -2.6558 H   0  0  0  0  0  0  0  0  0  0  0  0
    4.0677    0.0130    0.7876 H   0  0  0  0  0  0  0  0  0  0  0  0
    3.3190    0.1493    2.3976 H   0  0  0  0  0  0  0  0  0  0  0  0
    2.4595   -0.6449    1.0763 H   0  0  0  0  0  0  0  0  0  0  0  0
    4.4550    2.4810    1.3682 H   0  0  0  0  0  0  0  0  0  0  0  0
  1  2  1  0
  2  3  2  0
  3  4  1  0
  4  5  1  0
  4  6  2  0
  6  7  1  0
  7  8  1  0
  8  9  2  0
  8 10  1  0
 10 11  1  0
 11 12  1  0
 12 13  2  0
 12 14  1  0
 14 15  2  0
 15 16  1  0
 16 17  2  0
 17 18  1  0
 18 19  2  0
 19 20  1  0
 20 21  2  0
 20 22  2  0
  7 23  1  0
 23 24  1  0
 24 25  2  0
 24 26  1  0
 26 27  1  0
 27 28  1  0
 28 29  1  0
 29 30  1  0
 30 31  1  0
 31 32  1  0
 23 33  1  0
 33 34  2  0
 34 35  1  0
 35 36  2  0
 36 37  1  0
 36 38  1  0
 38 39  2  0
  6 40  1  0
 40 41  1  0
 40 42  2  0
 42  2  1  0
 20 11  1  0
 32 28  1  0
 39 33  1  0
 19 14  1  0
  1 43  1  0
  1 44  1  0
  1 45  1  0
  3 46  1  0
  5 47  1  0
  5 48  1  0
  5 49  1  0
 10 50  1  0
 10 51  1  0
 15 52  1  0
 16 53  1  0
 17 54  1  0
 18 55  1  0
 23 56  1  0
 26 57  1  0
 27 58  1  0
 27 59  1  0
 28 60  1  0
 29 61  1  0
 29 62  1  0
 30 63  1  0
 30 64  1  0
 31 65  1  0
 31 66  1  0
 34 67  1  0
 35 68  1  0
 38 69  1  0
 39 70  1  0
 41 71  1  0
 41 72  1  0
 41 73  1  0
 42 74  1  0
M  END
$$$$
