
     RDKit          3D

 45 47  0  0  0  0  0  0  0  0999 V2000
   -4.8366    0.4291   -1.7793 C   0  0  0  0  0  0  0  0  0  0  0  0
   -3.5125   -0.0465   -1.1908 C   0  0  0  0  0  0  0  0  0  0  0  0
   -3.4861   -0.0134    0.2871 N   0  0  0  0  0  0  0  0  0  0  0  0
   -4.4849   -0.8994    0.9168 C   0  0  0  0  0  0  0  0  0  0  0  0
   -4.3821   -2.3879    0.5966 C   0  0  0  0  0  0  0  0  0  0  0  0
   -2.1199   -0.3130    0.7874 C   0  0  0  0  0  0  0  0  0  0  0  0
   -1.1514    0.8500    0.6503 C   0  0  0  0  0  0  0  0  0  0  0  0
   -1.5582    2.1853    0.8183 C   0  0  0  0  0  0  0  0  0  0  0  0
   -2.8672    2.5198    1.0347 O   0  0  0  0  0  0  0  0  0  0  0  0
   -0.6532    3.2432    0.7645 C   0  0  0  0  0  0  0  0  0  0  0  0
    0.6962    2.9872    0.5405 C   0  0  0  0  0  0  0  0  0  0  0  0
    1.1309    1.6683    0.3813 C   0  0  0  0  0  0  0  0  0  0  0  0
    2.5620    1.3869    0.1554 C   0  0  0  0  0  0  0  0  0  0  0  0
    3.3762    2.3014    0.0989 O   0  0  0  0  0  0  0  0  0  0  0  0
    2.9461   -0.0434    0.0017 C   0  0  0  0  0  0  0  0  0  0  0  0
    4.3403   -0.4731   -0.2153 C   0  0  0  0  0  0  0  0  0  0  0  0
    5.3700    0.0111    0.6035 C   0  0  0  0  0  0  0  0  0  0  0  0
    6.6911   -0.3999    0.4084 C   0  0  0  0  0  0  0  0  0  0  0  0
    6.9997   -1.2987   -0.6100 C   0  0  0  0  0  0  0  0  0  0  0  0
    5.9895   -1.7835   -1.4373 C   0  0  0  0  0  0  0  0  0  0  0  0
    4.6681   -1.3722   -1.2429 C   0  0  0  0  0  0  0  0  0  0  0  0
    1.9611   -0.9484    0.1043 C   0  0  0  0  0  0  0  0  0  0  0  0
    0.6288   -0.6988    0.3168 O   0  0  0  0  0  0  0  0  0  0  0  0
    0.2209    0.6084    0.4437 C   0  0  0  0  0  0  0  0  0  0  0  0
   -5.6492   -0.2754   -1.5790 H   0  0  0  0  0  0  0  0  0  0  0  0
   -5.1168    1.4094   -1.3799 H   0  0  0  0  0  0  0  0  0  0  0  0
   -4.7474    0.5243   -2.8667 H   0  0  0  0  0  0  0  0  0  0  0  0
   -2.7394    0.6266   -1.5810 H   0  0  0  0  0  0  0  0  0  0  0  0
   -3.2743   -1.0446   -1.5767 H   0  0  0  0  0  0  0  0  0  0  0  0
   -4.4240   -0.7731    2.0057 H   0  0  0  0  0  0  0  0  0  0  0  0
   -5.4921   -0.5503    0.6613 H   0  0  0  0  0  0  0  0  0  0  0  0
   -3.4101   -2.7995    0.8843 H   0  0  0  0  0  0  0  0  0  0  0  0
   -4.5451   -2.5875   -0.4664 H   0  0  0  0  0  0  0  0  0  0  0  0
   -5.1487   -2.9378    1.1530 H   0  0  0  0  0  0  0  0  0  0  0  0
   -2.1576   -0.5359    1.8621 H   0  0  0  0  0  0  0  0  0  0  0  0
   -1.7358   -1.2095    0.2864 H   0  0  0  0  0  0  0  0  0  0  0  0
   -3.3981    1.7144    0.8423 H   0  0  0  0  0  0  0  0  0  0  0  0
   -1.0034    4.2639    0.8948 H   0  0  0  0  0  0  0  0  0  0  0  0
    1.4036    3.8124    0.4954 H   0  0  0  0  0  0  0  0  0  0  0  0
    5.1542    0.7220    1.3991 H   0  0  0  0  0  0  0  0  0  0  0  0
    7.4783   -0.0107    1.0489 H   0  0  0  0  0  0  0  0  0  0  0  0
    8.0285   -1.6138   -0.7636 H   0  0  0  0  0  0  0  0  0  0  0  0
    6.2305   -2.4765   -2.2392 H   0  0  0  0  0  0  0  0  0  0  0  0
    3.9002   -1.7525   -1.9128 H   0  0  0  0  0  0  0  0  0  0  0  0
    2.1178   -2.0187    0.0369 H   0  0  0  0  0  0  0  0  0  0  0  0
  1  2  1  0
  2  3  1  0
  3  4  1  0
  4  5  1  0
  3  6  1  0
  6  7  1  0
  7  8  2  0
  8  9  1  0
  8 10  1  0
 10 11  2  0
 11 12  1  0
 12 13  1  0
 13 14  2  0
 13 15  1  0
 15 16  1  0
 16 17  2  0
 17 18  1  0
 18 19  2  0
 19 20  1  0
 20 21  2  0
 15 22  2  0
 22 23  1  0
 23 24  1  0
 24  7  1  0
 24 12  2  0
 21 16  1  0
  1 25  1  0
  1 26  1  0
  1 27  1  0
  2 28  1  0
  2 29  1  0
  4 30  1  0
  4 31  1  0
  5 32  1  0
  5 33  1  0
  5 34  1  0
  6 35  1  0
  6 36  1  0
  9 37  1  0
 10 38  1  0
 11 39  1  0
 17 40  1  0
 18 41  1  0
 19 42  1  0
 20 43  1  0
 21 44  1  0
 22 45  1  0
M  END
$$$$
