
     RDKit          3D

 58 61  0  0  0  0  0  0  0  0999 V2000
    8.2420   -1.2626    1.2966 C   0  0  0  0  0  0  0  0  0  0  0  0
    7.2320   -0.7068    0.3354 C   0  0  0  0  0  0  0  0  0  0  0  0
    6.7644    0.6053    0.4702 C   0  0  0  0  0  0  0  0  0  0  0  0
    5.8463    1.1267   -0.4440 C   0  0  0  0  0  0  0  0  0  0  0  0
    5.3889    0.3509   -1.5173 C   0  0  0  0  0  0  0  0  0  0  0  0
    4.3680    0.9082   -2.4770 C   0  0  0  0  0  0  0  0  0  0  0  0
    3.0398    0.7897   -1.9185 N   0  0  0  0  0  0  0  0  0  0  0  0
    2.4182    1.8488   -1.2993 C   0  0  0  0  0  0  0  0  0  0  0  0
    2.8649    2.9929   -1.3075 O   0  0  0  0  0  0  0  0  0  0  0  0
    1.1167    1.5111   -0.5798 C   0  0  0  0  0  0  0  0  0  0  0  0
    1.3607    0.5380    0.5766 C   0  0  0  0  0  0  0  0  0  0  0  0
    0.0961    0.3106    1.4083 C   0  0  0  0  0  0  0  0  0  0  0  0
   -1.2092    0.4242    0.5964 C   0  0  0  0  0  0  0  0  0  0  0  0
   -2.3114   -0.4372    1.2375 C   0  0  0  0  0  0  0  0  0  0  0  0
   -3.6065   -0.1224    0.6494 N   0  0  0  0  0  0  0  0  0  0  0  0
   -4.7964   -0.8022    0.8814 C   0  0  0  0  0  0  0  0  0  0  0  0
   -4.7485   -2.0827    1.3659 N   0  0  0  0  0  0  0  0  0  0  0  0
   -5.8271   -2.8831    1.6351 C   0  0  0  0  0  0  0  0  0  0  0  0
   -5.5269   -4.4387    2.1883 S   0  0  0  0  0  0  0  0  0  0  0  0
   -7.0801   -2.3772    1.4434 N   0  0  0  0  0  0  0  0  0  0  0  0
   -7.1726   -1.1708    0.9835 C   0  0  0  0  0  0  0  0  0  0  0  0
   -8.5315   -0.5965    0.7720 C   0  0  0  0  0  0  0  0  0  0  0  0
   -8.6860    0.6417    0.2840 C   0  0  0  0  0  0  0  0  0  0  0  0
   -7.5611    1.4699   -0.0738 C   0  0  0  0  0  0  0  0  0  0  0  0
   -6.3012    1.0463    0.0948 C   0  0  0  0  0  0  0  0  0  0  0  0
   -6.0186   -0.2714    0.6420 C   0  0  0  0  0  0  0  0  0  0  0  0
   -0.9693    0.0489   -0.8734 C   0  0  0  0  0  0  0  0  0  0  0  0
    0.0411    0.9867   -1.5434 C   0  0  0  0  0  0  0  0  0  0  0  0
    5.8619   -0.9609   -1.6533 C   0  0  0  0  0  0  0  0  0  0  0  0
    6.7814   -1.4820   -0.7389 C   0  0  0  0  0  0  0  0  0  0  0  0
    8.0068   -2.3033    1.5439 H   0  0  0  0  0  0  0  0  0  0  0  0
    8.2481   -0.6983    2.2361 H   0  0  0  0  0  0  0  0  0  0  0  0
    9.2435   -1.2169    0.8572 H   0  0  0  0  0  0  0  0  0  0  0  0
    7.1094    1.2324    1.2898 H   0  0  0  0  0  0  0  0  0  0  0  0
    5.4842    2.1457   -0.3151 H   0  0  0  0  0  0  0  0  0  0  0  0
    4.3777    0.3412   -3.4149 H   0  0  0  0  0  0  0  0  0  0  0  0
    4.6009    1.9506   -2.7237 H   0  0  0  0  0  0  0  0  0  0  0  0
    2.7029   -0.1468   -1.7453 H   0  0  0  0  0  0  0  0  0  0  0  0
    0.7526    2.4556   -0.1486 H   0  0  0  0  0  0  0  0  0  0  0  0
    1.7009   -0.4310    0.1869 H   0  0  0  0  0  0  0  0  0  0  0  0
    2.1679    0.8999    1.2251 H   0  0  0  0  0  0  0  0  0  0  0  0
    0.0606    1.0456    2.2230 H   0  0  0  0  0  0  0  0  0  0  0  0
    0.1746   -0.6717    1.8919 H   0  0  0  0  0  0  0  0  0  0  0  0
   -1.5307    1.4752    0.6255 H   0  0  0  0  0  0  0  0  0  0  0  0
   -2.0672   -1.4961    1.0961 H   0  0  0  0  0  0  0  0  0  0  0  0
   -2.3576   -0.2413    2.3152 H   0  0  0  0  0  0  0  0  0  0  0  0
   -3.7433    0.8760    0.5189 H   0  0  0  0  0  0  0  0  0  0  0  0
   -3.8494   -2.5159    1.5082 H   0  0  0  0  0  0  0  0  0  0  0  0
   -9.3750   -1.2241    1.0334 H   0  0  0  0  0  0  0  0  0  0  0  0
   -9.6818    1.0518    0.1390 H   0  0  0  0  0  0  0  0  0  0  0  0
   -7.7670    2.4489   -0.4967 H   0  0  0  0  0  0  0  0  0  0  0  0
   -5.4842    1.6924   -0.2023 H   0  0  0  0  0  0  0  0  0  0  0  0
   -0.5968   -0.9828   -0.9308 H   0  0  0  0  0  0  0  0  0  0  0  0
   -1.9035    0.0725   -1.4456 H   0  0  0  0  0  0  0  0  0  0  0  0
    0.4755    0.4696   -2.4074 H   0  0  0  0  0  0  0  0  0  0  0  0
   -0.4927    1.8514   -1.9613 H   0  0  0  0  0  0  0  0  0  0  0  0
    5.5220   -1.5871   -2.4748 H   0  0  0  0  0  0  0  0  0  0  0  0
    7.1452   -2.4987   -0.8709 H   0  0  0  0  0  0  0  0  0  0  0  0
  1  2  1  0
  2  3  2  0
  3  4  1  0
  4  5  2  0
  5  6  1  0
  6  7  1  0
  7  8  1  0
  8  9  2  0
  8 10  1  0
 10 11  1  0
 11 12  1  0
 12 13  1  0
 13 14  1  0
 14 15  1  0
 15 16  1  0
 16 17  1  0
 17 18  1  0
 18 19  2  0
 18 20  1  0
 20 21  2  0
 21 22  1  0
 22 23  2  0
 23 24  1  0
 24 25  2  0
 25 26  1  0
 13 27  1  0
 27 28  1  0
  5 29  1  0
 29 30  2  0
 30  2  1  0
 28 10  1  0
 26 16  2  0
 26 21  1  0
  1 31  1  0
  1 32  1  0
  1 33  1  0
  3 34  1  0
  4 35  1  0
  6 36  1  0
  6 37  1  0
  7 38  1  0
 10 39  1  0
 11 40  1  0
 11 41  1  0
 12 42  1  0
 12 43  1  0
 13 44  1  0
 14 45  1  0
 14 46  1  0
 15 47  1  0
 17 48  1  0
 22 49  1  0
 23 50  1  0
 24 51  1  0
 25 52  1  0
 27 53  1  0
 27 54  1  0
 28 55  1  0
 28 56  1  0
 29 57  1  0
 30 58  1  0
M  END
$$$$
