
     RDKit          3D

 45 47  0  0  0  0  0  0  0  0999 V2000
    1.5317   -1.7476   -1.1141 O   0  0  0  0  0  0  0  0  0  0  0  0
    2.5622   -1.1681   -0.7883 C   0  0  0  0  0  0  0  0  0  0  0  0
    2.6922    0.3438   -0.6559 C   0  0  0  0  0  0  0  0  0  0  0  0
    1.3935    0.9461   -0.3912 N   0  0  0  0  0  0  0  0  0  0  0  0
    0.9515    1.0731    0.9105 C   0  0  0  0  0  0  0  0  0  0  0  0
    1.6544    0.8212    1.8826 O   0  0  0  0  0  0  0  0  0  0  0  0
   -0.4655    1.4952    1.0912 C   0  0  0  0  0  0  0  0  0  0  0  0
   -1.1440    2.2509    0.1294 C   0  0  0  0  0  0  0  0  0  0  0  0
   -2.4753    2.6267    0.3449 C   0  0  0  0  0  0  0  0  0  0  0  0
   -3.1529    2.2633    1.5210 C   0  0  0  0  0  0  0  0  0  0  0  0
   -4.5536    2.6587    1.7418 C   0  0  0  0  0  0  0  0  0  0  0  0
   -5.5354    1.7019    2.0493 C   0  0  0  0  0  0  0  0  0  0  0  0
   -6.8658    2.0755    2.2579 C   0  0  0  0  0  0  0  0  0  0  0  0
   -7.2369    3.4143    2.1638 C   0  0  0  0  0  0  0  0  0  0  0  0
   -6.2795    4.3790    1.8612 C   0  0  0  0  0  0  0  0  0  0  0  0
   -4.9496    4.0036    1.6517 C   0  0  0  0  0  0  0  0  0  0  0  0
   -2.4524    1.5169    2.4825 C   0  0  0  0  0  0  0  0  0  0  0  0
   -1.1213    1.1405    2.2741 C   0  0  0  0  0  0  0  0  0  0  0  0
    3.7664   -1.7611   -0.5622 O   0  0  0  0  0  0  0  0  0  0  0  0
    3.7883   -3.1865   -0.6933 C   0  0  0  0  0  0  0  0  0  0  0  0
    4.2558   -3.5540   -2.0787 C   0  0  0  0  0  0  0  0  0  0  0  0
    3.3294   -3.9052   -3.0713 C   0  0  0  0  0  0  0  0  0  0  0  0
    3.7604   -4.2247   -4.3608 C   0  0  0  0  0  0  0  0  0  0  0  0
    5.1192   -4.1874   -4.6654 C   0  0  0  0  0  0  0  0  0  0  0  0
    5.6503   -4.5787   -6.2546 Cl  0  0  0  0  0  0  0  0  0  0  0  0
    6.0507   -3.8298   -3.6930 C   0  0  0  0  0  0  0  0  0  0  0  0
    5.6197   -3.5099   -2.4034 C   0  0  0  0  0  0  0  0  0  0  0  0
    3.3875    0.5901    0.1522 H   0  0  0  0  0  0  0  0  0  0  0  0
    3.0615    0.7464   -1.6030 H   0  0  0  0  0  0  0  0  0  0  0  0
    0.6879    0.8070   -1.1044 H   0  0  0  0  0  0  0  0  0  0  0  0
   -0.6507    2.5765   -0.7818 H   0  0  0  0  0  0  0  0  0  0  0  0
   -2.9883    3.2069   -0.4204 H   0  0  0  0  0  0  0  0  0  0  0  0
   -5.2695    0.6488    2.1179 H   0  0  0  0  0  0  0  0  0  0  0  0
   -7.6108    1.3195    2.4919 H   0  0  0  0  0  0  0  0  0  0  0  0
   -8.2711    3.7056    2.3270 H   0  0  0  0  0  0  0  0  0  0  0  0
   -6.5648    5.4255    1.7912 H   0  0  0  0  0  0  0  0  0  0  0  0
   -4.2158    4.7756    1.4290 H   0  0  0  0  0  0  0  0  0  0  0  0
   -2.9377    1.2331    3.4147 H   0  0  0  0  0  0  0  0  0  0  0  0
   -0.5995    0.5686    3.0390 H   0  0  0  0  0  0  0  0  0  0  0  0
    4.4968   -3.5749    0.0477 H   0  0  0  0  0  0  0  0  0  0  0  0
    2.8215   -3.6464   -0.4542 H   0  0  0  0  0  0  0  0  0  0  0  0
    2.2640   -3.9254   -2.8453 H   0  0  0  0  0  0  0  0  0  0  0  0
    3.0323   -4.4970   -5.1201 H   0  0  0  0  0  0  0  0  0  0  0  0
    7.1102   -3.7951   -3.9319 H   0  0  0  0  0  0  0  0  0  0  0  0
    6.3532   -3.2226   -1.6525 H   0  0  0  0  0  0  0  0  0  0  0  0
  1  2  2  0
  2  3  1  0
  3  4  1  0
  4  5  1  0
  5  6  2  0
  5  7  1  0
  7  8  2  0
  8  9  1  0
  9 10  2  0
 10 11  1  0
 11 12  2  0
 12 13  1  0
 13 14  2  0
 14 15  1  0
 15 16  2  0
 10 17  1  0
 17 18  2  0
  2 19  1  0
 19 20  1  0
 20 21  1  0
 21 22  2  0
 22 23  1  0
 23 24  2  0
 24 25  1  0
 24 26  1  0
 26 27  2  0
 18  7  1  0
 27 21  1  0
 16 11  1  0
  3 28  1  0
  3 29  1  0
  4 30  1  0
  8 31  1  0
  9 32  1  0
 12 33  1  0
 13 34  1  0
 14 35  1  0
 15 36  1  0
 16 37  1  0
 17 38  1  0
 18 39  1  0
 20 40  1  0
 20 41  1  0
 22 42  1  0
 23 43  1  0
 26 44  1  0
 27 45  1  0
M  END
$$$$
