
     RDKit          3D

 63 67  0  0  0  0  0  0  0  0999 V2000
    0.3357    1.0567    7.1056 Cl  0  0  0  0  0  0  0  0  0  0  0  0
   -0.2967    0.4187    5.6406 C   0  0  0  0  0  0  0  0  0  0  0  0
    0.1467   -0.8138    5.1717 C   0  0  0  0  0  0  0  0  0  0  0  0
   -0.3623   -1.3300    3.9764 C   0  0  0  0  0  0  0  0  0  0  0  0
   -1.3137   -0.6122    3.2289 C   0  0  0  0  0  0  0  0  0  0  0  0
   -1.8449   -1.2052    1.9264 C   0  0  0  0  0  0  0  0  0  0  0  0
   -3.1728   -1.9346    2.0880 C   0  0  0  0  0  0  0  0  0  0  0  0
   -4.3411   -1.2783    2.5223 C   0  0  0  0  0  0  0  0  0  0  0  0
   -5.5437   -1.9763    2.6645 C   0  0  0  0  0  0  0  0  0  0  0  0
   -5.5948   -3.3386    2.3752 C   0  0  0  0  0  0  0  0  0  0  0  0
   -7.0749   -4.1935    2.5464 Cl  0  0  0  0  0  0  0  0  0  0  0  0
   -4.4524   -4.0099    1.9436 C   0  0  0  0  0  0  0  0  0  0  0  0
   -3.2485   -3.3138    1.8010 C   0  0  0  0  0  0  0  0  0  0  0  0
   -1.8946   -0.1751    0.8601 N   0  0  0  0  0  0  0  0  0  0  0  0
   -2.8028   -0.0765   -0.1916 C   0  0  0  0  0  0  0  0  0  0  0  0
   -2.3782    0.9438   -0.9960 C   0  0  0  0  0  0  0  0  0  0  0  0
   -1.2034    1.4209   -0.4466 N   0  0  0  0  0  4  0  0  0  0  0  0
   -0.3744    2.5209   -0.9681 C   0  0  0  0  0  0  0  0  0  0  0  0
    1.0384    2.1156   -1.4656 C   0  0  0  0  0  0  0  0  0  0  0  0
    1.7801    1.5270   -0.3841 O   0  0  0  0  0  0  0  0  0  0  0  0
    3.1645    1.9094   -0.3444 C   0  0  0  0  0  0  0  0  0  0  0  0
    4.0011    1.1571   -1.3489 C   0  0  0  0  0  0  0  0  0  0  0  0
    4.2420   -0.2111   -1.1268 C   0  0  0  0  0  0  0  0  0  0  0  0
    4.9795   -0.9672   -2.0393 C   0  0  0  0  0  0  0  0  0  0  0  0
    5.4873   -0.3630   -3.1843 C   0  0  0  0  0  0  0  0  0  0  0  0
    6.3812   -1.2977   -4.3162 Cl  0  0  0  0  0  0  0  0  0  0  0  0
    5.2734    0.9916   -3.4211 C   0  0  0  0  0  0  0  0  0  0  0  0
    4.5376    1.7488   -2.5055 C   0  0  0  0  0  0  0  0  0  0  0  0
    4.3076    3.4232   -2.8669 Cl  0  0  0  0  0  0  0  0  0  0  0  0
    0.9919    1.2584   -2.7259 C   0  0  0  0  0  0  0  0  0  0  0  0
    1.0658    1.9401   -3.9622 C   0  0  0  0  0  0  0  0  0  0  0  0
    1.0627    1.2508   -5.1764 C   0  0  0  0  0  0  0  0  0  0  0  0
    0.9746   -0.1347   -5.1806 C   0  0  0  0  0  0  0  0  0  0  0  0
    0.9733   -0.9877   -6.6711 Cl  0  0  0  0  0  0  0  0  0  0  0  0
    0.8849   -0.8334   -3.9823 C   0  0  0  0  0  0  0  0  0  0  0  0
    0.8910   -0.1460   -2.7618 C   0  0  0  0  0  0  0  0  0  0  0  0
    0.7704   -1.1309   -1.3465 Cl  0  0  0  0  0  0  0  0  0  0  0  0
   -0.9057    0.7157    0.6569 C   0  0  0  0  0  0  0  0  0  0  0  0
   -1.7557    0.6276    3.7272 C   0  0  0  0  0  0  0  0  0  0  0  0
   -1.2491    1.1391    4.9257 C   0  0  0  0  0  0  0  0  0  0  0  0
    0.8829   -1.3809    5.7368 H   0  0  0  0  0  0  0  0  0  0  0  0
   -0.0076   -2.3040    3.6438 H   0  0  0  0  0  0  0  0  0  0  0  0
   -1.0961   -1.9210    1.5566 H   0  0  0  0  0  0  0  0  0  0  0  0
   -4.3368   -0.2149    2.7570 H   0  0  0  0  0  0  0  0  0  0  0  0
   -6.4351   -1.4539    3.0088 H   0  0  0  0  0  0  0  0  0  0  0  0
   -4.4928   -5.0763    1.7218 H   0  0  0  0  0  0  0  0  0  0  0  0
   -2.3716   -3.8693    1.4658 H   0  0  0  0  0  0  0  0  0  0  0  0
   -3.6435   -0.7480   -0.2533 H   0  0  0  0  0  0  0  0  0  0  0  0
   -2.7560    1.3799   -1.9051 H   0  0  0  0  0  0  0  0  0  0  0  0
   -0.9314    3.0256   -1.7666 H   0  0  0  0  0  0  0  0  0  0  0  0
   -0.2697    3.2308   -0.1372 H   0  0  0  0  0  0  0  0  0  0  0  0
    1.5232    3.0667   -1.7217 H   0  0  0  0  0  0  0  0  0  0  0  0
    3.2624    2.9971   -0.4083 H   0  0  0  0  0  0  0  0  0  0  0  0
    3.5286    1.6501    0.6578 H   0  0  0  0  0  0  0  0  0  0  0  0
    3.8438   -0.7007   -0.2389 H   0  0  0  0  0  0  0  0  0  0  0  0
    5.1514   -2.0244   -1.8514 H   0  0  0  0  0  0  0  0  0  0  0  0
    5.6801    1.4548   -4.3172 H   0  0  0  0  0  0  0  0  0  0  0  0
    1.1552    3.0263   -3.9968 H   0  0  0  0  0  0  0  0  0  0  0  0
    1.1406    1.7992   -6.1131 H   0  0  0  0  0  0  0  0  0  0  0  0
    0.8206   -1.9195   -4.0007 H   0  0  0  0  0  0  0  0  0  0  0  0
   -0.0190    0.8421    1.2698 H   0  0  0  0  0  0  0  0  0  0  0  0
   -2.5038    1.2097    3.1927 H   0  0  0  0  0  0  0  0  0  0  0  0
   -1.6054    2.0946    5.3042 H   0  0  0  0  0  0  0  0  0  0  0  0
  1  2  1  0
  2  3  2  0
  3  4  1  0
  4  5  2  0
  5  6  1  0
  6  7  1  0
  7  8  2  0
  8  9  1  0
  9 10  2  0
 10 11  1  0
 10 12  1  0
 12 13  2  0
  6 14  1  0
 14 15  1  0
 15 16  2  0
 16 17  1  0
 17 18  1  0
 18 19  1  0
 19 20  1  0
 20 21  1  0
 21 22  1  0
 22 23  2  0
 23 24  1  0
 24 25  2  0
 25 26  1  0
 25 27  1  0
 27 28  2  0
 28 29  1  0
 19 30  1  0
 30 31  2  0
 31 32  1  0
 32 33  2  0
 33 34  1  0
 33 35  1  0
 35 36  2  0
 36 37  1  0
 17 38  2  0
  5 39  1  0
 39 40  2  0
 40  2  1  0
 13  7  1  0
 38 14  1  0
 28 22  1  0
 36 30  1  0
  3 41  1  0
  4 42  1  0
  6 43  1  0
  8 44  1  0
  9 45  1  0
 12 46  1  0
 13 47  1  0
 15 48  1  0
 16 49  1  0
 18 50  1  0
 18 51  1  0
 19 52  1  0
 21 53  1  0
 21 54  1  0
 23 55  1  0
 24 56  1  0
 27 57  1  0
 31 58  1  0
 32 59  1  0
 35 60  1  0
 38 61  1  0
 39 62  1  0
 40 63  1  0
M  CHG  1  17   1
M  END
$$$$
