
     RDKit          3D

 72 76  0  0  0  0  0  0  0  0999 V2000
   10.2009   -1.6692   -0.0105 C   0  0  0  0  0  0  0  0  0  0  0  0
    9.7329   -0.3883   -0.4137 O   0  0  0  0  0  0  0  0  0  0  0  0
    8.3809   -0.1919   -0.3951 C   0  0  0  0  0  0  0  0  0  0  0  0
    7.4312   -1.0845    0.1012 C   0  0  0  0  0  0  0  0  0  0  0  0
    6.0719   -0.7515    0.0762 C   0  0  0  0  0  0  0  0  0  0  0  0
    5.6438    0.4778   -0.4463 C   0  0  0  0  0  0  0  0  0  0  0  0
    4.2206    0.8416   -0.4428 C   0  0  0  0  0  0  0  0  0  0  0  0
    3.8759    2.0849   -0.0836 N   0  0  0  0  0  0  0  0  0  0  0  0
    2.2340    2.2385   -0.1199 S   0  0  0  0  0  0  0  0  0  0  0  0
    1.8994    0.6309   -0.5780 C   0  0  0  0  0  0  0  0  0  0  0  0
    0.5432    0.1664   -0.8158 C   0  0  0  0  0  0  0  0  0  0  0  0
    0.2788   -0.4953   -1.8248 O   0  0  0  0  0  0  0  0  0  0  0  0
   -0.4729    0.5497    0.0895 N   0  0  0  0  0  0  0  0  0  0  0  0
   -0.2034    0.6343    1.4969 C   0  0  0  0  0  0  0  0  0  0  0  0
    0.6171   -0.3141    2.1303 C   0  0  0  0  0  0  0  0  0  0  0  0
    0.8904   -0.2226    3.4993 C   0  0  0  0  0  0  0  0  0  0  0  0
    0.3529    0.8253    4.2343 C   0  0  0  0  0  0  0  0  0  0  0  0
    0.6088    0.9188    5.5468 F   0  0  0  0  0  0  0  0  0  0  0  0
   -0.4507    1.7792    3.6258 C   0  0  0  0  0  0  0  0  0  0  0  0
   -0.7268    1.6866    2.2586 C   0  0  0  0  0  0  0  0  0  0  0  0
   -1.8566    0.2118   -0.3306 C   0  0  0  0  0  0  0  0  0  0  0  0
   -2.3048   -1.2269    0.0754 C   0  0  0  0  0  0  0  0  0  0  0  0
   -1.6373   -1.9828    0.7791 O   0  0  0  0  0  0  0  0  0  0  0  0
   -3.5343   -1.6108   -0.4430 N   0  0  0  0  0  0  0  0  0  0  0  0
   -4.0944   -2.9305   -0.1953 C   0  0  0  0  0  0  0  0  0  0  0  0
   -3.5398   -3.9739   -1.1600 C   0  0  0  0  0  0  0  0  0  0  0  0
   -4.3503   -3.7788   -2.4379 C   0  0  0  0  0  0  0  0  0  0  0  0
   -5.6849   -3.1702   -2.0066 C   0  0  0  0  0  0  0  0  0  0  0  0
   -5.5895   -2.9640   -0.4959 C   0  0  0  0  0  0  0  0  0  0  0  0
   -2.8828    1.3061   -0.0319 C   0  0  0  0  0  0  0  0  0  0  0  0
   -3.8018    1.2184    1.0246 C   0  0  0  0  0  0  0  0  0  0  0  0
   -4.7230    2.2449    1.2505 C   0  0  0  0  0  0  0  0  0  0  0  0
   -4.7418    3.3807    0.4397 C   0  0  0  0  0  0  0  0  0  0  0  0
   -5.6955    4.3035    0.7697 O   0  0  0  0  0  0  0  0  0  0  0  0
   -5.6686    5.5342    0.0566 C   0  0  0  0  0  0  0  0  0  0  0  0
   -3.8272    3.4833   -0.6071 C   0  0  0  0  0  0  0  0  0  0  0  0
   -2.9042    2.4566   -0.8387 C   0  0  0  0  0  0  0  0  0  0  0  0
    3.1027   -0.0135   -0.7944 C   0  0  0  0  0  0  0  0  0  0  0  0
    3.1968   -1.2819   -1.2863 N   0  0  0  0  0  0  0  0  0  0  0  0
    6.6032    1.3683   -0.9421 C   0  0  0  0  0  0  0  0  0  0  0  0
    7.9603    1.0293   -0.9199 C   0  0  0  0  0  0  0  0  0  0  0  0
   11.2863   -1.6909   -0.1467 H   0  0  0  0  0  0  0  0  0  0  0  0
    9.7769   -2.4641   -0.6310 H   0  0  0  0  0  0  0  0  0  0  0  0
    9.9961   -1.8469    1.0514 H   0  0  0  0  0  0  0  0  0  0  0  0
    7.7121   -2.0397    0.5300 H   0  0  0  0  0  0  0  0  0  0  0  0
    5.3515   -1.4551    0.4916 H   0  0  0  0  0  0  0  0  0  0  0  0
    1.0162   -1.1632    1.5787 H   0  0  0  0  0  0  0  0  0  0  0  0
    1.5107   -0.9666    3.9896 H   0  0  0  0  0  0  0  0  0  0  0  0
   -0.8489    2.6009    4.2136 H   0  0  0  0  0  0  0  0  0  0  0  0
   -1.3186    2.4744    1.8027 H   0  0  0  0  0  0  0  0  0  0  0  0
   -1.8519    0.1559   -1.4313 H   0  0  0  0  0  0  0  0  0  0  0  0
   -3.9948   -1.0012   -1.1101 H   0  0  0  0  0  0  0  0  0  0  0  0
   -3.8912   -3.1987    0.8463 H   0  0  0  0  0  0  0  0  0  0  0  0
   -3.7286   -4.9799   -0.7640 H   0  0  0  0  0  0  0  0  0  0  0  0
   -2.4656   -3.8766   -1.3425 H   0  0  0  0  0  0  0  0  0  0  0  0
   -3.8331   -3.0869   -3.1132 H   0  0  0  0  0  0  0  0  0  0  0  0
   -4.4872   -4.7231   -2.9763 H   0  0  0  0  0  0  0  0  0  0  0  0
   -6.5295   -3.8170   -2.2650 H   0  0  0  0  0  0  0  0  0  0  0  0
   -5.8364   -2.2145   -2.5180 H   0  0  0  0  0  0  0  0  0  0  0  0
   -6.1137   -2.0589   -0.1730 H   0  0  0  0  0  0  0  0  0  0  0  0
   -6.0499   -3.8209    0.0118 H   0  0  0  0  0  0  0  0  0  0  0  0
   -3.8095    0.3586    1.6928 H   0  0  0  0  0  0  0  0  0  0  0  0
   -5.4287    2.1611    2.0741 H   0  0  0  0  0  0  0  0  0  0  0  0
   -6.4590    6.1713    0.4647 H   0  0  0  0  0  0  0  0  0  0  0  0
   -5.8831    5.3759   -1.0067 H   0  0  0  0  0  0  0  0  0  0  0  0
   -4.7126    6.0528    0.1961 H   0  0  0  0  0  0  0  0  0  0  0  0
   -3.8046    4.3452   -1.2658 H   0  0  0  0  0  0  0  0  0  0  0  0
   -2.1990    2.5608   -1.6628 H   0  0  0  0  0  0  0  0  0  0  0  0
    4.0618   -1.5715   -1.7408 H   0  0  0  0  0  0  0  0  0  0  0  0
    2.3832   -1.6770   -1.7643 H   0  0  0  0  0  0  0  0  0  0  0  0
    6.3006    2.3354   -1.3402 H   0  0  0  0  0  0  0  0  0  0  0  0
    8.6955    1.7403   -1.2940 H   0  0  0  0  0  0  0  0  0  0  0  0
  1  2  1  0
  2  3  1  0
  3  4  2  0
  4  5  1  0
  5  6  2  0
  6  7  1  0
  7  8  2  0
  8  9  1  0
  9 10  1  0
 10 11  1  0
 11 12  2  0
 11 13  1  0
 13 14  1  0
 14 15  2  0
 15 16  1  0
 16 17  2  0
 17 18  1  0
 17 19  1  0
 19 20  2  0
 13 21  1  0
 21 22  1  0
 22 23  2  0
 22 24  1  0
 24 25  1  0
 25 26  1  0
 26 27  1  0
 27 28  1  0
 28 29  1  0
 21 30  1  0
 30 31  2  0
 31 32  1  0
 32 33  2  0
 33 34  1  0
 34 35  1  0
 33 36  1  0
 36 37  2  0
 10 38  2  0
 38 39  1  0
  6 40  1  0
 40 41  2  0
 41  3  1  0
 38  7  1  0
 20 14  1  0
 29 25  1  0
 37 30  1  0
  1 42  1  0
  1 43  1  0
  1 44  1  0
  4 45  1  0
  5 46  1  0
 15 47  1  0
 16 48  1  0
 19 49  1  0
 20 50  1  0
 21 51  1  0
 24 52  1  0
 25 53  1  0
 26 54  1  0
 26 55  1  0
 27 56  1  0
 27 57  1  0
 28 58  1  0
 28 59  1  0
 29 60  1  0
 29 61  1  0
 31 62  1  0
 32 63  1  0
 35 64  1  0
 35 65  1  0
 35 66  1  0
 36 67  1  0
 37 68  1  0
 39 69  1  0
 39 70  1  0
 40 71  1  0
 41 72  1  0
M  END
$$$$
