
     RDKit          3D

 38 40  0  0  0  0  0  0  0  0999 V2000
    3.9817    1.1133    4.3647 N   0  0  0  0  0  0  0  0  0  0  0  0
    3.7249    0.8116    3.2740 C   0  0  0  0  0  0  0  0  0  0  0  0
    3.4575    0.3796    1.9465 C   0  0  0  0  0  0  0  0  0  0  0  0
    4.4412   -0.1491    1.1931 C   0  0  0  0  0  0  0  0  0  0  0  0
    4.2961   -0.5468   -0.1672 C   0  0  0  0  0  0  0  0  0  0  0  0
    3.6255    0.0563   -1.2221 C   0  0  0  0  0  0  0  0  0  0  0  0
    3.7244   -0.6781   -2.4427 C   0  0  0  0  0  0  0  0  0  0  0  0
    4.4862   -1.8041   -2.2798 C   0  0  0  0  0  0  0  0  0  0  0  0
    4.8489   -3.0436   -3.6867 Br  0  0  0  0  0  0  0  0  0  0  0  0
    5.0819   -1.9859   -0.7065 S   0  0  0  0  0  0  0  0  0  0  0  0
    2.0641    0.5553    1.4660 C   0  0  0  0  0  0  0  0  0  0  0  0
    1.5663    1.6682    1.3529 O   0  0  0  0  0  0  0  0  0  0  0  0
    1.4104   -0.6205    1.1775 N   0  0  0  0  0  0  0  0  0  0  0  0
    0.0796   -0.6269    0.5961 C   0  0  0  0  0  0  0  0  0  0  0  0
   -1.0179   -0.2908    1.6096 C   0  0  0  0  0  0  0  0  0  0  0  0
   -2.3863   -0.3945    1.0125 C   0  0  0  0  0  0  0  0  0  0  0  0
   -3.3239   -1.3756    1.2728 C   0  0  0  0  0  0  0  0  0  0  0  0
   -4.4386   -1.1146    0.5221 N   0  0  0  0  0  0  0  0  0  0  0  0
   -4.2510    0.0205   -0.2322 C   0  0  0  0  0  0  0  0  0  0  0  0
   -5.1083    0.6519   -1.1417 C   0  0  0  0  0  0  0  0  0  0  0  0
   -4.6483    1.8156   -1.7663 C   0  0  0  0  0  0  0  0  0  0  0  0
   -3.3839    2.3265   -1.4860 C   0  0  0  0  0  0  0  0  0  0  0  0
   -2.5405    1.6838   -0.5726 C   0  0  0  0  0  0  0  0  0  0  0  0
   -2.9772    0.5035    0.0657 C   0  0  0  0  0  0  0  0  0  0  0  0
    5.4272   -0.2832    1.6384 H   0  0  0  0  0  0  0  0  0  0  0  0
    3.0814    0.9915   -1.1330 H   0  0  0  0  0  0  0  0  0  0  0  0
    3.2635   -0.3825   -3.3778 H   0  0  0  0  0  0  0  0  0  0  0  0
    1.9011   -1.5036    1.2480 H   0  0  0  0  0  0  0  0  0  0  0  0
    0.0710    0.0843   -0.2372 H   0  0  0  0  0  0  0  0  0  0  0  0
   -0.0783   -1.6274    0.1766 H   0  0  0  0  0  0  0  0  0  0  0  0
   -0.9384   -0.9717    2.4667 H   0  0  0  0  0  0  0  0  0  0  0  0
   -0.8743    0.7195    2.0118 H   0  0  0  0  0  0  0  0  0  0  0  0
   -3.2940   -2.2327    1.9328 H   0  0  0  0  0  0  0  0  0  0  0  0
   -5.2818   -1.6697    0.5179 H   0  0  0  0  0  0  0  0  0  0  0  0
   -6.0956    0.2585   -1.3588 H   0  0  0  0  0  0  0  0  0  0  0  0
   -5.2896    2.3294   -2.4782 H   0  0  0  0  0  0  0  0  0  0  0  0
   -3.0462    3.2352   -1.9796 H   0  0  0  0  0  0  0  0  0  0  0  0
   -1.5592    2.0968   -0.3566 H   0  0  0  0  0  0  0  0  0  0  0  0
  1  2  3  0
  2  3  1  0
  3  4  2  3
  4  5  1  0
  5  6  2  0
  6  7  1  0
  7  8  2  0
  8  9  1  0
  8 10  1  0
  3 11  1  0
 11 12  2  0
 11 13  1  0
 13 14  1  0
 14 15  1  0
 15 16  1  0
 16 17  2  0
 17 18  1  0
 18 19  1  0
 19 20  2  0
 20 21  1  0
 21 22  2  0
 22 23  1  0
 23 24  2  0
 10  5  1  0
 24 16  1  0
 24 19  1  0
  4 25  1  0
  6 26  1  0
  7 27  1  0
 13 28  1  0
 14 29  1  0
 14 30  1  0
 15 31  1  0
 15 32  1  0
 17 33  1  0
 18 34  1  0
 20 35  1  0
 21 36  1  0
 22 37  1  0
 23 38  1  0
M  END
$$$$
