
     RDKit          3D

 45 47  0  0  0  0  0  0  0  0999 V2000
   -4.1918   -2.3092    1.5943 C   0  0  0  0  0  0  0  0  0  0  0  0
   -4.0701   -0.5862    2.1370 S   0  0  0  0  0  0  0  0  0  0  0  0
   -4.0802    0.2276    0.5432 C   0  0  0  0  0  0  0  0  0  0  0  0
   -5.1489    1.0889    0.2623 C   0  0  0  0  0  0  0  0  0  0  0  0
   -5.2268    1.7523   -0.9658 C   0  0  0  0  0  0  0  0  0  0  0  0
   -4.2349    1.5644   -1.9262 C   0  0  0  0  0  0  0  0  0  0  0  0
   -3.1587    0.7207   -1.6560 C   0  0  0  0  0  0  0  0  0  0  0  0
   -3.0701    0.0720   -0.4191 C   0  0  0  0  0  0  0  0  0  0  0  0
   -2.0104   -0.7695   -0.1933 O   0  0  0  0  0  0  0  0  0  0  0  0
   -0.7961   -0.0480    0.0956 C   0  0  0  0  0  0  0  0  0  0  0  0
   -0.3518   -0.4195    1.5168 C   0  0  0  0  0  0  0  0  0  0  0  0
    1.1672   -0.3948    1.6391 C   0  0  0  0  0  0  0  0  0  0  0  0
    1.7784   -1.3968    0.7665 N   0  0  0  0  0  0  0  0  0  0  0  0
    3.2406   -1.3436    0.6993 C   0  0  0  0  0  0  0  0  0  0  0  0
    3.8432   -0.0912    0.0972 C   0  0  0  0  0  0  0  0  0  0  0  0
    4.2477    0.9696    0.9230 C   0  0  0  0  0  0  0  0  0  0  0  0
    4.8019    2.1285    0.3766 C   0  0  0  0  0  0  0  0  0  0  0  0
    4.9624    2.2402   -1.0009 C   0  0  0  0  0  0  0  0  0  0  0  0
    4.5728    1.1933   -1.8331 C   0  0  0  0  0  0  0  0  0  0  0  0
    4.0202    0.0330   -1.2872 C   0  0  0  0  0  0  0  0  0  0  0  0
    1.0936   -1.6151   -0.5064 C   0  0  0  0  0  0  0  0  0  0  0  0
    0.2564   -0.4206   -0.9560 C   0  0  0  0  0  0  0  0  0  0  0  0
   -5.0706   -2.4473    0.9589 H   0  0  0  0  0  0  0  0  0  0  0  0
   -3.2981   -2.6206    1.0511 H   0  0  0  0  0  0  0  0  0  0  0  0
   -4.2964   -2.9512    2.4729 H   0  0  0  0  0  0  0  0  0  0  0  0
   -5.9361    1.2440    0.9962 H   0  0  0  0  0  0  0  0  0  0  0  0
   -6.0679    2.4092   -1.1721 H   0  0  0  0  0  0  0  0  0  0  0  0
   -4.3020    2.0710   -2.8853 H   0  0  0  0  0  0  0  0  0  0  0  0
   -2.3937    0.5649   -2.4103 H   0  0  0  0  0  0  0  0  0  0  0  0
   -0.9536    1.0393    0.0467 H   0  0  0  0  0  0  0  0  0  0  0  0
   -0.7921    0.2903    2.2283 H   0  0  0  0  0  0  0  0  0  0  0  0
   -0.7368   -1.4080    1.8028 H   0  0  0  0  0  0  0  0  0  0  0  0
    1.4471   -0.5990    2.6792 H   0  0  0  0  0  0  0  0  0  0  0  0
    1.5099    0.6191    1.4011 H   0  0  0  0  0  0  0  0  0  0  0  0
    3.6428   -1.4767    1.7127 H   0  0  0  0  0  0  0  0  0  0  0  0
    3.6171   -2.2164    0.1502 H   0  0  0  0  0  0  0  0  0  0  0  0
    4.1317    0.8960    2.0017 H   0  0  0  0  0  0  0  0  0  0  0  0
    5.1098    2.9426    1.0277 H   0  0  0  0  0  0  0  0  0  0  0  0
    5.3957    3.1417   -1.4265 H   0  0  0  0  0  0  0  0  0  0  0  0
    4.7010    1.2791   -2.9101 H   0  0  0  0  0  0  0  0  0  0  0  0
    3.7319   -0.7764   -1.9528 H   0  0  0  0  0  0  0  0  0  0  0  0
    1.7869   -1.9045   -1.3037 H   0  0  0  0  0  0  0  0  0  0  0  0
    0.4278   -2.4787   -0.3817 H   0  0  0  0  0  0  0  0  0  0  0  0
   -0.2187   -0.6514   -1.9162 H   0  0  0  0  0  0  0  0  0  0  0  0
    0.9198    0.4368   -1.1236 H   0  0  0  0  0  0  0  0  0  0  0  0
  1  2  1  0
  2  3  1  0
  3  4  2  0
  4  5  1  0
  5  6  2  0
  6  7  1  0
  7  8  2  0
  8  9  1  0
  9 10  1  0
 10 11  1  0
 11 12  1  0
 12 13  1  0
 13 14  1  0
 14 15  1  0
 15 16  2  0
 16 17  1  0
 17 18  2  0
 18 19  1  0
 19 20  2  0
 13 21  1  0
 21 22  1  0
  8  3  1  0
 22 10  1  0
 20 15  1  0
  1 23  1  0
  1 24  1  0
  1 25  1  0
  4 26  1  0
  5 27  1  0
  6 28  1  0
  7 29  1  0
 10 30  1  0
 11 31  1  0
 11 32  1  0
 12 33  1  0
 12 34  1  0
 14 35  1  0
 14 36  1  0
 16 37  1  0
 17 38  1  0
 18 39  1  0
 19 40  1  0
 20 41  1  0
 21 42  1  0
 21 43  1  0
 22 44  1  0
 22 45  1  0
M  END
$$$$
