
     RDKit          3D

 22 22  0  0  0  0  0  0  0  0999 V2000
    2.9925    1.1911   -0.0344 C   0  0  0  0  0  0  0  0  0  0  0  0
    1.5255    0.8877   -0.1555 C   0  0  0  0  0  0  0  0  0  0  0  0
    0.7415    1.9404   -0.5069 N   0  0  0  0  0  0  0  0  0  0  0  0
   -0.5913    1.7324   -0.5972 C   0  0  0  0  0  0  0  0  0  0  0  0
   -1.1987    0.5196   -0.3304 C   0  0  0  0  0  0  0  0  0  0  0  0
   -2.6445    0.3693   -0.5524 C   0  0  0  0  0  0  0  0  0  0  0  0
   -3.2111   -0.6176   -0.9795 O   0  0  0  0  0  0  0  0  0  0  0  0
   -3.3170    1.4911   -0.2401 O   0  0  0  0  0  0  0  0  0  0  0  0
   -0.3805   -0.5445    0.0552 C   0  0  0  0  0  0  0  0  0  0  0  0
   -0.9677   -1.8377    0.4446 C   0  0  0  0  0  0  0  0  0  0  0  0
   -0.5639   -2.9337    0.1011 O   0  0  0  0  0  0  0  0  0  0  0  0
   -1.9549   -1.6796    1.3434 O   0  0  0  0  0  0  0  0  0  0  0  0
    1.0237   -0.4040    0.0819 C   0  0  0  0  0  0  0  0  0  0  0  0
    1.8611   -1.4397    0.5526 N   0  0  0  0  0  0  0  0  0  0  0  0
    3.1882    2.2506   -0.2306 H   0  0  0  0  0  0  0  0  0  0  0  0
    3.5635    0.6049   -0.7611 H   0  0  0  0  0  0  0  0  0  0  0  0
    3.3475    0.9675    0.9765 H   0  0  0  0  0  0  0  0  0  0  0  0
   -1.1635    2.6019   -0.9115 H   0  0  0  0  0  0  0  0  0  0  0  0
   -4.2578    1.2621   -0.3999 H   0  0  0  0  0  0  0  0  0  0  0  0
   -2.2697   -2.5904    1.5232 H   0  0  0  0  0  0  0  0  0  0  0  0
    1.4598   -2.3719    0.4073 H   0  0  0  0  0  0  0  0  0  0  0  0
    2.8174   -1.3997    0.2135 H   0  0  0  0  0  0  0  0  0  0  0  0
  1  2  1  0
  2  3  2  0
  3  4  1  0
  4  5  2  0
  5  6  1  0
  6  7  2  0
  6  8  1  0
  5  9  1  0
  9 10  1  0
 10 11  2  0
 10 12  1  0
  9 13  2  0
 13 14  1  0
 13  2  1  0
  1 15  1  0
  1 16  1  0
  1 17  1  0
  4 18  1  0
  8 19  1  0
 12 20  1  0
 14 21  1  0
 14 22  1  0
M  END
$$$$
