
     RDKit          3D

 47 50  0  0  0  0  0  0  0  0999 V2000
    1.8468    2.4465    3.1203 C   0  0  0  0  0  0  0  0  0  0  0  0
    2.6607    2.2209    1.9776 O   0  0  0  0  0  0  0  0  0  0  0  0
    2.0273    1.9171    0.7976 C   0  0  0  0  0  0  0  0  0  0  0  0
    0.6384    1.8472    0.6373 C   0  0  0  0  0  0  0  0  0  0  0  0
    0.0854    1.5143   -0.6050 C   0  0  0  0  0  0  0  0  0  0  0  0
   -1.3642    1.4428   -0.7854 C   0  0  0  0  0  0  0  0  0  0  0  0
   -2.1562    0.4462   -0.3696 C   0  0  0  0  0  0  0  0  0  0  0  0
   -3.5114    0.4271   -0.5821 N   0  0  0  0  0  0  0  0  0  0  0  0
   -3.8687   -0.7035   -0.0621 C   0  0  0  0  0  0  0  0  0  0  0  0
   -5.2314   -1.2537    0.0026 C   0  0  0  0  0  0  0  0  0  0  0  0
   -6.3038   -0.4501   -0.4056 C   0  0  0  0  0  0  0  0  0  0  0  0
   -7.6088   -0.9426   -0.3482 C   0  0  0  0  0  0  0  0  0  0  0  0
   -7.8465   -2.2370    0.1131 C   0  0  0  0  0  0  0  0  0  0  0  0
   -6.7818   -3.0429    0.5170 C   0  0  0  0  0  0  0  0  0  0  0  0
   -5.4739   -2.5539    0.4641 C   0  0  0  0  0  0  0  0  0  0  0  0
   -2.9069   -1.4705    0.4984 O   0  0  0  0  0  0  0  0  0  0  0  0
   -1.7342   -0.7914    0.3533 C   0  0  0  0  0  0  0  0  0  0  0  0
   -0.6408   -1.1477    0.7417 O   0  0  0  0  0  0  0  0  0  0  0  0
    0.9271    1.2617   -1.6909 C   0  0  0  0  0  0  0  0  0  0  0  0
    2.3146    1.3290   -1.5413 C   0  0  0  0  0  0  0  0  0  0  0  0
    2.8712    1.6493   -0.3001 C   0  0  0  0  0  0  0  0  0  0  0  0
    4.2195    1.7464   -0.0554 O   0  0  0  0  0  0  0  0  0  0  0  0
    5.1298    1.0942   -0.9440 C   0  0  0  0  0  0  0  0  0  0  0  0
    5.1373   -0.3674   -0.8061 C   0  0  0  0  0  0  0  0  0  0  0  0
    4.9792   -1.2400    0.2883 C   0  0  0  0  0  0  0  0  0  0  0  0
    4.7095   -0.9113    1.7081 C   0  0  0  0  0  0  0  0  0  0  0  0
    5.1055   -2.5171   -0.0936 N   0  0  0  0  0  0  0  0  0  0  0  0
    5.3432   -2.4935   -1.4661 O   0  0  0  0  0  0  0  0  0  0  0  0
    5.3448   -1.1229   -1.8810 N   0  0  0  0  0  4  0  0  0  0  0  0
    5.5584   -0.8929   -3.0919 O   0  0  0  0  0  1  0  0  0  0  0  0
    1.2608    1.5565    3.3693 H   0  0  0  0  0  0  0  0  0  0  0  0
    2.5090    2.6548    3.9657 H   0  0  0  0  0  0  0  0  0  0  0  0
    1.2029    3.3211    2.9795 H   0  0  0  0  0  0  0  0  0  0  0  0
   -0.0329    2.0423    1.4670 H   0  0  0  0  0  0  0  0  0  0  0  0
   -1.8042    2.2771   -1.3255 H   0  0  0  0  0  0  0  0  0  0  0  0
   -6.1303    0.5619   -0.7672 H   0  0  0  0  0  0  0  0  0  0  0  0
   -8.4403   -0.3153   -0.6627 H   0  0  0  0  0  0  0  0  0  0  0  0
   -8.8643   -2.6191    0.1570 H   0  0  0  0  0  0  0  0  0  0  0  0
   -6.9708   -4.0524    0.8744 H   0  0  0  0  0  0  0  0  0  0  0  0
   -4.6587   -3.1991    0.7823 H   0  0  0  0  0  0  0  0  0  0  0  0
    0.5115    1.0079   -2.6641 H   0  0  0  0  0  0  0  0  0  0  0  0
    2.9226    1.1341   -2.4192 H   0  0  0  0  0  0  0  0  0  0  0  0
    6.1274    1.4587   -0.6643 H   0  0  0  0  0  0  0  0  0  0  0  0
    4.9819    1.4450   -1.9713 H   0  0  0  0  0  0  0  0  0  0  0  0
    3.6371   -0.7657    1.8682 H   0  0  0  0  0  0  0  0  0  0  0  0
    5.2333    0.0030    2.0054 H   0  0  0  0  0  0  0  0  0  0  0  0
    5.0451   -1.7146    2.3724 H   0  0  0  0  0  0  0  0  0  0  0  0
  1  2  1  0
  2  3  1  0
  3  4  2  0
  4  5  1  0
  5  6  1  0
  6  7  2  3
  7  8  1  0
  8  9  2  0
  9 10  1  0
 10 11  2  0
 11 12  1  0
 12 13  2  0
 13 14  1  0
 14 15  2  0
  9 16  1  0
 16 17  1  0
 17 18  2  0
  5 19  2  0
 19 20  1  0
 20 21  2  0
 21 22  1  0
 22 23  1  0
 23 24  1  0
 24 25  1  0
 25 26  1  0
 25 27  2  0
 27 28  1  0
 28 29  1  0
 29 30  1  0
 21  3  1  0
 29 24  2  0
 17  7  1  0
 15 10  1  0
  1 31  1  0
  1 32  1  0
  1 33  1  0
  4 34  1  0
  6 35  1  0
 11 36  1  0
 12 37  1  0
 13 38  1  0
 14 39  1  0
 15 40  1  0
 19 41  1  0
 20 42  1  0
 23 43  1  0
 23 44  1  0
 26 45  1  0
 26 46  1  0
 26 47  1  0
M  CHG  2  29   1  30  -1
M  END
$$$$
