
     RDKit          3D

 44 46  0  0  0  0  0  0  0  0999 V2000
    1.1285   -1.5047   -4.1045 C   0  0  0  0  0  0  0  0  0  0  0  0
    1.1569   -1.3120   -2.6885 O   0  0  0  0  0  0  0  0  0  0  0  0
    1.7051   -0.1344   -2.2924 C   0  0  0  0  0  0  0  0  0  0  0  0
    2.1468    0.7186   -3.0527 O   0  0  0  0  0  0  0  0  0  0  0  0
    1.6667    0.0422   -0.7929 C   0  0  0  0  0  0  0  0  0  0  0  0
    1.6808   -1.2670   -0.0331 C   0  0  0  0  0  0  0  0  0  0  0  0
    3.0096   -1.9665    0.1189 C   0  0  0  0  0  0  0  0  0  0  0  0
    0.6299   -1.8370    0.4739 N   0  0  0  0  0  0  0  0  0  0  0  0
   -0.5987   -1.2390    0.3244 C   0  0  0  0  0  0  0  0  0  0  0  0
   -0.7357    0.0325   -0.0684 C   0  0  0  0  0  0  0  0  0  0  0  0
   -2.0882    0.5985   -0.2297 C   0  0  0  0  0  0  0  0  0  0  0  0
   -2.2293    1.7003   -0.7571 O   0  0  0  0  0  0  0  0  0  0  0  0
   -3.1329   -0.1791    0.2188 N   0  0  0  0  0  0  0  0  0  0  0  0
   -4.4753    0.3623    0.1259 C   0  0  0  0  0  0  0  0  0  0  0  0
   -3.0030   -1.5134    0.5785 C   0  0  0  0  0  0  0  0  0  0  0  0
   -3.9875   -2.2128    0.8270 O   0  0  0  0  0  0  0  0  0  0  0  0
   -1.7051   -2.0076    0.6253 N   0  0  0  0  0  0  0  0  0  0  0  0
   -1.5089   -3.3985    1.0251 C   0  0  0  0  0  0  0  0  0  0  0  0
    0.4467    0.8951   -0.4149 C   0  0  0  0  0  0  0  0  0  0  0  0
    0.7810    1.8801    0.7081 C   0  0  0  0  0  0  0  0  0  0  0  0
    1.1377    1.4511    1.9984 C   0  0  0  0  0  0  0  0  0  0  0  0
    1.4425    2.3789    2.9982 C   0  0  0  0  0  0  0  0  0  0  0  0
    1.3915    3.7421    2.7199 C   0  0  0  0  0  0  0  0  0  0  0  0
    1.7675    4.8813    3.9528 Cl  0  0  0  0  0  0  0  0  0  0  0  0
    1.0353    4.1868    1.4504 C   0  0  0  0  0  0  0  0  0  0  0  0
    0.7304    3.2605    0.4499 C   0  0  0  0  0  0  0  0  0  0  0  0
    0.6849   -2.4840   -4.3037 H   0  0  0  0  0  0  0  0  0  0  0  0
    0.5086   -0.7389   -4.5810 H   0  0  0  0  0  0  0  0  0  0  0  0
    2.1436   -1.4939   -4.5135 H   0  0  0  0  0  0  0  0  0  0  0  0
    2.6009    0.5624   -0.5386 H   0  0  0  0  0  0  0  0  0  0  0  0
    3.7077   -1.3077    0.6422 H   0  0  0  0  0  0  0  0  0  0  0  0
    3.4114   -2.2051   -0.8693 H   0  0  0  0  0  0  0  0  0  0  0  0
    2.8960   -2.8914    0.6909 H   0  0  0  0  0  0  0  0  0  0  0  0
   -4.9113    0.0430   -0.8261 H   0  0  0  0  0  0  0  0  0  0  0  0
   -4.4681    1.4553    0.1662 H   0  0  0  0  0  0  0  0  0  0  0  0
   -5.0980   -0.0147    0.9430 H   0  0  0  0  0  0  0  0  0  0  0  0
   -0.9185   -3.4299    1.9468 H   0  0  0  0  0  0  0  0  0  0  0  0
   -2.4554   -3.9124    1.2134 H   0  0  0  0  0  0  0  0  0  0  0  0
   -0.9867   -3.9357    0.2263 H   0  0  0  0  0  0  0  0  0  0  0  0
    0.1771    1.4905   -1.2989 H   0  0  0  0  0  0  0  0  0  0  0  0
    1.1737    0.3936    2.2512 H   0  0  0  0  0  0  0  0  0  0  0  0
    1.7130    2.0313    3.9920 H   0  0  0  0  0  0  0  0  0  0  0  0
    0.9871    5.2503    1.2317 H   0  0  0  0  0  0  0  0  0  0  0  0
    0.4418    3.6292   -0.5338 H   0  0  0  0  0  0  0  0  0  0  0  0
  1  2  1  0
  2  3  1  0
  3  4  2  0
  3  5  1  0
  5  6  1  0
  6  7  1  0
  6  8  2  0
  8  9  1  0
  9 10  2  0
 10 11  1  0
 11 12  2  0
 11 13  1  0
 13 14  1  0
 13 15  1  0
 15 16  2  0
 15 17  1  0
 17 18  1  0
 10 19  1  0
 19 20  1  0
 20 21  2  0
 21 22  1  0
 22 23  2  0
 23 24  1  0
 23 25  1  0
 25 26  2  0
 19  5  1  0
 26 20  1  0
 17  9  1  0
  1 27  1  0
  1 28  1  0
  1 29  1  0
  5 30  1  0
  7 31  1  0
  7 32  1  0
  7 33  1  0
 14 34  1  0
 14 35  1  0
 14 36  1  0
 18 37  1  0
 18 38  1  0
 18 39  1  0
 19 40  1  0
 21 41  1  0
 22 42  1  0
 25 43  1  0
 26 44  1  0
M  END
$$$$
