
     RDKit          3D

 30 31  0  0  0  0  0  0  0  0999 V2000
   -3.0271   -1.7599    2.5003 C   0  0  0  0  0  0  0  0  0  0  0  0
   -3.0790   -1.8159    1.0806 O   0  0  0  0  0  0  0  0  0  0  0  0
   -1.9048   -1.6357    0.4014 C   0  0  0  0  0  0  0  0  0  0  0  0
   -0.6680   -1.3489    0.9817 C   0  0  0  0  0  0  0  0  0  0  0  0
    0.4582   -1.1782    0.1621 C   0  0  0  0  0  0  0  0  0  0  0  0
    2.0316   -0.8213    0.9194 S   0  0  0  0  0  6  0  0  0  0  0  0
    2.0508   -1.5046    2.1960 O   0  0  0  0  0  0  0  0  0  0  0  0
    3.0647   -1.0574   -0.0670 O   0  0  0  0  0  0  0  0  0  0  0  0
    1.9499    0.8241    1.2528 N   0  0  0  0  0  0  0  0  0  0  0  0
    1.6306    1.6688    0.1755 C   0  0  0  0  0  0  0  0  0  0  0  0
    2.4781    1.8820   -0.8970 C   0  0  0  0  0  0  0  0  0  0  0  0
    2.0287    2.7063   -1.9231 C   0  0  0  0  0  0  0  0  0  0  0  0
    0.7623    3.2758   -1.8327 C   0  0  0  0  0  0  0  0  0  0  0  0
   -0.0051    2.9981   -0.7116 C   0  0  0  0  0  0  0  0  0  0  0  0
    0.4035    2.2020    0.3011 N   0  0  0  0  0  0  0  0  0  0  0  0
    0.3724   -1.3191   -1.2270 C   0  0  0  0  0  0  0  0  0  0  0  0
   -0.8623   -1.6031   -1.8045 C   0  0  0  0  0  0  0  0  0  0  0  0
   -1.9853   -1.7541   -0.9925 C   0  0  0  0  0  0  0  0  0  0  0  0
   -3.1620   -2.0253   -1.5776 F   0  0  0  0  0  0  0  0  0  0  0  0
   -2.7213   -0.7663    2.8439 H   0  0  0  0  0  0  0  0  0  0  0  0
   -2.3698   -2.5377    2.9029 H   0  0  0  0  0  0  0  0  0  0  0  0
   -4.0362   -1.9474    2.8797 H   0  0  0  0  0  0  0  0  0  0  0  0
   -0.5549   -1.2523    2.0568 H   0  0  0  0  0  0  0  0  0  0  0  0
    1.3512    1.0127    2.0533 H   0  0  0  0  0  0  0  0  0  0  0  0
    3.4613    1.4262   -0.9380 H   0  0  0  0  0  0  0  0  0  0  0  0
    2.6611    2.9029   -2.7846 H   0  0  0  0  0  0  0  0  0  0  0  0
    0.3829    3.9232   -2.6163 H   0  0  0  0  0  0  0  0  0  0  0  0
   -0.9996    3.4213   -0.5974 H   0  0  0  0  0  0  0  0  0  0  0  0
    1.2509   -1.2058   -1.8583 H   0  0  0  0  0  0  0  0  0  0  0  0
   -0.9626   -1.7115   -2.8800 H   0  0  0  0  0  0  0  0  0  0  0  0
  1  2  1  0
  2  3  1  0
  3  4  2  0
  4  5  1  0
  5  6  1  0
  6  7  2  0
  6  8  2  0
  6  9  1  0
  9 10  1  0
 10 11  2  0
 11 12  1  0
 12 13  2  0
 13 14  1  0
 14 15  2  0
  5 16  2  0
 16 17  1  0
 17 18  2  0
 18 19  1  0
 18  3  1  0
 15 10  1  0
  1 20  1  0
  1 21  1  0
  1 22  1  0
  4 23  1  0
  9 24  1  0
 11 25  1  0
 12 26  1  0
 13 27  1  0
 14 28  1  0
 16 29  1  0
 17 30  1  0
M  END
$$$$
