
     RDKit          3D

 55 59  0  0  0  0  0  0  0  0999 V2000
   -1.9677    0.4491   -1.5262 C   0  0  0  0  0  0  0  0  0  0  0  0
   -2.6134    0.2424   -0.1842 C   0  0  0  0  0  0  0  0  0  0  0  0
   -3.9113   -0.2468   -0.0488 C   0  0  0  0  0  0  0  0  0  0  0  0
   -4.7579   -0.6730   -1.1747 C   0  0  0  0  0  0  0  0  0  0  0  0
   -4.3778   -1.7327   -2.0181 C   0  0  0  0  0  0  0  0  0  0  0  0
   -5.1914   -2.1352   -3.0808 C   0  0  0  0  0  0  0  0  0  0  0  0
   -6.4041   -1.4889   -3.3112 C   0  0  0  0  0  0  0  0  0  0  0  0
   -6.8010   -0.4486   -2.4743 C   0  0  0  0  0  0  0  0  0  0  0  0
   -8.3031    0.3439   -2.7537 Cl  0  0  0  0  0  0  0  0  0  0  0  0
   -5.9914   -0.0440   -1.4132 C   0  0  0  0  0  0  0  0  0  0  0  0
   -4.5195   -0.3795    1.1572 N   0  0  0  0  0  0  0  0  0  0  0  0
   -3.8600   -0.0655    2.2811 C   0  0  0  0  0  0  0  0  0  0  0  0
   -4.5195   -0.2161    3.4940 C   0  0  0  0  0  0  0  0  0  0  0  0
   -3.9042    0.0769    4.7126 C   0  0  0  0  0  0  0  0  0  0  0  0
   -2.5948    0.5329    4.7264 C   0  0  0  0  0  0  0  0  0  0  0  0
   -1.9125    0.6914    3.5216 C   0  0  0  0  0  0  0  0  0  0  0  0
   -2.5351    0.3958    2.2801 C   0  0  0  0  0  0  0  0  0  0  0  0
   -1.9241    0.5235    1.0103 C   0  0  0  0  0  0  0  0  0  0  0  0
   -0.5177    0.9615    0.9473 C   0  0  0  0  0  0  0  0  0  0  0  0
   -0.1207    2.0811    1.2158 O   0  0  0  0  0  0  0  0  0  0  0  0
    0.2435   -0.1036    0.5935 O   0  0  0  0  0  0  0  0  0  0  0  0
    1.6445    0.1812    0.5594 C   0  0  0  0  0  0  0  0  0  0  0  0
    2.0332    1.1568   -0.5578 C   0  0  0  0  0  0  0  0  0  0  0  0
    1.3468    1.2657   -1.5831 O   0  0  0  0  0  0  0  0  0  0  0  0
    3.3224    1.9357   -0.4260 C   0  0  0  0  0  0  0  0  0  0  0  0
    3.4235    2.6347    0.8585 C   0  0  0  0  0  0  0  0  0  0  0  0
    3.5231    3.2096    1.8626 N   0  0  0  0  0  0  0  0  0  0  0  0
    4.4696    0.9997   -0.6163 C   0  0  0  0  0  0  0  0  0  0  0  0
    4.6856   -0.1269    0.0353 N   0  0  0  0  0  0  0  0  0  0  0  0
    5.8510   -0.6413   -0.4790 C   0  0  0  0  0  0  0  0  0  0  0  0
    6.5382   -1.8165   -0.1459 C   0  0  0  0  0  0  0  0  0  0  0  0
    7.7210   -2.1183   -0.8331 C   0  0  0  0  0  0  0  0  0  0  0  0
    8.2070   -1.2679   -1.8294 C   0  0  0  0  0  0  0  0  0  0  0  0
    7.5331   -0.0902   -2.1743 C   0  0  0  0  0  0  0  0  0  0  0  0
    6.3576    0.1860   -1.4734 C   0  0  0  0  0  0  0  0  0  0  0  0
    5.4627    1.2227   -1.5436 N   0  0  0  0  0  0  0  0  0  0  0  0
   -2.7061    0.6126   -2.3170 H   0  0  0  0  0  0  0  0  0  0  0  0
   -1.3545   -0.4178   -1.7901 H   0  0  0  0  0  0  0  0  0  0  0  0
   -1.3430    1.3476   -1.5253 H   0  0  0  0  0  0  0  0  0  0  0  0
   -3.4426   -2.2617   -1.8417 H   0  0  0  0  0  0  0  0  0  0  0  0
   -4.8814   -2.9564   -3.7224 H   0  0  0  0  0  0  0  0  0  0  0  0
   -7.0371   -1.8044   -4.1362 H   0  0  0  0  0  0  0  0  0  0  0  0
   -6.3178    0.7626   -0.7595 H   0  0  0  0  0  0  0  0  0  0  0  0
   -5.5467   -0.5752    3.4901 H   0  0  0  0  0  0  0  0  0  0  0  0
   -4.4516   -0.0516    5.6427 H   0  0  0  0  0  0  0  0  0  0  0  0
   -2.1050    0.7690    5.6678 H   0  0  0  0  0  0  0  0  0  0  0  0
   -0.8890    1.0611    3.5599 H   0  0  0  0  0  0  0  0  0  0  0  0
    1.9602    0.5437    1.5424 H   0  0  0  0  0  0  0  0  0  0  0  0
    2.1559   -0.7673    0.3716 H   0  0  0  0  0  0  0  0  0  0  0  0
    3.3258    2.6885   -1.2253 H   0  0  0  0  0  0  0  0  0  0  0  0
    6.1574   -2.4724    0.6289 H   0  0  0  0  0  0  0  0  0  0  0  0
    8.2663   -3.0262   -0.5852 H   0  0  0  0  0  0  0  0  0  0  0  0
    9.1290   -1.5260   -2.3473 H   0  0  0  0  0  0  0  0  0  0  0  0
    7.9137    0.5682   -2.9476 H   0  0  0  0  0  0  0  0  0  0  0  0
    5.5311    2.0098   -2.1743 H   0  0  0  0  0  0  0  0  0  0  0  0
  1  2  1  0
  2  3  2  0
  3  4  1  0
  4  5  2  0
  5  6  1  0
  6  7  2  0
  7  8  1  0
  8  9  1  0
  8 10  2  0
  3 11  1  0
 11 12  2  0
 12 13  1  0
 13 14  2  0
 14 15  1  0
 15 16  2  0
 16 17  1  0
 17 18  2  0
 18 19  1  0
 19 20  2  0
 19 21  1  0
 21 22  1  0
 22 23  1  0
 23 24  2  0
 23 25  1  0
 25 26  1  0
 26 27  3  0
 25 28  1  0
 28 29  2  0
 29 30  1  0
 30 31  2  0
 31 32  1  0
 32 33  2  0
 33 34  1  0
 34 35  2  0
 35 36  1  0
 18  2  1  0
 36 28  1  0
 10  4  1  0
 17 12  1  0
 35 30  1  0
  1 37  1  0
  1 38  1  0
  1 39  1  0
  5 40  1  0
  6 41  1  0
  7 42  1  0
 10 43  1  0
 13 44  1  0
 14 45  1  0
 15 46  1  0
 16 47  1  0
 22 48  1  0
 22 49  1  0
 25 50  1  0
 31 51  1  0
 32 52  1  0
 33 53  1  0
 34 54  1  0
 36 55  1  0
M  END
$$$$
