
     RDKit          3D

 61 63  0  0  0  0  0  0  0  0999 V2000
   -3.1141   -4.3874   -1.1574 C   0  0  0  0  0  0  0  0  0  0  0  0
   -2.4078   -3.0467   -1.3048 C   0  0  0  0  0  0  0  0  0  0  0  0
   -3.2961   -1.8492   -0.9294 C   0  0  0  0  0  0  0  0  0  0  0  0
   -3.8253   -1.8678    0.4454 N   0  0  0  0  0  0  0  0  0  0  0  0
   -4.7730   -0.7617    0.6904 C   0  0  0  0  0  0  0  0  0  0  0  0
   -6.1185   -0.9690   -0.0174 C   0  0  0  0  0  0  0  0  0  0  0  0
   -7.1234    0.1006    0.3865 C   0  0  0  0  0  0  0  0  0  0  0  0
   -2.7825   -1.9098    1.4907 C   0  0  0  0  0  0  0  0  0  0  0  0
   -1.7526   -0.7612    1.5064 C   0  0  0  0  0  0  0  0  0  0  0  0
   -0.8345   -0.9401    2.6385 N   0  0  0  0  0  0  0  0  0  0  0  0
    0.0409    0.3713    3.2068 S   0  0  0  0  0  6  0  0  0  0  0  0
    0.9557   -0.1429    4.2009 O   0  0  0  0  0  0  0  0  0  0  0  0
   -0.8864    1.4419    3.4954 O   0  0  0  0  0  0  0  0  0  0  0  0
    0.9978    0.8347    1.7824 C   0  0  0  0  0  0  0  0  0  0  0  0
    2.1511    0.1007    1.4650 C   0  0  0  0  0  0  0  0  0  0  0  0
    2.9285    0.4480    0.3512 C   0  0  0  0  0  0  0  0  0  0  0  0
    2.5488    1.5317   -0.4242 C   0  0  0  0  0  0  0  0  0  0  0  0
    1.3952    2.2555   -0.0891 C   0  0  0  0  0  0  0  0  0  0  0  0
    0.6142    1.9330    1.0132 C   0  0  0  0  0  0  0  0  0  0  0  0
    1.1754    3.4043   -1.0219 C   0  0  0  0  0  0  0  0  0  0  0  0
    2.2291    3.1344   -2.0942 C   0  0  0  0  0  0  0  0  0  0  0  0
    3.1239    2.0839   -1.5835 N   0  0  0  0  0  0  0  0  0  0  0  0
    4.2766    1.7783   -2.3026 C   0  0  0  0  0  0  0  0  0  0  0  0
    4.4780    2.3481   -3.3885 O   0  0  0  0  0  0  0  0  0  0  0  0
    5.2996    0.7656   -1.7335 C   0  0  0  0  0  0  0  0  0  0  0  0
    6.6769    0.6497   -2.4567 C   0  0  0  0  0  0  0  0  0  0  0  0
    7.2411    1.6432   -1.4280 C   0  0  0  0  0  0  0  0  0  0  0  0
    6.1172    1.1952   -0.4791 C   0  0  0  0  0  0  0  0  0  0  0  0
   -4.0503   -4.4013   -1.7267 H   0  0  0  0  0  0  0  0  0  0  0  0
   -3.3442   -4.6083   -0.1092 H   0  0  0  0  0  0  0  0  0  0  0  0
   -2.4740   -5.1925   -1.5355 H   0  0  0  0  0  0  0  0  0  0  0  0
   -2.1028   -2.9293   -2.3529 H   0  0  0  0  0  0  0  0  0  0  0  0
   -1.4833   -3.0492   -0.7169 H   0  0  0  0  0  0  0  0  0  0  0  0
   -4.1277   -1.8518   -1.6427 H   0  0  0  0  0  0  0  0  0  0  0  0
   -2.7405   -0.9218   -1.1174 H   0  0  0  0  0  0  0  0  0  0  0  0
   -4.9832   -0.6962    1.7674 H   0  0  0  0  0  0  0  0  0  0  0  0
   -4.3379    0.2026    0.3941 H   0  0  0  0  0  0  0  0  0  0  0  0
   -6.5265   -1.9555    0.2347 H   0  0  0  0  0  0  0  0  0  0  0  0
   -5.9995   -0.9335   -1.1056 H   0  0  0  0  0  0  0  0  0  0  0  0
   -7.3104    0.0757    1.4652 H   0  0  0  0  0  0  0  0  0  0  0  0
   -6.7604    1.0993    0.1221 H   0  0  0  0  0  0  0  0  0  0  0  0
   -8.0766   -0.0616   -0.1265 H   0  0  0  0  0  0  0  0  0  0  0  0
   -3.2717   -1.9622    2.4750 H   0  0  0  0  0  0  0  0  0  0  0  0
   -2.2453   -2.8650    1.4205 H   0  0  0  0  0  0  0  0  0  0  0  0
   -2.2686    0.2004    1.5896 H   0  0  0  0  0  0  0  0  0  0  0  0
   -1.1680   -0.7707    0.5810 H   0  0  0  0  0  0  0  0  0  0  0  0
   -0.3607   -1.8358    2.7509 H   0  0  0  0  0  0  0  0  0  0  0  0
    2.4539   -0.7416    2.0841 H   0  0  0  0  0  0  0  0  0  0  0  0
    3.7980   -0.1571    0.1415 H   0  0  0  0  0  0  0  0  0  0  0  0
   -0.2617    2.5237    1.2669 H   0  0  0  0  0  0  0  0  0  0  0  0
    1.3719    4.3508   -0.5085 H   0  0  0  0  0  0  0  0  0  0  0  0
    0.1663    3.4139   -1.4429 H   0  0  0  0  0  0  0  0  0  0  0  0
    2.8015    4.0363   -2.3395 H   0  0  0  0  0  0  0  0  0  0  0  0
    1.7680    2.7647   -3.0189 H   0  0  0  0  0  0  0  0  0  0  0  0
    4.8482   -0.2318   -1.6651 H   0  0  0  0  0  0  0  0  0  0  0  0
    6.7191    0.9767   -3.4995 H   0  0  0  0  0  0  0  0  0  0  0  0
    7.1212   -0.3517   -2.3908 H   0  0  0  0  0  0  0  0  0  0  0  0
    8.2598    1.4469   -1.0838 H   0  0  0  0  0  0  0  0  0  0  0  0
    7.1651    2.6911   -1.7402 H   0  0  0  0  0  0  0  0  0  0  0  0
    5.6906    1.9926    0.1355 H   0  0  0  0  0  0  0  0  0  0  0  0
    6.3941    0.3579    0.1719 H   0  0  0  0  0  0  0  0  0  0  0  0
  1  2  1  0
  2  3  1  0
  3  4  1  0
  4  5  1  0
  5  6  1  0
  6  7  1  0
  4  8  1  0
  8  9  1  0
  9 10  1  0
 10 11  1  0
 11 12  2  0
 11 13  2  0
 11 14  1  0
 14 15  2  0
 15 16  1  0
 16 17  2  0
 17 18  1  0
 18 19  2  0
 18 20  1  0
 20 21  1  0
 21 22  1  0
 22 23  1  0
 23 24  2  0
 23 25  1  0
 25 26  1  0
 26 27  1  0
 27 28  1  0
 19 14  1  0
 28 25  1  0
 22 17  1  0
  1 29  1  0
  1 30  1  0
  1 31  1  0
  2 32  1  0
  2 33  1  0
  3 34  1  0
  3 35  1  0
  5 36  1  0
  5 37  1  0
  6 38  1  0
  6 39  1  0
  7 40  1  0
  7 41  1  0
  7 42  1  0
  8 43  1  0
  8 44  1  0
  9 45  1  0
  9 46  1  0
 10 47  1  0
 15 48  1  0
 16 49  1  0
 19 50  1  0
 20 51  1  0
 20 52  1  0
 21 53  1  0
 21 54  1  0
 25 55  1  0
 26 56  1  0
 26 57  1  0
 27 58  1  0
 27 59  1  0
 28 60  1  0
 28 61  1  0
M  END
$$$$
