
     RDKit          3D

 50 53  0  0  0  0  0  0  0  0999 V2000
  -10.1982    0.8556   -0.8366 C   0  0  0  0  0  0  0  0  0  0  0  0
   -8.7585    0.4273   -0.8481 C   0  0  0  0  0  0  0  0  0  0  0  0
   -8.3305   -0.5699   -1.7279 C   0  0  0  0  0  0  0  0  0  0  0  0
   -6.9867   -0.9597   -1.7723 C   0  0  0  0  0  0  0  0  0  0  0  0
   -6.0473   -0.3350   -0.9295 C   0  0  0  0  0  0  0  0  0  0  0  0
   -4.6946   -0.6194   -0.8689 N   0  0  0  0  0  0  0  0  0  0  0  0
   -4.0932    0.1480    0.0201 C   0  0  0  0  0  0  0  0  0  0  0  0
   -2.6454    0.0758    0.3152 C   0  0  0  0  0  0  0  0  0  0  0  0
   -1.8717   -0.9067   -0.3237 C   0  0  0  0  0  0  0  0  0  0  0  0
   -0.4944   -1.0288   -0.0888 C   0  0  0  0  0  0  0  0  0  0  0  0
    0.1493   -0.1666    0.7947 C   0  0  0  0  0  0  0  0  0  0  0  0
    1.5275   -0.2159    1.0891 N   0  0  0  0  0  0  0  0  0  0  0  0
    2.4645   -1.1033    0.5875 C   0  0  0  0  0  0  0  0  0  0  0  0
    2.2642   -2.0095   -0.2118 O   0  0  0  0  0  0  0  0  0  0  0  0
    3.8493   -0.8189    1.1311 C   0  0  0  0  0  0  0  0  0  0  0  0
    4.8390   -1.8865    0.6955 C   0  0  0  0  0  0  0  0  0  0  0  0
    6.4861   -1.5569    1.2729 S   0  0  0  0  0  6  0  0  0  0  0  0
    7.3450   -2.6451    0.8476 O   0  0  0  0  0  0  0  0  0  0  0  0
    6.4021   -1.1849    2.6736 O   0  0  0  0  0  0  0  0  0  0  0  0
    6.9915   -0.1183    0.3594 C   0  0  0  0  0  0  0  0  0  0  0  0
    7.2843   -0.2457   -1.0016 C   0  0  0  0  0  0  0  0  0  0  0  0
    7.6759    0.8799   -1.7253 C   0  0  0  0  0  0  0  0  0  0  0  0
    7.7826    2.1178   -1.0886 C   0  0  0  0  0  0  0  0  0  0  0  0
    7.5063    2.2345    0.2750 C   0  0  0  0  0  0  0  0  0  0  0  0
    7.1134    1.1141    1.0068 C   0  0  0  0  0  0  0  0  0  0  0  0
   -0.6077    0.8184    1.4373 C   0  0  0  0  0  0  0  0  0  0  0  0
   -1.9852    0.9388    1.2015 C   0  0  0  0  0  0  0  0  0  0  0  0
   -5.1398    1.2529    0.8289 S   0  0  0  0  0  0  0  0  0  0  0  0
   -6.4838    0.6678   -0.0673 C   0  0  0  0  0  0  0  0  0  0  0  0
   -7.8301    1.0692   -0.0131 C   0  0  0  0  0  0  0  0  0  0  0  0
  -10.4906    1.2155    0.1554 H   0  0  0  0  0  0  0  0  0  0  0  0
  -10.3553    1.6572   -1.5648 H   0  0  0  0  0  0  0  0  0  0  0  0
  -10.8572    0.0168   -1.0844 H   0  0  0  0  0  0  0  0  0  0  0  0
   -9.0409   -1.0591   -2.3917 H   0  0  0  0  0  0  0  0  0  0  0  0
   -6.6589   -1.7388   -2.4532 H   0  0  0  0  0  0  0  0  0  0  0  0
   -2.3413   -1.5994   -1.0222 H   0  0  0  0  0  0  0  0  0  0  0  0
    0.0377   -1.8128   -0.6184 H   0  0  0  0  0  0  0  0  0  0  0  0
    1.8595    0.4731    1.7529 H   0  0  0  0  0  0  0  0  0  0  0  0
    3.7953   -0.7765    2.2251 H   0  0  0  0  0  0  0  0  0  0  0  0
    4.1565    0.1679    0.7682 H   0  0  0  0  0  0  0  0  0  0  0  0
    4.8812   -1.9912   -0.3936 H   0  0  0  0  0  0  0  0  0  0  0  0
    4.5545   -2.8611    1.1086 H   0  0  0  0  0  0  0  0  0  0  0  0
    7.2227   -1.2112   -1.4994 H   0  0  0  0  0  0  0  0  0  0  0  0
    7.9085    0.7926   -2.7842 H   0  0  0  0  0  0  0  0  0  0  0  0
    8.0952    2.9924   -1.6548 H   0  0  0  0  0  0  0  0  0  0  0  0
    7.6076    3.1986    0.7680 H   0  0  0  0  0  0  0  0  0  0  0  0
    6.9149    1.2110    2.0718 H   0  0  0  0  0  0  0  0  0  0  0  0
   -0.1430    1.5119    2.1340 H   0  0  0  0  0  0  0  0  0  0  0  0
   -2.5200    1.7251    1.7282 H   0  0  0  0  0  0  0  0  0  0  0  0
   -8.1404    1.8592    0.6649 H   0  0  0  0  0  0  0  0  0  0  0  0
  1  2  1  0
  2  3  2  0
  3  4  1  0
  4  5  2  0
  5  6  1  0
  6  7  2  0
  7  8  1  0
  8  9  2  0
  9 10  1  0
 10 11  2  0
 11 12  1  0
 12 13  1  0
 13 14  2  0
 13 15  1  0
 15 16  1  0
 16 17  1  0
 17 18  2  0
 17 19  2  0
 17 20  1  0
 20 21  2  0
 21 22  1  0
 22 23  2  0
 23 24  1  0
 24 25  2  0
 11 26  1  0
 26 27  2  0
  7 28  1  0
 28 29  1  0
 29 30  2  0
 30  2  1  0
 29  5  1  0
 27  8  1  0
 25 20  1  0
  1 31  1  0
  1 32  1  0
  1 33  1  0
  3 34  1  0
  4 35  1  0
  9 36  1  0
 10 37  1  0
 12 38  1  0
 15 39  1  0
 15 40  1  0
 16 41  1  0
 16 42  1  0
 21 43  1  0
 22 44  1  0
 23 45  1  0
 24 46  1  0
 25 47  1  0
 26 48  1  0
 27 49  1  0
 30 50  1  0
M  END
$$$$
