
     RDKit          3D

 62 65  0  0  0  0  0  0  0  0999 V2000
    1.6565   -0.5180    2.7501 C   0  0  0  0  0  0  0  0  0  0  0  0
    0.2127   -0.6364    2.3270 C   0  0  0  0  0  0  0  0  0  0  0  0
   -0.5560   -1.6332    2.9587 C   0  0  0  0  0  0  0  0  0  0  0  0
   -1.8919   -1.8371    2.6198 C   0  0  0  0  0  0  0  0  0  0  0  0
   -2.6092   -2.8105    3.2557 O   0  0  0  0  0  0  0  0  0  0  0  0
   -2.5090   -1.0630    1.6396 C   0  0  0  0  0  0  0  0  0  0  0  0
   -3.9692   -1.2695    1.2643 C   0  0  0  0  0  0  0  0  0  0  0  0
   -4.1201   -1.6736   -0.2057 C   0  0  0  0  0  0  0  0  0  0  0  0
   -4.8089   -0.0269    1.5766 C   0  0  0  0  0  0  0  0  0  0  0  0
   -1.7371   -0.0727    1.0014 C   0  0  0  0  0  0  0  0  0  0  0  0
   -0.3730    0.1601    1.3063 C   0  0  0  0  0  0  0  0  0  0  0  0
    0.4359    1.2499    0.5416 C   0  0  0  0  0  0  0  0  0  0  0  0
    1.6685    0.6795   -0.2091 C   0  0  0  0  0  0  0  0  0  0  0  0
    1.5028   -0.5527   -0.8982 C   0  0  0  0  0  0  0  0  0  0  0  0
    2.5323   -1.1740   -1.6263 C   0  0  0  0  0  0  0  0  0  0  0  0
    2.2947   -2.5029   -2.3262 C   0  0  0  0  0  0  0  0  0  0  0  0
    1.9704   -3.6127   -1.3208 C   0  0  0  0  0  0  0  0  0  0  0  0
    1.1950   -2.3916   -3.3876 C   0  0  0  0  0  0  0  0  0  0  0  0
    3.7663   -0.5315   -1.6718 C   0  0  0  0  0  0  0  0  0  0  0  0
    4.7957   -1.1065   -2.3619 O   0  0  0  0  0  0  0  0  0  0  0  0
    3.9637    0.6900   -1.0280 C   0  0  0  0  0  0  0  0  0  0  0  0
    2.9279    1.3165   -0.3054 C   0  0  0  0  0  0  0  0  0  0  0  0
    3.2472    2.6428    0.3315 C   0  0  0  0  0  0  0  0  0  0  0  0
    0.7962    2.1948    1.5908 O   0  0  0  0  0  0  0  0  0  0  0  0
    0.1373    3.3816    1.4963 C   0  0  0  0  0  0  0  0  0  0  0  0
    0.1804    4.3015    2.2876 O   0  0  0  0  0  0  0  0  0  0  0  0
   -0.5650    3.3628    0.2269 C   0  0  0  0  0  0  0  0  0  0  0  0
   -1.2878    4.3872   -0.3616 C   0  0  0  0  0  0  0  0  0  0  0  0
   -1.8270    4.1540   -1.6260 C   0  0  0  0  0  0  0  0  0  0  0  0
   -1.6231    2.9215   -2.2663 C   0  0  0  0  0  0  0  0  0  0  0  0
   -0.8863    1.9065   -1.6460 C   0  0  0  0  0  0  0  0  0  0  0  0
   -0.3651    2.1378   -0.3766 C   0  0  0  0  0  0  0  0  0  0  0  0
    1.8182   -0.9867    3.7279 H   0  0  0  0  0  0  0  0  0  0  0  0
    1.9687    0.5216    2.8638 H   0  0  0  0  0  0  0  0  0  0  0  0
    2.3063   -1.0251    2.0313 H   0  0  0  0  0  0  0  0  0  0  0  0
   -0.0933   -2.2537    3.7226 H   0  0  0  0  0  0  0  0  0  0  0  0
   -2.0599   -3.1992    3.9557 H   0  0  0  0  0  0  0  0  0  0  0  0
   -4.3891   -2.0899    1.8587 H   0  0  0  0  0  0  0  0  0  0  0  0
   -3.8041   -0.8763   -0.8872 H   0  0  0  0  0  0  0  0  0  0  0  0
   -3.5204   -2.5626   -0.4302 H   0  0  0  0  0  0  0  0  0  0  0  0
   -5.1656   -1.9080   -0.4336 H   0  0  0  0  0  0  0  0  0  0  0  0
   -4.7127    0.2550    2.6312 H   0  0  0  0  0  0  0  0  0  0  0  0
   -4.5089    0.8356    0.9715 H   0  0  0  0  0  0  0  0  0  0  0  0
   -5.8688   -0.2193    1.3769 H   0  0  0  0  0  0  0  0  0  0  0  0
   -2.2367    0.5276    0.2453 H   0  0  0  0  0  0  0  0  0  0  0  0
    0.5355   -1.0540   -0.8588 H   0  0  0  0  0  0  0  0  0  0  0  0
    3.2072   -2.8095   -2.8523 H   0  0  0  0  0  0  0  0  0  0  0  0
    1.0298   -3.4266   -0.7896 H   0  0  0  0  0  0  0  0  0  0  0  0
    1.8776   -4.5778   -1.8305 H   0  0  0  0  0  0  0  0  0  0  0  0
    2.7638   -3.7049   -0.5701 H   0  0  0  0  0  0  0  0  0  0  0  0
    1.0991   -3.3327   -3.9400 H   0  0  0  0  0  0  0  0  0  0  0  0
    0.2172   -2.1661   -2.9469 H   0  0  0  0  0  0  0  0  0  0  0  0
    1.4276   -1.6007   -4.1099 H   0  0  0  0  0  0  0  0  0  0  0  0
    5.5840   -0.5465   -2.2773 H   0  0  0  0  0  0  0  0  0  0  0  0
    4.9357    1.1746   -1.0880 H   0  0  0  0  0  0  0  0  0  0  0  0
    4.2411    3.0008    0.0386 H   0  0  0  0  0  0  0  0  0  0  0  0
    2.5386    3.4084    0.0048 H   0  0  0  0  0  0  0  0  0  0  0  0
    3.2501    2.5563    1.4218 H   0  0  0  0  0  0  0  0  0  0  0  0
   -1.4179    5.3397    0.1428 H   0  0  0  0  0  0  0  0  0  0  0  0
   -2.3998    4.9332   -2.1241 H   0  0  0  0  0  0  0  0  0  0  0  0
   -2.0417    2.7557   -3.2573 H   0  0  0  0  0  0  0  0  0  0  0  0
   -0.7366    0.9577   -2.1540 H   0  0  0  0  0  0  0  0  0  0  0  0
  1  2  1  0
  2  3  2  0
  3  4  1  0
  4  5  1  0
  4  6  2  0
  6  7  1  0
  7  8  1  0
  7  9  1  0
  6 10  1  0
 10 11  2  0
 11 12  1  0
 12 13  1  0
 13 14  2  0
 14 15  1  0
 15 16  1  0
 16 17  1  0
 16 18  1  0
 15 19  2  0
 19 20  1  0
 19 21  1  0
 21 22  2  0
 22 23  1  0
 12 24  1  0
 24 25  1  0
 25 26  2  0
 25 27  1  0
 27 28  2  0
 28 29  1  0
 29 30  2  0
 30 31  1  0
 31 32  2  0
 11  2  1  0
 32 12  1  0
 22 13  1  0
 32 27  1  0
  1 33  1  0
  1 34  1  0
  1 35  1  0
  3 36  1  0
  5 37  1  0
  7 38  1  0
  8 39  1  0
  8 40  1  0
  8 41  1  0
  9 42  1  0
  9 43  1  0
  9 44  1  0
 10 45  1  0
 14 46  1  0
 16 47  1  0
 17 48  1  0
 17 49  1  0
 17 50  1  0
 18 51  1  0
 18 52  1  0
 18 53  1  0
 20 54  1  0
 21 55  1  0
 23 56  1  0
 23 57  1  0
 23 58  1  0
 28 59  1  0
 29 60  1  0
 30 61  1  0
 31 62  1  0
M  END
$$$$
