
     RDKit          3D

 46 48  0  0  0  0  0  0  0  0999 V2000
   -5.4277   -3.1130    0.1745 C   0  0  0  0  0  0  0  0  0  0  0  0
   -5.3741   -1.5922    0.1881 C   0  0  0  0  0  0  0  0  0  0  0  0
   -5.0057   -1.0696    1.5753 C   0  0  0  0  0  0  0  0  0  0  0  0
   -4.9683    0.7564    1.6210 S   0  0  0  0  0  0  0  0  0  0  0  0
   -3.4214    1.1190    0.7945 C   0  0  0  0  0  0  0  0  0  0  0  0
   -2.5651    0.0814    0.6293 N   0  0  0  0  0  0  0  0  0  0  0  0
   -1.3658    0.2934    0.0193 C   0  0  0  0  0  0  0  0  0  0  0  0
   -0.4947   -0.9232   -0.1072 C   0  0  0  0  0  0  0  0  0  0  0  0
   -0.9756    1.5506   -0.4484 C   0  0  0  0  0  0  0  0  0  0  0  0
    0.3049    1.7856   -1.0975 C   0  0  0  0  0  0  0  0  0  0  0  0
    0.4385    2.4715   -2.2851 C   0  0  0  0  0  0  0  0  0  0  0  0
    2.0878    2.5654   -2.7219 S   0  0  0  0  0  0  0  0  0  0  0  0
    2.5344    1.6896   -1.2832 C   0  0  0  0  0  0  0  0  0  0  0  0
    3.9183    1.4176   -1.0036 C   0  0  0  0  0  0  0  0  0  0  0  0
    4.9087    2.3957   -1.3404 C   0  0  0  0  0  0  0  0  0  0  0  0
    5.7197    3.1804   -1.6136 N   0  0  0  0  0  0  0  0  0  0  0  0
    4.2907    0.2617   -0.4052 C   0  0  0  0  0  0  0  0  0  0  0  0
    5.7188   -0.0996   -0.0482 C   0  0  0  0  0  0  0  0  0  0  0  0
    5.5778   -1.3449    0.8175 C   0  0  0  0  0  0  0  0  0  0  0  0
    4.3452   -2.0326    0.2587 C   0  0  0  0  0  0  0  0  0  0  0  0
    3.3839   -0.8819   -0.0091 C   0  0  0  0  0  0  0  0  0  0  0  0
    1.4905    1.3308   -0.5509 N   0  0  0  0  0  0  0  0  0  0  0  0
   -1.8692    2.6128   -0.2631 C   0  0  0  0  0  0  0  0  0  0  0  0
   -3.1042    2.4040    0.3649 C   0  0  0  0  0  0  0  0  0  0  0  0
   -3.9872    3.5170    0.5350 C   0  0  0  0  0  0  0  0  0  0  0  0
   -4.6673    4.4517    0.6403 N   0  0  0  0  0  0  0  0  0  0  0  0
   -6.1725   -3.4862    0.8846 H   0  0  0  0  0  0  0  0  0  0  0  0
   -4.4553   -3.5414    0.4379 H   0  0  0  0  0  0  0  0  0  0  0  0
   -5.6987   -3.4735   -0.8228 H   0  0  0  0  0  0  0  0  0  0  0  0
   -6.3536   -1.2028   -0.1149 H   0  0  0  0  0  0  0  0  0  0  0  0
   -4.6470   -1.2634   -0.5626 H   0  0  0  0  0  0  0  0  0  0  0  0
   -5.7706   -1.3861    2.2934 H   0  0  0  0  0  0  0  0  0  0  0  0
   -4.0564   -1.4855    1.9280 H   0  0  0  0  0  0  0  0  0  0  0  0
   -1.0629   -1.8290    0.1315 H   0  0  0  0  0  0  0  0  0  0  0  0
    0.3426   -0.8620    0.5931 H   0  0  0  0  0  0  0  0  0  0  0  0
   -0.1193   -1.0347   -1.1289 H   0  0  0  0  0  0  0  0  0  0  0  0
   -0.3268    2.9109   -2.9096 H   0  0  0  0  0  0  0  0  0  0  0  0
    6.2367    0.6938    0.4991 H   0  0  0  0  0  0  0  0  0  0  0  0
    6.2795   -0.3388   -0.9592 H   0  0  0  0  0  0  0  0  0  0  0  0
    6.4662   -1.9818    0.7732 H   0  0  0  0  0  0  0  0  0  0  0  0
    5.4136   -1.0639    1.8652 H   0  0  0  0  0  0  0  0  0  0  0  0
    4.5903   -2.5511   -0.6765 H   0  0  0  0  0  0  0  0  0  0  0  0
    3.9271   -2.7667    0.9538 H   0  0  0  0  0  0  0  0  0  0  0  0
    2.8466   -0.6274    0.9113 H   0  0  0  0  0  0  0  0  0  0  0  0
    2.6689   -1.1545   -0.7905 H   0  0  0  0  0  0  0  0  0  0  0  0
   -1.6011    3.6166   -0.5915 H   0  0  0  0  0  0  0  0  0  0  0  0
  1  2  1  0
  2  3  1  0
  3  4  1  0
  4  5  1  0
  5  6  2  0
  6  7  1  0
  7  8  1  0
  7  9  2  0
  9 10  1  0
 10 11  2  0
 11 12  1  0
 12 13  1  0
 13 14  1  0
 14 15  1  0
 15 16  3  0
 14 17  2  3
 17 18  1  0
 18 19  1  0
 19 20  1  0
 20 21  1  0
 13 22  2  0
  9 23  1  0
 23 24  2  0
 24 25  1  0
 25 26  3  0
 24  5  1  0
 22 10  1  0
 21 17  1  0
  1 27  1  0
  1 28  1  0
  1 29  1  0
  2 30  1  0
  2 31  1  0
  3 32  1  0
  3 33  1  0
  8 34  1  0
  8 35  1  0
  8 36  1  0
 11 37  1  0
 18 38  1  0
 18 39  1  0
 19 40  1  0
 19 41  1  0
 20 42  1  0
 20 43  1  0
 21 44  1  0
 21 45  1  0
 23 46  1  0
M  END
$$$$
