
     RDKit          3D

 40 41  0  0  0  0  0  0  0  0999 V2000
   -2.6638    0.1301   -3.3748 O   0  0  0  0  0  0  0  0  0  0  0  0
   -1.9795    0.1909   -2.3579 C   0  0  0  0  0  0  0  0  0  0  0  0
   -0.4503    0.2146   -2.4449 C   0  0  0  0  0  0  0  0  0  0  0  0
    0.1420    0.3364   -1.1480 O   0  0  0  0  0  0  0  0  0  0  0  0
    1.5044    0.3248   -1.1587 C   0  0  0  0  0  0  0  0  0  0  0  0
    2.1908    0.2356   -2.1651 O   0  0  0  0  0  0  0  0  0  0  0  0
    2.0189    0.4662    0.2558 C   0  0  0  0  0  0  0  0  0  0  0  0
    3.5163    0.1895    0.3687 C   0  0  0  0  0  0  0  0  0  0  0  0
    3.8882   -1.2824    0.1884 C   0  0  0  0  0  0  0  0  0  0  0  0
    5.2800   -1.3961    0.8033 C   0  0  0  0  0  0  0  0  0  0  0  0
    5.3991   -0.2450    1.8023 C   0  0  0  0  0  0  0  0  0  0  0  0
    4.0610    0.4843    1.7651 C   0  0  0  0  0  0  0  0  0  0  0  0
   -2.4457    0.2428   -1.0559 N   0  0  0  0  0  0  0  0  0  0  0  0
   -3.7793    0.2210   -0.5767 C   0  0  0  0  0  0  0  0  0  0  0  0
   -4.8663    0.1110   -1.4555 C   0  0  0  0  0  0  0  0  0  0  0  0
   -6.1855    0.0847   -0.9865 C   0  0  0  0  0  0  0  0  0  0  0  0
   -6.4519    0.1684    0.3748 C   0  0  0  0  0  0  0  0  0  0  0  0
   -5.3965    0.2806    1.2751 C   0  0  0  0  0  0  0  0  0  0  0  0
   -4.0671    0.3080    0.8069 C   0  0  0  0  0  0  0  0  0  0  0  0
   -3.0031    0.4407    1.8167 N   0  0  0  0  0  4  0  0  0  0  0  0
   -1.8279    0.2563    1.4614 O   0  0  0  0  0  0  0  0  0  0  0  0
   -3.3359    0.7327    2.9743 O   0  0  0  0  0  1  0  0  0  0  0  0
   -0.1313   -0.7236   -2.9124 H   0  0  0  0  0  0  0  0  0  0  0  0
   -0.1655    1.0751   -3.0603 H   0  0  0  0  0  0  0  0  0  0  0  0
    1.4599   -0.2220    0.9008 H   0  0  0  0  0  0  0  0  0  0  0  0
    1.8080    1.4922    0.5787 H   0  0  0  0  0  0  0  0  0  0  0  0
    4.0673    0.7932   -0.3652 H   0  0  0  0  0  0  0  0  0  0  0  0
    3.1910   -1.9309    0.7333 H   0  0  0  0  0  0  0  0  0  0  0  0
    3.8829   -1.5932   -0.8607 H   0  0  0  0  0  0  0  0  0  0  0  0
    5.4223   -2.3690    1.2848 H   0  0  0  0  0  0  0  0  0  0  0  0
    6.0498   -1.2974    0.0294 H   0  0  0  0  0  0  0  0  0  0  0  0
    5.6327   -0.6012    2.8106 H   0  0  0  0  0  0  0  0  0  0  0  0
    6.2081    0.4284    1.4962 H   0  0  0  0  0  0  0  0  0  0  0  0
    3.3960    0.0778    2.5372 H   0  0  0  0  0  0  0  0  0  0  0  0
    4.1742    1.5570    1.9503 H   0  0  0  0  0  0  0  0  0  0  0  0
   -1.7067    0.2887   -0.3488 H   0  0  0  0  0  0  0  0  0  0  0  0
   -4.7278    0.0390   -2.5307 H   0  0  0  0  0  0  0  0  0  0  0  0
   -7.0053   -0.0024   -1.6973 H   0  0  0  0  0  0  0  0  0  0  0  0
   -7.4788    0.1475    0.7325 H   0  0  0  0  0  0  0  0  0  0  0  0
   -5.6249    0.3460    2.3377 H   0  0  0  0  0  0  0  0  0  0  0  0
  1  2  2  0
  2  3  1  0
  3  4  1  0
  4  5  1  0
  5  6  2  0
  5  7  1  0
  7  8  1  0
  8  9  1  0
  9 10  1  0
 10 11  1  0
 11 12  1  0
  2 13  1  0
 13 14  1  0
 14 15  2  0
 15 16  1  0
 16 17  2  0
 17 18  1  0
 18 19  2  0
 19 20  1  0
 20 21  2  0
 20 22  1  0
 12  8  1  0
 19 14  1  0
  3 23  1  0
  3 24  1  0
  7 25  1  0
  7 26  1  0
  8 27  1  0
  9 28  1  0
  9 29  1  0
 10 30  1  0
 10 31  1  0
 11 32  1  0
 11 33  1  0
 12 34  1  0
 12 35  1  0
 13 36  1  0
 15 37  1  0
 16 38  1  0
 17 39  1  0
 18 40  1  0
M  CHG  2  20   1  22  -1
M  END
$$$$
