
     RDKit          3D

 44 46  0  0  0  0  0  0  0  0999 V2000
    6.9246    0.3376   -0.7194 C   0  0  0  0  0  0  0  0  0  0  0  0
    5.7770   -0.2723   -0.1455 O   0  0  0  0  0  0  0  0  0  0  0  0
    4.6905    0.6286    0.0478 C   0  0  0  0  0  0  0  0  0  0  0  0
    3.8832    0.8389   -1.2294 C   0  0  0  0  0  0  0  0  0  0  0  0
    3.2395   -0.4464   -1.7752 C   0  0  0  0  0  0  0  0  0  0  0  0
    2.1350   -0.9562   -0.9414 N   0  0  0  0  0  0  0  0  0  0  0  0
    2.2366   -2.1445   -0.2167 C   0  0  0  0  0  0  0  0  0  0  0  0
    3.5348   -3.2044   -0.1569 S   0  0  0  0  0  0  0  0  0  0  0  0
    1.1504   -2.5044    0.5357 N   0  0  0  0  0  0  0  0  0  0  0  0
   -0.0367   -1.7835    0.5912 C   0  0  0  0  0  0  0  0  0  0  0  0
   -1.0868   -2.2224    1.3864 C   0  0  0  0  0  0  0  0  0  0  0  0
   -2.2797   -1.4877    1.4239 C   0  0  0  0  0  0  0  0  0  0  0  0
   -2.4602   -0.3103    0.6760 C   0  0  0  0  0  0  0  0  0  0  0  0
   -3.6414    0.4064    0.7245 N   0  0  0  0  0  0  0  0  0  0  0  0
   -3.7351    1.7995    0.2534 C   0  0  0  0  0  0  0  0  0  0  0  0
   -4.9162    2.5085    0.9380 C   0  0  0  0  0  0  0  0  0  0  0  0
   -6.1889    1.8894    0.7040 O   0  0  0  0  0  0  0  0  0  0  0  0
   -6.0956    0.4825    0.4447 C   0  0  0  0  0  0  0  0  0  0  0  0
   -4.9128   -0.2067    1.1467 C   0  0  0  0  0  0  0  0  0  0  0  0
   -1.3741    0.1004   -0.1130 C   0  0  0  0  0  0  0  0  0  0  0  0
   -0.1759   -0.6293   -0.1541 C   0  0  0  0  0  0  0  0  0  0  0  0
    0.9557   -0.1905   -0.9895 C   0  0  0  0  0  0  0  0  0  0  0  0
    0.8168    0.8143   -1.6860 O   0  0  0  0  0  0  0  0  0  0  0  0
    6.7119    0.7061   -1.7262 H   0  0  0  0  0  0  0  0  0  0  0  0
    7.2836    1.1543   -0.0859 H   0  0  0  0  0  0  0  0  0  0  0  0
    7.7126   -0.4171   -0.7899 H   0  0  0  0  0  0  0  0  0  0  0  0
    4.0488    0.2046    0.8272 H   0  0  0  0  0  0  0  0  0  0  0  0
    5.0596    1.5873    0.4314 H   0  0  0  0  0  0  0  0  0  0  0  0
    4.5373    1.2393   -2.0120 H   0  0  0  0  0  0  0  0  0  0  0  0
    3.1222    1.6024   -1.0371 H   0  0  0  0  0  0  0  0  0  0  0  0
    2.8192   -0.2215   -2.7644 H   0  0  0  0  0  0  0  0  0  0  0  0
    4.0065   -1.2051   -1.9466 H   0  0  0  0  0  0  0  0  0  0  0  0
    1.2418   -3.3629    1.0678 H   0  0  0  0  0  0  0  0  0  0  0  0
   -0.9995   -3.1236    1.9865 H   0  0  0  0  0  0  0  0  0  0  0  0
   -3.0689   -1.8488    2.0788 H   0  0  0  0  0  0  0  0  0  0  0  0
   -3.8776    1.8007   -0.8335 H   0  0  0  0  0  0  0  0  0  0  0  0
   -2.8238    2.3594    0.4929 H   0  0  0  0  0  0  0  0  0  0  0  0
   -4.9860    3.5441    0.5903 H   0  0  0  0  0  0  0  0  0  0  0  0
   -4.7606    2.5388    2.0230 H   0  0  0  0  0  0  0  0  0  0  0  0
   -6.0212    0.3501   -0.6413 H   0  0  0  0  0  0  0  0  0  0  0  0
   -7.0385    0.0269    0.7637 H   0  0  0  0  0  0  0  0  0  0  0  0
   -5.0110   -0.1014    2.2333 H   0  0  0  0  0  0  0  0  0  0  0  0
   -4.9476   -1.2716    0.8902 H   0  0  0  0  0  0  0  0  0  0  0  0
   -1.4490    0.9908   -0.7322 H   0  0  0  0  0  0  0  0  0  0  0  0
  1  2  1  0
  2  3  1  0
  3  4  1  0
  4  5  1  0
  5  6  1  0
  6  7  1  0
  7  8  2  0
  7  9  1  0
  9 10  1  0
 10 11  2  0
 11 12  1  0
 12 13  2  0
 13 14  1  0
 14 15  1  0
 15 16  1  0
 16 17  1  0
 17 18  1  0
 18 19  1  0
 13 20  1  0
 20 21  2  0
 21 22  1  0
 22 23  2  0
 22  6  1  0
 21 10  1  0
 19 14  1  0
  1 24  1  0
  1 25  1  0
  1 26  1  0
  3 27  1  0
  3 28  1  0
  4 29  1  0
  4 30  1  0
  5 31  1  0
  5 32  1  0
  9 33  1  0
 11 34  1  0
 12 35  1  0
 15 36  1  0
 15 37  1  0
 16 38  1  0
 16 39  1  0
 18 40  1  0
 18 41  1  0
 19 42  1  0
 19 43  1  0
 20 44  1  0
M  END
$$$$
