
     RDKit          3D

 55 58  0  0  0  0  0  0  0  0999 V2000
   -4.1784    2.4273   -1.7773 C   0  0  0  0  0  0  0  0  0  0  0  0
   -4.6931    1.9442   -0.4287 C   0  0  0  0  0  0  0  0  0  0  0  0
   -5.0241    0.5151   -0.4722 N   0  0  0  0  0  0  0  0  0  0  0  0
   -6.2815    0.0334   -0.7997 C   0  0  0  0  0  0  0  0  0  0  0  0
   -6.6359   -1.2596   -0.8995 C   0  0  0  0  0  0  0  0  0  0  0  0
   -8.0100   -1.6585   -1.2612 C   0  0  0  0  0  0  0  0  0  0  0  0
   -8.4234   -2.7857   -1.4573 O   0  0  0  0  0  0  0  0  0  0  0  0
   -8.8565   -0.6140   -1.3749 O   0  0  0  0  0  0  0  0  0  0  0  0
   -5.5619   -2.2542   -0.6353 C   0  0  0  0  0  0  0  0  0  0  0  0
   -5.7460   -3.4651   -0.6631 O   0  0  0  0  0  0  0  0  0  0  0  0
   -4.2177   -1.7448   -0.3254 C   0  0  0  0  0  0  0  0  0  0  0  0
   -3.1587   -2.5864   -0.1011 C   0  0  0  0  0  0  0  0  0  0  0  0
   -1.9162   -2.1446    0.1779 N   0  0  0  0  0  0  0  0  0  0  0  0
   -1.7260   -0.8175    0.2396 C   0  0  0  0  0  0  0  0  0  0  0  0
   -0.4598   -0.3407    0.5006 N   0  0  0  0  0  0  0  0  0  0  0  0
    0.5813   -1.2973    0.8613 C   0  0  0  0  0  0  0  0  0  0  0  0
    1.9675   -0.6336    0.7682 C   0  0  0  0  0  0  0  0  0  0  0  0
    2.0960    0.6003    1.5712 N   0  0  0  0  0  0  0  0  0  0  0  0
    3.3293    1.0121    2.1238 C   0  0  0  0  0  0  0  0  0  0  0  0
    3.4548    2.0109    3.4660 S   0  0  0  0  0  0  0  0  0  0  0  0
    4.4219    0.5015    1.4119 N   0  0  0  0  0  0  0  0  0  0  0  0
    5.7888    0.5864    1.6799 C   0  0  0  0  0  0  0  0  0  0  0  0
    6.3079    0.8320    2.7606 O   0  0  0  0  0  0  0  0  0  0  0  0
    6.6750    0.2855    0.5225 C   0  0  0  0  0  0  0  0  0  0  0  0
    7.8593    1.0201    0.3877 C   0  0  0  0  0  0  0  0  0  0  0  0
    8.7159    0.7744   -0.6860 C   0  0  0  0  0  0  0  0  0  0  0  0
    8.3978   -0.2117   -1.6197 C   0  0  0  0  0  0  0  0  0  0  0  0
    7.2288   -0.9605   -1.4784 C   0  0  0  0  0  0  0  0  0  0  0  0
    6.3671   -0.7181   -0.4061 C   0  0  0  0  0  0  0  0  0  0  0  0
    0.8118    1.2058    1.9852 C   0  0  0  0  0  0  0  0  0  0  0  0
   -0.3114    1.0475    0.9414 C   0  0  0  0  0  0  0  0  0  0  0  0
   -2.7187    0.0648    0.0289 N   0  0  0  0  0  0  0  0  0  0  0  0
   -3.9593   -0.3904   -0.2506 C   0  0  0  0  0  0  0  0  0  0  0  0
   -3.9665    3.5003   -1.7386 H   0  0  0  0  0  0  0  0  0  0  0  0
   -4.9187    2.2547   -2.5657 H   0  0  0  0  0  0  0  0  0  0  0  0
   -3.2575    1.9105   -2.0650 H   0  0  0  0  0  0  0  0  0  0  0  0
   -3.9673    2.1712    0.3619 H   0  0  0  0  0  0  0  0  0  0  0  0
   -5.5911    2.5198   -0.1698 H   0  0  0  0  0  0  0  0  0  0  0  0
   -7.0013    0.8289   -0.9818 H   0  0  0  0  0  0  0  0  0  0  0  0
   -9.7072   -1.0445   -1.6090 H   0  0  0  0  0  0  0  0  0  0  0  0
   -3.2700   -3.6667   -0.1404 H   0  0  0  0  0  0  0  0  0  0  0  0
    0.4128   -1.6635    1.8821 H   0  0  0  0  0  0  0  0  0  0  0  0
    0.5830   -2.1611    0.1853 H   0  0  0  0  0  0  0  0  0  0  0  0
    2.1676   -0.3483   -0.2719 H   0  0  0  0  0  0  0  0  0  0  0  0
    2.7336   -1.3535    1.0762 H   0  0  0  0  0  0  0  0  0  0  0  0
    4.1949    0.3358    0.4450 H   0  0  0  0  0  0  0  0  0  0  0  0
    8.1150    1.7841    1.1202 H   0  0  0  0  0  0  0  0  0  0  0  0
    9.6343    1.3478   -0.7892 H   0  0  0  0  0  0  0  0  0  0  0  0
    9.0710   -0.4063   -2.4519 H   0  0  0  0  0  0  0  0  0  0  0  0
    6.9988   -1.7431   -2.1979 H   0  0  0  0  0  0  0  0  0  0  0  0
    5.4854   -1.3419   -0.2923 H   0  0  0  0  0  0  0  0  0  0  0  0
    0.9491    2.2724    2.1891 H   0  0  0  0  0  0  0  0  0  0  0  0
    0.5173    0.7172    2.9227 H   0  0  0  0  0  0  0  0  0  0  0  0
   -1.2298    1.4456    1.3900 H   0  0  0  0  0  0  0  0  0  0  0  0
   -0.0780    1.6618    0.0634 H   0  0  0  0  0  0  0  0  0  0  0  0
  1  2  1  0
  2  3  1  0
  3  4  1  0
  4  5  2  0
  5  6  1  0
  6  7  2  0
  6  8  1  0
  5  9  1  0
  9 10  2  0
  9 11  1  0
 11 12  2  0
 12 13  1  0
 13 14  2  0
 14 15  1  0
 15 16  1  0
 16 17  1  0
 17 18  1  0
 18 19  1  0
 19 20  2  0
 19 21  1  0
 21 22  1  0
 22 23  2  0
 22 24  1  0
 24 25  2  0
 25 26  1  0
 26 27  2  0
 27 28  1  0
 28 29  2  0
 18 30  1  0
 30 31  1  0
 14 32  1  0
 32 33  2  0
 33  3  1  0
 33 11  1  0
 31 15  1  0
 29 24  1  0
  1 34  1  0
  1 35  1  0
  1 36  1  0
  2 37  1  0
  2 38  1  0
  4 39  1  0
  8 40  1  0
 12 41  1  0
 16 42  1  0
 16 43  1  0
 17 44  1  0
 17 45  1  0
 21 46  1  0
 25 47  1  0
 26 48  1  0
 27 49  1  0
 28 50  1  0
 29 51  1  0
 30 52  1  0
 30 53  1  0
 31 54  1  0
 31 55  1  0
M  END
$$$$
