
     RDKit          3D

 45 46  0  0  0  0  0  0  0  0999 V2000
    5.6275   -0.3597    0.2590 C   0  0  0  0  0  0  0  0  0  0  0  0
    4.4899   -1.2329   -0.1840 C   0  0  0  0  0  0  0  0  0  0  0  0
    4.7235   -2.3349   -1.0121 C   0  0  0  0  0  0  0  0  0  0  0  0
    3.6581   -3.1172   -1.4512 C   0  0  0  0  0  0  0  0  0  0  0  0
    2.3521   -2.8002   -1.0699 C   0  0  0  0  0  0  0  0  0  0  0  0
    2.0985   -1.7080   -0.2317 C   0  0  0  0  0  0  0  0  0  0  0  0
    0.7489   -1.4316    0.0743 N   0  0  0  0  0  0  0  0  0  0  0  0
    0.1649   -0.7114    1.1135 C   0  0  0  0  0  0  0  0  0  0  0  0
    0.8949   -0.3800    2.5911 S   0  0  0  0  0  0  0  0  0  0  0  0
   -1.1807   -0.3821    0.8011 N   0  0  0  0  0  0  0  0  0  0  0  0
   -1.5000    0.1294   -0.5564 C   0  0  0  0  0  0  0  0  0  0  0  0
   -1.6565    1.6698   -0.6549 C   0  0  0  0  0  0  0  0  0  0  0  0
   -0.5338    2.4558   -0.1112 N   0  0  0  0  0  0  0  0  0  0  0  0
    0.6721    2.3328   -0.9323 C   0  0  0  0  0  0  0  0  0  0  0  0
   -0.9080    3.8658    0.0131 C   0  0  0  0  0  0  0  0  0  0  0  0
   -2.1334   -0.0542    1.8785 C   0  0  0  0  0  0  0  0  0  0  0  0
   -3.5308   -0.4975    1.5431 C   0  0  0  0  0  0  0  0  0  0  0  0
   -4.6532    0.2852    1.3421 C   0  0  0  0  0  0  0  0  0  0  0  0
   -5.8153   -0.4899    1.0584 C   0  0  0  0  0  0  0  0  0  0  0  0
   -5.5470   -1.8394    1.0623 C   0  0  0  0  0  0  0  0  0  0  0  0
   -3.9059   -2.1675    1.4126 S   0  0  0  0  0  0  0  0  0  0  0  0
    3.1710   -0.9141    0.1804 C   0  0  0  0  0  0  0  0  0  0  0  0
    5.8007    0.4321   -0.4754 H   0  0  0  0  0  0  0  0  0  0  0  0
    6.5470   -0.9442    0.3759 H   0  0  0  0  0  0  0  0  0  0  0  0
    5.4121    0.0997    1.2305 H   0  0  0  0  0  0  0  0  0  0  0  0
    5.7368   -2.5878   -1.3176 H   0  0  0  0  0  0  0  0  0  0  0  0
    3.8443   -3.9758   -2.0902 H   0  0  0  0  0  0  0  0  0  0  0  0
    1.5395   -3.4295   -1.4225 H   0  0  0  0  0  0  0  0  0  0  0  0
    0.0692   -1.9960   -0.4190 H   0  0  0  0  0  0  0  0  0  0  0  0
   -0.7370   -0.1803   -1.2773 H   0  0  0  0  0  0  0  0  0  0  0  0
   -2.4293   -0.3490   -0.8872 H   0  0  0  0  0  0  0  0  0  0  0  0
   -1.8418    1.9380   -1.7031 H   0  0  0  0  0  0  0  0  0  0  0  0
   -2.5695    1.9402   -0.1089 H   0  0  0  0  0  0  0  0  0  0  0  0
    0.5155    2.7055   -1.9506 H   0  0  0  0  0  0  0  0  0  0  0  0
    1.0138    1.2966   -0.9960 H   0  0  0  0  0  0  0  0  0  0  0  0
    1.4962    2.8979   -0.4822 H   0  0  0  0  0  0  0  0  0  0  0  0
   -0.0867    4.4482    0.4464 H   0  0  0  0  0  0  0  0  0  0  0  0
   -1.1744    4.3083   -0.9535 H   0  0  0  0  0  0  0  0  0  0  0  0
   -1.7610    3.9806    0.6922 H   0  0  0  0  0  0  0  0  0  0  0  0
   -2.0931    1.0251    2.0601 H   0  0  0  0  0  0  0  0  0  0  0  0
   -1.8444   -0.5491    2.8132 H   0  0  0  0  0  0  0  0  0  0  0  0
   -4.6415    1.3672    1.4020 H   0  0  0  0  0  0  0  0  0  0  0  0
   -6.7991   -0.0770    0.8700 H   0  0  0  0  0  0  0  0  0  0  0  0
   -6.2376   -2.6520    0.8840 H   0  0  0  0  0  0  0  0  0  0  0  0
    3.0033   -0.0172    0.7683 H   0  0  0  0  0  0  0  0  0  0  0  0
  1  2  1  0
  2  3  2  0
  3  4  1  0
  4  5  2  0
  5  6  1  0
  6  7  1  0
  7  8  1  0
  8  9  2  0
  8 10  1  0
 10 11  1  0
 11 12  1  0
 12 13  1  0
 13 14  1  0
 13 15  1  0
 10 16  1  0
 16 17  1  0
 17 18  2  0
 18 19  1  0
 19 20  2  0
 20 21  1  0
  6 22  2  0
 22  2  1  0
 21 17  1  0
  1 23  1  0
  1 24  1  0
  1 25  1  0
  3 26  1  0
  4 27  1  0
  5 28  1  0
  7 29  1  0
 11 30  1  0
 11 31  1  0
 12 32  1  0
 12 33  1  0
 14 34  1  0
 14 35  1  0
 14 36  1  0
 15 37  1  0
 15 38  1  0
 15 39  1  0
 16 40  1  0
 16 41  1  0
 18 42  1  0
 19 43  1  0
 20 44  1  0
 22 45  1  0
M  END
$$$$
