
     RDKit          3D

 32 33  0  0  0  0  0  0  0  0999 V2000
   -0.0464   -0.4722    1.6048 C   0  0  0  0  0  0  0  0  0  0  0  0
   -0.0456   -0.8446    0.1201 C   0  0  0  0  0  0  0  0  0  0  0  0
   -0.9092    0.0992   -0.7374 C   0  0  0  0  0  0  0  0  0  0  0  0
   -2.3860   -0.0279   -0.4616 C   0  0  0  0  0  0  0  0  0  0  0  0
   -3.1165   -1.1049   -0.9837 C   0  0  0  0  0  0  0  0  0  0  0  0
   -4.4786   -1.2332   -0.7084 C   0  0  0  0  0  0  0  0  0  0  0  0
   -5.1225   -0.2887    0.0878 C   0  0  0  0  0  0  0  0  0  0  0  0
   -4.4068    0.7880    0.6066 C   0  0  0  0  0  0  0  0  0  0  0  0
   -3.0448    0.9202    0.3333 C   0  0  0  0  0  0  0  0  0  0  0  0
    1.3199   -0.9000   -0.3977 N   0  0  0  0  0  4  0  0  0  0  0  0
    2.1768    0.1653   -0.4305 C   0  0  0  0  0  0  0  0  0  0  0  0
    3.3685   -0.3302   -0.9259 C   0  0  0  0  0  0  0  0  0  0  0  0
    4.5726    0.2485   -1.1467 N   0  0  0  0  0  0  0  0  0  0  0  0
    4.8940    1.2205   -0.3486 C   0  0  0  0  0  0  0  0  0  0  0  0
    6.0580    1.8783   -0.4929 N   0  0  0  0  0  0  0  0  0  0  0  0
    4.3696    1.7470    0.6388 O   0  0  0  0  0  1  0  0  0  0  0  0
    3.1423   -1.6700   -1.2200 O   0  0  0  0  0  0  0  0  0  0  0  0
    1.8294   -2.0179   -0.8649 N   0  0  0  0  0  0  0  0  0  0  0  0
    0.6438   -1.1160    2.1608 H   0  0  0  0  0  0  0  0  0  0  0  0
   -1.0410   -0.5919    2.0450 H   0  0  0  0  0  0  0  0  0  0  0  0
    0.2715    0.5642    1.7587 H   0  0  0  0  0  0  0  0  0  0  0  0
   -0.4525   -1.8628    0.0424 H   0  0  0  0  0  0  0  0  0  0  0  0
   -0.7387   -0.1117   -1.8018 H   0  0  0  0  0  0  0  0  0  0  0  0
   -0.5922    1.1405   -0.5958 H   0  0  0  0  0  0  0  0  0  0  0  0
   -2.6405   -1.8499   -1.6180 H   0  0  0  0  0  0  0  0  0  0  0  0
   -5.0422   -2.0674   -1.1199 H   0  0  0  0  0  0  0  0  0  0  0  0
   -6.1847   -0.3874    0.2985 H   0  0  0  0  0  0  0  0  0  0  0  0
   -4.9129    1.5286    1.2218 H   0  0  0  0  0  0  0  0  0  0  0  0
   -2.5099    1.7736    0.7462 H   0  0  0  0  0  0  0  0  0  0  0  0
    1.9530    1.1681   -0.1012 H   0  0  0  0  0  0  0  0  0  0  0  0
    6.2752    2.3433    0.3795 H   0  0  0  0  0  0  0  0  0  0  0  0
    6.7962    1.2912   -0.8480 H   0  0  0  0  0  0  0  0  0  0  0  0
  1  2  1  0
  2  3  1  0
  3  4  1  0
  4  5  2  0
  5  6  1  0
  6  7  2  0
  7  8  1  0
  8  9  2  0
  2 10  1  0
 10 11  1  0
 11 12  2  0
 12 13  1  0
 13 14  2  3
 14 15  1  0
 14 16  1  0
 12 17  1  0
 17 18  1  0
  9  4  1  0
 18 10  2  0
  1 19  1  0
  1 20  1  0
  1 21  1  0
  2 22  1  0
  3 23  1  0
  3 24  1  0
  5 25  1  0
  6 26  1  0
  7 27  1  0
  8 28  1  0
  9 29  1  0
 11 30  1  0
 15 31  1  0
 15 32  1  0
M  CHG  2  10   1  16  -1
M  END
$$$$
