
     RDKit          3D

 43 45  0  0  0  0  0  0  0  0999 V2000
   -2.5429   -0.0386   -4.4176 C   0  0  0  0  0  0  0  0  0  0  0  0
   -1.8391    0.1356   -3.0800 C   0  0  0  0  0  0  0  0  0  0  0  0
   -2.7273    0.8718   -2.0755 C   0  0  0  0  0  0  0  0  0  0  0  0
   -2.0266    1.1600   -0.7446 C   0  0  0  0  0  0  0  0  0  0  0  0
   -2.0970    0.0622    0.2217 N   0  0  0  0  0  0  0  0  0  0  0  0
   -3.1821   -0.2169    1.0651 C   0  0  0  0  0  0  0  0  0  0  0  0
   -4.5470    0.6707    1.3578 S   0  0  0  0  0  0  0  0  0  0  0  0
   -2.9355   -1.4271    1.6987 N   0  0  0  0  0  0  0  0  0  0  0  0
   -1.6090   -1.9085    1.4168 C   0  0  0  0  0  0  0  0  0  0  0  0
   -1.2017   -1.0941    0.1851 C   0  0  0  0  0  0  0  0  0  0  0  0
    0.3093   -0.8319    0.0597 C   0  0  0  0  0  0  0  0  0  0  0  0
    1.0846   -0.0285    1.0968 C   0  0  0  0  0  0  0  0  0  0  0  0
    0.4294    0.7253    2.0842 C   0  0  0  0  0  0  0  0  0  0  0  0
    1.1436    1.4567    3.0292 C   0  0  0  0  0  0  0  0  0  0  0  0
    2.5324    1.4600    3.0029 C   0  0  0  0  0  0  0  0  0  0  0  0
    3.2291    0.7425    2.0246 C   0  0  0  0  0  0  0  0  0  0  0  0
    4.6337    0.7739    2.0095 C   0  0  0  0  0  0  0  0  0  0  0  0
    5.3578    0.0820    1.0419 C   0  0  0  0  0  0  0  0  0  0  0  0
    4.6841   -0.6481    0.0742 C   0  0  0  0  0  0  0  0  0  0  0  0
    3.2868   -0.6898    0.0787 C   0  0  0  0  0  0  0  0  0  0  0  0
    2.5163   -0.0064    1.0512 C   0  0  0  0  0  0  0  0  0  0  0  0
   -3.4631   -0.6203   -4.3034 H   0  0  0  0  0  0  0  0  0  0  0  0
   -1.8923   -0.5664   -5.1219 H   0  0  0  0  0  0  0  0  0  0  0  0
   -2.8005    0.9311   -4.8553 H   0  0  0  0  0  0  0  0  0  0  0  0
   -1.5630   -0.8518   -2.7018 H   0  0  0  0  0  0  0  0  0  0  0  0
   -0.9096    0.6954   -3.2356 H   0  0  0  0  0  0  0  0  0  0  0  0
   -3.0129    1.8340   -2.5197 H   0  0  0  0  0  0  0  0  0  0  0  0
   -3.6538    0.3091   -1.9127 H   0  0  0  0  0  0  0  0  0  0  0  0
   -0.9802    1.4434   -0.8928 H   0  0  0  0  0  0  0  0  0  0  0  0
   -2.5155    2.0267   -0.2859 H   0  0  0  0  0  0  0  0  0  0  0  0
   -3.5245   -1.7428    2.4599 H   0  0  0  0  0  0  0  0  0  0  0  0
   -0.9907   -1.7179    2.2977 H   0  0  0  0  0  0  0  0  0  0  0  0
   -1.6379   -2.9842    1.2230 H   0  0  0  0  0  0  0  0  0  0  0  0
   -1.5113   -1.6747   -0.6933 H   0  0  0  0  0  0  0  0  0  0  0  0
    0.7705   -1.8276    0.0126 H   0  0  0  0  0  0  0  0  0  0  0  0
    0.4885   -0.3504   -0.9103 H   0  0  0  0  0  0  0  0  0  0  0  0
   -0.6535    0.7671    2.1460 H   0  0  0  0  0  0  0  0  0  0  0  0
    0.6124    2.0285    3.7862 H   0  0  0  0  0  0  0  0  0  0  0  0
    3.0682    2.0392    3.7517 H   0  0  0  0  0  0  0  0  0  0  0  0
    5.1787    1.3465    2.7573 H   0  0  0  0  0  0  0  0  0  0  0  0
    6.4437    0.1187    1.0436 H   0  0  0  0  0  0  0  0  0  0  0  0
    5.2410   -1.1859   -0.6886 H   0  0  0  0  0  0  0  0  0  0  0  0
    2.8072   -1.2685   -0.7062 H   0  0  0  0  0  0  0  0  0  0  0  0
  1  2  1  0
  2  3  1  0
  3  4  1  0
  4  5  1  0
  5  6  1  0
  6  7  2  0
  6  8  1  0
  8  9  1  0
  9 10  1  0
 10 11  1  0
 11 12  1  0
 12 13  2  0
 13 14  1  0
 14 15  2  0
 15 16  1  0
 16 17  2  0
 17 18  1  0
 18 19  2  0
 19 20  1  0
 20 21  2  0
 10  5  1  0
 21 12  1  0
 21 16  1  0
  1 22  1  0
  1 23  1  0
  1 24  1  0
  2 25  1  0
  2 26  1  0
  3 27  1  0
  3 28  1  0
  4 29  1  0
  4 30  1  0
  8 31  1  0
  9 32  1  0
  9 33  1  0
 10 34  1  0
 11 35  1  0
 11 36  1  0
 13 37  1  0
 14 38  1  0
 15 39  1  0
 17 40  1  0
 18 41  1  0
 19 42  1  0
 20 43  1  0
M  END
$$$$
