
     RDKit          3D

 37 39  0  0  0  0  0  0  0  0999 V2000
    6.1362   -0.0683   -0.2777 N   0  0  0  0  0  0  0  0  0  0  0  0
    5.0883   -0.0989    0.5973 C   0  0  0  0  0  0  0  0  0  0  0  0
    5.2296   -0.5914    1.7095 O   0  0  0  0  0  0  0  0  0  0  0  0
    3.7936    0.5070    0.0705 C   0  0  0  0  0  0  0  0  0  0  0  0
    2.7608    0.6736    1.1933 C   0  0  0  0  0  0  0  0  0  0  0  0
    1.3409    0.7583    0.6440 C   0  0  0  0  0  0  0  0  0  0  0  0
    1.0105   -0.4492   -0.1108 N   0  0  0  0  0  0  0  0  0  0  0  0
   -0.2968   -0.8422   -0.1590 C   0  0  0  0  0  0  0  0  0  0  0  0
   -1.2864   -0.0902    0.2782 N   0  0  0  0  0  0  0  0  0  0  0  0
   -2.5205   -0.7057    0.1158 C   0  0  0  0  0  0  0  0  0  0  0  0
   -3.7460   -0.0374    0.5460 C   0  0  0  0  0  0  0  0  0  0  0  0
   -3.6561    1.0305    1.4553 C   0  0  0  0  0  0  0  0  0  0  0  0
   -4.8015    1.7009    1.8976 C   0  0  0  0  0  0  0  0  0  0  0  0
   -6.0575    1.3170    1.4343 C   0  0  0  0  0  0  0  0  0  0  0  0
   -6.1654    0.2656    0.5273 C   0  0  0  0  0  0  0  0  0  0  0  0
   -5.0190   -0.4002    0.0893 C   0  0  0  0  0  0  0  0  0  0  0  0
   -5.1838   -1.3932   -0.7982 F   0  0  0  0  0  0  0  0  0  0  0  0
   -2.4525   -1.9651   -0.4386 C   0  0  0  0  0  0  0  0  0  0  0  0
   -0.8279   -2.3705   -0.7813 S   0  0  0  0  0  0  0  0  0  0  0  0
    2.0973   -1.2355   -0.6812 C   0  0  0  0  0  0  0  0  0  0  0  0
    3.2424   -0.3158   -1.1053 C   0  0  0  0  0  0  0  0  0  0  0  0
    6.1389    0.5320   -1.0905 H   0  0  0  0  0  0  0  0  0  0  0  0
    7.0293   -0.3850    0.0792 H   0  0  0  0  0  0  0  0  0  0  0  0
    4.0522    1.5063   -0.3067 H   0  0  0  0  0  0  0  0  0  0  0  0
    2.8108   -0.1644    1.9007 H   0  0  0  0  0  0  0  0  0  0  0  0
    2.9925    1.5758    1.7723 H   0  0  0  0  0  0  0  0  0  0  0  0
    0.6618    0.8981    1.4945 H   0  0  0  0  0  0  0  0  0  0  0  0
    1.2379    1.6351   -0.0069 H   0  0  0  0  0  0  0  0  0  0  0  0
   -2.6831    1.3467    1.8289 H   0  0  0  0  0  0  0  0  0  0  0  0
   -4.7075    2.5230    2.6032 H   0  0  0  0  0  0  0  0  0  0  0  0
   -6.9484    1.8377    1.7759 H   0  0  0  0  0  0  0  0  0  0  0  0
   -7.1364   -0.0415    0.1510 H   0  0  0  0  0  0  0  0  0  0  0  0
   -3.2464   -2.6643   -0.6548 H   0  0  0  0  0  0  0  0  0  0  0  0
    2.4487   -1.9746    0.0489 H   0  0  0  0  0  0  0  0  0  0  0  0
    1.7757   -1.7795   -1.5765 H   0  0  0  0  0  0  0  0  0  0  0  0
    2.8662    0.3787   -1.8687 H   0  0  0  0  0  0  0  0  0  0  0  0
    4.0218   -0.9137   -1.5907 H   0  0  0  0  0  0  0  0  0  0  0  0
  1  2  1  0
  2  3  2  0
  2  4  1  0
  4  5  1  0
  5  6  1  0
  6  7  1  0
  7  8  1  0
  8  9  2  0
  9 10  1  0
 10 11  1  0
 11 12  2  0
 12 13  1  0
 13 14  2  0
 14 15  1  0
 15 16  2  0
 16 17  1  0
 10 18  2  0
 18 19  1  0
  7 20  1  0
 20 21  1  0
 21  4  1  0
 19  8  1  0
 16 11  1  0
  1 22  1  0
  1 23  1  0
  4 24  1  0
  5 25  1  0
  5 26  1  0
  6 27  1  0
  6 28  1  0
 12 29  1  0
 13 30  1  0
 14 31  1  0
 15 32  1  0
 18 33  1  0
 20 34  1  0
 20 35  1  0
 21 36  1  0
 21 37  1  0
M  END
$$$$
