
     RDKit          3D

 63 67  0  0  0  0  0  0  0  0999 V2000
   -6.0142    6.3424    1.2433 C   0  0  0  0  0  0  0  0  0  0  0  0
   -6.3923    4.9838    1.0614 O   0  0  0  0  0  0  0  0  0  0  0  0
   -5.3815    4.0679    0.9444 C   0  0  0  0  0  0  0  0  0  0  0  0
   -4.0220    4.3458    0.9873 C   0  0  0  0  0  0  0  0  0  0  0  0
   -3.0833    3.3138    0.8546 C   0  0  0  0  0  0  0  0  0  0  0  0
   -3.4974    1.9695    0.6732 C   0  0  0  0  0  0  0  0  0  0  0  0
   -2.7299    0.7545    0.5169 C   0  0  0  0  0  0  0  0  0  0  0  0
   -1.2751    0.6600    0.4972 C   0  0  0  0  0  0  0  0  0  0  0  0
   -0.5622    1.1034   -0.6216 C   0  0  0  0  0  0  0  0  0  0  0  0
    0.8341    1.0186   -0.6507 C   0  0  0  0  0  0  0  0  0  0  0  0
    1.5258    0.4915    0.4402 C   0  0  0  0  0  0  0  0  0  0  0  0
    2.8817    0.3498    0.5410 O   0  0  0  0  0  0  0  0  0  0  0  0
    3.6631    0.7117   -0.6002 C   0  0  0  0  0  0  0  0  0  0  0  0
    5.1499    0.4138   -0.3214 C   0  0  0  0  0  0  0  0  0  0  0  0
    5.5479   -0.9882   -0.5627 N   0  0  0  0  0  0  0  0  0  0  0  0
    7.0081   -1.1771   -0.4141 C   0  0  0  0  0  0  0  0  0  0  0  0
    7.4135   -1.8168    0.9231 C   0  0  0  0  0  0  0  0  0  0  0  0
    6.8305   -3.1106    1.1262 O   0  0  0  0  0  0  0  0  0  0  0  0
    5.5625   -3.2634    0.4718 C   0  0  0  0  0  0  0  0  0  0  0  0
    4.8118   -1.9326    0.3092 C   0  0  0  0  0  0  0  0  0  0  0  0
    0.8111    0.0570    1.5601 C   0  0  0  0  0  0  0  0  0  0  0  0
   -0.5828    0.1396    1.5930 C   0  0  0  0  0  0  0  0  0  0  0  0
   -3.5337   -0.3645    0.3705 C   0  0  0  0  0  0  0  0  0  0  0  0
   -3.1641   -1.7744    0.1774 C   0  0  0  0  0  0  0  0  0  0  0  0
   -3.2998   -2.6648    1.2565 C   0  0  0  0  0  0  0  0  0  0  0  0
   -2.9378   -4.0040    1.1224 C   0  0  0  0  0  0  0  0  0  0  0  0
   -2.4375   -4.4658   -0.0910 C   0  0  0  0  0  0  0  0  0  0  0  0
   -2.2966   -3.5921   -1.1730 C   0  0  0  0  0  0  0  0  0  0  0  0
   -2.6520   -2.2431   -1.0501 C   0  0  0  0  0  0  0  0  0  0  0  0
   -2.5596   -1.3263   -2.0677 O   0  0  0  0  0  0  0  0  0  0  0  0
   -1.8324   -1.7095   -3.2263 C   0  0  0  0  0  0  0  0  0  0  0  0
   -5.1940    0.0416    0.4218 S   0  0  0  0  0  0  0  0  0  0  0  0
   -4.8687    1.7148    0.6374 C   0  0  0  0  0  0  0  0  0  0  0  0
   -5.8154    2.7503    0.7695 C   0  0  0  0  0  0  0  0  0  0  0  0
   -5.4453    6.7126    0.3839 H   0  0  0  0  0  0  0  0  0  0  0  0
   -6.9298    6.9369    1.3174 H   0  0  0  0  0  0  0  0  0  0  0  0
   -5.4553    6.4752    2.1756 H   0  0  0  0  0  0  0  0  0  0  0  0
   -3.6464    5.3543    1.1240 H   0  0  0  0  0  0  0  0  0  0  0  0
   -2.0222    3.5498    0.8944 H   0  0  0  0  0  0  0  0  0  0  0  0
   -1.0936    1.5040   -1.4822 H   0  0  0  0  0  0  0  0  0  0  0  0
    1.3457    1.3702   -1.5399 H   0  0  0  0  0  0  0  0  0  0  0  0
    3.3349    0.1654   -1.4932 H   0  0  0  0  0  0  0  0  0  0  0  0
    3.5575    1.7897   -0.7743 H   0  0  0  0  0  0  0  0  0  0  0  0
    5.7283    1.0445   -1.0082 H   0  0  0  0  0  0  0  0  0  0  0  0
    5.4062    0.7126    0.7031 H   0  0  0  0  0  0  0  0  0  0  0  0
    7.3234   -1.8474   -1.2237 H   0  0  0  0  0  0  0  0  0  0  0  0
    7.5563   -0.2394   -0.5627 H   0  0  0  0  0  0  0  0  0  0  0  0
    7.1257   -1.1751    1.7641 H   0  0  0  0  0  0  0  0  0  0  0  0
    8.5006   -1.9389    0.9661 H   0  0  0  0  0  0  0  0  0  0  0  0
    5.7340   -3.7371   -0.5020 H   0  0  0  0  0  0  0  0  0  0  0  0
    4.9677   -3.9602    1.0712 H   0  0  0  0  0  0  0  0  0  0  0  0
    4.6739   -1.5017    1.3094 H   0  0  0  0  0  0  0  0  0  0  0  0
    3.8243   -2.1291   -0.1218 H   0  0  0  0  0  0  0  0  0  0  0  0
    1.3443   -0.3529    2.4142 H   0  0  0  0  0  0  0  0  0  0  0  0
   -1.1197   -0.2056    2.4727 H   0  0  0  0  0  0  0  0  0  0  0  0
   -3.6869   -2.3119    2.2099 H   0  0  0  0  0  0  0  0  0  0  0  0
   -3.0476   -4.6841    1.9629 H   0  0  0  0  0  0  0  0  0  0  0  0
   -2.1583   -5.5110   -0.1995 H   0  0  0  0  0  0  0  0  0  0  0  0
   -1.9135   -3.9986   -2.1029 H   0  0  0  0  0  0  0  0  0  0  0  0
   -2.3646   -2.4873   -3.7833 H   0  0  0  0  0  0  0  0  0  0  0  0
   -1.7531   -0.8321   -3.8756 H   0  0  0  0  0  0  0  0  0  0  0  0
   -0.8154   -2.0273   -2.9728 H   0  0  0  0  0  0  0  0  0  0  0  0
   -6.8786    2.5281    0.7366 H   0  0  0  0  0  0  0  0  0  0  0  0
  1  2  1  0
  2  3  1  0
  3  4  2  0
  4  5  1  0
  5  6  2  0
  6  7  1  0
  7  8  1  0
  8  9  2  0
  9 10  1  0
 10 11  2  0
 11 12  1  0
 12 13  1  0
 13 14  1  0
 14 15  1  0
 15 16  1  0
 16 17  1  0
 17 18  1  0
 18 19  1  0
 19 20  1  0
 11 21  1  0
 21 22  2  0
  7 23  2  0
 23 24  1  0
 24 25  2  0
 25 26  1  0
 26 27  2  0
 27 28  1  0
 28 29  2  0
 29 30  1  0
 30 31  1  0
 23 32  1  0
 32 33  1  0
 33 34  2  0
 34  3  1  0
 33  6  1  0
 22  8  1  0
 29 24  1  0
 20 15  1  0
  1 35  1  0
  1 36  1  0
  1 37  1  0
  4 38  1  0
  5 39  1  0
  9 40  1  0
 10 41  1  0
 13 42  1  0
 13 43  1  0
 14 44  1  0
 14 45  1  0
 16 46  1  0
 16 47  1  0
 17 48  1  0
 17 49  1  0
 19 50  1  0
 19 51  1  0
 20 52  1  0
 20 53  1  0
 21 54  1  0
 22 55  1  0
 25 56  1  0
 26 57  1  0
 27 58  1  0
 28 59  1  0
 31 60  1  0
 31 61  1  0
 31 62  1  0
 34 63  1  0
M  END
$$$$
