
     RDKit          3D

 80 85  0  0  0  0  0  0  0  0999 V2000
    6.6714    1.4012   -0.0634 C   0  0  0  0  0  0  0  0  0  0  0  0
    5.5524    0.5861    0.5899 C   0  0  0  0  0  0  0  0  0  0  0  0
    5.9476   -0.8959    0.7021 C   0  0  0  0  0  0  0  0  0  0  0  0
    5.0697   -1.8314   -0.1161 C   0  0  0  0  0  0  0  0  0  0  0  0
    3.5643   -1.7174    0.2368 C   0  0  0  0  0  0  0  0  0  0  0  0
    3.3641   -2.5556    1.5174 C   0  0  0  0  0  0  0  0  0  0  0  0
    3.2699   -2.1500    2.6646 O   0  0  0  0  0  0  0  0  0  0  0  0
    3.3620   -3.8877    1.3026 O   0  0  0  0  0  0  0  0  0  0  0  0
    2.7521   -2.3396   -0.9177 C   0  0  0  0  0  0  0  0  0  0  0  0
    1.2470   -2.2090   -0.6935 C   0  0  0  0  0  0  0  0  0  0  0  0
    0.7479   -0.7405   -0.6285 C   0  0  0  0  0  0  0  0  0  0  0  0
    0.8741   -0.1580   -2.0676 C   0  0  0  0  0  0  0  0  0  0  0  0
    1.6485    0.1061    0.2951 C   0  0  0  0  0  0  0  0  0  0  0  0
    1.1266    1.1187    1.0217 C   0  0  0  0  0  0  0  0  0  0  0  0
   -0.3116    1.5414    1.0601 C   0  0  0  0  0  0  0  0  0  0  0  0
   -1.2187    0.8259    0.0407 C   0  0  0  0  0  0  0  0  0  0  0  0
   -2.7513    1.1595    0.2028 C   0  0  0  0  0  0  0  0  0  0  0  0
   -2.9892    2.6439   -0.2325 C   0  0  0  0  0  0  0  0  0  0  0  0
   -4.4634    3.0160   -0.1000 C   0  0  0  0  0  0  0  0  0  0  0  0
   -5.2474    1.8191    0.4361 C   0  0  0  0  0  0  0  0  0  0  0  0
   -6.5844    2.2228    0.6506 O   0  0  0  0  0  0  0  0  0  0  0  0
   -4.6985    1.4920    1.7134 O   0  0  0  0  0  0  0  0  0  0  0  0
   -3.3265    1.0674    1.6377 C   0  0  0  0  0  0  0  0  0  0  0  0
   -5.1633    0.5684   -0.4917 C   0  0  0  0  0  0  0  0  0  0  0  0
   -5.9126   -0.6155    0.1711 C   0  0  0  0  0  0  0  0  0  0  0  0
   -5.8665    0.8200   -1.8453 C   0  0  0  0  0  0  0  0  0  0  0  0
   -3.6350    0.2845   -0.7486 C   0  0  0  0  0  0  0  0  0  0  0  0
   -3.2425   -1.1981   -0.7294 C   0  0  0  0  0  0  0  0  0  0  0  0
   -1.7700   -1.3841   -1.0889 C   0  0  0  0  0  0  0  0  0  0  0  0
   -0.7988   -0.6846   -0.1013 C   0  0  0  0  0  0  0  0  0  0  0  0
   -0.9054   -1.4314    1.2643 C   0  0  0  0  0  0  0  0  0  0  0  0
    3.1362   -0.2357    0.5159 C   0  0  0  0  0  0  0  0  0  0  0  0
    4.1420    0.8371   -0.0215 C   0  0  0  0  0  0  0  0  0  0  0  0
    4.1218    1.0300   -1.5392 C   0  0  0  0  0  0  0  0  0  0  0  0
    6.4033    2.4614   -0.1179 H   0  0  0  0  0  0  0  0  0  0  0  0
    6.8957    1.0426   -1.0731 H   0  0  0  0  0  0  0  0  0  0  0  0
    7.5931    1.3262    0.5243 H   0  0  0  0  0  0  0  0  0  0  0  0
    5.4982    0.9548    1.6256 H   0  0  0  0  0  0  0  0  0  0  0  0
    6.9954   -1.0453    0.4137 H   0  0  0  0  0  0  0  0  0  0  0  0
    5.8911   -1.1942    1.7571 H   0  0  0  0  0  0  0  0  0  0  0  0
    5.4232   -2.8599    0.0350 H   0  0  0  0  0  0  0  0  0  0  0  0
    5.2387   -1.6252   -1.1790 H   0  0  0  0  0  0  0  0  0  0  0  0
    3.2595   -4.2660    2.2013 H   0  0  0  0  0  0  0  0  0  0  0  0
    2.9923   -3.4042   -1.0345 H   0  0  0  0  0  0  0  0  0  0  0  0
    3.0357   -1.8867   -1.8727 H   0  0  0  0  0  0  0  0  0  0  0  0
    1.0050   -2.7544    0.2221 H   0  0  0  0  0  0  0  0  0  0  0  0
    0.7333   -2.7409   -1.5039 H   0  0  0  0  0  0  0  0  0  0  0  0
    1.8881   -0.2444   -2.4613 H   0  0  0  0  0  0  0  0  0  0  0  0
    0.2498   -0.6937   -2.7874 H   0  0  0  0  0  0  0  0  0  0  0  0
    0.6227    0.9047   -2.1225 H   0  0  0  0  0  0  0  0  0  0  0  0
    1.7724    1.6770    1.6992 H   0  0  0  0  0  0  0  0  0  0  0  0
   -0.3487    2.6236    0.8956 H   0  0  0  0  0  0  0  0  0  0  0  0
   -0.6622    1.3612    2.0813 H   0  0  0  0  0  0  0  0  0  0  0  0
   -0.9778    1.2787   -0.9292 H   0  0  0  0  0  0  0  0  0  0  0  0
   -2.6659    2.8029   -1.2690 H   0  0  0  0  0  0  0  0  0  0  0  0
   -2.3977    3.3311    0.3833 H   0  0  0  0  0  0  0  0  0  0  0  0
   -4.5570    3.8613    0.5950 H   0  0  0  0  0  0  0  0  0  0  0  0
   -4.8678    3.3772   -1.0517 H   0  0  0  0  0  0  0  0  0  0  0  0
   -6.8491    1.7136    1.4354 H   0  0  0  0  0  0  0  0  0  0  0  0
   -3.3061    0.0540    2.0351 H   0  0  0  0  0  0  0  0  0  0  0  0
   -2.7753    1.7026    2.3371 H   0  0  0  0  0  0  0  0  0  0  0  0
   -5.4668   -0.9035    1.1281 H   0  0  0  0  0  0  0  0  0  0  0  0
   -6.9609   -0.3614    0.3650 H   0  0  0  0  0  0  0  0  0  0  0  0
   -5.9228   -1.5005   -0.4742 H   0  0  0  0  0  0  0  0  0  0  0  0
   -6.9270    1.0582   -1.7084 H   0  0  0  0  0  0  0  0  0  0  0  0
   -5.8071   -0.0683   -2.4850 H   0  0  0  0  0  0  0  0  0  0  0  0
   -5.4099    1.6467   -2.3985 H   0  0  0  0  0  0  0  0  0  0  0  0
   -3.4067    0.6264   -1.7705 H   0  0  0  0  0  0  0  0  0  0  0  0
   -3.8411   -1.7415   -1.4708 H   0  0  0  0  0  0  0  0  0  0  0  0
   -3.4499   -1.6579    0.2412 H   0  0  0  0  0  0  0  0  0  0  0  0
   -1.5561   -2.4583   -1.1392 H   0  0  0  0  0  0  0  0  0  0  0  0
   -1.6423   -0.9966   -2.1038 H   0  0  0  0  0  0  0  0  0  0  0  0
   -1.8472   -1.2480    1.7745 H   0  0  0  0  0  0  0  0  0  0  0  0
   -0.1114   -1.1571    1.9646 H   0  0  0  0  0  0  0  0  0  0  0  0
   -0.8580   -2.5176    1.1310 H   0  0  0  0  0  0  0  0  0  0  0  0
    3.2498   -0.1085    1.6047 H   0  0  0  0  0  0  0  0  0  0  0  0
    3.8277    1.8120    0.3808 H   0  0  0  0  0  0  0  0  0  0  0  0
    4.8391    1.7918   -1.8592 H   0  0  0  0  0  0  0  0  0  0  0  0
    4.3412    0.1152   -2.0910 H   0  0  0  0  0  0  0  0  0  0  0  0
    3.1470    1.4055   -1.8598 H   0  0  0  0  0  0  0  0  0  0  0  0
  1  2  1  0
  2  3  1  0
  3  4  1  0
  4  5  1  0
  5  6  1  0
  6  7  2  0
  6  8  1  0
  5  9  1  0
  9 10  1  0
 10 11  1  0
 11 12  1  0
 11 13  1  0
 13 14  2  0
 14 15  1  0
 15 16  1  0
 16 17  1  0
 17 18  1  0
 18 19  1  0
 19 20  1  0
 20 21  1  0
 20 22  1  0
 22 23  1  0
 20 24  1  0
 24 25  1  0
 24 26  1  0
 24 27  1  0
 27 28  1  0
 28 29  1  0
 29 30  1  0
 30 31  1  0
 13 32  1  0
 32 33  1  0
 33 34  1  0
 33  2  1  0
 32  5  1  0
 30 11  1  0
 30 16  1  0
 23 17  1  0
 27 17  1  0
  1 35  1  0
  1 36  1  0
  1 37  1  0
  2 38  1  0
  3 39  1  0
  3 40  1  0
  4 41  1  0
  4 42  1  0
  8 43  1  0
  9 44  1  0
  9 45  1  0
 10 46  1  0
 10 47  1  0
 12 48  1  0
 12 49  1  0
 12 50  1  0
 14 51  1  0
 15 52  1  0
 15 53  1  0
 16 54  1  0
 18 55  1  0
 18 56  1  0
 19 57  1  0
 19 58  1  0
 21 59  1  0
 23 60  1  0
 23 61  1  0
 25 62  1  0
 25 63  1  0
 25 64  1  0
 26 65  1  0
 26 66  1  0
 26 67  1  0
 27 68  1  0
 28 69  1  0
 28 70  1  0
 29 71  1  0
 29 72  1  0
 31 73  1  0
 31 74  1  0
 31 75  1  0
 32 76  1  0
 33 77  1  0
 34 78  1  0
 34 79  1  0
 34 80  1  0
M  END
$$$$
