
     RDKit          3D

 45 47  0  0  0  0  0  0  0  0999 V2000
   -4.9861    1.4473    1.6624 C   0  0  0  0  0  0  0  0  0  0  0  0
   -4.3859   -0.1908    2.1534 S   0  0  0  0  0  0  0  0  0  0  0  0
   -4.1024   -0.9029    0.5361 C   0  0  0  0  0  0  0  0  0  0  0  0
   -4.8244   -2.0571    0.2031 C   0  0  0  0  0  0  0  0  0  0  0  0
   -4.6640   -2.6648   -1.0450 C   0  0  0  0  0  0  0  0  0  0  0  0
   -3.7793   -2.1249   -1.9756 C   0  0  0  0  0  0  0  0  0  0  0  0
   -3.0433   -0.9859   -1.6534 C   0  0  0  0  0  0  0  0  0  0  0  0
   -3.1843   -0.3923   -0.3938 C   0  0  0  0  0  0  0  0  0  0  0  0
   -2.4553    0.7342   -0.1084 O   0  0  0  0  0  0  0  0  0  0  0  0
   -1.0614    0.4421    0.0977 C   0  0  0  0  0  0  0  0  0  0  0  0
   -0.2379    1.3478   -0.8113 C   0  0  0  0  0  0  0  0  0  0  0  0
    1.2612    1.1050   -0.6130 C   0  0  0  0  0  0  0  0  0  0  0  0
    1.6087    0.6454    0.7438 N   0  0  0  0  0  0  0  0  0  0  0  0
    3.0224    0.9034    1.0641 C   0  0  0  0  0  0  0  0  0  0  0  0
    3.9872    0.1278    0.1915 C   0  0  0  0  0  0  0  0  0  0  0  0
    4.9298    0.7959   -0.6030 C   0  0  0  0  0  0  0  0  0  0  0  0
    5.8232    0.0753   -1.3982 C   0  0  0  0  0  0  0  0  0  0  0  0
    5.7850   -1.3181   -1.4062 C   0  0  0  0  0  0  0  0  0  0  0  0
    4.8539   -1.9935   -0.6196 C   0  0  0  0  0  0  0  0  0  0  0  0
    3.9606   -1.2750    0.1761 C   0  0  0  0  0  0  0  0  0  0  0  0
    0.7211    1.2275    1.7506 C   0  0  0  0  0  0  0  0  0  0  0  0
   -0.7100    0.7159    1.5659 C   0  0  0  0  0  0  0  0  0  0  0  0
   -5.3780    1.9588    2.5458 H   0  0  0  0  0  0  0  0  0  0  0  0
   -5.7927    1.3596    0.9292 H   0  0  0  0  0  0  0  0  0  0  0  0
   -4.1805    2.0575    1.2481 H   0  0  0  0  0  0  0  0  0  0  0  0
   -5.5259   -2.4896    0.9133 H   0  0  0  0  0  0  0  0  0  0  0  0
   -5.2359   -3.5563   -1.2906 H   0  0  0  0  0  0  0  0  0  0  0  0
   -3.6625   -2.5906   -2.9508 H   0  0  0  0  0  0  0  0  0  0  0  0
   -2.3601   -0.5621   -2.3836 H   0  0  0  0  0  0  0  0  0  0  0  0
   -0.8202   -0.6060   -0.1343 H   0  0  0  0  0  0  0  0  0  0  0  0
   -0.4810    2.3971   -0.5953 H   0  0  0  0  0  0  0  0  0  0  0  0
   -0.5108    1.1920   -1.8616 H   0  0  0  0  0  0  0  0  0  0  0  0
    1.5862    0.3424   -1.3309 H   0  0  0  0  0  0  0  0  0  0  0  0
    1.7861    2.0340   -0.8709 H   0  0  0  0  0  0  0  0  0  0  0  0
    3.2303    0.6007    2.0993 H   0  0  0  0  0  0  0  0  0  0  0  0
    3.2378    1.9790    1.0120 H   0  0  0  0  0  0  0  0  0  0  0  0
    4.9732    1.8823   -0.6091 H   0  0  0  0  0  0  0  0  0  0  0  0
    6.5497    0.6014   -2.0118 H   0  0  0  0  0  0  0  0  0  0  0  0
    6.4803   -1.8778   -2.0258 H   0  0  0  0  0  0  0  0  0  0  0  0
    4.8206   -3.0796   -0.6260 H   0  0  0  0  0  0  0  0  0  0  0  0
    3.2317   -1.8090    0.7825 H   0  0  0  0  0  0  0  0  0  0  0  0
    1.0452    0.9576    2.7634 H   0  0  0  0  0  0  0  0  0  0  0  0
    0.7408    2.3241    1.6959 H   0  0  0  0  0  0  0  0  0  0  0  0
   -1.4070    1.4384    2.0083 H   0  0  0  0  0  0  0  0  0  0  0  0
   -0.8462   -0.2160    2.1298 H   0  0  0  0  0  0  0  0  0  0  0  0
  1  2  1  0
  2  3  1  0
  3  4  2  0
  4  5  1  0
  5  6  2  0
  6  7  1  0
  7  8  2  0
  8  9  1  0
  9 10  1  0
 10 11  1  0
 11 12  1  0
 12 13  1  0
 13 14  1  0
 14 15  1  0
 15 16  2  0
 16 17  1  0
 17 18  2  0
 18 19  1  0
 19 20  2  0
 13 21  1  0
 21 22  1  0
  8  3  1  0
 22 10  1  0
 20 15  1  0
  1 23  1  0
  1 24  1  0
  1 25  1  0
  4 26  1  0
  5 27  1  0
  6 28  1  0
  7 29  1  0
 10 30  1  0
 11 31  1  0
 11 32  1  0
 12 33  1  0
 12 34  1  0
 14 35  1  0
 14 36  1  0
 16 37  1  0
 17 38  1  0
 18 39  1  0
 19 40  1  0
 20 41  1  0
 21 42  1  0
 21 43  1  0
 22 44  1  0
 22 45  1  0
M  END
$$$$
