
     RDKit          3D

 47 50  0  0  0  0  0  0  0  0999 V2000
    2.2450    2.0974    3.2369 C   0  0  0  0  0  0  0  0  0  0  0  0
    2.9571    1.2805    2.3174 O   0  0  0  0  0  0  0  0  0  0  0  0
    2.2220    0.6253    1.3602 C   0  0  0  0  0  0  0  0  0  0  0  0
    0.8751    0.8822    1.0793 C   0  0  0  0  0  0  0  0  0  0  0  0
    0.2093    0.1708    0.0721 C   0  0  0  0  0  0  0  0  0  0  0  0
   -1.1915    0.4827   -0.2187 C   0  0  0  0  0  0  0  0  0  0  0  0
   -2.2441   -0.3304   -0.0595 C   0  0  0  0  0  0  0  0  0  0  0  0
   -3.5301    0.0484   -0.3558 N   0  0  0  0  0  0  0  0  0  0  0  0
   -4.2196   -1.0047   -0.0533 C   0  0  0  0  0  0  0  0  0  0  0  0
   -5.6768   -1.1700   -0.1728 C   0  0  0  0  0  0  0  0  0  0  0  0
   -6.3097   -2.3637    0.1959 C   0  0  0  0  0  0  0  0  0  0  0  0
   -7.6953   -2.4868    0.0697 C   0  0  0  0  0  0  0  0  0  0  0  0
   -8.4502   -1.4226   -0.4231 C   0  0  0  0  0  0  0  0  0  0  0  0
   -7.8240   -0.2324   -0.7912 C   0  0  0  0  0  0  0  0  0  0  0  0
   -6.4394   -0.1044   -0.6669 C   0  0  0  0  0  0  0  0  0  0  0  0
   -3.5501   -2.0776    0.4249 O   0  0  0  0  0  0  0  0  0  0  0  0
   -2.2330   -1.7299    0.4617 C   0  0  0  0  0  0  0  0  0  0  0  0
   -1.3144   -2.4278    0.8373 O   0  0  0  0  0  0  0  0  0  0  0  0
    0.9032   -0.7928   -0.6640 C   0  0  0  0  0  0  0  0  0  0  0  0
    2.2479   -1.0547   -0.3937 C   0  0  0  0  0  0  0  0  0  0  0  0
    2.9141   -0.3375    0.6031 C   0  0  0  0  0  0  0  0  0  0  0  0
    4.2318   -0.5503    0.9297 O   0  0  0  0  0  0  0  0  0  0  0  0
    5.1318   -0.7866   -0.1602 C   0  0  0  0  0  0  0  0  0  0  0  0
    5.3020    0.3790   -1.0357 C   0  0  0  0  0  0  0  0  0  0  0  0
    5.5712    1.7373   -0.7832 C   0  0  0  0  0  0  0  0  0  0  0  0
    5.7551    2.4235    0.5171 C   0  0  0  0  0  0  0  0  0  0  0  0
    5.6451    2.4321   -1.9237 N   0  0  0  0  0  0  0  0  0  0  0  0
    5.4144    1.5193   -2.9525 O   0  0  0  0  0  0  0  0  0  0  0  0
    5.1871    0.2380   -2.3527 N   0  0  0  0  0  4  0  0  0  0  0  0
    4.9743   -0.7234   -3.1251 O   0  0  0  0  0  1  0  0  0  0  0  0
    2.9555    2.4468    3.9924 H   0  0  0  0  0  0  0  0  0  0  0  0
    1.4628    1.5305    3.7527 H   0  0  0  0  0  0  0  0  0  0  0  0
    1.8320    2.9796    2.7373 H   0  0  0  0  0  0  0  0  0  0  0  0
    0.3225    1.6359    1.6309 H   0  0  0  0  0  0  0  0  0  0  0  0
   -1.3668    1.4911   -0.5870 H   0  0  0  0  0  0  0  0  0  0  0  0
   -5.7414   -3.2063    0.5824 H   0  0  0  0  0  0  0  0  0  0  0  0
   -8.1868   -3.4140    0.3557 H   0  0  0  0  0  0  0  0  0  0  0  0
   -9.5289   -1.5212   -0.5206 H   0  0  0  0  0  0  0  0  0  0  0  0
   -8.4138    0.5965   -1.1755 H   0  0  0  0  0  0  0  0  0  0  0  0
   -5.9621    0.8292   -0.9581 H   0  0  0  0  0  0  0  0  0  0  0  0
    0.4030   -1.3594   -1.4467 H   0  0  0  0  0  0  0  0  0  0  0  0
    2.7382   -1.8382   -0.9625 H   0  0  0  0  0  0  0  0  0  0  0  0
    4.8635   -1.7068   -0.6901 H   0  0  0  0  0  0  0  0  0  0  0  0
    6.1040   -1.0024    0.3004 H   0  0  0  0  0  0  0  0  0  0  0  0
    4.8444    2.9645    0.7927 H   0  0  0  0  0  0  0  0  0  0  0  0
    5.9859    1.7108    1.3149 H   0  0  0  0  0  0  0  0  0  0  0  0
    6.5797    3.1422    0.4654 H   0  0  0  0  0  0  0  0  0  0  0  0
  1  2  1  0
  2  3  1  0
  3  4  2  0
  4  5  1  0
  5  6  1  0
  6  7  2  3
  7  8  1  0
  8  9  2  0
  9 10  1  0
 10 11  2  0
 11 12  1  0
 12 13  2  0
 13 14  1  0
 14 15  2  0
  9 16  1  0
 16 17  1  0
 17 18  2  0
  5 19  2  0
 19 20  1  0
 20 21  2  0
 21 22  1  0
 22 23  1  0
 23 24  1  0
 24 25  1  0
 25 26  1  0
 25 27  2  0
 27 28  1  0
 28 29  1  0
 29 30  1  0
 21  3  1  0
 29 24  2  0
 17  7  1  0
 15 10  1  0
  1 31  1  0
  1 32  1  0
  1 33  1  0
  4 34  1  0
  6 35  1  0
 11 36  1  0
 12 37  1  0
 13 38  1  0
 14 39  1  0
 15 40  1  0
 19 41  1  0
 20 42  1  0
 23 43  1  0
 23 44  1  0
 26 45  1  0
 26 46  1  0
 26 47  1  0
M  CHG  2  29   1  30  -1
M  END
$$$$
