
     RDKit          3D

 43 44  0  0  0  0  0  0  0  0999 V2000
   -4.7338   -1.9979    1.7008 C   0  0  0  0  0  0  0  0  0  0  0  0
   -4.6948   -0.6049    1.9923 O   0  0  0  0  0  0  0  0  0  0  0  0
   -4.2219    0.2171    1.0020 C   0  0  0  0  0  0  0  0  0  0  0  0
   -3.7874   -0.1808   -0.2626 C   0  0  0  0  0  0  0  0  0  0  0  0
   -3.3133    0.7731   -1.1800 C   0  0  0  0  0  0  0  0  0  0  0  0
   -2.8477    0.3664   -2.5089 C   0  0  0  0  0  0  0  0  0  0  0  0
   -1.8290   -0.4684   -2.7624 C   0  0  0  0  0  0  0  0  0  0  0  0
   -0.9535   -1.0829   -1.7317 C   0  0  0  0  0  0  0  0  0  0  0  0
   -0.8165   -2.3059   -1.7245 O   0  0  0  0  0  0  0  0  0  0  0  0
   -0.2392   -0.1913   -0.7518 C   0  0  0  0  0  0  0  0  0  0  0  0
    1.2435   -0.4510   -0.7339 C   0  0  0  0  0  0  0  0  0  0  0  0
    2.0014    0.1808   -1.4657 O   0  0  0  0  0  0  0  0  0  0  0  0
    1.7287   -1.5193    0.1896 C   0  0  0  0  0  0  0  0  0  0  0  0
    2.9570   -1.6267    0.7193 C   0  0  0  0  0  0  0  0  0  0  0  0
    4.0963   -0.7159    0.5631 C   0  0  0  0  0  0  0  0  0  0  0  0
    5.3335   -1.2386    0.1654 C   0  0  0  0  0  0  0  0  0  0  0  0
    6.4498   -0.4070    0.0520 C   0  0  0  0  0  0  0  0  0  0  0  0
    6.3318    0.9459    0.3430 C   0  0  0  0  0  0  0  0  0  0  0  0
    7.4445    1.7239    0.2151 O   0  0  0  0  0  0  0  0  0  0  0  0
    5.1162    1.4822    0.7535 C   0  0  0  0  0  0  0  0  0  0  0  0
    4.0008    0.6474    0.8706 C   0  0  0  0  0  0  0  0  0  0  0  0
   -3.3004    2.1295   -0.8338 C   0  0  0  0  0  0  0  0  0  0  0  0
   -3.7344    2.5329    0.4278 C   0  0  0  0  0  0  0  0  0  0  0  0
   -4.1861    1.5772    1.3290 C   0  0  0  0  0  0  0  0  0  0  0  0
   -4.6028    2.0000    2.5616 O   0  0  0  0  0  0  0  0  0  0  0  0
   -5.4114   -2.2070    0.8665 H   0  0  0  0  0  0  0  0  0  0  0  0
   -3.7295   -2.3877    1.5041 H   0  0  0  0  0  0  0  0  0  0  0  0
   -5.1237   -2.5125    2.5843 H   0  0  0  0  0  0  0  0  0  0  0  0
   -3.8103   -1.2246   -0.5611 H   0  0  0  0  0  0  0  0  0  0  0  0
   -3.4194    0.7723   -3.3414 H   0  0  0  0  0  0  0  0  0  0  0  0
   -1.6078   -0.7772   -3.7793 H   0  0  0  0  0  0  0  0  0  0  0  0
   -0.3813    0.8657   -1.0006 H   0  0  0  0  0  0  0  0  0  0  0  0
   -0.6617   -0.3438    0.2469 H   0  0  0  0  0  0  0  0  0  0  0  0
    0.9889   -2.2790    0.4277 H   0  0  0  0  0  0  0  0  0  0  0  0
    3.1685   -2.4920    1.3458 H   0  0  0  0  0  0  0  0  0  0  0  0
    5.4367   -2.2950   -0.0700 H   0  0  0  0  0  0  0  0  0  0  0  0
    7.4050   -0.8133   -0.2665 H   0  0  0  0  0  0  0  0  0  0  0  0
    7.1946    2.6458    0.3886 H   0  0  0  0  0  0  0  0  0  0  0  0
    5.0143    2.5373    0.9848 H   0  0  0  0  0  0  0  0  0  0  0  0
    3.0557    1.0737    1.1957 H   0  0  0  0  0  0  0  0  0  0  0  0
   -2.9456    2.8796   -1.5374 H   0  0  0  0  0  0  0  0  0  0  0  0
   -3.7222    3.5822    0.7075 H   0  0  0  0  0  0  0  0  0  0  0  0
   -4.8932    1.1894    3.0237 H   0  0  0  0  0  0  0  0  0  0  0  0
  1  2  1  0
  2  3  1  0
  3  4  2  0
  4  5  1  0
  5  6  1  0
  6  7  2  3
  7  8  1  0
  8  9  2  0
  8 10  1  0
 10 11  1  0
 11 12  2  0
 11 13  1  0
 13 14  2  3
 14 15  1  0
 15 16  2  0
 16 17  1  0
 17 18  2  0
 18 19  1  0
 18 20  1  0
 20 21  2  0
  5 22  2  0
 22 23  1  0
 23 24  2  0
 24 25  1  0
 24  3  1  0
 21 15  1  0
  1 26  1  0
  1 27  1  0
  1 28  1  0
  4 29  1  0
  6 30  1  0
  7 31  1  0
 10 32  1  0
 10 33  1  0
 13 34  1  0
 14 35  1  0
 16 36  1  0
 17 37  1  0
 19 38  1  0
 20 39  1  0
 21 40  1  0
 22 41  1  0
 23 42  1  0
 25 43  1  0
M  END
$$$$
