
     RDKit          3D

 41 42  0  0  0  0  0  0  0  0999 V2000
   -0.3885    1.0860   -0.1026 O   0  0  0  0  0  0  0  0  0  0  0  0
   -0.2276   -0.3151   -0.3857 C   0  0  0  0  0  0  0  0  0  0  0  0
    1.0030   -0.5285   -1.2801 C   0  0  0  0  0  0  0  0  0  0  0  0
    2.2384   -0.4974   -0.5554 O   0  0  0  0  0  0  0  0  0  0  0  0
    2.5546    0.7944   -0.0333 C   0  0  0  0  0  0  0  0  0  0  0  0
    4.0173    0.8459    0.3471 C   0  0  0  0  0  0  0  0  0  0  0  0
    4.4231    1.5646    1.4822 C   0  0  0  0  0  0  0  0  0  0  0  0
    5.7753    1.6503    1.8236 C   0  0  0  0  0  0  0  0  0  0  0  0
    6.7317    1.0260    1.0261 C   0  0  0  0  0  0  0  0  0  0  0  0
    8.3970    1.1326    1.4465 Cl  0  0  0  0  0  0  0  0  0  0  0  0
    6.3487    0.3201   -0.1115 C   0  0  0  0  0  0  0  0  0  0  0  0
    4.9965    0.2356   -0.4520 C   0  0  0  0  0  0  0  0  0  0  0  0
   -1.5120   -0.8098   -1.0861 C   0  0  0  0  0  0  0  0  0  0  0  0
   -2.7287   -0.4130   -0.3419 N   0  0  0  0  0  0  0  0  0  0  0  0
   -3.9132   -0.4946   -1.2205 C   0  0  0  0  0  0  0  0  0  0  0  0
   -5.2450   -0.6339   -0.4694 C   0  0  0  0  0  0  0  0  0  0  0  0
   -5.1829    0.0208    0.9017 C   0  0  0  0  0  0  0  0  0  0  0  0
   -4.0382   -0.5621    1.7329 C   0  0  0  0  0  0  0  0  0  0  0  0
   -2.9312   -1.1964    0.8810 C   0  0  0  0  0  0  0  0  0  0  0  0
   -1.3369    1.1768    0.1310 H   0  0  0  0  0  0  0  0  0  0  0  0
   -0.0751   -0.8226    0.5722 H   0  0  0  0  0  0  0  0  0  0  0  0
    0.9551   -1.5228   -1.7370 H   0  0  0  0  0  0  0  0  0  0  0  0
    1.0439    0.2097   -2.0898 H   0  0  0  0  0  0  0  0  0  0  0  0
    1.9413    0.9717    0.8560 H   0  0  0  0  0  0  0  0  0  0  0  0
    2.3628    1.5752   -0.7785 H   0  0  0  0  0  0  0  0  0  0  0  0
    3.6856    2.0613    2.1095 H   0  0  0  0  0  0  0  0  0  0  0  0
    6.0736    2.2052    2.7087 H   0  0  0  0  0  0  0  0  0  0  0  0
    7.0924   -0.1654   -0.7368 H   0  0  0  0  0  0  0  0  0  0  0  0
    4.7037   -0.3167   -1.3429 H   0  0  0  0  0  0  0  0  0  0  0  0
   -1.4768   -1.8944   -1.2466 H   0  0  0  0  0  0  0  0  0  0  0  0
   -1.5471   -0.3312   -2.0743 H   0  0  0  0  0  0  0  0  0  0  0  0
   -3.9422    0.4176   -1.8288 H   0  0  0  0  0  0  0  0  0  0  0  0
   -3.8351   -1.3398   -1.9172 H   0  0  0  0  0  0  0  0  0  0  0  0
   -5.4846   -1.6979   -0.3457 H   0  0  0  0  0  0  0  0  0  0  0  0
   -6.0536   -0.1936   -1.0636 H   0  0  0  0  0  0  0  0  0  0  0  0
   -5.0292    1.1004    0.7786 H   0  0  0  0  0  0  0  0  0  0  0  0
   -6.1334   -0.1019    1.4326 H   0  0  0  0  0  0  0  0  0  0  0  0
   -4.4315   -1.3236    2.4173 H   0  0  0  0  0  0  0  0  0  0  0  0
   -3.6199    0.2343    2.3610 H   0  0  0  0  0  0  0  0  0  0  0  0
   -3.1855   -2.2364    0.6376 H   0  0  0  0  0  0  0  0  0  0  0  0
   -2.0259   -1.2317    1.4958 H   0  0  0  0  0  0  0  0  0  0  0  0
  1  2  1  0
  2  3  1  0
  3  4  1  0
  4  5  1  0
  5  6  1  0
  6  7  2  0
  7  8  1  0
  8  9  2  0
  9 10  1  0
  9 11  1  0
 11 12  2  0
  2 13  1  0
 13 14  1  0
 14 15  1  0
 15 16  1  0
 16 17  1  0
 17 18  1  0
 18 19  1  0
 12  6  1  0
 19 14  1  0
  1 20  1  0
  2 21  1  0
  3 22  1  0
  3 23  1  0
  5 24  1  0
  5 25  1  0
  7 26  1  0
  8 27  1  0
 11 28  1  0
 12 29  1  0
 13 30  1  0
 13 31  1  0
 15 32  1  0
 15 33  1  0
 16 34  1  0
 16 35  1  0
 17 36  1  0
 17 37  1  0
 18 38  1  0
 18 39  1  0
 19 40  1  0
 19 41  1  0
M  END
$$$$
