
     RDKit          3D

 52 55  0  0  0  0  0  0  0  0999 V2000
    8.1335   -0.0204   -0.1150 C   0  0  0  0  0  0  0  0  0  0  0  0
    7.3400   -0.3748    1.1285 C   0  0  0  0  0  0  0  0  0  0  0  0
    5.9350   -0.2282    0.8773 O   0  0  0  0  0  0  0  0  0  0  0  0
    5.3060   -1.3117    0.3356 C   0  0  0  0  0  0  0  0  0  0  0  0
    5.8759   -2.3619    0.0622 O   0  0  0  0  0  0  0  0  0  0  0  0
    3.8972   -1.0151    0.1085 C   0  0  0  0  0  0  0  0  0  0  0  0
    3.0574   -2.0237   -1.0001 S   0  0  0  0  0  0  0  0  0  0  0  0
    1.6251   -1.1275   -0.8589 C   0  0  0  0  0  0  0  0  0  0  0  0
    0.5286   -1.4618   -1.5727 N   0  0  0  0  0  0  0  0  0  0  0  0
   -0.5234   -0.7159   -1.3939 C   0  0  0  0  0  0  0  0  0  0  0  0
   -1.8075   -1.0067   -2.1434 C   0  0  0  0  0  0  0  0  0  0  0  0
   -1.9068   -2.3417   -3.2447 S   0  0  0  0  0  0  0  0  0  0  0  0
   -1.4151   -3.7688   -2.2325 C   0  0  0  0  0  0  0  0  0  0  0  0
   -2.2123   -3.9227   -0.9573 C   0  0  0  0  0  0  0  0  0  0  0  0
   -2.7763   -3.0620   -0.3001 O   0  0  0  0  0  0  0  0  0  0  0  0
   -2.2147   -5.2020   -0.5195 O   0  0  0  0  0  0  0  0  0  0  0  0
   -2.8690   -0.2067   -1.9686 C   0  0  0  0  0  0  0  0  0  0  0  0
   -2.8369    0.8863   -1.0329 C   0  0  0  0  0  0  0  0  0  0  0  0
   -4.0398    1.7457   -0.8532 C   0  0  0  0  0  0  0  0  0  0  0  0
   -4.5952    2.2509   -1.8277 O   0  0  0  0  0  0  0  0  0  0  0  0
   -4.5682    2.0129    0.5107 C   0  0  0  0  0  0  0  0  0  0  0  0
   -4.3308    1.1327    1.5775 C   0  0  0  0  0  0  0  0  0  0  0  0
   -4.8315    1.4212    2.8502 C   0  0  0  0  0  0  0  0  0  0  0  0
   -5.5783    2.5794    3.0637 C   0  0  0  0  0  0  0  0  0  0  0  0
   -5.8400    3.4462    2.0036 C   0  0  0  0  0  0  0  0  0  0  0  0
   -5.3480    3.1577    0.7326 C   0  0  0  0  0  0  0  0  0  0  0  0
   -5.6712    4.0471   -0.2577 O   0  0  0  0  0  0  0  0  0  0  0  0
   -1.7052    1.1602   -0.3706 C   0  0  0  0  0  0  0  0  0  0  0  0
   -0.5514    0.3903   -0.5190 N   0  0  0  0  0  0  0  0  0  0  0  0
    0.5839    0.7587    0.2297 C   0  0  0  0  0  0  0  0  0  0  0  0
    0.6083    1.7222    0.9941 O   0  0  0  0  0  0  0  0  0  0  0  0
    1.7483   -0.0920    0.0321 C   0  0  0  0  0  0  0  0  0  0  0  0
    3.0606   -0.0329    0.6414 C   0  0  0  0  0  0  0  0  0  0  0  0
    3.4544    0.9617    1.6924 C   0  0  0  0  0  0  0  0  0  0  0  0
    7.8839    0.9901   -0.4549 H   0  0  0  0  0  0  0  0  0  0  0  0
    7.8975   -0.7006   -0.9394 H   0  0  0  0  0  0  0  0  0  0  0  0
    9.2078   -0.0710    0.0829 H   0  0  0  0  0  0  0  0  0  0  0  0
    7.5934    0.3198    1.9361 H   0  0  0  0  0  0  0  0  0  0  0  0
    7.5798   -1.3828    1.4858 H   0  0  0  0  0  0  0  0  0  0  0  0
   -0.3508   -3.7469   -1.9905 H   0  0  0  0  0  0  0  0  0  0  0  0
   -1.5949   -4.6537   -2.8523 H   0  0  0  0  0  0  0  0  0  0  0  0
   -2.7360   -5.1776    0.3104 H   0  0  0  0  0  0  0  0  0  0  0  0
   -3.7985   -0.3730   -2.5084 H   0  0  0  0  0  0  0  0  0  0  0  0
   -3.7745    0.2086    1.4409 H   0  0  0  0  0  0  0  0  0  0  0  0
   -4.6440    0.7389    3.6764 H   0  0  0  0  0  0  0  0  0  0  0  0
   -5.9674    2.8032    4.0542 H   0  0  0  0  0  0  0  0  0  0  0  0
   -6.4341    4.3423    2.1636 H   0  0  0  0  0  0  0  0  0  0  0  0
   -5.4274    3.6451   -1.1215 H   0  0  0  0  0  0  0  0  0  0  0  0
   -1.6379    2.0049    0.3130 H   0  0  0  0  0  0  0  0  0  0  0  0
    3.9155    1.8393    1.2291 H   0  0  0  0  0  0  0  0  0  0  0  0
    4.1581    0.5262    2.4084 H   0  0  0  0  0  0  0  0  0  0  0  0
    2.5968    1.2902    2.2846 H   0  0  0  0  0  0  0  0  0  0  0  0
  1  2  1  0
  2  3  1  0
  3  4  1  0
  4  5  2  0
  4  6  1  0
  6  7  1  0
  7  8  1  0
  8  9  1  0
  9 10  2  0
 10 11  1  0
 11 12  1  0
 12 13  1  0
 13 14  1  0
 14 15  2  0
 14 16  1  0
 11 17  2  0
 17 18  1  0
 18 19  1  0
 19 20  2  0
 19 21  1  0
 21 22  2  0
 22 23  1  0
 23 24  2  0
 24 25  1  0
 25 26  2  0
 26 27  1  0
 18 28  2  0
 28 29  1  0
 29 30  1  0
 30 31  2  0
 30 32  1  0
 32 33  1  0
 33 34  1  0
 33  6  2  0
 32  8  2  0
 29 10  1  0
 26 21  1  0
  1 35  1  0
  1 36  1  0
  1 37  1  0
  2 38  1  0
  2 39  1  0
 13 40  1  0
 13 41  1  0
 16 42  1  0
 17 43  1  0
 22 44  1  0
 23 45  1  0
 24 46  1  0
 25 47  1  0
 27 48  1  0
 28 49  1  0
 34 50  1  0
 34 51  1  0
 34 52  1  0
M  END
$$$$
