
     RDKit          3D

 47 50  0  0  0  0  0  0  0  0999 V2000
   -1.4979   -0.2823    1.5344 O   0  0  0  0  0  0  0  0  0  0  0  0
   -1.6512   -0.7540    0.4239 C   0  0  0  0  0  0  0  0  0  0  0  0
   -2.8049   -1.5549    0.0201 C   0  0  0  0  0  0  0  0  0  0  0  0
   -3.9501   -1.8916    0.7142 C   0  0  0  0  0  0  0  0  0  0  0  0
   -4.8827   -2.6969    0.0526 C   0  0  0  0  0  0  0  0  0  0  0  0
   -4.6489   -3.1427   -1.2655 C   0  0  0  0  0  0  0  0  0  0  0  0
   -3.4784   -2.7909   -1.9455 C   0  0  0  0  0  0  0  0  0  0  0  0
   -2.5757   -1.9918   -1.2723 C   0  0  0  0  0  0  0  0  0  0  0  0
   -1.2767   -1.4679   -1.6896 C   0  0  0  0  0  0  0  0  0  0  0  0
   -0.7422   -1.7265   -2.7507 O   0  0  0  0  0  0  0  0  0  0  0  0
   -0.8198   -0.6980   -0.6587 N   0  0  0  0  0  0  0  0  0  0  0  0
    0.4686   -0.0430   -0.6427 C   0  0  0  0  0  0  0  0  0  0  0  0
    0.3769    1.4213   -0.5042 N   0  0  0  0  0  0  0  0  0  0  0  0
    0.9503    2.1008    0.5885 C   0  0  0  0  0  0  0  0  0  0  0  0
    0.9934    3.3324    0.6907 O   0  0  0  0  0  0  0  0  0  0  0  0
    1.5840    1.2749    1.7119 C   0  0  0  0  0  0  0  0  0  0  0  0
    2.7718    0.6568    1.2294 O   0  0  0  0  0  0  0  0  0  0  0  0
    3.4456   -0.1548    2.0998 C   0  0  0  0  0  0  0  0  0  0  0  0
    4.5918   -0.7528    1.5689 C   0  0  0  0  0  0  0  0  0  0  0  0
    5.3706   -1.6120    2.3455 C   0  0  0  0  0  0  0  0  0  0  0  0
    5.0064   -1.8775    3.6631 C   0  0  0  0  0  0  0  0  0  0  0  0
    3.8661   -1.2827    4.2002 C   0  0  0  0  0  0  0  0  0  0  0  0
    3.0858   -0.4220    3.4215 C   0  0  0  0  0  0  0  0  0  0  0  0
   -0.3220    2.1464   -1.5434 C   0  0  0  0  0  0  0  0  0  0  0  0
   -0.3964    1.6518   -2.8587 C   0  0  0  0  0  0  0  0  0  0  0  0
   -1.0987    2.3373   -3.8575 C   0  0  0  0  0  0  0  0  0  0  0  0
   -1.7388    3.5277   -3.5533 C   0  0  0  0  0  0  0  0  0  0  0  0
   -2.4123    4.1820   -4.5077 F   0  0  0  0  0  0  0  0  0  0  0  0
   -1.6904    4.0431   -2.2688 C   0  0  0  0  0  0  0  0  0  0  0  0
   -0.9882    3.3547   -1.2723 C   0  0  0  0  0  0  0  0  0  0  0  0
   -4.1162   -1.5448    1.7290 H   0  0  0  0  0  0  0  0  0  0  0  0
   -5.8018   -2.9859    0.5601 H   0  0  0  0  0  0  0  0  0  0  0  0
   -5.3905   -3.7701   -1.7577 H   0  0  0  0  0  0  0  0  0  0  0  0
   -3.2849   -3.1300   -2.9580 H   0  0  0  0  0  0  0  0  0  0  0  0
    1.0115   -0.4992    0.1831 H   0  0  0  0  0  0  0  0  0  0  0  0
    1.0454   -0.2837   -1.5422 H   0  0  0  0  0  0  0  0  0  0  0  0
    0.8555    0.5452    2.0778 H   0  0  0  0  0  0  0  0  0  0  0  0
    1.8295    1.9643    2.5297 H   0  0  0  0  0  0  0  0  0  0  0  0
    4.8835   -0.5455    0.5421 H   0  0  0  0  0  0  0  0  0  0  0  0
    6.2607   -2.0702    1.9224 H   0  0  0  0  0  0  0  0  0  0  0  0
    5.6115   -2.5444    4.2719 H   0  0  0  0  0  0  0  0  0  0  0  0
    3.5831   -1.4869    5.2299 H   0  0  0  0  0  0  0  0  0  0  0  0
    2.2091    0.0221    3.8816 H   0  0  0  0  0  0  0  0  0  0  0  0
    0.1137    0.7421   -3.1618 H   0  0  0  0  0  0  0  0  0  0  0  0
   -1.1386    1.9480   -4.8701 H   0  0  0  0  0  0  0  0  0  0  0  0
   -2.1992    4.9740   -2.0401 H   0  0  0  0  0  0  0  0  0  0  0  0
   -1.0084    3.7783   -0.2715 H   0  0  0  0  0  0  0  0  0  0  0  0
  1  2  2  0
  2  3  1  0
  3  4  2  0
  4  5  1  0
  5  6  2  0
  6  7  1  0
  7  8  2  0
  8  9  1  0
  9 10  2  0
  9 11  1  0
 11 12  1  0
 12 13  1  0
 13 14  1  0
 14 15  2  0
 14 16  1  0
 16 17  1  0
 17 18  1  0
 18 19  2  0
 19 20  1  0
 20 21  2  0
 21 22  1  0
 22 23  2  0
 13 24  1  0
 24 25  2  0
 25 26  1  0
 26 27  2  0
 27 28  1  0
 27 29  1  0
 29 30  2  0
 11  2  1  0
 23 18  1  0
 30 24  1  0
  8  3  1  0
  4 31  1  0
  5 32  1  0
  6 33  1  0
  7 34  1  0
 12 35  1  0
 12 36  1  0
 16 37  1  0
 16 38  1  0
 19 39  1  0
 20 40  1  0
 21 41  1  0
 22 42  1  0
 23 43  1  0
 25 44  1  0
 26 45  1  0
 29 46  1  0
 30 47  1  0
M  END
$$$$
