
     RDKit          3D

 52 54  0  0  0  0  0  0  0  0999 V2000
    3.2345   -5.2237   -0.7529 C   0  0  0  0  0  0  0  0  0  0  0  0
    2.8900   -4.7896    0.6595 C   0  0  0  0  0  0  0  0  0  0  0  0
    3.6177   -3.5999    1.0016 O   0  0  0  0  0  0  0  0  0  0  0  0
    3.0374   -2.4245    0.6553 C   0  0  0  0  0  0  0  0  0  0  0  0
    1.9608   -2.3025    0.0856 O   0  0  0  0  0  0  0  0  0  0  0  0
    3.8853   -1.2586    1.0557 C   0  0  0  0  0  0  0  0  0  0  0  0
    5.1047   -1.4742    1.7255 C   0  0  0  0  0  0  0  0  0  0  0  0
    5.9018   -0.3983    2.1117 C   0  0  0  0  0  0  0  0  0  0  0  0
    5.4893    0.8992    1.8342 C   0  0  0  0  0  0  0  0  0  0  0  0
    4.2806    1.1288    1.1699 C   0  0  0  0  0  0  0  0  0  0  0  0
    3.4630    0.0644    0.7690 C   0  0  0  0  0  0  0  0  0  0  0  0
    2.2323    0.2736    0.0932 N   0  0  0  0  0  0  0  0  0  0  0  0
    1.6405    1.4658   -0.2833 C   0  0  0  0  0  0  0  0  0  0  0  0
    2.1078    2.5865   -0.1203 O   0  0  0  0  0  0  0  0  0  0  0  0
    0.3009    1.2485   -0.9650 C   0  0  0  0  0  0  0  0  0  0  0  0
   -0.3676    2.5336   -1.4425 C   0  0  0  0  0  0  0  0  0  0  0  0
   -1.8413    2.2506   -1.2877 C   0  0  0  0  0  0  0  0  0  0  0  0
   -2.7167    2.9538   -1.7607 O   0  0  0  0  0  0  0  0  0  0  0  0
   -1.9910    1.1092   -0.5114 N   0  0  0  0  0  0  0  0  0  0  0  0
   -3.2375    0.5908    0.0702 C   0  0  0  0  0  0  0  0  0  0  0  0
   -4.2935    0.1847   -0.9717 C   0  0  0  0  0  0  0  0  0  0  0  0
   -5.3069    1.2626   -1.3478 C   0  0  0  0  0  0  0  0  0  0  0  0
   -5.8643    1.9905   -0.1323 C   0  0  0  0  0  0  0  0  0  0  0  0
   -4.7558    2.5587    0.7433 C   0  0  0  0  0  0  0  0  0  0  0  0
   -3.7900    1.4712    1.2004 C   0  0  0  0  0  0  0  0  0  0  0  0
   -0.7149    0.6732    0.0044 C   0  0  0  0  0  0  0  0  0  0  0  0
    2.7269   -6.1587   -1.0062 H   0  0  0  0  0  0  0  0  0  0  0  0
    2.9446   -4.4591   -1.4806 H   0  0  0  0  0  0  0  0  0  0  0  0
    4.3148   -5.3688   -0.8568 H   0  0  0  0  0  0  0  0  0  0  0  0
    1.8104   -4.6459    0.7830 H   0  0  0  0  0  0  0  0  0  0  0  0
    3.1946   -5.5663    1.3684 H   0  0  0  0  0  0  0  0  0  0  0  0
    5.4497   -2.4794    1.9575 H   0  0  0  0  0  0  0  0  0  0  0  0
    6.8423   -0.5723    2.6289 H   0  0  0  0  0  0  0  0  0  0  0  0
    6.1069    1.7438    2.1326 H   0  0  0  0  0  0  0  0  0  0  0  0
    4.0088    2.1628    0.9802 H   0  0  0  0  0  0  0  0  0  0  0  0
    1.7425   -0.5866   -0.1642 H   0  0  0  0  0  0  0  0  0  0  0  0
    0.4389    0.5759   -1.8218 H   0  0  0  0  0  0  0  0  0  0  0  0
   -0.1287    2.7380   -2.4902 H   0  0  0  0  0  0  0  0  0  0  0  0
   -0.1197    3.4074   -0.8317 H   0  0  0  0  0  0  0  0  0  0  0  0
   -2.9288   -0.3534    0.5420 H   0  0  0  0  0  0  0  0  0  0  0  0
   -4.8641   -0.6541   -0.5491 H   0  0  0  0  0  0  0  0  0  0  0  0
   -3.8123   -0.2024   -1.8782 H   0  0  0  0  0  0  0  0  0  0  0  0
   -4.8590    1.9833   -2.0366 H   0  0  0  0  0  0  0  0  0  0  0  0
   -6.1331    0.7996   -1.9013 H   0  0  0  0  0  0  0  0  0  0  0  0
   -6.4780    1.2989    0.4580 H   0  0  0  0  0  0  0  0  0  0  0  0
   -6.5259    2.8001   -0.4607 H   0  0  0  0  0  0  0  0  0  0  0  0
   -5.2006    3.0380    1.6236 H   0  0  0  0  0  0  0  0  0  0  0  0
   -4.2176    3.3445    0.2051 H   0  0  0  0  0  0  0  0  0  0  0  0
   -4.3336    0.8202    1.8986 H   0  0  0  0  0  0  0  0  0  0  0  0
   -2.9734    1.9227    1.7765 H   0  0  0  0  0  0  0  0  0  0  0  0
   -0.6765   -0.4209    0.0261 H   0  0  0  0  0  0  0  0  0  0  0  0
   -0.5960    1.0584    1.0239 H   0  0  0  0  0  0  0  0  0  0  0  0
  1  2  1  0
  2  3  1  0
  3  4  1  0
  4  5  2  0
  4  6  1  0
  6  7  2  0
  7  8  1  0
  8  9  2  0
  9 10  1  0
 10 11  2  0
 11 12  1  0
 12 13  1  0
 13 14  2  0
 13 15  1  0
 15 16  1  0
 16 17  1  0
 17 18  2  0
 17 19  1  0
 19 20  1  0
 20 21  1  0
 21 22  1  0
 22 23  1  0
 23 24  1  0
 24 25  1  0
 19 26  1  0
 11  6  1  0
 26 15  1  0
 25 20  1  0
  1 27  1  0
  1 28  1  0
  1 29  1  0
  2 30  1  0
  2 31  1  0
  7 32  1  0
  8 33  1  0
  9 34  1  0
 10 35  1  0
 12 36  1  0
 15 37  1  0
 16 38  1  0
 16 39  1  0
 20 40  1  0
 21 41  1  0
 21 42  1  0
 22 43  1  0
 22 44  1  0
 23 45  1  0
 23 46  1  0
 24 47  1  0
 24 48  1  0
 25 49  1  0
 25 50  1  0
 26 51  1  0
 26 52  1  0
M  END
$$$$
