
     RDKit          3D

 53 56  0  0  0  0  0  0  0  0999 V2000
    6.8842   -1.5659   -2.0743 C   0  0  0  0  0  0  0  0  0  0  0  0
    5.8188   -1.3414   -1.0438 C   0  0  0  0  0  0  0  0  0  0  0  0
    4.5375   -1.8122   -1.2516 C   0  0  0  0  0  0  0  0  0  0  0  0
    3.5822   -1.5648   -0.2666 C   0  0  0  0  0  0  0  0  0  0  0  0
    2.2078   -2.0325   -0.5572 C   0  0  0  0  0  0  0  0  0  0  0  0
    2.0371   -3.2253   -0.7678 O   0  0  0  0  0  0  0  0  0  0  0  0
    1.2701   -1.0183   -0.6069 N   0  0  0  0  0  0  0  0  0  0  0  0
   -0.1075   -1.1409   -0.8796 C   0  0  0  0  0  0  0  0  0  0  0  0
   -0.7488   -2.3533   -1.1215 C   0  0  0  0  0  0  0  0  0  0  0  0
   -2.1209   -2.3921   -1.3981 C   0  0  0  0  0  0  0  0  0  0  0  0
   -2.8910   -1.2204   -1.4368 C   0  0  0  0  0  0  0  0  0  0  0  0
   -4.3569   -1.3332   -1.7484 C   0  0  0  0  0  0  0  0  0  0  0  0
   -2.2428   -0.0015   -1.1709 C   0  0  0  0  0  0  0  0  0  0  0  0
   -3.1222    1.5524   -1.1607 S   0  0  0  0  0  6  0  0  0  0  0  0
   -2.2133    2.5803   -0.6968 O   0  0  0  0  0  0  0  0  0  0  0  0
   -3.7917    1.6846   -2.4354 O   0  0  0  0  0  0  0  0  0  0  0  0
   -4.2924    1.3337    0.0524 N   0  0  0  0  0  0  0  0  0  0  0  0
   -3.8011    1.1521    1.4538 C   0  0  0  0  0  0  0  0  0  0  0  0
   -3.5507    2.4932    2.1560 C   0  0  0  0  0  0  0  0  0  0  0  0
   -4.7083    3.3380    2.1062 O   0  0  0  0  0  0  0  0  0  0  0  0
   -5.0786    3.6025    0.7448 C   0  0  0  0  0  0  0  0  0  0  0  0
   -5.4323    2.3021    0.0194 C   0  0  0  0  0  0  0  0  0  0  0  0
   -0.8625    0.0348   -0.9031 C   0  0  0  0  0  0  0  0  0  0  0  0
    3.9181   -0.8933    0.9299 C   0  0  0  0  0  0  0  0  0  0  0  0
    3.0307   -0.6631    2.0133 C   0  0  0  0  0  0  0  0  0  0  0  0
    3.4498    0.0211    3.1525 C   0  0  0  0  0  0  0  0  0  0  0  0
    4.7575    0.4771    3.2315 C   0  0  0  0  0  0  0  0  0  0  0  0
    5.6396    0.2351    2.1760 C   0  0  0  0  0  0  0  0  0  0  0  0
    5.2494   -0.4474    1.0314 C   0  0  0  0  0  0  0  0  0  0  0  0
    6.1652   -0.6550    0.0690 N   0  0  0  0  0  0  0  0  0  0  0  0
    7.0038   -2.6358   -2.2705 H   0  0  0  0  0  0  0  0  0  0  0  0
    7.8471   -1.1736   -1.7312 H   0  0  0  0  0  0  0  0  0  0  0  0
    6.6204   -1.0563   -3.0061 H   0  0  0  0  0  0  0  0  0  0  0  0
    4.2774   -2.3526   -2.1567 H   0  0  0  0  0  0  0  0  0  0  0  0
    1.6163   -0.0749   -0.4689 H   0  0  0  0  0  0  0  0  0  0  0  0
   -0.2097   -3.2962   -1.1111 H   0  0  0  0  0  0  0  0  0  0  0  0
   -2.5807   -3.3606   -1.5907 H   0  0  0  0  0  0  0  0  0  0  0  0
   -4.6261   -0.7104   -2.6054 H   0  0  0  0  0  0  0  0  0  0  0  0
   -4.6273   -2.3616   -2.0146 H   0  0  0  0  0  0  0  0  0  0  0  0
   -4.9608   -1.0588   -0.8795 H   0  0  0  0  0  0  0  0  0  0  0  0
   -4.5804    0.5985    1.9928 H   0  0  0  0  0  0  0  0  0  0  0  0
   -2.9013    0.5310    1.4797 H   0  0  0  0  0  0  0  0  0  0  0  0
   -2.6981    3.0308    1.7299 H   0  0  0  0  0  0  0  0  0  0  0  0
   -3.3225    2.3132    3.2117 H   0  0  0  0  0  0  0  0  0  0  0  0
   -4.2666    4.1429    0.2461 H   0  0  0  0  0  0  0  0  0  0  0  0
   -5.9520    4.2619    0.7651 H   0  0  0  0  0  0  0  0  0  0  0  0
   -5.7490    2.5018   -1.0085 H   0  0  0  0  0  0  0  0  0  0  0  0
   -6.2793    1.8176    0.5214 H   0  0  0  0  0  0  0  0  0  0  0  0
   -0.3774    0.9910   -0.7173 H   0  0  0  0  0  0  0  0  0  0  0  0
    2.0084   -1.0356    1.9868 H   0  0  0  0  0  0  0  0  0  0  0  0
    2.7611    0.1878    3.9770 H   0  0  0  0  0  0  0  0  0  0  0  0
    5.1018    1.0097    4.1144 H   0  0  0  0  0  0  0  0  0  0  0  0
    6.6679    0.5835    2.2516 H   0  0  0  0  0  0  0  0  0  0  0  0
  1  2  1  0
  2  3  2  0
  3  4  1  0
  4  5  1  0
  5  6  2  0
  5  7  1  0
  7  8  1  0
  8  9  2  0
  9 10  1  0
 10 11  2  0
 11 12  1  0
 11 13  1  0
 13 14  1  0
 14 15  2  0
 14 16  2  0
 14 17  1  0
 17 18  1  0
 18 19  1  0
 19 20  1  0
 20 21  1  0
 21 22  1  0
 13 23  2  0
  4 24  2  0
 24 25  1  0
 25 26  2  0
 26 27  1  0
 27 28  2  0
 28 29  1  0
 29 30  2  0
 30  2  1  0
 23  8  1  0
 29 24  1  0
 22 17  1  0
  1 31  1  0
  1 32  1  0
  1 33  1  0
  3 34  1  0
  7 35  1  0
  9 36  1  0
 10 37  1  0
 12 38  1  0
 12 39  1  0
 12 40  1  0
 18 41  1  0
 18 42  1  0
 19 43  1  0
 19 44  1  0
 21 45  1  0
 21 46  1  0
 22 47  1  0
 22 48  1  0
 23 49  1  0
 25 50  1  0
 26 51  1  0
 27 52  1  0
 28 53  1  0
M  END
$$$$
