
     RDKit          3D

 62 65  0  0  0  0  0  0  0  0999 V2000
    9.6923   -2.6161    0.5416 C   0  0  0  0  0  0  0  0  0  0  0  0
    8.2857   -2.7821    1.0885 C   0  0  0  0  0  0  0  0  0  0  0  0
    7.3851   -1.8790    0.4285 O   0  0  0  0  0  0  0  0  0  0  0  0
    6.8377   -2.3240   -0.7360 C   0  0  0  0  0  0  0  0  0  0  0  0
    7.0639   -3.4265   -1.2180 O   0  0  0  0  0  0  0  0  0  0  0  0
    5.9865   -1.3930   -1.3080 N   0  0  0  0  0  0  0  0  0  0  0  0
    5.4710   -0.2439   -0.5697 C   0  0  0  0  0  0  0  0  0  0  0  0
    4.0895   -0.5734    0.0202 C   0  0  0  0  0  0  0  0  0  0  0  0
    3.1669   -1.1283   -0.9896 N   0  0  0  0  0  0  0  0  0  0  0  0
    1.7748   -1.0872   -0.8642 C   0  0  0  0  0  0  0  0  0  0  0  0
    1.0451   -1.7836   -1.5719 O   0  0  0  0  0  0  0  0  0  0  0  0
    1.2012   -0.1191    0.1807 C   0  0  0  0  0  0  0  0  0  0  0  0
   -0.2222   -0.1228    0.1420 O   0  0  0  0  0  0  0  0  0  0  0  0
   -0.8543    0.9033    0.7902 C   0  0  0  0  0  0  0  0  0  0  0  0
   -0.3213    1.5712    1.8974 C   0  0  0  0  0  0  0  0  0  0  0  0
   -1.0293    2.6111    2.5024 C   0  0  0  0  0  0  0  0  0  0  0  0
   -2.2759    2.9864    2.0060 C   0  0  0  0  0  0  0  0  0  0  0  0
   -2.8287    2.3094    0.9120 C   0  0  0  0  0  0  0  0  0  0  0  0
   -2.1281    1.2503    0.3085 C   0  0  0  0  0  0  0  0  0  0  0  0
   -2.7269    0.5673   -0.8941 C   0  0  0  0  0  0  0  0  0  0  0  0
   -4.2479    0.5957   -0.8182 C   0  0  0  0  0  0  0  0  0  0  0  0
   -4.7546    1.9413   -0.5763 N   0  0  0  0  0  0  0  0  0  0  0  0
   -6.1056    2.2572   -1.0298 C   0  0  0  0  0  0  0  0  0  0  0  0
   -7.1762    1.5658   -0.2261 C   0  0  0  0  0  0  0  0  0  0  0  0
   -7.5829    2.0721    1.0172 C   0  0  0  0  0  0  0  0  0  0  0  0
   -8.5692    1.4191    1.7612 C   0  0  0  0  0  0  0  0  0  0  0  0
   -9.1579    0.2519    1.2741 C   0  0  0  0  0  0  0  0  0  0  0  0
   -8.7574   -0.2643    0.0429 C   0  0  0  0  0  0  0  0  0  0  0  0
   -7.7743    0.3925   -0.6933 C   0  0  0  0  0  0  0  0  0  0  0  0
   -7.3990   -0.1270   -1.8715 F   0  0  0  0  0  0  0  0  0  0  0  0
   -4.1560    2.7484    0.3875 C   0  0  0  0  0  0  0  0  0  0  0  0
   -4.6595    3.7867    0.8108 O   0  0  0  0  0  0  0  0  0  0  0  0
    3.7272   -2.1802   -1.8618 C   0  0  0  0  0  0  0  0  0  0  0  0
    5.1188   -1.8188   -2.4021 C   0  0  0  0  0  0  0  0  0  0  0  0
    9.7287   -2.8505   -0.5276 H   0  0  0  0  0  0  0  0  0  0  0  0
   10.0280   -1.5793    0.6522 H   0  0  0  0  0  0  0  0  0  0  0  0
   10.3919   -3.2719    1.0697 H   0  0  0  0  0  0  0  0  0  0  0  0
    8.2735   -2.5247    2.1535 H   0  0  0  0  0  0  0  0  0  0  0  0
    7.9418   -3.8200    1.0078 H   0  0  0  0  0  0  0  0  0  0  0  0
    5.3844    0.5866   -1.2807 H   0  0  0  0  0  0  0  0  0  0  0  0
    6.1562    0.0716    0.2222 H   0  0  0  0  0  0  0  0  0  0  0  0
    4.1830   -1.3302    0.8084 H   0  0  0  0  0  0  0  0  0  0  0  0
    3.6698    0.3274    0.4740 H   0  0  0  0  0  0  0  0  0  0  0  0
    1.5367   -0.4574    1.1674 H   0  0  0  0  0  0  0  0  0  0  0  0
    1.5797    0.8839   -0.0506 H   0  0  0  0  0  0  0  0  0  0  0  0
    0.6390    1.2945    2.3203 H   0  0  0  0  0  0  0  0  0  0  0  0
   -0.6108    3.1306    3.3612 H   0  0  0  0  0  0  0  0  0  0  0  0
   -2.8182    3.8057    2.4747 H   0  0  0  0  0  0  0  0  0  0  0  0
   -2.3812    1.0914   -1.7945 H   0  0  0  0  0  0  0  0  0  0  0  0
   -2.4044   -0.4778   -0.9641 H   0  0  0  0  0  0  0  0  0  0  0  0
   -4.6049   -0.0451   -0.0015 H   0  0  0  0  0  0  0  0  0  0  0  0
   -4.6617    0.2190   -1.7603 H   0  0  0  0  0  0  0  0  0  0  0  0
   -6.2676    3.3414   -0.9834 H   0  0  0  0  0  0  0  0  0  0  0  0
   -6.1783    1.9907   -2.0912 H   0  0  0  0  0  0  0  0  0  0  0  0
   -7.1277    2.9799    1.4121 H   0  0  0  0  0  0  0  0  0  0  0  0
   -8.8762    1.8241    2.7233 H   0  0  0  0  0  0  0  0  0  0  0  0
   -9.9247   -0.2550    1.8549 H   0  0  0  0  0  0  0  0  0  0  0  0
   -9.2027   -1.1741   -0.3474 H   0  0  0  0  0  0  0  0  0  0  0  0
    3.7828   -3.0924   -1.2548 H   0  0  0  0  0  0  0  0  0  0  0  0
    3.0519   -2.3802   -2.7003 H   0  0  0  0  0  0  0  0  0  0  0  0
    5.5493   -2.6685   -2.9415 H   0  0  0  0  0  0  0  0  0  0  0  0
    5.0432   -0.9802   -3.1047 H   0  0  0  0  0  0  0  0  0  0  0  0
  1  2  1  0
  2  3  1  0
  3  4  1  0
  4  5  2  0
  4  6  1  0
  6  7  1  0
  7  8  1  0
  8  9  1  0
  9 10  1  0
 10 11  2  0
 10 12  1  0
 12 13  1  0
 13 14  1  0
 14 15  2  0
 15 16  1  0
 16 17  2  0
 17 18  1  0
 18 19  2  0
 19 20  1  0
 20 21  1  0
 21 22  1  0
 22 23  1  0
 23 24  1  0
 24 25  2  0
 25 26  1  0
 26 27  2  0
 27 28  1  0
 28 29  2  0
 29 30  1  0
 22 31  1  0
 31 32  2  0
  9 33  1  0
 33 34  1  0
 34  6  1  0
 19 14  1  0
 29 24  1  0
 31 18  1  0
  1 35  1  0
  1 36  1  0
  1 37  1  0
  2 38  1  0
  2 39  1  0
  7 40  1  0
  7 41  1  0
  8 42  1  0
  8 43  1  0
 12 44  1  0
 12 45  1  0
 15 46  1  0
 16 47  1  0
 17 48  1  0
 20 49  1  0
 20 50  1  0
 21 51  1  0
 21 52  1  0
 23 53  1  0
 23 54  1  0
 25 55  1  0
 26 56  1  0
 27 57  1  0
 28 58  1  0
 33 59  1  0
 33 60  1  0
 34 61  1  0
 34 62  1  0
M  END
$$$$
