
     RDKit          3D

 44 46  0  0  0  0  0  0  0  0999 V2000
    0.1720    0.0192   -3.5407 C   0  0  0  0  0  0  0  0  0  0  0  0
    0.0216   -1.0525   -2.6082 O   0  0  0  0  0  0  0  0  0  0  0  0
   -0.0251   -0.5800   -1.3184 C   0  0  0  0  0  0  0  0  0  0  0  0
   -1.2487   -0.7122   -0.6560 C   0  0  0  0  0  0  0  0  0  0  0  0
   -1.3768   -0.2752    0.6631 C   0  0  0  0  0  0  0  0  0  0  0  0
   -2.6655   -0.3981    1.3522 C   0  0  0  0  0  0  0  0  0  0  0  0
   -3.5092    0.6264    1.5940 C   0  0  0  0  0  0  0  0  0  0  0  0
   -3.2144    1.9666    1.1929 C   0  0  0  0  0  0  0  0  0  0  0  0
   -2.9576    3.0430    0.8379 N   0  0  0  0  0  0  0  0  0  0  0  0
   -4.7714    0.3828    2.3158 C   0  0  0  0  0  0  0  0  0  0  0  0
   -5.6599   -0.6214    1.9298 C   0  0  0  0  0  0  0  0  0  0  0  0
   -6.8382   -0.7915    2.6540 C   0  0  0  0  0  0  0  0  0  0  0  0
   -7.1023    0.0427    3.7327 C   0  0  0  0  0  0  0  0  0  0  0  0
   -6.1720    1.0168    4.0469 C   0  0  0  0  0  0  0  0  0  0  0  0
   -5.0184    1.2020    3.3672 N   0  0  0  0  0  0  0  0  0  0  0  0
   -0.2689    0.2746    1.3150 C   0  0  0  0  0  0  0  0  0  0  0  0
    0.9646    0.3764    0.6596 C   0  0  0  0  0  0  0  0  0  0  0  0
    1.1025   -0.0663   -0.6586 C   0  0  0  0  0  0  0  0  0  0  0  0
    2.2692   -0.0322   -1.3722 O   0  0  0  0  0  0  0  0  0  0  0  0
    3.4799    0.1703   -0.6458 C   0  0  0  0  0  0  0  0  0  0  0  0
    4.6585   -0.0609   -1.5662 C   0  0  0  0  0  0  0  0  0  0  0  0
    4.6709   -1.1454   -2.4598 C   0  0  0  0  0  0  0  0  0  0  0  0
    5.7743   -1.3745   -3.2849 C   0  0  0  0  0  0  0  0  0  0  0  0
    6.8781   -0.5270   -3.2144 C   0  0  0  0  0  0  0  0  0  0  0  0
    8.2370   -0.8072   -4.2310 Cl  0  0  0  0  0  0  0  0  0  0  0  0
    6.8900    0.5452   -2.3228 C   0  0  0  0  0  0  0  0  0  0  0  0
    5.7854    0.7748   -1.4976 C   0  0  0  0  0  0  0  0  0  0  0  0
    1.1992    0.4012   -3.5528 H   0  0  0  0  0  0  0  0  0  0  0  0
   -0.5369    0.8337   -3.3401 H   0  0  0  0  0  0  0  0  0  0  0  0
   -0.0463   -0.3796   -4.5366 H   0  0  0  0  0  0  0  0  0  0  0  0
   -2.0927   -1.1465   -1.1851 H   0  0  0  0  0  0  0  0  0  0  0  0
   -2.9000   -1.4089    1.6779 H   0  0  0  0  0  0  0  0  0  0  0  0
   -5.4520   -1.2626    1.0783 H   0  0  0  0  0  0  0  0  0  0  0  0
   -7.5471   -1.5676    2.3750 H   0  0  0  0  0  0  0  0  0  0  0  0
   -8.0126   -0.0618    4.3139 H   0  0  0  0  0  0  0  0  0  0  0  0
   -6.3302    1.6941    4.8813 H   0  0  0  0  0  0  0  0  0  0  0  0
   -0.3518    0.6293    2.3411 H   0  0  0  0  0  0  0  0  0  0  0  0
    1.7925    0.8138    1.2072 H   0  0  0  0  0  0  0  0  0  0  0  0
    3.5056    1.2007   -0.2730 H   0  0  0  0  0  0  0  0  0  0  0  0
    3.5587   -0.5350    0.1912 H   0  0  0  0  0  0  0  0  0  0  0  0
    3.8118   -1.8134   -2.5216 H   0  0  0  0  0  0  0  0  0  0  0  0
    5.7638   -2.2129   -3.9770 H   0  0  0  0  0  0  0  0  0  0  0  0
    7.7530    1.2048   -2.2656 H   0  0  0  0  0  0  0  0  0  0  0  0
    5.8097    1.6146   -0.8050 H   0  0  0  0  0  0  0  0  0  0  0  0
  1  2  1  0
  2  3  1  0
  3  4  2  0
  4  5  1  0
  5  6  1  0
  6  7  2  3
  7  8  1  0
  8  9  3  0
  7 10  1  0
 10 11  2  0
 11 12  1  0
 12 13  2  0
 13 14  1  0
 14 15  2  0
  5 16  2  0
 16 17  1  0
 17 18  2  0
 18 19  1  0
 19 20  1  0
 20 21  1  0
 21 22  2  0
 22 23  1  0
 23 24  2  0
 24 25  1  0
 24 26  1  0
 26 27  2  0
 18  3  1  0
 27 21  1  0
 15 10  1  0
  1 28  1  0
  1 29  1  0
  1 30  1  0
  4 31  1  0
  6 32  1  0
 11 33  1  0
 12 34  1  0
 13 35  1  0
 14 36  1  0
 16 37  1  0
 17 38  1  0
 20 39  1  0
 20 40  1  0
 22 41  1  0
 23 42  1  0
 26 43  1  0
 27 44  1  0
M  END
$$$$
