
     RDKit          3D

 39 41  0  0  0  0  0  0  0  0999 V2000
   -2.1662   -1.1483   -2.3946 C   0  0  0  0  0  0  0  0  0  0  0  0
   -2.8555   -0.5167   -1.2146 C   0  0  0  0  0  0  0  0  0  0  0  0
   -4.2311   -0.2542   -1.3639 C   0  0  0  0  0  0  0  0  0  0  0  0
   -4.9935    0.2241   -0.3046 C   0  0  0  0  0  0  0  0  0  0  0  0
   -4.3939    0.4453    0.9283 C   0  0  0  0  0  0  0  0  0  0  0  0
   -3.0182    0.2231    1.1069 C   0  0  0  0  0  0  0  0  0  0  0  0
   -2.4308    0.5136    2.4642 C   0  0  0  0  0  0  0  0  0  0  0  0
   -2.2291   -0.2245    0.0164 C   0  0  0  0  0  0  0  0  0  0  0  0
   -0.8437   -0.4113    0.2525 N   0  0  0  0  0  0  0  0  0  0  0  0
    0.1877   -0.0958   -0.6211 C   0  0  0  0  0  0  0  0  0  0  0  0
    0.0698    0.4196   -1.7262 O   0  0  0  0  0  0  0  0  0  0  0  0
    1.5543   -0.4478   -0.0312 C   0  0  0  0  0  0  0  0  0  0  0  0
    1.9169    0.4377    1.1802 C   0  0  0  0  0  0  0  0  0  0  0  0
    3.2749    1.0400    0.7772 C   0  0  0  0  0  0  0  0  0  0  0  0
    4.3397   -0.0703    0.7772 C   0  0  0  0  0  0  0  0  0  0  0  0
    3.9777   -0.8975   -0.4656 C   0  0  0  0  0  0  0  0  0  0  0  0
    2.7271   -0.1793   -1.0044 C   0  0  0  0  0  0  0  0  0  0  0  0
    3.0737    1.2837   -0.7158 C   0  0  0  0  0  0  0  0  0  0  0  0
   -1.3306   -1.7836   -2.0873 H   0  0  0  0  0  0  0  0  0  0  0  0
   -2.8569   -1.8094   -2.9316 H   0  0  0  0  0  0  0  0  0  0  0  0
   -1.8243   -0.3821   -3.0959 H   0  0  0  0  0  0  0  0  0  0  0  0
   -4.7213   -0.4485   -2.3164 H   0  0  0  0  0  0  0  0  0  0  0  0
   -6.0558    0.4100   -0.4380 H   0  0  0  0  0  0  0  0  0  0  0  0
   -5.0070    0.8067    1.7511 H   0  0  0  0  0  0  0  0  0  0  0  0
   -1.6331    1.2593    2.3834 H   0  0  0  0  0  0  0  0  0  0  0  0
   -3.1814    0.9153    3.1534 H   0  0  0  0  0  0  0  0  0  0  0  0
   -2.0350   -0.4045    2.9102 H   0  0  0  0  0  0  0  0  0  0  0  0
   -0.5674   -0.4683    1.2223 H   0  0  0  0  0  0  0  0  0  0  0  0
    1.5225   -1.5084    0.2493 H   0  0  0  0  0  0  0  0  0  0  0  0
    1.1824    1.2359    1.3386 H   0  0  0  0  0  0  0  0  0  0  0  0
    1.9866   -0.1482    2.1028 H   0  0  0  0  0  0  0  0  0  0  0  0
    3.5557    1.9157    1.3655 H   0  0  0  0  0  0  0  0  0  0  0  0
    4.3194   -0.6712    1.6919 H   0  0  0  0  0  0  0  0  0  0  0  0
    5.3447    0.3524    0.6676 H   0  0  0  0  0  0  0  0  0  0  0  0
    3.7915   -1.9482   -0.2223 H   0  0  0  0  0  0  0  0  0  0  0  0
    4.7941   -0.8565   -1.1957 H   0  0  0  0  0  0  0  0  0  0  0  0
    2.5157   -0.4064   -2.0516 H   0  0  0  0  0  0  0  0  0  0  0  0
    2.2569    1.9792   -0.9335 H   0  0  0  0  0  0  0  0  0  0  0  0
    3.9836    1.6193   -1.2247 H   0  0  0  0  0  0  0  0  0  0  0  0
  1  2  1  0
  2  3  2  0
  3  4  1  0
  4  5  2  0
  5  6  1  0
  6  7  1  0
  6  8  2  0
  8  9  1  0
  9 10  1  0
 10 11  2  0
 10 12  1  0
 12 13  1  0
 13 14  1  0
 14 15  1  0
 15 16  1  0
 16 17  1  0
 17 18  1  0
  8  2  1  0
 17 12  1  0
 18 14  1  0
  1 19  1  0
  1 20  1  0
  1 21  1  0
  3 22  1  0
  4 23  1  0
  5 24  1  0
  7 25  1  0
  7 26  1  0
  7 27  1  0
  9 28  1  0
 12 29  1  0
 13 30  1  0
 13 31  1  0
 14 32  1  0
 15 33  1  0
 15 34  1  0
 16 35  1  0
 16 36  1  0
 17 37  1  0
 18 38  1  0
 18 39  1  0
M  END
$$$$
