
     RDKit          3D

 45 48  0  0  0  0  0  0  0  0999 V2000
   -3.2273   -2.6540   -1.3436 C   0  0  0  0  0  0  0  0  0  0  0  0
   -3.1286   -1.3582   -0.6212 C   0  0  0  0  0  0  0  0  0  0  0  0
   -4.1507   -0.4365   -0.4236 C   0  0  0  0  0  0  0  0  0  0  0  0
   -5.4266   -0.4349   -0.7889 O   0  0  0  0  0  0  0  0  0  0  0  0
   -3.6345    0.6037    0.2896 N   0  0  0  0  0  0  0  0  0  0  0  0
   -2.3116    0.3824    0.5690 C   0  0  0  0  0  0  0  0  0  0  0  0
   -1.4704    1.2367    1.2848 C   0  0  0  0  0  0  0  0  0  0  0  0
   -0.1604    0.7950    1.4741 C   0  0  0  0  0  0  0  0  0  0  0  0
    0.2497   -0.4300    0.9288 C   0  0  0  0  0  0  0  0  0  0  0  0
    1.9260   -0.9786    1.1548 S   0  0  0  0  0  6  0  0  0  0  0  0
    1.8611   -2.3416    1.6387 O   0  0  0  0  0  0  0  0  0  0  0  0
    2.6461    0.0394    1.8902 O   0  0  0  0  0  0  0  0  0  0  0  0
    2.5273   -1.0029   -0.4396 N   0  0  0  0  0  0  0  0  0  0  0  0
    2.5805    0.2797   -1.1856 C   0  0  0  0  0  0  0  0  0  0  0  0
    3.8612    1.0583   -0.9023 C   0  0  0  0  0  0  0  0  0  0  0  0
    5.1043    0.2001   -1.1125 C   0  0  0  0  0  0  0  0  0  0  0  0
    5.0063   -1.1035   -0.3270 C   0  0  0  0  0  0  0  0  0  0  0  0
    3.7236   -1.8506   -0.6683 C   0  0  0  0  0  0  0  0  0  0  0  0
   -0.6268   -1.2634    0.2041 C   0  0  0  0  0  0  0  0  0  0  0  0
   -1.9542   -0.8356    0.0212 C   0  0  0  0  0  0  0  0  0  0  0  0
   -2.0452    2.5081    1.8392 C   0  0  0  0  0  0  0  0  0  0  0  0
   -3.2796    2.9463    1.0167 C   0  0  0  0  0  0  0  0  0  0  0  0
   -4.2920    1.8059    0.7758 C   0  0  0  0  0  0  0  0  0  0  0  0
   -3.6917   -3.4092   -0.7017 H   0  0  0  0  0  0  0  0  0  0  0  0
   -2.2417   -3.0203   -1.6466 H   0  0  0  0  0  0  0  0  0  0  0  0
   -3.8337   -2.5491   -2.2490 H   0  0  0  0  0  0  0  0  0  0  0  0
   -5.5928   -1.2689   -1.2616 H   0  0  0  0  0  0  0  0  0  0  0  0
    0.5375    1.4052    2.0437 H   0  0  0  0  0  0  0  0  0  0  0  0
    2.5171    0.0464   -2.2560 H   0  0  0  0  0  0  0  0  0  0  0  0
    1.7073    0.9002   -0.9643 H   0  0  0  0  0  0  0  0  0  0  0  0
    3.9075    1.9362   -1.5570 H   0  0  0  0  0  0  0  0  0  0  0  0
    3.8543    1.4375    0.1252 H   0  0  0  0  0  0  0  0  0  0  0  0
    5.9971    0.7555   -0.8046 H   0  0  0  0  0  0  0  0  0  0  0  0
    5.2178   -0.0235   -2.1804 H   0  0  0  0  0  0  0  0  0  0  0  0
    5.8723   -1.7351   -0.5548 H   0  0  0  0  0  0  0  0  0  0  0  0
    5.0423   -0.8874    0.7472 H   0  0  0  0  0  0  0  0  0  0  0  0
    3.7311   -2.1506   -1.7238 H   0  0  0  0  0  0  0  0  0  0  0  0
    3.6591   -2.7807   -0.0948 H   0  0  0  0  0  0  0  0  0  0  0  0
   -0.2836   -2.2131   -0.1958 H   0  0  0  0  0  0  0  0  0  0  0  0
   -1.2948    3.3061    1.8165 H   0  0  0  0  0  0  0  0  0  0  0  0
   -2.3341    2.3407    2.8832 H   0  0  0  0  0  0  0  0  0  0  0  0
   -2.9342    3.3143    0.0408 H   0  0  0  0  0  0  0  0  0  0  0  0
   -3.7777    3.7860    1.5141 H   0  0  0  0  0  0  0  0  0  0  0  0
   -5.0395    2.1116    0.0370 H   0  0  0  0  0  0  0  0  0  0  0  0
   -4.7978    1.5324    1.7084 H   0  0  0  0  0  0  0  0  0  0  0  0
  1  2  1  0
  2  3  2  0
  3  4  1  0
  3  5  1  0
  5  6  1  0
  6  7  2  0
  7  8  1  0
  8  9  2  0
  9 10  1  0
 10 11  2  0
 10 12  2  0
 10 13  1  0
 13 14  1  0
 14 15  1  0
 15 16  1  0
 16 17  1  0
 17 18  1  0
  9 19  1  0
 19 20  2  0
  7 21  1  0
 21 22  1  0
 22 23  1  0
 20  2  1  0
 23  5  1  0
 20  6  1  0
 18 13  1  0
  1 24  1  0
  1 25  1  0
  1 26  1  0
  4 27  1  0
  8 28  1  0
 14 29  1  0
 14 30  1  0
 15 31  1  0
 15 32  1  0
 16 33  1  0
 16 34  1  0
 17 35  1  0
 17 36  1  0
 18 37  1  0
 18 38  1  0
 19 39  1  0
 21 40  1  0
 21 41  1  0
 22 42  1  0
 22 43  1  0
 23 44  1  0
 23 45  1  0
M  END
$$$$
