
     RDKit          3D

 45 47  0  0  0  0  0  0  0  0999 V2000
    3.9530    1.0571   -4.4393 O   0  0  0  0  0  0  0  0  0  0  0  0
    2.8696    1.1325   -3.8828 C   0  0  0  0  0  0  0  0  0  0  0  0
    1.9897    2.3857   -3.8803 C   0  0  0  0  0  0  0  0  0  0  0  0
    0.8371    2.2515   -2.9946 N   0  0  0  0  0  0  0  0  0  0  0  0
    1.0268    2.4623   -1.6390 C   0  0  0  0  0  0  0  0  0  0  0  0
    2.0282    3.0004   -1.1784 O   0  0  0  0  0  0  0  0  0  0  0  0
   -0.0107    1.8959   -0.7329 C   0  0  0  0  0  0  0  0  0  0  0  0
   -1.3439    1.7382   -1.1275 C   0  0  0  0  0  0  0  0  0  0  0  0
   -2.2695    1.1554   -0.2499 C   0  0  0  0  0  0  0  0  0  0  0  0
   -1.8898    0.7258    1.0356 C   0  0  0  0  0  0  0  0  0  0  0  0
   -2.8631    0.0985    1.9504 C   0  0  0  0  0  0  0  0  0  0  0  0
   -4.1287    0.6665    2.1742 C   0  0  0  0  0  0  0  0  0  0  0  0
   -5.0441    0.0736    3.0492 C   0  0  0  0  0  0  0  0  0  0  0  0
   -4.7092   -1.0983    3.7193 C   0  0  0  0  0  0  0  0  0  0  0  0
   -3.4630   -1.6805    3.5139 C   0  0  0  0  0  0  0  0  0  0  0  0
   -2.5512   -1.0891    2.6336 C   0  0  0  0  0  0  0  0  0  0  0  0
   -0.5493    0.9138    1.4203 C   0  0  0  0  0  0  0  0  0  0  0  0
    0.3803    1.4945    0.5490 C   0  0  0  0  0  0  0  0  0  0  0  0
    2.2586    0.1076   -3.2346 O   0  0  0  0  0  0  0  0  0  0  0  0
    3.0466   -1.0601   -2.9980 C   0  0  0  0  0  0  0  0  0  0  0  0
    2.6364   -1.5655   -1.6380 C   0  0  0  0  0  0  0  0  0  0  0  0
    1.4763   -2.3394   -1.4810 C   0  0  0  0  0  0  0  0  0  0  0  0
    1.0690   -2.7541   -0.2087 C   0  0  0  0  0  0  0  0  0  0  0  0
    1.8180   -2.3896    0.9103 C   0  0  0  0  0  0  0  0  0  0  0  0
    1.3154   -2.8872    2.4776 Cl  0  0  0  0  0  0  0  0  0  0  0  0
    2.9674   -1.6147    0.7712 C   0  0  0  0  0  0  0  0  0  0  0  0
    3.3718   -1.1974   -0.4996 C   0  0  0  0  0  0  0  0  0  0  0  0
    2.5959    3.2433   -3.5727 H   0  0  0  0  0  0  0  0  0  0  0  0
    1.6027    2.5368   -4.8927 H   0  0  0  0  0  0  0  0  0  0  0  0
    0.1853    1.5218   -3.2413 H   0  0  0  0  0  0  0  0  0  0  0  0
   -1.6862    2.0739   -2.1049 H   0  0  0  0  0  0  0  0  0  0  0  0
   -3.2968    1.0273   -0.5856 H   0  0  0  0  0  0  0  0  0  0  0  0
   -4.4098    1.5929    1.6778 H   0  0  0  0  0  0  0  0  0  0  0  0
   -6.0158    0.5340    3.2087 H   0  0  0  0  0  0  0  0  0  0  0  0
   -5.4165   -1.5559    4.4018 H   0  0  0  0  0  0  0  0  0  0  0  0
   -3.1937   -2.5935    4.0358 H   0  0  0  0  0  0  0  0  0  0  0  0
   -1.5867   -1.5697    2.4839 H   0  0  0  0  0  0  0  0  0  0  0  0
   -0.2137    0.6127    2.4121 H   0  0  0  0  0  0  0  0  0  0  0  0
    1.4153    1.6199    0.8700 H   0  0  0  0  0  0  0  0  0  0  0  0
    4.1251   -0.8591   -3.0164 H   0  0  0  0  0  0  0  0  0  0  0  0
    2.8220   -1.8067   -3.7731 H   0  0  0  0  0  0  0  0  0  0  0  0
    0.8782   -2.6146   -2.3480 H   0  0  0  0  0  0  0  0  0  0  0  0
    0.1668   -3.3497   -0.0960 H   0  0  0  0  0  0  0  0  0  0  0  0
    3.5471   -1.3233    1.6430 H   0  0  0  0  0  0  0  0  0  0  0  0
    4.2590   -0.5735   -0.5955 H   0  0  0  0  0  0  0  0  0  0  0  0
  1  2  2  0
  2  3  1  0
  3  4  1  0
  4  5  1  0
  5  6  2  0
  5  7  1  0
  7  8  2  0
  8  9  1  0
  9 10  2  0
 10 11  1  0
 11 12  2  0
 12 13  1  0
 13 14  2  0
 14 15  1  0
 15 16  2  0
 10 17  1  0
 17 18  2  0
  2 19  1  0
 19 20  1  0
 20 21  1  0
 21 22  2  0
 22 23  1  0
 23 24  2  0
 24 25  1  0
 24 26  1  0
 26 27  2  0
 18  7  1  0
 27 21  1  0
 16 11  1  0
  3 28  1  0
  3 29  1  0
  4 30  1  0
  8 31  1  0
  9 32  1  0
 12 33  1  0
 13 34  1  0
 14 35  1  0
 15 36  1  0
 16 37  1  0
 17 38  1  0
 18 39  1  0
 20 40  1  0
 20 41  1  0
 22 42  1  0
 23 43  1  0
 26 44  1  0
 27 45  1  0
M  END
$$$$
