
     RDKit          3D

 57 59  0  0  0  0  0  0  0  0999 V2000
    4.7852   -3.2317   -1.1518 C   0  0  0  0  0  0  0  0  0  0  0  0
    5.3931   -3.0535    0.2408 C   0  0  0  0  0  0  0  0  0  0  0  0
    6.7754   -2.4027    0.1442 C   0  0  0  0  0  0  0  0  0  0  0  0
    4.4530   -2.3081    1.2064 C   0  0  0  0  0  0  0  0  0  0  0  0
    4.1218   -0.8978    0.8330 C   0  0  0  0  0  0  0  0  0  0  0  0
    3.0295   -0.4235    0.0687 C   0  0  0  0  0  0  0  0  0  0  0  0
    3.1767    0.9436    0.0738 C   0  0  0  0  0  0  0  0  0  0  0  0
    2.4167    2.0731   -0.4972 C   0  0  0  0  0  0  0  0  0  0  0  0
    1.0864    2.0650    0.0737 N   0  0  0  0  0  0  0  0  0  0  0  0
    0.3979    3.2220    0.3508 C   0  0  0  0  0  0  0  0  0  0  0  0
    0.8485    4.3447    0.1307 O   0  0  0  0  0  0  0  0  0  0  0  0
   -0.9905    3.0199    0.9495 C   0  0  0  0  0  0  0  0  0  0  0  0
   -0.9270    2.2680    2.2896 C   0  0  0  0  0  0  0  0  0  0  0  0
   -1.8931    1.0915    2.3674 C   0  0  0  0  0  0  0  0  0  0  0  0
   -1.7909    0.2001    1.1483 C   0  0  0  0  0  0  0  0  0  0  0  0
   -1.7985   -1.0258    1.2358 O   0  0  0  0  0  0  0  0  0  0  0  0
   -1.7227    0.8854   -0.0622 N   0  0  0  0  0  0  0  0  0  0  0  0
   -1.9224    0.1480   -1.3101 C   0  0  0  0  0  0  0  0  0  0  0  0
   -3.3744    0.1101   -1.7290 C   0  0  0  0  0  0  0  0  0  0  0  0
   -3.8682    1.0148   -2.6778 C   0  0  0  0  0  0  0  0  0  0  0  0
   -5.2142    0.9960   -3.0381 C   0  0  0  0  0  0  0  0  0  0  0  0
   -6.0826    0.0776   -2.4513 C   0  0  0  0  0  0  0  0  0  0  0  0
   -5.6151   -0.8347   -1.4959 C   0  0  0  0  0  0  0  0  0  0  0  0
   -6.5629   -1.8294   -0.8753 C   0  0  0  0  0  0  0  0  0  0  0  0
   -7.6884   -1.2395   -0.3868 F   0  0  0  0  0  0  0  0  0  0  0  0
   -6.0240   -2.5277    0.1654 F   0  0  0  0  0  0  0  0  0  0  0  0
   -6.9908   -2.7644   -1.7689 F   0  0  0  0  0  0  0  0  0  0  0  0
   -4.2569   -0.8116   -1.1448 C   0  0  0  0  0  0  0  0  0  0  0  0
   -1.8974    2.3364   -0.0732 C   0  0  0  0  0  0  0  0  0  0  0  0
    4.2878    1.2673    0.7876 O   0  0  0  0  0  0  0  0  0  0  0  0
    4.8798    0.1158    1.2708 N   0  0  0  0  0  0  0  0  0  0  0  0
    3.7875   -3.6744   -1.0903 H   0  0  0  0  0  0  0  0  0  0  0  0
    4.7046   -2.2788   -1.6826 H   0  0  0  0  0  0  0  0  0  0  0  0
    5.4080   -3.8971   -1.7590 H   0  0  0  0  0  0  0  0  0  0  0  0
    5.5407   -4.0587    0.6617 H   0  0  0  0  0  0  0  0  0  0  0  0
    7.4656   -3.0504   -0.4095 H   0  0  0  0  0  0  0  0  0  0  0  0
    6.7337   -1.4377   -0.3754 H   0  0  0  0  0  0  0  0  0  0  0  0
    7.2047   -2.2375    1.1415 H   0  0  0  0  0  0  0  0  0  0  0  0
    4.9002   -2.3120    2.2124 H   0  0  0  0  0  0  0  0  0  0  0  0
    3.5147   -2.8788    1.2968 H   0  0  0  0  0  0  0  0  0  0  0  0
    2.2467   -1.0016   -0.4025 H   0  0  0  0  0  0  0  0  0  0  0  0
    2.3127    1.9525   -1.5769 H   0  0  0  0  0  0  0  0  0  0  0  0
    2.9124    3.0269   -0.3057 H   0  0  0  0  0  0  0  0  0  0  0  0
    0.5962    1.1795    0.1325 H   0  0  0  0  0  0  0  0  0  0  0  0
   -1.3884    4.0262    1.1322 H   0  0  0  0  0  0  0  0  0  0  0  0
   -1.1608    2.9682    3.1029 H   0  0  0  0  0  0  0  0  0  0  0  0
    0.0885    1.9096    2.4961 H   0  0  0  0  0  0  0  0  0  0  0  0
   -1.6735    0.4946    3.2620 H   0  0  0  0  0  0  0  0  0  0  0  0
   -2.9268    1.4432    2.4509 H   0  0  0  0  0  0  0  0  0  0  0  0
   -1.5450   -0.8775   -1.2033 H   0  0  0  0  0  0  0  0  0  0  0  0
   -1.3072    0.6196   -2.0858 H   0  0  0  0  0  0  0  0  0  0  0  0
   -3.2073    1.7419   -3.1449 H   0  0  0  0  0  0  0  0  0  0  0  0
   -5.5876    1.6997   -3.7765 H   0  0  0  0  0  0  0  0  0  0  0  0
   -7.1308    0.0740   -2.7414 H   0  0  0  0  0  0  0  0  0  0  0  0
   -3.8809   -1.5175   -0.4026 H   0  0  0  0  0  0  0  0  0  0  0  0
   -2.9494    2.5415    0.1582 H   0  0  0  0  0  0  0  0  0  0  0  0
   -1.6907    2.7156   -1.0822 H   0  0  0  0  0  0  0  0  0  0  0  0
  1  2  1  0
  2  3  1  0
  2  4  1  0
  4  5  1  0
  5  6  1  0
  6  7  2  0
  7  8  1  0
  8  9  1  0
  9 10  1  0
 10 11  2  0
 10 12  1  0
 12 13  1  0
 13 14  1  0
 14 15  1  0
 15 16  2  0
 15 17  1  0
 17 18  1  0
 18 19  1  0
 19 20  2  0
 20 21  1  0
 21 22  2  0
 22 23  1  0
 23 24  1  0
 24 25  1  0
 24 26  1  0
 24 27  1  0
 23 28  2  0
 17 29  1  0
  7 30  1  0
 30 31  1  0
 31  5  2  0
 29 12  1  0
 28 19  1  0
  1 32  1  0
  1 33  1  0
  1 34  1  0
  2 35  1  0
  3 36  1  0
  3 37  1  0
  3 38  1  0
  4 39  1  0
  4 40  1  0
  6 41  1  0
  8 42  1  0
  8 43  1  0
  9 44  1  0
 12 45  1  0
 13 46  1  0
 13 47  1  0
 14 48  1  0
 14 49  1  0
 18 50  1  0
 18 51  1  0
 20 52  1  0
 21 53  1  0
 22 54  1  0
 28 55  1  0
 29 56  1  0
 29 57  1  0
M  END
$$$$
