
     RDKit          3D

 44 46  0  0  0  0  0  0  0  0999 V2000
    4.2774    1.7035   -2.0397 C   0  0  0  0  0  0  0  0  0  0  0  0
    2.9716    1.6758   -1.3868 N   0  0  0  0  0  0  0  0  0  0  0  0
    3.0660    1.2192    0.0159 C   0  0  0  0  0  0  0  0  0  0  0  0
    2.6766   -0.2502    0.2556 C   0  0  0  0  0  0  0  0  0  0  0  0
    1.3472   -0.5670   -0.2641 N   0  0  0  0  0  0  0  0  0  0  0  0
    0.6853   -1.6745    0.2427 C   0  0  0  0  0  0  0  0  0  0  0  0
    1.1728   -2.4406    1.0714 O   0  0  0  0  0  0  0  0  0  0  0  0
   -0.6727   -1.9814   -0.2516 C   0  0  0  0  0  0  0  0  0  0  0  0
   -0.7778   -3.0205   -1.1888 C   0  0  0  0  0  0  0  0  0  0  0  0
   -2.0278   -3.3966   -1.6729 C   0  0  0  0  0  0  0  0  0  0  0  0
   -3.1703   -2.7499   -1.2095 C   0  0  0  0  0  0  0  0  0  0  0  0
   -3.0655   -1.7278   -0.2599 C   0  0  0  0  0  0  0  0  0  0  0  0
   -1.8144   -1.3143    0.2383 C   0  0  0  0  0  0  0  0  0  0  0  0
   -1.7526   -0.2578    1.2695 C   0  0  0  0  0  0  0  0  0  0  0  0
   -1.2924   -0.5998    2.5586 C   0  0  0  0  0  0  0  0  0  0  0  0
   -1.2398    0.3386    3.5917 C   0  0  0  0  0  0  0  0  0  0  0  0
   -1.6546    1.6450    3.3652 C   0  0  0  0  0  0  0  0  0  0  0  0
   -2.1194    2.0129    2.1039 C   0  0  0  0  0  0  0  0  0  0  0  0
   -2.1733    1.0743    1.0559 C   0  0  0  0  0  0  0  0  0  0  0  0
   -2.6403    1.5402   -0.2773 C   0  0  0  0  0  0  0  0  0  0  0  0
   -2.2769    1.1496   -1.3696 O   0  0  0  0  0  0  0  0  0  0  0  0
   -3.5832    2.4962   -0.1664 O   0  0  0  0  0  0  0  0  0  0  0  0
    0.8518    0.3014   -1.3394 C   0  0  0  0  0  0  0  0  0  0  0  0
    2.0120    0.8720   -2.1754 C   0  0  0  0  0  0  0  0  0  0  0  0
    4.7466    0.7135   -2.0673 H   0  0  0  0  0  0  0  0  0  0  0  0
    4.9529    2.3907   -1.5183 H   0  0  0  0  0  0  0  0  0  0  0  0
    4.1868    2.0731   -3.0672 H   0  0  0  0  0  0  0  0  0  0  0  0
    2.3782    1.8475    0.5972 H   0  0  0  0  0  0  0  0  0  0  0  0
    4.0622    1.4109    0.4333 H   0  0  0  0  0  0  0  0  0  0  0  0
    3.3885   -0.9180   -0.2445 H   0  0  0  0  0  0  0  0  0  0  0  0
    2.7110   -0.4748    1.3277 H   0  0  0  0  0  0  0  0  0  0  0  0
    0.1159   -3.5370   -1.5310 H   0  0  0  0  0  0  0  0  0  0  0  0
   -2.1118   -4.1987   -2.4016 H   0  0  0  0  0  0  0  0  0  0  0  0
   -4.1492   -3.0456   -1.5792 H   0  0  0  0  0  0  0  0  0  0  0  0
   -3.9789   -1.2555    0.0979 H   0  0  0  0  0  0  0  0  0  0  0  0
   -0.9660   -1.6194    2.7679 H   0  0  0  0  0  0  0  0  0  0  0  0
   -0.8738    0.0425    4.5719 H   0  0  0  0  0  0  0  0  0  0  0  0
   -1.6136    2.3777    4.1671 H   0  0  0  0  0  0  0  0  0  0  0  0
   -2.4317    3.0420    1.9384 H   0  0  0  0  0  0  0  0  0  0  0  0
   -3.8132    2.7071   -1.0955 H   0  0  0  0  0  0  0  0  0  0  0  0
    0.3014    1.1198   -0.8649 H   0  0  0  0  0  0  0  0  0  0  0  0
    0.1640   -0.2470   -1.9886 H   0  0  0  0  0  0  0  0  0  0  0  0
    1.6058    1.4983   -2.9777 H   0  0  0  0  0  0  0  0  0  0  0  0
    2.5250    0.0247   -2.6510 H   0  0  0  0  0  0  0  0  0  0  0  0
  1  2  1  0
  2  3  1  0
  3  4  1  0
  4  5  1  0
  5  6  1  0
  6  7  2  0
  6  8  1  0
  8  9  2  0
  9 10  1  0
 10 11  2  0
 11 12  1  0
 12 13  2  0
 13 14  1  0
 14 15  2  0
 15 16  1  0
 16 17  2  0
 17 18  1  0
 18 19  2  0
 19 20  1  0
 20 21  2  0
 20 22  1  0
  5 23  1  0
 23 24  1  0
 24  2  1  0
 13  8  1  0
 19 14  1  0
  1 25  1  0
  1 26  1  0
  1 27  1  0
  3 28  1  0
  3 29  1  0
  4 30  1  0
  4 31  1  0
  9 32  1  0
 10 33  1  0
 11 34  1  0
 12 35  1  0
 15 36  1  0
 16 37  1  0
 17 38  1  0
 18 39  1  0
 22 40  1  0
 23 41  1  0
 23 42  1  0
 24 43  1  0
 24 44  1  0
M  END
$$$$
