
     RDKit          3D

 64 68  0  0  0  0  0  0  0  0999 V2000
    1.1375    0.7073    1.9583 O   0  0  0  0  0  0  0  0  0  0  0  0
    1.5652    0.6513    0.8043 C   0  0  0  0  0  0  0  0  0  0  0  0
    0.7472    1.2398   -0.3586 C   0  0  0  0  0  0  0  0  0  0  0  0
    0.1666    0.1076   -1.2205 C   0  0  0  0  0  0  0  0  0  0  0  0
   -1.2497    0.3883   -1.7034 C   0  0  0  0  0  0  0  0  0  0  0  0
   -2.2175    0.5827   -0.5286 C   0  0  0  0  0  0  0  0  0  0  0  0
   -3.5849    1.0192   -1.0766 C   0  0  0  0  0  0  0  0  0  0  0  0
   -4.5914    1.1237   -0.0219 N   0  0  0  0  0  0  0  0  0  0  0  0
   -5.6261    0.2095    0.1337 C   0  0  0  0  0  0  0  0  0  0  0  0
   -5.2890   -1.1159    0.2168 N   0  0  0  0  0  0  0  0  0  0  0  0
   -6.1597   -2.1520    0.4287 C   0  0  0  0  0  0  0  0  0  0  0  0
   -5.5193   -3.6961    0.5895 S   0  0  0  0  0  0  0  0  0  0  0  0
   -7.4972   -1.8750    0.5011 N   0  0  0  0  0  0  0  0  0  0  0  0
   -7.8587   -0.6332    0.4128 C   0  0  0  0  0  0  0  0  0  0  0  0
   -9.3139   -0.3083    0.4855 C   0  0  0  0  0  0  0  0  0  0  0  0
   -9.7439    0.9597    0.4021 C   0  0  0  0  0  0  0  0  0  0  0  0
   -8.8319    2.0666    0.2482 C   0  0  0  0  0  0  0  0  0  0  0  0
   -7.5068    1.8739    0.1696 C   0  0  0  0  0  0  0  0  0  0  0  0
   -6.9344    0.5375    0.2412 C   0  0  0  0  0  0  0  0  0  0  0  0
   -1.6527    1.5462    0.5348 C   0  0  0  0  0  0  0  0  0  0  0  0
   -0.3369    2.2166    0.1389 C   0  0  0  0  0  0  0  0  0  0  0  0
    2.7841    0.0485    0.5136 N   0  0  0  0  0  0  0  0  0  0  0  0
    3.3319   -0.1717   -0.8349 C   0  0  0  0  0  0  0  0  0  0  0  0
    4.8716   -0.1200   -0.8673 C   0  0  0  0  0  0  0  0  0  0  0  0
    5.4407   -1.0360    0.1408 N   0  0  0  0  0  0  0  0  0  0  0  0
    6.8220   -1.2868    0.0885 C   0  0  0  0  0  0  0  0  0  0  0  0
    7.3270   -2.4446    0.7127 C   0  0  0  0  0  0  0  0  0  0  0  0
    8.6894   -2.7547    0.6854 C   0  0  0  0  0  0  0  0  0  0  0  0
    9.5667   -1.9069    0.0273 C   0  0  0  0  0  0  0  0  0  0  0  0
   10.8737   -2.2019   -0.0095 F   0  0  0  0  0  0  0  0  0  0  0  0
    9.1048   -0.7596   -0.6010 C   0  0  0  0  0  0  0  0  0  0  0  0
    7.7388   -0.4543   -0.5718 C   0  0  0  0  0  0  0  0  0  0  0  0
    4.9579   -0.7294    1.5137 C   0  0  0  0  0  0  0  0  0  0  0  0
    3.4183   -0.7626    1.5652 C   0  0  0  0  0  0  0  0  0  0  0  0
    1.4316    1.8532   -0.9585 H   0  0  0  0  0  0  0  0  0  0  0  0
    0.8047   -0.0440   -2.0988 H   0  0  0  0  0  0  0  0  0  0  0  0
    0.1750   -0.8437   -0.6726 H   0  0  0  0  0  0  0  0  0  0  0  0
   -1.2451    1.2766   -2.3498 H   0  0  0  0  0  0  0  0  0  0  0  0
   -1.5917   -0.4479   -2.3275 H   0  0  0  0  0  0  0  0  0  0  0  0
   -2.3468   -0.3923   -0.0402 H   0  0  0  0  0  0  0  0  0  0  0  0
   -3.4956    1.9949   -1.5651 H   0  0  0  0  0  0  0  0  0  0  0  0
   -3.9212    0.3185   -1.8509 H   0  0  0  0  0  0  0  0  0  0  0  0
   -4.8979    2.0843    0.0923 H   0  0  0  0  0  0  0  0  0  0  0  0
   -4.3077   -1.3554    0.2087 H   0  0  0  0  0  0  0  0  0  0  0  0
   -9.9954   -1.1428    0.6045 H   0  0  0  0  0  0  0  0  0  0  0  0
  -10.8090    1.1839    0.4505 H   0  0  0  0  0  0  0  0  0  0  0  0
   -9.2519    3.0682    0.1921 H   0  0  0  0  0  0  0  0  0  0  0  0
   -6.8578    2.7323    0.0445 H   0  0  0  0  0  0  0  0  0  0  0  0
   -1.4976    0.9846    1.4656 H   0  0  0  0  0  0  0  0  0  0  0  0
   -2.3765    2.3324    0.7814 H   0  0  0  0  0  0  0  0  0  0  0  0
   -0.5515    2.9438   -0.6588 H   0  0  0  0  0  0  0  0  0  0  0  0
    0.0377    2.8096    0.9854 H   0  0  0  0  0  0  0  0  0  0  0  0
    2.9527    0.5730   -1.5383 H   0  0  0  0  0  0  0  0  0  0  0  0
    2.9823   -1.1584   -1.1646 H   0  0  0  0  0  0  0  0  0  0  0  0
    5.2037   -0.4013   -1.8763 H   0  0  0  0  0  0  0  0  0  0  0  0
    5.1937    0.9116   -0.6684 H   0  0  0  0  0  0  0  0  0  0  0  0
    6.6441   -3.1322    1.2093 H   0  0  0  0  0  0  0  0  0  0  0  0
    9.0636   -3.6540    1.1633 H   0  0  0  0  0  0  0  0  0  0  0  0
    9.8065   -0.1086   -1.1133 H   0  0  0  0  0  0  0  0  0  0  0  0
    7.4167    0.4571   -1.0667 H   0  0  0  0  0  0  0  0  0  0  0  0
    5.3376   -1.4492    2.2510 H   0  0  0  0  0  0  0  0  0  0  0  0
    5.3140    0.2688    1.8065 H   0  0  0  0  0  0  0  0  0  0  0  0
    3.0843   -0.4477    2.5603 H   0  0  0  0  0  0  0  0  0  0  0  0
    3.0682   -1.7929    1.4156 H   0  0  0  0  0  0  0  0  0  0  0  0
  1  2  2  0
  2  3  1  0
  3  4  1  0
  4  5  1  0
  5  6  1  0
  6  7  1  0
  7  8  1  0
  8  9  1  0
  9 10  1  0
 10 11  1  0
 11 12  2  0
 11 13  1  0
 13 14  2  0
 14 15  1  0
 15 16  2  0
 16 17  1  0
 17 18  2  0
 18 19  1  0
  6 20  1  0
 20 21  1  0
  2 22  1  0
 22 23  1  0
 23 24  1  0
 24 25  1  0
 25 26  1  0
 26 27  2  0
 27 28  1  0
 28 29  2  0
 29 30  1  0
 29 31  1  0
 31 32  2  0
 25 33  1  0
 33 34  1  0
 21  3  1  0
 34 22  1  0
 19  9  2  0
 32 26  1  0
 19 14  1  0
  3 35  1  0
  4 36  1  0
  4 37  1  0
  5 38  1  0
  5 39  1  0
  6 40  1  0
  7 41  1  0
  7 42  1  0
  8 43  1  0
 10 44  1  0
 15 45  1  0
 16 46  1  0
 17 47  1  0
 18 48  1  0
 20 49  1  0
 20 50  1  0
 21 51  1  0
 21 52  1  0
 23 53  1  0
 23 54  1  0
 24 55  1  0
 24 56  1  0
 27 57  1  0
 28 58  1  0
 31 59  1  0
 32 60  1  0
 33 61  1  0
 33 62  1  0
 34 63  1  0
 34 64  1  0
M  END
$$$$
