
     RDKit          3D

 37 37  0  0  0  0  0  0  0  0999 V2000
    4.8564    1.9206    0.0957 C   0  0  0  0  0  0  0  0  0  0  0  0
    3.5103    1.8060    0.7944 C   0  0  0  0  0  0  0  0  0  0  0  0
    2.9762    0.3730    0.8668 C   0  0  0  0  0  0  0  0  0  0  0  0
    2.6139   -0.2072   -0.5026 C   0  0  0  0  0  0  0  0  0  0  0  0
    2.0923   -1.6469   -0.4363 C   0  0  0  0  0  0  0  0  0  0  0  0
    0.8254   -1.8654    0.3966 C   0  0  0  0  0  0  0  0  0  0  0  0
   -0.3716   -1.0453   -0.0871 C   0  0  0  0  0  0  0  0  0  0  0  0
   -1.6354   -1.3904    0.7052 C   0  0  0  0  0  0  0  0  0  0  0  0
   -2.7736   -0.5845    0.2340 N   0  0  0  0  0  0  0  0  0  0  0  0
   -3.0433    0.6637    0.7822 C   0  0  0  0  0  0  0  0  0  0  0  0
   -4.0389    1.4655    0.3846 C   0  0  0  0  0  0  0  0  0  0  0  0
   -4.9149    1.0008   -0.7186 C   0  0  0  0  0  0  0  0  0  0  0  0
   -5.8904    1.7469   -1.1251 N   0  0  0  0  0  0  0  0  0  0  0  0
   -4.6120   -0.3290   -1.3117 C   0  0  0  0  0  0  0  0  0  0  0  0
   -3.5805   -1.0206   -0.8095 C   0  0  0  0  0  0  0  0  0  0  0  0
    4.7806    1.6721   -0.9668 H   0  0  0  0  0  0  0  0  0  0  0  0
    5.2304    2.9469    0.1686 H   0  0  0  0  0  0  0  0  0  0  0  0
    5.5959    1.2575    0.5554 H   0  0  0  0  0  0  0  0  0  0  0  0
    3.6180    2.1869    1.8172 H   0  0  0  0  0  0  0  0  0  0  0  0
    2.7811    2.4517    0.2915 H   0  0  0  0  0  0  0  0  0  0  0  0
    3.7149   -0.2709    1.3591 H   0  0  0  0  0  0  0  0  0  0  0  0
    2.0869    0.3842    1.5069 H   0  0  0  0  0  0  0  0  0  0  0  0
    1.8782    0.4370   -0.9972 H   0  0  0  0  0  0  0  0  0  0  0  0
    3.5013   -0.2102   -1.1459 H   0  0  0  0  0  0  0  0  0  0  0  0
    1.9038   -1.9919   -1.4608 H   0  0  0  0  0  0  0  0  0  0  0  0
    2.8844   -2.2923   -0.0364 H   0  0  0  0  0  0  0  0  0  0  0  0
    0.5709   -2.9319    0.3503 H   0  0  0  0  0  0  0  0  0  0  0  0
    1.0258   -1.6451    1.4513 H   0  0  0  0  0  0  0  0  0  0  0  0
   -0.1614    0.0253    0.0181 H   0  0  0  0  0  0  0  0  0  0  0  0
   -0.5404   -1.2329   -1.1546 H   0  0  0  0  0  0  0  0  0  0  0  0
   -1.8649   -2.4587    0.6029 H   0  0  0  0  0  0  0  0  0  0  0  0
   -1.4686   -1.2142    1.7756 H   0  0  0  0  0  0  0  0  0  0  0  0
   -2.3757    0.9670    1.5836 H   0  0  0  0  0  0  0  0  0  0  0  0
   -4.2375    2.4336    0.8221 H   0  0  0  0  0  0  0  0  0  0  0  0
   -6.3993    1.2916   -1.8876 H   0  0  0  0  0  0  0  0  0  0  0  0
   -5.2209   -0.6983   -2.1234 H   0  0  0  0  0  0  0  0  0  0  0  0
   -3.3173   -1.9945   -1.2123 H   0  0  0  0  0  0  0  0  0  0  0  0
  1  2  1  0
  2  3  1  0
  3  4  1  0
  4  5  1  0
  5  6  1  0
  6  7  1  0
  7  8  1  0
  8  9  1  0
  9 10  1  0
 10 11  2  0
 11 12  1  0
 12 13  2  3
 12 14  1  0
 14 15  2  0
 15  9  1  0
  1 16  1  0
  1 17  1  0
  1 18  1  0
  2 19  1  0
  2 20  1  0
  3 21  1  0
  3 22  1  0
  4 23  1  0
  4 24  1  0
  5 25  1  0
  5 26  1  0
  6 27  1  0
  6 28  1  0
  7 29  1  0
  7 30  1  0
  8 31  1  0
  8 32  1  0
 10 33  1  0
 11 34  1  0
 13 35  1  0
 14 36  1  0
 15 37  1  0
M  END
$$$$
