
     RDKit          3D

 41 42  0  0  0  0  0  0  0  0999 V2000
   -7.5355   -2.2795    1.7361 C   0  0  0  0  0  0  0  0  0  0  0  0
   -6.7607   -1.4036    2.5448 O   0  0  0  0  0  0  0  0  0  0  0  0
   -5.7192   -0.7607    1.9341 C   0  0  0  0  0  0  0  0  0  0  0  0
   -4.9453    0.0340    2.7820 C   0  0  0  0  0  0  0  0  0  0  0  0
   -3.8489    0.7470    2.2907 C   0  0  0  0  0  0  0  0  0  0  0  0
   -3.5146    0.6811    0.9332 C   0  0  0  0  0  0  0  0  0  0  0  0
   -2.3318    1.4495    0.3935 C   0  0  0  0  0  0  0  0  0  0  0  0
   -1.0841    0.6186    0.1768 C   0  0  0  0  0  0  0  0  0  0  0  0
   -1.0057   -0.5988    0.2829 O   0  0  0  0  0  0  0  0  0  0  0  0
   -0.0704    1.4812   -0.1902 O   0  0  0  0  0  0  0  0  0  0  0  0
    1.1291    0.7663   -0.3648 N   0  0  0  0  0  0  0  0  0  0  0  0
    2.1065    1.5453   -0.7235 C   0  0  0  0  0  0  0  0  0  0  0  0
    1.9567    2.8989   -0.9315 N   0  0  0  0  0  0  0  0  0  0  0  0
    3.4549    0.9224   -0.9351 C   0  0  0  0  0  0  0  0  0  0  0  0
    3.5635   -0.4623   -1.1121 C   0  0  0  0  0  0  0  0  0  0  0  0
    4.8141   -1.0575   -1.3183 C   0  0  0  0  0  0  0  0  0  0  0  0
    5.9674   -0.2734   -1.3438 C   0  0  0  0  0  0  0  0  0  0  0  0
    7.2438   -0.7248   -1.5357 O   0  0  0  0  0  0  0  0  0  0  0  0
    7.4113   -2.1286   -1.6921 C   0  0  0  0  0  0  0  0  0  0  0  0
    5.8591    1.1075   -1.1574 C   0  0  0  0  0  0  0  0  0  0  0  0
    4.6127    1.7066   -0.9506 C   0  0  0  0  0  0  0  0  0  0  0  0
   -4.2904   -0.1208    0.0855 C   0  0  0  0  0  0  0  0  0  0  0  0
   -5.3863   -0.8361    0.5823 C   0  0  0  0  0  0  0  0  0  0  0  0
   -8.0480   -1.7302    0.9395 H   0  0  0  0  0  0  0  0  0  0  0  0
   -6.9211   -3.0887    1.3275 H   0  0  0  0  0  0  0  0  0  0  0  0
   -8.3012   -2.7326    2.3731 H   0  0  0  0  0  0  0  0  0  0  0  0
   -5.1951    0.0926    3.8386 H   0  0  0  0  0  0  0  0  0  0  0  0
   -3.2612    1.3482    2.9804 H   0  0  0  0  0  0  0  0  0  0  0  0
   -2.0855    2.2642    1.0856 H   0  0  0  0  0  0  0  0  0  0  0  0
   -2.6130    1.9057   -0.5636 H   0  0  0  0  0  0  0  0  0  0  0  0
    2.5088    3.2833   -1.6904 H   0  0  0  0  0  0  0  0  0  0  0  0
    0.9821    3.1689   -1.0003 H   0  0  0  0  0  0  0  0  0  0  0  0
    2.6744   -1.0903   -1.0910 H   0  0  0  0  0  0  0  0  0  0  0  0
    4.8474   -2.1337   -1.4520 H   0  0  0  0  0  0  0  0  0  0  0  0
    6.8969   -2.4895   -2.5888 H   0  0  0  0  0  0  0  0  0  0  0  0
    8.4802   -2.3252   -1.8200 H   0  0  0  0  0  0  0  0  0  0  0  0
    7.0780   -2.6684   -0.7995 H   0  0  0  0  0  0  0  0  0  0  0  0
    6.7571    1.7211   -1.1636 H   0  0  0  0  0  0  0  0  0  0  0  0
    4.5683    2.7778   -0.7789 H   0  0  0  0  0  0  0  0  0  0  0  0
   -4.0412   -0.2060   -0.9702 H   0  0  0  0  0  0  0  0  0  0  0  0
   -5.9531   -1.4452   -0.1134 H   0  0  0  0  0  0  0  0  0  0  0  0
  1  2  1  0
  2  3  1  0
  3  4  2  0
  4  5  1  0
  5  6  2  0
  6  7  1  0
  7  8  1  0
  8  9  2  0
  8 10  1  0
 10 11  1  0
 11 12  2  3
 12 13  1  0
 12 14  1  0
 14 15  2  0
 15 16  1  0
 16 17  2  0
 17 18  1  0
 18 19  1  0
 17 20  1  0
 20 21  2  0
  6 22  1  0
 22 23  2  0
 23  3  1  0
 21 14  1  0
  1 24  1  0
  1 25  1  0
  1 26  1  0
  4 27  1  0
  5 28  1  0
  7 29  1  0
  7 30  1  0
 13 31  1  0
 13 32  1  0
 15 33  1  0
 16 34  1  0
 19 35  1  0
 19 36  1  0
 19 37  1  0
 20 38  1  0
 21 39  1  0
 22 40  1  0
 23 41  1  0
M  END
$$$$
