
     RDKit          3D

 45 48  0  0  0  0  0  0  0  0999 V2000
   -3.1911   -3.6218    0.3097 C   0  0  0  0  0  0  0  0  0  0  0  0
   -2.2471   -3.2107   -0.8043 C   0  0  0  0  0  0  0  0  0  0  0  0
   -2.1725   -1.7796   -0.8809 O   0  0  0  0  0  0  0  0  0  0  0  0
   -1.2593   -1.1808   -0.0727 C   0  0  0  0  0  0  0  0  0  0  0  0
   -0.5016   -1.7590    0.6954 O   0  0  0  0  0  0  0  0  0  0  0  0
   -1.3245    0.2853   -0.2620 C   0  0  0  0  0  0  0  0  0  0  0  0
   -2.7075    0.8240   -0.3219 C   0  0  0  0  0  0  0  0  0  0  0  0
   -3.1415    1.5290   -1.2195 O   0  0  0  0  0  0  0  0  0  0  0  0
   -3.3800    0.4366    0.7930 O   0  0  0  0  0  0  0  0  0  0  0  0
   -4.7372    0.8934    0.8915 C   0  0  0  0  0  0  0  0  0  0  0  0
   -4.7786    2.2701    1.5277 C   0  0  0  0  0  0  0  0  0  0  0  0
   -0.2516    1.1265   -0.2869 C   0  0  0  0  0  0  0  0  0  0  0  0
   -0.4975    2.6192   -0.1662 C   0  0  0  0  0  0  0  0  0  0  0  0
    0.4644    3.5172    0.1587 C   0  0  0  0  0  0  0  0  0  0  0  0
    0.0787    5.3352    0.3515 Br  0  0  0  0  0  0  0  0  0  0  0  0
    1.8121    3.0748    0.3364 C   0  0  0  0  0  0  0  0  0  0  0  0
    2.9298    3.7318    0.6645 N   0  0  0  0  0  0  0  0  0  0  0  0
    3.9530    2.7830    0.5619 O   0  0  0  0  0  0  0  0  0  0  0  0
    3.4286    1.5851    0.1630 C   0  0  0  0  0  0  0  0  0  0  0  0
    4.0979    0.3946   -0.1389 C   0  0  0  0  0  0  0  0  0  0  0  0
    5.4961    0.2811   -0.0235 C   0  0  0  0  0  0  0  0  0  0  0  0
    6.1135   -0.9146   -0.3779 C   0  0  0  0  0  0  0  0  0  0  0  0
    5.3473   -1.9794   -0.8500 C   0  0  0  0  0  0  0  0  0  0  0  0
    3.9564   -1.8584   -0.9653 C   0  0  0  0  0  0  0  0  0  0  0  0
    3.2880   -0.6701   -0.6053 C   0  0  0  0  0  0  0  0  0  0  0  0
    1.8719   -0.4982   -0.6963 C   0  0  0  0  0  0  0  0  0  0  0  0
    1.1595   -1.5484   -1.2182 O   0  0  0  0  0  0  0  0  0  0  0  0
    1.2010    0.6798   -0.3089 C   0  0  0  0  0  0  0  0  0  0  0  0
    2.0664    1.7188    0.0668 C   0  0  0  0  0  0  0  0  0  0  0  0
   -3.3033   -4.7092    0.3418 H   0  0  0  0  0  0  0  0  0  0  0  0
   -4.1772   -3.1683    0.1648 H   0  0  0  0  0  0  0  0  0  0  0  0
   -2.8235   -3.2792    1.2821 H   0  0  0  0  0  0  0  0  0  0  0  0
   -2.6341   -3.5635   -1.7658 H   0  0  0  0  0  0  0  0  0  0  0  0
   -1.2536   -3.6545   -0.6731 H   0  0  0  0  0  0  0  0  0  0  0  0
   -5.2309    0.8879   -0.0870 H   0  0  0  0  0  0  0  0  0  0  0  0
   -5.2704    0.1775    1.5255 H   0  0  0  0  0  0  0  0  0  0  0  0
   -4.2505    3.0043    0.9111 H   0  0  0  0  0  0  0  0  0  0  0  0
   -5.8111    2.6046    1.6617 H   0  0  0  0  0  0  0  0  0  0  0  0
   -4.2814    2.2577    2.5033 H   0  0  0  0  0  0  0  0  0  0  0  0
   -1.5057    3.0007   -0.3023 H   0  0  0  0  0  0  0  0  0  0  0  0
    6.0972    1.1150    0.3314 H   0  0  0  0  0  0  0  0  0  0  0  0
    7.1928   -1.0156   -0.2951 H   0  0  0  0  0  0  0  0  0  0  0  0
    5.8323   -2.9100   -1.1359 H   0  0  0  0  0  0  0  0  0  0  0  0
    3.3931   -2.7073   -1.3487 H   0  0  0  0  0  0  0  0  0  0  0  0
    0.9520   -2.1049   -0.4352 H   0  0  0  0  0  0  0  0  0  0  0  0
  1  2  1  0
  2  3  1  0
  3  4  1  0
  4  5  2  0
  4  6  1  0
  6  7  1  0
  7  8  2  0
  7  9  1  0
  9 10  1  0
 10 11  1  0
  6 12  2  3
 12 13  1  0
 13 14  2  0
 14 15  1  0
 14 16  1  0
 16 17  2  0
 17 18  1  0
 18 19  1  0
 19 20  1  0
 20 21  2  0
 21 22  1  0
 22 23  2  0
 23 24  1  0
 24 25  2  0
 25 26  1  0
 26 27  1  0
 26 28  2  0
 28 29  1  0
 28 12  1  0
 29 16  1  0
 29 19  2  0
 25 20  1  0
  1 30  1  0
  1 31  1  0
  1 32  1  0
  2 33  1  0
  2 34  1  0
 10 35  1  0
 10 36  1  0
 11 37  1  0
 11 38  1  0
 11 39  1  0
 13 40  1  0
 21 41  1  0
 22 42  1  0
 23 43  1  0
 24 44  1  0
 27 45  1  0
M  END
$$$$
