
     RDKit          3D

 63 67  0  0  0  0  0  0  0  0999 V2000
   -5.9345   -3.9468   -1.8225 C   0  0  0  0  0  0  0  0  0  0  0  0
   -4.8817   -4.5958   -1.1207 O   0  0  0  0  0  0  0  0  0  0  0  0
   -4.1368   -3.8248   -0.2705 C   0  0  0  0  0  0  0  0  0  0  0  0
   -3.1358   -4.5158    0.4159 C   0  0  0  0  0  0  0  0  0  0  0  0
   -2.2999   -3.8516    1.3129 C   0  0  0  0  0  0  0  0  0  0  0  0
   -2.4619   -2.4842    1.5295 C   0  0  0  0  0  0  0  0  0  0  0  0
   -3.4603   -1.7740    0.8504 C   0  0  0  0  0  0  0  0  0  0  0  0
   -3.6147   -0.3290    1.0667 C   0  0  0  0  0  0  0  0  0  0  0  0
   -5.0678    0.2343    1.7745 S   0  0  0  0  0  0  0  0  0  0  0  0
   -4.5570    1.8723    1.7425 C   0  0  0  0  0  0  0  0  0  0  0  0
   -5.2823    2.9921    2.1932 C   0  0  0  0  0  0  0  0  0  0  0  0
   -4.7131    4.2661    2.0853 C   0  0  0  0  0  0  0  0  0  0  0  0
   -3.4485    4.4311    1.5377 C   0  0  0  0  0  0  0  0  0  0  0  0
   -2.7897    5.6191    1.3761 O   0  0  0  0  0  0  0  0  0  0  0  0
   -3.4754    6.7975    1.7803 C   0  0  0  0  0  0  0  0  0  0  0  0
   -2.7378    3.3089    1.0953 C   0  0  0  0  0  0  0  0  0  0  0  0
   -3.2806    2.0003    1.1949 C   0  0  0  0  0  0  0  0  0  0  0  0
   -2.7367    0.7143    0.8111 C   0  0  0  0  0  0  0  0  0  0  0  0
   -1.4205    0.4885    0.2195 C   0  0  0  0  0  0  0  0  0  0  0  0
   -1.2978    0.0125   -1.0886 C   0  0  0  0  0  0  0  0  0  0  0  0
   -0.0313   -0.1996   -1.6390 C   0  0  0  0  0  0  0  0  0  0  0  0
    1.1230    0.0636   -0.8969 C   0  0  0  0  0  0  0  0  0  0  0  0
    2.2942   -0.1889   -1.5559 O   0  0  0  0  0  0  0  0  0  0  0  0
    3.5089    0.0358   -0.8340 C   0  0  0  0  0  0  0  0  0  0  0  0
    4.6842   -0.3188   -1.7606 C   0  0  0  0  0  0  0  0  0  0  0  0
    6.0122   -0.0695   -1.1729 N   0  0  0  0  0  0  0  0  0  0  0  0
    6.2569   -0.9119    0.0198 C   0  0  0  0  0  0  0  0  0  0  0  0
    7.7563   -1.1293    0.2756 C   0  0  0  0  0  0  0  0  0  0  0  0
    8.3959   -1.8512   -0.7855 O   0  0  0  0  0  0  0  0  0  0  0  0
    7.7907   -1.6227   -2.0654 C   0  0  0  0  0  0  0  0  0  0  0  0
    7.0910   -0.2584   -2.1696 C   0  0  0  0  0  0  0  0  0  0  0  0
    1.0014    0.5465    0.4063 C   0  0  0  0  0  0  0  0  0  0  0  0
   -0.2655    0.7582    0.9623 C   0  0  0  0  0  0  0  0  0  0  0  0
   -4.2953   -2.4546   -0.0525 C   0  0  0  0  0  0  0  0  0  0  0  0
   -5.5440   -3.1725   -2.4910 H   0  0  0  0  0  0  0  0  0  0  0  0
   -6.4365   -4.6972   -2.4407 H   0  0  0  0  0  0  0  0  0  0  0  0
   -6.6764   -3.5354   -1.1302 H   0  0  0  0  0  0  0  0  0  0  0  0
   -3.0067   -5.5824    0.2480 H   0  0  0  0  0  0  0  0  0  0  0  0
   -1.5232   -4.3990    1.8398 H   0  0  0  0  0  0  0  0  0  0  0  0
   -1.8045   -1.9748    2.2303 H   0  0  0  0  0  0  0  0  0  0  0  0
   -6.2743    2.8709    2.6200 H   0  0  0  0  0  0  0  0  0  0  0  0
   -5.2958    5.1093    2.4420 H   0  0  0  0  0  0  0  0  0  0  0  0
   -4.3970    6.9354    1.2053 H   0  0  0  0  0  0  0  0  0  0  0  0
   -2.8231    7.6513    1.5733 H   0  0  0  0  0  0  0  0  0  0  0  0
   -3.6777    6.7864    2.8564 H   0  0  0  0  0  0  0  0  0  0  0  0
   -1.7498    3.4485    0.6616 H   0  0  0  0  0  0  0  0  0  0  0  0
   -2.1803   -0.1977   -1.6876 H   0  0  0  0  0  0  0  0  0  0  0  0
    0.0554   -0.5744   -2.6559 H   0  0  0  0  0  0  0  0  0  0  0  0
    3.5825    1.0911   -0.5440 H   0  0  0  0  0  0  0  0  0  0  0  0
    3.5276   -0.6027    0.0567 H   0  0  0  0  0  0  0  0  0  0  0  0
    4.5880   -1.3616   -2.0918 H   0  0  0  0  0  0  0  0  0  0  0  0
    4.5701    0.2904   -2.6676 H   0  0  0  0  0  0  0  0  0  0  0  0
    5.7902   -1.8977   -0.1071 H   0  0  0  0  0  0  0  0  0  0  0  0
    5.8070   -0.4330    0.8961 H   0  0  0  0  0  0  0  0  0  0  0  0
    8.2757   -0.1726    0.4054 H   0  0  0  0  0  0  0  0  0  0  0  0
    7.9011   -1.7045    1.1958 H   0  0  0  0  0  0  0  0  0  0  0  0
    7.0824   -2.4372   -2.2572 H   0  0  0  0  0  0  0  0  0  0  0  0
    8.5823   -1.6972   -2.8181 H   0  0  0  0  0  0  0  0  0  0  0  0
    6.7319   -0.0968   -3.1928 H   0  0  0  0  0  0  0  0  0  0  0  0
    7.8363    0.5251   -1.9818 H   0  0  0  0  0  0  0  0  0  0  0  0
    1.8686    0.7704    1.0183 H   0  0  0  0  0  0  0  0  0  0  0  0
   -0.3431    1.1325    1.9809 H   0  0  0  0  0  0  0  0  0  0  0  0
   -5.0567   -1.8887   -0.5792 H   0  0  0  0  0  0  0  0  0  0  0  0
  1  2  1  0
  2  3  1  0
  3  4  2  0
  4  5  1  0
  5  6  2  0
  6  7  1  0
  7  8  1  0
  8  9  1  0
  9 10  1  0
 10 11  2  0
 11 12  1  0
 12 13  2  0
 13 14  1  0
 14 15  1  0
 13 16  1  0
 16 17  2  0
 17 18  1  0
 18 19  1  0
 19 20  2  0
 20 21  1  0
 21 22  2  0
 22 23  1  0
 23 24  1  0
 24 25  1  0
 25 26  1  0
 26 27  1  0
 27 28  1  0
 28 29  1  0
 29 30  1  0
 30 31  1  0
 22 32  1  0
 32 33  2  0
  7 34  2  0
 34  3  1  0
 18  8  2  0
 33 19  1  0
 17 10  1  0
 31 26  1  0
  1 35  1  0
  1 36  1  0
  1 37  1  0
  4 38  1  0
  5 39  1  0
  6 40  1  0
 11 41  1  0
 12 42  1  0
 15 43  1  0
 15 44  1  0
 15 45  1  0
 16 46  1  0
 20 47  1  0
 21 48  1  0
 24 49  1  0
 24 50  1  0
 25 51  1  0
 25 52  1  0
 27 53  1  0
 27 54  1  0
 28 55  1  0
 28 56  1  0
 30 57  1  0
 30 58  1  0
 31 59  1  0
 31 60  1  0
 32 61  1  0
 33 62  1  0
 34 63  1  0
M  END
$$$$
