
     RDKit          3D

 38 40  0  0  0  0  0  0  0  0999 V2000
   -5.3447    1.2002   -2.3974 C   0  0  0  0  0  0  0  0  0  0  0  0
   -4.0205    0.8872   -1.9812 O   0  0  0  0  0  0  0  0  0  0  0  0
   -3.8888    0.0113   -0.9392 C   0  0  0  0  0  0  0  0  0  0  0  0
   -4.9336   -0.5994   -0.2446 C   0  0  0  0  0  0  0  0  0  0  0  0
   -4.6567   -1.4932    0.7930 C   0  0  0  0  0  0  0  0  0  0  0  0
   -3.3382   -1.7686    1.1423 C   0  0  0  0  0  0  0  0  0  0  0  0
   -3.1506   -2.6778    2.1481 O   0  0  0  0  0  0  0  0  0  0  0  0
   -2.2796   -1.1344    0.4801 C   0  0  0  0  0  0  0  0  0  0  0  0
   -0.8835   -1.4295    0.8877 C   0  0  0  0  0  0  0  0  0  0  0  0
   -0.6404   -2.5213    1.4022 O   0  0  0  0  0  0  0  0  0  0  0  0
    0.2207   -0.4634    0.7245 C   0  0  0  0  0  0  0  0  0  0  0  0
    0.0499    0.9013    0.9139 C   0  0  0  0  0  0  0  0  0  0  0  0
    1.0466    1.8092    0.7786 N   0  0  0  0  0  0  0  0  0  0  0  0
    2.2714    1.3294    0.4807 C   0  0  0  0  0  0  0  0  0  0  0  0
    2.5504   -0.0132    0.2968 C   0  0  0  0  0  0  0  0  0  0  0  0
    1.5016   -0.9282    0.4213 C   0  0  0  0  0  0  0  0  0  0  0  0
    3.9267   -0.4169   -0.1088 C   0  0  0  0  0  0  0  0  0  0  0  0
    4.9313    0.5953    0.1648 N   0  0  0  0  0  0  0  0  0  0  0  0
    6.3163    0.2173   -0.0446 C   0  0  0  0  0  0  0  0  0  0  0  0
    4.6115    1.9377    0.2111 C   0  0  0  0  0  0  0  0  0  0  0  0
    5.4473    2.8377    0.1598 O   0  0  0  0  0  0  0  0  0  0  0  0
    3.2952    2.2466    0.3552 N   0  0  0  0  0  0  0  0  0  0  0  0
   -2.5643   -0.2631   -0.5789 C   0  0  0  0  0  0  0  0  0  0  0  0
   -5.8667    0.3071   -2.7565 H   0  0  0  0  0  0  0  0  0  0  0  0
   -5.2749    1.9038   -3.2325 H   0  0  0  0  0  0  0  0  0  0  0  0
   -5.9047    1.6906   -1.5943 H   0  0  0  0  0  0  0  0  0  0  0  0
   -5.9740   -0.4132   -0.4905 H   0  0  0  0  0  0  0  0  0  0  0  0
   -5.4696   -1.9831    1.3234 H   0  0  0  0  0  0  0  0  0  0  0  0
   -2.2002   -2.9324    2.1497 H   0  0  0  0  0  0  0  0  0  0  0  0
   -0.9072    1.3301    1.1982 H   0  0  0  0  0  0  0  0  0  0  0  0
    1.6764   -1.9928    0.2799 H   0  0  0  0  0  0  0  0  0  0  0  0
    3.9428   -0.6212   -1.1858 H   0  0  0  0  0  0  0  0  0  0  0  0
    4.2158   -1.3267    0.4299 H   0  0  0  0  0  0  0  0  0  0  0  0
    6.5192   -0.7190    0.4832 H   0  0  0  0  0  0  0  0  0  0  0  0
    6.9996    0.9857    0.3278 H   0  0  0  0  0  0  0  0  0  0  0  0
    6.4854    0.0811   -1.1170 H   0  0  0  0  0  0  0  0  0  0  0  0
    3.0602    3.2204    0.4729 H   0  0  0  0  0  0  0  0  0  0  0  0
   -1.7700    0.2055   -1.1548 H   0  0  0  0  0  0  0  0  0  0  0  0
  1  2  1  0
  2  3  1  0
  3  4  2  0
  4  5  1  0
  5  6  2  0
  6  7  1  0
  6  8  1  0
  8  9  1  0
  9 10  2  0
  9 11  1  0
 11 12  2  0
 12 13  1  0
 13 14  2  0
 14 15  1  0
 15 16  2  0
 15 17  1  0
 17 18  1  0
 18 19  1  0
 18 20  1  0
 20 21  2  0
 20 22  1  0
  8 23  2  0
 23  3  1  0
 16 11  1  0
 22 14  1  0
  1 24  1  0
  1 25  1  0
  1 26  1  0
  4 27  1  0
  5 28  1  0
  7 29  1  0
 12 30  1  0
 16 31  1  0
 17 32  1  0
 17 33  1  0
 19 34  1  0
 19 35  1  0
 19 36  1  0
 22 37  1  0
 23 38  1  0
M  END
$$$$
