
     RDKit          3D

 39 41  0  0  0  0  0  0  0  0999 V2000
   -1.1139   -2.4782    1.5558 C   0  0  0  0  0  0  0  0  0  0  0  0
   -1.5253   -2.2899    0.1016 C   0  0  0  0  0  0  0  0  0  0  0  0
   -1.9523   -0.9125   -0.1693 N   0  0  0  0  0  0  0  0  0  0  0  0
   -1.0755    0.0978   -0.5284 C   0  0  0  0  0  0  0  0  0  0  0  0
    0.3452   -0.2736   -0.7340 C   0  0  0  0  0  0  0  0  0  0  0  0
    1.2792    0.3146    0.0272 C   0  0  0  0  0  0  0  0  0  0  0  0
    2.7121    0.0205   -0.0830 C   0  0  0  0  0  0  0  0  0  0  0  0
    3.3534   -0.0959   -1.3284 C   0  0  0  0  0  0  0  0  0  0  0  0
    4.7271   -0.3529   -1.4074 C   0  0  0  0  0  0  0  0  0  0  0  0
    5.4585   -0.4846   -0.2347 C   0  0  0  0  0  0  0  0  0  0  0  0
    6.8024   -0.7350   -0.2437 O   0  0  0  0  0  0  0  0  0  0  0  0
    4.8316   -0.3567    1.0015 C   0  0  0  0  0  0  0  0  0  0  0  0
    5.5597   -0.4827    2.1503 O   0  0  0  0  0  0  0  0  0  0  0  0
    3.4697   -0.0993    1.0885 C   0  0  0  0  0  0  0  0  0  0  0  0
   -1.4252    1.3342   -0.7039 N   0  0  0  0  0  0  0  0  0  0  0  0
   -2.7654    1.6852   -0.5221 C   0  0  0  0  0  0  0  0  0  0  0  0
   -3.1494    3.0129   -0.7260 C   0  0  0  0  0  0  0  0  0  0  0  0
   -4.4798    3.4049   -0.5523 C   0  0  0  0  0  0  0  0  0  0  0  0
   -5.4396    2.4680   -0.1709 C   0  0  0  0  0  0  0  0  0  0  0  0
   -5.0675    1.1402    0.0358 C   0  0  0  0  0  0  0  0  0  0  0  0
   -3.7316    0.7597   -0.1430 C   0  0  0  0  0  0  0  0  0  0  0  0
   -3.2991   -0.6310    0.0699 C   0  0  0  0  0  0  0  0  0  0  0  0
   -4.1210   -1.4628    0.4502 O   0  0  0  0  0  0  0  0  0  0  0  0
   -1.9433   -2.2499    2.2330 H   0  0  0  0  0  0  0  0  0  0  0  0
   -0.8059   -3.5135    1.7312 H   0  0  0  0  0  0  0  0  0  0  0  0
   -0.2781   -1.8240    1.8222 H   0  0  0  0  0  0  0  0  0  0  0  0
   -2.3462   -2.9783   -0.1309 H   0  0  0  0  0  0  0  0  0  0  0  0
   -0.6969   -2.5700   -0.5549 H   0  0  0  0  0  0  0  0  0  0  0  0
    0.5702   -1.0017   -1.5019 H   0  0  0  0  0  0  0  0  0  0  0  0
    0.9944    1.0346    0.7926 H   0  0  0  0  0  0  0  0  0  0  0  0
    2.7898    0.0285   -2.2508 H   0  0  0  0  0  0  0  0  0  0  0  0
    5.1972   -0.4376   -2.3817 H   0  0  0  0  0  0  0  0  0  0  0  0
    7.0956   -0.7824   -1.1700 H   0  0  0  0  0  0  0  0  0  0  0  0
    6.4732   -0.6515    1.8444 H   0  0  0  0  0  0  0  0  0  0  0  0
    3.0097   -0.0014    2.0679 H   0  0  0  0  0  0  0  0  0  0  0  0
   -2.4022    3.7450   -1.0219 H   0  0  0  0  0  0  0  0  0  0  0  0
   -4.7639    4.4418   -0.7140 H   0  0  0  0  0  0  0  0  0  0  0  0
   -6.4746    2.7713   -0.0339 H   0  0  0  0  0  0  0  0  0  0  0  0
   -5.8124    0.4064    0.3351 H   0  0  0  0  0  0  0  0  0  0  0  0
  1  2  1  0
  2  3  1  0
  3  4  1  0
  4  5  1  0
  5  6  2  3
  6  7  1  0
  7  8  2  0
  8  9  1  0
  9 10  2  0
 10 11  1  0
 10 12  1  0
 12 13  1  0
 12 14  2  0
  4 15  2  0
 15 16  1  0
 16 17  2  0
 17 18  1  0
 18 19  2  0
 19 20  1  0
 20 21  2  0
 21 22  1  0
 22 23  2  0
 22  3  1  0
 14  7  1  0
 21 16  1  0
  1 24  1  0
  1 25  1  0
  1 26  1  0
  2 27  1  0
  2 28  1  0
  5 29  1  0
  6 30  1  0
  8 31  1  0
  9 32  1  0
 11 33  1  0
 13 34  1  0
 14 35  1  0
 17 36  1  0
 18 37  1  0
 19 38  1  0
 20 39  1  0
M  END
$$$$
