
     RDKit          3D

 41 42  0  0  0  0  0  0  0  0999 V2000
   -3.6845   -2.4071    0.4981 C   0  0  0  0  0  0  0  0  0  0  0  0
   -2.9657   -1.1067    0.2398 C   0  0  0  0  0  0  0  0  0  0  0  0
   -2.6026   -0.6538   -0.9804 C   0  0  0  0  0  0  0  0  0  0  0  0
   -2.9396   -1.3329   -2.2837 C   0  0  0  0  0  0  0  0  0  0  0  0
   -1.8095    0.6240   -1.1579 C   0  0  0  0  0  0  0  0  0  0  0  0
   -1.1652    1.1813    0.1208 C   0  0  0  0  0  0  0  0  0  0  0  0
    0.1811    0.5041    0.4215 C   0  0  0  0  0  0  0  0  0  0  0  0
    0.3570   -0.1771    1.4254 O   0  0  0  0  0  0  0  0  0  0  0  0
    1.1449    0.7854   -0.5372 N   0  0  0  0  0  0  0  0  0  0  0  0
    2.4697    0.3020   -0.5928 C   0  0  0  0  0  0  0  0  0  0  0  0
    3.0057   -0.6202    0.3108 C   0  0  0  0  0  0  0  0  0  0  0  0
    4.3299   -1.0587    0.1901 C   0  0  0  0  0  0  0  0  0  0  0  0
    5.1375   -0.5818   -0.8393 C   0  0  0  0  0  0  0  0  0  0  0  0
    4.6059    0.3378   -1.7484 C   0  0  0  0  0  0  0  0  0  0  0  0
    5.4436    0.8479   -2.8400 N   0  0  0  0  0  4  0  0  0  0  0  0
    4.9313    1.6564   -3.6279 O   0  0  0  0  0  0  0  0  0  0  0  0
    6.6119    0.4416   -2.9111 O   0  0  0  0  0  1  0  0  0  0  0  0
    3.2787    0.7800   -1.6308 C   0  0  0  0  0  0  0  0  0  0  0  0
   -2.1602    1.0961    1.2875 C   0  0  0  0  0  0  0  0  0  0  0  0
   -1.6191    1.6635    2.5825 C   0  0  0  0  0  0  0  0  0  0  0  0
   -1.9346    1.3284    3.7126 O   0  0  0  0  0  0  0  0  0  0  0  0
   -0.7830    2.7061    2.4032 O   0  0  0  0  0  0  0  0  0  0  0  0
   -2.6647   -0.3357    1.5102 C   0  0  0  0  0  0  0  0  0  0  0  0
   -4.7236   -2.2126    0.7822 H   0  0  0  0  0  0  0  0  0  0  0  0
   -3.1996   -2.9480    1.3185 H   0  0  0  0  0  0  0  0  0  0  0  0
   -3.6823   -3.0852   -0.3578 H   0  0  0  0  0  0  0  0  0  0  0  0
   -3.7205   -2.0907   -2.1928 H   0  0  0  0  0  0  0  0  0  0  0  0
   -2.0459   -1.8052   -2.7038 H   0  0  0  0  0  0  0  0  0  0  0  0
   -3.3102   -0.5963   -3.0054 H   0  0  0  0  0  0  0  0  0  0  0  0
   -2.4936    1.3824   -1.5619 H   0  0  0  0  0  0  0  0  0  0  0  0
   -1.0446    0.4586   -1.9260 H   0  0  0  0  0  0  0  0  0  0  0  0
   -0.9303    2.2400   -0.0616 H   0  0  0  0  0  0  0  0  0  0  0  0
    0.8838    1.4450   -1.2597 H   0  0  0  0  0  0  0  0  0  0  0  0
    2.4161   -1.0277    1.1275 H   0  0  0  0  0  0  0  0  0  0  0  0
    4.7247   -1.7769    0.9062 H   0  0  0  0  0  0  0  0  0  0  0  0
    6.1640   -0.9337   -0.9178 H   0  0  0  0  0  0  0  0  0  0  0  0
    2.8793    1.4957   -2.3458 H   0  0  0  0  0  0  0  0  0  0  0  0
   -3.0268    1.7240    1.0336 H   0  0  0  0  0  0  0  0  0  0  0  0
   -0.5272    2.9461    3.3200 H   0  0  0  0  0  0  0  0  0  0  0  0
   -3.5819   -0.2811    2.1128 H   0  0  0  0  0  0  0  0  0  0  0  0
   -1.9496   -0.9150    2.1077 H   0  0  0  0  0  0  0  0  0  0  0  0
  1  2  1  0
  2  3  2  0
  3  4  1  0
  3  5  1  0
  5  6  1  0
  6  7  1  0
  7  8  2  0
  7  9  1  0
  9 10  1  0
 10 11  2  0
 11 12  1  0
 12 13  2  0
 13 14  1  0
 14 15  1  0
 15 16  2  0
 15 17  1  0
 14 18  2  0
  6 19  1  0
 19 20  1  0
 20 21  2  0
 20 22  1  0
 19 23  1  0
 23  2  1  0
 18 10  1  0
  1 24  1  0
  1 25  1  0
  1 26  1  0
  4 27  1  0
  4 28  1  0
  4 29  1  0
  5 30  1  0
  5 31  1  0
  6 32  1  0
  9 33  1  0
 11 34  1  0
 12 35  1  0
 13 36  1  0
 18 37  1  0
 19 38  1  0
 22 39  1  0
 23 40  1  0
 23 41  1  0
M  CHG  2  15   1  17  -1
M  END
$$$$
