
     RDKit          3D

 46 47  0  0  0  0  0  0  0  0999 V2000
    0.8487    1.3176   -1.3867 O   0  0  0  0  0  0  0  0  0  0  0  0
    0.7765    0.9335   -0.2275 C   0  0  0  0  0  0  0  0  0  0  0  0
   -0.3995    0.7814    0.4612 N   0  0  0  0  0  0  0  0  0  0  0  0
   -1.7026    0.9517   -0.1858 C   0  0  0  0  0  0  0  0  0  0  0  0
   -2.7056    1.4315    0.8707 C   0  0  0  0  0  0  0  0  0  0  0  0
   -4.0884    1.8286    0.3606 C   0  0  0  0  0  0  0  0  0  0  0  0
   -4.9769    0.7350   -0.2325 C   0  0  0  0  0  0  0  0  0  0  0  0
   -4.9748   -0.5954    0.5203 C   0  0  0  0  0  0  0  0  0  0  0  0
   -4.1101   -1.6857   -0.1168 C   0  0  0  0  0  0  0  0  0  0  0  0
   -2.5946   -1.4799   -0.0661 C   0  0  0  0  0  0  0  0  0  0  0  0
   -2.0791   -0.3342   -0.9427 C   0  0  0  0  0  0  0  0  0  0  0  0
    1.8642    0.6368    0.5552 N   0  0  0  0  0  0  0  0  0  0  0  0
    3.2152    0.6501    0.0045 C   0  0  0  0  0  0  0  0  0  0  0  0
    3.5036   -0.6340   -0.7973 C   0  0  0  0  0  0  0  0  0  0  0  0
    4.1850   -1.6963    0.0583 C   0  0  0  0  0  0  0  0  0  0  0  0
    5.5304   -1.2110    0.6024 C   0  0  0  0  0  0  0  0  0  0  0  0
    5.5967    0.3041    0.8030 C   0  0  0  0  0  0  0  0  0  0  0  0
    4.2296    0.8863    1.1365 C   0  0  0  0  0  0  0  0  0  0  0  0
   -0.3695    0.2738    1.3304 H   0  0  0  0  0  0  0  0  0  0  0  0
   -1.5841    1.7479   -0.9322 H   0  0  0  0  0  0  0  0  0  0  0  0
   -2.2782    2.3238    1.3511 H   0  0  0  0  0  0  0  0  0  0  0  0
   -2.7931    0.7036    1.6850 H   0  0  0  0  0  0  0  0  0  0  0  0
   -4.6293    2.2688    1.2092 H   0  0  0  0  0  0  0  0  0  0  0  0
   -3.9871    2.6358   -0.3756 H   0  0  0  0  0  0  0  0  0  0  0  0
   -4.7506    0.5878   -1.2931 H   0  0  0  0  0  0  0  0  0  0  0  0
   -6.0033    1.1271   -0.2221 H   0  0  0  0  0  0  0  0  0  0  0  0
   -6.0057   -0.9747    0.5145 H   0  0  0  0  0  0  0  0  0  0  0  0
   -4.7179   -0.4628    1.5767 H   0  0  0  0  0  0  0  0  0  0  0  0
   -4.3315   -2.6268    0.4035 H   0  0  0  0  0  0  0  0  0  0  0  0
   -4.4232   -1.8390   -1.1574 H   0  0  0  0  0  0  0  0  0  0  0  0
   -2.2539   -1.3873    0.9707 H   0  0  0  0  0  0  0  0  0  0  0  0
   -2.1414   -2.4075   -0.4413 H   0  0  0  0  0  0  0  0  0  0  0  0
   -2.7945   -0.1060   -1.7386 H   0  0  0  0  0  0  0  0  0  0  0  0
   -1.1873   -0.6964   -1.4725 H   0  0  0  0  0  0  0  0  0  0  0  0
    1.6977    0.0396    1.3488 H   0  0  0  0  0  0  0  0  0  0  0  0
    3.2701    1.4936   -0.6960 H   0  0  0  0  0  0  0  0  0  0  0  0
    4.1678   -0.3877   -1.6362 H   0  0  0  0  0  0  0  0  0  0  0  0
    2.5869   -1.0432   -1.2376 H   0  0  0  0  0  0  0  0  0  0  0  0
    3.5273   -1.9624    0.8953 H   0  0  0  0  0  0  0  0  0  0  0  0
    4.3348   -2.6131   -0.5232 H   0  0  0  0  0  0  0  0  0  0  0  0
    5.7290   -1.7211    1.5528 H   0  0  0  0  0  0  0  0  0  0  0  0
    6.3365   -1.5103   -0.0784 H   0  0  0  0  0  0  0  0  0  0  0  0
    6.3146    0.5386    1.5970 H   0  0  0  0  0  0  0  0  0  0  0  0
    5.9770    0.7774   -0.1110 H   0  0  0  0  0  0  0  0  0  0  0  0
    3.8754    0.4380    2.0744 H   0  0  0  0  0  0  0  0  0  0  0  0
    4.3151    1.9626    1.3293 H   0  0  0  0  0  0  0  0  0  0  0  0
  1  2  2  0
  2  3  1  0
  3  4  1  0
  4  5  1  0
  5  6  1  0
  6  7  1  0
  7  8  1  0
  8  9  1  0
  9 10  1  0
 10 11  1  0
  2 12  1  0
 12 13  1  0
 13 14  1  0
 14 15  1  0
 15 16  1  0
 16 17  1  0
 17 18  1  0
 11  4  1  0
 18 13  1  0
  3 19  1  0
  4 20  1  0
  5 21  1  0
  5 22  1  0
  6 23  1  0
  6 24  1  0
  7 25  1  0
  7 26  1  0
  8 27  1  0
  8 28  1  0
  9 29  1  0
  9 30  1  0
 10 31  1  0
 10 32  1  0
 11 33  1  0
 11 34  1  0
 12 35  1  0
 13 36  1  0
 14 37  1  0
 14 38  1  0
 15 39  1  0
 15 40  1  0
 16 41  1  0
 16 42  1  0
 17 43  1  0
 17 44  1  0
 18 45  1  0
 18 46  1  0
M  END
$$$$
