
     RDKit          3D

 37 40  0  0  0  0  0  0  0  0999 V2000
   -1.6263    3.5662   -0.2274 C   0  0  0  0  0  0  0  0  0  0  0  0
   -2.4874    2.8531    0.6535 O   0  0  0  0  0  0  0  0  0  0  0  0
   -2.4188    1.4892    0.6110 C   0  0  0  0  0  0  0  0  0  0  0  0
   -3.1642    0.8321    1.5808 C   0  0  0  0  0  0  0  0  0  0  0  0
   -3.1673   -0.5632    1.6393 C   0  0  0  0  0  0  0  0  0  0  0  0
   -2.4376   -1.3350    0.7484 C   0  0  0  0  0  0  0  0  0  0  0  0
   -2.4993   -2.6699    0.8786 N   0  0  0  0  0  0  0  0  0  0  0  0
   -1.8069   -3.4476    0.0202 C   0  0  0  0  0  0  0  0  0  0  0  0
   -1.9143   -4.9322    0.1978 C   0  0  0  0  0  0  0  0  0  0  0  0
   -1.0219   -2.9203   -0.9894 C   0  0  0  0  0  0  0  0  0  0  0  0
   -0.9391   -1.5320   -1.1220 C   0  0  0  0  0  0  0  0  0  0  0  0
    0.1089   -0.9225   -2.4516 S   0  0  0  0  0  0  0  0  0  0  0  0
    1.4069   -0.2736   -1.4632 C   0  0  0  0  0  0  0  0  0  0  0  0
    1.5814    1.0242   -1.3656 N   0  0  0  0  0  0  0  0  0  0  0  0
    2.6537    1.2850   -0.5294 C   0  0  0  0  0  0  0  0  0  0  0  0
    3.1314    2.5626   -0.1737 C   0  0  0  0  0  0  0  0  0  0  0  0
    4.2283    2.6808    0.6861 C   0  0  0  0  0  0  0  0  0  0  0  0
    4.8526    1.5452    1.1923 C   0  0  0  0  0  0  0  0  0  0  0  0
    4.3997    0.2663    0.8538 C   0  0  0  0  0  0  0  0  0  0  0  0
    3.2969    0.1591   -0.0097 C   0  0  0  0  0  0  0  0  0  0  0  0
    2.5162   -1.2551   -0.6060 S   0  0  0  0  0  0  0  0  0  0  0  0
   -1.6728   -0.6912   -0.2458 C   0  0  0  0  0  0  0  0  0  0  0  0
   -1.6888    0.7303   -0.3024 C   0  0  0  0  0  0  0  0  0  0  0  0
   -0.5760    3.3110   -0.0503 H   0  0  0  0  0  0  0  0  0  0  0  0
   -1.7483    4.6339   -0.0210 H   0  0  0  0  0  0  0  0  0  0  0  0
   -1.9056    3.3957   -1.2723 H   0  0  0  0  0  0  0  0  0  0  0  0
   -3.7464    1.4032    2.2994 H   0  0  0  0  0  0  0  0  0  0  0  0
   -3.7574   -1.0609    2.4056 H   0  0  0  0  0  0  0  0  0  0  0  0
   -0.9281   -5.3608    0.4018 H   0  0  0  0  0  0  0  0  0  0  0  0
   -2.5729   -5.1781    1.0370 H   0  0  0  0  0  0  0  0  0  0  0  0
   -2.3271   -5.3923   -0.7054 H   0  0  0  0  0  0  0  0  0  0  0  0
   -0.4804   -3.5830   -1.6577 H   0  0  0  0  0  0  0  0  0  0  0  0
    2.6429    3.4468   -0.5708 H   0  0  0  0  0  0  0  0  0  0  0  0
    4.5933    3.6684    0.9591 H   0  0  0  0  0  0  0  0  0  0  0  0
    5.7048    1.6517    1.8608 H   0  0  0  0  0  0  0  0  0  0  0  0
    4.8883   -0.6188    1.2500 H   0  0  0  0  0  0  0  0  0  0  0  0
   -1.1184    1.2315   -1.0774 H   0  0  0  0  0  0  0  0  0  0  0  0
  1  2  1  0
  2  3  1  0
  3  4  2  0
  4  5  1  0
  5  6  2  0
  6  7  1  0
  7  8  2  0
  8  9  1  0
  8 10  1  0
 10 11  2  0
 11 12  1  0
 12 13  1  0
 13 14  2  0
 14 15  1  0
 15 16  2  0
 16 17  1  0
 17 18  2  0
 18 19  1  0
 19 20  2  0
 20 21  1  0
 11 22  1  0
 22 23  2  0
 23  3  1  0
 22  6  1  0
 21 13  1  0
 20 15  1  0
  1 24  1  0
  1 25  1  0
  1 26  1  0
  4 27  1  0
  5 28  1  0
  9 29  1  0
  9 30  1  0
  9 31  1  0
 10 32  1  0
 16 33  1  0
 17 34  1  0
 18 35  1  0
 19 36  1  0
 23 37  1  0
M  END
$$$$
