
     RDKit          3D

 51 54  0  0  0  0  0  0  0  0999 V2000
   -6.1651   -1.6270   -1.4896 C   0  0  0  0  0  0  0  0  0  0  0  0
   -5.8216   -0.6104   -0.3988 C   0  0  0  0  0  0  0  0  0  0  0  0
   -6.2597    0.8013   -0.7896 C   0  0  0  0  0  0  0  0  0  0  0  0
   -4.4005   -0.6518   -0.0441 N   0  0  0  0  0  0  0  0  0  0  0  0
   -3.3739   -0.4198   -0.9263 C   0  0  0  0  0  0  0  0  0  0  0  0
   -2.1708   -0.5524   -0.2598 C   0  0  0  0  0  0  0  0  0  0  0  0
   -0.8806   -0.3724   -0.9012 C   0  0  0  0  0  0  0  0  0  0  0  0
    0.1967   -0.4415   -0.1918 N   0  0  0  0  0  0  0  0  0  0  0  0
    1.4117   -0.2785   -0.8079 N   0  0  0  0  0  0  0  0  0  0  0  0
    1.7349   -0.6202   -2.1148 C   0  0  0  0  0  0  0  0  0  0  0  0
    0.9505   -1.0279   -2.9706 O   0  0  0  0  0  0  0  0  0  0  0  0
    3.2052   -0.3605   -2.4465 C   0  0  0  0  0  0  0  0  0  0  0  0
    4.0837   -0.9344   -1.4761 O   0  0  0  0  0  0  0  0  0  0  0  0
    5.0370   -0.0298   -1.0735 C   0  0  0  0  0  0  0  0  0  0  0  0
    6.2833   -0.0755   -1.7068 C   0  0  0  0  0  0  0  0  0  0  0  0
    7.2845    0.8002   -1.3101 C   0  0  0  0  0  0  0  0  0  0  0  0
    7.0367    1.7056   -0.2782 C   0  0  0  0  0  0  0  0  0  0  0  0
    5.7879    1.7311    0.3720 C   0  0  0  0  0  0  0  0  0  0  0  0
    5.5227    2.6259    1.4196 C   0  0  0  0  0  0  0  0  0  0  0  0
    4.2818    2.6195    2.0454 C   0  0  0  0  0  0  0  0  0  0  0  0
    3.3399    1.7152    1.5998 C   0  0  0  0  0  0  0  0  0  0  0  0
    3.5542    0.8434    0.5890 N   0  0  0  0  0  0  0  0  0  0  0  0
    4.7632    0.8455   -0.0189 C   0  0  0  0  0  0  0  0  0  0  0  0
   -2.4895   -0.8757    1.0986 C   0  0  0  0  0  0  0  0  0  0  0  0
   -1.7143   -1.1321    2.2523 C   0  0  0  0  0  0  0  0  0  0  0  0
   -2.3391   -1.4240    3.4677 C   0  0  0  0  0  0  0  0  0  0  0  0
   -3.7254   -1.4639    3.5529 C   0  0  0  0  0  0  0  0  0  0  0  0
   -4.5207   -1.2167    2.4303 C   0  0  0  0  0  0  0  0  0  0  0  0
   -3.8866   -0.9260    1.2091 C   0  0  0  0  0  0  0  0  0  0  0  0
   -5.6882   -1.3765   -2.4424 H   0  0  0  0  0  0  0  0  0  0  0  0
   -7.2481   -1.6636   -1.6583 H   0  0  0  0  0  0  0  0  0  0  0  0
   -5.8351   -2.6329   -1.2052 H   0  0  0  0  0  0  0  0  0  0  0  0
   -6.3875   -0.8940    0.4942 H   0  0  0  0  0  0  0  0  0  0  0  0
   -5.7533    1.1440   -1.6981 H   0  0  0  0  0  0  0  0  0  0  0  0
   -7.3412    0.8347   -0.9722 H   0  0  0  0  0  0  0  0  0  0  0  0
   -6.0309    1.5165    0.0093 H   0  0  0  0  0  0  0  0  0  0  0  0
   -3.5750   -0.1805   -1.9628 H   0  0  0  0  0  0  0  0  0  0  0  0
   -0.9003   -0.1356   -1.9770 H   0  0  0  0  0  0  0  0  0  0  0  0
    2.1947   -0.1298   -0.1604 H   0  0  0  0  0  0  0  0  0  0  0  0
    3.3354    0.7249   -2.5812 H   0  0  0  0  0  0  0  0  0  0  0  0
    3.4233   -0.8479   -3.4067 H   0  0  0  0  0  0  0  0  0  0  0  0
    6.4686   -0.7957   -2.5007 H   0  0  0  0  0  0  0  0  0  0  0  0
    8.2576    0.7762   -1.7978 H   0  0  0  0  0  0  0  0  0  0  0  0
    7.8267    2.3892    0.0257 H   0  0  0  0  0  0  0  0  0  0  0  0
    6.2800    3.3333    1.7564 H   0  0  0  0  0  0  0  0  0  0  0  0
    4.0567    3.3010    2.8595 H   0  0  0  0  0  0  0  0  0  0  0  0
    2.3538    1.6644    2.0540 H   0  0  0  0  0  0  0  0  0  0  0  0
   -0.6288   -1.1064    2.1966 H   0  0  0  0  0  0  0  0  0  0  0  0
   -1.7329   -1.6212    4.3474 H   0  0  0  0  0  0  0  0  0  0  0  0
   -4.1997   -1.6924    4.5038 H   0  0  0  0  0  0  0  0  0  0  0  0
   -5.6017   -1.2547    2.5190 H   0  0  0  0  0  0  0  0  0  0  0  0
  1  2  1  0
  2  3  1  0
  2  4  1  0
  4  5  1  0
  5  6  2  0
  6  7  1  0
  7  8  2  3
  8  9  1  0
  9 10  1  0
 10 11  2  0
 10 12  1  0
 12 13  1  0
 13 14  1  0
 14 15  2  0
 15 16  1  0
 16 17  2  0
 17 18  1  0
 18 19  2  0
 19 20  1  0
 20 21  2  0
 21 22  1  0
 22 23  2  0
  6 24  1  0
 24 25  2  0
 25 26  1  0
 26 27  2  0
 27 28  1  0
 28 29  2  0
 29  4  1  0
 23 14  1  0
 29 24  1  0
 23 18  1  0
  1 30  1  0
  1 31  1  0
  1 32  1  0
  2 33  1  0
  3 34  1  0
  3 35  1  0
  3 36  1  0
  5 37  1  0
  7 38  1  0
  9 39  1  0
 12 40  1  0
 12 41  1  0
 15 42  1  0
 16 43  1  0
 17 44  1  0
 19 45  1  0
 20 46  1  0
 21 47  1  0
 25 48  1  0
 26 49  1  0
 27 50  1  0
 28 51  1  0
M  END
$$$$
