
     RDKit          3D

 62 65  0  0  0  0  0  0  0  0999 V2000
    4.9779   -1.5069   -4.0017 C   0  0  0  0  0  0  0  0  0  0  0  0
    4.9340   -0.5532   -2.8466 C   0  0  0  0  0  0  0  0  0  0  0  0
    3.7083   -0.0749   -2.3674 C   0  0  0  0  0  0  0  0  0  0  0  0
    3.6703    0.8335   -1.3092 C   0  0  0  0  0  0  0  0  0  0  0  0
    4.8577    1.2952   -0.7251 C   0  0  0  0  0  0  0  0  0  0  0  0
    4.7995    2.2501    0.4391 C   0  0  0  0  0  0  0  0  0  0  0  0
    4.5618    1.5173    1.6608 N   0  0  0  0  0  0  0  0  0  0  0  0
    3.3574    1.5808    2.3209 C   0  0  0  0  0  0  0  0  0  0  0  0
    2.4861    2.3898    2.0513 O   0  0  0  0  0  0  0  0  0  0  0  0
    3.2593    0.5820    3.4518 C   0  0  0  0  0  0  0  0  0  0  0  0
    1.8272    0.3146    3.8937 C   0  0  0  0  0  0  0  0  0  0  0  0
    0.9171   -0.2709    2.8513 C   0  0  0  0  0  0  0  0  0  0  0  0
    1.1286   -1.4045    2.0221 C   0  0  0  0  0  0  0  0  0  0  0  0
    2.3067   -2.3078    1.9552 C   0  0  0  0  0  0  0  0  0  0  0  0
    0.0922   -1.6391    1.2154 N   0  0  0  0  0  0  0  0  0  0  0  0
   -0.8166   -0.6626    1.4965 N   0  0  0  0  0  0  0  0  0  0  0  0
   -2.0585   -0.6131    0.7885 C   0  0  0  0  0  0  0  0  0  0  0  0
   -2.3558   -1.5778   -0.1591 C   0  0  0  0  0  0  0  0  0  0  0  0
   -3.5810   -1.5187   -0.8264 C   0  0  0  0  0  0  0  0  0  0  0  0
   -4.4894   -0.5070   -0.5388 C   0  0  0  0  0  0  0  0  0  0  0  0
   -5.7442   -0.4717   -1.1829 N   0  0  0  0  0  0  0  0  0  0  0  0
   -5.6479   -0.3903   -2.6541 C   0  0  0  0  0  0  0  0  0  0  0  0
   -7.0543   -0.3887   -3.2715 C   0  0  0  0  0  0  0  0  0  0  0  0
   -7.8590    0.6776   -2.7480 O   0  0  0  0  0  0  0  0  0  0  0  0
   -7.9934    0.5430   -1.3236 C   0  0  0  0  0  0  0  0  0  0  0  0
   -6.6270    0.5835   -0.6270 C   0  0  0  0  0  0  0  0  0  0  0  0
   -4.1638    0.3995    0.4087 N   0  0  0  0  0  0  0  0  0  0  0  0
   -2.9487    0.3582    1.0653 N   0  0  0  0  0  0  0  0  0  0  0  0
   -0.3567    0.1720    2.5092 C   0  0  0  0  0  0  0  0  0  0  0  0
   -1.1532    1.3067    3.0588 C   0  0  0  0  0  0  0  0  0  0  0  0
    6.0829    0.8166   -1.2052 C   0  0  0  0  0  0  0  0  0  0  0  0
    6.1200   -0.0963   -2.2612 C   0  0  0  0  0  0  0  0  0  0  0  0
    5.7788   -2.2393   -3.8638 H   0  0  0  0  0  0  0  0  0  0  0  0
    4.0404   -2.0613   -4.0901 H   0  0  0  0  0  0  0  0  0  0  0  0
    5.1511   -0.9585   -4.9356 H   0  0  0  0  0  0  0  0  0  0  0  0
    2.7698   -0.4130   -2.8096 H   0  0  0  0  0  0  0  0  0  0  0  0
    2.7036    1.1782   -0.9315 H   0  0  0  0  0  0  0  0  0  0  0  0
    4.0233    3.0110    0.2703 H   0  0  0  0  0  0  0  0  0  0  0  0
    5.7564    2.7787    0.5463 H   0  0  0  0  0  0  0  0  0  0  0  0
    5.2209    0.7873    1.8951 H   0  0  0  0  0  0  0  0  0  0  0  0
    3.7543   -0.3458    3.1634 H   0  0  0  0  0  0  0  0  0  0  0  0
    3.8274    0.9954    4.2960 H   0  0  0  0  0  0  0  0  0  0  0  0
    1.8453   -0.3708    4.7464 H   0  0  0  0  0  0  0  0  0  0  0  0
    1.4091    1.2504    4.2705 H   0  0  0  0  0  0  0  0  0  0  0  0
    2.6468   -2.5788    2.9608 H   0  0  0  0  0  0  0  0  0  0  0  0
    3.1293   -1.8179    1.4258 H   0  0  0  0  0  0  0  0  0  0  0  0
    2.0696   -3.2364    1.4229 H   0  0  0  0  0  0  0  0  0  0  0  0
   -1.6656   -2.3828   -0.3830 H   0  0  0  0  0  0  0  0  0  0  0  0
   -3.8312   -2.2966   -1.5397 H   0  0  0  0  0  0  0  0  0  0  0  0
   -5.1219    0.5282   -2.9342 H   0  0  0  0  0  0  0  0  0  0  0  0
   -5.1053   -1.2401   -3.0688 H   0  0  0  0  0  0  0  0  0  0  0  0
   -6.9828   -0.2514   -4.3554 H   0  0  0  0  0  0  0  0  0  0  0  0
   -7.5675   -1.3415   -3.0871 H   0  0  0  0  0  0  0  0  0  0  0  0
   -8.5280   -0.3911   -1.1003 H   0  0  0  0  0  0  0  0  0  0  0  0
   -8.6138    1.3738   -0.9666 H   0  0  0  0  0  0  0  0  0  0  0  0
   -6.1794    1.5769   -0.7870 H   0  0  0  0  0  0  0  0  0  0  0  0
   -6.7790    0.4306    0.4515 H   0  0  0  0  0  0  0  0  0  0  0  0
   -1.2882    2.0888    2.3061 H   0  0  0  0  0  0  0  0  0  0  0  0
   -0.6633    1.7699    3.9212 H   0  0  0  0  0  0  0  0  0  0  0  0
   -2.1287    0.9628    3.4126 H   0  0  0  0  0  0  0  0  0  0  0  0
    7.0149    1.1496   -0.7565 H   0  0  0  0  0  0  0  0  0  0  0  0
    7.0763   -0.4559   -2.6205 H   0  0  0  0  0  0  0  0  0  0  0  0
  1  2  1  0
  2  3  2  0
  3  4  1  0
  4  5  2  0
  5  6  1  0
  6  7  1  0
  7  8  1  0
  8  9  2  0
  8 10  1  0
 10 11  1  0
 11 12  1  0
 12 13  1  0
 13 14  1  0
 13 15  2  0
 15 16  1  0
 16 17  1  0
 17 18  2  0
 18 19  1  0
 19 20  2  0
 20 21  1  0
 21 22  1  0
 22 23  1  0
 23 24  1  0
 24 25  1  0
 25 26  1  0
 20 27  1  0
 27 28  2  0
 16 29  1  0
 29 30  1  0
  5 31  1  0
 31 32  2  0
 32  2  1  0
 29 12  2  0
 28 17  1  0
 26 21  1  0
  1 33  1  0
  1 34  1  0
  1 35  1  0
  3 36  1  0
  4 37  1  0
  6 38  1  0
  6 39  1  0
  7 40  1  0
 10 41  1  0
 10 42  1  0
 11 43  1  0
 11 44  1  0
 14 45  1  0
 14 46  1  0
 14 47  1  0
 18 48  1  0
 19 49  1  0
 22 50  1  0
 22 51  1  0
 23 52  1  0
 23 53  1  0
 25 54  1  0
 25 55  1  0
 26 56  1  0
 26 57  1  0
 30 58  1  0
 30 59  1  0
 30 60  1  0
 31 61  1  0
 32 62  1  0
M  END
$$$$
