
     RDKit          3D

 45 47  0  0  0  0  0  0  0  0999 V2000
    2.1584   -0.0570    2.3359 O   0  0  0  0  0  0  0  0  0  0  0  0
    1.8993   -0.9279    1.5031 C   0  0  0  0  0  0  0  0  0  0  0  0
    2.9505   -1.8974    0.9617 C   0  0  0  0  0  0  0  0  0  0  0  0
    4.6499   -1.4978    1.4856 S   0  0  0  0  0  0  0  0  0  0  0  0
    4.9831   -0.1453    0.3741 C   0  0  0  0  0  0  0  0  0  0  0  0
    5.5066   -0.3959   -0.8985 C   0  0  0  0  0  0  0  0  0  0  0  0
    5.7719    0.6625   -1.7717 C   0  0  0  0  0  0  0  0  0  0  0  0
    5.5182    1.9720   -1.3673 C   0  0  0  0  0  0  0  0  0  0  0  0
    5.8753    3.4041   -2.5479 Br  0  0  0  0  0  0  0  0  0  0  0  0
    5.0064    2.2327   -0.0979 C   0  0  0  0  0  0  0  0  0  0  0  0
    4.7437    1.1727    0.7734 C   0  0  0  0  0  0  0  0  0  0  0  0
    0.5897   -1.1011    1.0350 N   0  0  0  0  0  0  0  0  0  0  0  0
   -0.3655   -0.0273    1.3393 C   0  0  0  0  0  0  0  0  0  0  0  0
   -1.8332   -0.4737    1.2895 C   0  0  0  0  0  0  0  0  0  0  0  0
   -2.1608   -1.2593    0.0602 N   0  0  0  0  0  0  0  0  0  0  0  0
   -2.4629   -0.3845   -1.3701 S   0  0  0  0  0  6  0  0  0  0  0  0
   -1.3709    0.5461   -1.5567 O   0  0  0  0  0  0  0  0  0  0  0  0
   -2.8145   -1.3332   -2.4047 O   0  0  0  0  0  0  0  0  0  0  0  0
   -3.9278    0.5311   -0.9699 C   0  0  0  0  0  0  0  0  0  0  0  0
   -3.8914    1.9271   -0.9166 C   0  0  0  0  0  0  0  0  0  0  0  0
   -5.0540    2.6289   -0.5980 C   0  0  0  0  0  0  0  0  0  0  0  0
   -6.2402    1.9381   -0.3409 C   0  0  0  0  0  0  0  0  0  0  0  0
   -6.2717    0.5435   -0.4042 C   0  0  0  0  0  0  0  0  0  0  0  0
   -5.1143   -0.1660   -0.7218 C   0  0  0  0  0  0  0  0  0  0  0  0
   -1.2183   -2.4052   -0.0938 C   0  0  0  0  0  0  0  0  0  0  0  0
    0.2459   -1.9468   -0.1170 C   0  0  0  0  0  0  0  0  0  0  0  0
    2.7163   -2.8960    1.3437 H   0  0  0  0  0  0  0  0  0  0  0  0
    2.9207   -1.9174   -0.1313 H   0  0  0  0  0  0  0  0  0  0  0  0
    5.7174   -1.4135   -1.2183 H   0  0  0  0  0  0  0  0  0  0  0  0
    6.1783    0.4554   -2.7581 H   0  0  0  0  0  0  0  0  0  0  0  0
    4.8090    3.2512    0.2256 H   0  0  0  0  0  0  0  0  0  0  0  0
    4.3447    1.3835    1.7642 H   0  0  0  0  0  0  0  0  0  0  0  0
   -0.1759    0.7801    0.6244 H   0  0  0  0  0  0  0  0  0  0  0  0
   -0.1611    0.3834    2.3346 H   0  0  0  0  0  0  0  0  0  0  0  0
   -2.0435   -1.1210    2.1508 H   0  0  0  0  0  0  0  0  0  0  0  0
   -2.4979    0.3889    1.3924 H   0  0  0  0  0  0  0  0  0  0  0  0
   -2.9730    2.4718   -1.1232 H   0  0  0  0  0  0  0  0  0  0  0  0
   -5.0389    3.7155   -0.5549 H   0  0  0  0  0  0  0  0  0  0  0  0
   -7.1455    2.4894   -0.0967 H   0  0  0  0  0  0  0  0  0  0  0  0
   -7.2004    0.0119   -0.2106 H   0  0  0  0  0  0  0  0  0  0  0  0
   -5.1389   -1.2521   -0.7775 H   0  0  0  0  0  0  0  0  0  0  0  0
   -1.4546   -2.9852   -0.9917 H   0  0  0  0  0  0  0  0  0  0  0  0
   -1.3785   -3.0820    0.7554 H   0  0  0  0  0  0  0  0  0  0  0  0
    0.4656   -1.3686   -1.0211 H   0  0  0  0  0  0  0  0  0  0  0  0
    0.8827   -2.8355   -0.1334 H   0  0  0  0  0  0  0  0  0  0  0  0
  1  2  2  0
  2  3  1  0
  3  4  1  0
  4  5  1  0
  5  6  2  0
  6  7  1  0
  7  8  2  0
  8  9  1  0
  8 10  1  0
 10 11  2  0
  2 12  1  0
 12 13  1  0
 13 14  1  0
 14 15  1  0
 15 16  1  0
 16 17  2  0
 16 18  2  0
 16 19  1  0
 19 20  2  0
 20 21  1  0
 21 22  2  0
 22 23  1  0
 23 24  2  0
 15 25  1  0
 25 26  1  0
 11  5  1  0
 26 12  1  0
 24 19  1  0
  3 27  1  0
  3 28  1  0
  6 29  1  0
  7 30  1  0
 10 31  1  0
 11 32  1  0
 13 33  1  0
 13 34  1  0
 14 35  1  0
 14 36  1  0
 20 37  1  0
 21 38  1  0
 22 39  1  0
 23 40  1  0
 24 41  1  0
 25 42  1  0
 25 43  1  0
 26 44  1  0
 26 45  1  0
M  END
$$$$
