
     RDKit          3D

 40 43  0  0  0  0  0  0  0  0999 V2000
    1.6232   -2.3330   -2.6536 O   0  0  0  0  0  0  0  0  0  0  0  0
    1.7633   -2.2032   -1.2167 S   0  0  0  0  0  6  0  0  0  0  0  0
    2.1003   -3.3536   -0.4095 O   0  0  0  0  0  0  0  0  0  0  0  0
    2.9766   -0.9650   -0.9404 C   0  0  0  0  0  0  0  0  0  0  0  0
    3.4324   -0.1461   -2.0016 C   0  0  0  0  0  0  0  0  0  0  0  0
    4.4363    0.8421   -1.8386 C   0  0  0  0  0  0  0  0  0  0  0  0
    5.0745    1.0851   -0.6098 C   0  0  0  0  0  0  0  0  0  0  0  0
    4.6458    0.2659    0.4519 C   0  0  0  0  0  0  0  0  0  0  0  0
    5.0626    0.2573    1.7224 N   0  0  0  0  0  0  0  0  0  0  0  0
    4.3352   -0.7351    2.3512 O   0  0  0  0  0  0  0  0  0  0  0  0
    3.4436   -1.3415    1.4880 N   0  0  0  0  0  0  0  0  0  0  0  0
    3.6109   -0.7542    0.2953 C   0  0  0  0  0  0  0  0  0  0  0  0
    0.3332   -1.5268   -0.6399 N   0  0  0  0  0  0  0  0  0  0  0  0
    0.1140   -1.4771    0.8322 C   0  0  0  0  0  0  0  0  0  0  0  0
   -1.2942   -0.9412    1.1549 C   0  0  0  0  0  0  0  0  0  0  0  0
   -1.4889    0.4374    0.6295 N   0  0  0  0  0  0  0  0  0  0  0  0
   -2.8486    0.8012    0.5777 C   0  0  0  0  0  0  0  0  0  0  0  0
   -3.5516    0.9328    1.7896 C   0  0  0  0  0  0  0  0  0  0  0  0
   -4.9047    1.2897    1.8220 C   0  0  0  0  0  0  0  0  0  0  0  0
   -5.5939    1.5231    0.6360 C   0  0  0  0  0  0  0  0  0  0  0  0
   -4.9274    1.3991   -0.5787 C   0  0  0  0  0  0  0  0  0  0  0  0
   -3.5771    1.0442   -0.6020 C   0  0  0  0  0  0  0  0  0  0  0  0
   -3.0018    0.9057   -1.8074 F   0  0  0  0  0  0  0  0  0  0  0  0
   -0.6099    0.7992   -0.5030 C   0  0  0  0  0  0  0  0  0  0  0  0
   -0.2905   -0.4054   -1.4059 C   0  0  0  0  0  0  0  0  0  0  0  0
    3.0053   -0.2777   -2.9983 H   0  0  0  0  0  0  0  0  0  0  0  0
    4.7326    1.4329   -2.7070 H   0  0  0  0  0  0  0  0  0  0  0  0
    5.8439    1.8371   -0.4869 H   0  0  0  0  0  0  0  0  0  0  0  0
    0.8553   -0.8239    1.2996 H   0  0  0  0  0  0  0  0  0  0  0  0
    0.2119   -2.4836    1.2512 H   0  0  0  0  0  0  0  0  0  0  0  0
   -1.4292   -0.9435    2.2427 H   0  0  0  0  0  0  0  0  0  0  0  0
   -2.0370   -1.6218    0.7166 H   0  0  0  0  0  0  0  0  0  0  0  0
   -3.0320    0.7785    2.7328 H   0  0  0  0  0  0  0  0  0  0  0  0
   -5.4143    1.3892    2.7773 H   0  0  0  0  0  0  0  0  0  0  0  0
   -6.6446    1.7996    0.6584 H   0  0  0  0  0  0  0  0  0  0  0  0
   -5.4490    1.5695   -1.5153 H   0  0  0  0  0  0  0  0  0  0  0  0
    0.3313    1.1670   -0.0727 H   0  0  0  0  0  0  0  0  0  0  0  0
   -0.9973    1.6413   -1.0866 H   0  0  0  0  0  0  0  0  0  0  0  0
    0.3644   -0.0706   -2.2161 H   0  0  0  0  0  0  0  0  0  0  0  0
   -1.2047   -0.7947   -1.8673 H   0  0  0  0  0  0  0  0  0  0  0  0
  1  2  2  0
  2  3  2  0
  2  4  1  0
  4  5  2  0
  5  6  1  0
  6  7  2  0
  7  8  1  0
  8  9  2  0
  9 10  1  0
 10 11  1  0
 11 12  2  0
  2 13  1  0
 13 14  1  0
 14 15  1  0
 15 16  1  0
 16 17  1  0
 17 18  2  0
 18 19  1  0
 19 20  2  0
 20 21  1  0
 21 22  2  0
 22 23  1  0
 16 24  1  0
 24 25  1  0
 12  4  1  0
 25 13  1  0
 12  8  1  0
 22 17  1  0
  5 26  1  0
  6 27  1  0
  7 28  1  0
 14 29  1  0
 14 30  1  0
 15 31  1  0
 15 32  1  0
 18 33  1  0
 19 34  1  0
 20 35  1  0
 21 36  1  0
 24 37  1  0
 24 38  1  0
 25 39  1  0
 25 40  1  0
M  END
$$$$
