
     RDKit          3D

 66 69  0  0  0  0  0  0  0  0999 V2000
    7.2719   -4.4541    0.6626 C   0  0  0  0  0  0  0  0  0  0  0  0
    6.8590   -3.0417    0.8026 C   0  0  0  0  0  0  0  0  0  0  0  0
    7.6183   -2.0198    1.1496 N   0  0  0  0  0  0  0  0  0  0  0  0
    6.8294   -0.8885    1.1678 N   0  0  0  0  0  0  0  0  0  0  0  0
    5.6004   -1.2365    0.8384 C   0  0  0  0  0  0  0  0  0  0  0  0
    4.5094   -0.4327    0.7517 N   0  0  0  0  0  0  0  0  0  0  0  0
    3.2264   -0.8534    0.5526 N   0  0  0  0  0  0  0  0  0  0  0  0
    2.3493    0.1047    0.5253 C   0  0  0  0  0  0  0  0  0  0  0  0
    0.9059   -0.1592    0.3315 C   0  0  0  0  0  0  0  0  0  0  0  0
    0.4477   -1.4797    0.3156 C   0  0  0  0  0  0  0  0  0  0  0  0
   -0.9195   -1.7240    0.1377 C   0  0  0  0  0  0  0  0  0  0  0  0
   -1.3210   -3.1091    0.0828 N   0  0  0  0  0  4  0  0  0  0  0  0
   -1.3261   -3.6483   -1.0323 O   0  0  0  0  0  0  0  0  0  0  0  0
   -1.5842   -3.6640    1.1594 O   0  0  0  0  0  1  0  0  0  0  0  0
   -1.8589   -0.6961   -0.0249 C   0  0  0  0  0  0  0  0  0  0  0  0
   -3.2319   -0.8388   -0.2190 N   0  0  0  0  0  0  0  0  0  0  0  0
   -4.0349   -1.4464    0.8538 C   0  0  0  0  0  0  0  0  0  0  0  0
   -4.8949   -2.5929    0.3255 C   0  0  0  0  0  0  0  0  0  0  0  0
   -5.8041   -2.1620   -0.8404 C   0  0  0  0  0  0  0  0  0  0  0  0
   -7.1932   -1.7527   -0.3467 C   0  0  0  0  0  0  0  0  0  0  0  0
   -5.1770   -1.0336   -1.6785 C   0  0  0  0  0  0  0  0  0  0  0  0
   -3.6536   -1.0665   -1.6084 C   0  0  0  0  0  0  0  0  0  0  0  0
   -1.3565    0.6194   -0.0112 C   0  0  0  0  0  0  0  0  0  0  0  0
    0.0097    0.9175    0.1720 C   0  0  0  0  0  0  0  0  0  0  0  0
    0.4862    2.2493    0.1579 N   0  0  0  0  0  0  0  0  0  0  0  0
    0.5488    2.7855   -1.2156 C   0  0  0  0  0  0  0  0  0  0  0  0
    1.3137    4.1111   -1.2012 C   0  0  0  0  0  0  0  0  0  0  0  0
    0.6780    5.1105   -0.2227 C   0  0  0  0  0  0  0  0  0  0  0  0
    1.4883    6.4026   -0.1595 C   0  0  0  0  0  0  0  0  0  0  0  0
    0.5476    4.4756    1.1715 C   0  0  0  0  0  0  0  0  0  0  0  0
   -0.2070    3.1458    1.1010 C   0  0  0  0  0  0  0  0  0  0  0  0
    5.5854   -2.5907    0.5701 N   0  0  0  0  0  0  0  0  0  0  0  0
    4.4676   -3.3743    0.1132 N   0  0  0  0  0  0  0  0  0  0  0  0
    7.3244   -4.7357   -0.3967 H   0  0  0  0  0  0  0  0  0  0  0  0
    6.5683   -5.1264    1.1725 H   0  0  0  0  0  0  0  0  0  0  0  0
    8.2629   -4.6075    1.1080 H   0  0  0  0  0  0  0  0  0  0  0  0
    4.6853    0.5388    1.0162 H   0  0  0  0  0  0  0  0  0  0  0  0
    2.6572    1.1589    0.6423 H   0  0  0  0  0  0  0  0  0  0  0  0
    1.1409   -2.3079    0.4402 H   0  0  0  0  0  0  0  0  0  0  0  0
   -3.4142   -1.7988    1.6860 H   0  0  0  0  0  0  0  0  0  0  0  0
   -4.6859   -0.6671    1.2703 H   0  0  0  0  0  0  0  0  0  0  0  0
   -5.4864   -3.0242    1.1415 H   0  0  0  0  0  0  0  0  0  0  0  0
   -4.2363   -3.3953   -0.0313 H   0  0  0  0  0  0  0  0  0  0  0  0
   -5.9386   -3.0392   -1.4890 H   0  0  0  0  0  0  0  0  0  0  0  0
   -7.8343   -1.4667   -1.1880 H   0  0  0  0  0  0  0  0  0  0  0  0
   -7.6786   -2.5833    0.1758 H   0  0  0  0  0  0  0  0  0  0  0  0
   -7.1387   -0.9045    0.3449 H   0  0  0  0  0  0  0  0  0  0  0  0
   -5.5280   -0.0562   -1.3233 H   0  0  0  0  0  0  0  0  0  0  0  0
   -5.5062   -1.1237   -2.7204 H   0  0  0  0  0  0  0  0  0  0  0  0
   -3.2517   -0.2784   -2.2560 H   0  0  0  0  0  0  0  0  0  0  0  0
   -3.2804   -2.0263   -1.9829 H   0  0  0  0  0  0  0  0  0  0  0  0
   -2.0679    1.4304   -0.1579 H   0  0  0  0  0  0  0  0  0  0  0  0
   -0.4593    2.9397   -1.6244 H   0  0  0  0  0  0  0  0  0  0  0  0
    1.0747    2.0838   -1.8763 H   0  0  0  0  0  0  0  0  0  0  0  0
    1.3353    4.5355   -2.2129 H   0  0  0  0  0  0  0  0  0  0  0  0
    2.3564    3.9231   -0.9106 H   0  0  0  0  0  0  0  0  0  0  0  0
   -0.3286    5.3600   -0.5850 H   0  0  0  0  0  0  0  0  0  0  0  0
    2.5058    6.2168    0.1995 H   0  0  0  0  0  0  0  0  0  0  0  0
    1.5575    6.8675   -1.1485 H   0  0  0  0  0  0  0  0  0  0  0  0
    1.0152    7.1222    0.5167 H   0  0  0  0  0  0  0  0  0  0  0  0
    0.0223    5.1605    1.8483 H   0  0  0  0  0  0  0  0  0  0  0  0
    1.5456    4.3049    1.5973 H   0  0  0  0  0  0  0  0  0  0  0  0
   -1.2421    3.3317    0.7893 H   0  0  0  0  0  0  0  0  0  0  0  0
   -0.2277    2.6996    2.1027 H   0  0  0  0  0  0  0  0  0  0  0  0
    3.6296   -2.8395    0.3746 H   0  0  0  0  0  0  0  0  0  0  0  0
    4.4435   -3.3494   -0.9051 H   0  0  0  0  0  0  0  0  0  0  0  0
  1  2  1  0
  2  3  2  0
  3  4  1  0
  4  5  2  0
  5  6  1  0
  6  7  1  0
  7  8  2  3
  8  9  1  0
  9 10  2  0
 10 11  1  0
 11 12  1  0
 12 13  2  0
 12 14  1  0
 11 15  2  0
 15 16  1  0
 16 17  1  0
 17 18  1  0
 18 19  1  0
 19 20  1  0
 19 21  1  0
 21 22  1  0
 15 23  1  0
 23 24  2  0
 24 25  1  0
 25 26  1  0
 26 27  1  0
 27 28  1  0
 28 29  1  0
 28 30  1  0
 30 31  1  0
  5 32  1  0
 32 33  1  0
 32  2  1  0
 24  9  1  0
 31 25  1  0
 22 16  1  0
  1 34  1  0
  1 35  1  0
  1 36  1  0
  6 37  1  0
  8 38  1  0
 10 39  1  0
 17 40  1  0
 17 41  1  0
 18 42  1  0
 18 43  1  0
 19 44  1  0
 20 45  1  0
 20 46  1  0
 20 47  1  0
 21 48  1  0
 21 49  1  0
 22 50  1  0
 22 51  1  0
 23 52  1  0
 26 53  1  0
 26 54  1  0
 27 55  1  0
 27 56  1  0
 28 57  1  0
 29 58  1  0
 29 59  1  0
 29 60  1  0
 30 61  1  0
 30 62  1  0
 31 63  1  0
 31 64  1  0
 33 65  1  0
 33 66  1  0
M  CHG  2  12   1  14  -1
M  END
$$$$
