
     RDKit          3D

 43 45  0  0  0  0  0  0  0  0999 V2000
   -6.5975    0.2666    2.7645 C   0  0  0  0  0  0  0  0  0  0  0  0
   -6.2510    1.5711    2.0611 C   0  0  0  0  0  0  0  0  0  0  0  0
   -5.9949    1.3923    0.5657 C   0  0  0  0  0  0  0  0  0  0  0  0
   -4.7300    0.6341    0.2914 C   0  0  0  0  0  0  0  0  0  0  0  0
   -4.6944   -0.6411    0.0654 N   0  0  0  0  0  0  0  0  0  0  0  0
   -3.3855   -1.0182   -0.1337 N   0  0  0  0  0  0  0  0  0  0  0  0
   -3.0316   -2.3246   -0.3866 C   0  0  0  0  0  0  0  0  0  0  0  0
   -3.7828   -3.2912   -0.4676 O   0  0  0  0  0  0  0  0  0  0  0  0
   -1.5743   -2.5175   -0.5644 C   0  0  0  0  0  0  0  0  0  0  0  0
   -0.7436   -1.4638   -0.4775 C   0  0  0  0  0  0  0  0  0  0  0  0
    0.7497   -1.6462   -0.6394 C   0  0  0  0  0  0  0  0  0  0  0  0
    1.2768   -1.1846   -2.3266 S   0  0  0  0  0  0  0  0  0  0  0  0
    1.5003    0.6156   -2.0942 C   0  0  0  0  0  0  0  0  0  0  0  0
    2.6897    0.9336   -1.1953 C   0  0  0  0  0  0  0  0  0  0  0  0
    2.5945    1.7658   -0.2983 O   0  0  0  0  0  0  0  0  0  0  0  0
    3.8358    0.2378   -1.5468 N   0  0  0  0  0  0  0  0  0  0  0  0
    5.1126    0.3152   -0.9599 C   0  0  0  0  0  0  0  0  0  0  0  0
    6.0984   -0.5470   -1.4631 C   0  0  0  0  0  0  0  0  0  0  0  0
    7.3921   -0.5329   -0.9356 C   0  0  0  0  0  0  0  0  0  0  0  0
    7.7002    0.3447    0.0947 C   0  0  0  0  0  0  0  0  0  0  0  0
    8.9396    0.3596    0.6016 F   0  0  0  0  0  0  0  0  0  0  0  0
    6.7391    1.2069    0.6045 C   0  0  0  0  0  0  0  0  0  0  0  0
    5.4439    1.1928    0.0765 C   0  0  0  0  0  0  0  0  0  0  0  0
   -1.1698   -0.1800   -0.2014 N   0  0  0  0  0  0  0  0  0  0  0  0
   -2.4423   -0.0298   -0.0520 C   0  0  0  0  0  0  0  0  0  0  0  0
   -3.2052    1.4887    0.2884 S   0  0  0  0  0  0  0  0  0  0  0  0
   -5.7581   -0.4348    2.7427 H   0  0  0  0  0  0  0  0  0  0  0  0
   -7.4627   -0.2143    2.2973 H   0  0  0  0  0  0  0  0  0  0  0  0
   -6.8432    0.4594    3.8138 H   0  0  0  0  0  0  0  0  0  0  0  0
   -5.3798    2.0219    2.5501 H   0  0  0  0  0  0  0  0  0  0  0  0
   -7.0871    2.2683    2.1912 H   0  0  0  0  0  0  0  0  0  0  0  0
   -6.8332    0.8635    0.0974 H   0  0  0  0  0  0  0  0  0  0  0  0
   -5.9281    2.3767    0.0880 H   0  0  0  0  0  0  0  0  0  0  0  0
   -1.2427   -3.5270   -0.7715 H   0  0  0  0  0  0  0  0  0  0  0  0
    1.3005   -1.0790    0.1179 H   0  0  0  0  0  0  0  0  0  0  0  0
    1.0233   -2.6978   -0.4957 H   0  0  0  0  0  0  0  0  0  0  0  0
    0.5935    1.0671   -1.6859 H   0  0  0  0  0  0  0  0  0  0  0  0
    1.6864    1.0703   -3.0727 H   0  0  0  0  0  0  0  0  0  0  0  0
    3.7132   -0.4537   -2.2804 H   0  0  0  0  0  0  0  0  0  0  0  0
    5.8742   -1.2402   -2.2700 H   0  0  0  0  0  0  0  0  0  0  0  0
    8.1575   -1.1984   -1.3215 H   0  0  0  0  0  0  0  0  0  0  0  0
    6.9979    1.8877    1.4093 H   0  0  0  0  0  0  0  0  0  0  0  0
    4.7186    1.8827    0.4967 H   0  0  0  0  0  0  0  0  0  0  0  0
  1  2  1  0
  2  3  1  0
  3  4  1  0
  4  5  2  0
  5  6  1  0
  6  7  1  0
  7  8  2  0
  7  9  1  0
  9 10  2  0
 10 11  1  0
 11 12  1  0
 12 13  1  0
 13 14  1  0
 14 15  2  0
 14 16  1  0
 16 17  1  0
 17 18  2  0
 18 19  1  0
 19 20  2  0
 20 21  1  0
 20 22  1  0
 22 23  2  0
 10 24  1  0
 24 25  2  0
 25 26  1  0
 26  4  1  0
 25  6  1  0
 23 17  1  0
  1 27  1  0
  1 28  1  0
  1 29  1  0
  2 30  1  0
  2 31  1  0
  3 32  1  0
  3 33  1  0
  9 34  1  0
 11 35  1  0
 11 36  1  0
 13 37  1  0
 13 38  1  0
 16 39  1  0
 18 40  1  0
 19 41  1  0
 22 42  1  0
 23 43  1  0
M  END
$$$$
