
     RDKit          3D

 47 50  0  0  0  0  0  0  0  0999 V2000
   -3.3935   -1.6246   -0.3737 O   0  0  0  0  0  0  0  0  0  0  0  0
   -3.3831   -0.6452    0.3815 C   0  0  0  0  0  0  0  0  0  0  0  0
   -4.4797   -0.4446    1.4764 C   0  0  0  0  0  0  0  0  0  0  0  0
   -5.5318   -1.5752    1.6621 C   0  0  0  0  0  0  0  0  0  0  0  0
   -6.4723   -0.7808    0.7400 C   0  0  0  0  0  0  0  0  0  0  0  0
   -5.6757    0.4799    1.1164 C   0  0  0  0  0  0  0  0  0  0  0  0
   -2.4057    0.3450    0.3247 N   0  0  0  0  0  0  0  0  0  0  0  0
   -2.3171    1.5099    1.2214 C   0  0  0  0  0  0  0  0  0  0  0  0
   -1.1208    2.3572    0.7718 C   0  0  0  0  0  0  0  0  0  0  0  0
   -0.5528    1.5332   -0.3374 C   0  0  0  0  0  0  0  0  0  0  0  0
    0.5779    1.8122   -1.0911 C   0  0  0  0  0  0  0  0  0  0  0  0
    0.9273    0.9120   -2.1029 C   0  0  0  0  0  0  0  0  0  0  0  0
    2.3698    1.2392   -3.0865 S   0  0  0  0  0  6  0  0  0  0  0  0
    2.3816    0.3351   -4.2144 O   0  0  0  0  0  0  0  0  0  0  0  0
    2.4653    2.6725   -3.2521 O   0  0  0  0  0  0  0  0  0  0  0  0
    3.5885    0.7919   -2.0423 N   0  0  0  0  0  0  0  0  0  0  0  0
    3.9814   -0.6190   -2.0018 C   0  0  0  0  0  0  0  0  0  0  0  0
    4.8585   -0.9002   -0.8016 C   0  0  0  0  0  0  0  0  0  0  0  0
    4.3751   -1.6432    0.2734 C   0  0  0  0  0  0  0  0  0  0  0  0
    5.2062   -1.8551    1.3702 C   0  0  0  0  0  0  0  0  0  0  0  0
    6.4871   -1.3174    1.3698 C   0  0  0  0  0  0  0  0  0  0  0  0
    6.8867   -0.5817    0.2679 C   0  0  0  0  0  0  0  0  0  0  0  0
    6.1036   -0.3552   -0.8096 N   0  0  0  0  0  0  0  0  0  0  0  0
    0.1465   -0.2262   -2.3643 C   0  0  0  0  0  0  0  0  0  0  0  0
   -0.9890   -0.4905   -1.5906 C   0  0  0  0  0  0  0  0  0  0  0  0
   -1.3261    0.3941   -0.5771 C   0  0  0  0  0  0  0  0  0  0  0  0
   -4.0264   -0.1903    2.4428 H   0  0  0  0  0  0  0  0  0  0  0  0
   -5.8986   -1.6675    2.6920 H   0  0  0  0  0  0  0  0  0  0  0  0
   -5.2535   -2.5698    1.3033 H   0  0  0  0  0  0  0  0  0  0  0  0
   -6.3885   -1.0548   -0.3178 H   0  0  0  0  0  0  0  0  0  0  0  0
   -7.5278   -0.7796    1.0243 H   0  0  0  0  0  0  0  0  0  0  0  0
   -6.0824    1.0232    1.9767 H   0  0  0  0  0  0  0  0  0  0  0  0
   -5.5143    1.1874    0.2989 H   0  0  0  0  0  0  0  0  0  0  0  0
   -2.1788    1.1527    2.2484 H   0  0  0  0  0  0  0  0  0  0  0  0
   -3.2513    2.0803    1.1796 H   0  0  0  0  0  0  0  0  0  0  0  0
   -0.4016    2.4910    1.5853 H   0  0  0  0  0  0  0  0  0  0  0  0
   -1.4486    3.3345    0.4043 H   0  0  0  0  0  0  0  0  0  0  0  0
    1.1725    2.7020   -0.9031 H   0  0  0  0  0  0  0  0  0  0  0  0
    4.3516    1.4651   -1.9631 H   0  0  0  0  0  0  0  0  0  0  0  0
    3.1004   -1.2677   -1.9774 H   0  0  0  0  0  0  0  0  0  0  0  0
    4.5551   -0.8622   -2.9036 H   0  0  0  0  0  0  0  0  0  0  0  0
    3.3678   -2.0477    0.2673 H   0  0  0  0  0  0  0  0  0  0  0  0
    4.8536   -2.4339    2.2192 H   0  0  0  0  0  0  0  0  0  0  0  0
    7.1560   -1.4651    2.2096 H   0  0  0  0  0  0  0  0  0  0  0  0
    7.8770   -0.1364    0.2226 H   0  0  0  0  0  0  0  0  0  0  0  0
    0.4124   -0.9103   -3.1680 H   0  0  0  0  0  0  0  0  0  0  0  0
   -1.5825   -1.3741   -1.8021 H   0  0  0  0  0  0  0  0  0  0  0  0
  1  2  2  0
  2  3  1  0
  3  4  1  0
  4  5  1  0
  5  6  1  0
  2  7  1  0
  7  8  1  0
  8  9  1  0
  9 10  1  0
 10 11  2  0
 11 12  1  0
 12 13  1  0
 13 14  2  0
 13 15  2  0
 13 16  1  0
 16 17  1  0
 17 18  1  0
 18 19  2  0
 19 20  1  0
 20 21  2  0
 21 22  1  0
 22 23  2  0
 12 24  2  0
 24 25  1  0
 25 26  2  0
  6  3  1  0
 26  7  1  0
 26 10  1  0
 23 18  1  0
  3 27  1  0
  4 28  1  0
  4 29  1  0
  5 30  1  0
  5 31  1  0
  6 32  1  0
  6 33  1  0
  8 34  1  0
  8 35  1  0
  9 36  1  0
  9 37  1  0
 11 38  1  0
 16 39  1  0
 17 40  1  0
 17 41  1  0
 19 42  1  0
 20 43  1  0
 21 44  1  0
 22 45  1  0
 24 46  1  0
 25 47  1  0
M  END
$$$$
