
     RDKit          3D

 36 37  0  0  0  0  0  0  0  0999 V2000
    0.8528    2.0478   -1.2635 C   0  0  0  0  0  0  0  0  0  0  0  0
    1.0282    0.6352   -1.2517 O   0  0  0  0  0  0  0  0  0  0  0  0
    2.2816    0.1698   -0.9421 C   0  0  0  0  0  0  0  0  0  0  0  0
    3.4057    0.9794   -0.7448 C   0  0  0  0  0  0  0  0  0  0  0  0
    4.6406    0.4125   -0.4191 C   0  0  0  0  0  0  0  0  0  0  0  0
    4.7630   -0.9662   -0.2838 C   0  0  0  0  0  0  0  0  0  0  0  0
    3.6518   -1.7821   -0.4818 C   0  0  0  0  0  0  0  0  0  0  0  0
    2.4073   -1.2268   -0.8238 C   0  0  0  0  0  0  0  0  0  0  0  0
    1.2229   -2.1456   -1.0096 C   0  0  0  0  0  0  0  0  0  0  0  0
    0.4011   -2.2877    0.2599 C   0  0  0  0  0  0  0  0  0  0  0  0
    0.6701   -3.1455    1.0953 O   0  0  0  0  0  0  0  0  0  0  0  0
   -0.6295   -1.3666    0.3356 N   0  0  0  0  0  0  0  0  0  0  0  0
   -1.5629   -1.2526    1.3467 C   0  0  0  0  0  0  0  0  0  0  0  0
   -1.6001   -1.9444    2.3582 O   0  0  0  0  0  0  0  0  0  0  0  0
   -2.5889   -0.1732    1.1734 C   0  0  0  0  0  0  0  0  0  0  0  0
   -3.3479    0.1806    2.3013 C   0  0  0  0  0  0  0  0  0  0  0  0
   -4.3275    1.1727    2.2226 C   0  0  0  0  0  0  0  0  0  0  0  0
   -4.5644    1.8216    1.0135 C   0  0  0  0  0  0  0  0  0  0  0  0
   -3.8267    1.4786   -0.1197 C   0  0  0  0  0  0  0  0  0  0  0  0
   -2.8464    0.4843   -0.0399 C   0  0  0  0  0  0  0  0  0  0  0  0
   -2.1454    0.1604   -1.1727 O   0  0  0  0  0  0  0  0  0  0  0  0
    1.0808    2.4838   -0.2852 H   0  0  0  0  0  0  0  0  0  0  0  0
    1.4484    2.5118   -2.0563 H   0  0  0  0  0  0  0  0  0  0  0  0
   -0.1999    2.2527   -1.4799 H   0  0  0  0  0  0  0  0  0  0  0  0
    3.3591    2.0595   -0.8334 H   0  0  0  0  0  0  0  0  0  0  0  0
    5.5068    1.0505   -0.2628 H   0  0  0  0  0  0  0  0  0  0  0  0
    5.7202   -1.4068   -0.0171 H   0  0  0  0  0  0  0  0  0  0  0  0
    3.7559   -2.8587   -0.3564 H   0  0  0  0  0  0  0  0  0  0  0  0
    1.5586   -3.1473   -1.3073 H   0  0  0  0  0  0  0  0  0  0  0  0
    0.5930   -1.8033   -1.8397 H   0  0  0  0  0  0  0  0  0  0  0  0
   -0.7060   -0.6997   -0.4265 H   0  0  0  0  0  0  0  0  0  0  0  0
   -3.1763   -0.3201    3.2538 H   0  0  0  0  0  0  0  0  0  0  0  0
   -4.9048    1.4338    3.1067 H   0  0  0  0  0  0  0  0  0  0  0  0
   -5.3283    2.5935    0.9545 H   0  0  0  0  0  0  0  0  0  0  0  0
   -4.0310    1.9971   -1.0521 H   0  0  0  0  0  0  0  0  0  0  0  0
   -2.5624    0.6010   -1.9353 H   0  0  0  0  0  0  0  0  0  0  0  0
  1  2  1  0
  2  3  1  0
  3  4  2  0
  4  5  1  0
  5  6  2  0
  6  7  1  0
  7  8  2  0
  8  9  1  0
  9 10  1  0
 10 11  2  0
 10 12  1  0
 12 13  1  0
 13 14  2  0
 13 15  1  0
 15 16  2  0
 16 17  1  0
 17 18  2  0
 18 19  1  0
 19 20  2  0
 20 21  1  0
  8  3  1  0
 20 15  1  0
  1 22  1  0
  1 23  1  0
  1 24  1  0
  4 25  1  0
  5 26  1  0
  6 27  1  0
  7 28  1  0
  9 29  1  0
  9 30  1  0
 12 31  1  0
 16 32  1  0
 17 33  1  0
 18 34  1  0
 19 35  1  0
 21 36  1  0
M  END
$$$$
