
     RDKit          3D

 54 57  0  0  0  0  0  0  0  0999 V2000
   -2.9042   -5.2510   -0.4360 C   0  0  0  0  0  0  0  0  0  0  0  0
   -3.5525   -4.2161   -1.1644 O   0  0  0  0  0  0  0  0  0  0  0  0
   -3.4141   -2.9433   -0.6838 C   0  0  0  0  0  0  0  0  0  0  0  0
   -2.7088   -2.5693    0.4595 C   0  0  0  0  0  0  0  0  0  0  0  0
   -2.6464   -1.2227    0.8387 C   0  0  0  0  0  0  0  0  0  0  0  0
   -3.2861   -0.2331    0.0813 C   0  0  0  0  0  0  0  0  0  0  0  0
   -3.1959    1.1790    0.4754 C   0  0  0  0  0  0  0  0  0  0  0  0
   -4.6388    2.0006    0.8913 S   0  0  0  0  0  0  0  0  0  0  0  0
   -3.8154    3.4668    1.2368 C   0  0  0  0  0  0  0  0  0  0  0  0
   -4.3944    4.6782    1.6658 C   0  0  0  0  0  0  0  0  0  0  0  0
   -3.5702    5.7814    1.8948 C   0  0  0  0  0  0  0  0  0  0  0  0
   -2.2005    5.6876    1.7005 C   0  0  0  0  0  0  0  0  0  0  0  0
   -1.6312    4.4834    1.2761 C   0  0  0  0  0  0  0  0  0  0  0  0
   -2.4392    3.3396    1.0398 C   0  0  0  0  0  0  0  0  0  0  0  0
   -2.0879    2.0040    0.6047 C   0  0  0  0  0  0  0  0  0  0  0  0
   -0.7364    1.5310    0.3179 C   0  0  0  0  0  0  0  0  0  0  0  0
    0.1989    1.4194    1.3530 C   0  0  0  0  0  0  0  0  0  0  0  0
    1.4959    0.9635    1.0906 C   0  0  0  0  0  0  0  0  0  0  0  0
    1.8672    0.6172   -0.2087 C   0  0  0  0  0  0  0  0  0  0  0  0
    3.0937    0.1578   -0.6002 O   0  0  0  0  0  0  0  0  0  0  0  0
    4.0762   -0.0352    0.4212 C   0  0  0  0  0  0  0  0  0  0  0  0
    5.3645   -0.6000   -0.2082 C   0  0  0  0  0  0  0  0  0  0  0  0
    5.3963   -2.0743   -0.3399 N   0  0  0  0  0  0  0  0  0  0  0  0
    4.3440   -2.5655   -1.2333 C   0  0  0  0  0  0  0  0  0  0  0  0
    6.7069   -2.5001   -0.8384 C   0  0  0  0  0  0  0  0  0  0  0  0
    0.9340    0.7367   -1.2418 C   0  0  0  0  0  0  0  0  0  0  0  0
   -0.3613    1.1922   -0.9848 C   0  0  0  0  0  0  0  0  0  0  0  0
   -3.9924   -0.6155   -1.0653 C   0  0  0  0  0  0  0  0  0  0  0  0
   -4.0550   -1.9604   -1.4410 C   0  0  0  0  0  0  0  0  0  0  0  0
   -3.1046   -6.1967   -0.9488 H   0  0  0  0  0  0  0  0  0  0  0  0
   -3.3069   -5.3311    0.5791 H   0  0  0  0  0  0  0  0  0  0  0  0
   -1.8191   -5.1039   -0.4213 H   0  0  0  0  0  0  0  0  0  0  0  0
   -2.1942   -3.2956    1.0792 H   0  0  0  0  0  0  0  0  0  0  0  0
   -2.0908   -0.9522    1.7340 H   0  0  0  0  0  0  0  0  0  0  0  0
   -5.4679    4.7547    1.8145 H   0  0  0  0  0  0  0  0  0  0  0  0
   -4.0085    6.7204    2.2243 H   0  0  0  0  0  0  0  0  0  0  0  0
   -1.5650    6.5522    1.8755 H   0  0  0  0  0  0  0  0  0  0  0  0
   -0.5561    4.4282    1.1213 H   0  0  0  0  0  0  0  0  0  0  0  0
   -0.0778    1.6799    2.3724 H   0  0  0  0  0  0  0  0  0  0  0  0
    2.1873    0.8900    1.9231 H   0  0  0  0  0  0  0  0  0  0  0  0
    3.7093   -0.7147    1.2003 H   0  0  0  0  0  0  0  0  0  0  0  0
    4.3143    0.9371    0.8703 H   0  0  0  0  0  0  0  0  0  0  0  0
    5.5414   -0.1250   -1.1819 H   0  0  0  0  0  0  0  0  0  0  0  0
    6.1894   -0.3136    0.4567 H   0  0  0  0  0  0  0  0  0  0  0  0
    4.3869   -2.0950   -2.2222 H   0  0  0  0  0  0  0  0  0  0  0  0
    3.3517   -2.3973   -0.8037 H   0  0  0  0  0  0  0  0  0  0  0  0
    4.4294   -3.6501   -1.3677 H   0  0  0  0  0  0  0  0  0  0  0  0
    6.7629   -3.5933   -0.8900 H   0  0  0  0  0  0  0  0  0  0  0  0
    6.9224   -2.0957   -1.8341 H   0  0  0  0  0  0  0  0  0  0  0  0
    7.5020   -2.1802   -0.1558 H   0  0  0  0  0  0  0  0  0  0  0  0
    1.2167    0.4695   -2.2571 H   0  0  0  0  0  0  0  0  0  0  0  0
   -1.0699    1.2755   -1.8051 H   0  0  0  0  0  0  0  0  0  0  0  0
   -4.4934    0.1288   -1.6796 H   0  0  0  0  0  0  0  0  0  0  0  0
   -4.6063   -2.2436   -2.3343 H   0  0  0  0  0  0  0  0  0  0  0  0
  1  2  1  0
  2  3  1  0
  3  4  2  0
  4  5  1  0
  5  6  2  0
  6  7  1  0
  7  8  1  0
  8  9  1  0
  9 10  2  0
 10 11  1  0
 11 12  2  0
 12 13  1  0
 13 14  2  0
 14 15  1  0
 15 16  1  0
 16 17  2  0
 17 18  1  0
 18 19  2  0
 19 20  1  0
 20 21  1  0
 21 22  1  0
 22 23  1  0
 23 24  1  0
 23 25  1  0
 19 26  1  0
 26 27  2  0
  6 28  1  0
 28 29  2  0
 29  3  1  0
 15  7  2  0
 27 16  1  0
 14  9  1  0
  1 30  1  0
  1 31  1  0
  1 32  1  0
  4 33  1  0
  5 34  1  0
 10 35  1  0
 11 36  1  0
 12 37  1  0
 13 38  1  0
 17 39  1  0
 18 40  1  0
 21 41  1  0
 21 42  1  0
 22 43  1  0
 22 44  1  0
 24 45  1  0
 24 46  1  0
 24 47  1  0
 25 48  1  0
 25 49  1  0
 25 50  1  0
 26 51  1  0
 27 52  1  0
 28 53  1  0
 29 54  1  0
M  END
$$$$
