
     RDKit          3D

 42 44  0  0  0  0  0  0  0  0999 V2000
    5.0923   -1.1264   -0.0535 C   0  0  0  0  0  0  0  0  0  0  0  0
    4.2397    0.0568   -0.4911 C   0  0  0  0  0  0  0  0  0  0  0  0
    3.5975   -0.1180   -1.8689 C   0  0  0  0  0  0  0  0  0  0  0  0
    2.4009   -1.4960   -1.9711 S   0  0  0  0  0  0  0  0  0  0  0  0
    1.0098   -0.8314   -1.0640 C   0  0  0  0  0  0  0  0  0  0  0  0
    0.0096   -1.6954   -0.6725 C   0  0  0  0  0  0  0  0  0  0  0  0
   -1.0615   -1.1627    0.0131 C   0  0  0  0  0  0  0  0  0  0  0  0
   -2.0989   -1.9491    0.4589 N   0  0  0  0  0  0  0  0  0  0  0  0
   -2.4579   -3.2330   -0.1331 C   0  0  0  0  0  0  0  0  0  0  0  0
   -3.9546   -3.3721    0.1490 C   0  0  0  0  0  0  0  0  0  0  0  0
   -4.1684   -2.5114    1.3839 C   0  0  0  0  0  0  0  0  0  0  0  0
   -3.2357   -1.3311    1.1320 C   0  0  0  0  0  0  0  0  0  0  0  0
   -1.0968    0.1508    0.2946 N   0  0  0  0  0  0  0  0  0  0  0  0
   -0.0841    0.9295   -0.1287 C   0  0  0  0  0  0  0  0  0  0  0  0
   -0.1455    2.3724    0.1859 C   0  0  0  0  0  0  0  0  0  0  0  0
   -1.2133    2.9199    0.9241 C   0  0  0  0  0  0  0  0  0  0  0  0
   -1.2734    4.2848    1.2244 C   0  0  0  0  0  0  0  0  0  0  0  0
   -0.2633    5.1382    0.7918 C   0  0  0  0  0  0  0  0  0  0  0  0
    0.8050    4.6284    0.0606 C   0  0  0  0  0  0  0  0  0  0  0  0
    0.8613    3.2627   -0.2373 C   0  0  0  0  0  0  0  0  0  0  0  0
    0.9782    0.4832   -0.8144 N   0  0  0  0  0  0  0  0  0  0  0  0
    5.8556   -1.3590   -0.8029 H   0  0  0  0  0  0  0  0  0  0  0  0
    4.4871   -2.0220    0.1146 H   0  0  0  0  0  0  0  0  0  0  0  0
    5.6030   -0.8920    0.8861 H   0  0  0  0  0  0  0  0  0  0  0  0
    3.4817    0.2609    0.2730 H   0  0  0  0  0  0  0  0  0  0  0  0
    4.8836    0.9442   -0.5285 H   0  0  0  0  0  0  0  0  0  0  0  0
    4.3823   -0.3250   -2.6052 H   0  0  0  0  0  0  0  0  0  0  0  0
    3.1178    0.8134   -2.1876 H   0  0  0  0  0  0  0  0  0  0  0  0
    0.0781   -2.7530   -0.8858 H   0  0  0  0  0  0  0  0  0  0  0  0
   -1.8956   -4.0355    0.3567 H   0  0  0  0  0  0  0  0  0  0  0  0
   -2.2769   -3.2762   -1.2128 H   0  0  0  0  0  0  0  0  0  0  0  0
   -4.5313   -2.9660   -0.6911 H   0  0  0  0  0  0  0  0  0  0  0  0
   -4.2571   -4.4126    0.2969 H   0  0  0  0  0  0  0  0  0  0  0  0
   -5.2096   -2.2039    1.5138 H   0  0  0  0  0  0  0  0  0  0  0  0
   -3.8539   -3.0586    2.2808 H   0  0  0  0  0  0  0  0  0  0  0  0
   -3.7245   -0.5976    0.4789 H   0  0  0  0  0  0  0  0  0  0  0  0
   -2.9516   -0.8477    2.0728 H   0  0  0  0  0  0  0  0  0  0  0  0
   -2.0166    2.2740    1.2758 H   0  0  0  0  0  0  0  0  0  0  0  0
   -2.1105    4.6764    1.7964 H   0  0  0  0  0  0  0  0  0  0  0  0
   -0.3085    6.1988    1.0243 H   0  0  0  0  0  0  0  0  0  0  0  0
    1.5971    5.2898   -0.2804 H   0  0  0  0  0  0  0  0  0  0  0  0
    1.7086    2.8914   -0.8116 H   0  0  0  0  0  0  0  0  0  0  0  0
  1  2  1  0
  2  3  1  0
  3  4  1  0
  4  5  1  0
  5  6  2  0
  6  7  1  0
  7  8  1  0
  8  9  1  0
  9 10  1  0
 10 11  1  0
 11 12  1  0
  7 13  2  0
 13 14  1  0
 14 15  1  0
 15 16  2  0
 16 17  1  0
 17 18  2  0
 18 19  1  0
 19 20  2  0
 14 21  2  0
 21  5  1  0
 12  8  1  0
 20 15  1  0
  1 22  1  0
  1 23  1  0
  1 24  1  0
  2 25  1  0
  2 26  1  0
  3 27  1  0
  3 28  1  0
  6 29  1  0
  9 30  1  0
  9 31  1  0
 10 32  1  0
 10 33  1  0
 11 34  1  0
 11 35  1  0
 12 36  1  0
 12 37  1  0
 16 38  1  0
 17 39  1  0
 18 40  1  0
 19 41  1  0
 20 42  1  0
M  END
$$$$
