
     RDKit          3D

 57 61  0  0  0  0  0  0  0  0999 V2000
    7.7201    0.3858    1.9140 C   0  0  0  0  0  0  0  0  0  0  0  0
    7.0838    1.2710    1.0005 O   0  0  0  0  0  0  0  0  0  0  0  0
    6.1537    0.7254    0.1598 C   0  0  0  0  0  0  0  0  0  0  0  0
    5.5501    1.6357   -0.7118 C   0  0  0  0  0  0  0  0  0  0  0  0
    4.5777    1.2165   -1.6223 C   0  0  0  0  0  0  0  0  0  0  0  0
    4.1993   -0.1303   -1.6789 C   0  0  0  0  0  0  0  0  0  0  0  0
    3.1177   -0.5893   -2.6214 C   0  0  0  0  0  0  0  0  0  0  0  0
    1.8323   -0.5249   -1.9658 N   0  0  0  0  0  0  0  0  0  0  0  0
    1.2613   -1.6247   -1.3737 C   0  0  0  0  0  0  0  0  0  0  0  0
    1.6986   -2.7652   -1.4734 O   0  0  0  0  0  0  0  0  0  0  0  0
    0.0339   -1.3184   -0.5997 C   0  0  0  0  0  0  0  0  0  0  0  0
   -0.9990   -2.1714   -0.6864 C   0  0  0  0  0  0  0  0  0  0  0  0
   -2.2753   -1.9192   -0.0348 C   0  0  0  0  0  0  0  0  0  0  0  0
   -3.3687   -2.9258   -0.1545 C   0  0  0  0  0  0  0  0  0  0  0  0
   -3.1845   -3.9602   -0.8001 O   0  0  0  0  0  0  0  0  0  0  0  0
   -4.5531   -2.6144    0.4887 N   0  0  0  0  0  0  0  0  0  0  0  0
   -5.6153   -3.5118    0.4411 C   0  0  0  0  0  0  0  0  0  0  0  0
   -6.7834   -3.2537    1.0418 C   0  0  0  0  0  0  0  0  0  0  0  0
   -6.9640   -2.0170    1.7534 C   0  0  0  0  0  0  0  0  0  0  0  0
   -5.9696   -1.1231    1.8217 C   0  0  0  0  0  0  0  0  0  0  0  0
   -4.6649   -1.4119    1.1607 C   0  0  0  0  0  0  0  0  0  0  0  0
   -3.7196   -0.5323    1.2500 N   0  0  0  0  0  0  0  0  0  0  0  0
   -2.5018   -0.7773    0.6556 C   0  0  0  0  0  0  0  0  0  0  0  0
   -1.4492    0.1662    0.7682 N   0  0  0  0  0  0  0  0  0  0  0  0
   -1.6778    1.4349    1.4789 C   0  0  0  0  0  0  0  0  0  0  0  0
   -2.0856    2.5321    0.5271 C   0  0  0  0  0  0  0  0  0  0  0  0
   -1.1480    3.4058   -0.0316 C   0  0  0  0  0  0  0  0  0  0  0  0
   -1.5659    4.4014   -0.9101 C   0  0  0  0  0  0  0  0  0  0  0  0
   -2.9156    4.4889   -1.2075 C   0  0  0  0  0  0  0  0  0  0  0  0
   -3.8520    3.6615   -0.6966 N   0  0  0  0  0  0  0  0  0  0  0  0
   -3.4152    2.7022    0.1536 C   0  0  0  0  0  0  0  0  0  0  0  0
   -0.1753   -0.0951    0.2473 C   0  0  0  0  0  0  0  0  0  0  0  0
    0.8241    0.7028    0.5069 N   0  0  0  0  0  0  0  0  0  0  0  0
    4.8009   -1.0393   -0.7974 C   0  0  0  0  0  0  0  0  0  0  0  0
    5.7741   -0.6157    0.1137 C   0  0  0  0  0  0  0  0  0  0  0  0
    8.4299    0.9701    2.5075 H   0  0  0  0  0  0  0  0  0  0  0  0
    8.2869   -0.3878    1.3846 H   0  0  0  0  0  0  0  0  0  0  0  0
    6.9948   -0.0573    2.6045 H   0  0  0  0  0  0  0  0  0  0  0  0
    5.8374    2.6840   -0.6744 H   0  0  0  0  0  0  0  0  0  0  0  0
    4.1177    1.9515   -2.2791 H   0  0  0  0  0  0  0  0  0  0  0  0
    3.3226   -1.6059   -2.9757 H   0  0  0  0  0  0  0  0  0  0  0  0
    3.0740    0.0609   -3.5014 H   0  0  0  0  0  0  0  0  0  0  0  0
    1.3978    0.3867   -1.8686 H   0  0  0  0  0  0  0  0  0  0  0  0
   -0.9145   -3.0772   -1.2854 H   0  0  0  0  0  0  0  0  0  0  0  0
   -5.4567   -4.4387   -0.1057 H   0  0  0  0  0  0  0  0  0  0  0  0
   -7.6054   -3.9615    1.0013 H   0  0  0  0  0  0  0  0  0  0  0  0
   -7.9215   -1.8256    2.2268 H   0  0  0  0  0  0  0  0  0  0  0  0
   -6.0678   -0.1795    2.3454 H   0  0  0  0  0  0  0  0  0  0  0  0
   -2.4428    1.3286    2.2595 H   0  0  0  0  0  0  0  0  0  0  0  0
   -0.7855    1.7436    2.0390 H   0  0  0  0  0  0  0  0  0  0  0  0
   -0.0927    3.3103    0.2166 H   0  0  0  0  0  0  0  0  0  0  0  0
   -0.8559    5.0913   -1.3514 H   0  0  0  0  0  0  0  0  0  0  0  0
   -3.2912    5.2505   -1.8856 H   0  0  0  0  0  0  0  0  0  0  0  0
   -4.1960    2.0519    0.5396 H   0  0  0  0  0  0  0  0  0  0  0  0
    1.7121    0.3416    0.1350 H   0  0  0  0  0  0  0  0  0  0  0  0
    4.5045   -2.0886   -0.8108 H   0  0  0  0  0  0  0  0  0  0  0  0
    6.2084   -1.3580    0.7752 H   0  0  0  0  0  0  0  0  0  0  0  0
  1  2  1  0
  2  3  1  0
  3  4  2  0
  4  5  1  0
  5  6  2  0
  6  7  1  0
  7  8  1  0
  8  9  1  0
  9 10  2  0
  9 11  1  0
 11 12  2  0
 12 13  1  0
 13 14  1  0
 14 15  2  0
 14 16  1  0
 16 17  1  0
 17 18  2  0
 18 19  1  0
 19 20  2  0
 20 21  1  0
 21 22  2  0
 22 23  1  0
 23 24  1  0
 24 25  1  0
 25 26  1  0
 26 27  2  0
 27 28  1  0
 28 29  2  0
 29 30  1  0
 30 31  2  0
 24 32  1  0
 32 33  2  3
  6 34  1  0
 34 35  2  0
 35  3  1  0
 32 11  1  0
 23 13  2  0
 31 26  1  0
 21 16  1  0
  1 36  1  0
  1 37  1  0
  1 38  1  0
  4 39  1  0
  5 40  1  0
  7 41  1  0
  7 42  1  0
  8 43  1  0
 12 44  1  0
 17 45  1  0
 18 46  1  0
 19 47  1  0
 20 48  1  0
 25 49  1  0
 25 50  1  0
 27 51  1  0
 28 52  1  0
 29 53  1  0
 31 54  1  0
 33 55  1  0
 34 56  1  0
 35 57  1  0
M  END
$$$$
