
     RDKit          3D

 60 64  0  0  0  0  0  0  0  0999 V2000
   -1.2403    2.0701   -0.6400 O   0  0  0  0  0  0  0  0  0  0  0  0
   -1.3808    1.5187    0.4514 C   0  0  0  0  0  0  0  0  0  0  0  0
   -0.5518    1.9289    1.6587 C   0  0  0  0  0  0  0  0  0  0  0  0
    0.5066    2.9935    1.3331 C   0  0  0  0  0  0  0  0  0  0  0  0
    1.5048    2.5555    0.3554 N   0  0  0  0  0  0  0  0  0  0  0  0
    1.7073    3.3508   -0.7609 C   0  0  0  0  0  0  0  0  0  0  0  0
    1.2609    4.4880   -0.8949 O   0  0  0  0  0  0  0  0  0  0  0  0
    2.5534    2.7837   -1.8214 C   0  0  0  0  0  0  0  0  0  0  0  0
    2.6564    3.4615   -3.0471 C   0  0  0  0  0  0  0  0  0  0  0  0
    3.4438    2.9414   -4.0679 C   0  0  0  0  0  0  0  0  0  0  0  0
    4.1288    1.7503   -3.8599 C   0  0  0  0  0  0  0  0  0  0  0  0
    4.0244    1.0797   -2.6343 C   0  0  0  0  0  0  0  0  0  0  0  0
    3.2271    1.5827   -1.5943 C   0  0  0  0  0  0  0  0  0  0  0  0
    3.1119    0.9510   -0.3232 N   0  0  0  0  0  0  0  0  0  0  0  0
    3.7458   -0.3402   -0.0443 C   0  0  0  0  0  0  0  0  0  0  0  0
    2.8279   -1.5103   -0.3602 C   0  0  0  0  0  0  0  0  0  0  0  0
    2.9489   -2.2259   -1.5609 C   0  0  0  0  0  0  0  0  0  0  0  0
    2.0756   -3.2755   -1.8639 C   0  0  0  0  0  0  0  0  0  0  0  0
    1.0645   -3.6294   -0.9714 C   0  0  0  0  0  0  0  0  0  0  0  0
    0.9370   -2.9288    0.2327 C   0  0  0  0  0  0  0  0  0  0  0  0
   -0.1179   -3.3020    1.1845 N   0  0  0  0  0  4  0  0  0  0  0  0
   -0.8218   -4.2833    0.9046 O   0  0  0  0  0  0  0  0  0  0  0  0
   -0.2327   -2.6225    2.2150 O   0  0  0  0  0  1  0  0  0  0  0  0
    1.8132   -1.8790    0.5416 C   0  0  0  0  0  0  0  0  0  0  0  0
    2.3225    1.4898    0.6902 C   0  0  0  0  0  0  0  0  0  0  0  0
    2.3354    1.0280    1.8349 O   0  0  0  0  0  0  0  0  0  0  0  0
   -2.2940    0.4834    0.6381 N   0  0  0  0  0  0  0  0  0  0  0  0
   -3.2001    0.1605   -0.4615 C   0  0  0  0  0  0  0  0  0  0  0  0
   -3.4573   -1.3402   -0.5502 C   0  0  0  0  0  0  0  0  0  0  0  0
   -3.9062   -1.8941    0.7749 C   0  0  0  0  0  0  0  0  0  0  0  0
   -4.6541   -3.0780    0.8256 C   0  0  0  0  0  0  0  0  0  0  0  0
   -5.0450   -3.6125    2.0523 C   0  0  0  0  0  0  0  0  0  0  0  0
   -4.6831   -2.9755    3.2361 C   0  0  0  0  0  0  0  0  0  0  0  0
   -3.9264   -1.8046    3.1947 C   0  0  0  0  0  0  0  0  0  0  0  0
   -3.5249   -1.2550    1.9672 C   0  0  0  0  0  0  0  0  0  0  0  0
   -2.6930    0.0067    1.9646 C   0  0  0  0  0  0  0  0  0  0  0  0
   -0.0761    1.0363    2.0731 H   0  0  0  0  0  0  0  0  0  0  0  0
   -1.2306    2.3383    2.4154 H   0  0  0  0  0  0  0  0  0  0  0  0
    0.0011    3.9021    0.9880 H   0  0  0  0  0  0  0  0  0  0  0  0
    1.0410    3.2548    2.2549 H   0  0  0  0  0  0  0  0  0  0  0  0
    2.1156    4.3932   -3.2050 H   0  0  0  0  0  0  0  0  0  0  0  0
    3.5221    3.4642   -5.0177 H   0  0  0  0  0  0  0  0  0  0  0  0
    4.7525    1.3403   -4.6514 H   0  0  0  0  0  0  0  0  0  0  0  0
    4.5996    0.1674   -2.5337 H   0  0  0  0  0  0  0  0  0  0  0  0
    4.7043   -0.4347   -0.5640 H   0  0  0  0  0  0  0  0  0  0  0  0
    4.0163   -0.3966    1.0184 H   0  0  0  0  0  0  0  0  0  0  0  0
    3.7252   -1.9757   -2.2797 H   0  0  0  0  0  0  0  0  0  0  0  0
    2.1833   -3.8159   -2.8021 H   0  0  0  0  0  0  0  0  0  0  0  0
    0.3924   -4.4463   -1.2252 H   0  0  0  0  0  0  0  0  0  0  0  0
    1.7114   -1.3432    1.4844 H   0  0  0  0  0  0  0  0  0  0  0  0
   -4.1338    0.7092   -0.2837 H   0  0  0  0  0  0  0  0  0  0  0  0
   -2.7971    0.5094   -1.4182 H   0  0  0  0  0  0  0  0  0  0  0  0
   -4.2158   -1.5275   -1.3189 H   0  0  0  0  0  0  0  0  0  0  0  0
   -2.5377   -1.8600   -0.8463 H   0  0  0  0  0  0  0  0  0  0  0  0
   -4.9309   -3.5935   -0.0910 H   0  0  0  0  0  0  0  0  0  0  0  0
   -5.6239   -4.5317    2.0846 H   0  0  0  0  0  0  0  0  0  0  0  0
   -4.9802   -3.3972    4.1924 H   0  0  0  0  0  0  0  0  0  0  0  0
   -3.6379   -1.3284    4.1293 H   0  0  0  0  0  0  0  0  0  0  0  0
   -3.2716    0.8141    2.4298 H   0  0  0  0  0  0  0  0  0  0  0  0
   -1.7964   -0.1644    2.5675 H   0  0  0  0  0  0  0  0  0  0  0  0
  1  2  2  0
  2  3  1  0
  3  4  1  0
  4  5  1  0
  5  6  1  0
  6  7  2  0
  6  8  1  0
  8  9  2  0
  9 10  1  0
 10 11  2  0
 11 12  1  0
 12 13  2  0
 13 14  1  0
 14 15  1  0
 15 16  1  0
 16 17  2  0
 17 18  1  0
 18 19  2  0
 19 20  1  0
 20 21  1  0
 21 22  2  0
 21 23  1  0
 20 24  2  0
 14 25  1  0
 25 26  2  0
  2 27  1  0
 27 28  1  0
 28 29  1  0
 29 30  1  0
 30 31  2  0
 31 32  1  0
 32 33  2  0
 33 34  1  0
 34 35  2  0
 35 36  1  0
 25  5  1  0
 36 27  1  0
 13  8  1  0
 24 16  1  0
 35 30  1  0
  3 37  1  0
  3 38  1  0
  4 39  1  0
  4 40  1  0
  9 41  1  0
 10 42  1  0
 11 43  1  0
 12 44  1  0
 15 45  1  0
 15 46  1  0
 17 47  1  0
 18 48  1  0
 19 49  1  0
 24 50  1  0
 28 51  1  0
 28 52  1  0
 29 53  1  0
 29 54  1  0
 31 55  1  0
 32 56  1  0
 33 57  1  0
 34 58  1  0
 36 59  1  0
 36 60  1  0
M  CHG  2  21   1  23  -1
M  END
$$$$
