
     RDKit          3D

 54 56  0  0  0  0  0  0  0  0999 V2000
   -3.9210    0.1082   -3.5865 C   0  0  0  0  0  0  0  0  0  0  0  0
   -4.5925   -0.1127   -2.2553 C   0  0  0  0  0  0  0  0  0  0  0  0
   -5.9010   -0.6194   -2.2574 C   0  0  0  0  0  0  0  0  0  0  0  0
   -6.5647   -0.8672   -1.0634 C   0  0  0  0  0  0  0  0  0  0  0  0
   -5.9406   -0.5808    0.1470 C   0  0  0  0  0  0  0  0  0  0  0  0
   -4.6328   -0.0529    0.1986 C   0  0  0  0  0  0  0  0  0  0  0  0
   -4.0952    0.3891    1.5587 C   0  0  0  0  0  0  0  0  0  0  0  0
   -4.9438    1.5263    2.1468 C   0  0  0  0  0  0  0  0  0  0  0  0
   -4.0047   -0.7737    2.5533 C   0  0  0  0  0  0  0  0  0  0  0  0
   -3.9385    0.1379   -1.0215 C   0  0  0  0  0  0  0  0  0  0  0  0
   -2.6086    0.6294   -1.0788 N   0  0  0  0  0  0  0  0  0  0  0  0
   -1.5456    0.0531   -0.3834 C   0  0  0  0  0  0  0  0  0  0  0  0
   -1.6351   -0.9107    0.3696 O   0  0  0  0  0  0  0  0  0  0  0  0
   -0.2295    0.7711   -0.6708 C   0  0  0  0  0  0  0  0  0  0  0  0
    0.9597   -0.0908   -0.3590 C   0  0  0  0  0  0  0  0  0  0  0  0
    1.3270   -1.2918   -0.9349 C   0  0  0  0  0  0  0  0  0  0  0  0
    2.5244   -1.8163   -0.3701 C   0  0  0  0  0  0  0  0  0  0  0  0
    3.0491   -0.9968    0.6111 C   0  0  0  0  0  0  0  0  0  0  0  0
    4.5129   -1.1567    1.6224 S   0  0  0  0  0  6  0  0  0  0  0  0
    4.2015   -0.5651    2.9053 O   0  0  0  0  0  0  0  0  0  0  0  0
    4.8683   -2.5558    1.5036 O   0  0  0  0  0  0  0  0  0  0  0  0
    5.7595   -0.2572    0.9046 N   0  0  0  0  0  0  0  0  0  0  0  0
    5.6414    1.2257    0.9678 C   0  0  0  0  0  0  0  0  0  0  0  0
    6.9724    1.8577    0.5443 C   0  0  0  0  0  0  0  0  0  0  0  0
    7.3457    1.4337   -0.7772 O   0  0  0  0  0  0  0  0  0  0  0  0
    7.5095    0.0073   -0.8139 C   0  0  0  0  0  0  0  0  0  0  0  0
    6.2055   -0.7095   -0.4430 C   0  0  0  0  0  0  0  0  0  0  0  0
    2.0832    0.3946    0.8405 S   0  0  0  0  0  0  0  0  0  0  0  0
   -3.7181    1.1742   -3.7348 H   0  0  0  0  0  0  0  0  0  0  0  0
   -2.9851   -0.4574   -3.6416 H   0  0  0  0  0  0  0  0  0  0  0  0
   -4.5506   -0.2260   -4.4186 H   0  0  0  0  0  0  0  0  0  0  0  0
   -6.4100   -0.8368   -3.1945 H   0  0  0  0  0  0  0  0  0  0  0  0
   -7.5752   -1.2672   -1.0729 H   0  0  0  0  0  0  0  0  0  0  0  0
   -6.5009   -0.7503    1.0649 H   0  0  0  0  0  0  0  0  0  0  0  0
   -3.0919    0.8083    1.4538 H   0  0  0  0  0  0  0  0  0  0  0  0
   -5.0013    2.3708    1.4515 H   0  0  0  0  0  0  0  0  0  0  0  0
   -4.4999    1.8926    3.0789 H   0  0  0  0  0  0  0  0  0  0  0  0
   -5.9669    1.2068    2.3718 H   0  0  0  0  0  0  0  0  0  0  0  0
   -3.5073   -0.4499    3.4741 H   0  0  0  0  0  0  0  0  0  0  0  0
   -4.9929   -1.1555    2.8316 H   0  0  0  0  0  0  0  0  0  0  0  0
   -3.4327   -1.6102    2.1392 H   0  0  0  0  0  0  0  0  0  0  0  0
   -2.3446    1.0656   -1.9518 H   0  0  0  0  0  0  0  0  0  0  0  0
   -0.1861    1.0478   -1.7306 H   0  0  0  0  0  0  0  0  0  0  0  0
   -0.2249    1.6968   -0.0844 H   0  0  0  0  0  0  0  0  0  0  0  0
    0.7492   -1.7882   -1.7061 H   0  0  0  0  0  0  0  0  0  0  0  0
    2.9807   -2.7580   -0.6532 H   0  0  0  0  0  0  0  0  0  0  0  0
    4.8550    1.5560    0.2813 H   0  0  0  0  0  0  0  0  0  0  0  0
    5.3995    1.5522    1.9837 H   0  0  0  0  0  0  0  0  0  0  0  0
    7.7763    1.6002    1.2443 H   0  0  0  0  0  0  0  0  0  0  0  0
    6.8779    2.9485    0.5271 H   0  0  0  0  0  0  0  0  0  0  0  0
    8.3248   -0.2761   -0.1373 H   0  0  0  0  0  0  0  0  0  0  0  0
    7.8078   -0.2655   -1.8308 H   0  0  0  0  0  0  0  0  0  0  0  0
    5.4301   -0.4654   -1.1786 H   0  0  0  0  0  0  0  0  0  0  0  0
    6.3806   -1.7900   -0.4496 H   0  0  0  0  0  0  0  0  0  0  0  0
  1  2  1  0
  2  3  2  0
  3  4  1  0
  4  5  2  0
  5  6  1  0
  6  7  1  0
  7  8  1  0
  7  9  1  0
  6 10  2  0
 10 11  1  0
 11 12  1  0
 12 13  2  0
 12 14  1  0
 14 15  1  0
 15 16  2  0
 16 17  1  0
 17 18  2  0
 18 19  1  0
 19 20  2  0
 19 21  2  0
 19 22  1  0
 22 23  1  0
 23 24  1  0
 24 25  1  0
 25 26  1  0
 26 27  1  0
 18 28  1  0
 10  2  1  0
 28 15  1  0
 27 22  1  0
  1 29  1  0
  1 30  1  0
  1 31  1  0
  3 32  1  0
  4 33  1  0
  5 34  1  0
  7 35  1  0
  8 36  1  0
  8 37  1  0
  8 38  1  0
  9 39  1  0
  9 40  1  0
  9 41  1  0
 11 42  1  0
 14 43  1  0
 14 44  1  0
 16 45  1  0
 17 46  1  0
 23 47  1  0
 23 48  1  0
 24 49  1  0
 24 50  1  0
 26 51  1  0
 26 52  1  0
 27 53  1  0
 27 54  1  0
M  END
$$$$
