
     RDKit          3D

 50 53  0  0  0  0  0  0  0  0999 V2000
   -8.3438   -0.0676    1.6432 C   0  0  0  0  0  0  0  0  0  0  0  0
   -6.9747    0.3234    1.1706 C   0  0  0  0  0  0  0  0  0  0  0  0
   -5.9568   -0.6300    1.0674 C   0  0  0  0  0  0  0  0  0  0  0  0
   -4.6690   -0.2610    0.6589 C   0  0  0  0  0  0  0  0  0  0  0  0
   -4.3774    1.0678    0.3516 C   0  0  0  0  0  0  0  0  0  0  0  0
   -3.1106    1.5259   -0.0774 N   0  0  0  0  0  0  0  0  0  0  0  0
   -1.9636    0.7680   -0.2604 C   0  0  0  0  0  0  0  0  0  0  0  0
   -1.8505   -0.4420   -0.0754 O   0  0  0  0  0  0  0  0  0  0  0  0
   -0.7757    1.5948   -0.7751 C   0  0  0  0  0  0  0  0  0  0  0  0
    0.4796    0.8291   -0.7617 N   0  0  0  0  0  4  0  0  0  0  0  0
    1.5952    1.0552    0.0429 C   0  0  0  0  0  0  0  0  0  0  0  0
    2.5459    0.0732   -0.2116 C   0  0  0  0  0  0  0  0  0  0  0  0
    3.9489   -0.0671    0.4814 C   0  0  0  0  0  0  0  0  0  0  0  0
    4.3821    0.9117    1.3831 C   0  0  0  0  0  0  0  0  0  0  0  0
    5.6317    0.7967    2.0012 C   0  0  0  0  0  0  0  0  0  0  0  0
    6.4546   -0.3024    1.7407 C   0  0  0  0  0  0  0  0  0  0  0  0
    7.8092   -0.4112    2.3779 C   0  0  0  0  0  0  0  0  0  0  0  0
    6.0200   -1.2734    0.8326 C   0  0  0  0  0  0  0  0  0  0  0  0
    4.7722   -1.1601    0.2109 C   0  0  0  0  0  0  0  0  0  0  0  0
    1.9470   -0.7019   -1.1877 N   0  0  0  0  0  0  0  0  0  0  0  0
    0.7191   -0.2738   -1.4687 C   0  0  0  0  0  0  0  0  0  0  0  0
    0.0341   -1.1016   -2.4913 C   0  0  0  0  0  0  0  0  0  0  0  0
    1.1979   -1.9398   -3.0557 C   0  0  0  0  0  0  0  0  0  0  0  0
    2.2982   -1.8841   -1.9614 C   0  0  0  0  0  0  0  0  0  0  0  0
   -5.3964    2.0237    0.4626 C   0  0  0  0  0  0  0  0  0  0  0  0
   -6.6816    1.6572    0.8754 C   0  0  0  0  0  0  0  0  0  0  0  0
   -9.1106    0.5521    1.1672 H   0  0  0  0  0  0  0  0  0  0  0  0
   -8.5645   -1.1091    1.3864 H   0  0  0  0  0  0  0  0  0  0  0  0
   -8.4138    0.0523    2.7289 H   0  0  0  0  0  0  0  0  0  0  0  0
   -6.1583   -1.6734    1.3009 H   0  0  0  0  0  0  0  0  0  0  0  0
   -3.9237   -1.0469    0.5974 H   0  0  0  0  0  0  0  0  0  0  0  0
   -3.0671    2.5215   -0.2678 H   0  0  0  0  0  0  0  0  0  0  0  0
   -0.9749    1.9000   -1.8073 H   0  0  0  0  0  0  0  0  0  0  0  0
   -0.6548    2.4867   -0.1525 H   0  0  0  0  0  0  0  0  0  0  0  0
    1.5684    1.8921    0.7211 H   0  0  0  0  0  0  0  0  0  0  0  0
    3.7821    1.7842    1.6217 H   0  0  0  0  0  0  0  0  0  0  0  0
    5.9612    1.5738    2.6890 H   0  0  0  0  0  0  0  0  0  0  0  0
    7.8318    0.1074    3.3429 H   0  0  0  0  0  0  0  0  0  0  0  0
    8.5681    0.0289    1.7245 H   0  0  0  0  0  0  0  0  0  0  0  0
    8.0675   -1.4593    2.5654 H   0  0  0  0  0  0  0  0  0  0  0  0
    6.6537   -2.1316    0.6100 H   0  0  0  0  0  0  0  0  0  0  0  0
    4.4752   -1.9526   -0.4631 H   0  0  0  0  0  0  0  0  0  0  0  0
   -0.6974   -1.7196   -1.9695 H   0  0  0  0  0  0  0  0  0  0  0  0
   -0.4298   -0.4450   -3.2284 H   0  0  0  0  0  0  0  0  0  0  0  0
    0.9039   -2.9620   -3.3104 H   0  0  0  0  0  0  0  0  0  0  0  0
    1.5766   -1.4600   -3.9652 H   0  0  0  0  0  0  0  0  0  0  0  0
    3.2900   -1.7821   -2.4075 H   0  0  0  0  0  0  0  0  0  0  0  0
    2.2502   -2.7601   -1.3081 H   0  0  0  0  0  0  0  0  0  0  0  0
   -5.2147    3.0715    0.2369 H   0  0  0  0  0  0  0  0  0  0  0  0
   -7.4547    2.4202    0.9635 H   0  0  0  0  0  0  0  0  0  0  0  0
  1  2  1  0
  2  3  2  0
  3  4  1  0
  4  5  2  0
  5  6  1  0
  6  7  1  0
  7  8  2  0
  7  9  1  0
  9 10  1  0
 10 11  1  0
 11 12  2  0
 12 13  1  0
 13 14  2  0
 14 15  1  0
 15 16  2  0
 16 17  1  0
 16 18  1  0
 18 19  2  0
 12 20  1  0
 20 21  1  0
 21 22  1  0
 22 23  1  0
 23 24  1  0
  5 25  1  0
 25 26  2  0
 26  2  1  0
 21 10  2  0
 19 13  1  0
 24 20  1  0
  1 27  1  0
  1 28  1  0
  1 29  1  0
  3 30  1  0
  4 31  1  0
  6 32  1  0
  9 33  1  0
  9 34  1  0
 11 35  1  0
 14 36  1  0
 15 37  1  0
 17 38  1  0
 17 39  1  0
 17 40  1  0
 18 41  1  0
 19 42  1  0
 22 43  1  0
 22 44  1  0
 23 45  1  0
 23 46  1  0
 24 47  1  0
 24 48  1  0
 25 49  1  0
 26 50  1  0
M  CHG  1  10   1
M  END
$$$$
