
     RDKit          3D

 59 60  0  0  0  0  0  0  0  0999 V2000
    5.0888    0.3058   -1.2215 C   0  0  0  0  0  0  0  0  0  0  0  0
    5.2015   -0.9669   -2.0596 C   0  0  0  0  0  0  0  0  0  0  0  0
    5.4939   -2.1707   -1.1634 C   0  0  0  0  0  0  0  0  0  0  0  0
    3.9882   -1.1997   -2.9837 C   0  0  0  0  0  0  0  0  0  0  0  0
    2.6534   -1.5120   -2.3073 C   0  0  0  0  0  0  0  0  0  0  0  0
    2.0697   -0.3599   -1.6582 N   0  0  0  0  0  0  0  0  0  0  0  0
    1.0858   -0.4786   -0.6973 C   0  0  0  0  0  0  0  0  0  0  0  0
    0.7240   -1.5744   -0.2746 O   0  0  0  0  0  0  0  0  0  0  0  0
    0.5229    0.7744   -0.2483 C   0  0  0  0  0  0  0  0  0  0  0  0
    1.0290    1.9084   -0.8125 O   0  0  0  0  0  0  0  0  0  0  0  0
    0.4202    3.0168   -0.2865 N   0  0  0  0  0  0  0  0  0  0  0  0
   -0.4739    2.5603    0.6000 C   0  0  0  0  0  0  0  0  0  0  0  0
   -1.3329    3.5315    1.3480 C   0  0  0  0  0  0  0  0  0  0  0  0
   -2.9887    3.6831    0.5926 S   0  0  0  0  0  0  0  0  0  0  0  0
   -2.6029    4.7687   -0.7632 C   0  0  0  0  0  0  0  0  0  0  0  0
   -3.1563    4.5214   -2.0137 C   0  0  0  0  0  0  0  0  0  0  0  0
   -2.8689    5.3961   -3.0585 C   0  0  0  0  0  0  0  0  0  0  0  0
   -2.0482    6.4911   -2.8209 C   0  0  0  0  0  0  0  0  0  0  0  0
   -1.5527    6.6688   -1.5405 C   0  0  0  0  0  0  0  0  0  0  0  0
   -1.8193    5.8396   -0.5083 N   0  0  0  0  0  0  0  0  0  0  0  0
   -0.4486    1.1264    0.6768 C   0  0  0  0  0  0  0  0  0  0  0  0
   -1.2711    0.3035    1.5525 C   0  0  0  0  0  0  0  0  0  0  0  0
   -1.9137    0.8052    2.4709 O   0  0  0  0  0  0  0  0  0  0  0  0
   -1.3074   -1.0512    1.3134 N   0  0  0  0  0  0  0  0  0  0  0  0
   -1.9976   -1.9508    2.2167 C   0  0  0  0  0  0  0  0  0  0  0  0
   -2.1506   -3.3389    1.5974 C   0  0  0  0  0  0  0  0  0  0  0  0
   -2.8900   -4.3698    2.4692 C   0  0  0  0  0  0  0  0  0  0  0  0
   -2.1681   -4.6408    3.7888 C   0  0  0  0  0  0  0  0  0  0  0  0
   -4.3443   -3.9759    2.7271 C   0  0  0  0  0  0  0  0  0  0  0  0
    4.8256    1.1654   -1.8464 H   0  0  0  0  0  0  0  0  0  0  0  0
    6.0466    0.5278   -0.7378 H   0  0  0  0  0  0  0  0  0  0  0  0
    4.3404    0.2100   -0.4291 H   0  0  0  0  0  0  0  0  0  0  0  0
    6.0702   -0.8370   -2.7189 H   0  0  0  0  0  0  0  0  0  0  0  0
    6.4485   -2.0365   -0.6420 H   0  0  0  0  0  0  0  0  0  0  0  0
    5.5637   -3.0900   -1.7539 H   0  0  0  0  0  0  0  0  0  0  0  0
    4.7197   -2.3095   -0.4020 H   0  0  0  0  0  0  0  0  0  0  0  0
    4.2294   -2.0445   -3.6427 H   0  0  0  0  0  0  0  0  0  0  0  0
    3.8685   -0.3267   -3.6390 H   0  0  0  0  0  0  0  0  0  0  0  0
    1.9325   -1.8309   -3.0694 H   0  0  0  0  0  0  0  0  0  0  0  0
    2.7444   -2.3355   -1.5923 H   0  0  0  0  0  0  0  0  0  0  0  0
    2.2113    0.5576   -2.0671 H   0  0  0  0  0  0  0  0  0  0  0  0
   -1.4645    3.1997    2.3821 H   0  0  0  0  0  0  0  0  0  0  0  0
   -0.8465    4.5103    1.4197 H   0  0  0  0  0  0  0  0  0  0  0  0
   -3.7996    3.6637   -2.1795 H   0  0  0  0  0  0  0  0  0  0  0  0
   -3.2834    5.2229   -4.0475 H   0  0  0  0  0  0  0  0  0  0  0  0
   -1.8028    7.1911   -3.6114 H   0  0  0  0  0  0  0  0  0  0  0  0
   -0.9104    7.5114   -1.3012 H   0  0  0  0  0  0  0  0  0  0  0  0
   -0.6072   -1.4650    0.7015 H   0  0  0  0  0  0  0  0  0  0  0  0
   -2.9726   -1.5148    2.4572 H   0  0  0  0  0  0  0  0  0  0  0  0
   -1.4084   -1.9915    3.1386 H   0  0  0  0  0  0  0  0  0  0  0  0
   -1.1542   -3.7324    1.3551 H   0  0  0  0  0  0  0  0  0  0  0  0
   -2.6745   -3.2462    0.6368 H   0  0  0  0  0  0  0  0  0  0  0  0
   -2.9028   -5.3112    1.9044 H   0  0  0  0  0  0  0  0  0  0  0  0
   -2.6428   -5.4715    4.3222 H   0  0  0  0  0  0  0  0  0  0  0  0
   -2.1887   -3.7699    4.4511 H   0  0  0  0  0  0  0  0  0  0  0  0
   -1.1221   -4.9127    3.6121 H   0  0  0  0  0  0  0  0  0  0  0  0
   -4.4197   -3.0890    3.3637 H   0  0  0  0  0  0  0  0  0  0  0  0
   -4.8643   -3.7677    1.7866 H   0  0  0  0  0  0  0  0  0  0  0  0
   -4.8781   -4.7892    3.2300 H   0  0  0  0  0  0  0  0  0  0  0  0
  1  2  1  0
  2  3  1  0
  2  4  1  0
  4  5  1  0
  5  6  1  0
  6  7  1  0
  7  8  2  0
  7  9  1  0
  9 10  1  0
 10 11  1  0
 11 12  2  0
 12 13  1  0
 13 14  1  0
 14 15  1  0
 15 16  2  0
 16 17  1  0
 17 18  2  0
 18 19  1  0
 19 20  2  0
 12 21  1  0
 21 22  1  0
 22 23  2  0
 22 24  1  0
 24 25  1  0
 25 26  1  0
 26 27  1  0
 27 28  1  0
 27 29  1  0
 21  9  2  0
 20 15  1  0
  1 30  1  0
  1 31  1  0
  1 32  1  0
  2 33  1  0
  3 34  1  0
  3 35  1  0
  3 36  1  0
  4 37  1  0
  4 38  1  0
  5 39  1  0
  5 40  1  0
  6 41  1  0
 13 42  1  0
 13 43  1  0
 16 44  1  0
 17 45  1  0
 18 46  1  0
 19 47  1  0
 24 48  1  0
 25 49  1  0
 25 50  1  0
 26 51  1  0
 26 52  1  0
 27 53  1  0
 28 54  1  0
 28 55  1  0
 28 56  1  0
 29 57  1  0
 29 58  1  0
 29 59  1  0
M  END
$$$$
