
     RDKit          3D

 62 64  0  0  0  0  0  0  0  0999 V2000
    8.1744    4.1936    2.6845 C   0  0  0  0  0  0  0  0  0  0  0  0
    7.7684    3.9233    1.3504 O   0  0  0  0  0  0  0  0  0  0  0  0
    6.4543    3.5968    1.1568 C   0  0  0  0  0  0  0  0  0  0  0  0
    6.1064    3.3409   -0.1712 C   0  0  0  0  0  0  0  0  0  0  0  0
    4.7976    2.9912   -0.5120 C   0  0  0  0  0  0  0  0  0  0  0  0
    3.8129    2.8948    0.4770 C   0  0  0  0  0  0  0  0  0  0  0  0
    2.4064    2.4831    0.1164 C   0  0  0  0  0  0  0  0  0  0  0  0
    2.2560    0.9646    0.1333 C   0  0  0  0  0  0  0  0  0  0  0  0
    0.8591    0.5273   -0.2669 C   0  0  0  0  0  0  0  0  0  0  0  0
   -0.0428    1.3271   -0.4884 O   0  0  0  0  0  0  0  0  0  0  0  0
    0.7625   -0.8467   -0.3235 N   0  0  0  0  0  0  0  0  0  0  0  0
   -0.3401   -1.6384   -0.7010 C   0  0  0  0  0  0  0  0  0  0  0  0
   -1.5407   -1.1266   -1.1871 C   0  0  0  0  0  0  0  0  0  0  0  0
   -2.5646   -2.0110   -1.5403 C   0  0  0  0  0  0  0  0  0  0  0  0
   -4.0911   -1.3515   -2.1622 S   0  0  0  0  0  6  0  0  0  0  0  0
   -5.0663   -2.4235   -2.2030 O   0  0  0  0  0  0  0  0  0  0  0  0
   -3.7734   -0.5839   -3.3473 O   0  0  0  0  0  0  0  0  0  0  0  0
   -4.5769   -0.2797   -0.9272 N   0  0  0  0  0  0  0  0  0  0  0  0
   -4.8801   -0.8895    0.3969 C   0  0  0  0  0  0  0  0  0  0  0  0
   -6.3625   -0.8000    0.7290 C   0  0  0  0  0  0  0  0  0  0  0  0
   -6.8406    0.6490    0.7777 C   0  0  0  0  0  0  0  0  0  0  0  0
   -6.0772    1.5460   -0.1962 C   0  0  0  0  0  0  0  0  0  0  0  0
   -5.5452    0.7539   -1.3846 C   0  0  0  0  0  0  0  0  0  0  0  0
   -2.4055   -3.3935   -1.4140 C   0  0  0  0  0  0  0  0  0  0  0  0
   -1.2013   -3.9053   -0.9303 C   0  0  0  0  0  0  0  0  0  0  0  0
   -0.1554   -3.0402   -0.5734 C   0  0  0  0  0  0  0  0  0  0  0  0
    1.0961   -3.5099   -0.0732 N   0  0  0  0  0  0  0  0  0  0  0  0
    1.7819   -4.3693   -1.0463 C   0  0  0  0  0  0  0  0  0  0  0  0
    0.9363   -4.1243    1.2506 C   0  0  0  0  0  0  0  0  0  0  0  0
    4.1634    3.1506    1.8084 C   0  0  0  0  0  0  0  0  0  0  0  0
    5.4759    3.5017    2.1465 C   0  0  0  0  0  0  0  0  0  0  0  0
    7.6492    5.0661    3.0874 H   0  0  0  0  0  0  0  0  0  0  0  0
    9.2436    4.4269    2.6673 H   0  0  0  0  0  0  0  0  0  0  0  0
    8.0366    3.3170    3.3253 H   0  0  0  0  0  0  0  0  0  0  0  0
    6.8625    3.4143   -0.9490 H   0  0  0  0  0  0  0  0  0  0  0  0
    4.5549    2.7953   -1.5540 H   0  0  0  0  0  0  0  0  0  0  0  0
    2.1522    2.8828   -0.8741 H   0  0  0  0  0  0  0  0  0  0  0  0
    1.6963    2.9463    0.8144 H   0  0  0  0  0  0  0  0  0  0  0  0
    2.4644    0.5739    1.1371 H   0  0  0  0  0  0  0  0  0  0  0  0
    2.9718    0.5063   -0.5612 H   0  0  0  0  0  0  0  0  0  0  0  0
    1.5595   -1.4141   -0.0391 H   0  0  0  0  0  0  0  0  0  0  0  0
   -1.6977   -0.0591   -1.3098 H   0  0  0  0  0  0  0  0  0  0  0  0
   -4.2848   -0.3629    1.1524 H   0  0  0  0  0  0  0  0  0  0  0  0
   -4.5676   -1.9371    0.4343 H   0  0  0  0  0  0  0  0  0  0  0  0
   -6.5681   -1.2893    1.6874 H   0  0  0  0  0  0  0  0  0  0  0  0
   -6.9372   -1.3443   -0.0301 H   0  0  0  0  0  0  0  0  0  0  0  0
   -6.7244    1.0488    1.7934 H   0  0  0  0  0  0  0  0  0  0  0  0
   -7.9143    0.6775    0.5564 H   0  0  0  0  0  0  0  0  0  0  0  0
   -6.7291    2.3582   -0.5379 H   0  0  0  0  0  0  0  0  0  0  0  0
   -5.2376    2.0167    0.3328 H   0  0  0  0  0  0  0  0  0  0  0  0
   -6.3755    0.2851   -1.9251 H   0  0  0  0  0  0  0  0  0  0  0  0
   -5.0329    1.4420   -2.0666 H   0  0  0  0  0  0  0  0  0  0  0  0
   -3.2071   -4.0736   -1.6936 H   0  0  0  0  0  0  0  0  0  0  0  0
   -1.0877   -4.9814   -0.8353 H   0  0  0  0  0  0  0  0  0  0  0  0
    2.8011   -4.5721   -0.6970 H   0  0  0  0  0  0  0  0  0  0  0  0
    1.2753   -5.3321   -1.1810 H   0  0  0  0  0  0  0  0  0  0  0  0
    1.8668   -3.8703   -2.0193 H   0  0  0  0  0  0  0  0  0  0  0  0
    0.4424   -3.4345    1.9454 H   0  0  0  0  0  0  0  0  0  0  0  0
    1.9226   -4.3518    1.6697 H   0  0  0  0  0  0  0  0  0  0  0  0
    0.3636   -5.0579    1.2081 H   0  0  0  0  0  0  0  0  0  0  0  0
    3.4151    3.0794    2.5948 H   0  0  0  0  0  0  0  0  0  0  0  0
    5.6985    3.6932    3.1912 H   0  0  0  0  0  0  0  0  0  0  0  0
  1  2  1  0
  2  3  1  0
  3  4  2  0
  4  5  1  0
  5  6  2  0
  6  7  1  0
  7  8  1  0
  8  9  1  0
  9 10  2  0
  9 11  1  0
 11 12  1  0
 12 13  2  0
 13 14  1  0
 14 15  1  0
 15 16  2  0
 15 17  2  0
 15 18  1  0
 18 19  1  0
 19 20  1  0
 20 21  1  0
 21 22  1  0
 22 23  1  0
 14 24  2  0
 24 25  1  0
 25 26  2  0
 26 27  1  0
 27 28  1  0
 27 29  1  0
  6 30  1  0
 30 31  2  0
 31  3  1  0
 26 12  1  0
 23 18  1  0
  1 32  1  0
  1 33  1  0
  1 34  1  0
  4 35  1  0
  5 36  1  0
  7 37  1  0
  7 38  1  0
  8 39  1  0
  8 40  1  0
 11 41  1  0
 13 42  1  0
 19 43  1  0
 19 44  1  0
 20 45  1  0
 20 46  1  0
 21 47  1  0
 21 48  1  0
 22 49  1  0
 22 50  1  0
 23 51  1  0
 23 52  1  0
 24 53  1  0
 25 54  1  0
 28 55  1  0
 28 56  1  0
 28 57  1  0
 29 58  1  0
 29 59  1  0
 29 60  1  0
 30 61  1  0
 31 62  1  0
M  END
$$$$
