
     RDKit          3D

112123  0  0  0  0  0  0  0  0999 V2000
   -2.2955   -2.3199   -2.8688 O   0  0  0  0  0  0  0  0  0  0  0  0
   -2.2059   -1.2821   -2.2261 C   0  0  0  0  0  0  0  0  0  0  0  0
   -3.0712   -0.2292   -2.4330 N   0  0  0  0  0  0  0  0  0  0  0  0
   -3.4145    0.6757   -1.3280 C   0  0  0  0  0  0  0  0  0  0  0  0
   -4.5734    0.1182   -0.4773 C   0  0  0  0  0  0  0  0  0  0  0  0
   -5.8594   -0.0084   -1.2588 C   0  0  0  0  0  0  0  0  0  0  0  0
   -6.6642    1.1162   -1.4865 C   0  0  0  0  0  0  0  0  0  0  0  0
   -7.8354    1.0046   -2.2365 C   0  0  0  0  0  0  0  0  0  0  0  0
   -8.2091   -0.2285   -2.7692 C   0  0  0  0  0  0  0  0  0  0  0  0
   -7.4153   -1.3526   -2.5484 C   0  0  0  0  0  0  0  0  0  0  0  0
   -6.2454   -1.2433   -1.7970 C   0  0  0  0  0  0  0  0  0  0  0  0
   -2.2374    0.9499   -0.3624 C   0  0  0  0  0  0  0  0  0  0  0  0
   -2.1948    1.9564    0.3361 O   0  0  0  0  0  0  0  0  0  0  0  0
   -1.4274   -0.1596   -0.1759 N   0  0  0  0  0  0  0  0  0  0  0  0
   -1.0180   -0.8982   -1.3448 C   0  0  0  0  0  0  0  0  0  0  0  0
   -0.2004   -2.0610   -0.8143 C   0  0  0  0  0  0  0  0  0  0  0  0
    0.3392   -1.6069    0.5821 C   0  0  0  0  0  0  0  0  0  0  0  0
    1.9284   -1.4619    0.6282 C   0  0  0  0  0  0  0  0  0  0  0  0
    2.4873   -0.8726    1.9558 C   0  0  0  0  0  0  0  0  0  0  0  0
    3.5975    0.0928    1.5399 C   0  0  0  0  0  0  0  0  0  0  0  0
    3.9092    1.1157    2.6343 C   0  0  0  0  0  0  0  0  0  0  0  0
    4.5284    0.8354    3.6542 O   0  0  0  0  0  0  0  0  0  0  0  0
    3.2953    2.3318    2.4936 N   0  0  0  0  0  0  0  0  0  0  0  0
    3.0930    2.9289    1.1715 C   0  0  0  0  0  0  0  0  0  0  0  0
    4.4082    3.5020    0.6182 C   0  0  0  0  0  0  0  0  0  0  0  0
    4.2044    4.4942   -0.4996 C   0  0  0  0  0  0  0  0  0  0  0  0
    4.5593    4.1647   -1.8131 C   0  0  0  0  0  0  0  0  0  0  0  0
    4.3671    5.0789   -2.8504 C   0  0  0  0  0  0  0  0  0  0  0  0
    3.8157    6.3313   -2.5857 C   0  0  0  0  0  0  0  0  0  0  0  0
    3.4622    6.6707   -1.2810 C   0  0  0  0  0  0  0  0  0  0  0  0
    3.6561    5.7592   -0.2419 C   0  0  0  0  0  0  0  0  0  0  0  0
    2.5041    1.8843    0.2119 C   0  0  0  0  0  0  0  0  0  0  0  0
    1.6614    2.1587   -0.6407 O   0  0  0  0  0  0  0  0  0  0  0  0
    3.0893    0.6218    0.2816 N   0  0  0  0  0  0  0  0  0  0  0  0
    2.4782   -0.4427   -0.4713 C   0  0  0  0  0  0  0  0  0  0  0  0
    3.4907   -1.1738   -1.2615 N   0  0  0  0  0  0  0  0  0  0  0  0
    3.8540   -0.6262   -2.8107 S   0  0  0  0  0  6  0  0  0  0  0  0
    4.0376    0.8083   -2.7413 O   0  0  0  0  0  0  0  0  0  0  0  0
    4.8791   -1.4512   -3.4143 O   0  0  0  0  0  0  0  0  0  0  0  0
    2.3553   -0.9227   -3.7226 C   0  0  0  0  0  0  0  0  0  0  0  0
    1.5373    0.1558   -4.0803 C   0  0  0  0  0  0  0  0  0  0  0  0
    0.3729   -0.0787   -4.8089 C   0  0  0  0  0  0  0  0  0  0  0  0
    0.0301   -1.3804   -5.1747 C   0  0  0  0  0  0  0  0  0  0  0  0
    0.8623   -2.4506   -4.8362 C   0  0  0  0  0  0  0  0  0  0  0  0
    2.0339   -2.2248   -4.1159 C   0  0  0  0  0  0  0  0  0  0  0  0
    3.5056   -2.5372   -0.8704 C   0  0  0  0  0  0  0  0  0  0  0  0
    4.3530   -3.5397   -1.3185 C   0  0  0  0  0  0  0  0  0  0  0  0
    4.3895   -4.7540   -0.6331 C   0  0  0  0  0  0  0  0  0  0  0  0
    3.6306   -4.9322    0.5243 C   0  0  0  0  0  0  0  0  0  0  0  0
    2.8139   -3.9024    0.9941 C   0  0  0  0  0  0  0  0  0  0  0  0
    2.7152   -2.7186    0.2671 C   0  0  0  0  0  0  0  0  0  0  0  0
   -0.3115   -2.4911    1.6447 C   0  0  0  0  0  0  0  0  0  0  0  0
   -0.3287   -3.8802    1.7257 C   0  0  0  0  0  0  0  0  0  0  0  0
   -1.0422   -4.5010    2.7538 C   0  0  0  0  0  0  0  0  0  0  0  0
   -1.7735   -3.7381    3.6695 C   0  0  0  0  0  0  0  0  0  0  0  0
   -1.8102   -2.3481    3.5558 C   0  0  0  0  0  0  0  0  0  0  0  0
   -1.0762   -1.7464    2.5449 C   0  0  0  0  0  0  0  0  0  0  0  0
   -1.0877   -0.3670    2.1908 N   0  0  0  0  0  0  0  0  0  0  0  0
   -0.6566    0.7565    3.3970 S   0  0  0  0  0  6  0  0  0  0  0  0
   -0.2778    2.0087    2.7792 O   0  0  0  0  0  0  0  0  0  0  0  0
    0.2559    0.1078    4.3199 O   0  0  0  0  0  0  0  0  0  0  0  0
   -2.1813    1.0378    4.2658 C   0  0  0  0  0  0  0  0  0  0  0  0
   -3.2296    1.6858    3.6084 C   0  0  0  0  0  0  0  0  0  0  0  0
   -4.4293    1.9135    4.2817 C   0  0  0  0  0  0  0  0  0  0  0  0
   -4.5732    1.5031    5.6083 C   0  0  0  0  0  0  0  0  0  0  0  0
   -3.5147    0.8796    6.2710 C   0  0  0  0  0  0  0  0  0  0  0  0
   -2.3128    0.6476    5.6029 C   0  0  0  0  0  0  0  0  0  0  0  0
   -0.4249   -0.2336    0.8709 C   0  0  0  0  0  0  0  0  0  0  0  0
   -3.8275   -0.4548   -3.0695 H   0  0  0  0  0  0  0  0  0  0  0  0
   -3.6887    1.6276   -1.7962 H   0  0  0  0  0  0  0  0  0  0  0  0
   -4.3030   -0.8586   -0.0548 H   0  0  0  0  0  0  0  0  0  0  0  0
   -4.7553    0.7671    0.3892 H   0  0  0  0  0  0  0  0  0  0  0  0
   -6.3871    2.0868   -1.0791 H   0  0  0  0  0  0  0  0  0  0  0  0
   -8.4581    1.8804   -2.4068 H   0  0  0  0  0  0  0  0  0  0  0  0
   -9.1216   -0.3143   -3.3529 H   0  0  0  0  0  0  0  0  0  0  0  0
   -7.7068   -2.3148   -2.9637 H   0  0  0  0  0  0  0  0  0  0  0  0
   -5.6352   -2.1304   -1.6379 H   0  0  0  0  0  0  0  0  0  0  0  0
   -0.3859   -0.2299   -1.9387 H   0  0  0  0  0  0  0  0  0  0  0  0
    0.5943   -2.3180   -1.5177 H   0  0  0  0  0  0  0  0  0  0  0  0
   -0.8275   -2.9584   -0.7441 H   0  0  0  0  0  0  0  0  0  0  0  0
    2.8479   -1.6248    2.6652 H   0  0  0  0  0  0  0  0  0  0  0  0
    1.7239   -0.3001    2.4701 H   0  0  0  0  0  0  0  0  0  0  0  0
    4.5266   -0.4425    1.3122 H   0  0  0  0  0  0  0  0  0  0  0  0
    3.4922    2.9665    3.2586 H   0  0  0  0  0  0  0  0  0  0  0  0
    2.3382    3.7098    1.3201 H   0  0  0  0  0  0  0  0  0  0  0  0
    5.0725    2.6931    0.2840 H   0  0  0  0  0  0  0  0  0  0  0  0
    4.9553    4.0173    1.4207 H   0  0  0  0  0  0  0  0  0  0  0  0
    4.9823    3.1887   -2.0457 H   0  0  0  0  0  0  0  0  0  0  0  0
    4.6452    4.8086   -3.8666 H   0  0  0  0  0  0  0  0  0  0  0  0
    3.6619    7.0389   -3.3964 H   0  0  0  0  0  0  0  0  0  0  0  0
    3.0324    7.6484   -1.0741 H   0  0  0  0  0  0  0  0  0  0  0  0
    3.3739    6.0461    0.7684 H   0  0  0  0  0  0  0  0  0  0  0  0
    1.6785   -0.0854   -1.1186 H   0  0  0  0  0  0  0  0  0  0  0  0
    1.7979    1.1749   -3.7985 H   0  0  0  0  0  0  0  0  0  0  0  0
   -0.2700    0.7517   -5.0903 H   0  0  0  0  0  0  0  0  0  0  0  0
   -0.8883   -1.5643   -5.7283 H   0  0  0  0  0  0  0  0  0  0  0  0
    0.5919   -3.4602   -5.1386 H   0  0  0  0  0  0  0  0  0  0  0  0
    2.6859   -3.0611   -3.8741 H   0  0  0  0  0  0  0  0  0  0  0  0
    5.0252   -3.4014   -2.1568 H   0  0  0  0  0  0  0  0  0  0  0  0
    5.0514   -5.5466   -0.9724 H   0  0  0  0  0  0  0  0  0  0  0  0
    3.7066   -5.8625    1.0835 H   0  0  0  0  0  0  0  0  0  0  0  0
    2.3004   -4.0318    1.9435 H   0  0  0  0  0  0  0  0  0  0  0  0
    0.1756   -4.4974    0.9894 H   0  0  0  0  0  0  0  0  0  0  0  0
   -1.0524   -5.5864    2.8278 H   0  0  0  0  0  0  0  0  0  0  0  0
   -2.3428   -4.2329    4.4545 H   0  0  0  0  0  0  0  0  0  0  0  0
   -2.4401   -1.7800    4.2294 H   0  0  0  0  0  0  0  0  0  0  0  0
   -3.1137    2.0269    2.5838 H   0  0  0  0  0  0  0  0  0  0  0  0
   -5.2484    2.4194    3.7751 H   0  0  0  0  0  0  0  0  0  0  0  0
   -5.5093    1.6847    6.1311 H   0  0  0  0  0  0  0  0  0  0  0  0
   -3.6269    0.5794    7.3095 H   0  0  0  0  0  0  0  0  0  0  0  0
   -1.4910    0.1675    6.1281 H   0  0  0  0  0  0  0  0  0  0  0  0
    0.2158    0.6420    0.7938 H   0  0  0  0  0  0  0  0  0  0  0  0
  1  2  2  0
  2  3  1  0
  3  4  1  0
  4  5  1  0
  5  6  1  0
  6  7  2  0
  7  8  1  0
  8  9  2  0
  9 10  1  0
 10 11  2  0
  4 12  1  0
 12 13  2  0
 12 14  1  0
 14 15  1  0
 15 16  1  0
 16 17  1  0
 17 18  1  0
 18 19  1  0
 19 20  1  0
 20 21  1  0
 21 22  2  0
 21 23  1  0
 23 24  1  0
 24 25  1  0
 25 26  1  0
 26 27  2  0
 27 28  1  0
 28 29  2  0
 29 30  1  0
 30 31  2  0
 24 32  1  0
 32 33  2  0
 32 34  1  0
 34 35  1  0
 35 36  1  0
 36 37  1  0
 37 38  2  0
 37 39  2  0
 37 40  1  0
 40 41  2  0
 41 42  1  0
 42 43  2  0
 43 44  1  0
 44 45  2  0
 36 46  1  0
 46 47  2  0
 47 48  1  0
 48 49  2  0
 49 50  1  0
 50 51  2  0
 17 52  1  0
 52 53  2  0
 53 54  1  0
 54 55  2  0
 55 56  1  0
 56 57  2  0
 57 58  1  0
 58 59  1  0
 59 60  2  0
 59 61  2  0
 59 62  1  0
 62 63  2  0
 63 64  1  0
 64 65  2  0
 65 66  1  0
 66 67  2  0
 58 68  1  0
 15  2  1  0
 68 17  1  0
 11  6  1  0
 68 14  1  0
 35 18  1  0
 45 40  1  0
 51 46  1  0
 57 52  1  0
 67 62  1  0
 51 18  1  0
 34 20  1  0
 31 26  1  0
  3 69  1  0
  4 70  1  0
  5 71  1  0
  5 72  1  0
  7 73  1  0
  8 74  1  0
  9 75  1  0
 10 76  1  0
 11 77  1  0
 15 78  1  0
 16 79  1  0
 16 80  1  0
 19 81  1  0
 19 82  1  0
 20 83  1  0
 23 84  1  0
 24 85  1  0
 25 86  1  0
 25 87  1  0
 27 88  1  0
 28 89  1  0
 29 90  1  0
 30 91  1  0
 31 92  1  0
 35 93  1  0
 41 94  1  0
 42 95  1  0
 43 96  1  0
 44 97  1  0
 45 98  1  0
 47 99  1  0
 48100  1  0
 49101  1  0
 50102  1  0
 53103  1  0
 54104  1  0
 55105  1  0
 56106  1  0
 63107  1  0
 64108  1  0
 65109  1  0
 66110  1  0
 67111  1  0
 68112  1  0
M  END
$$$$
