
     RDKit          3D

 45 47  0  0  0  0  0  0  0  0999 V2000
    3.9791    2.4949   -3.9435 C   0  0  0  0  0  0  0  0  0  0  0  0
    3.5857    2.4914   -2.4857 C   0  0  0  0  0  0  0  0  0  0  0  0
    3.8392    3.4469   -1.7582 O   0  0  0  0  0  0  0  0  0  0  0  0
    2.9102    1.3332   -2.1362 N   0  0  0  0  0  0  0  0  0  0  0  0
    2.4113    0.9833   -0.8648 C   0  0  0  0  0  0  0  0  0  0  0  0
    2.5528    1.7780    0.2774 C   0  0  0  0  0  0  0  0  0  0  0  0
    2.0249    1.3643    1.5054 C   0  0  0  0  0  0  0  0  0  0  0  0
    1.3343    0.1540    1.5869 C   0  0  0  0  0  0  0  0  0  0  0  0
    0.6285   -0.3755    3.1369 S   0  0  0  0  0  6  0  0  0  0  0  0
    0.8526   -1.8026    3.2211 O   0  0  0  0  0  0  0  0  0  0  0  0
    1.1395    0.5109    4.1653 O   0  0  0  0  0  0  0  0  0  0  0  0
   -0.9762   -0.0047    2.9049 N   0  0  0  0  0  0  0  0  0  0  0  0
   -1.3739    1.4015    2.9591 C   0  0  0  0  0  0  0  0  0  0  0  0
   -2.8130    1.3114    2.4430 C   0  0  0  0  0  0  0  0  0  0  0  0
   -3.1734   -0.1311    2.3488 N   0  0  0  0  0  0  0  0  0  0  0  0
   -2.0820   -0.7932    2.5789 C   0  0  0  0  0  0  0  0  0  0  0  0
   -2.0260   -2.5100    2.5179 S   0  0  0  0  0  0  0  0  0  0  0  0
   -3.1132   -2.8228    1.1038 C   0  0  0  0  0  0  0  0  0  0  0  0
   -2.4674   -2.4625   -0.2125 C   0  0  0  0  0  0  0  0  0  0  0  0
   -2.7981   -1.2634   -0.8673 C   0  0  0  0  0  0  0  0  0  0  0  0
   -2.1936   -0.9302   -2.0797 C   0  0  0  0  0  0  0  0  0  0  0  0
   -1.2592   -1.7925   -2.6386 C   0  0  0  0  0  0  0  0  0  0  0  0
   -0.6700   -1.4637   -3.7959 F   0  0  0  0  0  0  0  0  0  0  0  0
   -0.9163   -2.9839   -2.0092 C   0  0  0  0  0  0  0  0  0  0  0  0
   -1.5165   -3.3175   -0.7947 C   0  0  0  0  0  0  0  0  0  0  0  0
    1.2042   -0.6635    0.4632 C   0  0  0  0  0  0  0  0  0  0  0  0
    1.7409   -0.2445   -0.7580 C   0  0  0  0  0  0  0  0  0  0  0  0
    4.4471    1.5445   -4.2140 H   0  0  0  0  0  0  0  0  0  0  0  0
    3.0932    2.6632   -4.5627 H   0  0  0  0  0  0  0  0  0  0  0  0
    4.7027    3.2940   -4.1262 H   0  0  0  0  0  0  0  0  0  0  0  0
    2.7481    0.6616   -2.8772 H   0  0  0  0  0  0  0  0  0  0  0  0
    3.0782    2.7298    0.2499 H   0  0  0  0  0  0  0  0  0  0  0  0
    2.1552    1.9968    2.3822 H   0  0  0  0  0  0  0  0  0  0  0  0
   -0.7729    2.0490    2.3155 H   0  0  0  0  0  0  0  0  0  0  0  0
   -1.3555    1.7733    3.9900 H   0  0  0  0  0  0  0  0  0  0  0  0
   -2.8967    1.7570    1.4419 H   0  0  0  0  0  0  0  0  0  0  0  0
   -3.5072    1.8359    3.1111 H   0  0  0  0  0  0  0  0  0  0  0  0
   -3.3521   -3.8929    1.0920 H   0  0  0  0  0  0  0  0  0  0  0  0
   -4.0747   -2.3098    1.2237 H   0  0  0  0  0  0  0  0  0  0  0  0
   -3.5337   -0.5855   -0.4375 H   0  0  0  0  0  0  0  0  0  0  0  0
   -2.4516   -0.0094   -2.5947 H   0  0  0  0  0  0  0  0  0  0  0  0
   -0.1856   -3.6432   -2.4659 H   0  0  0  0  0  0  0  0  0  0  0  0
   -1.2413   -4.2460   -0.3029 H   0  0  0  0  0  0  0  0  0  0  0  0
    0.6945   -1.6219    0.5311 H   0  0  0  0  0  0  0  0  0  0  0  0
    1.6280   -0.8928   -1.6245 H   0  0  0  0  0  0  0  0  0  0  0  0
  1  2  1  0
  2  3  2  0
  2  4  1  0
  4  5  1  0
  5  6  2  0
  6  7  1  0
  7  8  2  0
  8  9  1  0
  9 10  2  0
  9 11  2  0
  9 12  1  0
 12 13  1  0
 13 14  1  0
 14 15  1  0
 15 16  2  0
 16 17  1  0
 17 18  1  0
 18 19  1  0
 19 20  2  0
 20 21  1  0
 21 22  2  0
 22 23  1  0
 22 24  1  0
 24 25  2  0
  8 26  1  0
 26 27  2  0
 27  5  1  0
 16 12  1  0
 25 19  1  0
  1 28  1  0
  1 29  1  0
  1 30  1  0
  4 31  1  0
  6 32  1  0
  7 33  1  0
 13 34  1  0
 13 35  1  0
 14 36  1  0
 14 37  1  0
 18 38  1  0
 18 39  1  0
 20 40  1  0
 21 41  1  0
 24 42  1  0
 25 43  1  0
 26 44  1  0
 27 45  1  0
M  END
$$$$
