
     RDKit          3D

 68 72  0  0  0  0  0  0  0  0999 V2000
    9.2651    2.0624   -2.4237 C   0  0  0  0  0  0  0  0  0  0  0  0
    8.7887    1.9984   -1.0855 O   0  0  0  0  0  0  0  0  0  0  0  0
    7.4552    1.7520   -0.9189 C   0  0  0  0  0  0  0  0  0  0  0  0
    6.5112    1.6132   -1.9289 C   0  0  0  0  0  0  0  0  0  0  0  0
    5.1676    1.3576   -1.6097 C   0  0  0  0  0  0  0  0  0  0  0  0
    4.7199    1.2320   -0.2848 C   0  0  0  0  0  0  0  0  0  0  0  0
    3.3926    0.9787    0.0163 N   0  0  0  0  0  0  0  0  0  0  0  0
    2.4841    0.3615   -0.9651 C   0  0  0  0  0  0  0  0  0  0  0  0
    1.3900   -0.4697   -0.2551 C   0  0  0  0  0  0  0  0  0  0  0  0
    0.5384    0.3064    0.6827 N   0  0  0  0  0  0  0  0  0  0  0  0
   -0.0490   -0.5742    1.7075 C   0  0  0  0  0  0  0  0  0  0  0  0
   -0.9569   -1.6205    1.1225 C   0  0  0  0  0  0  0  0  0  0  0  0
   -0.6627   -2.9088    1.0162 N   0  0  0  0  0  0  0  0  0  0  0  0
   -1.7540   -3.4742    0.4387 C   0  0  0  0  0  0  0  0  0  0  0  0
   -2.7327   -2.5571    0.1893 C   0  0  0  0  0  0  0  0  0  0  0  0
   -3.9796   -2.9146   -0.3934 C   0  0  0  0  0  0  0  0  0  0  0  0
   -4.9133   -2.1493   -0.6044 O   0  0  0  0  0  0  0  0  0  0  0  0
   -4.0535   -4.2562   -0.6964 N   0  0  0  0  0  0  0  0  0  0  0  0
   -3.0950   -5.2245   -0.4606 C   0  0  0  0  0  0  0  0  0  0  0  0
   -3.3375   -6.3894   -0.7768 O   0  0  0  0  0  0  0  0  0  0  0  0
   -1.9070   -4.8088    0.1294 N   0  0  0  0  0  0  0  0  0  0  0  0
   -0.8462   -5.7561    0.4095 C   0  0  0  0  0  0  0  0  0  0  0  0
   -2.2190   -1.3612    0.6138 N   0  0  0  0  0  0  0  0  0  0  0  0
   -2.8741   -0.0673    0.5198 C   0  0  0  0  0  0  0  0  0  0  0  0
   -3.8209    0.1817    1.6937 C   0  0  0  0  0  0  0  0  0  0  0  0
   -4.3501    1.6186    1.7319 C   0  0  0  0  0  0  0  0  0  0  0  0
   -5.1130    2.0382    0.5002 C   0  0  0  0  0  0  0  0  0  0  0  0
   -4.6831    3.1365   -0.2576 C   0  0  0  0  0  0  0  0  0  0  0  0
   -5.3866    3.5315   -1.3969 C   0  0  0  0  0  0  0  0  0  0  0  0
   -6.5286    2.8365   -1.7888 C   0  0  0  0  0  0  0  0  0  0  0  0
   -6.9684    1.7471   -1.0408 C   0  0  0  0  0  0  0  0  0  0  0  0
   -6.2671    1.3512    0.0995 C   0  0  0  0  0  0  0  0  0  0  0  0
    1.3100    1.4078    1.3008 C   0  0  0  0  0  0  0  0  0  0  0  0
    2.8434    1.2111    1.3594 C   0  0  0  0  0  0  0  0  0  0  0  0
    5.6942    1.3856    0.7121 C   0  0  0  0  0  0  0  0  0  0  0  0
    7.0377    1.6398    0.4036 C   0  0  0  0  0  0  0  0  0  0  0  0
   10.3442    2.2402   -2.3863 H   0  0  0  0  0  0  0  0  0  0  0  0
    9.1022    1.1143   -2.9471 H   0  0  0  0  0  0  0  0  0  0  0  0
    8.8085    2.8972   -2.9654 H   0  0  0  0  0  0  0  0  0  0  0  0
    6.7745    1.7025   -2.9770 H   0  0  0  0  0  0  0  0  0  0  0  0
    4.4655    1.2822   -2.4352 H   0  0  0  0  0  0  0  0  0  0  0  0
    2.0237    1.1431   -1.5814 H   0  0  0  0  0  0  0  0  0  0  0  0
    3.0283   -0.3207   -1.6296 H   0  0  0  0  0  0  0  0  0  0  0  0
    0.7500   -0.9252   -1.0199 H   0  0  0  0  0  0  0  0  0  0  0  0
    1.8970   -1.2871    0.2767 H   0  0  0  0  0  0  0  0  0  0  0  0
   -0.6413    0.0214    2.4138 H   0  0  0  0  0  0  0  0  0  0  0  0
    0.7358   -1.0654    2.2976 H   0  0  0  0  0  0  0  0  0  0  0  0
   -4.9129   -4.5784   -1.1118 H   0  0  0  0  0  0  0  0  0  0  0  0
    0.0468   -5.4687   -0.1539 H   0  0  0  0  0  0  0  0  0  0  0  0
   -1.1280   -6.7733    0.1250 H   0  0  0  0  0  0  0  0  0  0  0  0
   -0.6251   -5.7401    1.4811 H   0  0  0  0  0  0  0  0  0  0  0  0
   -2.1032    0.7067    0.4756 H   0  0  0  0  0  0  0  0  0  0  0  0
   -3.4007   -0.0375   -0.4398 H   0  0  0  0  0  0  0  0  0  0  0  0
   -3.2966   -0.0139    2.6378 H   0  0  0  0  0  0  0  0  0  0  0  0
   -4.6530   -0.5314    1.6588 H   0  0  0  0  0  0  0  0  0  0  0  0
   -5.0110    1.7367    2.6001 H   0  0  0  0  0  0  0  0  0  0  0  0
   -3.5065    2.3006    1.9007 H   0  0  0  0  0  0  0  0  0  0  0  0
   -3.7951    3.6945    0.0311 H   0  0  0  0  0  0  0  0  0  0  0  0
   -5.0431    4.3827   -1.9785 H   0  0  0  0  0  0  0  0  0  0  0  0
   -7.0754    3.1432   -2.6763 H   0  0  0  0  0  0  0  0  0  0  0  0
   -7.8580    1.2020   -1.3449 H   0  0  0  0  0  0  0  0  0  0  0  0
   -6.6274    0.4962    0.6674 H   0  0  0  0  0  0  0  0  0  0  0  0
    0.9343    1.6449    2.3039 H   0  0  0  0  0  0  0  0  0  0  0  0
    1.1105    2.3038    0.6978 H   0  0  0  0  0  0  0  0  0  0  0  0
    3.2716    2.1196    1.7999 H   0  0  0  0  0  0  0  0  0  0  0  0
    3.0876    0.3646    2.0124 H   0  0  0  0  0  0  0  0  0  0  0  0
    5.4355    1.2866    1.7620 H   0  0  0  0  0  0  0  0  0  0  0  0
    7.7611    1.7432    1.2080 H   0  0  0  0  0  0  0  0  0  0  0  0
  1  2  1  0
  2  3  1  0
  3  4  2  0
  4  5  1  0
  5  6  2  0
  6  7  1  0
  7  8  1  0
  8  9  1  0
  9 10  1  0
 10 11  1  0
 11 12  1  0
 12 13  2  0
 13 14  1  0
 14 15  2  0
 15 16  1  0
 16 17  2  0
 16 18  1  0
 18 19  1  0
 19 20  2  0
 19 21  1  0
 21 22  1  0
 15 23  1  0
 23 24  1  0
 24 25  1  0
 25 26  1  0
 26 27  1  0
 27 28  2  0
 28 29  1  0
 29 30  2  0
 30 31  1  0
 31 32  2  0
 10 33  1  0
 33 34  1  0
  6 35  1  0
 35 36  2  0
 36  3  1  0
 34  7  1  0
 23 12  1  0
 32 27  1  0
 21 14  1  0
  1 37  1  0
  1 38  1  0
  1 39  1  0
  4 40  1  0
  5 41  1  0
  8 42  1  0
  8 43  1  0
  9 44  1  0
  9 45  1  0
 11 46  1  0
 11 47  1  0
 18 48  1  0
 22 49  1  0
 22 50  1  0
 22 51  1  0
 24 52  1  0
 24 53  1  0
 25 54  1  0
 25 55  1  0
 26 56  1  0
 26 57  1  0
 28 58  1  0
 29 59  1  0
 30 60  1  0
 31 61  1  0
 32 62  1  0
 33 63  1  0
 33 64  1  0
 34 65  1  0
 34 66  1  0
 35 67  1  0
 36 68  1  0
M  END
$$$$
