
     RDKit          3D

 48 50  0  0  0  0  0  0  0  0999 V2000
    1.1010   -4.0989   -0.5935 C   0  0  0  0  0  0  0  0  0  0  0  0
    1.0922   -2.8847   -1.5099 C   0  0  0  0  0  0  0  0  0  0  0  0
    1.7958   -1.7173   -0.8891 C   0  0  0  0  0  0  0  0  0  0  0  0
    1.2841   -0.5922   -0.3940 C   0  0  0  0  0  0  0  0  0  0  0  0
   -0.1361   -0.2586   -0.3183 C   0  0  0  0  0  0  0  0  0  0  0  0
   -0.8959   -0.6970    0.7757 C   0  0  0  0  0  0  0  0  0  0  0  0
   -2.2593   -0.4074    0.8537 C   0  0  0  0  0  0  0  0  0  0  0  0
   -3.0823   -0.7843    1.8830 O   0  0  0  0  0  0  0  0  0  0  0  0
   -2.5533   -1.6805    2.8504 C   0  0  0  0  0  0  0  0  0  0  0  0
   -2.8532    0.3370   -0.1796 C   0  0  0  0  0  0  0  0  0  0  0  0
   -4.2067    0.5929   -0.1330 O   0  0  0  0  0  0  0  0  0  0  0  0
   -4.4399    1.8386    0.5216 C   0  0  0  0  0  0  0  0  0  0  0  0
   -2.1144    0.7508   -1.3013 C   0  0  0  0  0  0  0  0  0  0  0  0
   -2.8054    1.4424   -2.2624 O   0  0  0  0  0  0  0  0  0  0  0  0
   -2.1221    1.7494   -3.4696 C   0  0  0  0  0  0  0  0  0  0  0  0
   -0.7525    0.4481   -1.3597 C   0  0  0  0  0  0  0  0  0  0  0  0
    2.3820    0.2816    0.1104 C   0  0  0  0  0  0  0  0  0  0  0  0
    2.5482    1.6418   -0.5942 C   0  0  0  0  0  0  0  0  0  0  0  0
    2.5347    2.6827    0.5237 C   0  0  0  0  0  0  0  0  0  0  0  0
    3.0321    1.9331    1.7471 C   0  0  0  0  0  0  0  0  0  0  0  0
    2.3527    0.5752    1.6193 C   0  0  0  0  0  0  0  0  0  0  0  0
    3.5691   -0.6295   -0.2188 C   0  0  0  0  0  0  0  0  0  0  0  0
    4.7414   -0.3657    0.0234 O   0  0  0  0  0  0  0  0  0  0  0  0
    3.1846   -1.7997   -0.8280 O   0  0  0  0  0  0  0  0  0  0  0  0
    0.5826   -4.9361   -1.0717 H   0  0  0  0  0  0  0  0  0  0  0  0
    2.1231   -4.4207   -0.3676 H   0  0  0  0  0  0  0  0  0  0  0  0
    0.5938   -3.8836    0.3532 H   0  0  0  0  0  0  0  0  0  0  0  0
    0.0552   -2.6339   -1.7590 H   0  0  0  0  0  0  0  0  0  0  0  0
    1.5832   -3.1371   -2.4572 H   0  0  0  0  0  0  0  0  0  0  0  0
   -0.3993   -1.2634    1.5573 H   0  0  0  0  0  0  0  0  0  0  0  0
   -3.3604   -1.9408    3.5419 H   0  0  0  0  0  0  0  0  0  0  0  0
   -1.7580   -1.2038    3.4324 H   0  0  0  0  0  0  0  0  0  0  0  0
   -2.2022   -2.6073    2.3844 H   0  0  0  0  0  0  0  0  0  0  0  0
   -3.9764    2.6690   -0.0222 H   0  0  0  0  0  0  0  0  0  0  0  0
   -4.0840    1.8189    1.5574 H   0  0  0  0  0  0  0  0  0  0  0  0
   -5.5205    2.0094    0.5399 H   0  0  0  0  0  0  0  0  0  0  0  0
   -1.7631    0.8411   -3.9650 H   0  0  0  0  0  0  0  0  0  0  0  0
   -2.8346    2.2359   -4.1427 H   0  0  0  0  0  0  0  0  0  0  0  0
   -1.3026    2.4525   -3.2887 H   0  0  0  0  0  0  0  0  0  0  0  0
   -0.1508    0.7478   -2.2113 H   0  0  0  0  0  0  0  0  0  0  0  0
    3.5019    1.7019   -1.1329 H   0  0  0  0  0  0  0  0  0  0  0  0
    1.7631    1.8644   -1.3223 H   0  0  0  0  0  0  0  0  0  0  0  0
    3.1549    3.5520    0.2869 H   0  0  0  0  0  0  0  0  0  0  0  0
    1.5093    3.0338    0.6910 H   0  0  0  0  0  0  0  0  0  0  0  0
    2.7698    2.4405    2.6798 H   0  0  0  0  0  0  0  0  0  0  0  0
    4.1220    1.8232    1.7115 H   0  0  0  0  0  0  0  0  0  0  0  0
    2.8685   -0.1805    2.2217 H   0  0  0  0  0  0  0  0  0  0  0  0
    1.3277    0.6590    1.9971 H   0  0  0  0  0  0  0  0  0  0  0  0
  1  2  1  0
  2  3  1  0
  3  4  2  0
  4  5  1  0
  5  6  2  0
  6  7  1  0
  7  8  1  0
  8  9  1  0
  7 10  2  0
 10 11  1  0
 11 12  1  0
 10 13  1  0
 13 14  1  0
 14 15  1  0
 13 16  2  0
  4 17  1  0
 17 18  1  0
 18 19  1  0
 19 20  1  0
 20 21  1  0
 17 22  1  0
 22 23  2  0
 22 24  1  0
 24  3  1  0
 16  5  1  0
 21 17  1  0
  1 25  1  0
  1 26  1  0
  1 27  1  0
  2 28  1  0
  2 29  1  0
  6 30  1  0
  9 31  1  0
  9 32  1  0
  9 33  1  0
 12 34  1  0
 12 35  1  0
 12 36  1  0
 15 37  1  0
 15 38  1  0
 15 39  1  0
 16 40  1  0
 18 41  1  0
 18 42  1  0
 19 43  1  0
 19 44  1  0
 20 45  1  0
 20 46  1  0
 21 47  1  0
 21 48  1  0
M  END
$$$$
