
     RDKit          3D

 36 38  0  0  0  0  0  0  0  0999 V2000
   -0.6249    1.4601   -2.6323 C   0  0  0  0  0  0  0  0  0  0  0  0
   -0.8514   -0.0266   -2.3923 C   0  0  0  0  0  0  0  0  0  0  0  0
   -1.3698   -0.2873   -1.0439 N   0  0  0  0  0  0  0  0  0  0  0  0
   -0.5595   -0.4360    0.0702 C   0  0  0  0  0  0  0  0  0  0  0  0
    0.9090   -0.4153   -0.1407 C   0  0  0  0  0  0  0  0  0  0  0  0
    1.6585    0.3772    0.6384 C   0  0  0  0  0  0  0  0  0  0  0  0
    3.0700    0.4218    0.4855 C   0  0  0  0  0  0  0  0  0  0  0  0
    4.0032    1.1256    1.2448 C   0  0  0  0  0  0  0  0  0  0  0  0
    5.2935    0.8650    0.7180 C   0  0  0  0  0  0  0  0  0  0  0  0
    5.0791    0.0181   -0.3377 C   0  0  0  0  0  0  0  0  0  0  0  0
    5.9757   -0.5957   -1.2643 N   0  0  0  0  0  4  0  0  0  0  0  0
    5.4928   -1.3173   -2.1464 O   0  0  0  0  0  0  0  0  0  0  0  0
    7.1791   -0.3480   -1.1074 O   0  0  0  0  0  1  0  0  0  0  0  0
    3.7616   -0.2598   -0.4967 O   0  0  0  0  0  0  0  0  0  0  0  0
   -1.0101   -0.5985    1.2761 N   0  0  0  0  0  0  0  0  0  0  0  0
   -2.3919   -0.6343    1.4800 C   0  0  0  0  0  0  0  0  0  0  0  0
   -2.8789   -0.8388    2.7734 C   0  0  0  0  0  0  0  0  0  0  0  0
   -4.2544   -0.8771    3.0193 C   0  0  0  0  0  0  0  0  0  0  0  0
   -5.1562   -0.7094    1.9692 C   0  0  0  0  0  0  0  0  0  0  0  0
   -4.6812   -0.5047    0.6744 C   0  0  0  0  0  0  0  0  0  0  0  0
   -3.3008   -0.4706    0.4408 C   0  0  0  0  0  0  0  0  0  0  0  0
   -2.7604   -0.2539   -0.9105 C   0  0  0  0  0  0  0  0  0  0  0  0
   -3.5382   -0.0432   -1.8391 O   0  0  0  0  0  0  0  0  0  0  0  0
    0.1015    1.8725   -1.9253 H   0  0  0  0  0  0  0  0  0  0  0  0
   -1.5565    2.0239   -2.5185 H   0  0  0  0  0  0  0  0  0  0  0  0
   -0.2469    1.6270   -3.6457 H   0  0  0  0  0  0  0  0  0  0  0  0
   -1.5611   -0.4054   -3.1371 H   0  0  0  0  0  0  0  0  0  0  0  0
    0.0804   -0.5738   -2.5567 H   0  0  0  0  0  0  0  0  0  0  0  0
    1.3305   -1.0724   -0.8908 H   0  0  0  0  0  0  0  0  0  0  0  0
    1.1985    0.9955    1.4052 H   0  0  0  0  0  0  0  0  0  0  0  0
    3.7671    1.7568    2.0923 H   0  0  0  0  0  0  0  0  0  0  0  0
    6.2461    1.2439    1.0621 H   0  0  0  0  0  0  0  0  0  0  0  0
   -2.1779   -0.9701    3.5938 H   0  0  0  0  0  0  0  0  0  0  0  0
   -4.6193   -1.0379    4.0308 H   0  0  0  0  0  0  0  0  0  0  0  0
   -6.2266   -0.7383    2.1585 H   0  0  0  0  0  0  0  0  0  0  0  0
   -5.3811   -0.3729   -0.1476 H   0  0  0  0  0  0  0  0  0  0  0  0
  1  2  1  0
  2  3  1  0
  3  4  1  0
  4  5  1  0
  5  6  2  3
  6  7  1  0
  7  8  2  0
  8  9  1  0
  9 10  2  0
 10 11  1  0
 11 12  2  0
 11 13  1  0
 10 14  1  0
  4 15  2  0
 15 16  1  0
 16 17  2  0
 17 18  1  0
 18 19  2  0
 19 20  1  0
 20 21  2  0
 21 22  1  0
 22 23  2  0
 22  3  1  0
 14  7  1  0
 21 16  1  0
  1 24  1  0
  1 25  1  0
  1 26  1  0
  2 27  1  0
  2 28  1  0
  5 29  1  0
  6 30  1  0
  8 31  1  0
  9 32  1  0
 17 33  1  0
 18 34  1  0
 19 35  1  0
 20 36  1  0
M  CHG  2  11   1  13  -1
M  END
$$$$
