
     RDKit          3D

 45 47  0  0  0  0  0  0  0  0999 V2000
    6.4862   -1.7798    0.6095 C   0  0  0  0  0  0  0  0  0  0  0  0
    5.1982   -1.0448    0.5183 C   0  0  0  0  0  0  0  0  0  0  0  0
    4.5681   -0.5593    1.6370 N   0  0  0  0  0  0  0  0  0  0  0  0
    3.4029    0.0856    1.2964 C   0  0  0  0  0  0  0  0  0  0  0  0
    2.4622    0.7331    2.1056 C   0  0  0  0  0  0  0  0  0  0  0  0
    1.3558    1.3145    1.4761 C   0  0  0  0  0  0  0  0  0  0  0  0
    1.1964    1.2417    0.0878 C   0  0  0  0  0  0  0  0  0  0  0  0
    0.0230    1.8530   -0.5977 C   0  0  0  0  0  0  0  0  0  0  0  0
    0.1022    2.2073   -1.7688 O   0  0  0  0  0  0  0  0  0  0  0  0
   -1.1357    1.9479    0.1480 N   0  0  0  0  0  0  0  0  0  0  0  0
   -2.3909    2.3096   -0.4880 C   0  0  0  0  0  0  0  0  0  0  0  0
   -3.0870    1.0801   -1.1041 C   0  0  0  0  0  0  0  0  0  0  0  0
   -3.3447    0.0030   -0.1206 N   0  0  0  0  0  0  0  0  0  0  0  0
   -4.3323    0.4187    0.9020 C   0  0  0  0  0  0  0  0  0  0  0  0
   -5.0715   -0.7813    1.5140 C   0  0  0  0  0  0  0  0  0  0  0  0
   -5.8600   -1.4908    0.5495 O   0  0  0  0  0  0  0  0  0  0  0  0
   -5.3096   -1.4398   -0.7742 C   0  0  0  0  0  0  0  0  0  0  0  0
   -3.7858   -1.2429   -0.7891 C   0  0  0  0  0  0  0  0  0  0  0  0
    2.1629    0.6012   -0.7040 C   0  0  0  0  0  0  0  0  0  0  0  0
    3.2838    0.0064   -0.0894 C   0  0  0  0  0  0  0  0  0  0  0  0
    4.4206   -0.7135   -0.5798 C   0  0  0  0  0  0  0  0  0  0  0  0
    4.7037   -1.0271   -2.0070 C   0  0  0  0  0  0  0  0  0  0  0  0
    7.2290   -1.3321   -0.0583 H   0  0  0  0  0  0  0  0  0  0  0  0
    6.3471   -2.8264    0.3209 H   0  0  0  0  0  0  0  0  0  0  0  0
    6.8928   -1.7584    1.6259 H   0  0  0  0  0  0  0  0  0  0  0  0
    4.9109   -0.6532    2.5827 H   0  0  0  0  0  0  0  0  0  0  0  0
    2.5864    0.7942    3.1819 H   0  0  0  0  0  0  0  0  0  0  0  0
    0.6339    1.8475    2.0892 H   0  0  0  0  0  0  0  0  0  0  0  0
   -1.2240    1.3196    0.9365 H   0  0  0  0  0  0  0  0  0  0  0  0
   -3.0188    2.7779    0.2766 H   0  0  0  0  0  0  0  0  0  0  0  0
   -2.2032    3.0557   -1.2680 H   0  0  0  0  0  0  0  0  0  0  0  0
   -4.0175    1.3915   -1.5949 H   0  0  0  0  0  0  0  0  0  0  0  0
   -2.4259    0.6903   -1.8890 H   0  0  0  0  0  0  0  0  0  0  0  0
   -3.8167    0.9683    1.6969 H   0  0  0  0  0  0  0  0  0  0  0  0
   -5.0835    1.0860    0.4593 H   0  0  0  0  0  0  0  0  0  0  0  0
   -4.3666   -1.4858    1.9712 H   0  0  0  0  0  0  0  0  0  0  0  0
   -5.7491   -0.4421    2.3043 H   0  0  0  0  0  0  0  0  0  0  0  0
   -5.8100   -0.6311   -1.3195 H   0  0  0  0  0  0  0  0  0  0  0  0
   -5.5722   -2.3785   -1.2728 H   0  0  0  0  0  0  0  0  0  0  0  0
   -3.3264   -2.0756   -0.2413 H   0  0  0  0  0  0  0  0  0  0  0  0
   -3.4069   -1.3103   -1.8156 H   0  0  0  0  0  0  0  0  0  0  0  0
    2.0458    0.5600   -1.7837 H   0  0  0  0  0  0  0  0  0  0  0  0
    5.0251   -0.1235   -2.5350 H   0  0  0  0  0  0  0  0  0  0  0  0
    5.4929   -1.7789   -2.1052 H   0  0  0  0  0  0  0  0  0  0  0  0
    3.8083   -1.4178   -2.5019 H   0  0  0  0  0  0  0  0  0  0  0  0
  1  2  1  0
  2  3  1  0
  3  4  1  0
  4  5  2  0
  5  6  1  0
  6  7  2  0
  7  8  1  0
  8  9  2  0
  8 10  1  0
 10 11  1  0
 11 12  1  0
 12 13  1  0
 13 14  1  0
 14 15  1  0
 15 16  1  0
 16 17  1  0
 17 18  1  0
  7 19  1  0
 19 20  2  0
 20 21  1  0
 21 22  1  0
 21  2  2  0
 20  4  1  0
 18 13  1  0
  1 23  1  0
  1 24  1  0
  1 25  1  0
  3 26  1  0
  5 27  1  0
  6 28  1  0
 10 29  1  0
 11 30  1  0
 11 31  1  0
 12 32  1  0
 12 33  1  0
 14 34  1  0
 14 35  1  0
 15 36  1  0
 15 37  1  0
 17 38  1  0
 17 39  1  0
 18 40  1  0
 18 41  1  0
 19 42  1  0
 22 43  1  0
 22 44  1  0
 22 45  1  0
M  END
$$$$
