
     RDKit          3D

 56 59  0  0  0  0  0  0  0  0999 V2000
    6.6381   -1.7269   -1.3202 C   0  0  0  0  0  0  0  0  0  0  0  0
    6.7248   -0.3091   -1.2231 O   0  0  0  0  0  0  0  0  0  0  0  0
    5.6067    0.2667   -0.6553 C   0  0  0  0  0  0  0  0  0  0  0  0
    5.6216    1.6443   -0.5371 C   0  0  0  0  0  0  0  0  0  0  0  0
    4.5164    2.2681    0.0350 C   0  0  0  0  0  0  0  0  0  0  0  0
    3.4267    1.5030    0.4741 C   0  0  0  0  0  0  0  0  0  0  0  0
    2.2714    2.2298    1.0772 C   0  0  0  0  0  0  0  0  0  0  0  0
    2.2419    3.4573    1.0478 O   0  0  0  0  0  0  0  0  0  0  0  0
    1.2692    1.4814    1.6503 N   0  0  0  0  0  0  0  0  0  0  0  0
    0.0038    2.0670    2.0514 C   0  0  0  0  0  0  0  0  0  0  0  0
   -0.5914    1.2986    3.2565 C   0  0  0  0  0  0  0  0  0  0  0  0
   -1.1990   -0.0670    2.8634 C   0  0  0  0  0  0  0  0  0  0  0  0
   -2.3174    0.0648    1.8104 C   0  0  0  0  0  0  0  0  0  0  0  0
   -1.8929    1.0081    0.7393 C   0  0  0  0  0  0  0  0  0  0  0  0
   -0.9101    1.9692    0.8798 C   0  0  0  0  0  0  0  0  0  0  0  0
   -1.0504    2.7868   -0.2503 C   0  0  0  0  0  0  0  0  0  0  0  0
   -2.0452    2.3846   -1.0445 N   0  0  0  0  0  0  0  0  0  0  0  0
   -2.4733    1.2127   -0.4981 N   0  0  0  0  0  0  0  0  0  0  0  0
   -3.4618    0.4410   -1.1606 C   0  0  0  0  0  0  0  0  0  0  0  0
   -4.5575    1.1447   -1.6883 C   0  0  0  0  0  0  0  0  0  0  0  0
   -5.6105    0.4598   -2.2837 C   0  0  0  0  0  0  0  0  0  0  0  0
   -5.5726   -0.9285   -2.3671 C   0  0  0  0  0  0  0  0  0  0  0  0
   -4.4657   -1.6503   -1.8894 C   0  0  0  0  0  0  0  0  0  0  0  0
   -4.4557   -3.1457   -2.0744 C   0  0  0  0  0  0  0  0  0  0  0  0
   -3.3666   -0.9613   -1.3165 C   0  0  0  0  0  0  0  0  0  0  0  0
   -2.1022   -1.7340   -1.0248 C   0  0  0  0  0  0  0  0  0  0  0  0
    3.5082    0.1198    0.2989 C   0  0  0  0  0  0  0  0  0  0  0  0
    2.4401   -0.6654    0.6953 O   0  0  0  0  0  0  0  0  0  0  0  0
    2.6210   -2.0559    0.4405 C   0  0  0  0  0  0  0  0  0  0  0  0
    4.5788   -0.5077   -0.2517 N   0  0  0  0  0  0  0  0  0  0  0  0
    7.5650   -2.0881   -1.7757 H   0  0  0  0  0  0  0  0  0  0  0  0
    5.8087   -2.0292   -1.9681 H   0  0  0  0  0  0  0  0  0  0  0  0
    6.5529   -2.1887   -0.3302 H   0  0  0  0  0  0  0  0  0  0  0  0
    6.4724    2.2208   -0.8828 H   0  0  0  0  0  0  0  0  0  0  0  0
    4.5077    3.3516    0.1371 H   0  0  0  0  0  0  0  0  0  0  0  0
    1.2810    0.4821    1.4783 H   0  0  0  0  0  0  0  0  0  0  0  0
    0.1596    3.1146    2.3329 H   0  0  0  0  0  0  0  0  0  0  0  0
    0.1762    1.1493    4.0257 H   0  0  0  0  0  0  0  0  0  0  0  0
   -1.3857    1.9070    3.7097 H   0  0  0  0  0  0  0  0  0  0  0  0
   -0.4065   -0.7179    2.4717 H   0  0  0  0  0  0  0  0  0  0  0  0
   -1.6000   -0.5611    3.7566 H   0  0  0  0  0  0  0  0  0  0  0  0
   -3.2148    0.4710    2.2935 H   0  0  0  0  0  0  0  0  0  0  0  0
   -2.5780   -0.9257    1.4391 H   0  0  0  0  0  0  0  0  0  0  0  0
   -0.4878    3.6750   -0.5131 H   0  0  0  0  0  0  0  0  0  0  0  0
   -4.6074    2.2296   -1.6107 H   0  0  0  0  0  0  0  0  0  0  0  0
   -6.4629    1.0082   -2.6758 H   0  0  0  0  0  0  0  0  0  0  0  0
   -6.4077   -1.4481   -2.8327 H   0  0  0  0  0  0  0  0  0  0  0  0
   -4.1126   -3.6483   -1.1645 H   0  0  0  0  0  0  0  0  0  0  0  0
   -3.8044   -3.4180   -2.9108 H   0  0  0  0  0  0  0  0  0  0  0  0
   -5.4604   -3.5271   -2.2864 H   0  0  0  0  0  0  0  0  0  0  0  0
   -1.8107   -2.3182   -1.9048 H   0  0  0  0  0  0  0  0  0  0  0  0
   -1.2464   -1.0918   -0.8052 H   0  0  0  0  0  0  0  0  0  0  0  0
   -2.2523   -2.4181   -0.1848 H   0  0  0  0  0  0  0  0  0  0  0  0
    1.7200   -2.5746    0.7861 H   0  0  0  0  0  0  0  0  0  0  0  0
    2.7273   -2.2542   -0.6312 H   0  0  0  0  0  0  0  0  0  0  0  0
    3.4706   -2.4563    1.0045 H   0  0  0  0  0  0  0  0  0  0  0  0
  1  2  1  0
  2  3  1  0
  3  4  2  0
  4  5  1  0
  5  6  2  0
  6  7  1  0
  7  8  2  0
  7  9  1  0
  9 10  1  0
 10 11  1  0
 11 12  1  0
 12 13  1  0
 13 14  1  0
 14 15  2  0
 15 16  1  0
 16 17  2  0
 17 18  1  0
 18 19  1  0
 19 20  2  0
 20 21  1  0
 21 22  2  0
 22 23  1  0
 23 24  1  0
 23 25  2  0
 25 26  1  0
  6 27  1  0
 27 28  1  0
 28 29  1  0
 27 30  2  0
 30  3  1  0
 15 10  1  0
 25 19  1  0
 18 14  1  0
  1 31  1  0
  1 32  1  0
  1 33  1  0
  4 34  1  0
  5 35  1  0
  9 36  1  0
 10 37  1  0
 11 38  1  0
 11 39  1  0
 12 40  1  0
 12 41  1  0
 13 42  1  0
 13 43  1  0
 16 44  1  0
 20 45  1  0
 21 46  1  0
 22 47  1  0
 24 48  1  0
 24 49  1  0
 24 50  1  0
 26 51  1  0
 26 52  1  0
 26 53  1  0
 29 54  1  0
 29 55  1  0
 29 56  1  0
M  END
$$$$
