
     RDKit          3D

 40 40  0  0  0  0  0  0  0  0999 V2000
   -5.2206   -1.3950   -0.9136 C   0  0  0  0  0  0  0  0  0  0  0  0
   -5.2192    0.1102   -0.6051 C   0  0  0  0  0  0  0  0  0  0  0  0
   -6.0484    0.3887    0.6583 C   0  0  0  0  0  0  0  0  0  0  0  0
   -5.8675    0.8526   -1.7871 C   0  0  0  0  0  0  0  0  0  0  0  0
   -3.8489    0.6073   -0.4497 N   0  0  0  0  0  0  0  0  0  0  0  0
   -2.9496    0.1877    0.5059 C   0  0  0  0  0  0  0  0  0  0  0  0
   -3.1402   -0.6414    1.3822 O   0  0  0  0  0  0  0  0  0  0  0  0
   -1.5755    0.8772    0.3926 C   0  0  0  0  0  0  0  0  0  0  0  0
   -1.3478    1.6819   -0.5039 O   0  0  0  0  0  0  0  0  0  0  0  0
   -0.6765    0.4893    1.3633 N   0  0  0  0  0  0  0  0  0  0  0  0
    0.6752    0.8383    1.1911 N   0  0  0  0  0  0  0  0  0  0  0  0
    1.6161   -0.1602    1.4078 C   0  0  0  0  0  0  0  0  0  0  0  0
    1.3181   -1.2413    1.9109 O   0  0  0  0  0  0  0  0  0  0  0  0
    3.0244    0.2452    0.9724 C   0  0  0  0  0  0  0  0  0  0  0  0
    3.9398   -0.8254    1.1411 O   0  0  0  0  0  0  0  0  0  0  0  0
    5.2406   -0.5975    0.7883 C   0  0  0  0  0  0  0  0  0  0  0  0
    6.0912   -1.6915    0.9686 C   0  0  0  0  0  0  0  0  0  0  0  0
    7.4467   -1.6002    0.6488 C   0  0  0  0  0  0  0  0  0  0  0  0
    7.9611   -0.4085    0.1449 C   0  0  0  0  0  0  0  0  0  0  0  0
    7.1194    0.6876   -0.0373 C   0  0  0  0  0  0  0  0  0  0  0  0
    5.7610    0.5952    0.2834 C   0  0  0  0  0  0  0  0  0  0  0  0
   -4.8163   -1.9819   -0.0823 H   0  0  0  0  0  0  0  0  0  0  0  0
   -4.6094   -1.6160   -1.7963 H   0  0  0  0  0  0  0  0  0  0  0  0
   -6.2360   -1.7585   -1.1074 H   0  0  0  0  0  0  0  0  0  0  0  0
   -7.0944    0.0935    0.5182 H   0  0  0  0  0  0  0  0  0  0  0  0
   -6.0305    1.4546    0.9133 H   0  0  0  0  0  0  0  0  0  0  0  0
   -5.6682   -0.1604    1.5259 H   0  0  0  0  0  0  0  0  0  0  0  0
   -6.8988    0.5212   -1.9518 H   0  0  0  0  0  0  0  0  0  0  0  0
   -5.8854    1.9347   -1.6115 H   0  0  0  0  0  0  0  0  0  0  0  0
   -5.3077    0.6835   -2.7144 H   0  0  0  0  0  0  0  0  0  0  0  0
   -3.4916    1.2926   -1.1118 H   0  0  0  0  0  0  0  0  0  0  0  0
   -0.8764   -0.3511    1.9144 H   0  0  0  0  0  0  0  0  0  0  0  0
    0.8500    1.5806    0.5146 H   0  0  0  0  0  0  0  0  0  0  0  0
    2.9723    0.5324   -0.0848 H   0  0  0  0  0  0  0  0  0  0  0  0
    3.3221    1.1000    1.5918 H   0  0  0  0  0  0  0  0  0  0  0  0
    5.6922   -2.6236    1.3626 H   0  0  0  0  0  0  0  0  0  0  0  0
    8.0969   -2.4587    0.7942 H   0  0  0  0  0  0  0  0  0  0  0  0
    9.0163   -0.3338   -0.1048 H   0  0  0  0  0  0  0  0  0  0  0  0
    7.5219    1.6180   -0.4300 H   0  0  0  0  0  0  0  0  0  0  0  0
    5.1435    1.4725    0.1269 H   0  0  0  0  0  0  0  0  0  0  0  0
  1  2  1  0
  2  3  1  0
  2  4  1  0
  2  5  1  0
  5  6  1  0
  6  7  2  0
  6  8  1  0
  8  9  2  0
  8 10  1  0
 10 11  1  0
 11 12  1  0
 12 13  2  0
 12 14  1  0
 14 15  1  0
 15 16  1  0
 16 17  2  0
 17 18  1  0
 18 19  2  0
 19 20  1  0
 20 21  2  0
 21 16  1  0
  1 22  1  0
  1 23  1  0
  1 24  1  0
  3 25  1  0
  3 26  1  0
  3 27  1  0
  4 28  1  0
  4 29  1  0
  4 30  1  0
  5 31  1  0
 10 32  1  0
 11 33  1  0
 14 34  1  0
 14 35  1  0
 17 36  1  0
 18 37  1  0
 19 38  1  0
 20 39  1  0
 21 40  1  0
M  END
$$$$
