
     RDKit          3D

 60 64  0  0  0  0  0  0  0  0999 V2000
   -2.3713    0.5353   -1.5555 O   0  0  0  0  0  0  0  0  0  0  0  0
   -2.4337    0.8612   -0.3692 C   0  0  0  0  0  0  0  0  0  0  0  0
   -1.3394    1.6854    0.2881 C   0  0  0  0  0  0  0  0  0  0  0  0
   -0.2287    2.1162   -0.6790 C   0  0  0  0  0  0  0  0  0  0  0  0
    0.5546    1.0222   -1.2615 N   0  0  0  0  0  0  0  0  0  0  0  0
    0.7232    1.0310   -2.6391 C   0  0  0  0  0  0  0  0  0  0  0  0
    0.3773    1.9520   -3.3790 O   0  0  0  0  0  0  0  0  0  0  0  0
    1.4020   -0.1359   -3.2243 C   0  0  0  0  0  0  0  0  0  0  0  0
    1.4134   -0.2926   -4.6213 C   0  0  0  0  0  0  0  0  0  0  0  0
    2.0424   -1.3937   -5.1959 C   0  0  0  0  0  0  0  0  0  0  0  0
    2.6574   -2.3319   -4.3739 C   0  0  0  0  0  0  0  0  0  0  0  0
    2.6465   -2.1668   -2.9819 C   0  0  0  0  0  0  0  0  0  0  0  0
    2.0226   -1.0596   -2.3829 C   0  0  0  0  0  0  0  0  0  0  0  0
    2.0082   -0.8381   -0.9751 N   0  0  0  0  0  0  0  0  0  0  0  0
    2.7737   -1.6955   -0.0623 C   0  0  0  0  0  0  0  0  0  0  0  0
    4.2277   -1.2791    0.0729 C   0  0  0  0  0  0  0  0  0  0  0  0
    5.2577   -2.0547   -0.4865 C   0  0  0  0  0  0  0  0  0  0  0  0
    6.5948   -1.6624   -0.3709 C   0  0  0  0  0  0  0  0  0  0  0  0
    6.9285   -0.4928    0.3155 C   0  0  0  0  0  0  0  0  0  0  0  0
    5.9135    0.2787    0.8912 C   0  0  0  0  0  0  0  0  0  0  0  0
    6.2605    1.5012    1.6284 N   0  0  0  0  0  4  0  0  0  0  0  0
    7.4456    1.8654    1.6083 O   0  0  0  0  0  0  0  0  0  0  0  0
    5.3515    2.0965    2.2300 O   0  0  0  0  0  1  0  0  0  0  0  0
    4.5704   -0.1078    0.7737 C   0  0  0  0  0  0  0  0  0  0  0  0
    1.2930    0.2163   -0.4069 C   0  0  0  0  0  0  0  0  0  0  0  0
    1.3246    0.4327    0.8082 O   0  0  0  0  0  0  0  0  0  0  0  0
   -3.4982    0.4813    0.4466 N   0  0  0  0  0  0  0  0  0  0  0  0
   -4.6467   -0.1777   -0.1707 C   0  0  0  0  0  0  0  0  0  0  0  0
   -5.1939   -1.2935    0.7187 C   0  0  0  0  0  0  0  0  0  0  0  0
   -5.4523   -0.8051    2.1188 C   0  0  0  0  0  0  0  0  0  0  0  0
   -6.3724   -1.4741    2.9391 C   0  0  0  0  0  0  0  0  0  0  0  0
   -6.5904   -1.0461    4.2484 C   0  0  0  0  0  0  0  0  0  0  0  0
   -5.8852    0.0454    4.7503 C   0  0  0  0  0  0  0  0  0  0  0  0
   -4.9585    0.7096    3.9442 C   0  0  0  0  0  0  0  0  0  0  0  0
   -4.7283    0.2895    2.6247 C   0  0  0  0  0  0  0  0  0  0  0  0
   -3.7133    1.0306    1.7859 C   0  0  0  0  0  0  0  0  0  0  0  0
   -1.7971    2.5962    0.6932 H   0  0  0  0  0  0  0  0  0  0  0  0
   -0.9318    1.1102    1.1237 H   0  0  0  0  0  0  0  0  0  0  0  0
   -0.6744    2.7339   -1.4677 H   0  0  0  0  0  0  0  0  0  0  0  0
    0.4757    2.7597   -0.1360 H   0  0  0  0  0  0  0  0  0  0  0  0
    0.9254    0.4442   -5.2585 H   0  0  0  0  0  0  0  0  0  0  0  0
    2.0479   -1.5194   -6.2762 H   0  0  0  0  0  0  0  0  0  0  0  0
    3.1464   -3.1998   -4.8137 H   0  0  0  0  0  0  0  0  0  0  0  0
    3.1301   -2.9426   -2.3998 H   0  0  0  0  0  0  0  0  0  0  0  0
    2.3247   -1.6711    0.9405 H   0  0  0  0  0  0  0  0  0  0  0  0
    2.6838   -2.7461   -0.3613 H   0  0  0  0  0  0  0  0  0  0  0  0
    5.0336   -2.9812   -1.0177 H   0  0  0  0  0  0  0  0  0  0  0  0
    7.3777   -2.2732   -0.8166 H   0  0  0  0  0  0  0  0  0  0  0  0
    7.9738   -0.2031    0.3969 H   0  0  0  0  0  0  0  0  0  0  0  0
    3.7863    0.4951    1.2307 H   0  0  0  0  0  0  0  0  0  0  0  0
   -4.3820   -0.5948   -1.1485 H   0  0  0  0  0  0  0  0  0  0  0  0
   -5.4090    0.5952   -0.3432 H   0  0  0  0  0  0  0  0  0  0  0  0
   -6.1178   -1.6844    0.2757 H   0  0  0  0  0  0  0  0  0  0  0  0
   -4.4680   -2.1154    0.7725 H   0  0  0  0  0  0  0  0  0  0  0  0
   -6.9227   -2.3342    2.5626 H   0  0  0  0  0  0  0  0  0  0  0  0
   -7.3080   -1.5667    4.8801 H   0  0  0  0  0  0  0  0  0  0  0  0
   -6.0518    0.3745    5.7730 H   0  0  0  0  0  0  0  0  0  0  0  0
   -4.4115    1.5571    4.3543 H   0  0  0  0  0  0  0  0  0  0  0  0
   -2.7615    1.0376    2.3248 H   0  0  0  0  0  0  0  0  0  0  0  0
   -4.0465    2.0663    1.6545 H   0  0  0  0  0  0  0  0  0  0  0  0
  1  2  2  0
  2  3  1  0
  3  4  1  0
  4  5  1  0
  5  6  1  0
  6  7  2  0
  6  8  1  0
  8  9  2  0
  9 10  1  0
 10 11  2  0
 11 12  1  0
 12 13  2  0
 13 14  1  0
 14 15  1  0
 15 16  1  0
 16 17  2  0
 17 18  1  0
 18 19  2  0
 19 20  1  0
 20 21  1  0
 21 22  2  0
 21 23  1  0
 20 24  2  0
 14 25  1  0
 25 26  2  0
  2 27  1  0
 27 28  1  0
 28 29  1  0
 29 30  1  0
 30 31  2  0
 31 32  1  0
 32 33  2  0
 33 34  1  0
 34 35  2  0
 35 36  1  0
 25  5  1  0
 36 27  1  0
 13  8  1  0
 24 16  1  0
 35 30  1  0
  3 37  1  0
  3 38  1  0
  4 39  1  0
  4 40  1  0
  9 41  1  0
 10 42  1  0
 11 43  1  0
 12 44  1  0
 15 45  1  0
 15 46  1  0
 17 47  1  0
 18 48  1  0
 19 49  1  0
 24 50  1  0
 28 51  1  0
 28 52  1  0
 29 53  1  0
 29 54  1  0
 31 55  1  0
 32 56  1  0
 33 57  1  0
 34 58  1  0
 36 59  1  0
 36 60  1  0
M  CHG  2  21   1  23  -1
M  END
$$$$
