
     RDKit          3D

 57 59  0  0  0  0  0  0  0  0999 V2000
   -4.0902   -2.9372    1.9389 C   0  0  0  0  0  0  0  0  0  0  0  0
   -3.6776   -2.2816    0.6299 C   0  0  0  0  0  0  0  0  0  0  0  0
   -3.6395   -0.8158    0.7332 N   0  0  0  0  0  0  0  0  0  0  0  0
   -2.4407   -0.2565    1.1964 C   0  0  0  0  0  0  0  0  0  0  0  0
   -1.5097   -0.9619    1.5962 O   0  0  0  0  0  0  0  0  0  0  0  0
   -2.3155    1.2757    1.2181 C   0  0  0  0  0  0  0  0  0  0  0  0
   -0.9703    1.6940    1.4563 O   0  0  0  0  0  0  0  0  0  0  0  0
   -0.1600    1.5215    0.3864 C   0  0  0  0  0  0  0  0  0  0  0  0
   -0.4853    1.1698   -0.7351 O   0  0  0  0  0  0  0  0  0  0  0  0
    1.2379    1.7086    0.8010 C   0  0  0  0  0  0  0  0  0  0  0  0
    2.1076    0.6269    0.6085 C   0  0  0  0  0  0  0  0  0  0  0  0
    3.4583    0.7396    0.9701 C   0  0  0  0  0  0  0  0  0  0  0  0
    4.5113   -0.6639    0.7247 S   0  0  0  0  0  6  0  0  0  0  0  0
    3.7458   -1.6888    0.0445 O   0  0  0  0  0  0  0  0  0  0  0  0
    5.1607   -0.9518    1.9838 O   0  0  0  0  0  0  0  0  0  0  0  0
    5.6723   -0.1090   -0.3932 N   0  0  0  0  0  0  0  0  0  0  0  0
    6.8465   -1.0338   -0.5517 C   0  0  0  0  0  0  0  0  0  0  0  0
    6.7637   -1.8030   -1.8731 C   0  0  0  0  0  0  0  0  0  0  0  0
    6.7872   -0.9470   -3.0255 O   0  0  0  0  0  0  0  0  0  0  0  0
    6.2435    0.3551   -2.7749 C   0  0  0  0  0  0  0  0  0  0  0  0
    5.1337    0.3435   -1.7191 C   0  0  0  0  0  0  0  0  0  0  0  0
    3.9380    1.9295    1.5231 C   0  0  0  0  0  0  0  0  0  0  0  0
    5.5807    2.1898    1.9826 Cl  0  0  0  0  0  0  0  0  0  0  0  0
    3.0611    3.0089    1.7019 C   0  0  0  0  0  0  0  0  0  0  0  0
    1.7142    2.9054    1.3388 C   0  0  0  0  0  0  0  0  0  0  0  0
    0.7200    4.3033    1.5321 Cl  0  0  0  0  0  0  0  0  0  0  0  0
   -4.7596   -0.0251    0.1928 C   0  0  0  0  0  0  0  0  0  0  0  0
   -6.1628   -0.5622    0.5215 C   0  0  0  0  0  0  0  0  0  0  0  0
   -7.1315    0.3395   -0.2327 C   0  0  0  0  0  0  0  0  0  0  0  0
   -6.3230    0.7015   -1.7838 S   0  0  0  0  0  6  0  0  0  0  0  0
   -6.8681   -0.1682   -2.8039 O   0  0  0  0  0  0  0  0  0  0  0  0
   -6.2611    2.1395   -1.9376 O   0  0  0  0  0  0  0  0  0  0  0  0
   -4.7032    0.1080   -1.3307 C   0  0  0  0  0  0  0  0  0  0  0  0
   -3.4024   -2.6748    2.7487 H   0  0  0  0  0  0  0  0  0  0  0  0
   -5.0938   -2.6255    2.2430 H   0  0  0  0  0  0  0  0  0  0  0  0
   -4.0908   -4.0261    1.8329 H   0  0  0  0  0  0  0  0  0  0  0  0
   -4.3501   -2.5791   -0.1810 H   0  0  0  0  0  0  0  0  0  0  0  0
   -2.6826   -2.6466    0.3474 H   0  0  0  0  0  0  0  0  0  0  0  0
   -2.9228    1.6509    2.0477 H   0  0  0  0  0  0  0  0  0  0  0  0
   -2.6809    1.7236    0.2893 H   0  0  0  0  0  0  0  0  0  0  0  0
    1.7177   -0.3011    0.1881 H   0  0  0  0  0  0  0  0  0  0  0  0
    7.7508   -0.4149   -0.5280 H   0  0  0  0  0  0  0  0  0  0  0  0
    6.9188   -1.7375    0.2833 H   0  0  0  0  0  0  0  0  0  0  0  0
    7.6095   -2.4921   -1.9622 H   0  0  0  0  0  0  0  0  0  0  0  0
    5.8473   -2.4024   -1.9184 H   0  0  0  0  0  0  0  0  0  0  0  0
    7.0657    1.0126   -2.4682 H   0  0  0  0  0  0  0  0  0  0  0  0
    5.8573    0.7370   -3.7253 H   0  0  0  0  0  0  0  0  0  0  0  0
    4.3325   -0.3251   -2.0505 H   0  0  0  0  0  0  0  0  0  0  0  0
    4.7314    1.3548   -1.6075 H   0  0  0  0  0  0  0  0  0  0  0  0
    3.4341    3.9426    2.1202 H   0  0  0  0  0  0  0  0  0  0  0  0
   -4.7076    0.9805    0.6259 H   0  0  0  0  0  0  0  0  0  0  0  0
   -6.3629   -0.5471    1.5977 H   0  0  0  0  0  0  0  0  0  0  0  0
   -6.2920   -1.5933    0.1752 H   0  0  0  0  0  0  0  0  0  0  0  0
   -8.0953   -0.1399   -0.4179 H   0  0  0  0  0  0  0  0  0  0  0  0
   -7.2794    1.2856    0.2966 H   0  0  0  0  0  0  0  0  0  0  0  0
   -4.5454   -0.8544   -1.8263 H   0  0  0  0  0  0  0  0  0  0  0  0
   -3.9438    0.8180   -1.6645 H   0  0  0  0  0  0  0  0  0  0  0  0
  1  2  1  0
  2  3  1  0
  3  4  1  0
  4  5  2  0
  4  6  1  0
  6  7  1  0
  7  8  1  0
  8  9  2  0
  8 10  1  0
 10 11  2  0
 11 12  1  0
 12 13  1  0
 13 14  2  0
 13 15  2  0
 13 16  1  0
 16 17  1  0
 17 18  1  0
 18 19  1  0
 19 20  1  0
 20 21  1  0
 12 22  2  0
 22 23  1  0
 22 24  1  0
 24 25  2  0
 25 26  1  0
  3 27  1  0
 27 28  1  0
 28 29  1  0
 29 30  1  0
 30 31  2  0
 30 32  2  0
 30 33  1  0
 25 10  1  0
 33 27  1  0
 21 16  1  0
  1 34  1  0
  1 35  1  0
  1 36  1  0
  2 37  1  0
  2 38  1  0
  6 39  1  0
  6 40  1  0
 11 41  1  0
 17 42  1  0
 17 43  1  0
 18 44  1  0
 18 45  1  0
 20 46  1  0
 20 47  1  0
 21 48  1  0
 21 49  1  0
 24 50  1  0
 27 51  1  0
 28 52  1  0
 28 53  1  0
 29 54  1  0
 29 55  1  0
 33 56  1  0
 33 57  1  0
M  END
$$$$
