
     RDKit          3D

 43 45  0  0  0  0  0  0  0  0999 V2000
    3.7346    2.5667    0.4184 C   0  0  0  0  0  0  0  0  0  0  0  0
    4.6474    1.6009   -0.0863 O   0  0  0  0  0  0  0  0  0  0  0  0
    4.1841    0.3211   -0.2395 C   0  0  0  0  0  0  0  0  0  0  0  0
    5.1343   -0.5805   -0.7118 C   0  0  0  0  0  0  0  0  0  0  0  0
    4.8232   -1.9259   -0.9143 C   0  0  0  0  0  0  0  0  0  0  0  0
    3.5174   -2.3402   -0.6323 C   0  0  0  0  0  0  0  0  0  0  0  0
    2.9631   -3.5929   -0.7319 N   0  0  0  0  0  0  0  0  0  0  0  0
    1.6545   -3.5558   -0.3530 C   0  0  0  0  0  0  0  0  0  0  0  0
    1.3210   -2.2559   -0.0044 C   0  0  0  0  0  0  0  0  0  0  0  0
   -0.0367   -1.8894    0.4365 C   0  0  0  0  0  0  0  0  0  0  0  0
   -0.8563   -2.7767    0.6833 O   0  0  0  0  0  0  0  0  0  0  0  0
   -0.3740   -0.3960    0.5747 C   0  0  0  0  0  0  0  0  0  0  0  0
   -1.8204   -0.1253    0.7655 N   0  0  0  0  0  0  0  0  0  0  0  0
   -2.0249    1.2616    1.2052 C   0  0  0  0  0  0  0  0  0  0  0  0
   -3.5034    1.5476    1.4792 C   0  0  0  0  0  0  0  0  0  0  0  0
   -4.4003    1.2290    0.2777 C   0  0  0  0  0  0  0  0  0  0  0  0
   -4.2682    2.2828   -0.8247 C   0  0  0  0  0  0  0  0  0  0  0  0
   -4.0848   -0.1790   -0.2402 C   0  0  0  0  0  0  0  0  0  0  0  0
   -2.5864   -0.4077   -0.4595 C   0  0  0  0  0  0  0  0  0  0  0  0
    2.5215   -1.4737   -0.1686 C   0  0  0  0  0  0  0  0  0  0  0  0
    2.8809   -0.1167    0.0353 C   0  0  0  0  0  0  0  0  0  0  0  0
    2.8879    2.7028   -0.2625 H   0  0  0  0  0  0  0  0  0  0  0  0
    3.3948    2.3010    1.4249 H   0  0  0  0  0  0  0  0  0  0  0  0
    4.2630    3.5224    0.4872 H   0  0  0  0  0  0  0  0  0  0  0  0
    6.1433   -0.2316   -0.9222 H   0  0  0  0  0  0  0  0  0  0  0  0
    5.5760   -2.6196   -1.2750 H   0  0  0  0  0  0  0  0  0  0  0  0
    3.4599   -4.4195   -1.0358 H   0  0  0  0  0  0  0  0  0  0  0  0
    1.0490   -4.4541   -0.3610 H   0  0  0  0  0  0  0  0  0  0  0  0
    0.1718   -0.0488    1.4602 H   0  0  0  0  0  0  0  0  0  0  0  0
   -0.0126    0.1419   -0.3090 H   0  0  0  0  0  0  0  0  0  0  0  0
   -1.4738    1.4376    2.1373 H   0  0  0  0  0  0  0  0  0  0  0  0
   -1.6329    1.9696    0.4642 H   0  0  0  0  0  0  0  0  0  0  0  0
   -3.6270    2.5946    1.7808 H   0  0  0  0  0  0  0  0  0  0  0  0
   -3.8282    0.9382    2.3332 H   0  0  0  0  0  0  0  0  0  0  0  0
   -5.4451    1.2460    0.6138 H   0  0  0  0  0  0  0  0  0  0  0  0
   -3.2526    2.3431   -1.2264 H   0  0  0  0  0  0  0  0  0  0  0  0
   -4.9436    2.0552   -1.6563 H   0  0  0  0  0  0  0  0  0  0  0  0
   -4.5355    3.2737   -0.4424 H   0  0  0  0  0  0  0  0  0  0  0  0
   -4.6273   -0.3718   -1.1734 H   0  0  0  0  0  0  0  0  0  0  0  0
   -4.4506   -0.9140    0.4893 H   0  0  0  0  0  0  0  0  0  0  0  0
   -2.2305    0.2118   -1.2924 H   0  0  0  0  0  0  0  0  0  0  0  0
   -2.4564   -1.4510   -0.7664 H   0  0  0  0  0  0  0  0  0  0  0  0
    2.1442    0.5785    0.4117 H   0  0  0  0  0  0  0  0  0  0  0  0
  1  2  1  0
  2  3  1  0
  3  4  2  0
  4  5  1  0
  5  6  2  0
  6  7  1  0
  7  8  1  0
  8  9  2  0
  9 10  1  0
 10 11  2  0
 10 12  1  0
 12 13  1  0
 13 14  1  0
 14 15  1  0
 15 16  1  0
 16 17  1  0
 16 18  1  0
 18 19  1  0
  9 20  1  0
 20 21  2  0
 21  3  1  0
 20  6  1  0
 19 13  1  0
  1 22  1  0
  1 23  1  0
  1 24  1  0
  4 25  1  0
  5 26  1  0
  7 27  1  0
  8 28  1  0
 12 29  1  0
 12 30  1  0
 14 31  1  0
 14 32  1  0
 15 33  1  0
 15 34  1  0
 16 35  1  0
 17 36  1  0
 17 37  1  0
 17 38  1  0
 18 39  1  0
 18 40  1  0
 19 41  1  0
 19 42  1  0
 21 43  1  0
M  END
$$$$
