
     RDKit          3D

 29 31  0  0  0  0  0  0  0  0999 V2000
   -0.5817   -0.1248   -0.5688 O   0  0  0  0  0  0  0  0  0  0  0  0
   -0.5191    0.6159    0.4033 C   0  0  0  0  0  0  0  0  0  0  0  0
   -1.7068    1.3434    0.9495 C   0  0  0  0  0  0  0  0  0  0  0  0
   -3.0021    1.2278    0.6231 C   0  0  0  0  0  0  0  0  0  0  0  0
   -3.5264    0.2630   -0.2744 C   0  0  0  0  0  0  0  0  0  0  0  0
   -4.5295    0.4181   -1.2247 C   0  0  0  0  0  0  0  0  0  0  0  0
   -4.7351   -0.8352   -1.8490 C   0  0  0  0  0  0  0  0  0  0  0  0
   -3.8672   -1.7025   -1.2378 C   0  0  0  0  0  0  0  0  0  0  0  0
   -3.1551   -1.0612   -0.2811 O   0  0  0  0  0  0  0  0  0  0  0  0
   -1.1957    2.4661    2.1546 S   0  0  0  0  0  0  0  0  0  0  0  0
    0.4912    1.9684    2.0587 C   0  0  0  0  0  0  0  0  0  0  0  0
    1.6415    2.7981    2.9502 S   0  0  0  0  0  0  0  0  0  0  0  0
    0.6305    0.9416    1.1324 N   0  0  0  0  0  0  0  0  0  0  0  0
    1.8713    0.2756    0.8502 C   0  0  0  0  0  0  0  0  0  0  0  0
    2.2519   -0.0197   -0.4701 C   0  0  0  0  0  0  0  0  0  0  0  0
    3.4525   -0.6826   -0.7501 C   0  0  0  0  0  0  0  0  0  0  0  0
    4.2811   -1.0662    0.2948 C   0  0  0  0  0  0  0  0  0  0  0  0
    5.4570   -1.7160    0.0710 O   0  0  0  0  0  0  0  0  0  0  0  0
    3.9252   -0.8021    1.6088 C   0  0  0  0  0  0  0  0  0  0  0  0
    2.7244   -0.1400    1.8853 C   0  0  0  0  0  0  0  0  0  0  0  0
   -3.7323    1.8891    1.0829 H   0  0  0  0  0  0  0  0  0  0  0  0
   -5.0450    1.3425   -1.4469 H   0  0  0  0  0  0  0  0  0  0  0  0
   -5.4286   -1.0755   -2.6420 H   0  0  0  0  0  0  0  0  0  0  0  0
   -3.6461   -2.7538   -1.3570 H   0  0  0  0  0  0  0  0  0  0  0  0
    1.6324    0.2806   -1.3127 H   0  0  0  0  0  0  0  0  0  0  0  0
    3.7147   -0.8866   -1.7836 H   0  0  0  0  0  0  0  0  0  0  0  0
    5.5644   -1.8446   -0.8858 H   0  0  0  0  0  0  0  0  0  0  0  0
    4.5732   -1.1197    2.4213 H   0  0  0  0  0  0  0  0  0  0  0  0
    2.4594    0.0002    2.9299 H   0  0  0  0  0  0  0  0  0  0  0  0
  1  2  2  0
  2  3  1  0
  3  4  2  3
  4  5  1  0
  5  6  2  0
  6  7  1  0
  7  8  2  0
  8  9  1  0
  3 10  1  0
 10 11  1  0
 11 12  2  0
 11 13  1  0
 13 14  1  0
 14 15  2  0
 15 16  1  0
 16 17  2  0
 17 18  1  0
 17 19  1  0
 19 20  2  0
 13  2  1  0
 20 14  1  0
  9  5  1  0
  4 21  1  0
  6 22  1  0
  7 23  1  0
  8 24  1  0
 15 25  1  0
 16 26  1  0
 18 27  1  0
 19 28  1  0
 20 29  1  0
M  END
$$$$
