
     RDKit          3D

 53 58  0  0  0  0  0  0  0  0999 V2000
   -1.1960    1.6545    1.4968 O   0  0  0  0  0  0  0  0  0  0  0  0
   -1.5957    0.9462    0.5720 C   0  0  0  0  0  0  0  0  0  0  0  0
   -0.8848    0.9751   -0.7924 C   0  0  0  0  0  0  0  0  0  0  0  0
    0.5771    0.8527   -0.6644 N   0  0  0  0  0  4  0  0  0  0  0  0
    1.3733   -0.1801   -1.1601 C   0  0  0  0  0  0  0  0  0  0  0  0
    2.7007    0.0796   -0.8436 C   0  0  0  0  0  0  0  0  0  0  0  0
    3.9329   -0.8385   -1.1690 C   0  0  0  0  0  0  0  0  0  0  0  0
    3.7527   -2.0111   -1.9143 C   0  0  0  0  0  0  0  0  0  0  0  0
    4.8449   -2.8321   -2.2074 C   0  0  0  0  0  0  0  0  0  0  0  0
    6.1169   -2.4897   -1.7560 C   0  0  0  0  0  0  0  0  0  0  0  0
    6.2988   -1.3293   -1.0078 C   0  0  0  0  0  0  0  0  0  0  0  0
    5.2098   -0.5040   -0.7131 C   0  0  0  0  0  0  0  0  0  0  0  0
    2.6390    1.3033   -0.2030 N   0  0  0  0  0  0  0  0  0  0  0  0
    1.3855    1.7350   -0.0803 C   0  0  0  0  0  0  0  0  0  0  0  0
    1.2935    3.0550    0.5889 C   0  0  0  0  0  0  0  0  0  0  0  0
    2.7524    3.5475    0.5230 C   0  0  0  0  0  0  0  0  0  0  0  0
    3.5950    2.2568    0.3456 C   0  0  0  0  0  0  0  0  0  0  0  0
   -2.7288    0.1245    0.5979 N   0  0  0  0  0  0  0  0  0  0  0  0
   -2.5784   -1.2922    0.3767 C   0  0  0  0  0  0  0  0  0  0  0  0
   -1.3156   -1.8902    0.5884 C   0  0  0  0  0  0  0  0  0  0  0  0
   -1.1023   -3.2543    0.3746 C   0  0  0  0  0  0  0  0  0  0  0  0
   -2.1510   -4.0563   -0.0486 C   0  0  0  0  0  0  0  0  0  0  0  0
   -3.4127   -3.4960   -0.2309 C   0  0  0  0  0  0  0  0  0  0  0  0
   -3.6363   -2.1274   -0.0047 C   0  0  0  0  0  0  0  0  0  0  0  0
   -5.2788   -1.5313   -0.2606 S   0  0  0  0  0  0  0  0  0  0  0  0
   -5.2183   -0.0362    0.6928 C   0  0  0  0  0  0  0  0  0  0  0  0
   -6.4601    0.5030    1.0742 C   0  0  0  0  0  0  0  0  0  0  0  0
   -6.5352    1.7263    1.7306 C   0  0  0  0  0  0  0  0  0  0  0  0
   -5.3695    2.4265    1.9968 C   0  0  0  0  0  0  0  0  0  0  0  0
   -4.1306    1.8950    1.6189 C   0  0  0  0  0  0  0  0  0  0  0  0
   -4.0195    0.6438    0.9787 C   0  0  0  0  0  0  0  0  0  0  0  0
   -1.1006    1.9424   -1.2612 H   0  0  0  0  0  0  0  0  0  0  0  0
   -1.2545    0.1969   -1.4673 H   0  0  0  0  0  0  0  0  0  0  0  0
    0.8846   -0.9919   -1.6732 H   0  0  0  0  0  0  0  0  0  0  0  0
    2.7803   -2.3130   -2.2914 H   0  0  0  0  0  0  0  0  0  0  0  0
    4.7068   -3.7390   -2.7920 H   0  0  0  0  0  0  0  0  0  0  0  0
    6.9678   -3.1289   -1.9847 H   0  0  0  0  0  0  0  0  0  0  0  0
    7.2942   -1.0708   -0.6509 H   0  0  0  0  0  0  0  0  0  0  0  0
    5.3957    0.3784   -0.1147 H   0  0  0  0  0  0  0  0  0  0  0  0
    0.5916    3.6870    0.0445 H   0  0  0  0  0  0  0  0  0  0  0  0
    0.9803    2.8721    1.6180 H   0  0  0  0  0  0  0  0  0  0  0  0
    2.8779    4.1794   -0.3643 H   0  0  0  0  0  0  0  0  0  0  0  0
    3.0462    4.1323    1.3990 H   0  0  0  0  0  0  0  0  0  0  0  0
    3.9517    1.8814    1.3087 H   0  0  0  0  0  0  0  0  0  0  0  0
    4.4262    2.4225   -0.3425 H   0  0  0  0  0  0  0  0  0  0  0  0
   -0.4816   -1.3199    0.9906 H   0  0  0  0  0  0  0  0  0  0  0  0
   -0.1276   -3.6969    0.5676 H   0  0  0  0  0  0  0  0  0  0  0  0
   -2.0021   -5.1226   -0.2089 H   0  0  0  0  0  0  0  0  0  0  0  0
   -4.2320   -4.1440   -0.5414 H   0  0  0  0  0  0  0  0  0  0  0  0
   -7.3853   -0.0264    0.8495 H   0  0  0  0  0  0  0  0  0  0  0  0
   -7.5007    2.1294    2.0252 H   0  0  0  0  0  0  0  0  0  0  0  0
   -5.4170    3.3853    2.5086 H   0  0  0  0  0  0  0  0  0  0  0  0
   -3.2610    2.4902    1.8813 H   0  0  0  0  0  0  0  0  0  0  0  0
  1  2  2  0
  2  3  1  0
  3  4  1  0
  4  5  1  0
  5  6  2  0
  6  7  1  0
  7  8  2  0
  8  9  1  0
  9 10  2  0
 10 11  1  0
 11 12  2  0
  6 13  1  0
 13 14  1  0
 14 15  1  0
 15 16  1  0
 16 17  1  0
  2 18  1  0
 18 19  1  0
 19 20  2  0
 20 21  1  0
 21 22  2  0
 22 23  1  0
 23 24  2  0
 24 25  1  0
 25 26  1  0
 26 27  2  0
 27 28  1  0
 28 29  2  0
 29 30  1  0
 30 31  2  0
 14  4  2  0
 31 18  1  0
 12  7  1  0
 17 13  1  0
 24 19  1  0
 31 26  1  0
  3 32  1  0
  3 33  1  0
  5 34  1  0
  8 35  1  0
  9 36  1  0
 10 37  1  0
 11 38  1  0
 12 39  1  0
 15 40  1  0
 15 41  1  0
 16 42  1  0
 16 43  1  0
 17 44  1  0
 17 45  1  0
 20 46  1  0
 21 47  1  0
 22 48  1  0
 23 49  1  0
 27 50  1  0
 28 51  1  0
 29 52  1  0
 30 53  1  0
M  CHG  1   4   1
M  END
$$$$
