
     RDKit          3D

 47 50  0  0  0  0  0  0  0  0999 V2000
   -0.7550   -2.9165   -2.1619 C   0  0  0  0  0  0  0  0  0  0  0  0
   -0.5811   -1.4143   -1.8673 C   0  0  0  0  0  0  0  0  0  0  0  0
   -0.8544   -0.6396   -3.1727 C   0  0  0  0  0  0  0  0  0  0  0  0
   -1.6048   -0.9994   -0.7630 C   0  0  0  0  0  0  0  0  0  0  0  0
   -1.2294    0.3010   -0.1316 C   0  0  0  0  0  0  0  0  0  0  0  0
    0.0165    0.8923   -0.2509 C   0  0  0  0  0  0  0  0  0  0  0  0
   -0.1182    2.1333    0.3793 C   0  0  0  0  0  0  0  0  0  0  0  0
   -1.3336    2.3127    0.8894 N   0  0  0  0  0  0  0  0  0  0  0  0
   -2.0161    1.1591    0.6273 N   0  0  0  0  0  0  0  0  0  0  0  0
   -3.3449    1.0164    1.1393 C   0  0  0  0  0  0  0  0  0  0  0  0
   -3.9813    2.1485    1.6883 C   0  0  0  0  0  0  0  0  0  0  0  0
   -5.2781    2.0634    2.2016 C   0  0  0  0  0  0  0  0  0  0  0  0
   -5.9417    0.8464    2.1785 C   0  0  0  0  0  0  0  0  0  0  0  0
   -7.1837    0.7587    2.6714 F   0  0  0  0  0  0  0  0  0  0  0  0
   -5.3297   -0.2864    1.6579 C   0  0  0  0  0  0  0  0  0  0  0  0
   -4.0304   -0.2056    1.1416 C   0  0  0  0  0  0  0  0  0  0  0  0
    1.1644    0.3066   -0.9982 C   0  0  0  0  0  0  0  0  0  0  0  0
    2.3440    0.3995   -0.1689 N   0  0  0  0  0  0  0  0  0  0  0  0
    3.6176    0.3289   -0.6885 C   0  0  0  0  0  0  0  0  0  0  0  0
    3.8692    0.2942   -1.8868 O   0  0  0  0  0  0  0  0  0  0  0  0
    4.6982    0.2846    0.3353 C   0  0  0  0  0  0  0  0  0  0  0  0
    6.0280    0.2503   -0.0552 C   0  0  0  0  0  0  0  0  0  0  0  0
    7.0434    0.2067    0.8457 N   0  0  0  0  0  0  0  0  0  0  0  0
    6.6650    0.2000    2.1454 C   0  0  0  0  0  0  0  0  0  0  0  0
    5.3338    0.2328    2.5348 C   0  0  0  0  0  0  0  0  0  0  0  0
    4.3136    0.2738    1.6461 N   0  0  0  0  0  0  0  0  0  0  0  0
    0.8759   -1.1652   -1.3776 C   0  0  0  0  0  0  0  0  0  0  0  0
   -1.7755   -3.1385   -2.4935 H   0  0  0  0  0  0  0  0  0  0  0  0
   -0.5556   -3.5219   -1.2706 H   0  0  0  0  0  0  0  0  0  0  0  0
   -0.0675   -3.2475   -2.9484 H   0  0  0  0  0  0  0  0  0  0  0  0
   -0.1257   -0.9072   -3.9462 H   0  0  0  0  0  0  0  0  0  0  0  0
   -1.8519   -0.8708   -3.5639 H   0  0  0  0  0  0  0  0  0  0  0  0
   -0.8054    0.4447   -3.0331 H   0  0  0  0  0  0  0  0  0  0  0  0
   -2.6057   -0.9452   -1.2057 H   0  0  0  0  0  0  0  0  0  0  0  0
   -1.6139   -1.7671    0.0209 H   0  0  0  0  0  0  0  0  0  0  0  0
    0.6158    2.9234    0.4786 H   0  0  0  0  0  0  0  0  0  0  0  0
   -3.4786    3.1148    1.7146 H   0  0  0  0  0  0  0  0  0  0  0  0
   -5.7669    2.9385    2.6174 H   0  0  0  0  0  0  0  0  0  0  0  0
   -5.8640   -1.2317    1.6654 H   0  0  0  0  0  0  0  0  0  0  0  0
   -3.5878   -1.1269    0.7883 H   0  0  0  0  0  0  0  0  0  0  0  0
    1.3352    0.8888   -1.9121 H   0  0  0  0  0  0  0  0  0  0  0  0
    2.2623    0.3085    0.8410 H   0  0  0  0  0  0  0  0  0  0  0  0
    6.3189    0.2570   -1.1003 H   0  0  0  0  0  0  0  0  0  0  0  0
    7.4682    0.1673    2.8735 H   0  0  0  0  0  0  0  0  0  0  0  0
    5.0538    0.2268    3.5828 H   0  0  0  0  0  0  0  0  0  0  0  0
    1.0611   -1.8052   -0.5020 H   0  0  0  0  0  0  0  0  0  0  0  0
    1.5960   -1.4903   -2.1401 H   0  0  0  0  0  0  0  0  0  0  0  0
  1  2  1  0
  2  3  1  0
  2  4  1  0
  4  5  1  0
  5  6  2  0
  6  7  1  0
  7  8  2  0
  8  9  1  0
  9 10  1  0
 10 11  2  0
 11 12  1  0
 12 13  2  0
 13 14  1  0
 13 15  1  0
 15 16  2  0
  6 17  1  0
 17 18  1  0
 18 19  1  0
 19 20  2  0
 19 21  1  0
 21 22  2  0
 22 23  1  0
 23 24  2  0
 24 25  1  0
 25 26  2  0
 17 27  1  0
 27  2  1  0
  9  5  1  0
 16 10  1  0
 26 21  1  0
  1 28  1  0
  1 29  1  0
  1 30  1  0
  3 31  1  0
  3 32  1  0
  3 33  1  0
  4 34  1  0
  4 35  1  0
  7 36  1  0
 11 37  1  0
 12 38  1  0
 15 39  1  0
 16 40  1  0
 17 41  1  0
 18 42  1  0
 22 43  1  0
 24 44  1  0
 25 45  1  0
 27 46  1  0
 27 47  1  0
M  END
$$$$
