
     RDKit          3D

 41 44  0  0  0  0  0  0  0  0999 V2000
   -5.4368   -1.9080   -1.4380 C   0  0  0  0  0  0  0  0  0  0  0  0
   -5.5070   -0.5110   -0.8164 C   0  0  0  0  0  0  0  0  0  0  0  0
   -6.7422   -0.3729    0.0771 C   0  0  0  0  0  0  0  0  0  0  0  0
   -4.2326   -0.1709   -0.0640 C   0  0  0  0  0  0  0  0  0  0  0  0
   -3.8143   -0.9107    1.0512 C   0  0  0  0  0  0  0  0  0  0  0  0
   -2.6331   -0.5837    1.7238 C   0  0  0  0  0  0  0  0  0  0  0  0
   -1.8438    0.4849    1.2894 C   0  0  0  0  0  0  0  0  0  0  0  0
   -0.6284    0.8258    2.0326 C   0  0  0  0  0  0  0  0  0  0  0  0
    0.6303    0.7683    1.5720 C   0  0  0  0  0  0  0  0  0  0  0  0
    1.9987    1.2046    2.6014 S   0  0  0  0  0  0  0  0  0  0  0  0
    3.0733    0.8407    1.3196 C   0  0  0  0  0  0  0  0  0  0  0  0
    4.3639    0.8719    1.1565 N   0  0  0  0  0  0  0  0  0  0  0  0
    4.4963    0.4365   -0.1587 C   0  0  0  0  0  0  0  0  0  0  0  0
    5.8006    0.3071   -0.7990 C   0  0  0  0  0  0  0  0  0  0  0  0
    5.9123   -0.1336   -2.1201 C   0  0  0  0  0  0  0  0  0  0  0  0
    7.1753   -0.2375   -2.6768 C   0  0  0  0  0  0  0  0  0  0  0  0
    8.3133    0.0634   -2.0162 N   0  0  0  0  0  0  0  0  0  0  0  0
    8.1832    0.4869   -0.7415 C   0  0  0  0  0  0  0  0  0  0  0  0
    6.9659    0.6236   -0.0968 C   0  0  0  0  0  0  0  0  0  0  0  0
    3.3280    0.1517   -0.7751 N   0  0  0  0  0  0  0  0  0  0  0  0
    2.4471    0.4221    0.2047 N   0  0  0  0  0  0  0  0  0  0  0  0
    1.0707    0.3325    0.2037 C   0  0  0  0  0  0  0  0  0  0  0  0
    0.4296   -0.0341   -0.7620 O   0  0  0  0  0  0  0  0  0  0  0  0
   -2.2600    1.2350    0.1867 C   0  0  0  0  0  0  0  0  0  0  0  0
   -3.4407    0.9063   -0.4863 C   0  0  0  0  0  0  0  0  0  0  0  0
   -4.5598   -2.0037   -2.0879 H   0  0  0  0  0  0  0  0  0  0  0  0
   -6.3270   -2.1041   -2.0454 H   0  0  0  0  0  0  0  0  0  0  0  0
   -5.3749   -2.6930   -0.6763 H   0  0  0  0  0  0  0  0  0  0  0  0
   -5.6261    0.2032   -1.6421 H   0  0  0  0  0  0  0  0  0  0  0  0
   -7.6567   -0.5390   -0.5025 H   0  0  0  0  0  0  0  0  0  0  0  0
   -6.7995    0.6306    0.5134 H   0  0  0  0  0  0  0  0  0  0  0  0
   -6.7353   -1.0950    0.9008 H   0  0  0  0  0  0  0  0  0  0  0  0
   -4.4038   -1.7528    1.4064 H   0  0  0  0  0  0  0  0  0  0  0  0
   -2.3373   -1.1775    2.5856 H   0  0  0  0  0  0  0  0  0  0  0  0
   -0.8187    1.1332    3.0600 H   0  0  0  0  0  0  0  0  0  0  0  0
    5.0377   -0.3923   -2.7086 H   0  0  0  0  0  0  0  0  0  0  0  0
    7.3089   -0.5758   -3.7005 H   0  0  0  0  0  0  0  0  0  0  0  0
    9.1145    0.7217   -0.2340 H   0  0  0  0  0  0  0  0  0  0  0  0
    6.9326    0.9700    0.9312 H   0  0  0  0  0  0  0  0  0  0  0  0
   -1.6711    2.0765   -0.1694 H   0  0  0  0  0  0  0  0  0  0  0  0
   -3.7334    1.4994   -1.3502 H   0  0  0  0  0  0  0  0  0  0  0  0
  1  2  1  0
  2  3  1  0
  2  4  1  0
  4  5  2  0
  5  6  1  0
  6  7  2  0
  7  8  1  0
  8  9  2  3
  9 10  1  0
 10 11  1  0
 11 12  2  0
 12 13  1  0
 13 14  1  0
 14 15  2  0
 15 16  1  0
 16 17  2  0
 17 18  1  0
 18 19  2  0
 13 20  2  0
 20 21  1  0
 21 22  1  0
 22 23  2  0
  7 24  1  0
 24 25  2  0
 25  4  1  0
 22  9  1  0
 21 11  1  0
 19 14  1  0
  1 26  1  0
  1 27  1  0
  1 28  1  0
  2 29  1  0
  3 30  1  0
  3 31  1  0
  3 32  1  0
  5 33  1  0
  6 34  1  0
  8 35  1  0
 15 36  1  0
 16 37  1  0
 18 38  1  0
 19 39  1  0
 24 40  1  0
 25 41  1  0
M  END
$$$$
