
     RDKit          3D

 37 37  0  0  0  0  0  0  0  0999 V2000
    4.9921   -0.5612    0.4298 C   0  0  0  0  0  0  0  0  0  0  0  0
    3.7477   -0.3688    1.2825 C   0  0  0  0  0  0  0  0  0  0  0  0
    3.0726    0.9897    1.0794 C   0  0  0  0  0  0  0  0  0  0  0  0
    2.5776    1.2760   -0.3418 C   0  0  0  0  0  0  0  0  0  0  0  0
    1.5863    0.2587   -0.9159 C   0  0  0  0  0  0  0  0  0  0  0  0
    0.3191    0.0207   -0.0876 C   0  0  0  0  0  0  0  0  0  0  0  0
   -0.5415    1.2764    0.0808 C   0  0  0  0  0  0  0  0  0  0  0  0
   -1.8094    1.0296    0.9061 C   0  0  0  0  0  0  0  0  0  0  0  0
   -2.7673    0.1582    0.2045 N   0  0  0  0  0  0  0  0  0  0  0  0
   -3.5596    0.6494   -0.8268 C   0  0  0  0  0  0  0  0  0  0  0  0
   -4.4529   -0.0784   -1.5083 C   0  0  0  0  0  0  0  0  0  0  0  0
   -4.6173   -1.5067   -1.1438 C   0  0  0  0  0  0  0  0  0  0  0  0
   -5.4696   -2.2411   -1.7824 N   0  0  0  0  0  0  0  0  0  0  0  0
   -3.7720   -2.0257   -0.0361 C   0  0  0  0  0  0  0  0  0  0  0  0
   -2.9202   -1.1776    0.5553 C   0  0  0  0  0  0  0  0  0  0  0  0
    5.4825   -1.5051    0.6889 H   0  0  0  0  0  0  0  0  0  0  0  0
    5.7097    0.2490    0.5933 H   0  0  0  0  0  0  0  0  0  0  0  0
    4.7468   -0.5973   -0.6356 H   0  0  0  0  0  0  0  0  0  0  0  0
    3.0405   -1.1817    1.0859 H   0  0  0  0  0  0  0  0  0  0  0  0
    4.0331   -0.4563    2.3379 H   0  0  0  0  0  0  0  0  0  0  0  0
    2.2342    1.0726    1.7811 H   0  0  0  0  0  0  0  0  0  0  0  0
    3.7790    1.7806    1.3622 H   0  0  0  0  0  0  0  0  0  0  0  0
    2.1229    2.2737   -0.3559 H   0  0  0  0  0  0  0  0  0  0  0  0
    3.4380    1.3401   -1.0190 H   0  0  0  0  0  0  0  0  0  0  0  0
    1.2943    0.5924   -1.9197 H   0  0  0  0  0  0  0  0  0  0  0  0
    2.0952   -0.7023   -1.0565 H   0  0  0  0  0  0  0  0  0  0  0  0
   -0.2641   -0.7551   -0.5973 H   0  0  0  0  0  0  0  0  0  0  0  0
    0.5813   -0.3858    0.8956 H   0  0  0  0  0  0  0  0  0  0  0  0
    0.0397    2.0505    0.5943 H   0  0  0  0  0  0  0  0  0  0  0  0
   -0.8032    1.6769   -0.9059 H   0  0  0  0  0  0  0  0  0  0  0  0
   -2.2916    1.9931    1.1162 H   0  0  0  0  0  0  0  0  0  0  0  0
   -1.5420    0.6077    1.8833 H   0  0  0  0  0  0  0  0  0  0  0  0
   -3.4087    1.6994   -1.0601 H   0  0  0  0  0  0  0  0  0  0  0  0
   -5.0611    0.3184   -2.3087 H   0  0  0  0  0  0  0  0  0  0  0  0
   -5.4671   -3.1972   -1.4170 H   0  0  0  0  0  0  0  0  0  0  0  0
   -3.8637   -3.0601    0.2604 H   0  0  0  0  0  0  0  0  0  0  0  0
   -2.2811   -1.5129    1.3671 H   0  0  0  0  0  0  0  0  0  0  0  0
  1  2  1  0
  2  3  1  0
  3  4  1  0
  4  5  1  0
  5  6  1  0
  6  7  1  0
  7  8  1  0
  8  9  1  0
  9 10  1  0
 10 11  2  0
 11 12  1  0
 12 13  2  3
 12 14  1  0
 14 15  2  0
 15  9  1  0
  1 16  1  0
  1 17  1  0
  1 18  1  0
  2 19  1  0
  2 20  1  0
  3 21  1  0
  3 22  1  0
  4 23  1  0
  4 24  1  0
  5 25  1  0
  5 26  1  0
  6 27  1  0
  6 28  1  0
  7 29  1  0
  7 30  1  0
  8 31  1  0
  8 32  1  0
 10 33  1  0
 11 34  1  0
 13 35  1  0
 14 36  1  0
 15 37  1  0
M  END
$$$$
