
     RDKit          3D

 48 50  0  0  0  0  0  0  0  0999 V2000
    8.4194   -0.9506    1.3572 C   0  0  0  0  0  0  0  0  0  0  0  0
    6.9204   -0.7695    1.1986 C   0  0  0  0  0  0  0  0  0  0  0  0
    6.5091   -0.7238   -0.2687 C   0  0  0  0  0  0  0  0  0  0  0  0
    5.0816   -0.6057   -0.3747 O   0  0  0  0  0  0  0  0  0  0  0  0
    4.5900    0.6576   -0.3458 C   0  0  0  0  0  0  0  0  0  0  0  0
    5.2454    1.6816   -0.2338 O   0  0  0  0  0  0  0  0  0  0  0  0
    3.1067    0.6458   -0.4663 C   0  0  0  0  0  0  0  0  0  0  0  0
    2.4316    1.8713   -0.4613 C   0  0  0  0  0  0  0  0  0  0  0  0
    1.0372    1.9109   -0.5713 C   0  0  0  0  0  0  0  0  0  0  0  0
    0.2946    0.7292   -0.6888 C   0  0  0  0  0  0  0  0  0  0  0  0
   -1.1054    0.8583   -0.7905 N   0  0  0  0  0  0  0  0  0  0  0  0
   -2.0392   -0.1538   -0.9469 C   0  0  0  0  0  0  0  0  0  0  0  0
   -1.7972   -1.3493   -1.0643 O   0  0  0  0  0  0  0  0  0  0  0  0
   -3.4658    0.3858   -0.9786 C   0  0  0  0  0  0  0  0  0  0  0  0
   -3.9008    1.0750    0.3384 C   0  0  0  0  0  0  0  0  0  0  0  0
   -3.7534    0.1215    1.5395 C   0  0  0  0  0  0  0  0  0  0  0  0
   -4.8712   -0.9050    1.3095 C   0  0  0  0  0  0  0  0  0  0  0  0
   -5.5238   -0.4152    0.0054 C   0  0  0  0  0  0  0  0  0  0  0  0
   -5.4190    1.1032    0.1636 C   0  0  0  0  0  0  0  0  0  0  0  0
   -4.5505   -0.7073   -1.1632 C   0  0  0  0  0  0  0  0  0  0  0  0
   -5.2417   -0.6020   -2.5026 C   0  0  0  0  0  0  0  0  0  0  0  0
   -4.9633    0.1510   -3.4203 O   0  0  0  0  0  0  0  0  0  0  0  0
   -6.2473   -1.4890   -2.6348 O   0  0  0  0  0  0  0  0  0  0  0  0
    0.9707   -0.4922   -0.6914 C   0  0  0  0  0  0  0  0  0  0  0  0
    2.3674   -0.5363   -0.5816 C   0  0  0  0  0  0  0  0  0  0  0  0
    8.9653   -0.1229    0.8934 H   0  0  0  0  0  0  0  0  0  0  0  0
    8.7529   -1.8849    0.8945 H   0  0  0  0  0  0  0  0  0  0  0  0
    8.6876   -0.9824    2.4178 H   0  0  0  0  0  0  0  0  0  0  0  0
    6.6052    0.1498    1.7055 H   0  0  0  0  0  0  0  0  0  0  0  0
    6.3909   -1.5872    1.7020 H   0  0  0  0  0  0  0  0  0  0  0  0
    6.7863   -1.6599   -0.7658 H   0  0  0  0  0  0  0  0  0  0  0  0
    7.0136    0.0862   -0.8091 H   0  0  0  0  0  0  0  0  0  0  0  0
    2.9878    2.8030   -0.3722 H   0  0  0  0  0  0  0  0  0  0  0  0
    0.5464    2.8810   -0.5647 H   0  0  0  0  0  0  0  0  0  0  0  0
   -1.4623    1.8057   -0.7760 H   0  0  0  0  0  0  0  0  0  0  0  0
   -3.5045    1.1237   -1.7906 H   0  0  0  0  0  0  0  0  0  0  0  0
   -3.4379    2.0509    0.5015 H   0  0  0  0  0  0  0  0  0  0  0  0
   -2.7682   -0.3485    1.6053 H   0  0  0  0  0  0  0  0  0  0  0  0
   -3.9292    0.6583    2.4791 H   0  0  0  0  0  0  0  0  0  0  0  0
   -4.4845   -1.9260    1.2311 H   0  0  0  0  0  0  0  0  0  0  0  0
   -5.5867   -0.8746    2.1390 H   0  0  0  0  0  0  0  0  0  0  0  0
   -6.5407   -0.7879   -0.1358 H   0  0  0  0  0  0  0  0  0  0  0  0
   -5.7444    1.6576   -0.7227 H   0  0  0  0  0  0  0  0  0  0  0  0
   -5.9482    1.4822    1.0446 H   0  0  0  0  0  0  0  0  0  0  0  0
   -4.1496   -1.7249   -1.0999 H   0  0  0  0  0  0  0  0  0  0  0  0
   -6.5762   -1.3468   -3.5471 H   0  0  0  0  0  0  0  0  0  0  0  0
    0.4427   -1.4373   -0.7764 H   0  0  0  0  0  0  0  0  0  0  0  0
    2.8586   -1.5066   -0.5882 H   0  0  0  0  0  0  0  0  0  0  0  0
  1  2  1  0
  2  3  1  0
  3  4  1  0
  4  5  1  0
  5  6  2  0
  5  7  1  0
  7  8  2  0
  8  9  1  0
  9 10  2  0
 10 11  1  0
 11 12  1  0
 12 13  2  0
 12 14  1  0
 14 15  1  0
 15 16  1  0
 16 17  1  0
 17 18  1  0
 18 19  1  0
 18 20  1  0
 20 21  1  0
 21 22  2  0
 21 23  1  0
 10 24  1  0
 24 25  2  0
 25  7  1  0
 20 14  1  0
 19 15  1  0
  1 26  1  0
  1 27  1  0
  1 28  1  0
  2 29  1  0
  2 30  1  0
  3 31  1  0
  3 32  1  0
  8 33  1  0
  9 34  1  0
 11 35  1  0
 14 36  1  0
 15 37  1  0
 16 38  1  0
 16 39  1  0
 17 40  1  0
 17 41  1  0
 18 42  1  0
 19 43  1  0
 19 44  1  0
 20 45  1  0
 23 46  1  0
 24 47  1  0
 25 48  1  0
M  END
$$$$
