
     RDKit          3D

 48 51  0  0  0  0  0  0  0  0999 V2000
    0.4610   -3.2116   -1.7972 C   0  0  0  0  0  0  0  0  0  0  0  0
    1.5079   -2.4291   -1.0156 C   0  0  0  0  0  0  0  0  0  0  0  0
    1.6855   -1.1703   -1.6712 O   0  0  0  0  0  0  0  0  0  0  0  0
    2.8288   -0.5402   -1.2379 C   0  0  0  0  0  0  0  0  0  0  0  0
    3.9319   -0.6340   -2.1002 C   0  0  0  0  0  0  0  0  0  0  0  0
    5.1404   -0.0297   -1.7662 C   0  0  0  0  0  0  0  0  0  0  0  0
    5.2478    0.6795   -0.5753 C   0  0  0  0  0  0  0  0  0  0  0  0
    4.1388    0.7925    0.2722 C   0  0  0  0  0  0  0  0  0  0  0  0
    2.8932    0.2015   -0.0412 C   0  0  0  0  0  0  0  0  0  0  0  0
    1.7470    0.4022    0.8629 C   0  0  0  0  0  0  0  0  0  0  0  0
    2.0199    0.5175    2.1873 N   0  0  0  0  0  0  0  0  0  0  0  0
    0.9582    0.7278    3.0041 C   0  0  0  0  0  0  0  0  0  0  0  0
    1.2421    0.8307    4.4647 C   0  0  0  0  0  0  0  0  0  0  0  0
    2.5581    0.7066    4.8257 N   0  0  0  0  0  0  0  0  0  0  0  0
    0.3601    1.0049    5.2950 O   0  0  0  0  0  0  0  0  0  0  0  0
   -0.3152    0.8228    2.5246 C   0  0  0  0  0  0  0  0  0  0  0  0
   -1.5378    1.0203    3.1435 N   0  0  0  0  0  0  0  0  0  0  0  0
   -2.5422    1.0102    2.1671 C   0  0  0  0  0  0  0  0  0  0  0  0
   -3.7237    1.1633    2.4335 O   0  0  0  0  0  0  0  0  0  0  0  0
   -1.8882    0.7992    0.9124 N   0  0  0  0  0  0  0  0  0  0  0  0
   -2.5004    0.6878   -0.3665 C   0  0  0  0  0  0  0  0  0  0  0  0
   -1.7691    0.5612   -1.5588 C   0  0  0  0  0  0  0  0  0  0  0  0
   -2.4009    0.4559   -2.8040 C   0  0  0  0  0  0  0  0  0  0  0  0
   -3.7884    0.4713   -2.8929 C   0  0  0  0  0  0  0  0  0  0  0  0
   -4.5524    0.5784   -1.7314 C   0  0  0  0  0  0  0  0  0  0  0  0
   -6.0520    0.6184   -1.8043 C   0  0  0  0  0  0  0  0  0  0  0  0
   -3.9018    0.6993   -0.4879 C   0  0  0  0  0  0  0  0  0  0  0  0
   -0.4963    0.6921    1.1692 C   0  0  0  0  0  0  0  0  0  0  0  0
    0.5137    0.4833    0.3212 N   0  0  0  0  0  0  0  0  0  0  0  0
    0.7980   -3.3793   -2.8299 H   0  0  0  0  0  0  0  0  0  0  0  0
   -0.4840   -2.6537   -1.8510 H   0  0  0  0  0  0  0  0  0  0  0  0
    0.2727   -4.1790   -1.3188 H   0  0  0  0  0  0  0  0  0  0  0  0
    1.1478   -2.2781    0.0100 H   0  0  0  0  0  0  0  0  0  0  0  0
    2.4505   -3.0021   -0.9870 H   0  0  0  0  0  0  0  0  0  0  0  0
    3.8401   -1.1850   -3.0335 H   0  0  0  0  0  0  0  0  0  0  0  0
    5.9927   -0.1075   -2.4357 H   0  0  0  0  0  0  0  0  0  0  0  0
    6.1877    1.1596   -0.3091 H   0  0  0  0  0  0  0  0  0  0  0  0
    4.2481    1.3774    1.1852 H   0  0  0  0  0  0  0  0  0  0  0  0
    2.8068    0.7153    5.8065 H   0  0  0  0  0  0  0  0  0  0  0  0
    3.2629    0.5058    4.1230 H   0  0  0  0  0  0  0  0  0  0  0  0
   -1.6894    1.1415    4.1397 H   0  0  0  0  0  0  0  0  0  0  0  0
   -0.6863    0.5487   -1.5779 H   0  0  0  0  0  0  0  0  0  0  0  0
   -1.7982    0.3668   -3.7058 H   0  0  0  0  0  0  0  0  0  0  0  0
   -4.2664    0.3960   -3.8679 H   0  0  0  0  0  0  0  0  0  0  0  0
   -6.4981    0.1487   -0.9207 H   0  0  0  0  0  0  0  0  0  0  0  0
   -6.4167    0.0678   -2.6793 H   0  0  0  0  0  0  0  0  0  0  0  0
   -6.3959    1.6524   -1.8698 H   0  0  0  0  0  0  0  0  0  0  0  0
   -4.5382    0.7926    0.3889 H   0  0  0  0  0  0  0  0  0  0  0  0
  1  2  1  0
  2  3  1  0
  3  4  1  0
  4  5  2  0
  5  6  1  0
  6  7  2  0
  7  8  1  0
  8  9  2  0
  9 10  1  0
 10 11  2  0
 11 12  1  0
 12 13  1  0
 13 14  1  0
 13 15  2  0
 12 16  2  0
 16 17  1  0
 17 18  1  0
 18 19  2  0
 18 20  1  0
 20 21  1  0
 21 22  2  0
 22 23  1  0
 23 24  2  0
 24 25  1  0
 25 26  1  0
 25 27  2  0
 20 28  1  0
 28 29  2  0
  9  4  1  0
 29 10  1  0
 28 16  1  0
 27 21  1  0
  1 30  1  0
  1 31  1  0
  1 32  1  0
  2 33  1  0
  2 34  1  0
  5 35  1  0
  6 36  1  0
  7 37  1  0
  8 38  1  0
 14 39  1  0
 14 40  1  0
 17 41  1  0
 22 42  1  0
 23 43  1  0
 24 44  1  0
 26 45  1  0
 26 46  1  0
 26 47  1  0
 27 48  1  0
M  END
$$$$
