
     RDKit          3D

 71 75  0  0  0  0  0  0  0  0999 V2000
   -5.0278    5.2075   -0.8365 C   0  0  0  0  0  0  0  0  0  0  0  0
   -4.0040    4.4527   -1.4713 O   0  0  0  0  0  0  0  0  0  0  0  0
   -3.3122    3.5702   -0.6887 C   0  0  0  0  0  0  0  0  0  0  0  0
   -2.3805    2.7887   -1.3730 C   0  0  0  0  0  0  0  0  0  0  0  0
   -1.6029    1.8449   -0.6965 C   0  0  0  0  0  0  0  0  0  0  0  0
   -1.7376    1.6709    0.6874 C   0  0  0  0  0  0  0  0  0  0  0  0
   -0.9162    0.6419    1.4606 C   0  0  0  0  0  0  0  0  0  0  0  0
   -1.6300   -0.7277    1.6422 C   0  0  0  0  0  0  0  0  0  0  0  0
   -2.5606   -1.1801    0.5046 C   0  0  0  0  0  0  0  0  0  0  0  0
   -2.9659   -2.5891    0.6610 N   0  0  0  0  0  0  0  0  0  0  0  0
   -3.9271   -2.7844    1.7654 C   0  0  0  0  0  0  0  0  0  0  0  0
   -4.3954   -4.2473    1.8477 C   0  0  0  0  0  0  0  0  0  0  0  0
   -4.9958   -4.6738    0.6182 O   0  0  0  0  0  0  0  0  0  0  0  0
   -4.0529   -4.5367   -0.4545 C   0  0  0  0  0  0  0  0  0  0  0  0
   -3.5786   -3.0824   -0.5933 C   0  0  0  0  0  0  0  0  0  0  0  0
    0.5747    0.6297    1.0879 C   0  0  0  0  0  0  0  0  0  0  0  0
    1.4202    1.6089    1.6422 C   0  0  0  0  0  0  0  0  0  0  0  0
    0.9033    2.5287    2.5221 O   0  0  0  0  0  0  0  0  0  0  0  0
    0.9476    3.8481    1.9752 C   0  0  0  0  0  0  0  0  0  0  0  0
    2.7917    1.6196    1.3860 C   0  0  0  0  0  0  0  0  0  0  0  0
    3.3515    0.6915    0.5051 C   0  0  0  0  0  0  0  0  0  0  0  0
    4.7088    0.6890    0.3114 O   0  0  0  0  0  0  0  0  0  0  0  0
    5.2036    1.9285   -0.1929 C   0  0  0  0  0  0  0  0  0  0  0  0
    2.5506   -0.2873   -0.1086 C   0  0  0  0  0  0  0  0  0  0  0  0
    3.0673   -1.3008   -1.0601 C   0  0  0  0  0  0  0  0  0  0  0  0
    4.4642   -1.4768   -1.5091 C   0  0  0  0  0  0  0  0  0  0  0  0
    5.3546   -2.2579   -0.7614 C   0  0  0  0  0  0  0  0  0  0  0  0
    6.6671   -2.4414   -1.2001 C   0  0  0  0  0  0  0  0  0  0  0  0
    7.0959   -1.8508   -2.3887 C   0  0  0  0  0  0  0  0  0  0  0  0
    6.2152   -1.0736   -3.1395 C   0  0  0  0  0  0  0  0  0  0  0  0
    4.9023   -0.8872   -2.7032 C   0  0  0  0  0  0  0  0  0  0  0  0
    2.2060   -2.1703   -1.6113 C   0  0  0  0  0  0  0  0  0  0  0  0
    0.7702   -2.1675   -1.3354 C   0  0  0  0  0  0  0  0  0  0  0  0
    0.0168   -2.9501   -1.9015 O   0  0  0  0  0  0  0  0  0  0  0  0
    0.3263   -1.2275   -0.4274 O   0  0  0  0  0  0  0  0  0  0  0  0
    1.1746   -0.2864    0.1974 C   0  0  0  0  0  0  0  0  0  0  0  0
   -2.6805    2.4588    1.3671 C   0  0  0  0  0  0  0  0  0  0  0  0
   -3.4595    3.4020    0.6866 C   0  0  0  0  0  0  0  0  0  0  0  0
   -5.7958    4.5535   -0.4105 H   0  0  0  0  0  0  0  0  0  0  0  0
   -5.5061    5.8296   -1.5991 H   0  0  0  0  0  0  0  0  0  0  0  0
   -4.6103    5.8758   -0.0763 H   0  0  0  0  0  0  0  0  0  0  0  0
   -2.2622    2.9110   -2.4471 H   0  0  0  0  0  0  0  0  0  0  0  0
   -0.8990    1.2465   -1.2692 H   0  0  0  0  0  0  0  0  0  0  0  0
   -0.8997    1.0087    2.4993 H   0  0  0  0  0  0  0  0  0  0  0  0
   -2.2513   -0.6426    2.5454 H   0  0  0  0  0  0  0  0  0  0  0  0
   -0.8912   -1.5057    1.8734 H   0  0  0  0  0  0  0  0  0  0  0  0
   -3.4476   -0.5354    0.4581 H   0  0  0  0  0  0  0  0  0  0  0  0
   -2.0452   -1.0662   -0.4527 H   0  0  0  0  0  0  0  0  0  0  0  0
   -4.8028   -2.1396    1.6180 H   0  0  0  0  0  0  0  0  0  0  0  0
   -3.4689   -2.5224    2.7242 H   0  0  0  0  0  0  0  0  0  0  0  0
   -3.5630   -4.9170    2.0958 H   0  0  0  0  0  0  0  0  0  0  0  0
   -5.1487   -4.3499    2.6353 H   0  0  0  0  0  0  0  0  0  0  0  0
   -4.5534   -4.8527   -1.3754 H   0  0  0  0  0  0  0  0  0  0  0  0
   -3.2093   -5.2164   -0.2843 H   0  0  0  0  0  0  0  0  0  0  0  0
   -2.8522   -3.0297   -1.4122 H   0  0  0  0  0  0  0  0  0  0  0  0
   -4.4371   -2.4518   -0.8600 H   0  0  0  0  0  0  0  0  0  0  0  0
    0.2736    4.4763    2.5652 H   0  0  0  0  0  0  0  0  0  0  0  0
    0.6086    3.8718    0.9332 H   0  0  0  0  0  0  0  0  0  0  0  0
    1.9564    4.2653    2.0566 H   0  0  0  0  0  0  0  0  0  0  0  0
    3.4250    2.3327    1.9047 H   0  0  0  0  0  0  0  0  0  0  0  0
    4.5573    2.3370   -0.9781 H   0  0  0  0  0  0  0  0  0  0  0  0
    5.3299    2.6531    0.6177 H   0  0  0  0  0  0  0  0  0  0  0  0
    6.1889    1.7410   -0.6300 H   0  0  0  0  0  0  0  0  0  0  0  0
    5.0332   -2.7177    0.1705 H   0  0  0  0  0  0  0  0  0  0  0  0
    7.3547   -3.0450   -0.6138 H   0  0  0  0  0  0  0  0  0  0  0  0
    8.1180   -1.9962   -2.7288 H   0  0  0  0  0  0  0  0  0  0  0  0
    6.5504   -0.6153   -4.0667 H   0  0  0  0  0  0  0  0  0  0  0  0
    4.2244   -0.2792   -3.2968 H   0  0  0  0  0  0  0  0  0  0  0  0
    2.5217   -2.9341   -2.3151 H   0  0  0  0  0  0  0  0  0  0  0  0
   -2.8146    2.3449    2.4413 H   0  0  0  0  0  0  0  0  0  0  0  0
   -4.1688    3.9870    1.2622 H   0  0  0  0  0  0  0  0  0  0  0  0
  1  2  1  0
  2  3  1  0
  3  4  2  0
  4  5  1  0
  5  6  2  0
  6  7  1  0
  7  8  1  0
  8  9  1  0
  9 10  1  0
 10 11  1  0
 11 12  1  0
 12 13  1  0
 13 14  1  0
 14 15  1  0
  7 16  1  0
 16 17  2  0
 17 18  1  0
 18 19  1  0
 17 20  1  0
 20 21  2  0
 21 22  1  0
 22 23  1  0
 21 24  1  0
 24 25  1  0
 25 26  1  0
 26 27  2  0
 27 28  1  0
 28 29  2  0
 29 30  1  0
 30 31  2  0
 25 32  2  0
 32 33  1  0
 33 34  2  0
 33 35  1  0
 35 36  1  0
  6 37  1  0
 37 38  2  0
 38  3  1  0
 15 10  1  0
 36 16  1  0
 36 24  2  0
 31 26  1  0
  1 39  1  0
  1 40  1  0
  1 41  1  0
  4 42  1  0
  5 43  1  0
  7 44  1  0
  8 45  1  0
  8 46  1  0
  9 47  1  0
  9 48  1  0
 11 49  1  0
 11 50  1  0
 12 51  1  0
 12 52  1  0
 14 53  1  0
 14 54  1  0
 15 55  1  0
 15 56  1  0
 19 57  1  0
 19 58  1  0
 19 59  1  0
 20 60  1  0
 23 61  1  0
 23 62  1  0
 23 63  1  0
 27 64  1  0
 28 65  1  0
 29 66  1  0
 30 67  1  0
 31 68  1  0
 32 69  1  0
 37 70  1  0
 38 71  1  0
M  END
$$$$
