
     RDKit          3D

 38 40  0  0  0  0  0  0  0  0999 V2000
    0.5014    1.4430   -1.8670 N   0  0  0  0  0  0  0  0  0  0  0  0
    0.7876    0.7833   -0.9561 C   0  0  0  0  0  0  0  0  0  0  0  0
    1.0245   -0.0238    0.1889 C   0  0  0  0  0  0  0  0  0  0  0  0
    2.2642   -0.3811    0.5813 C   0  0  0  0  0  0  0  0  0  0  0  0
    3.5124   -0.0050   -0.0937 C   0  0  0  0  0  0  0  0  0  0  0  0
    3.9403    1.3320   -0.1438 C   0  0  0  0  0  0  0  0  0  0  0  0
    5.1347    1.6739   -0.7875 C   0  0  0  0  0  0  0  0  0  0  0  0
    5.8994    0.6723   -1.3713 C   0  0  0  0  0  0  0  0  0  0  0  0
    7.0748    0.9411   -2.0153 O   0  0  0  0  0  0  0  0  0  0  0  0
    5.4829   -0.6550   -1.3119 C   0  0  0  0  0  0  0  0  0  0  0  0
    6.2434   -1.6340   -1.8848 O   0  0  0  0  0  0  0  0  0  0  0  0
    4.2991   -1.0044   -0.6763 C   0  0  0  0  0  0  0  0  0  0  0  0
   -0.1370   -0.5236    1.0134 C   0  0  0  0  0  0  0  0  0  0  0  0
    0.0805   -1.1639    2.0381 O   0  0  0  0  0  0  0  0  0  0  0  0
   -1.3904   -0.1977    0.5171 N   0  0  0  0  0  0  0  0  0  0  0  0
   -2.6662   -0.5176    1.0660 C   0  0  0  0  0  0  0  0  0  0  0  0
   -2.7923   -1.2494    2.2514 C   0  0  0  0  0  0  0  0  0  0  0  0
   -4.0473   -1.5509    2.7691 C   0  0  0  0  0  0  0  0  0  0  0  0
   -5.1913   -1.1224    2.1054 C   0  0  0  0  0  0  0  0  0  0  0  0
   -5.1211   -0.3957    0.9307 C   0  0  0  0  0  0  0  0  0  0  0  0
   -6.2865   -0.0296    0.3693 N   0  0  0  0  0  0  0  0  0  0  0  0
   -6.2540    0.6791   -0.7754 C   0  0  0  0  0  0  0  0  0  0  0  0
   -5.0879    1.0511   -1.4038 C   0  0  0  0  0  0  0  0  0  0  0  0
   -3.8827    0.6708   -0.8198 C   0  0  0  0  0  0  0  0  0  0  0  0
   -3.8521   -0.0774    0.3854 C   0  0  0  0  0  0  0  0  0  0  0  0
    2.4067   -1.0236    1.4501 H   0  0  0  0  0  0  0  0  0  0  0  0
    3.3513    2.1199    0.3218 H   0  0  0  0  0  0  0  0  0  0  0  0
    5.4445    2.7136   -0.8179 H   0  0  0  0  0  0  0  0  0  0  0  0
    7.2243    1.9020   -1.9873 H   0  0  0  0  0  0  0  0  0  0  0  0
    7.0105   -1.1598   -2.2638 H   0  0  0  0  0  0  0  0  0  0  0  0
    4.0007   -2.0488   -0.6451 H   0  0  0  0  0  0  0  0  0  0  0  0
   -1.4272    0.3285   -0.3433 H   0  0  0  0  0  0  0  0  0  0  0  0
   -1.9332   -1.6079    2.8080 H   0  0  0  0  0  0  0  0  0  0  0  0
   -4.1338   -2.1208    3.6908 H   0  0  0  0  0  0  0  0  0  0  0  0
   -6.1688   -1.3631    2.5179 H   0  0  0  0  0  0  0  0  0  0  0  0
   -7.2244    0.9465   -1.1834 H   0  0  0  0  0  0  0  0  0  0  0  0
   -5.1105    1.6225   -2.3250 H   0  0  0  0  0  0  0  0  0  0  0  0
   -2.9765    0.9757   -1.3324 H   0  0  0  0  0  0  0  0  0  0  0  0
  1  2  3  0
  2  3  1  0
  3  4  2  3
  4  5  1  0
  5  6  2  0
  6  7  1  0
  7  8  2  0
  8  9  1  0
  8 10  1  0
 10 11  1  0
 10 12  2  0
  3 13  1  0
 13 14  2  0
 13 15  1  0
 15 16  1  0
 16 17  2  0
 17 18  1  0
 18 19  2  0
 19 20  1  0
 20 21  2  0
 21 22  1  0
 22 23  2  0
 23 24  1  0
 24 25  2  0
 12  5  1  0
 25 16  1  0
 25 20  1  0
  4 26  1  0
  6 27  1  0
  7 28  1  0
  9 29  1  0
 11 30  1  0
 12 31  1  0
 15 32  1  0
 17 33  1  0
 18 34  1  0
 19 35  1  0
 22 36  1  0
 23 37  1  0
 24 38  1  0
M  END
$$$$
