
     RDKit          3D

 46 48  0  0  0  0  0  0  0  0999 V2000
   -4.8517   -3.4663    0.5620 C   0  0  0  0  0  0  0  0  0  0  0  0
   -4.6825   -2.0778    1.1628 C   0  0  0  0  0  0  0  0  0  0  0  0
   -5.3619   -1.0206    0.2941 C   0  0  0  0  0  0  0  0  0  0  0  0
   -5.1624    0.6575    0.9889 S   0  0  0  0  0  0  0  0  0  0  0  0
   -3.5287    1.1135    0.4116 C   0  0  0  0  0  0  0  0  0  0  0  0
   -2.8452    0.1756   -0.2878 N   0  0  0  0  0  0  0  0  0  0  0  0
   -1.5966    0.4617   -0.7520 C   0  0  0  0  0  0  0  0  0  0  0  0
   -0.9287   -0.6548   -1.5046 C   0  0  0  0  0  0  0  0  0  0  0  0
   -0.9863    1.7021   -0.5439 C   0  0  0  0  0  0  0  0  0  0  0  0
    0.3484    2.0121   -1.0342 C   0  0  0  0  0  0  0  0  0  0  0  0
    0.6808    3.1958   -1.6570 C   0  0  0  0  0  0  0  0  0  0  0  0
    2.3393    3.1913   -2.0718 S   0  0  0  0  0  0  0  0  0  0  0  0
    2.5191    1.5940   -1.4015 C   0  0  0  0  0  0  0  0  0  0  0  0
    3.7964    0.9336   -1.4191 C   0  0  0  0  0  0  0  0  0  0  0  0
    4.6942    1.1599   -2.5112 C   0  0  0  0  0  0  0  0  0  0  0  0
    5.4312    1.3401   -3.3898 N   0  0  0  0  0  0  0  0  0  0  0  0
    4.1481    0.0850   -0.4238 C   0  0  0  0  0  0  0  0  0  0  0  0
    5.4584   -0.6741   -0.3655 C   0  0  0  0  0  0  0  0  0  0  0  0
    5.2618   -1.6627    0.7759 C   0  0  0  0  0  0  0  0  0  0  0  0
    4.3397   -0.9294    1.7325 C   0  0  0  0  0  0  0  0  0  0  0  0
    3.3384   -0.2427    0.8118 C   0  0  0  0  0  0  0  0  0  0  0  0
    1.3912    1.1160   -0.8998 N   0  0  0  0  0  0  0  0  0  0  0  0
   -1.7066    2.6593    0.1811 C   0  0  0  0  0  0  0  0  0  0  0  0
   -2.9887    2.3704    0.6672 C   0  0  0  0  0  0  0  0  0  0  0  0
   -3.6877    3.3787    1.4037 C   0  0  0  0  0  0  0  0  0  0  0  0
   -4.2088    4.2345    1.9893 N   0  0  0  0  0  0  0  0  0  0  0  0
   -5.9107   -3.7256    0.4635 H   0  0  0  0  0  0  0  0  0  0  0  0
   -4.3899   -3.5209   -0.4293 H   0  0  0  0  0  0  0  0  0  0  0  0
   -4.3753   -4.2164    1.2012 H   0  0  0  0  0  0  0  0  0  0  0  0
   -3.6113   -1.8743    1.2702 H   0  0  0  0  0  0  0  0  0  0  0  0
   -5.1162   -2.0743    2.1700 H   0  0  0  0  0  0  0  0  0  0  0  0
   -6.4389   -1.2214    0.2635 H   0  0  0  0  0  0  0  0  0  0  0  0
   -5.0108   -1.0556   -0.7429 H   0  0  0  0  0  0  0  0  0  0  0  0
   -0.0977   -1.0648   -0.9231 H   0  0  0  0  0  0  0  0  0  0  0  0
   -1.6368   -1.4702   -1.6892 H   0  0  0  0  0  0  0  0  0  0  0  0
   -0.5677   -0.3090   -2.4780 H   0  0  0  0  0  0  0  0  0  0  0  0
    0.0533    4.0441   -1.8926 H   0  0  0  0  0  0  0  0  0  0  0  0
    6.2756    0.0160   -0.1258 H   0  0  0  0  0  0  0  0  0  0  0  0
    5.6896   -1.2004   -1.2962 H   0  0  0  0  0  0  0  0  0  0  0  0
    4.7789   -2.5774    0.4102 H   0  0  0  0  0  0  0  0  0  0  0  0
    6.2094   -1.9453    1.2446 H   0  0  0  0  0  0  0  0  0  0  0  0
    4.9028   -0.1846    2.3092 H   0  0  0  0  0  0  0  0  0  0  0  0
    3.8520   -1.6068    2.4390 H   0  0  0  0  0  0  0  0  0  0  0  0
    2.9171    0.6417    1.2979 H   0  0  0  0  0  0  0  0  0  0  0  0
    2.5321   -0.9409    0.5562 H   0  0  0  0  0  0  0  0  0  0  0  0
   -1.2668    3.6335    0.3888 H   0  0  0  0  0  0  0  0  0  0  0  0
  1  2  1  0
  2  3  1  0
  3  4  1  0
  4  5  1  0
  5  6  2  0
  6  7  1  0
  7  8  1  0
  7  9  2  0
  9 10  1  0
 10 11  2  0
 11 12  1  0
 12 13  1  0
 13 14  1  0
 14 15  1  0
 15 16  3  0
 14 17  2  3
 17 18  1  0
 18 19  1  0
 19 20  1  0
 20 21  1  0
 13 22  2  0
  9 23  1  0
 23 24  2  0
 24 25  1  0
 25 26  3  0
 24  5  1  0
 22 10  1  0
 21 17  1  0
  1 27  1  0
  1 28  1  0
  1 29  1  0
  2 30  1  0
  2 31  1  0
  3 32  1  0
  3 33  1  0
  8 34  1  0
  8 35  1  0
  8 36  1  0
 11 37  1  0
 18 38  1  0
 18 39  1  0
 19 40  1  0
 19 41  1  0
 20 42  1  0
 20 43  1  0
 21 44  1  0
 21 45  1  0
 23 46  1  0
M  END
$$$$
