
     RDKit          3D

 46 49  0  0  0  0  0  0  0  0999 V2000
   -3.6239   -1.0150   -2.0260 O   0  0  0  0  0  0  0  0  0  0  0  0
   -3.6421   -0.3891   -0.9714 C   0  0  0  0  0  0  0  0  0  0  0  0
   -2.5325   -0.0095   -0.2390 N   0  0  0  0  0  0  0  0  0  0  0  0
   -1.1758   -0.2565   -0.5388 C   0  0  0  0  0  0  0  0  0  0  0  0
   -0.7326   -0.9519   -1.6652 C   0  0  0  0  0  0  0  0  0  0  0  0
    0.6371   -1.1541   -1.8836 C   0  0  0  0  0  0  0  0  0  0  0  0
    1.5832   -0.6648   -0.9848 C   0  0  0  0  0  0  0  0  0  0  0  0
    2.9365   -0.8913   -1.2264 N   0  0  0  0  0  0  0  0  0  0  0  0
    3.8228   -0.4081   -0.4116 C   0  0  0  0  0  0  0  0  0  0  0  0
    3.5041    0.3525    0.6964 N   0  0  0  0  0  0  0  0  0  0  0  0
    2.1606    0.5280    1.0601 C   0  0  0  0  0  0  0  0  0  0  0  0
    1.7880    1.0540    2.1081 O   0  0  0  0  0  0  0  0  0  0  0  0
    1.1408    0.0270    0.1294 C   0  0  0  0  0  0  0  0  0  0  0  0
   -0.2260    0.2341    0.3632 C   0  0  0  0  0  0  0  0  0  0  0  0
    4.4617    0.8468    1.6960 C   0  0  0  0  0  0  0  0  0  0  0  0
    5.8256    1.2923    1.1878 C   0  0  0  0  0  0  0  0  0  0  0  0
    6.7976    0.1303    1.0179 C   0  0  0  0  0  0  0  0  0  0  0  0
    6.1762   -1.0887    0.3494 C   0  0  0  0  0  0  0  0  0  0  0  0
    5.2688   -0.6940   -0.7997 C   0  0  0  0  0  0  0  0  0  0  0  0
   -4.9784    0.0017   -0.4234 C   0  0  0  0  0  0  0  0  0  0  0  0
   -6.1285   -0.3725   -1.1420 C   0  0  0  0  0  0  0  0  0  0  0  0
   -7.4006   -0.0256   -0.6624 C   0  0  0  0  0  0  0  0  0  0  0  0
   -8.5993   -0.4188   -1.4168 N   0  0  0  0  0  4  0  0  0  0  0  0
   -8.4376   -1.0539   -2.4667 O   0  0  0  0  0  0  0  0  0  0  0  0
   -9.7003   -0.0894   -0.9541 O   0  0  0  0  0  1  0  0  0  0  0  0
   -7.5403    0.6940    0.5322 C   0  0  0  0  0  0  0  0  0  0  0  0
   -6.3999    1.0652    1.2448 C   0  0  0  0  0  0  0  0  0  0  0  0
   -5.1351    0.7197    0.7669 C   0  0  0  0  0  0  0  0  0  0  0  0
   -4.0706    1.1005    1.4892 F   0  0  0  0  0  0  0  0  0  0  0  0
   -2.6977    0.5081    0.6188 H   0  0  0  0  0  0  0  0  0  0  0  0
   -1.4234   -1.3559   -2.3988 H   0  0  0  0  0  0  0  0  0  0  0  0
    0.9660   -1.7009   -2.7641 H   0  0  0  0  0  0  0  0  0  0  0  0
   -0.5321    0.7796    1.2527 H   0  0  0  0  0  0  0  0  0  0  0  0
    4.0167    1.7183    2.1924 H   0  0  0  0  0  0  0  0  0  0  0  0
    4.5609    0.0732    2.4676 H   0  0  0  0  0  0  0  0  0  0  0  0
    5.7192    1.8532    0.2518 H   0  0  0  0  0  0  0  0  0  0  0  0
    6.2676    1.9888    1.9114 H   0  0  0  0  0  0  0  0  0  0  0  0
    7.6565    0.4772    0.4304 H   0  0  0  0  0  0  0  0  0  0  0  0
    7.1949   -0.1690    1.9955 H   0  0  0  0  0  0  0  0  0  0  0  0
    5.6251   -1.6859    1.0858 H   0  0  0  0  0  0  0  0  0  0  0  0
    6.9877   -1.7262   -0.0220 H   0  0  0  0  0  0  0  0  0  0  0  0
    5.6594    0.1622   -1.3614 H   0  0  0  0  0  0  0  0  0  0  0  0
    5.2504   -1.5341   -1.5076 H   0  0  0  0  0  0  0  0  0  0  0  0
   -6.0223   -0.9325   -2.0716 H   0  0  0  0  0  0  0  0  0  0  0  0
   -8.5210    0.9702    0.9166 H   0  0  0  0  0  0  0  0  0  0  0  0
   -6.4876    1.6237    2.1735 H   0  0  0  0  0  0  0  0  0  0  0  0
  1  2  2  0
  2  3  1  0
  3  4  1  0
  4  5  2  0
  5  6  1  0
  6  7  2  0
  7  8  1  0
  8  9  2  0
  9 10  1  0
 10 11  1  0
 11 12  2  0
 11 13  1  0
 13 14  2  0
 10 15  1  0
 15 16  1  0
 16 17  1  0
 17 18  1  0
 18 19  1  0
  2 20  1  0
 20 21  2  0
 21 22  1  0
 22 23  1  0
 23 24  2  0
 23 25  1  0
 22 26  2  0
 26 27  1  0
 27 28  2  0
 28 29  1  0
 14  4  1  0
 28 20  1  0
 13  7  1  0
 19  9  1  0
  3 30  1  0
  5 31  1  0
  6 32  1  0
 14 33  1  0
 15 34  1  0
 15 35  1  0
 16 36  1  0
 16 37  1  0
 17 38  1  0
 17 39  1  0
 18 40  1  0
 18 41  1  0
 19 42  1  0
 19 43  1  0
 21 44  1  0
 26 45  1  0
 27 46  1  0
M  CHG  2  23   1  25  -1
M  END
$$$$
