
     RDKit          3D

 53 56  0  0  0  0  0  0  0  0999 V2000
    8.3910   -0.3223    2.1431 C   0  0  0  0  0  0  0  0  0  0  0  0
    7.2684   -0.1144    1.1423 C   0  0  0  0  0  0  0  0  0  0  0  0
    6.0326   -0.3640    1.8096 O   0  0  0  0  0  0  0  0  0  0  0  0
    4.8903   -0.2317    1.0710 C   0  0  0  0  0  0  0  0  0  0  0  0
    4.8150    0.1300   -0.2704 C   0  0  0  0  0  0  0  0  0  0  0  0
    3.5678    0.2276   -0.9037 C   0  0  0  0  0  0  0  0  0  0  0  0
    2.3647   -0.0358   -0.2228 C   0  0  0  0  0  0  0  0  0  0  0  0
    1.0643    0.0721   -0.9193 C   0  0  0  0  0  0  0  0  0  0  0  0
   -0.0465   -0.6749   -0.5689 C   0  0  0  0  0  0  0  0  0  0  0  0
   -1.2254   -0.4810   -1.2882 C   0  0  0  0  0  0  0  0  0  0  0  0
   -2.3990   -1.2724   -0.8795 C   0  0  0  0  0  0  0  0  0  0  0  0
   -2.6719   -2.2704   -1.5393 O   0  0  0  0  0  0  0  0  0  0  0  0
   -3.1155   -0.8534    0.2417 N   0  0  0  0  0  0  0  0  0  0  0  0
   -4.3537   -1.5765    0.5388 C   0  0  0  0  0  0  0  0  0  0  0  0
   -4.8084   -1.4121    2.0005 C   0  0  0  0  0  0  0  0  0  0  0  0
   -4.8421   -0.0198    2.4922 N   0  0  0  0  0  0  0  0  0  0  0  0
   -5.9500    0.7349    1.9109 C   0  0  0  0  0  0  0  0  0  0  0  0
   -3.5400    0.6205    2.2264 C   0  0  0  0  0  0  0  0  0  0  0  0
   -3.0421    0.5156    0.7715 C   0  0  0  0  0  0  0  0  0  0  0  0
   -1.2950    0.4189   -2.3668 C   0  0  0  0  0  0  0  0  0  0  0  0
   -2.4504    0.6459   -3.1551 C   0  0  0  0  0  0  0  0  0  0  0  0
   -2.4317    1.5670   -4.1997 C   0  0  0  0  0  0  0  0  0  0  0  0
   -1.2650    2.2689   -4.4686 C   0  0  0  0  0  0  0  0  0  0  0  0
   -0.1248    2.0415   -3.6933 C   0  0  0  0  0  0  0  0  0  0  0  0
   -0.1160    1.1276   -2.6477 C   0  0  0  0  0  0  0  0  0  0  0  0
    1.0189    0.9622   -1.9443 N   0  0  0  0  0  0  0  0  0  0  0  0
    2.4657   -0.3914    1.1329 C   0  0  0  0  0  0  0  0  0  0  0  0
    3.7104   -0.4891    1.7676 C   0  0  0  0  0  0  0  0  0  0  0  0
    8.3710   -1.3435    2.5381 H   0  0  0  0  0  0  0  0  0  0  0  0
    9.3650   -0.1418    1.6796 H   0  0  0  0  0  0  0  0  0  0  0  0
    8.2754    0.3524    2.9978 H   0  0  0  0  0  0  0  0  0  0  0  0
    7.3018    0.9186    0.7771 H   0  0  0  0  0  0  0  0  0  0  0  0
    7.3987   -0.8137    0.3083 H   0  0  0  0  0  0  0  0  0  0  0  0
    5.7002    0.3454   -0.8589 H   0  0  0  0  0  0  0  0  0  0  0  0
    3.5398    0.5134   -1.9550 H   0  0  0  0  0  0  0  0  0  0  0  0
   -0.0146   -1.4068    0.2307 H   0  0  0  0  0  0  0  0  0  0  0  0
   -5.1215   -1.2028   -0.1492 H   0  0  0  0  0  0  0  0  0  0  0  0
   -4.2178   -2.6423    0.3223 H   0  0  0  0  0  0  0  0  0  0  0  0
   -4.1150   -1.9722    2.6420 H   0  0  0  0  0  0  0  0  0  0  0  0
   -5.7872   -1.8872    2.1395 H   0  0  0  0  0  0  0  0  0  0  0  0
   -6.9058    0.2631    2.1647 H   0  0  0  0  0  0  0  0  0  0  0  0
   -5.9818    1.7465    2.3307 H   0  0  0  0  0  0  0  0  0  0  0  0
   -5.8931    0.8216    0.8212 H   0  0  0  0  0  0  0  0  0  0  0  0
   -2.7970    0.1418    2.8782 H   0  0  0  0  0  0  0  0  0  0  0  0
   -3.5651    1.6733    2.5329 H   0  0  0  0  0  0  0  0  0  0  0  0
   -2.0158    0.8897    0.7242 H   0  0  0  0  0  0  0  0  0  0  0  0
   -3.6464    1.1487    0.1109 H   0  0  0  0  0  0  0  0  0  0  0  0
   -3.3685    0.0924   -2.9649 H   0  0  0  0  0  0  0  0  0  0  0  0
   -3.3215    1.7289   -4.8027 H   0  0  0  0  0  0  0  0  0  0  0  0
   -1.2331    2.9892   -5.2821 H   0  0  0  0  0  0  0  0  0  0  0  0
    0.7866    2.5934   -3.9135 H   0  0  0  0  0  0  0  0  0  0  0  0
    1.5770   -0.5839    1.7287 H   0  0  0  0  0  0  0  0  0  0  0  0
    3.7575   -0.7652    2.8185 H   0  0  0  0  0  0  0  0  0  0  0  0
  1  2  1  0
  2  3  1  0
  3  4  1  0
  4  5  2  0
  5  6  1  0
  6  7  2  0
  7  8  1  0
  8  9  2  0
  9 10  1  0
 10 11  1  0
 11 12  2  0
 11 13  1  0
 13 14  1  0
 14 15  1  0
 15 16  1  0
 16 17  1  0
 16 18  1  0
 18 19  1  0
 10 20  2  0
 20 21  1  0
 21 22  2  0
 22 23  1  0
 23 24  2  0
 24 25  1  0
 25 26  2  0
  7 27  1  0
 27 28  2  0
 28  4  1  0
 26  8  1  0
 19 13  1  0
 25 20  1  0
  1 29  1  0
  1 30  1  0
  1 31  1  0
  2 32  1  0
  2 33  1  0
  5 34  1  0
  6 35  1  0
  9 36  1  0
 14 37  1  0
 14 38  1  0
 15 39  1  0
 15 40  1  0
 17 41  1  0
 17 42  1  0
 17 43  1  0
 18 44  1  0
 18 45  1  0
 19 46  1  0
 19 47  1  0
 21 48  1  0
 22 49  1  0
 23 50  1  0
 24 51  1  0
 27 52  1  0
 28 53  1  0
M  END
$$$$
