
     RDKit          3D

 40 43  0  0  0  0  0  0  0  0999 V2000
   -2.5075    2.5766    3.2482 C   0  0  0  0  0  0  0  0  0  0  0  0
   -3.1671    1.6215    2.3192 C   0  0  0  0  0  0  0  0  0  0  0  0
   -4.5562    1.6442    2.2343 N   0  0  0  0  0  0  0  0  0  0  0  0
   -5.0129    0.7650    1.3594 N   0  0  0  0  0  0  0  0  0  0  0  0
   -3.7953   -0.0995    0.6143 S   0  0  0  0  0  0  0  0  0  0  0  0
   -2.5517    0.6677    1.5160 C   0  0  0  0  0  0  0  0  0  0  0  0
   -1.1600    0.3914    1.3652 C   0  0  0  0  0  0  0  0  0  0  0  0
   -0.2266    1.3278    1.3867 N   0  0  0  0  0  0  0  0  0  0  0  0
    0.9900    0.7315    1.1420 N   0  0  0  0  0  0  0  0  0  0  0  0
    0.7809   -0.5580    1.0048 C   0  0  0  0  0  0  0  0  0  0  0  0
    1.9972   -1.7038    0.5621 S   0  0  0  0  0  0  0  0  0  0  0  0
    1.4834   -2.1851   -1.1083 C   0  0  0  0  0  0  0  0  0  0  0  0
    0.8490   -1.0480   -1.8812 C   0  0  0  0  0  0  0  0  0  0  0  0
   -0.3789   -0.9872   -1.9876 O   0  0  0  0  0  0  0  0  0  0  0  0
    1.6946    0.0226   -2.4937 C   0  0  0  0  0  0  0  0  0  0  0  0
    3.0944   -0.0184   -2.4894 C   0  0  0  0  0  0  0  0  0  0  0  0
    3.8325    1.0254   -3.0638 C   0  0  0  0  0  0  0  0  0  0  0  0
    3.1801    2.1167   -3.6489 C   0  0  0  0  0  0  0  0  0  0  0  0
    3.9406    3.1826   -4.2354 C   0  0  0  0  0  0  0  0  0  0  0  0
    4.5614    4.0370   -4.7153 N   0  0  0  0  0  0  0  0  0  0  0  0
    1.7832    2.1604   -3.6574 C   0  0  0  0  0  0  0  0  0  0  0  0
    1.0459    1.1187   -3.0831 C   0  0  0  0  0  0  0  0  0  0  0  0
   -0.5445   -0.8272    1.2038 N   0  0  0  0  0  0  0  0  0  0  0  0
   -1.1862   -2.1626    1.2138 C   0  0  0  0  0  0  0  0  0  0  0  0
   -0.7188   -3.2861    2.1119 C   0  0  0  0  0  0  0  0  0  0  0  0
   -2.0449   -2.6427    2.3640 C   0  0  0  0  0  0  0  0  0  0  0  0
   -1.8845    3.2874    2.6940 H   0  0  0  0  0  0  0  0  0  0  0  0
   -1.8752    2.0429    3.9658 H   0  0  0  0  0  0  0  0  0  0  0  0
   -3.2484    3.1494    3.8144 H   0  0  0  0  0  0  0  0  0  0  0  0
    0.7448   -2.9921   -1.0275 H   0  0  0  0  0  0  0  0  0  0  0  0
    2.3264   -2.6073   -1.6625 H   0  0  0  0  0  0  0  0  0  0  0  0
    3.6474   -0.8373   -2.0372 H   0  0  0  0  0  0  0  0  0  0  0  0
    4.9211    0.9829   -3.0432 H   0  0  0  0  0  0  0  0  0  0  0  0
    1.2566    3.0045   -4.1018 H   0  0  0  0  0  0  0  0  0  0  0  0
   -0.0423    1.1802   -3.0870 H   0  0  0  0  0  0  0  0  0  0  0  0
   -1.5116   -2.4511    0.2167 H   0  0  0  0  0  0  0  0  0  0  0  0
    0.0668   -3.1034    2.8382 H   0  0  0  0  0  0  0  0  0  0  0  0
   -0.7077   -4.2877    1.6996 H   0  0  0  0  0  0  0  0  0  0  0  0
   -2.9353   -3.2167    2.1347 H   0  0  0  0  0  0  0  0  0  0  0  0
   -2.1406   -2.0223    3.2510 H   0  0  0  0  0  0  0  0  0  0  0  0
  1  2  1  0
  2  3  1  0
  3  4  2  0
  4  5  1  0
  5  6  1  0
  6  7  1  0
  7  8  2  0
  8  9  1  0
  9 10  2  0
 10 11  1  0
 11 12  1  0
 12 13  1  0
 13 14  2  0
 13 15  1  0
 15 16  2  0
 16 17  1  0
 17 18  2  0
 18 19  1  0
 19 20  3  0
 18 21  1  0
 21 22  2  0
 10 23  1  0
 23 24  1  0
 24 25  1  0
 25 26  1  0
  6  2  2  0
 23  7  1  0
 26 24  1  0
 22 15  1  0
  1 27  1  0
  1 28  1  0
  1 29  1  0
 12 30  1  0
 12 31  1  0
 16 32  1  0
 17 33  1  0
 21 34  1  0
 22 35  1  0
 24 36  1  0
 25 37  1  0
 25 38  1  0
 26 39  1  0
 26 40  1  0
M  END
$$$$
