
     RDKit          3D

 46 49  0  0  0  0  0  0  0  0999 V2000
    4.9204    1.1055   -1.6005 C   0  0  0  0  0  0  0  0  0  0  0  0
    4.3314    1.1736   -0.2603 N   0  0  0  0  0  0  0  0  0  0  0  0
    5.2984    0.6999    0.7466 C   0  0  0  0  0  0  0  0  0  0  0  0
    5.1305   -0.8131    0.8195 C   0  0  0  0  0  0  0  0  0  0  0  0
    3.7765   -1.0985    0.1812 C   0  0  0  0  0  0  0  0  0  0  0  0
    3.1654    0.2832   -0.0625 C   0  0  0  0  0  0  0  0  0  0  0  0
    2.0743    0.2627   -1.1418 C   0  0  0  0  0  0  0  0  0  0  0  0
    1.3865    1.6129   -1.3648 C   0  0  0  0  0  0  0  0  0  0  0  0
    0.7010    2.1105   -0.1745 N   0  0  0  0  0  0  0  0  0  0  0  0
   -0.4444    1.5197    0.3431 C   0  0  0  0  0  0  0  0  0  0  0  0
   -0.8535    1.8696    1.6325 C   0  0  0  0  0  0  0  0  0  0  0  0
   -2.0301    1.3560    2.1879 C   0  0  0  0  0  0  0  0  0  0  0  0
   -2.8533    0.4902    1.4577 C   0  0  0  0  0  0  0  0  0  0  0  0
   -4.3087   -0.1067    2.2694 S   0  0  0  0  0  0  0  0  0  0  0  0
   -5.1351   -1.0281    1.0021 C   0  0  0  0  0  0  0  0  0  0  0  0
   -6.3952   -1.5603    1.3258 C   0  0  0  0  0  0  0  0  0  0  0  0
   -7.1220   -2.3103    0.3991 C   0  0  0  0  0  0  0  0  0  0  0  0
   -6.5968   -2.5409   -0.8662 C   0  0  0  0  0  0  0  0  0  0  0  0
   -5.3474   -2.0193   -1.1994 C   0  0  0  0  0  0  0  0  0  0  0  0
   -4.6113   -1.2604   -0.2703 C   0  0  0  0  0  0  0  0  0  0  0  0
   -3.2926   -0.7381   -0.6981 C   0  0  0  0  0  0  0  0  0  0  0  0
   -2.8603   -1.0583   -1.8050 O   0  0  0  0  0  0  0  0  0  0  0  0
   -2.4809    0.1590    0.1576 C   0  0  0  0  0  0  0  0  0  0  0  0
   -1.2924    0.6867   -0.3911 C   0  0  0  0  0  0  0  0  0  0  0  0
    5.8125    1.7405   -1.6508 H   0  0  0  0  0  0  0  0  0  0  0  0
    4.2312    1.4995   -2.3535 H   0  0  0  0  0  0  0  0  0  0  0  0
    5.2112    0.0919   -1.8968 H   0  0  0  0  0  0  0  0  0  0  0  0
    6.3321    0.9970    0.5371 H   0  0  0  0  0  0  0  0  0  0  0  0
    5.0363    1.1435    1.7155 H   0  0  0  0  0  0  0  0  0  0  0  0
    5.9225   -1.3256    0.2621 H   0  0  0  0  0  0  0  0  0  0  0  0
    5.1664   -1.1636    1.8562 H   0  0  0  0  0  0  0  0  0  0  0  0
    3.9162   -1.6511   -0.7556 H   0  0  0  0  0  0  0  0  0  0  0  0
    3.1460   -1.7087    0.8366 H   0  0  0  0  0  0  0  0  0  0  0  0
    2.6897    0.5932    0.8789 H   0  0  0  0  0  0  0  0  0  0  0  0
    2.4933   -0.0777   -2.0967 H   0  0  0  0  0  0  0  0  0  0  0  0
    1.3270   -0.4908   -0.8640 H   0  0  0  0  0  0  0  0  0  0  0  0
    0.6910    1.5457   -2.2091 H   0  0  0  0  0  0  0  0  0  0  0  0
    2.1277    2.3640   -1.6590 H   0  0  0  0  0  0  0  0  0  0  0  0
    1.3499    2.4491    0.5329 H   0  0  0  0  0  0  0  0  0  0  0  0
   -0.2528    2.5554    2.2263 H   0  0  0  0  0  0  0  0  0  0  0  0
   -2.2967    1.6502    3.2015 H   0  0  0  0  0  0  0  0  0  0  0  0
   -6.8255   -1.3945    2.3124 H   0  0  0  0  0  0  0  0  0  0  0  0
   -8.0953   -2.7134    0.6682 H   0  0  0  0  0  0  0  0  0  0  0  0
   -7.1547   -3.1245   -1.5943 H   0  0  0  0  0  0  0  0  0  0  0  0
   -4.9460   -2.2065   -2.1945 H   0  0  0  0  0  0  0  0  0  0  0  0
   -1.0424    0.4309   -1.4176 H   0  0  0  0  0  0  0  0  0  0  0  0
  1  2  1  0
  2  3  1  0
  3  4  1  0
  4  5  1  0
  5  6  1  0
  6  7  1  0
  7  8  1  0
  8  9  1  0
  9 10  1  0
 10 11  2  0
 11 12  1  0
 12 13  2  0
 13 14  1  0
 14 15  1  0
 15 16  2  0
 16 17  1  0
 17 18  2  0
 18 19  1  0
 19 20  2  0
 20 21  1  0
 21 22  2  0
 21 23  1  0
 23 24  2  0
  6  2  1  0
 24 10  1  0
 23 13  1  0
 20 15  1  0
  1 25  1  0
  1 26  1  0
  1 27  1  0
  3 28  1  0
  3 29  1  0
  4 30  1  0
  4 31  1  0
  5 32  1  0
  5 33  1  0
  6 34  1  0
  7 35  1  0
  7 36  1  0
  8 37  1  0
  8 38  1  0
  9 39  1  0
 11 40  1  0
 12 41  1  0
 16 42  1  0
 17 43  1  0
 18 44  1  0
 19 45  1  0
 24 46  1  0
M  END
$$$$
