
     RDKit          3D

 37 40  0  0  0  0  0  0  0  0999 V2000
    5.6506   -1.5827   -1.9772 C   0  0  0  0  0  0  0  0  0  0  0  0
    4.7137   -0.8244   -1.0806 C   0  0  0  0  0  0  0  0  0  0  0  0
    5.1903    0.2275   -0.2941 C   0  0  0  0  0  0  0  0  0  0  0  0
    4.3358    0.9251    0.5677 C   0  0  0  0  0  0  0  0  0  0  0  0
    2.9785    0.5608    0.6560 C   0  0  0  0  0  0  0  0  0  0  0  0
    2.0270    1.1600    1.4623 N   0  0  0  0  0  0  0  0  0  0  0  0
    0.8766    0.5692    1.2893 C   0  0  0  0  0  0  0  0  0  0  0  0
   -0.3283    0.8283    1.8759 N   0  0  0  0  0  0  0  0  0  0  0  0
   -0.5448    1.9085    2.7018 C   0  0  0  0  0  0  0  0  0  0  0  0
    0.2740    2.7677    3.0169 O   0  0  0  0  0  0  0  0  0  0  0  0
   -1.9631    1.9594    3.2475 C   0  0  0  0  0  0  0  0  0  0  0  0
   -3.0827    2.7839    2.0860 S   0  0  0  0  0  0  0  0  0  0  0  0
   -3.4327    1.5011    0.9650 C   0  0  0  0  0  0  0  0  0  0  0  0
   -2.8709    0.3036    1.0190 N   0  0  0  0  0  0  0  0  0  0  0  0
   -3.4339   -0.3676   -0.0398 C   0  0  0  0  0  0  0  0  0  0  0  0
   -3.2475   -1.6748   -0.5065 C   0  0  0  0  0  0  0  0  0  0  0  0
   -3.9737   -2.0804   -1.6370 C   0  0  0  0  0  0  0  0  0  0  0  0
   -4.8597   -1.2072   -2.2819 C   0  0  0  0  0  0  0  0  0  0  0  0
   -5.0566    0.1016   -1.8247 C   0  0  0  0  0  0  0  0  0  0  0  0
   -4.3192    0.4630   -0.7047 C   0  0  0  0  0  0  0  0  0  0  0  0
   -4.3231    1.6645   -0.0635 O   0  0  0  0  0  0  0  0  0  0  0  0
    0.8381   -0.7321    0.1881 S   0  0  0  0  0  0  0  0  0  0  0  0
    2.5179   -0.5019   -0.1244 C   0  0  0  0  0  0  0  0  0  0  0  0
    3.3663   -1.2102   -0.9930 C   0  0  0  0  0  0  0  0  0  0  0  0
    5.1378   -1.9059   -2.8894 H   0  0  0  0  0  0  0  0  0  0  0  0
    6.0368   -2.4632   -1.4544 H   0  0  0  0  0  0  0  0  0  0  0  0
    6.4950   -0.9564   -2.2840 H   0  0  0  0  0  0  0  0  0  0  0  0
    6.2370    0.5213   -0.3435 H   0  0  0  0  0  0  0  0  0  0  0  0
    4.7069    1.7463    1.1733 H   0  0  0  0  0  0  0  0  0  0  0  0
   -1.1162    0.2641    1.5709 H   0  0  0  0  0  0  0  0  0  0  0  0
   -2.3156    0.9565    3.5113 H   0  0  0  0  0  0  0  0  0  0  0  0
   -1.9438    2.5382    4.1774 H   0  0  0  0  0  0  0  0  0  0  0  0
   -2.5626   -2.3527   -0.0092 H   0  0  0  0  0  0  0  0  0  0  0  0
   -3.8457   -3.0918   -2.0191 H   0  0  0  0  0  0  0  0  0  0  0  0
   -5.4081   -1.5530   -3.1569 H   0  0  0  0  0  0  0  0  0  0  0  0
   -5.7367    0.7907   -2.3095 H   0  0  0  0  0  0  0  0  0  0  0  0
    2.9822   -2.0369   -1.5839 H   0  0  0  0  0  0  0  0  0  0  0  0
  1  2  1  0
  2  3  2  0
  3  4  1  0
  4  5  2  0
  5  6  1  0
  6  7  2  0
  7  8  1  0
  8  9  1  0
  9 10  2  0
  9 11  1  0
 11 12  1  0
 12 13  1  0
 13 14  2  0
 14 15  1  0
 15 16  2  0
 16 17  1  0
 17 18  2  0
 18 19  1  0
 19 20  2  0
 20 21  1  0
  7 22  1  0
 22 23  1  0
 23 24  2  0
 24  2  1  0
 23  5  1  0
 21 13  1  0
 20 15  1  0
  1 25  1  0
  1 26  1  0
  1 27  1  0
  3 28  1  0
  4 29  1  0
  8 30  1  0
 11 31  1  0
 11 32  1  0
 16 33  1  0
 17 34  1  0
 18 35  1  0
 19 36  1  0
 24 37  1  0
M  END
$$$$
