
     RDKit          3D

 47 49  0  0  0  0  0  0  0  0999 V2000
    7.5757    0.2332   -0.5122 C   0  0  0  0  0  0  0  0  0  0  0  0
    6.2207   -0.1990   -0.4985 O   0  0  0  0  0  0  0  0  0  0  0  0
    5.3032    0.6261   -1.0898 C   0  0  0  0  0  0  0  0  0  0  0  0
    5.5674    1.8677   -1.6633 C   0  0  0  0  0  0  0  0  0  0  0  0
    4.5253    2.6114   -2.2198 C   0  0  0  0  0  0  0  0  0  0  0  0
    3.2190    2.1147   -2.2156 C   0  0  0  0  0  0  0  0  0  0  0  0
    2.9442    0.8613   -1.6711 C   0  0  0  0  0  0  0  0  0  0  0  0
    1.6500    0.3024   -1.5925 N   0  0  0  0  0  0  0  0  0  0  0  0
    0.5068    0.5274   -2.3524 C   0  0  0  0  0  0  0  0  0  0  0  0
    0.5006    1.1319   -3.9216 S   0  0  0  0  0  0  0  0  0  0  0  0
   -0.6598    0.1002   -1.6612 N   0  0  0  0  0  0  0  0  0  0  0  0
   -1.9575    0.0064   -2.3465 C   0  0  0  0  0  0  0  0  0  0  0  0
   -2.8511   -1.0543   -1.7074 C   0  0  0  0  0  0  0  0  0  0  0  0
   -2.9664   -0.8671   -0.2190 C   0  0  0  0  0  0  0  0  0  0  0  0
   -4.0557   -1.4150    0.4759 C   0  0  0  0  0  0  0  0  0  0  0  0
   -4.1645   -1.2734    1.8634 C   0  0  0  0  0  0  0  0  0  0  0  0
   -5.1989   -1.7720    2.6164 O   0  0  0  0  0  0  0  0  0  0  0  0
   -6.2295   -2.4761    1.9393 C   0  0  0  0  0  0  0  0  0  0  0  0
   -3.1640   -0.5795    2.5697 C   0  0  0  0  0  0  0  0  0  0  0  0
   -3.3434   -0.4795    3.9274 O   0  0  0  0  0  0  0  0  0  0  0  0
   -2.3659    0.2288    4.6747 C   0  0  0  0  0  0  0  0  0  0  0  0
   -2.0714   -0.0478    1.8746 C   0  0  0  0  0  0  0  0  0  0  0  0
   -1.9571   -0.1946    0.4813 C   0  0  0  0  0  0  0  0  0  0  0  0
   -0.7605    0.4032   -0.2233 C   0  0  0  0  0  0  0  0  0  0  0  0
    3.9922    0.1361   -1.0893 C   0  0  0  0  0  0  0  0  0  0  0  0
    7.6993    1.1602    0.0574 H   0  0  0  0  0  0  0  0  0  0  0  0
    8.1778   -0.5396   -0.0246 H   0  0  0  0  0  0  0  0  0  0  0  0
    7.9447    0.3456   -1.5371 H   0  0  0  0  0  0  0  0  0  0  0  0
    6.5660    2.2902   -1.6866 H   0  0  0  0  0  0  0  0  0  0  0  0
    4.7270    3.5881   -2.6532 H   0  0  0  0  0  0  0  0  0  0  0  0
    2.4337    2.7456   -2.6181 H   0  0  0  0  0  0  0  0  0  0  0  0
    1.5885   -0.5520   -1.0520 H   0  0  0  0  0  0  0  0  0  0  0  0
   -1.8230   -0.2603   -3.3988 H   0  0  0  0  0  0  0  0  0  0  0  0
   -2.4284    0.9971   -2.3064 H   0  0  0  0  0  0  0  0  0  0  0  0
   -2.4317   -2.0510   -1.8929 H   0  0  0  0  0  0  0  0  0  0  0  0
   -3.8419   -1.0122   -2.1745 H   0  0  0  0  0  0  0  0  0  0  0  0
   -4.8093   -1.9501   -0.0931 H   0  0  0  0  0  0  0  0  0  0  0  0
   -6.7459   -1.8287    1.2229 H   0  0  0  0  0  0  0  0  0  0  0  0
   -5.8393   -3.3756    1.4519 H   0  0  0  0  0  0  0  0  0  0  0  0
   -6.9628   -2.7953    2.6861 H   0  0  0  0  0  0  0  0  0  0  0  0
   -2.6737    0.2163    5.7248 H   0  0  0  0  0  0  0  0  0  0  0  0
   -1.3884   -0.2601    4.6097 H   0  0  0  0  0  0  0  0  0  0  0  0
   -2.3080    1.2755    4.3584 H   0  0  0  0  0  0  0  0  0  0  0  0
   -1.2861    0.4886    2.3983 H   0  0  0  0  0  0  0  0  0  0  0  0
    0.1432    0.0644    0.2928 H   0  0  0  0  0  0  0  0  0  0  0  0
   -0.8079    1.4961   -0.1337 H   0  0  0  0  0  0  0  0  0  0  0  0
    3.8067   -0.8351   -0.6374 H   0  0  0  0  0  0  0  0  0  0  0  0
  1  2  1  0
  2  3  1  0
  3  4  2  0
  4  5  1  0
  5  6  2  0
  6  7  1  0
  7  8  1  0
  8  9  1  0
  9 10  2  0
  9 11  1  0
 11 12  1  0
 12 13  1  0
 13 14  1  0
 14 15  2  0
 15 16  1  0
 16 17  1  0
 17 18  1  0
 16 19  2  0
 19 20  1  0
 20 21  1  0
 19 22  1  0
 22 23  2  0
 23 24  1  0
  7 25  2  0
 25  3  1  0
 24 11  1  0
 23 14  1  0
  1 26  1  0
  1 27  1  0
  1 28  1  0
  4 29  1  0
  5 30  1  0
  6 31  1  0
  8 32  1  0
 12 33  1  0
 12 34  1  0
 13 35  1  0
 13 36  1  0
 15 37  1  0
 18 38  1  0
 18 39  1  0
 18 40  1  0
 21 41  1  0
 21 42  1  0
 21 43  1  0
 22 44  1  0
 24 45  1  0
 24 46  1  0
 25 47  1  0
M  END
$$$$
