
     RDKit          3D

 52 55  0  0  0  0  0  0  0  0999 V2000
   -5.0779    0.8195   -1.8141 C   0  0  0  0  0  0  0  0  0  0  0  0
   -4.3750   -0.1308   -0.8815 C   0  0  0  0  0  0  0  0  0  0  0  0
   -3.9383   -1.3638   -1.4133 C   0  0  0  0  0  0  0  0  0  0  0  0
   -3.2964   -2.3145   -0.6131 C   0  0  0  0  0  0  0  0  0  0  0  0
   -3.0841   -2.0435    0.7436 C   0  0  0  0  0  0  0  0  0  0  0  0
   -2.4114   -3.0409    1.5915 N   0  0  0  0  0  4  0  0  0  0  0  0
   -2.1206   -4.1353    1.0809 O   0  0  0  0  0  0  0  0  0  0  0  0
   -2.1824   -2.7307    2.7706 O   0  0  0  0  0  1  0  0  0  0  0  0
   -3.5187   -0.8344    1.3013 C   0  0  0  0  0  0  0  0  0  0  0  0
   -4.1467    0.1293    0.4861 C   0  0  0  0  0  0  0  0  0  0  0  0
   -4.6274    1.6513    1.3133 S   0  0  0  0  0  6  0  0  0  0  0  0
   -5.1960    1.2674    2.5892 O   0  0  0  0  0  0  0  0  0  0  0  0
   -5.3575    2.5107    0.4062 O   0  0  0  0  0  0  0  0  0  0  0  0
   -3.1369    2.3726    1.6621 N   0  0  0  0  0  0  0  0  0  0  0  0
   -2.2082    2.5850    0.6059 C   0  0  0  0  0  0  0  0  0  0  0  0
   -2.4987    3.4617   -0.4355 C   0  0  0  0  0  0  0  0  0  0  0  0
   -1.5938    3.6126   -1.4840 C   0  0  0  0  0  0  0  0  0  0  0  0
   -0.3948    2.8881   -1.4871 C   0  0  0  0  0  0  0  0  0  0  0  0
   -0.0694    2.0048   -0.4394 C   0  0  0  0  0  0  0  0  0  0  0  0
    1.1875    1.2338   -0.4206 C   0  0  0  0  0  0  0  0  0  0  0  0
    2.3702    1.6535   -1.0087 C   0  0  0  0  0  0  0  0  0  0  0  0
    3.5103    0.8542   -0.9094 C   0  0  0  0  0  0  0  0  0  0  0  0
    3.4674   -0.3585   -0.2343 C   0  0  0  0  0  0  0  0  0  0  0  0
    4.5641   -1.1677   -0.1089 N   0  0  0  0  0  0  0  0  0  0  0  0
    4.4859   -2.4274    0.6158 C   0  0  0  0  0  0  0  0  0  0  0  0
    5.9472   -2.8489    0.7523 C   0  0  0  0  0  0  0  0  0  0  0  0
    6.5919   -2.2789   -0.4969 C   0  0  0  0  0  0  0  0  0  0  0  0
    5.8734   -0.9437   -0.6918 C   0  0  0  0  0  0  0  0  0  0  0  0
    2.2947   -0.7334    0.3203 N   0  0  0  0  0  0  0  0  0  0  0  0
    1.1572    0.0558    0.2324 N   0  0  0  0  0  0  0  0  0  0  0  0
   -1.0049    1.8697    0.6066 C   0  0  0  0  0  0  0  0  0  0  0  0
   -6.1005    1.0097   -1.4716 H   0  0  0  0  0  0  0  0  0  0  0  0
   -5.1584    0.3992   -2.8266 H   0  0  0  0  0  0  0  0  0  0  0  0
   -4.5243    1.7582   -1.9063 H   0  0  0  0  0  0  0  0  0  0  0  0
   -4.1031   -1.5987   -2.4676 H   0  0  0  0  0  0  0  0  0  0  0  0
   -2.9749   -3.2532   -1.0650 H   0  0  0  0  0  0  0  0  0  0  0  0
   -3.3849   -0.6361    2.3656 H   0  0  0  0  0  0  0  0  0  0  0  0
   -2.7753    2.0997    2.5743 H   0  0  0  0  0  0  0  0  0  0  0  0
   -3.4268    4.0343   -0.4400 H   0  0  0  0  0  0  0  0  0  0  0  0
   -1.8251    4.2910   -2.3032 H   0  0  0  0  0  0  0  0  0  0  0  0
    0.2762    3.0165   -2.3349 H   0  0  0  0  0  0  0  0  0  0  0  0
    2.4405    2.6024   -1.5298 H   0  0  0  0  0  0  0  0  0  0  0  0
    4.4313    1.2093   -1.3613 H   0  0  0  0  0  0  0  0  0  0  0  0
    3.9277   -3.1670    0.0317 H   0  0  0  0  0  0  0  0  0  0  0  0
    4.0237   -2.3241    1.6046 H   0  0  0  0  0  0  0  0  0  0  0  0
    6.0667   -3.9326    0.8341 H   0  0  0  0  0  0  0  0  0  0  0  0
    6.3875   -2.3876    1.6399 H   0  0  0  0  0  0  0  0  0  0  0  0
    6.3989   -2.9338   -1.3486 H   0  0  0  0  0  0  0  0  0  0  0  0
    7.6739   -2.1608   -0.3977 H   0  0  0  0  0  0  0  0  0  0  0  0
    5.8251   -0.6945   -1.7567 H   0  0  0  0  0  0  0  0  0  0  0  0
    6.3950   -0.1390   -0.1539 H   0  0  0  0  0  0  0  0  0  0  0  0
   -0.7842    1.1895    1.4294 H   0  0  0  0  0  0  0  0  0  0  0  0
  1  2  1  0
  2  3  2  0
  3  4  1  0
  4  5  2  0
  5  6  1  0
  6  7  2  0
  6  8  1  0
  5  9  1  0
  9 10  2  0
 10 11  1  0
 11 12  2  0
 11 13  2  0
 11 14  1  0
 14 15  1  0
 15 16  2  0
 16 17  1  0
 17 18  2  0
 18 19  1  0
 19 20  1  0
 20 21  2  0
 21 22  1  0
 22 23  2  0
 23 24  1  0
 24 25  1  0
 25 26  1  0
 26 27  1  0
 27 28  1  0
 23 29  1  0
 29 30  2  0
 19 31  2  0
 10  2  1  0
 31 15  1  0
 30 20  1  0
 28 24  1  0
  1 32  1  0
  1 33  1  0
  1 34  1  0
  3 35  1  0
  4 36  1  0
  9 37  1  0
 14 38  1  0
 16 39  1  0
 17 40  1  0
 18 41  1  0
 21 42  1  0
 22 43  1  0
 25 44  1  0
 25 45  1  0
 26 46  1  0
 26 47  1  0
 27 48  1  0
 27 49  1  0
 28 50  1  0
 28 51  1  0
 31 52  1  0
M  CHG  2   6   1   8  -1
M  END
$$$$
