
     RDKit          3D

 63 67  0  0  0  0  0  0  0  0999 V2000
   -5.0444   -4.2943   -1.7899 C   0  0  0  0  0  0  0  0  0  0  0  0
   -4.1642   -4.7752   -0.7817 O   0  0  0  0  0  0  0  0  0  0  0  0
   -3.7223   -3.8656    0.1399 C   0  0  0  0  0  0  0  0  0  0  0  0
   -2.9050   -4.3988    1.1388 C   0  0  0  0  0  0  0  0  0  0  0  0
   -2.3835   -3.5823    2.1414 C   0  0  0  0  0  0  0  0  0  0  0  0
   -2.6775   -2.2197    2.1497 C   0  0  0  0  0  0  0  0  0  0  0  0
   -3.4932   -1.6654    1.1548 C   0  0  0  0  0  0  0  0  0  0  0  0
   -3.7818   -0.2242    1.1529 C   0  0  0  0  0  0  0  0  0  0  0  0
   -5.4063    0.2801    1.3430 S   0  0  0  0  0  0  0  0  0  0  0  0
   -4.9975    1.9452    1.2638 C   0  0  0  0  0  0  0  0  0  0  0  0
   -5.8831    3.0352    1.3492 C   0  0  0  0  0  0  0  0  0  0  0  0
   -5.3693    4.3309    1.2550 C   0  0  0  0  0  0  0  0  0  0  0  0
   -4.0095    4.5542    1.0775 C   0  0  0  0  0  0  0  0  0  0  0  0
   -3.6527    5.8725    0.9969 O   0  0  0  0  0  0  0  0  0  0  0  0
   -2.2750    6.1555    0.7850 C   0  0  0  0  0  0  0  0  0  0  0  0
   -3.1386    3.4637    0.9977 C   0  0  0  0  0  0  0  0  0  0  0  0
   -3.6248    2.1288    1.0956 C   0  0  0  0  0  0  0  0  0  0  0  0
   -2.9249    0.8613    1.0445 C   0  0  0  0  0  0  0  0  0  0  0  0
   -1.4824    0.6934    0.8926 C   0  0  0  0  0  0  0  0  0  0  0  0
   -0.9476    0.1306   -0.2710 C   0  0  0  0  0  0  0  0  0  0  0  0
    0.4360   -0.0322   -0.4077 C   0  0  0  0  0  0  0  0  0  0  0  0
    1.2943    0.3718    0.6155 C   0  0  0  0  0  0  0  0  0  0  0  0
    2.6579    0.2705    0.6095 O   0  0  0  0  0  0  0  0  0  0  0  0
    3.2559   -0.3984   -0.5059 C   0  0  0  0  0  0  0  0  0  0  0  0
    4.7725   -0.4682   -0.2570 C   0  0  0  0  0  0  0  0  0  0  0  0
    5.5074   -1.1743   -1.3181 N   0  0  0  0  0  0  0  0  0  0  0  0
    5.6438   -0.3843   -2.5613 C   0  0  0  0  0  0  0  0  0  0  0  0
    7.0430    0.2210   -2.7633 C   0  0  0  0  0  0  0  0  0  0  0  0
    8.0855   -0.7612   -2.7895 O   0  0  0  0  0  0  0  0  0  0  0  0
    7.7932   -1.9145   -1.9891 C   0  0  0  0  0  0  0  0  0  0  0  0
    6.8358   -1.6063   -0.8293 C   0  0  0  0  0  0  0  0  0  0  0  0
    0.7584    0.9435    1.7725 C   0  0  0  0  0  0  0  0  0  0  0  0
   -0.6217    1.1044    1.9146 C   0  0  0  0  0  0  0  0  0  0  0  0
   -4.0117   -2.4993    0.1491 C   0  0  0  0  0  0  0  0  0  0  0  0
   -5.3188   -5.1415   -2.4259 H   0  0  0  0  0  0  0  0  0  0  0  0
   -4.5495   -3.5500   -2.4227 H   0  0  0  0  0  0  0  0  0  0  0  0
   -5.9653   -3.8938   -1.3527 H   0  0  0  0  0  0  0  0  0  0  0  0
   -2.6733   -5.4613    1.1348 H   0  0  0  0  0  0  0  0  0  0  0  0
   -1.7486   -4.0078    2.9137 H   0  0  0  0  0  0  0  0  0  0  0  0
   -2.2653   -1.5929    2.9370 H   0  0  0  0  0  0  0  0  0  0  0  0
   -6.9490    2.8762    1.4847 H   0  0  0  0  0  0  0  0  0  0  0  0
   -6.0483    5.1785    1.3189 H   0  0  0  0  0  0  0  0  0  0  0  0
   -1.6656    5.7991    1.6222 H   0  0  0  0  0  0  0  0  0  0  0  0
   -1.9271    5.7368   -0.1650 H   0  0  0  0  0  0  0  0  0  0  0  0
   -2.1621    7.2425    0.7302 H   0  0  0  0  0  0  0  0  0  0  0  0
   -2.0727    3.6048    0.8555 H   0  0  0  0  0  0  0  0  0  0  0  0
   -1.6023   -0.1899   -1.0784 H   0  0  0  0  0  0  0  0  0  0  0  0
    0.8063   -0.4785   -1.3246 H   0  0  0  0  0  0  0  0  0  0  0  0
    2.8576   -1.4173   -0.5910 H   0  0  0  0  0  0  0  0  0  0  0  0
    3.0447    0.1630   -1.4224 H   0  0  0  0  0  0  0  0  0  0  0  0
    5.1751    0.5413   -0.0983 H   0  0  0  0  0  0  0  0  0  0  0  0
    4.9111   -0.9930    0.6987 H   0  0  0  0  0  0  0  0  0  0  0  0
    5.4452   -1.0727   -3.3928 H   0  0  0  0  0  0  0  0  0  0  0  0
    4.8923    0.4095   -2.6329 H   0  0  0  0  0  0  0  0  0  0  0  0
    7.2709    0.9420   -1.9699 H   0  0  0  0  0  0  0  0  0  0  0  0
    7.0819    0.7632   -3.7132 H   0  0  0  0  0  0  0  0  0  0  0  0
    7.3774   -2.6887   -2.6440 H   0  0  0  0  0  0  0  0  0  0  0  0
    8.7448   -2.2933   -1.6015 H   0  0  0  0  0  0  0  0  0  0  0  0
    6.7147   -2.5007   -0.2089 H   0  0  0  0  0  0  0  0  0  0  0  0
    7.2871   -0.8218   -0.2080 H   0  0  0  0  0  0  0  0  0  0  0  0
    1.4215    1.2600    2.5739 H   0  0  0  0  0  0  0  0  0  0  0  0
   -1.0165    1.5423    2.8283 H   0  0  0  0  0  0  0  0  0  0  0  0
   -4.6331   -2.0548   -0.6214 H   0  0  0  0  0  0  0  0  0  0  0  0
  1  2  1  0
  2  3  1  0
  3  4  2  0
  4  5  1  0
  5  6  2  0
  6  7  1  0
  7  8  1  0
  8  9  1  0
  9 10  1  0
 10 11  2  0
 11 12  1  0
 12 13  2  0
 13 14  1  0
 14 15  1  0
 13 16  1  0
 16 17  2  0
 17 18  1  0
 18 19  1  0
 19 20  2  0
 20 21  1  0
 21 22  2  0
 22 23  1  0
 23 24  1  0
 24 25  1  0
 25 26  1  0
 26 27  1  0
 27 28  1  0
 28 29  1  0
 29 30  1  0
 30 31  1  0
 22 32  1  0
 32 33  2  0
  7 34  2  0
 34  3  1  0
 18  8  2  0
 33 19  1  0
 17 10  1  0
 31 26  1  0
  1 35  1  0
  1 36  1  0
  1 37  1  0
  4 38  1  0
  5 39  1  0
  6 40  1  0
 11 41  1  0
 12 42  1  0
 15 43  1  0
 15 44  1  0
 15 45  1  0
 16 46  1  0
 20 47  1  0
 21 48  1  0
 24 49  1  0
 24 50  1  0
 25 51  1  0
 25 52  1  0
 27 53  1  0
 27 54  1  0
 28 55  1  0
 28 56  1  0
 30 57  1  0
 30 58  1  0
 31 59  1  0
 31 60  1  0
 32 61  1  0
 33 62  1  0
 34 63  1  0
M  END
$$$$
