
     RDKit          3D

 67 72  0  0  0  0  0  0  0  0999 V2000
   -2.8813    1.8551    1.7724 O   0  0  0  0  0  0  0  0  0  0  0  0
   -2.4494    0.9809    1.0179 C   0  0  0  0  0  0  0  0  0  0  0  0
   -3.2993    0.4114   -0.1413 C   0  0  0  0  0  0  0  0  0  0  0  0
   -4.7914    0.6928    0.1074 C   0  0  0  0  0  0  0  0  0  0  0  0
   -5.6741    0.2951   -1.0557 C   0  0  0  0  0  0  0  0  0  0  0  0
   -6.3866   -0.9115   -1.0244 C   0  0  0  0  0  0  0  0  0  0  0  0
   -7.1830   -1.2897   -2.1057 C   0  0  0  0  0  0  0  0  0  0  0  0
   -7.2748   -0.4667   -3.2262 C   0  0  0  0  0  0  0  0  0  0  0  0
   -6.5728    0.7363   -3.2665 C   0  0  0  0  0  0  0  0  0  0  0  0
   -5.7749    1.1167   -2.1866 C   0  0  0  0  0  0  0  0  0  0  0  0
   -3.0634   -1.0296   -0.2673 N   0  0  0  0  0  0  0  0  0  0  0  0
   -1.7043   -1.3140   -0.4525 C   0  0  0  0  0  0  0  0  0  0  0  0
   -1.4457   -2.3550   -1.2545 N   0  0  0  0  0  0  0  0  0  0  0  0
   -0.1575   -2.6686   -1.3974 C   0  0  0  0  0  0  0  0  0  0  0  0
    0.8790   -2.0136   -0.8622 N   0  0  0  0  0  0  0  0  0  0  0  0
    0.6032   -0.9456   -0.0813 C   0  0  0  0  0  0  0  0  0  0  0  0
    1.7019   -0.1461    0.3122 N   0  0  0  0  0  0  0  0  0  0  0  0
    2.9754   -0.8988    0.4467 C   0  0  0  0  0  0  0  0  0  0  0  0
    3.9098   -0.7569   -0.7755 C   0  0  0  0  0  0  0  0  0  0  0  0
    4.2203    0.6623   -1.0502 N   0  0  0  0  0  0  0  0  0  0  0  0
    5.4525    1.0483   -1.5503 C   0  0  0  0  0  0  0  0  0  0  0  0
    6.2629    0.1625   -2.2803 C   0  0  0  0  0  0  0  0  0  0  0  0
    7.5122    0.5424   -2.7878 C   0  0  0  0  0  0  0  0  0  0  0  0
    7.9861    1.8314   -2.5811 C   0  0  0  0  0  0  0  0  0  0  0  0
    7.2068    2.7363   -1.8716 C   0  0  0  0  0  0  0  0  0  0  0  0
    5.9588    2.3459   -1.3683 C   0  0  0  0  0  0  0  0  0  0  0  0
    3.2205    1.6459   -0.5989 C   0  0  0  0  0  0  0  0  0  0  0  0
    1.8019    1.0334   -0.5926 C   0  0  0  0  0  0  0  0  0  0  0  0
   -0.7185   -0.5695    0.2080 C   0  0  0  0  0  0  0  0  0  0  0  0
   -1.1313    0.5000    1.0840 N   0  0  0  0  0  0  0  0  0  0  0  0
   -0.3488    0.8476    2.2695 C   0  0  0  0  0  0  0  0  0  0  0  0
   -0.5327   -0.1482    3.3975 C   0  0  0  0  0  0  0  0  0  0  0  0
    0.3628   -1.2137    3.5681 C   0  0  0  0  0  0  0  0  0  0  0  0
    0.1749   -2.1437    4.5914 C   0  0  0  0  0  0  0  0  0  0  0  0
   -0.9084   -2.0173    5.4591 C   0  0  0  0  0  0  0  0  0  0  0  0
   -1.8077   -0.9655    5.2993 C   0  0  0  0  0  0  0  0  0  0  0  0
   -1.6242   -0.0397    4.2711 C   0  0  0  0  0  0  0  0  0  0  0  0
   -2.9814    0.9237   -1.0596 H   0  0  0  0  0  0  0  0  0  0  0  0
   -4.9513    1.7619    0.3000 H   0  0  0  0  0  0  0  0  0  0  0  0
   -5.1273    0.1790    1.0179 H   0  0  0  0  0  0  0  0  0  0  0  0
   -6.3226   -1.5648   -0.1566 H   0  0  0  0  0  0  0  0  0  0  0  0
   -7.7334   -2.2262   -2.0729 H   0  0  0  0  0  0  0  0  0  0  0  0
   -7.8967   -0.7618   -4.0673 H   0  0  0  0  0  0  0  0  0  0  0  0
   -6.6496    1.3801   -4.1393 H   0  0  0  0  0  0  0  0  0  0  0  0
   -5.2374    2.0612   -2.2329 H   0  0  0  0  0  0  0  0  0  0  0  0
   -3.5879   -1.5099   -0.9948 H   0  0  0  0  0  0  0  0  0  0  0  0
    0.0729   -3.5277   -2.0179 H   0  0  0  0  0  0  0  0  0  0  0  0
    3.4918   -0.4829    1.3222 H   0  0  0  0  0  0  0  0  0  0  0  0
    2.8110   -1.9571    0.6862 H   0  0  0  0  0  0  0  0  0  0  0  0
    3.4488   -1.1989   -1.6664 H   0  0  0  0  0  0  0  0  0  0  0  0
    4.8217   -1.3213   -0.5467 H   0  0  0  0  0  0  0  0  0  0  0  0
    5.9220   -0.8473   -2.4925 H   0  0  0  0  0  0  0  0  0  0  0  0
    8.1074   -0.1730   -3.3485 H   0  0  0  0  0  0  0  0  0  0  0  0
    8.9547    2.1297   -2.9719 H   0  0  0  0  0  0  0  0  0  0  0  0
    7.5657    3.7477   -1.7017 H   0  0  0  0  0  0  0  0  0  0  0  0
    5.3960    3.0856   -0.8054 H   0  0  0  0  0  0  0  0  0  0  0  0
    3.4789    1.9950    0.4082 H   0  0  0  0  0  0  0  0  0  0  0  0
    3.2006    2.5118   -1.2716 H   0  0  0  0  0  0  0  0  0  0  0  0
    1.0887    1.8017   -0.2724 H   0  0  0  0  0  0  0  0  0  0  0  0
    1.5486    0.7538   -1.6253 H   0  0  0  0  0  0  0  0  0  0  0  0
   -0.6666    1.8339    2.6323 H   0  0  0  0  0  0  0  0  0  0  0  0
    0.7089    0.9853    2.0497 H   0  0  0  0  0  0  0  0  0  0  0  0
    1.2121   -1.3303    2.9002 H   0  0  0  0  0  0  0  0  0  0  0  0
    0.8734   -2.9679    4.7115 H   0  0  0  0  0  0  0  0  0  0  0  0
   -1.0539   -2.7407    6.2570 H   0  0  0  0  0  0  0  0  0  0  0  0
   -2.6535   -0.8634    5.9756 H   0  0  0  0  0  0  0  0  0  0  0  0
   -2.3405    0.7720    4.1567 H   0  0  0  0  0  0  0  0  0  0  0  0
  1  2  2  0
  2  3  1  0
  3  4  1  0
  4  5  1  0
  5  6  2  0
  6  7  1  0
  7  8  2  0
  8  9  1  0
  9 10  2  0
  3 11  1  0
 11 12  1  0
 12 13  2  0
 13 14  1  0
 14 15  2  0
 15 16  1  0
 16 17  1  0
 17 18  1  0
 18 19  1  0
 19 20  1  0
 20 21  1  0
 21 22  2  0
 22 23  1  0
 23 24  2  0
 24 25  1  0
 25 26  2  0
 20 27  1  0
 27 28  1  0
 16 29  2  0
 29 30  1  0
 30 31  1  0
 31 32  1  0
 32 33  2  0
 33 34  1  0
 34 35  2  0
 35 36  1  0
 36 37  2  0
 30  2  1  0
 37 32  1  0
 10  5  1  0
 29 12  1  0
 28 17  1  0
 26 21  1  0
  3 38  1  0
  4 39  1  0
  4 40  1  0
  6 41  1  0
  7 42  1  0
  8 43  1  0
  9 44  1  0
 10 45  1  0
 11 46  1  0
 14 47  1  0
 18 48  1  0
 18 49  1  0
 19 50  1  0
 19 51  1  0
 22 52  1  0
 23 53  1  0
 24 54  1  0
 25 55  1  0
 26 56  1  0
 27 57  1  0
 27 58  1  0
 28 59  1  0
 28 60  1  0
 31 61  1  0
 31 62  1  0
 33 63  1  0
 34 64  1  0
 35 65  1  0
 36 66  1  0
 37 67  1  0
M  END
$$$$
