
     RDKit          3D

 50 53  0  0  0  0  0  0  0  0999 V2000
    7.4822    2.0095   -1.3784 C   0  0  0  0  0  0  0  0  0  0  0  0
    6.3191    1.1639   -0.9641 C   0  0  0  0  0  0  0  0  0  0  0  0
    5.0131    1.5834   -1.2114 C   0  0  0  0  0  0  0  0  0  0  0  0
    3.9228    0.8604   -0.8594 N   0  0  0  0  0  0  0  0  0  0  0  0
    4.2000   -0.3243   -0.2416 C   0  0  0  0  0  0  0  0  0  0  0  0
    3.0405   -1.1634    0.1694 C   0  0  0  0  0  0  0  0  0  0  0  0
    3.1954   -2.2190    0.7710 O   0  0  0  0  0  0  0  0  0  0  0  0
    1.8121   -0.6438   -0.1744 N   0  0  0  0  0  0  0  0  0  0  0  0
    0.5701   -1.2395    0.2621 C   0  0  0  0  0  0  0  0  0  0  0  0
    0.2673   -0.8604    1.7312 C   0  0  0  0  0  0  0  0  0  0  0  0
   -1.2221   -1.0619    2.1384 C   0  0  0  0  0  0  0  0  0  0  0  0
   -1.6094   -2.5528    2.0580 C   0  0  0  0  0  0  0  0  0  0  0  0
   -1.4033   -0.6029    3.5978 C   0  0  0  0  0  0  0  0  0  0  0  0
   -2.1564   -0.2061    1.2251 C   0  0  0  0  0  0  0  0  0  0  0  0
   -1.7446   -0.2904   -0.2080 C   0  0  0  0  0  0  0  0  0  0  0  0
   -0.5192   -0.7691   -0.6383 C   0  0  0  0  0  0  0  0  0  0  0  0
   -0.6160   -0.7878   -2.0331 C   0  0  0  0  0  0  0  0  0  0  0  0
   -1.7876   -0.3303   -2.4659 N   0  0  0  0  0  0  0  0  0  0  0  0
   -2.4771    0.0353   -1.3438 N   0  0  0  0  0  0  0  0  0  0  0  0
   -3.7576    0.6550   -1.4937 C   0  0  0  0  0  0  0  0  0  0  0  0
   -4.4250    1.2843   -0.4370 C   0  0  0  0  0  0  0  0  0  0  0  0
   -5.6779    1.8757   -0.6411 C   0  0  0  0  0  0  0  0  0  0  0  0
   -6.2729    1.8524   -1.8999 C   0  0  0  0  0  0  0  0  0  0  0  0
   -5.6135    1.2452   -2.9634 C   0  0  0  0  0  0  0  0  0  0  0  0
   -4.3629    0.6548   -2.7642 C   0  0  0  0  0  0  0  0  0  0  0  0
    5.4934   -0.7507    0.0109 C   0  0  0  0  0  0  0  0  0  0  0  0
    6.5785   -0.0155   -0.3447 N   0  0  0  0  0  0  0  0  0  0  0  0
    8.4283    1.5298   -1.1076 H   0  0  0  0  0  0  0  0  0  0  0  0
    7.4741    2.1592   -2.4625 H   0  0  0  0  0  0  0  0  0  0  0  0
    7.4388    2.9830   -0.8804 H   0  0  0  0  0  0  0  0  0  0  0  0
    4.8075    2.5270   -1.7072 H   0  0  0  0  0  0  0  0  0  0  0  0
    1.8126    0.2924   -0.5723 H   0  0  0  0  0  0  0  0  0  0  0  0
    0.6603   -2.3298    0.1813 H   0  0  0  0  0  0  0  0  0  0  0  0
    0.9262   -1.4342    2.3962 H   0  0  0  0  0  0  0  0  0  0  0  0
    0.5303    0.1959    1.8915 H   0  0  0  0  0  0  0  0  0  0  0  0
   -1.5605   -2.9426    1.0366 H   0  0  0  0  0  0  0  0  0  0  0  0
   -0.9436   -3.1638    2.6779 H   0  0  0  0  0  0  0  0  0  0  0  0
   -2.6330   -2.7114    2.4164 H   0  0  0  0  0  0  0  0  0  0  0  0
   -2.4451   -0.7116    3.9197 H   0  0  0  0  0  0  0  0  0  0  0  0
   -1.1253    0.4499    3.7206 H   0  0  0  0  0  0  0  0  0  0  0  0
   -0.7789   -1.1924    4.2785 H   0  0  0  0  0  0  0  0  0  0  0  0
   -3.1907   -0.5433    1.3560 H   0  0  0  0  0  0  0  0  0  0  0  0
   -2.0926    0.8445    1.5354 H   0  0  0  0  0  0  0  0  0  0  0  0
    0.1147   -1.1283   -2.7560 H   0  0  0  0  0  0  0  0  0  0  0  0
   -4.0000    1.3740    0.5530 H   0  0  0  0  0  0  0  0  0  0  0  0
   -6.1863    2.3652    0.1863 H   0  0  0  0  0  0  0  0  0  0  0  0
   -7.2447    2.3141   -2.0536 H   0  0  0  0  0  0  0  0  0  0  0  0
   -6.0679    1.2288   -3.9508 H   0  0  0  0  0  0  0  0  0  0  0  0
   -3.8730    0.1854   -3.6163 H   0  0  0  0  0  0  0  0  0  0  0  0
    5.6997   -1.6940    0.5051 H   0  0  0  0  0  0  0  0  0  0  0  0
  1  2  1  0
  2  3  2  0
  3  4  1  0
  4  5  2  0
  5  6  1  0
  6  7  2  0
  6  8  1  0
  8  9  1  0
  9 10  1  0
 10 11  1  0
 11 12  1  0
 11 13  1  0
 11 14  1  0
 14 15  1  0
 15 16  2  0
 16 17  1  0
 17 18  2  0
 18 19  1  0
 19 20  1  0
 20 21  2  0
 21 22  1  0
 22 23  2  0
 23 24  1  0
 24 25  2  0
  5 26  1  0
 26 27  2  0
 27  2  1  0
 16  9  1  0
 25 20  1  0
 19 15  1  0
  1 28  1  0
  1 29  1  0
  1 30  1  0
  3 31  1  0
  8 32  1  0
  9 33  1  0
 10 34  1  0
 10 35  1  0
 12 36  1  0
 12 37  1  0
 12 38  1  0
 13 39  1  0
 13 40  1  0
 13 41  1  0
 14 42  1  0
 14 43  1  0
 17 44  1  0
 21 45  1  0
 22 46  1  0
 23 47  1  0
 24 48  1  0
 25 49  1  0
 26 50  1  0
M  END
$$$$
