
     RDKit          3D

 44 46  0  0  0  0  0  0  0  0999 V2000
    4.2147   -2.2380   -0.6315 C   0  0  0  0  0  0  0  0  0  0  0  0
    3.3630   -1.0900   -0.6375 O   0  0  0  0  0  0  0  0  0  0  0  0
    2.1607   -1.2908   -1.2503 C   0  0  0  0  0  0  0  0  0  0  0  0
    1.8170   -2.3345   -1.7857 O   0  0  0  0  0  0  0  0  0  0  0  0
    1.3267   -0.0313   -1.1831 C   0  0  0  0  0  0  0  0  0  0  0  0
    0.1819   -0.0750   -2.1751 C   0  0  0  0  0  0  0  0  0  0  0  0
    0.4995    0.2472   -3.6152 C   0  0  0  0  0  0  0  0  0  0  0  0
   -1.0442   -0.3797   -1.8753 N   0  0  0  0  0  0  0  0  0  0  0  0
   -1.3572   -0.7161   -0.5804 C   0  0  0  0  0  0  0  0  0  0  0  0
   -0.5361   -0.4632    0.4445 C   0  0  0  0  0  0  0  0  0  0  0  0
   -0.9228   -0.8793    1.8063 C   0  0  0  0  0  0  0  0  0  0  0  0
   -0.1182   -0.7569    2.7284 O   0  0  0  0  0  0  0  0  0  0  0  0
   -2.1878   -1.4034    1.9497 N   0  0  0  0  0  0  0  0  0  0  0  0
   -2.6424   -1.7868    3.2728 C   0  0  0  0  0  0  0  0  0  0  0  0
   -3.0551   -1.6458    0.8925 C   0  0  0  0  0  0  0  0  0  0  0  0
   -4.1699   -2.1399    1.0776 O   0  0  0  0  0  0  0  0  0  0  0  0
   -2.5872   -1.3053   -0.3701 N   0  0  0  0  0  0  0  0  0  0  0  0
   -3.4550   -1.5530   -1.5180 C   0  0  0  0  0  0  0  0  0  0  0  0
    0.8083    0.1809    0.2486 C   0  0  0  0  0  0  0  0  0  0  0  0
    0.7846    1.6632    0.6320 C   0  0  0  0  0  0  0  0  0  0  0  0
    1.5051    2.0926    1.7606 C   0  0  0  0  0  0  0  0  0  0  0  0
    1.5025    3.4361    2.1432 C   0  0  0  0  0  0  0  0  0  0  0  0
    0.7762    4.3645    1.4035 C   0  0  0  0  0  0  0  0  0  0  0  0
    0.7725    6.0193    1.8722 Cl  0  0  0  0  0  0  0  0  0  0  0  0
    0.0471    3.9591    0.2885 C   0  0  0  0  0  0  0  0  0  0  0  0
    0.0467    2.6145   -0.0936 C   0  0  0  0  0  0  0  0  0  0  0  0
    4.3843   -2.6042   -1.6487 H   0  0  0  0  0  0  0  0  0  0  0  0
    3.7831   -3.0232   -0.0038 H   0  0  0  0  0  0  0  0  0  0  0  0
    5.1755   -1.9414   -0.2055 H   0  0  0  0  0  0  0  0  0  0  0  0
    1.9859    0.7916   -1.4928 H   0  0  0  0  0  0  0  0  0  0  0  0
    1.2537   -0.4507   -3.9887 H   0  0  0  0  0  0  0  0  0  0  0  0
    0.8894    1.2673   -3.6788 H   0  0  0  0  0  0  0  0  0  0  0  0
   -0.3977    0.1693   -4.2357 H   0  0  0  0  0  0  0  0  0  0  0  0
   -2.8954   -2.8515    3.2705 H   0  0  0  0  0  0  0  0  0  0  0  0
   -3.5451   -1.2180    3.5148 H   0  0  0  0  0  0  0  0  0  0  0  0
   -1.8906   -1.6015    4.0433 H   0  0  0  0  0  0  0  0  0  0  0  0
   -3.7523   -0.5951   -1.9551 H   0  0  0  0  0  0  0  0  0  0  0  0
   -4.3615   -2.0957   -1.2392 H   0  0  0  0  0  0  0  0  0  0  0  0
   -2.9209   -2.1551   -2.2603 H   0  0  0  0  0  0  0  0  0  0  0  0
    1.5158   -0.3146    0.9277 H   0  0  0  0  0  0  0  0  0  0  0  0
    2.0642    1.3779    2.3643 H   0  0  0  0  0  0  0  0  0  0  0  0
    2.0617    3.7457    3.0227 H   0  0  0  0  0  0  0  0  0  0  0  0
   -0.5298    4.6822   -0.2831 H   0  0  0  0  0  0  0  0  0  0  0  0
   -0.5509    2.3284   -0.9565 H   0  0  0  0  0  0  0  0  0  0  0  0
  1  2  1  0
  2  3  1  0
  3  4  2  0
  3  5  1  0
  5  6  1  0
  6  7  1  0
  6  8  2  0
  8  9  1  0
  9 10  2  0
 10 11  1  0
 11 12  2  0
 11 13  1  0
 13 14  1  0
 13 15  1  0
 15 16  2  0
 15 17  1  0
 17 18  1  0
 10 19  1  0
 19 20  1  0
 20 21  2  0
 21 22  1  0
 22 23  2  0
 23 24  1  0
 23 25  1  0
 25 26  2  0
 19  5  1  0
 26 20  1  0
 17  9  1  0
  1 27  1  0
  1 28  1  0
  1 29  1  0
  5 30  1  0
  7 31  1  0
  7 32  1  0
  7 33  1  0
 14 34  1  0
 14 35  1  0
 14 36  1  0
 18 37  1  0
 18 38  1  0
 18 39  1  0
 19 40  1  0
 21 41  1  0
 22 42  1  0
 25 43  1  0
 26 44  1  0
M  END
$$$$
