
     RDKit          3D

 52 57  0  0  0  0  0  0  0  0999 V2000
   -6.0525   -2.4825    0.3121 C   0  0  0  0  0  0  0  0  0  0  0  0
   -4.6608   -1.9171    0.2614 C   0  0  0  0  0  0  0  0  0  0  0  0
   -3.7822   -2.1061    1.3399 C   0  0  0  0  0  0  0  0  0  0  0  0
   -2.5011   -1.5559    1.3120 C   0  0  0  0  0  0  0  0  0  0  0  0
   -2.1252   -0.8073    0.2034 C   0  0  0  0  0  0  0  0  0  0  0  0
   -0.7881   -0.2453    0.1579 N   0  0  0  0  0  0  0  0  0  0  0  0
   -0.4294    1.0989   -0.0626 C   0  0  0  0  0  0  0  0  0  0  0  0
   -1.3076    2.4169   -0.0832 C   0  0  0  0  0  0  0  0  0  0  0  0
   -0.7623    3.6041   -0.5930 C   0  0  0  0  0  0  0  0  0  0  0  0
   -1.5212    4.7790   -0.6142 C   0  0  0  0  0  0  0  0  0  0  0  0
   -2.8202    4.7742   -0.1147 C   0  0  0  0  0  0  0  0  0  0  0  0
   -3.8448    6.3603   -0.1415 Br  0  0  0  0  0  0  0  0  0  0  0  0
   -3.3637    3.6064    0.4129 C   0  0  0  0  0  0  0  0  0  0  0  0
   -2.6062    2.4301    0.4335 C   0  0  0  0  0  0  0  0  0  0  0  0
    0.9405    1.0703   -0.2343 C   0  0  0  0  0  0  0  0  0  0  0  0
    1.3871   -0.2191   -0.0259 N   0  0  0  0  0  4  0  0  0  0  0  0
    0.3242   -1.0113    0.1925 C   0  0  0  0  0  0  0  0  0  0  0  0
    0.4587   -2.4856    0.4004 C   0  0  0  0  0  0  0  0  0  0  0  0
    1.6843   -3.0363   -0.3002 C   0  0  0  0  0  0  0  0  0  0  0  0
    2.8840   -2.1492   -0.0960 C   0  0  0  0  0  0  0  0  0  0  0  0
    4.1589   -2.7132   -0.0957 C   0  0  0  0  0  0  0  0  0  0  0  0
    5.2808   -1.8954    0.0155 C   0  0  0  0  0  0  0  0  0  0  0  0
    5.1528   -0.4998    0.1194 C   0  0  0  0  0  0  0  0  0  0  0  0
    6.2951    0.3027    0.2408 C   0  0  0  0  0  0  0  0  0  0  0  0
    6.1720    1.6792    0.3577 C   0  0  0  0  0  0  0  0  0  0  0  0
    4.9023    2.2120    0.3492 C   0  0  0  0  0  0  0  0  0  0  0  0
    3.7775    1.4691    0.2283 N   0  0  0  0  0  0  0  0  0  0  0  0
    3.8829    0.1186    0.1088 C   0  0  0  0  0  0  0  0  0  0  0  0
    2.7720   -0.7464   -0.0078 C   0  0  0  0  0  0  0  0  0  0  0  0
   -2.9750   -0.5894   -0.8748 C   0  0  0  0  0  0  0  0  0  0  0  0
   -4.2529   -1.1460   -0.8384 C   0  0  0  0  0  0  0  0  0  0  0  0
   -6.0751   -3.4116    0.8911 H   0  0  0  0  0  0  0  0  0  0  0  0
   -6.7323   -1.7599    0.7739 H   0  0  0  0  0  0  0  0  0  0  0  0
   -6.4146   -2.7179   -0.6942 H   0  0  0  0  0  0  0  0  0  0  0  0
   -4.1023   -2.6795    2.2093 H   0  0  0  0  0  0  0  0  0  0  0  0
   -1.8392   -1.6889    2.1606 H   0  0  0  0  0  0  0  0  0  0  0  0
    0.2443    3.6489   -1.0003 H   0  0  0  0  0  0  0  0  0  0  0  0
   -1.0912    5.6916   -1.0220 H   0  0  0  0  0  0  0  0  0  0  0  0
   -4.3722    3.6036    0.8217 H   0  0  0  0  0  0  0  0  0  0  0  0
   -3.0525    1.5586    0.8992 H   0  0  0  0  0  0  0  0  0  0  0  0
    1.6469    1.8502   -0.4531 H   0  0  0  0  0  0  0  0  0  0  0  0
    0.5261   -2.6109    1.4860 H   0  0  0  0  0  0  0  0  0  0  0  0
   -0.4441   -2.9731    0.0275 H   0  0  0  0  0  0  0  0  0  0  0  0
    1.4965   -3.0987   -1.3793 H   0  0  0  0  0  0  0  0  0  0  0  0
    1.8792   -4.0524    0.0616 H   0  0  0  0  0  0  0  0  0  0  0  0
    4.2966   -3.7900   -0.1899 H   0  0  0  0  0  0  0  0  0  0  0  0
    6.2680   -2.3588    0.0181 H   0  0  0  0  0  0  0  0  0  0  0  0
    7.2902   -0.1390    0.2502 H   0  0  0  0  0  0  0  0  0  0  0  0
    7.0451    2.3157    0.4563 H   0  0  0  0  0  0  0  0  0  0  0  0
    4.7479    3.2840    0.4429 H   0  0  0  0  0  0  0  0  0  0  0  0
   -2.6629   -0.0084   -1.7362 H   0  0  0  0  0  0  0  0  0  0  0  0
   -4.9344   -0.9792   -1.6719 H   0  0  0  0  0  0  0  0  0  0  0  0
  1  2  1  0
  2  3  2  0
  3  4  1  0
  4  5  2  0
  5  6  1  0
  6  7  1  0
  7  8  1  0
  8  9  2  0
  9 10  1  0
 10 11  2  0
 11 12  1  0
 11 13  1  0
 13 14  2  0
  7 15  2  0
 15 16  1  0
 16 17  2  0
 17 18  1  0
 18 19  1  0
 19 20  1  0
 20 21  2  0
 21 22  1  0
 22 23  2  0
 23 24  1  0
 24 25  2  0
 25 26  1  0
 26 27  2  0
 27 28  1  0
 28 29  2  0
  5 30  1  0
 30 31  2  0
 31  2  1  0
 17  6  1  0
 29 20  1  0
 14  8  1  0
 29 16  1  0
 28 23  1  0
  1 32  1  0
  1 33  1  0
  1 34  1  0
  3 35  1  0
  4 36  1  0
  9 37  1  0
 10 38  1  0
 13 39  1  0
 14 40  1  0
 15 41  1  0
 18 42  1  0
 18 43  1  0
 19 44  1  0
 19 45  1  0
 21 46  1  0
 22 47  1  0
 24 48  1  0
 25 49  1  0
 26 50  1  0
 30 51  1  0
 31 52  1  0
M  CHG  1  16   1
M  END
$$$$
