
     RDKit          3D

 37 40  0  0  0  0  0  0  0  0999 V2000
    2.2274    2.2886    0.3220 O   0  0  0  0  0  0  0  0  0  0  0  0
    2.9186    1.2969    0.2232 C   0  0  0  0  0  0  0  0  0  0  0  0
    4.2613    1.2421    0.4415 O   0  0  0  0  0  0  0  0  0  0  0  0
    4.6238   -0.0475    0.2399 C   0  0  0  0  0  0  0  0  0  0  0  0
    6.0165   -0.3074    0.4310 C   0  0  0  0  0  0  0  0  0  0  0  0
    7.0744    0.5095    0.7895 C   0  0  0  0  0  0  0  0  0  0  0  0
    8.2309   -0.3073    0.8218 C   0  0  0  0  0  0  0  0  0  0  0  0
    7.8138   -1.5715    0.4822 C   0  0  0  0  0  0  0  0  0  0  0  0
    6.4780   -1.5828    0.2439 O   0  0  0  0  0  0  0  0  0  0  0  0
    3.7020   -0.8889   -0.0954 N   0  0  0  0  0  0  0  0  0  0  0  0
    2.5677   -0.1109   -0.1370 C   0  0  0  0  0  0  0  0  0  0  0  0
    1.3705   -0.6329   -0.4321 C   0  0  0  0  0  0  0  0  0  0  0  0
    0.1298    0.0509   -0.5104 C   0  0  0  0  0  0  0  0  0  0  0  0
   -0.2158    1.3067   -0.9911 C   0  0  0  0  0  0  0  0  0  0  0  0
   -1.6171    1.4617   -0.8540 C   0  0  0  0  0  0  0  0  0  0  0  0
   -2.0888    0.2857   -0.3163 C   0  0  0  0  0  0  0  0  0  0  0  0
   -3.4090   -0.2123    0.0650 C   0  0  0  0  0  0  0  0  0  0  0  0
   -3.5779   -1.5040    0.5852 C   0  0  0  0  0  0  0  0  0  0  0  0
   -4.8410   -1.9750    0.9513 C   0  0  0  0  0  0  0  0  0  0  0  0
   -5.9604   -1.1598    0.8006 C   0  0  0  0  0  0  0  0  0  0  0  0
   -5.8277    0.1327    0.2761 C   0  0  0  0  0  0  0  0  0  0  0  0
   -7.0315    1.0300    0.1316 C   0  0  0  0  0  0  0  0  0  0  0  0
   -7.2445    1.7928    1.2388 F   0  0  0  0  0  0  0  0  0  0  0  0
   -8.1897    0.3443   -0.0794 F   0  0  0  0  0  0  0  0  0  0  0  0
   -6.9239    1.9034   -0.9089 F   0  0  0  0  0  0  0  0  0  0  0  0
   -4.5473    0.5966   -0.0799 C   0  0  0  0  0  0  0  0  0  0  0  0
   -1.0414   -0.5663   -0.1259 O   0  0  0  0  0  0  0  0  0  0  0  0
    7.0158    1.5686    1.0024 H   0  0  0  0  0  0  0  0  0  0  0  0
    9.2429   -0.0125    1.0627 H   0  0  0  0  0  0  0  0  0  0  0  0
    8.3159   -2.5229    0.3709 H   0  0  0  0  0  0  0  0  0  0  0  0
    1.3191   -1.7068   -0.5967 H   0  0  0  0  0  0  0  0  0  0  0  0
    0.4642    2.0398   -1.4032 H   0  0  0  0  0  0  0  0  0  0  0  0
   -2.2013    2.3288   -1.1260 H   0  0  0  0  0  0  0  0  0  0  0  0
   -2.7192   -2.1607    0.7137 H   0  0  0  0  0  0  0  0  0  0  0  0
   -4.9470   -2.9789    1.3558 H   0  0  0  0  0  0  0  0  0  0  0  0
   -6.9393   -1.5372    1.0932 H   0  0  0  0  0  0  0  0  0  0  0  0
   -4.4496    1.6067   -0.4758 H   0  0  0  0  0  0  0  0  0  0  0  0
  1  2  2  0
  2  3  1  0
  3  4  1  0
  4  5  1  0
  5  6  2  0
  6  7  1  0
  7  8  2  0
  8  9  1  0
  4 10  2  0
 10 11  1  0
 11 12  2  3
 12 13  1  0
 13 14  2  0
 14 15  1  0
 15 16  2  0
 16 17  1  0
 17 18  2  0
 18 19  1  0
 19 20  2  0
 20 21  1  0
 21 22  1  0
 22 23  1  0
 22 24  1  0
 22 25  1  0
 21 26  2  0
 16 27  1  0
 11  2  1  0
 27 13  1  0
  9  5  1  0
 26 17  1  0
  6 28  1  0
  7 29  1  0
  8 30  1  0
 12 31  1  0
 14 32  1  0
 15 33  1  0
 18 34  1  0
 19 35  1  0
 20 36  1  0
 26 37  1  0
M  END
$$$$
