
     RDKit          3D

 43 45  0  0  0  0  0  0  0  0999 V2000
   -3.0365   -3.0463   -0.0042 C   0  0  0  0  0  0  0  0  0  0  0  0
   -2.9117   -2.4905   -1.4206 C   0  0  0  0  0  0  0  0  0  0  0  0
   -3.7756   -3.3015   -2.3855 C   0  0  0  0  0  0  0  0  0  0  0  0
   -1.1712   -2.5817   -1.9987 S   0  0  0  0  0  0  0  0  0  0  0  0
   -0.4203   -1.2029   -1.1415 C   0  0  0  0  0  0  0  0  0  0  0  0
    0.9495   -1.0622   -1.2051 C   0  0  0  0  0  0  0  0  0  0  0  0
    1.5142    0.0077   -0.5408 C   0  0  0  0  0  0  0  0  0  0  0  0
    2.8862    0.2287   -0.5695 N   0  0  0  0  0  0  0  0  0  0  0  0
    3.8134   -0.9137   -0.4768 C   0  0  0  0  0  0  0  0  0  0  0  0
    4.8726   -0.6718    0.6128 C   0  0  0  0  0  0  0  0  0  0  0  0
    5.6403    0.5231    0.4172 O   0  0  0  0  0  0  0  0  0  0  0  0
    4.8843    1.5970   -0.1653 C   0  0  0  0  0  0  0  0  0  0  0  0
    3.3670    1.4775    0.0453 C   0  0  0  0  0  0  0  0  0  0  0  0
    0.7337    0.8864    0.1099 N   0  0  0  0  0  0  0  0  0  0  0  0
   -0.5960    0.6808    0.1217 C   0  0  0  0  0  0  0  0  0  0  0  0
   -1.4365    1.6502    0.8564 C   0  0  0  0  0  0  0  0  0  0  0  0
   -0.8720    2.7557    1.5247 C   0  0  0  0  0  0  0  0  0  0  0  0
   -1.6647    3.6749    2.2224 C   0  0  0  0  0  0  0  0  0  0  0  0
   -3.0443    3.5048    2.2650 C   0  0  0  0  0  0  0  0  0  0  0  0
   -4.0214    4.6317    3.1212 Cl  0  0  0  0  0  0  0  0  0  0  0  0
   -3.6359    2.4259    1.6170 C   0  0  0  0  0  0  0  0  0  0  0  0
   -2.8379    1.5099    0.9209 C   0  0  0  0  0  0  0  0  0  0  0  0
   -1.2098   -0.3460   -0.4827 N   0  0  0  0  0  0  0  0  0  0  0  0
   -2.4442   -2.4729    0.7158 H   0  0  0  0  0  0  0  0  0  0  0  0
   -2.7188   -4.0938    0.0505 H   0  0  0  0  0  0  0  0  0  0  0  0
   -4.0794   -3.0023    0.3295 H   0  0  0  0  0  0  0  0  0  0  0  0
   -3.2600   -1.4528   -1.4511 H   0  0  0  0  0  0  0  0  0  0  0  0
   -3.4853   -4.3582   -2.4075 H   0  0  0  0  0  0  0  0  0  0  0  0
   -4.8281   -3.2563   -2.0833 H   0  0  0  0  0  0  0  0  0  0  0  0
   -3.7139   -2.9053   -3.4053 H   0  0  0  0  0  0  0  0  0  0  0  0
    1.5514   -1.7549   -1.7778 H   0  0  0  0  0  0  0  0  0  0  0  0
    4.3079   -1.0240   -1.4487 H   0  0  0  0  0  0  0  0  0  0  0  0
    3.2999   -1.8540   -0.2466 H   0  0  0  0  0  0  0  0  0  0  0  0
    5.5749   -1.5110    0.6443 H   0  0  0  0  0  0  0  0  0  0  0  0
    4.3984   -0.6089    1.5995 H   0  0  0  0  0  0  0  0  0  0  0  0
    5.2540    2.5315    0.2685 H   0  0  0  0  0  0  0  0  0  0  0  0
    5.1180    1.6172   -1.2362 H   0  0  0  0  0  0  0  0  0  0  0  0
    3.1472    1.4768    1.1205 H   0  0  0  0  0  0  0  0  0  0  0  0
    2.8783    2.3447   -0.4147 H   0  0  0  0  0  0  0  0  0  0  0  0
    0.2063    2.9096    1.5053 H   0  0  0  0  0  0  0  0  0  0  0  0
   -1.1960    4.5159    2.7264 H   0  0  0  0  0  0  0  0  0  0  0  0
   -4.7134    2.2875    1.6459 H   0  0  0  0  0  0  0  0  0  0  0  0
   -3.3246    0.6735    0.4210 H   0  0  0  0  0  0  0  0  0  0  0  0
  1  2  1  0
  2  3  1  0
  2  4  1  0
  4  5  1  0
  5  6  2  0
  6  7  1  0
  7  8  1  0
  8  9  1  0
  9 10  1  0
 10 11  1  0
 11 12  1  0
 12 13  1  0
  7 14  2  0
 14 15  1  0
 15 16  1  0
 16 17  2  0
 17 18  1  0
 18 19  2  0
 19 20  1  0
 19 21  1  0
 21 22  2  0
 15 23  2  0
 23  5  1  0
 13  8  1  0
 22 16  1  0
  1 24  1  0
  1 25  1  0
  1 26  1  0
  2 27  1  0
  3 28  1  0
  3 29  1  0
  3 30  1  0
  6 31  1  0
  9 32  1  0
  9 33  1  0
 10 34  1  0
 10 35  1  0
 12 36  1  0
 12 37  1  0
 13 38  1  0
 13 39  1  0
 17 40  1  0
 18 41  1  0
 21 42  1  0
 22 43  1  0
M  END
$$$$
