
     RDKit          3D

 37 40  0  0  0  0  0  0  0  0999 V2000
   -2.3810    3.5802   -1.3310 C   0  0  0  0  0  0  0  0  0  0  0  0
   -3.0181    2.4126   -1.8344 O   0  0  0  0  0  0  0  0  0  0  0  0
   -2.7797    1.2405   -1.1747 C   0  0  0  0  0  0  0  0  0  0  0  0
   -3.3953    0.1238   -1.7253 C   0  0  0  0  0  0  0  0  0  0  0  0
   -3.2274   -1.1329   -1.1399 C   0  0  0  0  0  0  0  0  0  0  0  0
   -2.4516   -1.3144   -0.0057 C   0  0  0  0  0  0  0  0  0  0  0  0
   -2.3492   -2.5577    0.4904 N   0  0  0  0  0  0  0  0  0  0  0  0
   -1.5984   -2.7638    1.5935 C   0  0  0  0  0  0  0  0  0  0  0  0
   -1.5033   -4.1685    2.1080 C   0  0  0  0  0  0  0  0  0  0  0  0
   -0.9320   -1.7386    2.2400 C   0  0  0  0  0  0  0  0  0  0  0  0
   -1.0306   -0.4438    1.7262 C   0  0  0  0  0  0  0  0  0  0  0  0
   -0.1498    0.8484    2.6140 S   0  0  0  0  0  0  0  0  0  0  0  0
    1.2958    0.9015    1.6179 C   0  0  0  0  0  0  0  0  0  0  0  0
    1.8318   -0.1813    1.1056 N   0  0  0  0  0  0  0  0  0  0  0  0
    2.9502    0.1576    0.3644 C   0  0  0  0  0  0  0  0  0  0  0  0
    3.7731   -0.7395   -0.3460 C   0  0  0  0  0  0  0  0  0  0  0  0
    4.8783   -0.2573   -1.0548 C   0  0  0  0  0  0  0  0  0  0  0  0
    5.1718    1.1028   -1.0628 C   0  0  0  0  0  0  0  0  0  0  0  0
    4.3714    2.0137   -0.3663 C   0  0  0  0  0  0  0  0  0  0  0  0
    3.2632    1.5185    0.3409 C   0  0  0  0  0  0  0  0  0  0  0  0
    2.1020    2.3739    1.2815 S   0  0  0  0  0  0  0  0  0  0  0  0
   -1.8148   -0.1962    0.5709 C   0  0  0  0  0  0  0  0  0  0  0  0
   -1.9975    1.0805   -0.0316 C   0  0  0  0  0  0  0  0  0  0  0  0
   -2.7275    3.8125   -0.3186 H   0  0  0  0  0  0  0  0  0  0  0  0
   -2.6586    4.4178   -1.9781 H   0  0  0  0  0  0  0  0  0  0  0  0
   -1.2909    3.4810   -1.3637 H   0  0  0  0  0  0  0  0  0  0  0  0
   -4.0109    0.2248   -2.6155 H   0  0  0  0  0  0  0  0  0  0  0  0
   -3.7178   -1.9959   -1.5846 H   0  0  0  0  0  0  0  0  0  0  0  0
   -1.8893   -4.2239    3.1306 H   0  0  0  0  0  0  0  0  0  0  0  0
   -2.0891   -4.8524    1.4853 H   0  0  0  0  0  0  0  0  0  0  0  0
   -0.4621   -4.5054    2.0973 H   0  0  0  0  0  0  0  0  0  0  0  0
   -0.3330   -1.9480    3.1208 H   0  0  0  0  0  0  0  0  0  0  0  0
    3.5399   -1.7998   -0.3384 H   0  0  0  0  0  0  0  0  0  0  0  0
    5.5099   -0.9530   -1.6027 H   0  0  0  0  0  0  0  0  0  0  0  0
    6.0350    1.4639   -1.6186 H   0  0  0  0  0  0  0  0  0  0  0  0
    4.6021    3.0746   -0.3741 H   0  0  0  0  0  0  0  0  0  0  0  0
   -1.5167    1.9438    0.4138 H   0  0  0  0  0  0  0  0  0  0  0  0
  1  2  1  0
  2  3  1  0
  3  4  2  0
  4  5  1  0
  5  6  2  0
  6  7  1  0
  7  8  2  0
  8  9  1  0
  8 10  1  0
 10 11  2  0
 11 12  1  0
 12 13  1  0
 13 14  2  0
 14 15  1  0
 15 16  2  0
 16 17  1  0
 17 18  2  0
 18 19  1  0
 19 20  2  0
 20 21  1  0
 11 22  1  0
 22 23  2  0
 23  3  1  0
 22  6  1  0
 21 13  1  0
 20 15  1  0
  1 24  1  0
  1 25  1  0
  1 26  1  0
  4 27  1  0
  5 28  1  0
  9 29  1  0
  9 30  1  0
  9 31  1  0
 10 32  1  0
 16 33  1  0
 17 34  1  0
 18 35  1  0
 19 36  1  0
 23 37  1  0
M  END
$$$$
