
     RDKit          3D

 39 40  0  0  0  0  0  0  0  0999 V2000
   -3.1153   -2.0297    2.7259 C   0  0  0  0  0  0  0  0  0  0  0  0
   -2.2375   -0.8623    2.3040 C   0  0  0  0  0  0  0  0  0  0  0  0
   -2.0081   -0.8516    0.7930 C   0  0  0  0  0  0  0  0  0  0  0  0
   -1.1223    0.3249    0.3753 C   0  0  0  0  0  0  0  0  0  0  0  0
   -0.8992    0.3240   -1.0566 N   0  0  0  0  0  0  0  0  0  0  0  0
   -1.8000    0.5941   -2.0337 C   0  0  0  0  0  0  0  0  0  0  0  0
   -2.8201    1.4299   -1.7722 N   0  0  0  0  0  0  0  0  0  0  0  0
   -1.6067    0.0662   -3.2074 N   0  0  0  0  0  0  0  0  0  0  0  0
   -0.4193   -0.8141   -3.0112 C   0  0  0  0  0  0  0  0  0  0  0  0
    0.1890   -0.4571   -1.6353 C   0  0  0  0  0  0  0  0  0  0  0  0
    1.4624    0.3894   -1.8173 C   0  0  0  0  0  0  0  0  0  0  0  0
    2.2191    0.6425   -0.5330 C   0  0  0  0  0  0  0  0  0  0  0  0
    2.9952   -0.3697    0.0511 C   0  0  0  0  0  0  0  0  0  0  0  0
    3.6813   -0.1370    1.2454 C   0  0  0  0  0  0  0  0  0  0  0  0
    3.5899    1.1097    1.8556 C   0  0  0  0  0  0  0  0  0  0  0  0
    4.2413    1.3788    3.0228 O   0  0  0  0  0  0  0  0  0  0  0  0
    2.8272    2.1244    1.2912 C   0  0  0  0  0  0  0  0  0  0  0  0
    2.1435    1.8928    0.0972 C   0  0  0  0  0  0  0  0  0  0  0  0
   -4.0974   -1.9758    2.2455 H   0  0  0  0  0  0  0  0  0  0  0  0
   -2.6531   -2.9851    2.4575 H   0  0  0  0  0  0  0  0  0  0  0  0
   -3.2662   -2.0181    3.8099 H   0  0  0  0  0  0  0  0  0  0  0  0
   -1.2760   -0.9285    2.8264 H   0  0  0  0  0  0  0  0  0  0  0  0
   -2.7124    0.0755    2.6150 H   0  0  0  0  0  0  0  0  0  0  0  0
   -2.9740   -0.7981    0.2763 H   0  0  0  0  0  0  0  0  0  0  0  0
   -1.5407   -1.7953    0.4857 H   0  0  0  0  0  0  0  0  0  0  0  0
   -0.1695    0.2606    0.9101 H   0  0  0  0  0  0  0  0  0  0  0  0
   -1.5807    1.2725    0.6811 H   0  0  0  0  0  0  0  0  0  0  0  0
   -3.4866    1.4311   -2.5363 H   0  0  0  0  0  0  0  0  0  0  0  0
   -3.2691    1.2888   -0.8806 H   0  0  0  0  0  0  0  0  0  0  0  0
    0.2868   -0.6817   -3.8372 H   0  0  0  0  0  0  0  0  0  0  0  0
   -0.7596   -1.8562   -3.0193 H   0  0  0  0  0  0  0  0  0  0  0  0
    0.3953   -1.3718   -1.0674 H   0  0  0  0  0  0  0  0  0  0  0  0
    1.2209    1.3479   -2.2960 H   0  0  0  0  0  0  0  0  0  0  0  0
    2.1484   -0.1218   -2.5062 H   0  0  0  0  0  0  0  0  0  0  0  0
    3.0727   -1.3454   -0.4231 H   0  0  0  0  0  0  0  0  0  0  0  0
    4.2769   -0.9335    1.6796 H   0  0  0  0  0  0  0  0  0  0  0  0
    4.7566    0.5962    3.2770 H   0  0  0  0  0  0  0  0  0  0  0  0
    2.7648    3.0935    1.7776 H   0  0  0  0  0  0  0  0  0  0  0  0
    1.5424    2.6903   -0.3353 H   0  0  0  0  0  0  0  0  0  0  0  0
  1  2  1  0
  2  3  1  0
  3  4  1  0
  4  5  1  0
  5  6  1  0
  6  7  1  0
  6  8  2  0
  8  9  1  0
  9 10  1  0
 10 11  1  0
 11 12  1  0
 12 13  2  0
 13 14  1  0
 14 15  2  0
 15 16  1  0
 15 17  1  0
 17 18  2  0
 10  5  1  0
 18 12  1  0
  1 19  1  0
  1 20  1  0
  1 21  1  0
  2 22  1  0
  2 23  1  0
  3 24  1  0
  3 25  1  0
  4 26  1  0
  4 27  1  0
  7 28  1  0
  7 29  1  0
  9 30  1  0
  9 31  1  0
 10 32  1  0
 11 33  1  0
 11 34  1  0
 13 35  1  0
 14 36  1  0
 16 37  1  0
 17 38  1  0
 18 39  1  0
M  END
$$$$
