
     RDKit          3D

 52 55  0  0  0  0  0  0  0  0999 V2000
    7.0216    1.9619    1.8184 C   0  0  0  0  0  0  0  0  0  0  0  0
    6.0953    0.9042    1.2894 C   0  0  0  0  0  0  0  0  0  0  0  0
    6.5129    0.0623    0.2479 C   0  0  0  0  0  0  0  0  0  0  0  0
    5.6667   -0.9161   -0.2860 C   0  0  0  0  0  0  0  0  0  0  0  0
    4.3896   -0.9996    0.2602 C   0  0  0  0  0  0  0  0  0  0  0  0
    3.4281   -1.8788   -0.1220 O   0  0  0  0  0  0  0  0  0  0  0  0
    2.3203   -1.6300    0.6388 C   0  0  0  0  0  0  0  0  0  0  0  0
    1.1458   -2.4446    0.4011 C   0  0  0  0  0  0  0  0  0  0  0  0
    1.1580   -3.6668    0.5473 O   0  0  0  0  0  0  0  0  0  0  0  0
   -0.0277   -1.7815    0.0091 N   0  0  0  0  0  0  0  0  0  0  0  0
   -1.2486   -2.5714   -0.1050 C   0  0  0  0  0  0  0  0  0  0  0  0
   -2.4943   -1.6951   -0.0881 C   0  0  0  0  0  0  0  0  0  0  0  0
   -2.4853   -0.6698   -1.2427 C   0  0  0  0  0  0  0  0  0  0  0  0
   -3.0856   -1.2835   -2.3989 O   0  0  0  0  0  0  0  0  0  0  0  0
   -3.3979    0.5020   -0.8594 C   0  0  0  0  0  0  0  0  0  0  0  0
   -2.9089    1.7129   -0.3444 C   0  0  0  0  0  0  0  0  0  0  0  0
   -3.7760    2.7479    0.0177 C   0  0  0  0  0  0  0  0  0  0  0  0
   -5.1532    2.5919   -0.1180 C   0  0  0  0  0  0  0  0  0  0  0  0
   -5.6812    1.3930   -0.6097 C   0  0  0  0  0  0  0  0  0  0  0  0
   -7.1696    1.2178   -0.7811 C   0  0  0  0  0  0  0  0  0  0  0  0
   -7.8999    1.9844    0.0782 F   0  0  0  0  0  0  0  0  0  0  0  0
   -7.5856   -0.0632   -0.5738 F   0  0  0  0  0  0  0  0  0  0  0  0
   -7.5941    1.5531   -2.0304 F   0  0  0  0  0  0  0  0  0  0  0  0
   -4.7970    0.3639   -0.9771 C   0  0  0  0  0  0  0  0  0  0  0  0
   -1.0498   -0.2770   -1.6613 C   0  0  0  0  0  0  0  0  0  0  0  0
   -0.0549   -0.4138   -0.5129 C   0  0  0  0  0  0  0  0  0  0  0  0
    2.5780   -0.5999    1.5366 C   0  0  0  0  0  0  0  0  0  0  0  0
    1.6646   -0.0511    2.5695 C   0  0  0  0  0  0  0  0  0  0  0  0
    3.9207   -0.1828    1.2791 C   0  0  0  0  0  0  0  0  0  0  0  0
    4.7892    0.7938    1.8045 C   0  0  0  0  0  0  0  0  0  0  0  0
    6.8118    2.1734    2.8722 H   0  0  0  0  0  0  0  0  0  0  0  0
    6.9033    2.8842    1.2415 H   0  0  0  0  0  0  0  0  0  0  0  0
    8.0647    1.6347    1.7549 H   0  0  0  0  0  0  0  0  0  0  0  0
    7.5180    0.1599   -0.1595 H   0  0  0  0  0  0  0  0  0  0  0  0
    5.9827   -1.5774   -1.0835 H   0  0  0  0  0  0  0  0  0  0  0  0
   -1.1872   -3.1463   -1.0368 H   0  0  0  0  0  0  0  0  0  0  0  0
   -1.2902   -3.2919    0.7199 H   0  0  0  0  0  0  0  0  0  0  0  0
   -3.3838   -2.3348   -0.1462 H   0  0  0  0  0  0  0  0  0  0  0  0
   -2.5294   -1.1797    0.8816 H   0  0  0  0  0  0  0  0  0  0  0  0
   -2.5573   -2.0607   -2.6466 H   0  0  0  0  0  0  0  0  0  0  0  0
   -1.8447    1.8846   -0.2149 H   0  0  0  0  0  0  0  0  0  0  0  0
   -3.3732    3.6810    0.4055 H   0  0  0  0  0  0  0  0  0  0  0  0
   -5.8150    3.4096    0.1632 H   0  0  0  0  0  0  0  0  0  0  0  0
   -5.2090   -0.5668   -1.3713 H   0  0  0  0  0  0  0  0  0  0  0  0
   -0.7094   -0.9310   -2.4769 H   0  0  0  0  0  0  0  0  0  0  0  0
   -1.0144    0.7353   -2.0806 H   0  0  0  0  0  0  0  0  0  0  0  0
    0.9375   -0.1196   -0.8673 H   0  0  0  0  0  0  0  0  0  0  0  0
   -0.3223    0.2433    0.3202 H   0  0  0  0  0  0  0  0  0  0  0  0
    1.2876    0.9287    2.2601 H   0  0  0  0  0  0  0  0  0  0  0  0
    2.1884    0.0678    3.5236 H   0  0  0  0  0  0  0  0  0  0  0  0
    0.8076   -0.7093    2.7427 H   0  0  0  0  0  0  0  0  0  0  0  0
    4.4533    1.4507    2.6018 H   0  0  0  0  0  0  0  0  0  0  0  0
  1  2  1  0
  2  3  2  0
  3  4  1  0
  4  5  2  0
  5  6  1  0
  6  7  1  0
  7  8  1  0
  8  9  2  0
  8 10  1  0
 10 11  1  0
 11 12  1  0
 12 13  1  0
 13 14  1  0
 13 15  1  0
 15 16  2  0
 16 17  1  0
 17 18  2  0
 18 19  1  0
 19 20  1  0
 20 21  1  0
 20 22  1  0
 20 23  1  0
 19 24  2  0
 13 25  1  0
 25 26  1  0
  7 27  2  0
 27 28  1  0
 27 29  1  0
 29 30  2  0
 30  2  1  0
 29  5  1  0
 26 10  1  0
 24 15  1  0
  1 31  1  0
  1 32  1  0
  1 33  1  0
  3 34  1  0
  4 35  1  0
 11 36  1  0
 11 37  1  0
 12 38  1  0
 12 39  1  0
 14 40  1  0
 16 41  1  0
 17 42  1  0
 18 43  1  0
 24 44  1  0
 25 45  1  0
 25 46  1  0
 26 47  1  0
 26 48  1  0
 28 49  1  0
 28 50  1  0
 28 51  1  0
 30 52  1  0
M  END
$$$$
