
     RDKit          3D

 43 45  0  0  0  0  0  0  0  0999 V2000
    4.6075   -0.0751    2.3979 N   0  0  0  0  0  0  0  0  0  0  0  0
    4.0325   -0.0438    1.3899 C   0  0  0  0  0  0  0  0  0  0  0  0
    3.2858    0.0123    0.1861 C   0  0  0  0  0  0  0  0  0  0  0  0
    2.0327   -0.4393    0.0022 C   0  0  0  0  0  0  0  0  0  0  0  0
    1.1898   -1.0311    0.9856 C   0  0  0  0  0  0  0  0  0  0  0  0
    1.4407   -1.6506    2.2042 C   0  0  0  0  0  0  0  0  0  0  0  0
    0.2010   -2.0641    2.7528 C   0  0  0  0  0  0  0  0  0  0  0  0
   -0.7685   -1.6965    1.8483 C   0  0  0  0  0  0  0  0  0  0  0  0
   -2.2231   -1.8248    1.7943 C   0  0  0  0  0  0  0  0  0  0  0  0
   -2.9337   -2.3519    2.8861 C   0  0  0  0  0  0  0  0  0  0  0  0
   -4.3259   -2.4822    2.8455 C   0  0  0  0  0  0  0  0  0  0  0  0
   -5.0209   -2.0747    1.7060 C   0  0  0  0  0  0  0  0  0  0  0  0
   -6.7851   -2.2430    1.6383 S   0  0  0  0  0  6  0  0  0  0  0  0
   -7.2875   -0.7319    2.1855 N   0  0  0  0  0  0  0  0  0  0  0  0
   -7.1806   -2.3705    0.2566 O   0  0  0  0  0  0  0  0  0  0  0  0
   -7.1941   -3.1818    2.6565 O   0  0  0  0  0  0  0  0  0  0  0  0
   -4.3376   -1.5606    0.6036 C   0  0  0  0  0  0  0  0  0  0  0  0
   -2.9460   -1.4350    0.6541 C   0  0  0  0  0  0  0  0  0  0  0  0
   -0.1742   -1.0804    0.7873 O   0  0  0  0  0  0  0  0  0  0  0  0
    3.9718    0.5958   -1.0008 C   0  0  0  0  0  0  0  0  0  0  0  0
    5.0154    0.0943   -1.3981 O   0  0  0  0  0  0  0  0  0  0  0  0
    3.3194    1.7011   -1.5170 N   0  0  0  0  0  0  0  0  0  0  0  0
    3.6920    2.4615   -2.6465 C   0  0  0  0  0  0  0  0  0  0  0  0
    4.7889    2.1694   -3.4591 C   0  0  0  0  0  0  0  0  0  0  0  0
    5.0845    2.9723   -4.5658 C   0  0  0  0  0  0  0  0  0  0  0  0
    4.2863    4.0721   -4.8696 C   0  0  0  0  0  0  0  0  0  0  0  0
    3.1899    4.3717   -4.0664 C   0  0  0  0  0  0  0  0  0  0  0  0
    2.8941    3.5701   -2.9608 C   0  0  0  0  0  0  0  0  0  0  0  0
    1.5754   -0.3467   -0.9817 H   0  0  0  0  0  0  0  0  0  0  0  0
    2.4070   -1.8128    2.6627 H   0  0  0  0  0  0  0  0  0  0  0  0
    0.0487   -2.5793    3.6910 H   0  0  0  0  0  0  0  0  0  0  0  0
   -2.4111   -2.6736    3.7842 H   0  0  0  0  0  0  0  0  0  0  0  0
   -4.8515   -2.9050    3.6995 H   0  0  0  0  0  0  0  0  0  0  0  0
   -7.7930   -0.8496    3.0652 H   0  0  0  0  0  0  0  0  0  0  0  0
   -6.5276   -0.0586    2.2675 H   0  0  0  0  0  0  0  0  0  0  0  0
   -4.8737   -1.2642   -0.2967 H   0  0  0  0  0  0  0  0  0  0  0  0
   -2.4272   -1.0365   -0.2164 H   0  0  0  0  0  0  0  0  0  0  0  0
    2.4984    2.0336   -1.0254 H   0  0  0  0  0  0  0  0  0  0  0  0
    5.4392    1.3225   -3.2644 H   0  0  0  0  0  0  0  0  0  0  0  0
    5.9427    2.7337   -5.1897 H   0  0  0  0  0  0  0  0  0  0  0  0
    4.5206    4.6934   -5.7301 H   0  0  0  0  0  0  0  0  0  0  0  0
    2.5649    5.2297   -4.2997 H   0  0  0  0  0  0  0  0  0  0  0  0
    2.0322    3.8300   -2.3520 H   0  0  0  0  0  0  0  0  0  0  0  0
  1  2  3  0
  2  3  1  0
  3  4  2  3
  4  5  1  0
  5  6  2  0
  6  7  1  0
  7  8  2  0
  8  9  1  0
  9 10  2  0
 10 11  1  0
 11 12  2  0
 12 13  1  0
 13 14  1  0
 13 15  2  0
 13 16  2  0
 12 17  1  0
 17 18  2  0
  8 19  1  0
  3 20  1  0
 20 21  2  0
 20 22  1  0
 22 23  1  0
 23 24  2  0
 24 25  1  0
 25 26  2  0
 26 27  1  0
 27 28  2  0
 19  5  1  0
 28 23  1  0
 18  9  1  0
  4 29  1  0
  6 30  1  0
  7 31  1  0
 10 32  1  0
 11 33  1  0
 14 34  1  0
 14 35  1  0
 17 36  1  0
 18 37  1  0
 22 38  1  0
 24 39  1  0
 25 40  1  0
 26 41  1  0
 27 42  1  0
 28 43  1  0
M  END
$$$$
