
     RDKit          3D

 48 51  0  0  0  0  0  0  0  0999 V2000
    2.9733    0.9878   -0.7886 O   0  0  0  0  0  0  0  0  0  0  0  0
    3.7668    0.3526   -0.1083 C   0  0  0  0  0  0  0  0  0  0  0  0
    3.4750   -0.5597    0.9070 N   0  0  0  0  0  0  0  0  0  0  0  0
    2.3496   -1.2904    1.2161 C   0  0  0  0  0  0  0  0  0  0  0  0
    2.6660   -2.7291    2.0349 S   0  0  0  0  0  0  0  0  0  0  0  0
    1.0954   -0.8407    0.8736 N   0  0  0  0  0  0  0  0  0  0  0  0
    0.7519    0.5907    0.8088 C   0  0  0  0  0  0  0  0  0  0  0  0
   -0.6051    0.8932    1.4774 C   0  0  0  0  0  0  0  0  0  0  0  0
   -1.7545    0.1522    0.9134 N   0  0  0  0  0  0  0  0  0  0  0  0
   -2.5466    0.9988    0.0071 C   0  0  0  0  0  0  0  0  0  0  0  0
   -3.8486    0.3562   -0.4282 C   0  0  0  0  0  0  0  0  0  0  0  0
   -4.1031    0.1121   -1.7979 C   0  0  0  0  0  0  0  0  0  0  0  0
   -5.3027   -0.4752   -2.2134 C   0  0  0  0  0  0  0  0  0  0  0  0
   -6.2248   -0.8048   -1.2445 C   0  0  0  0  0  0  0  0  0  0  0  0
   -5.9893   -0.5709    0.0894 C   0  0  0  0  0  0  0  0  0  0  0  0
   -4.8173    0.0063    0.5290 C   0  0  0  0  0  0  0  0  0  0  0  0
   -7.0240   -0.9693    0.8768 O   0  0  0  0  0  0  0  0  0  0  0  0
   -7.9361   -1.4836   -0.1149 C   0  0  0  0  0  0  0  0  0  0  0  0
   -7.4373   -1.3801   -1.4647 O   0  0  0  0  0  0  0  0  0  0  0  0
   -1.3179   -1.0956    0.2448 C   0  0  0  0  0  0  0  0  0  0  0  0
   -0.0815   -1.7334    0.9032 C   0  0  0  0  0  0  0  0  0  0  0  0
    5.2205    0.6071   -0.3140 C   0  0  0  0  0  0  0  0  0  0  0  0
    6.1629   -0.4306   -0.2796 C   0  0  0  0  0  0  0  0  0  0  0  0
    7.5170   -0.1482   -0.4858 C   0  0  0  0  0  0  0  0  0  0  0  0
    7.9250    1.1625   -0.7347 C   0  0  0  0  0  0  0  0  0  0  0  0
    9.5916    1.5037   -0.9877 Cl  0  0  0  0  0  0  0  0  0  0  0  0
    6.9907    2.1957   -0.7887 C   0  0  0  0  0  0  0  0  0  0  0  0
    5.6367    1.9176   -0.5846 C   0  0  0  0  0  0  0  0  0  0  0  0
    4.2820   -0.9883    1.3397 H   0  0  0  0  0  0  0  0  0  0  0  0
    1.5274    1.1868    1.2995 H   0  0  0  0  0  0  0  0  0  0  0  0
    0.6879    0.8694   -0.2480 H   0  0  0  0  0  0  0  0  0  0  0  0
   -0.5331    0.6111    2.5361 H   0  0  0  0  0  0  0  0  0  0  0  0
   -0.7823    1.9757    1.4723 H   0  0  0  0  0  0  0  0  0  0  0  0
   -2.8214    1.9327    0.5159 H   0  0  0  0  0  0  0  0  0  0  0  0
   -1.9515    1.2910   -0.8683 H   0  0  0  0  0  0  0  0  0  0  0  0
   -3.3604    0.3793   -2.5469 H   0  0  0  0  0  0  0  0  0  0  0  0
   -5.5026   -0.6655   -3.2616 H   0  0  0  0  0  0  0  0  0  0  0  0
   -4.6461    0.1754    1.5872 H   0  0  0  0  0  0  0  0  0  0  0  0
   -8.1350   -2.5389    0.1053 H   0  0  0  0  0  0  0  0  0  0  0  0
   -8.8781   -0.9275   -0.0462 H   0  0  0  0  0  0  0  0  0  0  0  0
   -1.0735   -0.9039   -0.8091 H   0  0  0  0  0  0  0  0  0  0  0  0
   -2.1389   -1.8212    0.2654 H   0  0  0  0  0  0  0  0  0  0  0  0
    0.1709   -2.6650    0.3844 H   0  0  0  0  0  0  0  0  0  0  0  0
   -0.3017   -1.9757    1.9504 H   0  0  0  0  0  0  0  0  0  0  0  0
    5.8620   -1.4644   -0.1278 H   0  0  0  0  0  0  0  0  0  0  0  0
    8.2468   -0.9542   -0.4628 H   0  0  0  0  0  0  0  0  0  0  0  0
    7.3067    3.2155   -0.9942 H   0  0  0  0  0  0  0  0  0  0  0  0
    4.9073    2.7241   -0.6374 H   0  0  0  0  0  0  0  0  0  0  0  0
  1  2  2  0
  2  3  1  0
  3  4  1  0
  4  5  2  0
  4  6  1  0
  6  7  1  0
  7  8  1  0
  8  9  1  0
  9 10  1  0
 10 11  1  0
 11 12  2  0
 12 13  1  0
 13 14  2  0
 14 15  1  0
 15 16  2  0
 15 17  1  0
 17 18  1  0
 18 19  1  0
  9 20  1  0
 20 21  1  0
  2 22  1  0
 22 23  2  0
 23 24  1  0
 24 25  2  0
 25 26  1  0
 25 27  1  0
 27 28  2  0
 21  6  1  0
 28 22  1  0
 16 11  1  0
 19 14  1  0
  3 29  1  0
  7 30  1  0
  7 31  1  0
  8 32  1  0
  8 33  1  0
 10 34  1  0
 10 35  1  0
 12 36  1  0
 13 37  1  0
 16 38  1  0
 18 39  1  0
 18 40  1  0
 20 41  1  0
 20 42  1  0
 21 43  1  0
 21 44  1  0
 23 45  1  0
 24 46  1  0
 27 47  1  0
 28 48  1  0
M  END
$$$$
