
     RDKit          3D

 41 44  0  0  0  0  0  0  0  0999 V2000
   -5.7175   -2.3190    0.9323 C   0  0  0  0  0  0  0  0  0  0  0  0
   -5.7165   -1.3284   -0.2347 C   0  0  0  0  0  0  0  0  0  0  0  0
   -6.9425   -0.4139   -0.1752 C   0  0  0  0  0  0  0  0  0  0  0  0
   -4.4261   -0.5293   -0.2871 C   0  0  0  0  0  0  0  0  0  0  0  0
   -3.5858   -0.6353   -1.4048 C   0  0  0  0  0  0  0  0  0  0  0  0
   -2.3926    0.0896   -1.4742 C   0  0  0  0  0  0  0  0  0  0  0  0
   -2.0158    0.9300   -0.4231 C   0  0  0  0  0  0  0  0  0  0  0  0
   -0.7732    1.7039   -0.4793 C   0  0  0  0  0  0  0  0  0  0  0  0
    0.4655    1.1979   -0.3985 C   0  0  0  0  0  0  0  0  0  0  0  0
    0.9122   -0.4873   -0.1985 S   0  0  0  0  0  0  0  0  0  0  0  0
    2.5667   -0.0393   -0.1965 C   0  0  0  0  0  0  0  0  0  0  0  0
    3.6999   -0.6708   -0.0946 N   0  0  0  0  0  0  0  0  0  0  0  0
    4.6179    0.3726   -0.1787 C   0  0  0  0  0  0  0  0  0  0  0  0
    6.0562    0.1389   -0.1095 C   0  0  0  0  0  0  0  0  0  0  0  0
    6.9620    1.1990   -0.1975 C   0  0  0  0  0  0  0  0  0  0  0  0
    8.3156    0.9185   -0.1259 C   0  0  0  0  0  0  0  0  0  0  0  0
    8.8167   -0.3256    0.0247 N   0  0  0  0  0  0  0  0  0  0  0  0
    7.9250   -1.3351    0.1077 C   0  0  0  0  0  0  0  0  0  0  0  0
    6.5536   -1.1570    0.0467 C   0  0  0  0  0  0  0  0  0  0  0  0
    4.0640    1.5967   -0.3277 N   0  0  0  0  0  0  0  0  0  0  0  0
    2.7563    1.2864   -0.3340 N   0  0  0  0  0  0  0  0  0  0  0  0
    1.6538    2.1035   -0.4570 C   0  0  0  0  0  0  0  0  0  0  0  0
    1.7067    3.3131   -0.5845 O   0  0  0  0  0  0  0  0  0  0  0  0
   -2.8509    1.0487    0.6906 C   0  0  0  0  0  0  0  0  0  0  0  0
   -4.0438    0.3233    0.7588 C   0  0  0  0  0  0  0  0  0  0  0  0
   -4.8465   -2.9820    0.8837 H   0  0  0  0  0  0  0  0  0  0  0  0
   -6.6165   -2.9443    0.9053 H   0  0  0  0  0  0  0  0  0  0  0  0
   -5.6959   -1.8102    1.9021 H   0  0  0  0  0  0  0  0  0  0  0  0
   -5.7995   -1.9182   -1.1573 H   0  0  0  0  0  0  0  0  0  0  0  0
   -7.8647   -1.0031   -0.2229 H   0  0  0  0  0  0  0  0  0  0  0  0
   -6.9489    0.2875   -1.0170 H   0  0  0  0  0  0  0  0  0  0  0  0
   -6.9713    0.1737    0.7489 H   0  0  0  0  0  0  0  0  0  0  0  0
   -3.8542   -1.2849   -2.2354 H   0  0  0  0  0  0  0  0  0  0  0  0
   -1.7667   -0.0099   -2.3579 H   0  0  0  0  0  0  0  0  0  0  0  0
   -0.9168    2.7796   -0.5778 H   0  0  0  0  0  0  0  0  0  0  0  0
    6.6268    2.2243   -0.3192 H   0  0  0  0  0  0  0  0  0  0  0  0
    9.0550    1.7118   -0.1899 H   0  0  0  0  0  0  0  0  0  0  0  0
    8.3557   -2.3251    0.2286 H   0  0  0  0  0  0  0  0  0  0  0  0
    5.8917   -2.0139    0.1201 H   0  0  0  0  0  0  0  0  0  0  0  0
   -2.5825    1.7020    1.5178 H   0  0  0  0  0  0  0  0  0  0  0  0
   -4.6730    0.4317    1.6396 H   0  0  0  0  0  0  0  0  0  0  0  0
  1  2  1  0
  2  3  1  0
  2  4  1  0
  4  5  2  0
  5  6  1  0
  6  7  2  0
  7  8  1  0
  8  9  2  3
  9 10  1  0
 10 11  1  0
 11 12  2  0
 12 13  1  0
 13 14  1  0
 14 15  2  0
 15 16  1  0
 16 17  2  0
 17 18  1  0
 18 19  2  0
 13 20  2  0
 20 21  1  0
 21 22  1  0
 22 23  2  0
  7 24  1  0
 24 25  2  0
 25  4  1  0
 22  9  1  0
 21 11  1  0
 19 14  1  0
  1 26  1  0
  1 27  1  0
  1 28  1  0
  2 29  1  0
  3 30  1  0
  3 31  1  0
  3 32  1  0
  5 33  1  0
  6 34  1  0
  8 35  1  0
 15 36  1  0
 16 37  1  0
 18 38  1  0
 19 39  1  0
 24 40  1  0
 25 41  1  0
M  END
$$$$
