
     RDKit          3D

 46 48  0  0  0  0  0  0  0  0999 V2000
   -2.3460   -0.9346   -1.0816 C   0  0  0  0  0  0  0  0  0  0  0  0
   -2.2410   -0.0078    0.1031 C   0  0  0  0  0  0  0  0  0  0  0  0
   -3.1207    0.9967    0.3133 C   0  0  0  0  0  0  0  0  0  0  0  0
   -4.2808    1.3079   -0.5269 C   0  0  0  0  0  0  0  0  0  0  0  0
   -5.4743    0.5928   -0.3792 C   0  0  0  0  0  0  0  0  0  0  0  0
   -6.5759    0.8937   -1.1822 C   0  0  0  0  0  0  0  0  0  0  0  0
   -6.4892    1.9095   -2.1335 C   0  0  0  0  0  0  0  0  0  0  0  0
   -5.3021    2.6259   -2.2832 C   0  0  0  0  0  0  0  0  0  0  0  0
   -4.1991    2.3267   -1.4813 C   0  0  0  0  0  0  0  0  0  0  0  0
   -1.1420   -0.1611    1.0642 C   0  0  0  0  0  0  0  0  0  0  0  0
   -0.1725   -1.0809    1.1968 C   0  0  0  0  0  0  0  0  0  0  0  0
    0.1534   -2.4927    0.2662 S   0  0  0  0  0  0  0  0  0  0  0  0
    1.5431   -2.9478    1.2314 C   0  0  0  0  0  0  0  0  0  0  0  0
    2.4490   -4.3236    0.9796 S   0  0  0  0  0  0  0  0  0  0  0  0
    1.7371   -1.9990    2.2103 N   0  0  0  0  0  0  0  0  0  0  0  0
    2.8805   -2.1056    3.1936 N   0  0  0  0  0  0  0  0  0  0  0  0
    4.1707   -1.0004    3.0495 S   0  0  0  0  0  6  0  0  0  0  0  0
    5.3742   -1.8005    3.1426 O   0  0  0  0  0  0  0  0  0  0  0  0
    3.9378    0.1099    3.9437 O   0  0  0  0  0  0  0  0  0  0  0  0
    4.0608   -0.4074    1.3780 C   0  0  0  0  0  0  0  0  0  0  0  0
    4.6355   -1.1480    0.3425 C   0  0  0  0  0  0  0  0  0  0  0  0
    4.5165   -0.6958   -0.9722 C   0  0  0  0  0  0  0  0  0  0  0  0
    3.8525    0.5061   -1.2533 C   0  0  0  0  0  0  0  0  0  0  0  0
    3.6985    0.9734   -2.6716 C   0  0  0  0  0  0  0  0  0  0  0  0
    3.2971    1.2477   -0.2019 C   0  0  0  0  0  0  0  0  0  0  0  0
    3.4127    0.8022    1.1148 C   0  0  0  0  0  0  0  0  0  0  0  0
    0.8330   -0.9525    2.2995 C   0  0  0  0  0  0  0  0  0  0  0  0
    0.8348   -0.0469    3.1204 O   0  0  0  0  0  0  0  0  0  0  0  0
   -3.1431   -0.6587   -1.7784 H   0  0  0  0  0  0  0  0  0  0  0  0
   -2.5612   -1.9568   -0.7547 H   0  0  0  0  0  0  0  0  0  0  0  0
   -1.4213   -0.9193   -1.6677 H   0  0  0  0  0  0  0  0  0  0  0  0
   -3.0216    1.6680    1.1650 H   0  0  0  0  0  0  0  0  0  0  0  0
   -5.5519   -0.2008    0.3599 H   0  0  0  0  0  0  0  0  0  0  0  0
   -7.5015    0.3361   -1.0650 H   0  0  0  0  0  0  0  0  0  0  0  0
   -7.3477    2.1436   -2.7580 H   0  0  0  0  0  0  0  0  0  0  0  0
   -5.2353    3.4179   -3.0245 H   0  0  0  0  0  0  0  0  0  0  0  0
   -3.2779    2.8902   -1.6074 H   0  0  0  0  0  0  0  0  0  0  0  0
   -1.1267    0.6370    1.8138 H   0  0  0  0  0  0  0  0  0  0  0  0
    3.2712   -3.0508    3.2732 H   0  0  0  0  0  0  0  0  0  0  0  0
    5.1703   -2.0739    0.5450 H   0  0  0  0  0  0  0  0  0  0  0  0
    4.9534   -1.2827   -1.7785 H   0  0  0  0  0  0  0  0  0  0  0  0
    2.7644    0.5886   -3.0920 H   0  0  0  0  0  0  0  0  0  0  0  0
    3.6871    2.0671   -2.7221 H   0  0  0  0  0  0  0  0  0  0  0  0
    4.5339    0.6288   -3.2902 H   0  0  0  0  0  0  0  0  0  0  0  0
    2.7779    2.1831   -0.4034 H   0  0  0  0  0  0  0  0  0  0  0  0
    2.9864    1.3946    1.9238 H   0  0  0  0  0  0  0  0  0  0  0  0
  1  2  1  0
  2  3  2  3
  3  4  1  0
  4  5  2  0
  5  6  1  0
  6  7  2  0
  7  8  1  0
  8  9  2  0
  2 10  1  0
 10 11  2  3
 11 12  1  0
 12 13  1  0
 13 14  2  0
 13 15  1  0
 15 16  1  0
 16 17  1  0
 17 18  2  0
 17 19  2  0
 17 20  1  0
 20 21  2  0
 21 22  1  0
 22 23  2  0
 23 24  1  0
 23 25  1  0
 25 26  2  0
 15 27  1  0
 27 28  2  0
  9  4  1  0
 27 11  1  0
 26 20  1  0
  1 29  1  0
  1 30  1  0
  1 31  1  0
  3 32  1  0
  5 33  1  0
  6 34  1  0
  7 35  1  0
  8 36  1  0
  9 37  1  0
 10 38  1  0
 16 39  1  0
 21 40  1  0
 22 41  1  0
 24 42  1  0
 24 43  1  0
 24 44  1  0
 25 45  1  0
 26 46  1  0
M  END
$$$$
