
     RDKit          3D

 59 62  0  0  0  0  0  0  0  0999 V2000
   -1.8099    4.7972    0.3176 C   0  0  0  0  0  0  0  0  0  0  0  0
   -1.1562    3.6956   -0.5003 C   0  0  0  0  0  0  0  0  0  0  0  0
   -0.3399    2.7571    0.3859 C   0  0  0  0  0  0  0  0  0  0  0  0
    0.2780    1.6762   -0.3632 N   0  0  0  0  0  0  0  0  0  0  0  0
   -0.1484    0.3580   -0.4369 C   0  0  0  0  0  0  0  0  0  0  0  0
   -1.3424   -0.1837    0.2088 C   0  0  0  0  0  0  0  0  0  0  0  0
   -1.1921   -1.1341    1.2295 C   0  0  0  0  0  0  0  0  0  0  0  0
   -2.3100   -1.6621    1.8770 C   0  0  0  0  0  0  0  0  0  0  0  0
   -2.2620   -2.5819    2.8926 O   0  0  0  0  0  0  0  0  0  0  0  0
   -1.0187   -3.2330    3.1197 C   0  0  0  0  0  0  0  0  0  0  0  0
   -3.5865   -1.2168    1.4937 C   0  0  0  0  0  0  0  0  0  0  0  0
   -4.7008   -1.7566    2.0983 O   0  0  0  0  0  0  0  0  0  0  0  0
   -5.0596   -0.9750    3.2367 C   0  0  0  0  0  0  0  0  0  0  0  0
   -3.7552   -0.3020    0.4400 C   0  0  0  0  0  0  0  0  0  0  0  0
   -5.0452    0.0436    0.1300 O   0  0  0  0  0  0  0  0  0  0  0  0
   -5.2623    0.6575   -1.1342 C   0  0  0  0  0  0  0  0  0  0  0  0
   -2.6241    0.2138   -0.1950 C   0  0  0  0  0  0  0  0  0  0  0  0
    0.7131   -0.3687   -1.1320 N   0  0  0  0  0  0  0  0  0  0  0  0
    1.6954    0.4912   -1.5058 C   0  0  0  0  0  0  0  0  0  0  0  0
    1.4591    1.7559   -1.0529 C   0  0  0  0  0  0  0  0  0  0  0  0
    2.3516    2.8340   -1.3033 C   0  0  0  0  0  0  0  0  0  0  0  0
    2.1982    3.9860   -0.9143 O   0  0  0  0  0  0  0  0  0  0  0  0
    3.4425    2.4515   -2.0508 N   0  0  0  0  0  0  0  0  0  0  0  0
    3.7318    1.1857   -2.5262 C   0  0  0  0  0  0  0  0  0  0  0  0
    4.7663    1.0178   -3.1729 O   0  0  0  0  0  0  0  0  0  0  0  0
    2.8186    0.1770   -2.2419 N   0  0  0  0  0  0  0  0  0  0  0  0
    3.0864   -1.1871   -2.6728 C   0  0  0  0  0  0  0  0  0  0  0  0
    3.8149   -1.9923   -1.6195 C   0  0  0  0  0  0  0  0  0  0  0  0
    5.2148   -1.9651   -1.5413 C   0  0  0  0  0  0  0  0  0  0  0  0
    5.8835   -2.6980   -0.5595 C   0  0  0  0  0  0  0  0  0  0  0  0
    5.1608   -3.4601    0.3567 C   0  0  0  0  0  0  0  0  0  0  0  0
    3.7689   -3.4873    0.2952 C   0  0  0  0  0  0  0  0  0  0  0  0
    3.0986   -2.7549   -0.6856 C   0  0  0  0  0  0  0  0  0  0  0  0
   -2.4902    4.3785    1.0663 H   0  0  0  0  0  0  0  0  0  0  0  0
   -1.0572    5.4005    0.8351 H   0  0  0  0  0  0  0  0  0  0  0  0
   -2.3884    5.4605   -0.3333 H   0  0  0  0  0  0  0  0  0  0  0  0
   -0.5171    4.1482   -1.2671 H   0  0  0  0  0  0  0  0  0  0  0  0
   -1.9319    3.1373   -1.0351 H   0  0  0  0  0  0  0  0  0  0  0  0
   -0.9677    2.3190    1.1691 H   0  0  0  0  0  0  0  0  0  0  0  0
    0.4610    3.2998    0.9009 H   0  0  0  0  0  0  0  0  0  0  0  0
   -0.1851   -1.4391    1.5001 H   0  0  0  0  0  0  0  0  0  0  0  0
   -0.6489   -3.7173    2.2095 H   0  0  0  0  0  0  0  0  0  0  0  0
   -1.1822   -4.0133    3.8693 H   0  0  0  0  0  0  0  0  0  0  0  0
   -0.2799   -2.5338    3.5245 H   0  0  0  0  0  0  0  0  0  0  0  0
   -4.2765   -1.0035    4.0016 H   0  0  0  0  0  0  0  0  0  0  0  0
   -5.9670   -1.4078    3.6678 H   0  0  0  0  0  0  0  0  0  0  0  0
   -5.2800    0.0611    2.9588 H   0  0  0  0  0  0  0  0  0  0  0  0
   -4.8734    1.6811   -1.1427 H   0  0  0  0  0  0  0  0  0  0  0  0
   -4.8314    0.0643   -1.9479 H   0  0  0  0  0  0  0  0  0  0  0  0
   -6.3428    0.7116   -1.2977 H   0  0  0  0  0  0  0  0  0  0  0  0
   -2.7168    0.9196   -1.0129 H   0  0  0  0  0  0  0  0  0  0  0  0
    4.1206    3.1667   -2.2607 H   0  0  0  0  0  0  0  0  0  0  0  0
    3.6854   -1.1714   -3.5922 H   0  0  0  0  0  0  0  0  0  0  0  0
    2.1420   -1.6761   -2.9438 H   0  0  0  0  0  0  0  0  0  0  0  0
    5.7920   -1.3690   -2.2464 H   0  0  0  0  0  0  0  0  0  0  0  0
    6.9689   -2.6721   -0.5098 H   0  0  0  0  0  0  0  0  0  0  0  0
    5.6828   -4.0307    1.1200 H   0  0  0  0  0  0  0  0  0  0  0  0
    3.2041   -4.0779    1.0113 H   0  0  0  0  0  0  0  0  0  0  0  0
    2.0104   -2.7756   -0.7178 H   0  0  0  0  0  0  0  0  0  0  0  0
  1  2  1  0
  2  3  1  0
  3  4  1  0
  4  5  1  0
  5  6  1  0
  6  7  2  0
  7  8  1  0
  8  9  1  0
  9 10  1  0
  8 11  2  0
 11 12  1  0
 12 13  1  0
 11 14  1  0
 14 15  1  0
 15 16  1  0
 14 17  2  0
  5 18  2  0
 18 19  1  0
 19 20  2  0
 20 21  1  0
 21 22  2  0
 21 23  1  0
 23 24  1  0
 24 25  2  0
 24 26  1  0
 26 27  1  0
 27 28  1  0
 28 29  2  0
 29 30  1  0
 30 31  2  0
 31 32  1  0
 32 33  2  0
 20  4  1  0
 33 28  1  0
 17  6  1  0
 26 19  1  0
  1 34  1  0
  1 35  1  0
  1 36  1  0
  2 37  1  0
  2 38  1  0
  3 39  1  0
  3 40  1  0
  7 41  1  0
 10 42  1  0
 10 43  1  0
 10 44  1  0
 13 45  1  0
 13 46  1  0
 13 47  1  0
 16 48  1  0
 16 49  1  0
 16 50  1  0
 17 51  1  0
 23 52  1  0
 27 53  1  0
 27 54  1  0
 29 55  1  0
 30 56  1  0
 31 57  1  0
 32 58  1  0
 33 59  1  0
M  END
$$$$
