
     RDKit          3D

 42 44  0  0  0  0  0  0  0  0999 V2000
    1.9606    2.9619    1.3561 C   0  0  0  0  0  0  0  0  0  0  0  0
    2.1663    1.9721    0.3552 O   0  0  0  0  0  0  0  0  0  0  0  0
    1.0973    1.1807    0.0276 C   0  0  0  0  0  0  0  0  0  0  0  0
   -0.1418    1.2027    0.6705 C   0  0  0  0  0  0  0  0  0  0  0  0
   -1.1855    0.3388    0.2920 C   0  0  0  0  0  0  0  0  0  0  0  0
   -2.3865    0.4625    1.0196 N   0  0  0  0  0  0  0  0  0  0  0  0
   -2.8622   -0.7694    1.6777 C   0  0  0  0  0  0  0  0  0  0  0  0
   -4.3055   -0.9491    1.2126 C   0  0  0  0  0  0  0  0  0  0  0  0
   -4.7405    0.4666    0.8822 C   0  0  0  0  0  0  0  0  0  0  0  0
   -3.4883    1.0472    0.2368 C   0  0  0  0  0  0  0  0  0  0  0  0
   -0.9665   -0.5712   -0.7668 C   0  0  0  0  0  0  0  0  0  0  0  0
   -2.0185   -1.3847   -1.1118 O   0  0  0  0  0  0  0  0  0  0  0  0
   -1.7582   -2.4497   -2.0155 C   0  0  0  0  0  0  0  0  0  0  0  0
    0.2739   -0.5865   -1.4169 C   0  0  0  0  0  0  0  0  0  0  0  0
    1.3080    0.2849   -1.0312 C   0  0  0  0  0  0  0  0  0  0  0  0
    2.6374    0.2332   -1.7501 C   0  0  0  0  0  0  0  0  0  0  0  0
    3.7023   -0.3814   -0.9114 C   0  0  0  0  0  0  0  0  0  0  0  0
    3.7673   -1.6065   -0.4813 N   0  0  0  0  0  0  0  0  0  0  0  0
    4.9250   -1.6816    0.2663 C   0  0  0  0  0  0  0  0  0  0  0  0
    5.5312   -3.0200    1.0446 S   0  0  0  0  0  0  0  0  0  0  0  0
    5.5683   -0.4870    0.3005 N   0  0  0  0  0  0  0  0  0  0  0  0
    4.9068    0.4034   -0.4603 C   0  0  0  0  0  0  0  0  0  0  0  0
    5.1997    1.5290   -0.7850 O   0  0  0  0  0  0  0  0  0  0  0  0
    1.7458    2.5012    2.3258 H   0  0  0  0  0  0  0  0  0  0  0  0
    2.8898    3.5308    1.4575 H   0  0  0  0  0  0  0  0  0  0  0  0
    1.1713    3.6628    1.0648 H   0  0  0  0  0  0  0  0  0  0  0  0
   -0.3401    1.8815    1.4941 H   0  0  0  0  0  0  0  0  0  0  0  0
   -2.8419   -0.5992    2.7606 H   0  0  0  0  0  0  0  0  0  0  0  0
   -2.2594   -1.6625    1.4789 H   0  0  0  0  0  0  0  0  0  0  0  0
   -4.9335   -1.4190    1.9748 H   0  0  0  0  0  0  0  0  0  0  0  0
   -4.3406   -1.5732    0.3123 H   0  0  0  0  0  0  0  0  0  0  0  0
   -5.6094    0.5013    0.2195 H   0  0  0  0  0  0  0  0  0  0  0  0
   -4.9834    1.0119    1.8022 H   0  0  0  0  0  0  0  0  0  0  0  0
   -3.4768    2.1400    0.3044 H   0  0  0  0  0  0  0  0  0  0  0  0
   -3.4558    0.7665   -0.8229 H   0  0  0  0  0  0  0  0  0  0  0  0
   -1.5359   -2.0679   -3.0171 H   0  0  0  0  0  0  0  0  0  0  0  0
   -2.6667   -3.0556   -2.0866 H   0  0  0  0  0  0  0  0  0  0  0  0
   -0.9552   -3.0978   -1.6489 H   0  0  0  0  0  0  0  0  0  0  0  0
    0.4629   -1.2725   -2.2364 H   0  0  0  0  0  0  0  0  0  0  0  0
    2.9267    1.2411   -2.0670 H   0  0  0  0  0  0  0  0  0  0  0  0
    2.5537   -0.3616   -2.6677 H   0  0  0  0  0  0  0  0  0  0  0  0
    6.4579   -0.3236    0.7401 H   0  0  0  0  0  0  0  0  0  0  0  0
  1  2  1  0
  2  3  1  0
  3  4  2  0
  4  5  1  0
  5  6  1  0
  6  7  1  0
  7  8  1  0
  8  9  1  0
  9 10  1  0
  5 11  2  0
 11 12  1  0
 12 13  1  0
 11 14  1  0
 14 15  2  0
 15 16  1  0
 16 17  1  0
 17 18  2  0
 18 19  1  0
 19 20  2  0
 19 21  1  0
 21 22  1  0
 22 23  2  0
 15  3  1  0
 22 17  1  0
 10  6  1  0
  1 24  1  0
  1 25  1  0
  1 26  1  0
  4 27  1  0
  7 28  1  0
  7 29  1  0
  8 30  1  0
  8 31  1  0
  9 32  1  0
  9 33  1  0
 10 34  1  0
 10 35  1  0
 13 36  1  0
 13 37  1  0
 13 38  1  0
 14 39  1  0
 16 40  1  0
 16 41  1  0
 21 42  1  0
M  END
$$$$
