
     RDKit          3D

 43 45  0  0  0  0  0  0  0  0999 V2000
   -5.6046    1.5686    0.0813 C   0  0  0  0  0  0  0  0  0  0  0  0
   -5.4221    1.7448    1.5827 C   0  0  0  0  0  0  0  0  0  0  0  0
   -5.2779    0.4156    2.3221 C   0  0  0  0  0  0  0  0  0  0  0  0
   -3.9649   -0.2495    2.0284 C   0  0  0  0  0  0  0  0  0  0  0  0
   -2.8181    0.2362    2.3874 N   0  0  0  0  0  0  0  0  0  0  0  0
   -1.8237   -0.6157    1.9610 N   0  0  0  0  0  0  0  0  0  0  0  0
   -0.4902   -0.3516    2.1845 C   0  0  0  0  0  0  0  0  0  0  0  0
   -0.0200    0.6288    2.7543 O   0  0  0  0  0  0  0  0  0  0  0  0
    0.4159   -1.3892    1.6401 C   0  0  0  0  0  0  0  0  0  0  0  0
   -0.0928   -2.4397    0.9711 C   0  0  0  0  0  0  0  0  0  0  0  0
    0.8248   -3.5030    0.4058 C   0  0  0  0  0  0  0  0  0  0  0  0
    0.7907   -3.5949   -1.4202 S   0  0  0  0  0  0  0  0  0  0  0  0
    1.0048   -1.8516   -1.8898 C   0  0  0  0  0  0  0  0  0  0  0  0
    2.3219   -1.2214   -1.4429 C   0  0  0  0  0  0  0  0  0  0  0  0
    3.0202   -1.6840   -0.5471 O   0  0  0  0  0  0  0  0  0  0  0  0
    2.5795   -0.0426   -2.1371 N   0  0  0  0  0  0  0  0  0  0  0  0
    3.6913    0.8141   -1.9931 C   0  0  0  0  0  0  0  0  0  0  0  0
    4.7841    0.5484   -1.1609 C   0  0  0  0  0  0  0  0  0  0  0  0
    5.8473    1.4543   -1.0774 C   0  0  0  0  0  0  0  0  0  0  0  0
    5.8181    2.6235   -1.8255 C   0  0  0  0  0  0  0  0  0  0  0  0
    6.8365    3.4897   -1.7426 F   0  0  0  0  0  0  0  0  0  0  0  0
    4.7457    2.9048   -2.6608 C   0  0  0  0  0  0  0  0  0  0  0  0
    3.6851    1.9982   -2.7476 C   0  0  0  0  0  0  0  0  0  0  0  0
   -1.4470   -2.6350    0.7794 N   0  0  0  0  0  0  0  0  0  0  0  0
   -2.2229   -1.7318    1.2755 C   0  0  0  0  0  0  0  0  0  0  0  0
   -3.9516   -1.7623    1.1536 S   0  0  0  0  0  0  0  0  0  0  0  0
   -4.7290    1.0989   -0.3774 H   0  0  0  0  0  0  0  0  0  0  0  0
   -6.4832    0.9527   -0.1388 H   0  0  0  0  0  0  0  0  0  0  0  0
   -5.7478    2.5427   -0.3980 H   0  0  0  0  0  0  0  0  0  0  0  0
   -6.2953    2.2754    1.9821 H   0  0  0  0  0  0  0  0  0  0  0  0
   -4.5484    2.3830    1.7661 H   0  0  0  0  0  0  0  0  0  0  0  0
   -5.3087    0.6056    3.4024 H   0  0  0  0  0  0  0  0  0  0  0  0
   -6.1158   -0.2503    2.0867 H   0  0  0  0  0  0  0  0  0  0  0  0
    1.4777   -1.2371    1.7970 H   0  0  0  0  0  0  0  0  0  0  0  0
    0.5043   -4.4817    0.7845 H   0  0  0  0  0  0  0  0  0  0  0  0
    1.8582   -3.3796    0.7460 H   0  0  0  0  0  0  0  0  0  0  0  0
    0.9657   -1.8225   -2.9848 H   0  0  0  0  0  0  0  0  0  0  0  0
    0.1697   -1.2505   -1.5187 H   0  0  0  0  0  0  0  0  0  0  0  0
    1.8787    0.2613   -2.8021 H   0  0  0  0  0  0  0  0  0  0  0  0
    4.8483   -0.3587   -0.5680 H   0  0  0  0  0  0  0  0  0  0  0  0
    6.6982    1.2463   -0.4349 H   0  0  0  0  0  0  0  0  0  0  0  0
    4.7422    3.8242   -3.2373 H   0  0  0  0  0  0  0  0  0  0  0  0
    2.8551    2.2356   -3.4091 H   0  0  0  0  0  0  0  0  0  0  0  0
  1  2  1  0
  2  3  1  0
  3  4  1  0
  4  5  2  0
  5  6  1  0
  6  7  1  0
  7  8  2  0
  7  9  1  0
  9 10  2  0
 10 11  1  0
 11 12  1  0
 12 13  1  0
 13 14  1  0
 14 15  2  0
 14 16  1  0
 16 17  1  0
 17 18  2  0
 18 19  1  0
 19 20  2  0
 20 21  1  0
 20 22  1  0
 22 23  2  0
 10 24  1  0
 24 25  2  0
 25 26  1  0
 26  4  1  0
 25  6  1  0
 23 17  1  0
  1 27  1  0
  1 28  1  0
  1 29  1  0
  2 30  1  0
  2 31  1  0
  3 32  1  0
  3 33  1  0
  9 34  1  0
 11 35  1  0
 11 36  1  0
 13 37  1  0
 13 38  1  0
 16 39  1  0
 18 40  1  0
 19 41  1  0
 22 42  1  0
 23 43  1  0
M  END
$$$$
