
     RDKit          3D

 47 49  0  0  0  0  0  0  0  0999 V2000
   -2.4285    5.5358   -1.1900 C   0  0  0  0  0  0  0  0  0  0  0  0
   -1.7677    4.7138   -0.2193 O   0  0  0  0  0  0  0  0  0  0  0  0
   -1.6807    3.3939   -0.5698 C   0  0  0  0  0  0  0  0  0  0  0  0
   -2.0436    2.9279   -1.6450 O   0  0  0  0  0  0  0  0  0  0  0  0
   -0.9818    2.6185    0.5419 C   0  0  0  0  0  0  0  0  0  0  0  0
   -1.2523    1.1799    0.4756 N   0  0  0  0  0  0  0  0  0  0  0  0
   -0.5904    0.2659   -0.3419 C   0  0  0  0  0  0  0  0  0  0  0  0
    0.4778    0.6536   -1.3218 C   0  0  0  0  0  0  0  0  0  0  0  0
    1.7194   -0.2287   -1.2045 C   0  0  0  0  0  0  0  0  0  0  0  0
    1.6246   -1.4478   -1.3385 O   0  0  0  0  0  0  0  0  0  0  0  0
    2.8863    0.4781   -0.9723 N   0  0  0  0  0  0  0  0  0  0  0  0
    4.1767   -0.0555   -0.7565 C   0  0  0  0  0  0  0  0  0  0  0  0
    5.2375    0.8588   -0.6794 C   0  0  0  0  0  0  0  0  0  0  0  0
    6.5452    0.4120   -0.4604 C   0  0  0  0  0  0  0  0  0  0  0  0
    6.7963   -0.9513   -0.3081 C   0  0  0  0  0  0  0  0  0  0  0  0
    8.4040   -1.4981   -0.0254 Cl  0  0  0  0  0  0  0  0  0  0  0  0
    5.7532   -1.8659   -0.3705 C   0  0  0  0  0  0  0  0  0  0  0  0
    4.4448   -1.4192   -0.5943 C   0  0  0  0  0  0  0  0  0  0  0  0
   -1.1527   -0.9435   -0.1541 C   0  0  0  0  0  0  0  0  0  0  0  0
   -0.8518   -2.1142   -0.7847 O   0  0  0  0  0  0  0  0  0  0  0  0
   -2.2147   -0.8671    0.7393 N   0  0  0  0  0  0  0  0  0  0  0  0
   -3.0428   -1.9558    1.1553 C   0  0  0  0  0  0  0  0  0  0  0  0
   -4.4210   -1.8014    1.3644 C   0  0  0  0  0  0  0  0  0  0  0  0
   -5.2217   -2.8875    1.7497 C   0  0  0  0  0  0  0  0  0  0  0  0
   -4.6497   -4.1431    1.9293 C   0  0  0  0  0  0  0  0  0  0  0  0
   -5.6289   -5.4724    2.4110 Cl  0  0  0  0  0  0  0  0  0  0  0  0
   -3.2875   -4.3259    1.7217 C   0  0  0  0  0  0  0  0  0  0  0  0
   -2.4945   -3.2391    1.3326 C   0  0  0  0  0  0  0  0  0  0  0  0
   -2.3105    0.5045    1.1758 C   0  0  0  0  0  0  0  0  0  0  0  0
   -3.3284    1.2120    2.2966 S   0  0  0  0  0  0  0  0  0  0  0  0
   -3.4980    5.3011   -1.2208 H   0  0  0  0  0  0  0  0  0  0  0  0
   -2.3085    6.5794   -0.8799 H   0  0  0  0  0  0  0  0  0  0  0  0
   -1.9757    5.4165   -2.1806 H   0  0  0  0  0  0  0  0  0  0  0  0
    0.0947    2.7955    0.4892 H   0  0  0  0  0  0  0  0  0  0  0  0
   -1.3281    3.0068    1.5034 H   0  0  0  0  0  0  0  0  0  0  0  0
    0.0908    0.5429   -2.3443 H   0  0  0  0  0  0  0  0  0  0  0  0
    0.7638    1.7027   -1.2267 H   0  0  0  0  0  0  0  0  0  0  0  0
    2.8330    1.4916   -1.0108 H   0  0  0  0  0  0  0  0  0  0  0  0
    5.0678    1.9305   -0.7920 H   0  0  0  0  0  0  0  0  0  0  0  0
    7.3618    1.1304   -0.4137 H   0  0  0  0  0  0  0  0  0  0  0  0
    5.9414   -2.9289   -0.2310 H   0  0  0  0  0  0  0  0  0  0  0  0
    3.6515   -2.1634   -0.6045 H   0  0  0  0  0  0  0  0  0  0  0  0
    0.0513   -2.0418   -1.1770 H   0  0  0  0  0  0  0  0  0  0  0  0
   -4.9156   -0.8532    1.1816 H   0  0  0  0  0  0  0  0  0  0  0  0
   -6.2878   -2.7402    1.8961 H   0  0  0  0  0  0  0  0  0  0  0  0
   -2.8306   -5.3015    1.8588 H   0  0  0  0  0  0  0  0  0  0  0  0
   -1.4284   -3.4068    1.1954 H   0  0  0  0  0  0  0  0  0  0  0  0
  1  2  1  0
  2  3  1  0
  3  4  2  0
  3  5  1  0
  5  6  1  0
  6  7  1  0
  7  8  1  0
  8  9  1  0
  9 10  2  0
  9 11  1  0
 11 12  1  0
 12 13  2  0
 13 14  1  0
 14 15  2  0
 15 16  1  0
 15 17  1  0
 17 18  2  0
  7 19  2  0
 19 20  1  0
 19 21  1  0
 21 22  1  0
 22 23  2  0
 23 24  1  0
 24 25  2  0
 25 26  1  0
 25 27  1  0
 27 28  2  0
 21 29  1  0
 29 30  2  0
 29  6  1  0
 18 12  1  0
 28 22  1  0
  1 31  1  0
  1 32  1  0
  1 33  1  0
  5 34  1  0
  5 35  1  0
  8 36  1  0
  8 37  1  0
 11 38  1  0
 13 39  1  0
 14 40  1  0
 17 41  1  0
 18 42  1  0
 20 43  1  0
 23 44  1  0
 24 45  1  0
 27 46  1  0
 28 47  1  0
M  END
$$$$
