
     RDKit          3D

 42 44  0  0  0  0  0  0  0  0999 V2000
    4.0469    0.7387    1.2564 C   0  0  0  0  0  0  0  0  0  0  0  0
    4.0069   -0.0724   -0.0363 C   0  0  0  0  0  0  0  0  0  0  0  0
    5.4174   -0.5085   -0.4309 C   0  0  0  0  0  0  0  0  0  0  0  0
    2.9836   -1.5820    0.1819 S   0  0  0  0  0  0  0  0  0  0  0  0
    1.3239   -0.9351    0.0106 C   0  0  0  0  0  0  0  0  0  0  0  0
    0.2657   -1.8106    0.1395 C   0  0  0  0  0  0  0  0  0  0  0  0
   -1.0087   -1.2987    0.0117 C   0  0  0  0  0  0  0  0  0  0  0  0
   -2.1234   -2.0909    0.1207 N   0  0  0  0  0  0  0  0  0  0  0  0
   -2.1553   -3.4152    0.7254 C   0  0  0  0  0  0  0  0  0  0  0  0
   -3.6192   -3.6046    1.1242 C   0  0  0  0  0  0  0  0  0  0  0  0
   -4.3726   -2.7256    0.1383 C   0  0  0  0  0  0  0  0  0  0  0  0
   -3.4560   -1.5136   -0.0019 C   0  0  0  0  0  0  0  0  0  0  0  0
   -1.1879    0.0075   -0.2480 N   0  0  0  0  0  0  0  0  0  0  0  0
   -0.1003    0.7883   -0.3814 C   0  0  0  0  0  0  0  0  0  0  0  0
   -0.3314    2.2192   -0.6115 C   0  0  0  0  0  0  0  0  0  0  0  0
   -1.2978    2.8916    0.1697 C   0  0  0  0  0  0  0  0  0  0  0  0
   -1.5511    4.2568    0.0128 C   0  0  0  0  0  0  0  0  0  0  0  0
   -0.8458    4.9862   -0.9367 C   0  0  0  0  0  0  0  0  0  0  0  0
    0.1039    4.3473   -1.7316 C   0  0  0  0  0  0  0  0  0  0  0  0
    0.3589    2.9763   -1.5759 C   0  0  0  0  0  0  0  0  0  0  0  0
    1.5129    2.2812   -2.6661 Cl  0  0  0  0  0  0  0  0  0  0  0  0
    1.1621    0.3694   -0.2376 N   0  0  0  0  0  0  0  0  0  0  0  0
    4.4748    0.1620    2.0844 H   0  0  0  0  0  0  0  0  0  0  0  0
    4.6679    1.6318    1.1240 H   0  0  0  0  0  0  0  0  0  0  0  0
    3.0521    1.0804    1.5587 H   0  0  0  0  0  0  0  0  0  0  0  0
    3.6056    0.5361   -0.8528 H   0  0  0  0  0  0  0  0  0  0  0  0
    5.4114   -1.0771   -1.3676 H   0  0  0  0  0  0  0  0  0  0  0  0
    6.0564    0.3679   -0.5876 H   0  0  0  0  0  0  0  0  0  0  0  0
    5.8886   -1.1244    0.3438 H   0  0  0  0  0  0  0  0  0  0  0  0
    0.4398   -2.8614    0.3242 H   0  0  0  0  0  0  0  0  0  0  0  0
   -1.8543   -4.1679   -0.0115 H   0  0  0  0  0  0  0  0  0  0  0  0
   -1.5126   -3.4992    1.6085 H   0  0  0  0  0  0  0  0  0  0  0  0
   -3.7783   -3.2379    2.1456 H   0  0  0  0  0  0  0  0  0  0  0  0
   -3.9307   -4.6522    1.0862 H   0  0  0  0  0  0  0  0  0  0  0  0
   -5.3738   -2.4566    0.4859 H   0  0  0  0  0  0  0  0  0  0  0  0
   -4.4677   -3.2412   -0.8250 H   0  0  0  0  0  0  0  0  0  0  0  0
   -3.6122   -1.0172   -0.9657 H   0  0  0  0  0  0  0  0  0  0  0  0
   -3.6432   -0.7997    0.8093 H   0  0  0  0  0  0  0  0  0  0  0  0
   -1.8604    2.3369    0.9208 H   0  0  0  0  0  0  0  0  0  0  0  0
   -2.2987    4.7450    0.6332 H   0  0  0  0  0  0  0  0  0  0  0  0
   -1.0388    6.0482   -1.0649 H   0  0  0  0  0  0  0  0  0  0  0  0
    0.6416    4.9215   -2.4826 H   0  0  0  0  0  0  0  0  0  0  0  0
  1  2  1  0
  2  3  1  0
  2  4  1  0
  4  5  1  0
  5  6  2  0
  6  7  1  0
  7  8  1  0
  8  9  1  0
  9 10  1  0
 10 11  1  0
 11 12  1  0
  7 13  2  0
 13 14  1  0
 14 15  1  0
 15 16  2  0
 16 17  1  0
 17 18  2  0
 18 19  1  0
 19 20  2  0
 20 21  1  0
 14 22  2  0
 22  5  1  0
 12  8  1  0
 20 15  1  0
  1 23  1  0
  1 24  1  0
  1 25  1  0
  2 26  1  0
  3 27  1  0
  3 28  1  0
  3 29  1  0
  6 30  1  0
  9 31  1  0
  9 32  1  0
 10 33  1  0
 10 34  1  0
 11 35  1  0
 11 36  1  0
 12 37  1  0
 12 38  1  0
 16 39  1  0
 17 40  1  0
 18 41  1  0
 19 42  1  0
M  END
$$$$
