
     RDKit          3D

 50 52  0  0  0  0  0  0  0  0999 V2000
   -7.1287    1.6313   -0.3573 C   0  0  0  0  0  0  0  0  0  0  0  0
   -5.7958    1.1761    0.2371 C   0  0  0  0  0  0  0  0  0  0  0  0
   -5.8066   -0.3330    0.5501 C   0  0  0  0  0  0  0  0  0  0  0  0
   -4.9344   -1.1352   -0.4120 C   0  0  0  0  0  0  0  0  0  0  0  0
   -3.5535   -0.6508   -0.3930 N   0  0  0  0  0  0  0  0  0  0  0  0
   -2.5301   -1.5762   -0.2106 C   0  0  0  0  0  0  0  0  0  0  0  0
   -2.6896   -2.7894   -0.1124 O   0  0  0  0  0  0  0  0  0  0  0  0
   -1.1450   -1.0827   -0.0998 C   0  0  0  0  0  0  0  0  0  0  0  0
   -0.4965   -1.1703    1.1352 C   0  0  0  0  0  0  0  0  0  0  0  0
    0.8242   -0.7310    1.2624 C   0  0  0  0  0  0  0  0  0  0  0  0
    1.5098   -0.2283    0.1448 C   0  0  0  0  0  0  0  0  0  0  0  0
    3.1318    0.4661    0.4043 S   0  0  0  0  0  6  0  0  0  0  0  0
    3.2815    1.5314   -0.5668 O   0  0  0  0  0  0  0  0  0  0  0  0
    3.1974    0.7752    1.8217 O   0  0  0  0  0  0  0  0  0  0  0  0
    4.2508   -0.8857    0.0383 C   0  0  0  0  0  0  0  0  0  0  0  0
    5.6499   -0.4546    0.3748 C   0  0  0  0  0  0  0  0  0  0  0  0
    6.4250    0.2758   -0.5375 C   0  0  0  0  0  0  0  0  0  0  0  0
    7.7143    0.6882   -0.1927 C   0  0  0  0  0  0  0  0  0  0  0  0
    8.2405    0.3795    1.0623 C   0  0  0  0  0  0  0  0  0  0  0  0
    7.4770   -0.3443    1.9760 C   0  0  0  0  0  0  0  0  0  0  0  0
    6.1946   -0.7550    1.6267 C   0  0  0  0  0  0  0  0  0  0  0  0
    5.4738   -1.4600    2.5109 F   0  0  0  0  0  0  0  0  0  0  0  0
    0.8523   -0.1698   -1.0889 C   0  0  0  0  0  0  0  0  0  0  0  0
    1.5190    0.2680   -2.2989 N   0  0  0  0  0  4  0  0  0  0  0  0
    0.9886    1.1864   -2.9348 O   0  0  0  0  0  0  0  0  0  0  0  0
    2.5207   -0.3755   -2.6376 O   0  0  0  0  0  1  0  0  0  0  0  0
   -0.4741   -0.6053   -1.2263 C   0  0  0  0  0  0  0  0  0  0  0  0
   -3.3625    0.8027   -0.3533 C   0  0  0  0  0  0  0  0  0  0  0  0
   -4.6364    1.5688   -0.6927 C   0  0  0  0  0  0  0  0  0  0  0  0
   -7.9496    1.4431    0.3434 H   0  0  0  0  0  0  0  0  0  0  0  0
   -7.1132    2.7053   -0.5717 H   0  0  0  0  0  0  0  0  0  0  0  0
   -7.3503    1.1002   -1.2898 H   0  0  0  0  0  0  0  0  0  0  0  0
   -5.6667    1.7103    1.1885 H   0  0  0  0  0  0  0  0  0  0  0  0
   -5.4201   -0.4767    1.5678 H   0  0  0  0  0  0  0  0  0  0  0  0
   -6.8276   -0.7320    0.5500 H   0  0  0  0  0  0  0  0  0  0  0  0
   -4.9817   -2.1973   -0.1539 H   0  0  0  0  0  0  0  0  0  0  0  0
   -5.3028   -1.0364   -1.4393 H   0  0  0  0  0  0  0  0  0  0  0  0
   -1.0229   -1.5738    1.9990 H   0  0  0  0  0  0  0  0  0  0  0  0
    1.2997   -0.7719    2.2426 H   0  0  0  0  0  0  0  0  0  0  0  0
    3.9449   -1.7502    0.6361 H   0  0  0  0  0  0  0  0  0  0  0  0
    4.1770   -1.1525   -1.0166 H   0  0  0  0  0  0  0  0  0  0  0  0
    6.0262    0.5421   -1.5156 H   0  0  0  0  0  0  0  0  0  0  0  0
    8.3067    1.2615   -0.9033 H   0  0  0  0  0  0  0  0  0  0  0  0
    9.2411    0.7100    1.3294 H   0  0  0  0  0  0  0  0  0  0  0  0
    7.8695   -0.5861    2.9590 H   0  0  0  0  0  0  0  0  0  0  0  0
   -0.9780   -0.5822   -2.1910 H   0  0  0  0  0  0  0  0  0  0  0  0
   -3.0162    1.0645    0.6542 H   0  0  0  0  0  0  0  0  0  0  0  0
   -2.5753    1.0822   -1.0593 H   0  0  0  0  0  0  0  0  0  0  0  0
   -4.4523    2.6470   -0.6222 H   0  0  0  0  0  0  0  0  0  0  0  0
   -4.9067    1.3655   -1.7372 H   0  0  0  0  0  0  0  0  0  0  0  0
  1  2  1  0
  2  3  1  0
  3  4  1  0
  4  5  1  0
  5  6  1  0
  6  7  2  0
  6  8  1  0
  8  9  2  0
  9 10  1  0
 10 11  2  0
 11 12  1  0
 12 13  2  0
 12 14  2  0
 12 15  1  0
 15 16  1  0
 16 17  2  0
 17 18  1  0
 18 19  2  0
 19 20  1  0
 20 21  2  0
 21 22  1  0
 11 23  1  0
 23 24  1  0
 24 25  2  0
 24 26  1  0
 23 27  2  0
  5 28  1  0
 28 29  1  0
 29  2  1  0
 27  8  1  0
 21 16  1  0
  1 30  1  0
  1 31  1  0
  1 32  1  0
  2 33  1  0
  3 34  1  0
  3 35  1  0
  4 36  1  0
  4 37  1  0
  9 38  1  0
 10 39  1  0
 15 40  1  0
 15 41  1  0
 17 42  1  0
 18 43  1  0
 19 44  1  0
 20 45  1  0
 27 46  1  0
 28 47  1  0
 28 48  1  0
 29 49  1  0
 29 50  1  0
M  CHG  2  24   1  26  -1
M  END
$$$$
