
     RDKit          3D

 41 44  0  0  0  0  0  0  0  0999 V2000
    2.4267    0.7583   -1.2979 O   0  0  0  0  0  0  0  0  0  0  0  0
    1.4290    1.3686   -0.9535 C   0  0  0  0  0  0  0  0  0  0  0  0
    1.3751    2.7165   -1.0968 O   0  0  0  0  0  0  0  0  0  0  0  0
    0.1737    0.7944   -0.3043 C   0  0  0  0  0  0  0  0  0  0  0  0
    0.3269    0.7825    1.2215 C   0  0  0  0  0  0  0  0  0  0  0  0
    1.2543   -0.2787    1.7248 C   0  0  0  0  0  0  0  0  0  0  0  0
    0.9744   -1.6283    1.8232 C   0  0  0  0  0  0  0  0  0  0  0  0
    2.0803   -2.2614    2.3240 N   0  0  0  0  0  0  0  0  0  0  0  0
    3.0790   -1.3500    2.5722 C   0  0  0  0  0  0  0  0  0  0  0  0
    4.3666   -1.5437    3.0869 C   0  0  0  0  0  0  0  0  0  0  0  0
    5.1831   -0.4189    3.2310 C   0  0  0  0  0  0  0  0  0  0  0  0
    4.7278    0.8473    2.8732 C   0  0  0  0  0  0  0  0  0  0  0  0
    3.4374    1.0229    2.3598 C   0  0  0  0  0  0  0  0  0  0  0  0
    2.5919   -0.0955    2.2046 C   0  0  0  0  0  0  0  0  0  0  0  0
   -1.0109    1.6525   -0.6445 N   0  0  0  0  0  0  0  0  0  0  0  0
   -1.6624    1.4505   -2.1953 S   0  0  0  0  0  6  0  0  0  0  0  0
   -2.2785    2.7210   -2.5026 O   0  0  0  0  0  0  0  0  0  0  0  0
   -0.6298    0.8564   -3.0108 O   0  0  0  0  0  0  0  0  0  0  0  0
   -2.9525    0.2878   -1.9640 C   0  0  0  0  0  0  0  0  0  0  0  0
   -3.3900   -0.1133   -0.6819 C   0  0  0  0  0  0  0  0  0  0  0  0
   -4.4267   -1.0553   -0.4835 C   0  0  0  0  0  0  0  0  0  0  0  0
   -5.1137   -1.6710   -1.5428 C   0  0  0  0  0  0  0  0  0  0  0  0
   -4.7198   -1.2944   -2.8497 C   0  0  0  0  0  0  0  0  0  0  0  0
   -5.2540   -1.7618   -3.9876 N   0  0  0  0  0  0  0  0  0  0  0  0
   -4.4517   -1.0062   -5.2286 S   0  0  0  0  0  0  0  0  0  0  0  0
   -3.3934   -0.0564   -4.3767 N   0  0  0  0  0  0  0  0  0  0  0  0
   -3.6140   -0.2886   -3.0727 C   0  0  0  0  0  0  0  0  0  0  0  0
    2.2079    2.9210   -1.5761 H   0  0  0  0  0  0  0  0  0  0  0  0
    0.0020   -0.2194   -0.6838 H   0  0  0  0  0  0  0  0  0  0  0  0
    0.6577    1.7669    1.5771 H   0  0  0  0  0  0  0  0  0  0  0  0
   -0.6556    0.6170    1.6849 H   0  0  0  0  0  0  0  0  0  0  0  0
    0.0867   -2.1951    1.5755 H   0  0  0  0  0  0  0  0  0  0  0  0
    2.1599   -3.2548    2.4915 H   0  0  0  0  0  0  0  0  0  0  0  0
    4.7258   -2.5296    3.3632 H   0  0  0  0  0  0  0  0  0  0  0  0
    6.1899   -0.5360    3.6253 H   0  0  0  0  0  0  0  0  0  0  0  0
    5.3807    1.7086    2.9901 H   0  0  0  0  0  0  0  0  0  0  0  0
    3.0995    2.0164    2.0826 H   0  0  0  0  0  0  0  0  0  0  0  0
   -0.8356    2.6532   -0.4991 H   0  0  0  0  0  0  0  0  0  0  0  0
   -2.9302    0.3191    0.2064 H   0  0  0  0  0  0  0  0  0  0  0  0
   -4.7099   -1.3123    0.5384 H   0  0  0  0  0  0  0  0  0  0  0  0
   -5.9075   -2.3901   -1.3776 H   0  0  0  0  0  0  0  0  0  0  0  0
  1  2  2  0
  2  3  1  0
  2  4  1  0
  4  5  1  0
  5  6  1  0
  6  7  2  0
  7  8  1  0
  8  9  1  0
  9 10  2  0
 10 11  1  0
 11 12  2  0
 12 13  1  0
 13 14  2  0
  4 15  1  0
 15 16  1  0
 16 17  2  0
 16 18  2  0
 16 19  1  0
 19 20  2  0
 20 21  1  0
 21 22  2  0
 22 23  1  0
 23 24  2  0
 24 25  1  0
 25 26  1  0
 26 27  2  0
 14  6  1  0
 27 19  1  0
 14  9  1  0
 27 23  1  0
  3 28  1  0
  4 29  1  0
  5 30  1  0
  5 31  1  0
  7 32  1  0
  8 33  1  0
 10 34  1  0
 11 35  1  0
 12 36  1  0
 13 37  1  0
 15 38  1  0
 20 39  1  0
 21 40  1  0
 22 41  1  0
M  END
$$$$
