
     RDKit          3D

 43 45  0  0  0  0  0  0  0  0999 V2000
   -1.9862   -2.0251    0.4892 N   0  0  0  0  0  0  0  0  0  0  0  0
   -0.7374   -1.9645    0.9737 C   0  0  0  0  0  0  0  0  0  0  0  0
    0.0226   -3.0206    1.0398 N   0  0  0  0  0  0  0  0  0  0  0  0
    1.3214   -2.5187    1.5671 C   0  0  0  0  0  0  0  0  0  0  0  0
    1.0990   -1.0442    1.9467 C   0  0  0  0  0  0  0  0  0  0  0  0
    2.2118   -0.0785    1.5107 C   0  0  0  0  0  0  0  0  0  0  0  0
    2.6252    0.0916    0.0620 C   0  0  0  0  0  0  0  0  0  0  0  0
    3.7594    0.8831   -0.2008 C   0  0  0  0  0  0  0  0  0  0  0  0
    4.2007    1.1028   -1.5071 C   0  0  0  0  0  0  0  0  0  0  0  0
    3.5110    0.5351   -2.5673 C   0  0  0  0  0  0  0  0  0  0  0  0
    3.9724    0.7694   -3.8282 O   0  0  0  0  0  0  0  0  0  0  0  0
    2.3852   -0.2455   -2.3398 C   0  0  0  0  0  0  0  0  0  0  0  0
    1.9447   -0.4617   -1.0293 C   0  0  0  0  0  0  0  0  0  0  0  0
   -0.2164   -0.7695    1.3662 N   0  0  0  0  0  0  0  0  0  0  0  0
   -0.9593    0.3934    1.8379 C   0  0  0  0  0  0  0  0  0  0  0  0
   -1.1024    1.4720    0.7556 C   0  0  0  0  0  0  0  0  0  0  0  0
   -2.2522    1.2459   -0.1961 C   0  0  0  0  0  0  0  0  0  0  0  0
   -2.0289    0.6946   -1.4659 C   0  0  0  0  0  0  0  0  0  0  0  0
   -3.0928    0.4726   -2.3446 C   0  0  0  0  0  0  0  0  0  0  0  0
   -4.3913    0.8019   -1.9625 C   0  0  0  0  0  0  0  0  0  0  0  0
   -4.6140    1.3495   -0.7054 C   0  0  0  0  0  0  0  0  0  0  0  0
   -5.8621    1.6636   -0.3340 F   0  0  0  0  0  0  0  0  0  0  0  0
   -3.5624    1.5734    0.1783 C   0  0  0  0  0  0  0  0  0  0  0  0
   -2.6695   -1.3830    0.8575 H   0  0  0  0  0  0  0  0  0  0  0  0
   -2.3239   -2.9759    0.4035 H   0  0  0  0  0  0  0  0  0  0  0  0
    2.0975   -2.6584    0.8087 H   0  0  0  0  0  0  0  0  0  0  0  0
    1.6079   -3.1040    2.4476 H   0  0  0  0  0  0  0  0  0  0  0  0
    1.0144   -0.9924    3.0412 H   0  0  0  0  0  0  0  0  0  0  0  0
    3.1145   -0.3751    2.0633 H   0  0  0  0  0  0  0  0  0  0  0  0
    1.9429    0.9232    1.8731 H   0  0  0  0  0  0  0  0  0  0  0  0
    4.3117    1.3383    0.6191 H   0  0  0  0  0  0  0  0  0  0  0  0
    5.0788    1.7138   -1.6941 H   0  0  0  0  0  0  0  0  0  0  0  0
    3.4030    0.2944   -4.4553 H   0  0  0  0  0  0  0  0  0  0  0  0
    1.8349   -0.6956   -3.1601 H   0  0  0  0  0  0  0  0  0  0  0  0
    1.0584   -1.0745   -0.8922 H   0  0  0  0  0  0  0  0  0  0  0  0
   -1.9330    0.1000    2.2475 H   0  0  0  0  0  0  0  0  0  0  0  0
   -0.4162    0.8441    2.6786 H   0  0  0  0  0  0  0  0  0  0  0  0
   -1.2691    2.4400    1.2469 H   0  0  0  0  0  0  0  0  0  0  0  0
   -0.1679    1.5868    0.1937 H   0  0  0  0  0  0  0  0  0  0  0  0
   -1.0213    0.4189   -1.7716 H   0  0  0  0  0  0  0  0  0  0  0  0
   -2.9053    0.0373   -3.3227 H   0  0  0  0  0  0  0  0  0  0  0  0
   -5.2272    0.6342   -2.6335 H   0  0  0  0  0  0  0  0  0  0  0  0
   -3.7789    2.0072    1.1499 H   0  0  0  0  0  0  0  0  0  0  0  0
  1  2  1  0
  2  3  2  0
  3  4  1  0
  4  5  1  0
  5  6  1  0
  6  7  1  0
  7  8  2  0
  8  9  1  0
  9 10  2  0
 10 11  1  0
 10 12  1  0
 12 13  2  0
  5 14  1  0
 14 15  1  0
 15 16  1  0
 16 17  1  0
 17 18  2  0
 18 19  1  0
 19 20  2  0
 20 21  1  0
 21 22  1  0
 21 23  2  0
 14  2  1  0
 23 17  1  0
 13  7  1  0
  1 24  1  0
  1 25  1  0
  4 26  1  0
  4 27  1  0
  5 28  1  0
  6 29  1  0
  6 30  1  0
  8 31  1  0
  9 32  1  0
 11 33  1  0
 12 34  1  0
 13 35  1  0
 15 36  1  0
 15 37  1  0
 16 38  1  0
 16 39  1  0
 18 40  1  0
 19 41  1  0
 20 42  1  0
 23 43  1  0
M  END
$$$$
