
     RDKit          3D

 43 46  0  0  0  0  0  0  0  0999 V2000
    2.0432    1.6266    0.5793 O   0  0  0  0  0  0  0  0  0  0  0  0
    2.6489    0.5792    0.3589 C   0  0  0  0  0  0  0  0  0  0  0  0
    4.1041    0.6329    0.1336 C   0  0  0  0  0  0  0  0  0  0  0  0
    4.8054    1.8409    0.2115 C   0  0  0  0  0  0  0  0  0  0  0  0
    6.1829    1.8567   -0.0118 C   0  0  0  0  0  0  0  0  0  0  0  0
    6.8539    0.6703   -0.3128 C   0  0  0  0  0  0  0  0  0  0  0  0
    6.1504   -0.5339   -0.3915 C   0  0  0  0  0  0  0  0  0  0  0  0
    4.7735   -0.5449   -0.1663 C   0  0  0  0  0  0  0  0  0  0  0  0
    4.0645   -1.7404   -0.2472 N   0  0  0  0  0  0  0  0  0  0  0  0
    2.7170   -1.8505   -0.0347 C   0  0  0  0  0  0  0  0  0  0  0  0
    2.0686   -3.3899   -0.1982 S   0  0  0  0  0  0  0  0  0  0  0  0
    2.0333   -0.6814    0.2948 N   0  0  0  0  0  0  0  0  0  0  0  0
    0.5777   -0.6716    0.5243 C   0  0  0  0  0  0  0  0  0  0  0  0
   -0.2019   -0.3673   -0.7752 C   0  0  0  0  0  0  0  0  0  0  0  0
   -1.6704   -0.3281   -0.6981 N   0  0  0  0  0  0  0  0  0  0  0  0
   -2.2628   -1.5834   -0.2253 C   0  0  0  0  0  0  0  0  0  0  0  0
   -3.7776   -1.5830   -0.4747 C   0  0  0  0  0  0  0  0  0  0  0  0
   -4.4427   -0.3166    0.0033 C   0  0  0  0  0  0  0  0  0  0  0  0
   -5.8340   -0.2687    0.1627 C   0  0  0  0  0  0  0  0  0  0  0  0
   -6.4559    0.9112    0.5695 C   0  0  0  0  0  0  0  0  0  0  0  0
   -5.6948    2.0522    0.8133 C   0  0  0  0  0  0  0  0  0  0  0  0
   -4.3100    2.0165    0.6468 C   0  0  0  0  0  0  0  0  0  0  0  0
   -3.6726    0.8387    0.2292 C   0  0  0  0  0  0  0  0  0  0  0  0
   -2.1628    0.8080    0.0976 C   0  0  0  0  0  0  0  0  0  0  0  0
    4.2829    2.7664    0.4443 H   0  0  0  0  0  0  0  0  0  0  0  0
    6.7319    2.7938    0.0479 H   0  0  0  0  0  0  0  0  0  0  0  0
    7.9275    0.6848   -0.4874 H   0  0  0  0  0  0  0  0  0  0  0  0
    6.6869   -1.4487   -0.6282 H   0  0  0  0  0  0  0  0  0  0  0  0
    4.5552   -2.5975   -0.4780 H   0  0  0  0  0  0  0  0  0  0  0  0
    0.2633   -1.6282    0.9500 H   0  0  0  0  0  0  0  0  0  0  0  0
    0.3525    0.0847    1.2845 H   0  0  0  0  0  0  0  0  0  0  0  0
    0.0729   -1.1104   -1.5349 H   0  0  0  0  0  0  0  0  0  0  0  0
    0.1476    0.5867   -1.1913 H   0  0  0  0  0  0  0  0  0  0  0  0
   -1.8309   -2.4385   -0.7594 H   0  0  0  0  0  0  0  0  0  0  0  0
   -2.0653   -1.7334    0.8443 H   0  0  0  0  0  0  0  0  0  0  0  0
   -4.2192   -2.4496    0.0315 H   0  0  0  0  0  0  0  0  0  0  0  0
   -3.9720   -1.6862   -1.5498 H   0  0  0  0  0  0  0  0  0  0  0  0
   -6.4387   -1.1509   -0.0333 H   0  0  0  0  0  0  0  0  0  0  0  0
   -7.5350    0.9412    0.6931 H   0  0  0  0  0  0  0  0  0  0  0  0
   -6.1798    2.9712    1.1313 H   0  0  0  0  0  0  0  0  0  0  0  0
   -3.7274    2.9139    0.8424 H   0  0  0  0  0  0  0  0  0  0  0  0
   -1.8388    1.7387   -0.3843 H   0  0  0  0  0  0  0  0  0  0  0  0
   -1.7515    0.7885    1.1140 H   0  0  0  0  0  0  0  0  0  0  0  0
  1  2  2  0
  2  3  1  0
  3  4  2  0
  4  5  1  0
  5  6  2  0
  6  7  1  0
  7  8  2  0
  8  9  1  0
  9 10  1  0
 10 11  2  0
 10 12  1  0
 12 13  1  0
 13 14  1  0
 14 15  1  0
 15 16  1  0
 16 17  1  0
 17 18  1  0
 18 19  2  0
 19 20  1  0
 20 21  2  0
 21 22  1  0
 22 23  2  0
 23 24  1  0
 12  2  1  0
 24 15  1  0
  8  3  1  0
 23 18  1  0
  4 25  1  0
  5 26  1  0
  6 27  1  0
  7 28  1  0
  9 29  1  0
 13 30  1  0
 13 31  1  0
 14 32  1  0
 14 33  1  0
 16 34  1  0
 16 35  1  0
 17 36  1  0
 17 37  1  0
 19 38  1  0
 20 39  1  0
 21 40  1  0
 22 41  1  0
 24 42  1  0
 24 43  1  0
M  END
$$$$
