
     RDKit          3D

 42 44  0  0  0  0  0  0  0  0999 V2000
   -2.4663   -2.6815    0.5461 C   0  0  0  0  0  0  0  0  0  0  0  0
   -3.2190   -1.5670   -0.1620 C   0  0  0  0  0  0  0  0  0  0  0  0
   -2.4260   -0.3722   -0.3620 N   0  0  0  0  0  0  0  0  0  0  0  0
   -1.5379   -0.1231   -1.3715 C   0  0  0  0  0  0  0  0  0  0  0  0
   -1.0774   -1.2725   -2.5777 S   0  0  0  0  0  0  0  0  0  0  0  0
    0.7017   -0.8994   -2.6726 C   0  0  0  0  0  0  0  0  0  0  0  0
    1.4158   -1.2036   -1.3634 C   0  0  0  0  0  0  0  0  0  0  0  0
    0.9861   -1.9993   -0.5266 O   0  0  0  0  0  0  0  0  0  0  0  0
    2.7237   -0.5305   -1.1011 C   0  0  0  0  0  0  0  0  0  0  0  0
    3.2275   -0.5421    0.2059 C   0  0  0  0  0  0  0  0  0  0  0  0
    4.4481    0.0702    0.5006 C   0  0  0  0  0  0  0  0  0  0  0  0
    5.1910    0.6898   -0.5096 C   0  0  0  0  0  0  0  0  0  0  0  0
    6.4838    1.3798   -0.1873 C   0  0  0  0  0  0  0  0  0  0  0  0
    4.6840    0.7068   -1.8141 C   0  0  0  0  0  0  0  0  0  0  0  0
    3.4617    0.0948   -2.1124 C   0  0  0  0  0  0  0  0  0  0  0  0
   -1.0772    1.1005   -1.2755 N   0  0  0  0  0  0  0  0  0  0  0  0
   -1.6815    1.6842   -0.1910 N   0  0  0  0  0  0  0  0  0  0  0  0
   -2.4779    0.7949    0.3753 C   0  0  0  0  0  0  0  0  0  0  0  0
   -3.3069    1.0422    1.5480 C   0  0  0  0  0  0  0  0  0  0  0  0
   -4.2826    2.0387    1.5040 C   0  0  0  0  0  0  0  0  0  0  0  0
   -5.0575    2.2515    2.6307 C   0  0  0  0  0  0  0  0  0  0  0  0
   -4.9202    1.5519    3.7770 N   0  0  0  0  0  0  0  0  0  0  0  0
   -3.9492    0.6150    3.8063 C   0  0  0  0  0  0  0  0  0  0  0  0
   -3.1248    0.3271    2.7317 C   0  0  0  0  0  0  0  0  0  0  0  0
   -1.6187   -3.0349   -0.0483 H   0  0  0  0  0  0  0  0  0  0  0  0
   -2.0758   -2.3529    1.5133 H   0  0  0  0  0  0  0  0  0  0  0  0
   -3.1311   -3.5338    0.7188 H   0  0  0  0  0  0  0  0  0  0  0  0
   -3.5752   -1.9060   -1.1411 H   0  0  0  0  0  0  0  0  0  0  0  0
   -4.1128   -1.2974    0.4100 H   0  0  0  0  0  0  0  0  0  0  0  0
    0.8176    0.1529   -2.9462 H   0  0  0  0  0  0  0  0  0  0  0  0
    1.1411   -1.5231   -3.4570 H   0  0  0  0  0  0  0  0  0  0  0  0
    2.6670   -1.0219    1.0062 H   0  0  0  0  0  0  0  0  0  0  0  0
    4.8131    0.0595    1.5256 H   0  0  0  0  0  0  0  0  0  0  0  0
    7.1698    1.3410   -1.0400 H   0  0  0  0  0  0  0  0  0  0  0  0
    6.9866    0.8943    0.6558 H   0  0  0  0  0  0  0  0  0  0  0  0
    6.2951    2.4268    0.0684 H   0  0  0  0  0  0  0  0  0  0  0  0
    5.2410    1.1982   -2.6098 H   0  0  0  0  0  0  0  0  0  0  0  0
    3.1179    0.1195   -3.1420 H   0  0  0  0  0  0  0  0  0  0  0  0
   -4.4335    2.6399    0.6129 H   0  0  0  0  0  0  0  0  0  0  0  0
   -5.8306    3.0146    2.6423 H   0  0  0  0  0  0  0  0  0  0  0  0
   -3.8438    0.0878    4.7504 H   0  0  0  0  0  0  0  0  0  0  0  0
   -2.3467   -0.4208    2.8323 H   0  0  0  0  0  0  0  0  0  0  0  0
  1  2  1  0
  2  3  1  0
  3  4  1  0
  4  5  1  0
  5  6  1  0
  6  7  1  0
  7  8  2  0
  7  9  1  0
  9 10  2  0
 10 11  1  0
 11 12  2  0
 12 13  1  0
 12 14  1  0
 14 15  2  0
  4 16  2  0
 16 17  1  0
 17 18  2  0
 18 19  1  0
 19 20  2  0
 20 21  1  0
 21 22  2  0
 22 23  1  0
 23 24  2  0
 18  3  1  0
 24 19  1  0
 15  9  1  0
  1 25  1  0
  1 26  1  0
  1 27  1  0
  2 28  1  0
  2 29  1  0
  6 30  1  0
  6 31  1  0
 10 32  1  0
 11 33  1  0
 13 34  1  0
 13 35  1  0
 13 36  1  0
 14 37  1  0
 15 38  1  0
 20 39  1  0
 21 40  1  0
 23 41  1  0
 24 42  1  0
M  END
$$$$
