
     RDKit          3D

 46 48  0  0  0  0  0  0  0  0999 V2000
   -0.3761   -0.9981   -1.8321 O   0  0  0  0  0  0  0  0  0  0  0  0
   -0.4203   -0.3530   -0.7913 C   0  0  0  0  0  0  0  0  0  0  0  0
    0.8269   -0.0204    0.0106 C   0  0  0  0  0  0  0  0  0  0  0  0
    2.0664   -0.7035   -0.5714 C   0  0  0  0  0  0  0  0  0  0  0  0
    3.2708   -0.4392    0.2424 N   0  0  0  0  0  0  0  0  0  0  0  0
    3.8308    0.8955   -0.0014 C   0  0  0  0  0  0  0  0  0  0  0  0
    4.6884    1.4289    1.1650 C   0  0  0  0  0  0  0  0  0  0  0  0
    4.8963    0.4632    2.3341 C   0  0  0  0  0  0  0  0  0  0  0  0
    5.7415   -0.7686    2.0040 C   0  0  0  0  0  0  0  0  0  0  0  0
    5.6746   -1.2486    0.5570 C   0  0  0  0  0  0  0  0  0  0  0  0
    4.2616   -1.5094    0.0239 C   0  0  0  0  0  0  0  0  0  0  0  0
   -1.5560    0.1783   -0.1986 N   0  0  0  0  0  0  0  0  0  0  0  0
   -2.8886    0.0876   -0.6519 C   0  0  0  0  0  0  0  0  0  0  0  0
   -3.2738   -0.5740   -1.8210 C   0  0  0  0  0  0  0  0  0  0  0  0
   -4.6208   -0.6248   -2.1992 C   0  0  0  0  0  0  0  0  0  0  0  0
   -5.5906   -0.0168   -1.4091 C   0  0  0  0  0  0  0  0  0  0  0  0
   -5.2123    0.6699   -0.2542 C   0  0  0  0  0  0  0  0  0  0  0  0
   -3.8712    0.7092    0.1303 C   0  0  0  0  0  0  0  0  0  0  0  0
   -6.1047    1.3234    0.5582 O   0  0  0  0  0  0  0  0  0  0  0  0
   -7.3662    1.5070   -0.0960 C   0  0  0  0  0  0  0  0  0  0  0  0
   -7.8060    0.2259   -0.7853 C   0  0  0  0  0  0  0  0  0  0  0  0
   -6.8907   -0.1258   -1.8290 O   0  0  0  0  0  0  0  0  0  0  0  0
    0.6727   -0.3527    1.0446 H   0  0  0  0  0  0  0  0  0  0  0  0
    0.9368    1.0692    0.0124 H   0  0  0  0  0  0  0  0  0  0  0  0
    1.8639   -1.7835   -0.5841 H   0  0  0  0  0  0  0  0  0  0  0  0
    2.2287   -0.4068   -1.6160 H   0  0  0  0  0  0  0  0  0  0  0  0
    4.4070    0.9152   -0.9361 H   0  0  0  0  0  0  0  0  0  0  0  0
    3.0302    1.6293   -0.1513 H   0  0  0  0  0  0  0  0  0  0  0  0
    4.2025    2.3297    1.5619 H   0  0  0  0  0  0  0  0  0  0  0  0
    5.6632    1.7533    0.7803 H   0  0  0  0  0  0  0  0  0  0  0  0
    5.3787    1.0014    3.1598 H   0  0  0  0  0  0  0  0  0  0  0  0
    3.9215    0.1458    2.7259 H   0  0  0  0  0  0  0  0  0  0  0  0
    5.4563   -1.5849    2.6790 H   0  0  0  0  0  0  0  0  0  0  0  0
    6.7909   -0.5419    2.2318 H   0  0  0  0  0  0  0  0  0  0  0  0
    6.1870   -0.5260   -0.0905 H   0  0  0  0  0  0  0  0  0  0  0  0
    6.2542   -2.1765    0.4711 H   0  0  0  0  0  0  0  0  0  0  0  0
    3.8835   -2.4237    0.4987 H   0  0  0  0  0  0  0  0  0  0  0  0
    4.3543   -1.7243   -1.0494 H   0  0  0  0  0  0  0  0  0  0  0  0
   -1.4177    0.6864    0.6667 H   0  0  0  0  0  0  0  0  0  0  0  0
   -2.5515   -1.0676   -2.4636 H   0  0  0  0  0  0  0  0  0  0  0  0
   -4.9075   -1.1502   -3.1061 H   0  0  0  0  0  0  0  0  0  0  0  0
   -3.6088    1.2397    1.0411 H   0  0  0  0  0  0  0  0  0  0  0  0
   -8.0958    1.7961    0.6668 H   0  0  0  0  0  0  0  0  0  0  0  0
   -7.2711    2.3349   -0.8096 H   0  0  0  0  0  0  0  0  0  0  0  0
   -7.8667   -0.6105   -0.0779 H   0  0  0  0  0  0  0  0  0  0  0  0
   -8.7923    0.3602   -1.2404 H   0  0  0  0  0  0  0  0  0  0  0  0
  1  2  2  0
  2  3  1  0
  3  4  1  0
  4  5  1  0
  5  6  1  0
  6  7  1  0
  7  8  1  0
  8  9  1  0
  9 10  1  0
 10 11  1  0
  2 12  1  0
 12 13  1  0
 13 14  2  0
 14 15  1  0
 15 16  2  0
 16 17  1  0
 17 18  2  0
 17 19  1  0
 19 20  1  0
 20 21  1  0
 21 22  1  0
 11  5  1  0
 18 13  1  0
 22 16  1  0
  3 23  1  0
  3 24  1  0
  4 25  1  0
  4 26  1  0
  6 27  1  0
  6 28  1  0
  7 29  1  0
  7 30  1  0
  8 31  1  0
  8 32  1  0
  9 33  1  0
  9 34  1  0
 10 35  1  0
 10 36  1  0
 11 37  1  0
 11 38  1  0
 12 39  1  0
 14 40  1  0
 15 41  1  0
 18 42  1  0
 20 43  1  0
 20 44  1  0
 21 45  1  0
 21 46  1  0
M  END
$$$$
