
     RDKit          3D

 37 39  0  0  0  0  0  0  0  0999 V2000
   -0.1839   -3.0785   -1.9634 C   0  0  0  0  0  0  0  0  0  0  0  0
   -0.7940   -2.2575   -2.9568 O   0  0  0  0  0  0  0  0  0  0  0  0
   -1.3105   -1.0554   -2.4866 C   0  0  0  0  0  0  0  0  0  0  0  0
   -2.2914   -0.4986   -3.3149 C   0  0  0  0  0  0  0  0  0  0  0  0
   -2.9140    0.7013   -2.9838 C   0  0  0  0  0  0  0  0  0  0  0  0
   -2.5696    1.3965   -1.8183 C   0  0  0  0  0  0  0  0  0  0  0  0
   -3.1321    2.5787   -1.4198 O   0  0  0  0  0  0  0  0  0  0  0  0
   -4.2203    3.0787   -2.1877 C   0  0  0  0  0  0  0  0  0  0  0  0
   -1.5447    0.8466   -1.0145 C   0  0  0  0  0  0  0  0  0  0  0  0
   -0.8689    1.4739    0.4424 S   0  0  0  0  0  0  0  0  0  0  0  0
    0.2461    0.1598    0.5322 C   0  0  0  0  0  0  0  0  0  0  0  0
    1.1777    0.0242    1.5241 N   0  0  0  0  0  0  0  0  0  0  0  0
    1.9809   -1.1978    1.5519 C   0  0  0  0  0  0  0  0  0  0  0  0
    2.5436   -1.4239    2.9534 C   0  0  0  0  0  0  0  0  0  0  0  0
    3.4088   -0.2564    3.4276 C   0  0  0  0  0  0  0  0  0  0  0  0
    3.1034    1.0411    2.6869 C   0  0  0  0  0  0  0  0  0  0  0  0
    1.6240    1.1653    2.3262 C   0  0  0  0  0  0  0  0  0  0  0  0
    0.0948   -0.7224   -0.4287 N   0  0  0  0  0  0  0  0  0  0  0  0
   -0.9040   -0.3549   -1.3233 C   0  0  0  0  0  0  0  0  0  0  0  0
    0.8339   -2.7353   -1.7562 H   0  0  0  0  0  0  0  0  0  0  0  0
   -0.7872   -3.1446   -1.0516 H   0  0  0  0  0  0  0  0  0  0  0  0
   -0.1047   -4.0918   -2.3713 H   0  0  0  0  0  0  0  0  0  0  0  0
   -2.5671   -1.0129   -4.2306 H   0  0  0  0  0  0  0  0  0  0  0  0
   -3.6687    1.0781   -3.6651 H   0  0  0  0  0  0  0  0  0  0  0  0
   -3.9003    3.3396   -3.2019 H   0  0  0  0  0  0  0  0  0  0  0  0
   -4.5746    3.9960   -1.7086 H   0  0  0  0  0  0  0  0  0  0  0  0
   -5.0512    2.3680   -2.1988 H   0  0  0  0  0  0  0  0  0  0  0  0
    2.7943   -1.1299    0.8189 H   0  0  0  0  0  0  0  0  0  0  0  0
    1.3723   -2.0732    1.2906 H   0  0  0  0  0  0  0  0  0  0  0  0
    3.1225   -2.3531    2.9854 H   0  0  0  0  0  0  0  0  0  0  0  0
    1.7104   -1.5516    3.6570 H   0  0  0  0  0  0  0  0  0  0  0  0
    3.2587   -0.1167    4.5050 H   0  0  0  0  0  0  0  0  0  0  0  0
    4.4698   -0.4994    3.2982 H   0  0  0  0  0  0  0  0  0  0  0  0
    3.4222    1.8995    3.2909 H   0  0  0  0  0  0  0  0  0  0  0  0
    3.6980    1.0710    1.7643 H   0  0  0  0  0  0  0  0  0  0  0  0
    1.0200    1.2238    3.2395 H   0  0  0  0  0  0  0  0  0  0  0  0
    1.5059    2.1118    1.7874 H   0  0  0  0  0  0  0  0  0  0  0  0
  1  2  1  0
  2  3  1  0
  3  4  2  0
  4  5  1  0
  5  6  2  0
  6  7  1  0
  7  8  1  0
  6  9  1  0
  9 10  1  0
 10 11  1  0
 11 12  1  0
 12 13  1  0
 13 14  1  0
 14 15  1  0
 15 16  1  0
 16 17  1  0
 11 18  2  0
 18 19  1  0
 19  3  1  0
 19  9  2  0
 17 12  1  0
  1 20  1  0
  1 21  1  0
  1 22  1  0
  4 23  1  0
  5 24  1  0
  8 25  1  0
  8 26  1  0
  8 27  1  0
 13 28  1  0
 13 29  1  0
 14 30  1  0
 14 31  1  0
 15 32  1  0
 15 33  1  0
 16 34  1  0
 16 35  1  0
 17 36  1  0
 17 37  1  0
M  END
$$$$
