
     RDKit          3D

 39 42  0  0  0  0  0  0  0  0999 V2000
    0.2361    0.1117    2.9619 N   0  0  0  0  0  0  0  0  0  0  0  0
    0.3626   -0.8510    2.3253 C   0  0  0  0  0  0  0  0  0  0  0  0
    0.4968   -2.0578    1.4979 C   0  0  0  0  0  0  0  0  0  0  0  0
   -0.8363   -2.2265    0.2647 S   0  0  0  0  0  0  0  0  0  0  0  0
   -0.5947   -0.7009   -0.5825 C   0  0  0  0  0  0  0  0  0  0  0  0
    0.6149   -0.5062   -1.0068 N   0  0  0  0  0  0  0  0  0  0  0  0
    0.8845    0.7215   -1.5206 C   0  0  0  0  0  0  0  0  0  0  0  0
    0.0014    1.7089   -1.6317 C   0  0  0  0  0  0  0  0  0  0  0  0
    0.6544    3.1549   -2.2734 S   0  0  0  0  0  0  0  0  0  0  0  0
    2.2665    2.4011   -2.3666 C   0  0  0  0  0  0  0  0  0  0  0  0
    3.6116    3.2168   -2.9133 S   0  0  0  0  0  0  0  0  0  0  0  0
    2.1573    1.0774   -1.9317 N   0  0  0  0  0  0  0  0  0  0  0  0
    3.2856    0.1602   -1.7708 C   0  0  0  0  0  0  0  0  0  0  0  0
    3.7191    0.0597   -0.3446 C   0  0  0  0  0  0  0  0  0  0  0  0
    4.4020   -0.9147    0.3567 C   0  0  0  0  0  0  0  0  0  0  0  0
    4.5110   -0.4496    1.6897 C   0  0  0  0  0  0  0  0  0  0  0  0
    3.8933    0.7779    1.7193 C   0  0  0  0  0  0  0  0  0  0  0  0
    3.4167    1.0981    0.4903 O   0  0  0  0  0  0  0  0  0  0  0  0
   -1.3882    1.5009   -1.2094 C   0  0  0  0  0  0  0  0  0  0  0  0
   -2.2228    2.3899   -1.3661 O   0  0  0  0  0  0  0  0  0  0  0  0
   -1.6415    0.2228   -0.6838 N   0  0  0  0  0  0  0  0  0  0  0  0
   -2.9939   -0.0737   -0.3077 C   0  0  0  0  0  0  0  0  0  0  0  0
   -3.7045    0.8045    0.5281 C   0  0  0  0  0  0  0  0  0  0  0  0
   -5.0263    0.5320    0.8899 C   0  0  0  0  0  0  0  0  0  0  0  0
   -5.6472   -0.6116    0.4066 C   0  0  0  0  0  0  0  0  0  0  0  0
   -6.9142   -0.8733    0.7519 F   0  0  0  0  0  0  0  0  0  0  0  0
   -4.9738   -1.4844   -0.4380 C   0  0  0  0  0  0  0  0  0  0  0  0
   -3.6511   -1.2139   -0.8002 C   0  0  0  0  0  0  0  0  0  0  0  0
    1.4658   -2.0742    0.9905 H   0  0  0  0  0  0  0  0  0  0  0  0
    0.4612   -2.9449    2.1385 H   0  0  0  0  0  0  0  0  0  0  0  0
    4.1354    0.4845   -2.3781 H   0  0  0  0  0  0  0  0  0  0  0  0
    2.9888   -0.8259   -2.1482 H   0  0  0  0  0  0  0  0  0  0  0  0
    4.7765   -1.8454   -0.0467 H   0  0  0  0  0  0  0  0  0  0  0  0
    4.9857   -0.9419    2.5270 H   0  0  0  0  0  0  0  0  0  0  0  0
    3.7183    1.5126    2.4938 H   0  0  0  0  0  0  0  0  0  0  0  0
   -3.2345    1.7057    0.9183 H   0  0  0  0  0  0  0  0  0  0  0  0
   -5.5720    1.2081    1.5408 H   0  0  0  0  0  0  0  0  0  0  0  0
   -5.4848   -2.3636   -0.8179 H   0  0  0  0  0  0  0  0  0  0  0  0
   -3.1596   -1.8897   -1.4959 H   0  0  0  0  0  0  0  0  0  0  0  0
  1  2  3  0
  2  3  1  0
  3  4  1  0
  4  5  1  0
  5  6  2  0
  6  7  1  0
  7  8  2  0
  8  9  1  0
  9 10  1  0
 10 11  2  0
 10 12  1  0
 12 13  1  0
 13 14  1  0
 14 15  2  0
 15 16  1  0
 16 17  2  0
 17 18  1  0
  8 19  1  0
 19 20  2  0
 19 21  1  0
 21 22  1  0
 22 23  2  0
 23 24  1  0
 24 25  2  0
 25 26  1  0
 25 27  1  0
 27 28  2  0
 21  5  1  0
 28 22  1  0
 12  7  1  0
 18 14  1  0
  3 29  1  0
  3 30  1  0
 13 31  1  0
 13 32  1  0
 15 33  1  0
 16 34  1  0
 17 35  1  0
 23 36  1  0
 24 37  1  0
 27 38  1  0
 28 39  1  0
M  END
$$$$
