
     RDKit          3D

 41 42  0  0  0  0  0  0  0  0999 V2000
   -0.3986   -1.6521   -1.4412 O   0  0  0  0  0  0  0  0  0  0  0  0
   -0.1072   -0.6904   -0.4183 C   0  0  0  0  0  0  0  0  0  0  0  0
    1.2824   -0.9712    0.1584 C   0  0  0  0  0  0  0  0  0  0  0  0
    1.5962   -0.0143    1.1722 O   0  0  0  0  0  0  0  0  0  0  0  0
    2.9146   -0.1871    1.6950 C   0  0  0  0  0  0  0  0  0  0  0  0
    3.9518    0.4647    0.8127 C   0  0  0  0  0  0  0  0  0  0  0  0
    3.7753    1.7817    0.3610 C   0  0  0  0  0  0  0  0  0  0  0  0
    4.7411    2.3933   -0.4411 C   0  0  0  0  0  0  0  0  0  0  0  0
    5.8927    1.6927   -0.7908 C   0  0  0  0  0  0  0  0  0  0  0  0
    7.0847    2.4447   -1.7779 Cl  0  0  0  0  0  0  0  0  0  0  0  0
    6.0871    0.3873   -0.3442 C   0  0  0  0  0  0  0  0  0  0  0  0
    5.1205   -0.2246    0.4582 C   0  0  0  0  0  0  0  0  0  0  0  0
   -1.2073   -0.7588    0.6644 C   0  0  0  0  0  0  0  0  0  0  0  0
   -2.5644   -0.6763    0.0706 N   0  0  0  0  0  0  0  0  0  0  0  0
   -2.8227    0.6536   -0.5186 C   0  0  0  0  0  0  0  0  0  0  0  0
   -4.3074    1.0426   -0.5682 C   0  0  0  0  0  0  0  0  0  0  0  0
   -5.1957   -0.1790   -0.7441 C   0  0  0  0  0  0  0  0  0  0  0  0
   -4.9506   -1.1978    0.3705 C   0  0  0  0  0  0  0  0  0  0  0  0
   -3.5901   -1.0285    1.0568 C   0  0  0  0  0  0  0  0  0  0  0  0
   -1.3773   -1.6592   -1.4952 H   0  0  0  0  0  0  0  0  0  0  0  0
   -0.1056    0.3034   -0.8805 H   0  0  0  0  0  0  0  0  0  0  0  0
    2.0220   -0.9300   -0.6503 H   0  0  0  0  0  0  0  0  0  0  0  0
    1.3168   -1.9834    0.5802 H   0  0  0  0  0  0  0  0  0  0  0  0
    3.1221   -1.2515    1.8579 H   0  0  0  0  0  0  0  0  0  0  0  0
    2.9461    0.3011    2.6756 H   0  0  0  0  0  0  0  0  0  0  0  0
    2.8758    2.3326    0.6306 H   0  0  0  0  0  0  0  0  0  0  0  0
    4.5879    3.4116   -0.7877 H   0  0  0  0  0  0  0  0  0  0  0  0
    6.9866   -0.1584   -0.6161 H   0  0  0  0  0  0  0  0  0  0  0  0
    5.2862   -1.2438    0.8008 H   0  0  0  0  0  0  0  0  0  0  0  0
   -1.1150   -1.7327    1.1629 H   0  0  0  0  0  0  0  0  0  0  0  0
   -1.0605    0.0157    1.4271 H   0  0  0  0  0  0  0  0  0  0  0  0
   -2.4294    0.6526   -1.5421 H   0  0  0  0  0  0  0  0  0  0  0  0
   -2.2923    1.4447    0.0270 H   0  0  0  0  0  0  0  0  0  0  0  0
   -4.5832    1.5552    0.3623 H   0  0  0  0  0  0  0  0  0  0  0  0
   -4.4765    1.7542   -1.3842 H   0  0  0  0  0  0  0  0  0  0  0  0
   -4.9807   -0.6440   -1.7145 H   0  0  0  0  0  0  0  0  0  0  0  0
   -6.2522    0.1108   -0.7629 H   0  0  0  0  0  0  0  0  0  0  0  0
   -5.7379   -1.1097    1.1290 H   0  0  0  0  0  0  0  0  0  0  0  0
   -5.0370   -2.2072   -0.0505 H   0  0  0  0  0  0  0  0  0  0  0  0
   -3.3473   -1.9765    1.5525 H   0  0  0  0  0  0  0  0  0  0  0  0
   -3.6512   -0.2662    1.8448 H   0  0  0  0  0  0  0  0  0  0  0  0
  1  2  1  0
  2  3  1  0
  3  4  1  0
  4  5  1  0
  5  6  1  0
  6  7  2  0
  7  8  1  0
  8  9  2  0
  9 10  1  0
  9 11  1  0
 11 12  2  0
  2 13  1  0
 13 14  1  0
 14 15  1  0
 15 16  1  0
 16 17  1  0
 17 18  1  0
 18 19  1  0
 12  6  1  0
 19 14  1  0
  1 20  1  0
  2 21  1  0
  3 22  1  0
  3 23  1  0
  5 24  1  0
  5 25  1  0
  7 26  1  0
  8 27  1  0
 11 28  1  0
 12 29  1  0
 13 30  1  0
 13 31  1  0
 15 32  1  0
 15 33  1  0
 16 34  1  0
 16 35  1  0
 17 36  1  0
 17 37  1  0
 18 38  1  0
 18 39  1  0
 19 40  1  0
 19 41  1  0
M  END
$$$$
