
     RDKit          3D

 62 66  0  0  0  0  0  0  0  0999 V2000
   -5.2287   -5.3747   -2.1287 C   0  0  0  0  0  0  0  0  0  0  0  0
   -5.2453   -4.0202   -1.6968 O   0  0  0  0  0  0  0  0  0  0  0  0
   -4.3060   -3.6540   -0.7718 C   0  0  0  0  0  0  0  0  0  0  0  0
   -3.3304   -4.4851   -0.2208 C   0  0  0  0  0  0  0  0  0  0  0  0
   -2.4259   -3.9789    0.7159 C   0  0  0  0  0  0  0  0  0  0  0  0
   -2.4930   -2.6411    1.1059 C   0  0  0  0  0  0  0  0  0  0  0  0
   -3.4666   -1.7947    0.5633 C   0  0  0  0  0  0  0  0  0  0  0  0
   -3.5249   -0.3820    0.9592 C   0  0  0  0  0  0  0  0  0  0  0  0
   -4.9148    0.1711    1.7907 S   0  0  0  0  0  0  0  0  0  0  0  0
   -4.3052    1.7686    1.9368 C   0  0  0  0  0  0  0  0  0  0  0  0
   -4.9444    2.8635    2.5497 C   0  0  0  0  0  0  0  0  0  0  0  0
   -4.3014    4.1064    2.5745 C   0  0  0  0  0  0  0  0  0  0  0  0
   -3.0480    4.2653    2.0001 C   0  0  0  0  0  0  0  0  0  0  0  0
   -2.3225    5.4247    1.9585 O   0  0  0  0  0  0  0  0  0  0  0  0
   -2.9244    6.5824    2.5239 C   0  0  0  0  0  0  0  0  0  0  0  0
   -2.4233    3.1678    1.3954 C   0  0  0  0  0  0  0  0  0  0  0  0
   -3.0426    1.8903    1.3567 C   0  0  0  0  0  0  0  0  0  0  0  0
   -2.5936    0.6332    0.7958 C   0  0  0  0  0  0  0  0  0  0  0  0
   -1.3168    0.4083    0.1233 C   0  0  0  0  0  0  0  0  0  0  0  0
   -0.1206    0.5105    0.8423 C   0  0  0  0  0  0  0  0  0  0  0  0
    1.1090    0.2989    0.2079 C   0  0  0  0  0  0  0  0  0  0  0  0
    1.1516   -0.0147   -1.1510 C   0  0  0  0  0  0  0  0  0  0  0  0
    2.2793   -0.2458   -1.8891 O   0  0  0  0  0  0  0  0  0  0  0  0
    3.5360   -0.1463   -1.2104 C   0  0  0  0  0  0  0  0  0  0  0  0
    4.6512   -0.4359   -2.2306 C   0  0  0  0  0  0  0  0  0  0  0  0
    6.0405   -0.3935   -1.7727 N   0  0  0  0  0  0  0  0  0  0  0  0
    6.3867   -1.3665   -0.7431 C   0  0  0  0  0  0  0  0  0  0  0  0
    7.7789   -0.9196   -0.3179 C   0  0  0  0  0  0  0  0  0  0  0  0
    7.8509    0.5634   -0.6732 C   0  0  0  0  0  0  0  0  0  0  0  0
    6.4898    0.8984   -1.2670 C   0  0  0  0  0  0  0  0  0  0  0  0
   -0.0437   -0.1129   -1.8679 C   0  0  0  0  0  0  0  0  0  0  0  0
   -1.2730    0.0992   -1.2389 C   0  0  0  0  0  0  0  0  0  0  0  0
   -4.3682   -2.3138   -0.3769 C   0  0  0  0  0  0  0  0  0  0  0  0
   -4.2860   -5.6178   -2.6299 H   0  0  0  0  0  0  0  0  0  0  0  0
   -5.4216   -6.0575   -1.2947 H   0  0  0  0  0  0  0  0  0  0  0  0
   -6.0352   -5.5031   -2.8570 H   0  0  0  0  0  0  0  0  0  0  0  0
   -3.2443   -5.5300   -0.4991 H   0  0  0  0  0  0  0  0  0  0  0  0
   -1.6649   -4.6281    1.1414 H   0  0  0  0  0  0  0  0  0  0  0  0
   -1.7804   -2.2626    1.8351 H   0  0  0  0  0  0  0  0  0  0  0  0
   -5.9276    2.7471    2.9977 H   0  0  0  0  0  0  0  0  0  0  0  0
   -4.8192    4.9307    3.0542 H   0  0  0  0  0  0  0  0  0  0  0  0
   -2.2296    7.4178    2.3935 H   0  0  0  0  0  0  0  0  0  0  0  0
   -3.8541    6.8384    2.0047 H   0  0  0  0  0  0  0  0  0  0  0  0
   -3.0930    6.4540    3.5982 H   0  0  0  0  0  0  0  0  0  0  0  0
   -1.4441    3.3033    0.9411 H   0  0  0  0  0  0  0  0  0  0  0  0
   -0.1375    0.7521    1.9029 H   0  0  0  0  0  0  0  0  0  0  0  0
    2.0101    0.3871    0.8050 H   0  0  0  0  0  0  0  0  0  0  0  0
    3.5704   -0.8834   -0.4008 H   0  0  0  0  0  0  0  0  0  0  0  0
    3.6522    0.8657   -0.8077 H   0  0  0  0  0  0  0  0  0  0  0  0
    4.5404    0.2630   -3.0708 H   0  0  0  0  0  0  0  0  0  0  0  0
    4.4622   -1.4207   -2.6788 H   0  0  0  0  0  0  0  0  0  0  0  0
    5.7126   -1.3186    0.1196 H   0  0  0  0  0  0  0  0  0  0  0  0
    6.3938   -2.3919   -1.1256 H   0  0  0  0  0  0  0  0  0  0  0  0
    8.5507   -1.4705   -0.8682 H   0  0  0  0  0  0  0  0  0  0  0  0
    7.9444   -1.0876    0.7511 H   0  0  0  0  0  0  0  0  0  0  0  0
    8.0700    1.1804    0.2041 H   0  0  0  0  0  0  0  0  0  0  0  0
    8.6473    0.7296   -1.4083 H   0  0  0  0  0  0  0  0  0  0  0  0
    5.8363    1.2877   -0.4780 H   0  0  0  0  0  0  0  0  0  0  0  0
    6.5712    1.6502   -2.0582 H   0  0  0  0  0  0  0  0  0  0  0  0
   -0.0189   -0.3565   -2.9273 H   0  0  0  0  0  0  0  0  0  0  0  0
   -2.1891    0.0199   -1.8193 H   0  0  0  0  0  0  0  0  0  0  0  0
   -5.1269   -1.6708   -0.8178 H   0  0  0  0  0  0  0  0  0  0  0  0
  1  2  1  0
  2  3  1  0
  3  4  2  0
  4  5  1  0
  5  6  2  0
  6  7  1  0
  7  8  1  0
  8  9  1  0
  9 10  1  0
 10 11  2  0
 11 12  1  0
 12 13  2  0
 13 14  1  0
 14 15  1  0
 13 16  1  0
 16 17  2  0
 17 18  1  0
 18 19  1  0
 19 20  2  0
 20 21  1  0
 21 22  2  0
 22 23  1  0
 23 24  1  0
 24 25  1  0
 25 26  1  0
 26 27  1  0
 27 28  1  0
 28 29  1  0
 29 30  1  0
 22 31  1  0
 31 32  2  0
  7 33  2  0
 33  3  1  0
 18  8  2  0
 32 19  1  0
 17 10  1  0
 30 26  1  0
  1 34  1  0
  1 35  1  0
  1 36  1  0
  4 37  1  0
  5 38  1  0
  6 39  1  0
 11 40  1  0
 12 41  1  0
 15 42  1  0
 15 43  1  0
 15 44  1  0
 16 45  1  0
 20 46  1  0
 21 47  1  0
 24 48  1  0
 24 49  1  0
 25 50  1  0
 25 51  1  0
 27 52  1  0
 27 53  1  0
 28 54  1  0
 28 55  1  0
 29 56  1  0
 29 57  1  0
 30 58  1  0
 30 59  1  0
 31 60  1  0
 32 61  1  0
 33 62  1  0
M  END
$$$$
