
     RDKit          3D

 63 67  0  0  0  0  0  0  0  0999 V2000
   -1.2551   -2.1098   -0.4211 O   0  0  0  0  0  0  0  0  0  0  0  0
   -1.8251   -1.2901    0.2889 C   0  0  0  0  0  0  0  0  0  0  0  0
   -3.1872   -1.2074    0.4152 N   0  0  0  0  0  0  0  0  0  0  0  0
   -4.1214   -2.0717   -0.2905 C   0  0  0  0  0  0  0  0  0  0  0  0
   -4.2503   -1.7080   -1.7734 C   0  0  0  0  0  0  0  0  0  0  0  0
   -4.8175   -0.3041   -1.9490 C   0  0  0  0  0  0  0  0  0  0  0  0
   -6.1409   -0.0787   -1.2031 C   0  0  0  0  0  0  0  0  0  0  0  0
   -6.3923   -0.9719   -0.0127 C   0  0  0  0  0  0  0  0  0  0  0  0
   -7.5882   -0.8255    0.7050 C   0  0  0  0  0  0  0  0  0  0  0  0
   -7.8607   -1.6335    1.8120 C   0  0  0  0  0  0  0  0  0  0  0  0
   -6.9397   -2.5951    2.2160 C   0  0  0  0  0  0  0  0  0  0  0  0
   -5.7466   -2.7474    1.5160 C   0  0  0  0  0  0  0  0  0  0  0  0
   -5.4655   -1.9468    0.3959 C   0  0  0  0  0  0  0  0  0  0  0  0
   -1.0396   -0.3211    1.1068 C   0  0  0  0  0  0  0  0  0  0  0  0
   -1.5543    0.9330    1.4654 C   0  0  0  0  0  0  0  0  0  0  0  0
   -0.8049    1.7999    2.2618 C   0  0  0  0  0  0  0  0  0  0  0  0
    0.4704    1.4329    2.6851 C   0  0  0  0  0  0  0  0  0  0  0  0
    1.0009    0.2014    2.2914 C   0  0  0  0  0  0  0  0  0  0  0  0
    2.6200   -0.2785    2.8581 S   0  0  0  0  0  6  0  0  0  0  0  0
    2.6118   -1.7163    3.0171 O   0  0  0  0  0  0  0  0  0  0  0  0
    2.9661    0.5983    3.9573 O   0  0  0  0  0  0  0  0  0  0  0  0
    3.6206    0.1097    1.5578 N   0  0  0  0  0  0  0  0  0  0  0  0
    3.5829   -0.7758    0.3589 C   0  0  0  0  0  0  0  0  0  0  0  0
    4.6240   -0.3195   -0.6843 C   0  0  0  0  0  0  0  0  0  0  0  0
    4.3516    1.0655   -1.1526 N   0  0  0  0  0  0  0  0  0  0  0  0
    5.4185    1.6289   -1.8680 C   0  0  0  0  0  0  0  0  0  0  0  0
    5.8848    0.9903   -3.0343 C   0  0  0  0  0  0  0  0  0  0  0  0
    6.9623    1.4944   -3.7728 C   0  0  0  0  0  0  0  0  0  0  0  0
    7.5937    2.6620   -3.3607 C   0  0  0  0  0  0  0  0  0  0  0  0
    7.1457    3.3212   -2.2189 C   0  0  0  0  0  0  0  0  0  0  0  0
    6.0688    2.8107   -1.4845 C   0  0  0  0  0  0  0  0  0  0  0  0
    3.5553    1.8943   -0.2239 C   0  0  0  0  0  0  0  0  0  0  0  0
    3.8562    1.5561    1.2497 C   0  0  0  0  0  0  0  0  0  0  0  0
    0.2462   -0.6843    1.5190 C   0  0  0  0  0  0  0  0  0  0  0  0
   -3.5963   -0.5659    1.0836 H   0  0  0  0  0  0  0  0  0  0  0  0
   -3.7535   -3.1022   -0.2138 H   0  0  0  0  0  0  0  0  0  0  0  0
   -4.9053   -2.4292   -2.2788 H   0  0  0  0  0  0  0  0  0  0  0  0
   -3.2761   -1.7583   -2.2728 H   0  0  0  0  0  0  0  0  0  0  0  0
   -4.9692   -0.0918   -3.0194 H   0  0  0  0  0  0  0  0  0  0  0  0
   -4.0773    0.4258   -1.5937 H   0  0  0  0  0  0  0  0  0  0  0  0
   -6.9878   -0.1878   -1.9068 H   0  0  0  0  0  0  0  0  0  0  0  0
   -6.1479    0.9689   -0.8497 H   0  0  0  0  0  0  0  0  0  0  0  0
   -8.3152   -0.0718    0.3986 H   0  0  0  0  0  0  0  0  0  0  0  0
   -8.7904   -1.5146    2.3622 H   0  0  0  0  0  0  0  0  0  0  0  0
   -7.1423   -3.2212    3.0804 H   0  0  0  0  0  0  0  0  0  0  0  0
   -5.0266   -3.4881    1.8544 H   0  0  0  0  0  0  0  0  0  0  0  0
   -2.5360    1.2544    1.1274 H   0  0  0  0  0  0  0  0  0  0  0  0
   -1.2140    2.7609    2.5589 H   0  0  0  0  0  0  0  0  0  0  0  0
    1.0367    2.1077    3.3217 H   0  0  0  0  0  0  0  0  0  0  0  0
    3.8033   -1.8121    0.6522 H   0  0  0  0  0  0  0  0  0  0  0  0
    2.5843   -0.7443   -0.1033 H   0  0  0  0  0  0  0  0  0  0  0  0
    5.6243   -0.3761   -0.2304 H   0  0  0  0  0  0  0  0  0  0  0  0
    4.5870   -1.0127   -1.5323 H   0  0  0  0  0  0  0  0  0  0  0  0
    5.3879    0.0922   -3.3915 H   0  0  0  0  0  0  0  0  0  0  0  0
    7.2987    0.9763   -4.6682 H   0  0  0  0  0  0  0  0  0  0  0  0
    8.4385    3.0624   -3.9182 H   0  0  0  0  0  0  0  0  0  0  0  0
    7.6431    4.2299   -1.8922 H   0  0  0  0  0  0  0  0  0  0  0  0
    5.7815    3.3484   -0.5863 H   0  0  0  0  0  0  0  0  0  0  0  0
    3.6741    2.9708   -0.4057 H   0  0  0  0  0  0  0  0  0  0  0  0
    2.4934    1.6827   -0.4238 H   0  0  0  0  0  0  0  0  0  0  0  0
    3.2415    2.1991    1.8883 H   0  0  0  0  0  0  0  0  0  0  0  0
    4.9069    1.7767    1.4846 H   0  0  0  0  0  0  0  0  0  0  0  0
    0.6463   -1.6588    1.2470 H   0  0  0  0  0  0  0  0  0  0  0  0
  1  2  2  0
  2  3  1  0
  3  4  1  0
  4  5  1  0
  5  6  1  0
  6  7  1  0
  7  8  1  0
  8  9  2  0
  9 10  1  0
 10 11  2  0
 11 12  1  0
 12 13  2  0
  2 14  1  0
 14 15  2  0
 15 16  1  0
 16 17  2  0
 17 18  1  0
 18 19  1  0
 19 20  2  0
 19 21  2  0
 19 22  1  0
 22 23  1  0
 23 24  1  0
 24 25  1  0
 25 26  1  0
 26 27  2  0
 27 28  1  0
 28 29  2  0
 29 30  1  0
 30 31  2  0
 25 32  1  0
 32 33  1  0
 18 34  2  0
 13  4  1  0
 34 14  1  0
 13  8  1  0
 33 22  1  0
 31 26  1  0
  3 35  1  0
  4 36  1  0
  5 37  1  0
  5 38  1  0
  6 39  1  0
  6 40  1  0
  7 41  1  0
  7 42  1  0
  9 43  1  0
 10 44  1  0
 11 45  1  0
 12 46  1  0
 15 47  1  0
 16 48  1  0
 17 49  1  0
 23 50  1  0
 23 51  1  0
 24 52  1  0
 24 53  1  0
 27 54  1  0
 28 55  1  0
 29 56  1  0
 30 57  1  0
 31 58  1  0
 32 59  1  0
 32 60  1  0
 33 61  1  0
 33 62  1  0
 34 63  1  0
M  END
$$$$
