
     RDKit          3D

 32 34  0  0  0  0  0  0  0  0999 V2000
    0.1838   -3.2191    0.8270 N   0  0  0  0  0  0  0  0  0  0  0  0
    0.7765   -1.9590    0.6089 C   0  0  0  0  0  0  0  0  0  0  0  0
    2.0516   -1.9033    0.0320 C   0  0  0  0  0  0  0  0  0  0  0  0
    2.6230   -0.6786   -0.3158 C   0  0  0  0  0  0  0  0  0  0  0  0
    1.9239    0.5103   -0.0949 C   0  0  0  0  0  0  0  0  0  0  0  0
    0.6294    0.4738    0.4136 C   0  0  0  0  0  0  0  0  0  0  0  0
    0.0437   -0.7601    0.7320 C   0  0  0  0  0  0  0  0  0  0  0  0
   -1.3411   -0.7914    1.2682 C   0  0  0  0  0  0  0  0  0  0  0  0
   -1.5916   -1.4989    2.2422 O   0  0  0  0  0  0  0  0  0  0  0  0
   -2.4268    0.0115    0.6478 C   0  0  0  0  0  0  0  0  0  0  0  0
   -3.4825    0.4453    1.4606 C   0  0  0  0  0  0  0  0  0  0  0  0
   -4.5262    1.1948    0.9157 C   0  0  0  0  0  0  0  0  0  0  0  0
   -4.5242    1.5043   -0.4442 C   0  0  0  0  0  0  0  0  0  0  0  0
   -3.4820    1.0547   -1.2550 C   0  0  0  0  0  0  0  0  0  0  0  0
   -3.4922    1.4623   -3.1016 Br  0  0  0  0  0  0  0  0  0  0  0  0
   -2.4344    0.3046   -0.7208 C   0  0  0  0  0  0  0  0  0  0  0  0
    2.4399    1.7494   -0.3745 O   0  0  0  0  0  0  0  0  0  0  0  0
    3.8572    1.6916   -0.5773 C   0  0  0  0  0  0  0  0  0  0  0  0
    4.2214    0.5273   -1.4836 C   0  0  0  0  0  0  0  0  0  0  0  0
    3.8785   -0.7193   -0.8670 O   0  0  0  0  0  0  0  0  0  0  0  0
   -0.5710   -3.1567    1.5204 H   0  0  0  0  0  0  0  0  0  0  0  0
    0.8487   -3.9456    1.0737 H   0  0  0  0  0  0  0  0  0  0  0  0
    2.6067   -2.8180   -0.1582 H   0  0  0  0  0  0  0  0  0  0  0  0
    0.0947    1.4066    0.5700 H   0  0  0  0  0  0  0  0  0  0  0  0
   -3.4928    0.1990    2.5211 H   0  0  0  0  0  0  0  0  0  0  0  0
   -5.3418    1.5322    1.5510 H   0  0  0  0  0  0  0  0  0  0  0  0
   -5.3413    2.0867   -0.8628 H   0  0  0  0  0  0  0  0  0  0  0  0
   -1.6459   -0.0598   -1.3736 H   0  0  0  0  0  0  0  0  0  0  0  0
    4.3461    1.6076    0.4012 H   0  0  0  0  0  0  0  0  0  0  0  0
    4.1656    2.6375   -1.0333 H   0  0  0  0  0  0  0  0  0  0  0  0
    3.7040    0.5924   -2.4488 H   0  0  0  0  0  0  0  0  0  0  0  0
    5.2992    0.5179   -1.6738 H   0  0  0  0  0  0  0  0  0  0  0  0
  1  2  1  0
  2  3  2  0
  3  4  1  0
  4  5  2  0
  5  6  1  0
  6  7  2  0
  7  8  1  0
  8  9  2  0
  8 10  1  0
 10 11  2  0
 11 12  1  0
 12 13  2  0
 13 14  1  0
 14 15  1  0
 14 16  2  0
  5 17  1  0
 17 18  1  0
 18 19  1  0
 19 20  1  0
  7  2  1  0
 16 10  1  0
 20  4  1  0
  1 21  1  0
  1 22  1  0
  3 23  1  0
  6 24  1  0
 11 25  1  0
 12 26  1  0
 13 27  1  0
 16 28  1  0
 18 29  1  0
 18 30  1  0
 19 31  1  0
 19 32  1  0
M  END
$$$$
