
     RDKit          3D

 53 55  0  0  0  0  0  0  0  0999 V2000
   -2.0013   -0.9239    1.2083 O   0  0  0  0  0  0  0  0  0  0  0  0
   -1.5122   -0.8923    0.0850 C   0  0  0  0  0  0  0  0  0  0  0  0
   -2.2695   -0.7952   -1.0580 N   0  0  0  0  0  0  0  0  0  0  0  0
   -3.7361   -0.7255   -1.0024 C   0  0  0  0  0  0  0  0  0  0  0  0
   -4.2023    0.7052   -0.7022 C   0  0  0  0  0  0  0  0  0  0  0  0
   -5.6715    0.8060   -0.3699 C   0  0  0  0  0  0  0  0  0  0  0  0
   -6.1461    0.3518    0.8685 C   0  0  0  0  0  0  0  0  0  0  0  0
   -7.5040    0.4336    1.1780 C   0  0  0  0  0  0  0  0  0  0  0  0
   -8.3991    0.9708    0.2549 C   0  0  0  0  0  0  0  0  0  0  0  0
   -7.9370    1.4275   -0.9781 C   0  0  0  0  0  0  0  0  0  0  0  0
   -6.5790    1.3463   -1.2907 C   0  0  0  0  0  0  0  0  0  0  0  0
   -4.2479   -1.1773   -2.3654 C   0  0  0  0  0  0  0  0  0  0  0  0
   -3.6810   -0.9900   -3.4342 O   0  0  0  0  0  0  0  0  0  0  0  0
   -5.4172   -1.8410   -2.3175 O   0  0  0  0  0  0  0  0  0  0  0  0
   -0.0369   -0.9833   -0.0944 C   0  0  0  0  0  0  0  0  0  0  0  0
    0.7098   -1.6386    0.8961 C   0  0  0  0  0  0  0  0  0  0  0  0
    2.0966   -1.7458    0.7778 C   0  0  0  0  0  0  0  0  0  0  0  0
    2.7367   -1.1797   -0.3282 C   0  0  0  0  0  0  0  0  0  0  0  0
    4.5033   -1.3194   -0.4627 S   0  0  0  0  0  6  0  0  0  0  0  0
    4.8337   -2.7099   -0.2358 O   0  0  0  0  0  0  0  0  0  0  0  0
    4.9251   -0.6332   -1.6661 O   0  0  0  0  0  0  0  0  0  0  0  0
    5.0593   -0.4042    0.8696 N   0  0  0  0  0  0  0  0  0  0  0  0
    4.6599    1.0317    0.8728 C   0  0  0  0  0  0  0  0  0  0  0  0
    5.3886    1.7825    1.9804 C   0  0  0  0  0  0  0  0  0  0  0  0
    6.8987    1.7794    1.7541 C   0  0  0  0  0  0  0  0  0  0  0  0
    7.3617    0.5617    0.9579 C   0  0  0  0  0  0  0  0  0  0  0  0
    6.4870   -0.6542    1.2309 C   0  0  0  0  0  0  0  0  0  0  0  0
    2.0060   -0.5173   -1.3188 C   0  0  0  0  0  0  0  0  0  0  0  0
    0.6169   -0.4151   -1.1980 C   0  0  0  0  0  0  0  0  0  0  0  0
   -1.8478   -0.8829   -1.9764 H   0  0  0  0  0  0  0  0  0  0  0  0
   -4.0713   -1.4387   -0.2404 H   0  0  0  0  0  0  0  0  0  0  0  0
   -3.6390    1.1203    0.1442 H   0  0  0  0  0  0  0  0  0  0  0  0
   -3.9697    1.3622   -1.5514 H   0  0  0  0  0  0  0  0  0  0  0  0
   -5.4577   -0.0673    1.6009 H   0  0  0  0  0  0  0  0  0  0  0  0
   -7.8626    0.0786    2.1407 H   0  0  0  0  0  0  0  0  0  0  0  0
   -9.4565    1.0346    0.4974 H   0  0  0  0  0  0  0  0  0  0  0  0
   -8.6354    1.8484   -1.6966 H   0  0  0  0  0  0  0  0  0  0  0  0
   -6.2371    1.7089   -2.2573 H   0  0  0  0  0  0  0  0  0  0  0  0
   -5.6271   -2.0595   -3.2486 H   0  0  0  0  0  0  0  0  0  0  0  0
    0.2089   -2.0718    1.7605 H   0  0  0  0  0  0  0  0  0  0  0  0
    2.6706   -2.2636    1.5438 H   0  0  0  0  0  0  0  0  0  0  0  0
    4.8736    1.4969   -0.0959 H   0  0  0  0  0  0  0  0  0  0  0  0
    3.5833    1.1020    1.0584 H   0  0  0  0  0  0  0  0  0  0  0  0
    5.1672    1.3106    2.9465 H   0  0  0  0  0  0  0  0  0  0  0  0
    5.0270    2.8149    2.0445 H   0  0  0  0  0  0  0  0  0  0  0  0
    7.2014    2.6885    1.2207 H   0  0  0  0  0  0  0  0  0  0  0  0
    7.4047    1.8091    2.7265 H   0  0  0  0  0  0  0  0  0  0  0  0
    8.4073    0.3404    1.2001 H   0  0  0  0  0  0  0  0  0  0  0  0
    7.3312    0.7967   -0.1138 H   0  0  0  0  0  0  0  0  0  0  0  0
    6.8920   -1.5135    0.6864 H   0  0  0  0  0  0  0  0  0  0  0  0
    6.5208   -0.9191    2.2945 H   0  0  0  0  0  0  0  0  0  0  0  0
    2.5068   -0.0767   -2.1787 H   0  0  0  0  0  0  0  0  0  0  0  0
    0.0670    0.1303   -1.9601 H   0  0  0  0  0  0  0  0  0  0  0  0
  1  2  2  0
  2  3  1  0
  3  4  1  0
  4  5  1  0
  5  6  1  0
  6  7  2  0
  7  8  1  0
  8  9  2  0
  9 10  1  0
 10 11  2  0
  4 12  1  0
 12 13  2  0
 12 14  1  0
  2 15  1  0
 15 16  2  0
 16 17  1  0
 17 18  2  0
 18 19  1  0
 19 20  2  0
 19 21  2  0
 19 22  1  0
 22 23  1  0
 23 24  1  0
 24 25  1  0
 25 26  1  0
 26 27  1  0
 18 28  1  0
 28 29  2  0
 11  6  1  0
 29 15  1  0
 27 22  1  0
  3 30  1  0
  4 31  1  0
  5 32  1  0
  5 33  1  0
  7 34  1  0
  8 35  1  0
  9 36  1  0
 10 37  1  0
 11 38  1  0
 14 39  1  0
 16 40  1  0
 17 41  1  0
 23 42  1  0
 23 43  1  0
 24 44  1  0
 24 45  1  0
 25 46  1  0
 25 47  1  0
 26 48  1  0
 26 49  1  0
 27 50  1  0
 27 51  1  0
 28 52  1  0
 29 53  1  0
M  END
$$$$
