
     RDKit          3D

 54 59  0  0  0  0  0  0  0  0999 V2000
    4.6821   -1.9989    2.0055 C   0  0  0  0  0  0  0  0  0  0  0  0
    5.4398   -1.7400    0.7321 C   0  0  0  0  0  0  0  0  0  0  0  0
    6.6759   -2.3686    0.5184 C   0  0  0  0  0  0  0  0  0  0  0  0
    7.3917   -2.1412   -0.6553 C   0  0  0  0  0  0  0  0  0  0  0  0
    6.8787   -1.2845   -1.6243 C   0  0  0  0  0  0  0  0  0  0  0  0
    5.6487   -0.6524   -1.4237 C   0  0  0  0  0  0  0  0  0  0  0  0
    4.9221   -0.8743   -0.2493 C   0  0  0  0  0  0  0  0  0  0  0  0
    3.7110   -0.3060    0.0459 O   0  0  0  0  0  0  0  0  0  0  0  0
    3.1299    0.5640   -0.9300 C   0  0  0  0  0  0  0  0  0  0  0  0
    1.8035    1.0790   -0.4660 C   0  0  0  0  0  0  0  0  0  0  0  0
    0.6210    0.4343   -0.7634 N   0  0  0  0  0  0  0  0  0  0  0  0
   -0.2929    1.1763   -0.1742 C   0  0  0  0  0  0  0  0  0  0  0  0
   -1.7181    1.0950   -0.0492 C   0  0  0  0  0  0  0  0  0  0  0  0
   -2.2996    2.0661    0.7183 C   0  0  0  0  0  0  0  0  0  0  0  0
   -1.6167    3.1182    1.3275 N   0  0  0  0  0  0  0  0  0  0  0  0
   -0.3278    3.1769    1.1823 C   0  0  0  0  0  0  0  0  0  0  0  0
    0.3304    2.2189    0.4451 N   0  0  0  0  0  0  0  0  0  0  0  0
    1.6625    2.2048    0.2544 N   0  0  0  0  0  0  0  0  0  0  0  0
   -3.7655    2.0100    0.9826 C   0  0  0  0  0  0  0  0  0  0  0  0
   -4.3464    2.7571    2.0209 C   0  0  0  0  0  0  0  0  0  0  0  0
   -5.7216    2.7098    2.2625 C   0  0  0  0  0  0  0  0  0  0  0  0
   -6.5404    1.9193    1.4632 C   0  0  0  0  0  0  0  0  0  0  0  0
   -5.9845    1.1755    0.4250 C   0  0  0  0  0  0  0  0  0  0  0  0
   -4.6014    1.2099    0.1900 C   0  0  0  0  0  0  0  0  0  0  0  0
   -4.0097    0.4438   -0.9577 C   0  0  0  0  0  0  0  0  0  0  0  0
   -2.5617   -0.0346   -0.6806 C   0  0  0  0  0  0  0  0  0  0  0  0
   -2.5517   -1.2689    0.2667 C   0  0  0  0  0  0  0  0  0  0  0  0
   -2.4102   -2.4823   -0.6416 C   0  0  0  0  0  0  0  0  0  0  0  0
   -1.4806   -1.9874   -1.7322 C   0  0  0  0  0  0  0  0  0  0  0  0
   -2.0049   -0.5876   -2.0307 C   0  0  0  0  0  0  0  0  0  0  0  0
    3.7072   -2.4444    1.7826 H   0  0  0  0  0  0  0  0  0  0  0  0
    5.2213   -2.6915    2.6604 H   0  0  0  0  0  0  0  0  0  0  0  0
    4.5383   -1.0646    2.5578 H   0  0  0  0  0  0  0  0  0  0  0  0
    7.0877   -3.0404    1.2681 H   0  0  0  0  0  0  0  0  0  0  0  0
    8.3484   -2.6323   -0.8125 H   0  0  0  0  0  0  0  0  0  0  0  0
    7.4370   -1.1065   -2.5399 H   0  0  0  0  0  0  0  0  0  0  0  0
    5.2911    0.0070   -2.2070 H   0  0  0  0  0  0  0  0  0  0  0  0
    3.7949    1.4175   -1.1117 H   0  0  0  0  0  0  0  0  0  0  0  0
    2.9755    0.0185   -1.8692 H   0  0  0  0  0  0  0  0  0  0  0  0
    0.2615    3.9849    1.6426 H   0  0  0  0  0  0  0  0  0  0  0  0
   -3.7270    3.3869    2.6562 H   0  0  0  0  0  0  0  0  0  0  0  0
   -6.1491    3.2955    3.0719 H   0  0  0  0  0  0  0  0  0  0  0  0
   -7.6114    1.8867    1.6449 H   0  0  0  0  0  0  0  0  0  0  0  0
   -6.6345    0.5697   -0.2021 H   0  0  0  0  0  0  0  0  0  0  0  0
   -4.6454   -0.4186   -1.1979 H   0  0  0  0  0  0  0  0  0  0  0  0
   -4.0260    1.1086   -1.8327 H   0  0  0  0  0  0  0  0  0  0  0  0
   -1.6929   -1.2401    0.9502 H   0  0  0  0  0  0  0  0  0  0  0  0
   -3.4506   -1.3453    0.8876 H   0  0  0  0  0  0  0  0  0  0  0  0
   -2.0061   -3.3501   -0.1126 H   0  0  0  0  0  0  0  0  0  0  0  0
   -3.3835   -2.7593   -1.0631 H   0  0  0  0  0  0  0  0  0  0  0  0
   -1.4992   -2.6313   -2.6163 H   0  0  0  0  0  0  0  0  0  0  0  0
   -0.4498   -1.9463   -1.3643 H   0  0  0  0  0  0  0  0  0  0  0  0
   -1.2428    0.0444   -2.4956 H   0  0  0  0  0  0  0  0  0  0  0  0
   -2.8080   -0.6810   -2.7741 H   0  0  0  0  0  0  0  0  0  0  0  0
  1  2  1  0
  2  3  2  0
  3  4  1  0
  4  5  2  0
  5  6  1  0
  6  7  2  0
  7  8  1  0
  8  9  1  0
  9 10  1  0
 10 11  1  0
 11 12  2  0
 12 13  1  0
 13 14  2  0
 14 15  1  0
 15 16  2  0
 16 17  1  0
 17 18  1  0
 14 19  1  0
 19 20  2  0
 20 21  1  0
 21 22  2  0
 22 23  1  0
 23 24  2  0
 24 25  1  0
 25 26  1  0
 26 27  1  0
 27 28  1  0
 28 29  1  0
 29 30  1  0
  7  2  1  0
 18 10  2  0
 24 19  1  0
 30 26  1  0
 17 12  1  0
 26 13  1  0
  1 31  1  0
  1 32  1  0
  1 33  1  0
  3 34  1  0
  4 35  1  0
  5 36  1  0
  6 37  1  0
  9 38  1  0
  9 39  1  0
 16 40  1  0
 20 41  1  0
 21 42  1  0
 22 43  1  0
 23 44  1  0
 25 45  1  0
 25 46  1  0
 27 47  1  0
 27 48  1  0
 28 49  1  0
 28 50  1  0
 29 51  1  0
 29 52  1  0
 30 53  1  0
 30 54  1  0
M  END
$$$$
