
     RDKit          3D

 57 59  0  0  0  0  0  0  0  0999 V2000
   -4.5081   -0.5002    3.0786 C   0  0  0  0  0  0  0  0  0  0  0  0
   -4.5761   -1.0446    1.6584 C   0  0  0  0  0  0  0  0  0  0  0  0
   -4.3853    0.0058    0.6470 N   0  0  0  0  0  0  0  0  0  0  0  0
   -3.1410    0.2870    0.0621 C   0  0  0  0  0  0  0  0  0  0  0  0
   -3.0481    1.0781   -0.8809 O   0  0  0  0  0  0  0  0  0  0  0  0
   -1.9044   -0.4280    0.6232 C   0  0  0  0  0  0  0  0  0  0  0  0
   -0.7132    0.1688    0.0993 O   0  0  0  0  0  0  0  0  0  0  0  0
    0.3129   -0.6800   -0.1134 C   0  0  0  0  0  0  0  0  0  0  0  0
    0.3765   -1.8605    0.1791 O   0  0  0  0  0  0  0  0  0  0  0  0
    1.4423    0.0754   -0.6748 C   0  0  0  0  0  0  0  0  0  0  0  0
    2.6231    0.1205    0.0776 C   0  0  0  0  0  0  0  0  0  0  0  0
    3.7379    0.8197   -0.4112 C   0  0  0  0  0  0  0  0  0  0  0  0
    5.2023    0.8638    0.5871 S   0  0  0  0  0  6  0  0  0  0  0  0
    5.5567    2.2516    0.7801 O   0  0  0  0  0  0  0  0  0  0  0  0
    4.9918   -0.0086    1.7246 O   0  0  0  0  0  0  0  0  0  0  0  0
    6.3715    0.1114   -0.3901 N   0  0  0  0  0  0  0  0  0  0  0  0
    7.7781    0.4321    0.0201 C   0  0  0  0  0  0  0  0  0  0  0  0
    8.7583   -0.5617   -0.6097 C   0  0  0  0  0  0  0  0  0  0  0  0
    8.5391   -1.9143   -0.1826 O   0  0  0  0  0  0  0  0  0  0  0  0
    7.1718   -2.1915    0.1503 C   0  0  0  0  0  0  0  0  0  0  0  0
    6.1779   -1.3512   -0.6573 C   0  0  0  0  0  0  0  0  0  0  0  0
    3.6719    1.4720   -1.6454 C   0  0  0  0  0  0  0  0  0  0  0  0
    4.9797    2.3524   -2.3466 Cl  0  0  0  0  0  0  0  0  0  0  0  0
    2.4898    1.4066   -2.3963 C   0  0  0  0  0  0  0  0  0  0  0  0
    1.3776    0.7045   -1.9201 C   0  0  0  0  0  0  0  0  0  0  0  0
   -0.0094    0.6074   -2.9433 Cl  0  0  0  0  0  0  0  0  0  0  0  0
   -5.5637    0.6505    0.0322 C   0  0  0  0  0  0  0  0  0  0  0  0
   -6.7416    0.9505    0.9717 C   0  0  0  0  0  0  0  0  0  0  0  0
   -7.8442    1.4846    0.0666 C   0  0  0  0  0  0  0  0  0  0  0  0
   -7.7828    0.4379   -1.3793 S   0  0  0  0  0  6  0  0  0  0  0  0
   -8.7033   -0.6647   -1.1757 O   0  0  0  0  0  0  0  0  0  0  0  0
   -7.8255    1.2715   -2.5636 O   0  0  0  0  0  0  0  0  0  0  0  0
   -6.1217   -0.1687   -1.1375 C   0  0  0  0  0  0  0  0  0  0  0  0
   -4.6137   -1.3174    3.8002 H   0  0  0  0  0  0  0  0  0  0  0  0
   -3.5557    0.0034    3.2712 H   0  0  0  0  0  0  0  0  0  0  0  0
   -5.3056    0.2244    3.2715 H   0  0  0  0  0  0  0  0  0  0  0  0
   -5.5338   -1.5451    1.4810 H   0  0  0  0  0  0  0  0  0  0  0  0
   -3.8096   -1.8165    1.5389 H   0  0  0  0  0  0  0  0  0  0  0  0
   -1.9779   -1.4859    0.3426 H   0  0  0  0  0  0  0  0  0  0  0  0
   -1.8754   -0.3170    1.7111 H   0  0  0  0  0  0  0  0  0  0  0  0
    2.6624   -0.3874    1.0417 H   0  0  0  0  0  0  0  0  0  0  0  0
    7.8642    0.3812    1.1128 H   0  0  0  0  0  0  0  0  0  0  0  0
    8.0188    1.4480   -0.3116 H   0  0  0  0  0  0  0  0  0  0  0  0
    9.7873   -0.2975   -0.3446 H   0  0  0  0  0  0  0  0  0  0  0  0
    8.6844   -0.5401   -1.7033 H   0  0  0  0  0  0  0  0  0  0  0  0
    7.0010   -3.2573   -0.0334 H   0  0  0  0  0  0  0  0  0  0  0  0
    7.0450   -2.0198    1.2252 H   0  0  0  0  0  0  0  0  0  0  0  0
    5.1538   -1.6660   -0.4359 H   0  0  0  0  0  0  0  0  0  0  0  0
    6.3358   -1.5057   -1.7319 H   0  0  0  0  0  0  0  0  0  0  0  0
    2.4366    1.9007   -3.3662 H   0  0  0  0  0  0  0  0  0  0  0  0
   -5.2415    1.6218   -0.3684 H   0  0  0  0  0  0  0  0  0  0  0  0
   -6.4754    1.6799    1.7435 H   0  0  0  0  0  0  0  0  0  0  0  0
   -7.0959    0.0437    1.4730 H   0  0  0  0  0  0  0  0  0  0  0  0
   -8.8337    1.4273    0.5255 H   0  0  0  0  0  0  0  0  0  0  0  0
   -7.6361    2.5117   -0.2499 H   0  0  0  0  0  0  0  0  0  0  0  0
   -5.5438   -0.0289   -2.0540 H   0  0  0  0  0  0  0  0  0  0  0  0
   -6.1822   -1.2359   -0.9038 H   0  0  0  0  0  0  0  0  0  0  0  0
  1  2  1  0
  2  3  1  0
  3  4  1  0
  4  5  2  0
  4  6  1  0
  6  7  1  0
  7  8  1  0
  8  9  2  0
  8 10  1  0
 10 11  2  0
 11 12  1  0
 12 13  1  0
 13 14  2  0
 13 15  2  0
 13 16  1  0
 16 17  1  0
 17 18  1  0
 18 19  1  0
 19 20  1  0
 20 21  1  0
 12 22  2  0
 22 23  1  0
 22 24  1  0
 24 25  2  0
 25 26  1  0
  3 27  1  0
 27 28  1  0
 28 29  1  0
 29 30  1  0
 30 31  2  0
 30 32  2  0
 30 33  1  0
 25 10  1  0
 33 27  1  0
 21 16  1  0
  1 34  1  0
  1 35  1  0
  1 36  1  0
  2 37  1  0
  2 38  1  0
  6 39  1  0
  6 40  1  0
 11 41  1  0
 17 42  1  0
 17 43  1  0
 18 44  1  0
 18 45  1  0
 20 46  1  0
 20 47  1  0
 21 48  1  0
 21 49  1  0
 24 50  1  0
 27 51  1  0
 28 52  1  0
 28 53  1  0
 29 54  1  0
 29 55  1  0
 33 56  1  0
 33 57  1  0
M  END
$$$$
