
     RDKit          3D

 42 44  0  0  0  0  0  0  0  0999 V2000
   -1.8672   -5.5185   -0.5851 C   0  0  0  0  0  0  0  0  0  0  0  0
   -1.2826   -4.1236   -0.4462 C   0  0  0  0  0  0  0  0  0  0  0  0
   -2.6237   -2.9144   -0.2010 S   0  0  0  0  0  0  0  0  0  0  0  0
   -1.6838   -1.3966   -0.0828 C   0  0  0  0  0  0  0  0  0  0  0  0
   -2.3691   -0.2114    0.0776 C   0  0  0  0  0  0  0  0  0  0  0  0
   -1.6269    0.9467    0.1720 C   0  0  0  0  0  0  0  0  0  0  0  0
   -2.2220    2.1781    0.3195 N   0  0  0  0  0  0  0  0  0  0  0  0
   -1.3934    3.3692    0.4673 C   0  0  0  0  0  0  0  0  0  0  0  0
   -2.4204    4.4792    0.6672 C   0  0  0  0  0  0  0  0  0  0  0  0
   -3.5071    3.7847    1.4724 C   0  0  0  0  0  0  0  0  0  0  0  0
   -3.5559    2.3780    0.8740 C   0  0  0  0  0  0  0  0  0  0  0  0
   -0.2867    0.8980    0.0866 N   0  0  0  0  0  0  0  0  0  0  0  0
    0.3082   -0.2992   -0.0696 C   0  0  0  0  0  0  0  0  0  0  0  0
    1.7835   -0.3300   -0.1526 C   0  0  0  0  0  0  0  0  0  0  0  0
    2.4894   -1.5399   -0.2925 C   0  0  0  0  0  0  0  0  0  0  0  0
    3.8870   -1.5708   -0.3713 C   0  0  0  0  0  0  0  0  0  0  0  0
    4.6255   -0.3863   -0.3233 C   0  0  0  0  0  0  0  0  0  0  0  0
    6.1237   -0.4192   -0.3739 C   0  0  0  0  0  0  0  0  0  0  0  0
    3.9465    0.8246   -0.1699 C   0  0  0  0  0  0  0  0  0  0  0  0
    2.5489    0.8498   -0.0915 C   0  0  0  0  0  0  0  0  0  0  0  0
   -0.3484   -1.4656   -0.1533 N   0  0  0  0  0  0  0  0  0  0  0  0
   -2.4199   -5.8146    0.3131 H   0  0  0  0  0  0  0  0  0  0  0  0
   -1.0621   -6.2461   -0.7325 H   0  0  0  0  0  0  0  0  0  0  0  0
   -2.5387   -5.5895   -1.4476 H   0  0  0  0  0  0  0  0  0  0  0  0
   -0.7204   -3.8720   -1.3513 H   0  0  0  0  0  0  0  0  0  0  0  0
   -0.6015   -4.0975    0.4106 H   0  0  0  0  0  0  0  0  0  0  0  0
   -3.4495   -0.1981    0.1126 H   0  0  0  0  0  0  0  0  0  0  0  0
   -0.7759    3.5609   -0.4167 H   0  0  0  0  0  0  0  0  0  0  0  0
   -0.7487    3.2884    1.3511 H   0  0  0  0  0  0  0  0  0  0  0  0
   -2.8212    4.8039   -0.3006 H   0  0  0  0  0  0  0  0  0  0  0  0
   -2.0027    5.3508    1.1784 H   0  0  0  0  0  0  0  0  0  0  0  0
   -4.4720    4.2963    1.4166 H   0  0  0  0  0  0  0  0  0  0  0  0
   -3.2108    3.7308    2.5271 H   0  0  0  0  0  0  0  0  0  0  0  0
   -4.3010    2.3239    0.0727 H   0  0  0  0  0  0  0  0  0  0  0  0
   -3.8131    1.6509    1.6522 H   0  0  0  0  0  0  0  0  0  0  0  0
    1.9470   -2.4829   -0.3391 H   0  0  0  0  0  0  0  0  0  0  0  0
    4.3904   -2.5298   -0.4717 H   0  0  0  0  0  0  0  0  0  0  0  0
    6.4758   -1.2621   -0.9779 H   0  0  0  0  0  0  0  0  0  0  0  0
    6.5304   -0.5143    0.6376 H   0  0  0  0  0  0  0  0  0  0  0  0
    6.5194    0.4943   -0.8302 H   0  0  0  0  0  0  0  0  0  0  0  0
    4.4966    1.7611   -0.1114 H   0  0  0  0  0  0  0  0  0  0  0  0
    2.0525    1.8127    0.0211 H   0  0  0  0  0  0  0  0  0  0  0  0
  1  2  1  0
  2  3  1  0
  3  4  1  0
  4  5  2  0
  5  6  1  0
  6  7  1  0
  7  8  1  0
  8  9  1  0
  9 10  1  0
 10 11  1  0
  6 12  2  0
 12 13  1  0
 13 14  1  0
 14 15  2  0
 15 16  1  0
 16 17  2  0
 17 18  1  0
 17 19  1  0
 19 20  2  0
 13 21  2  0
 21  4  1  0
 11  7  1  0
 20 14  1  0
  1 22  1  0
  1 23  1  0
  1 24  1  0
  2 25  1  0
  2 26  1  0
  5 27  1  0
  8 28  1  0
  8 29  1  0
  9 30  1  0
  9 31  1  0
 10 32  1  0
 10 33  1  0
 11 34  1  0
 11 35  1  0
 15 36  1  0
 16 37  1  0
 18 38  1  0
 18 39  1  0
 18 40  1  0
 19 41  1  0
 20 42  1  0
M  END
$$$$
