
     RDKit          3D

 42 44  0  0  0  0  0  0  0  0999 V2000
    5.8332   -4.2775    1.3258 N   0  0  0  0  0  0  0  0  0  0  0  0
    4.7777   -3.8344    1.5177 C   0  0  0  0  0  0  0  0  0  0  0  0
    3.4823   -3.2822    1.7392 C   0  0  0  0  0  0  0  0  0  0  0  0
    2.7987   -3.7176    2.9132 C   0  0  0  0  0  0  0  0  0  0  0  0
    2.2318   -4.0700    3.8628 N   0  0  0  0  0  0  0  0  0  0  0  0
    2.9367   -2.3868    0.8793 C   0  0  0  0  0  0  0  0  0  0  0  0
    1.5949   -1.8257    1.0478 C   0  0  0  0  0  0  0  0  0  0  0  0
    1.1865   -0.7166    0.4060 C   0  0  0  0  0  0  0  0  0  0  0  0
   -0.2024   -0.2874    0.4506 C   0  0  0  0  0  0  0  0  0  0  0  0
   -0.7667    0.5179   -0.4765 C   0  0  0  0  0  0  0  0  0  0  0  0
   -2.1102    0.9432   -0.4479 N   0  0  0  0  0  0  0  0  0  0  0  0
   -3.1635    0.2861    0.3393 C   0  0  0  0  0  0  0  0  0  0  0  0
   -3.7533    1.2803    1.3365 C   0  0  0  0  0  0  0  0  0  0  0  0
   -4.1138    2.6207    0.6904 C   0  0  0  0  0  0  0  0  0  0  0  0
   -3.9686    2.5832   -0.8266 C   0  0  0  0  0  0  0  0  0  0  0  0
   -2.5761    2.1020   -1.2407 C   0  0  0  0  0  0  0  0  0  0  0  0
    0.0849    1.0003   -1.6563 C   0  0  0  0  0  0  0  0  0  0  0  0
    1.4447    0.3017   -1.8117 C   0  0  0  0  0  0  0  0  0  0  0  0
    2.1005    0.1414   -0.4410 C   0  0  0  0  0  0  0  0  0  0  0  0
    3.5415   -0.3843   -0.5169 C   0  0  0  0  0  0  0  0  0  0  0  0
    3.6238   -1.9026   -0.3910 C   0  0  0  0  0  0  0  0  0  0  0  0
    0.8849   -2.3675    1.6716 H   0  0  0  0  0  0  0  0  0  0  0  0
   -0.7859   -0.6644    1.2833 H   0  0  0  0  0  0  0  0  0  0  0  0
   -2.8162   -0.6031    0.8730 H   0  0  0  0  0  0  0  0  0  0  0  0
   -3.9433   -0.0787   -0.3416 H   0  0  0  0  0  0  0  0  0  0  0  0
   -3.0384    1.4587    2.1493 H   0  0  0  0  0  0  0  0  0  0  0  0
   -4.6444    0.8402    1.7994 H   0  0  0  0  0  0  0  0  0  0  0  0
   -3.4591    3.4021    1.0965 H   0  0  0  0  0  0  0  0  0  0  0  0
   -5.1371    2.9034    0.9624 H   0  0  0  0  0  0  0  0  0  0  0  0
   -4.1566    3.5771   -1.2485 H   0  0  0  0  0  0  0  0  0  0  0  0
   -4.7325    1.9188   -1.2498 H   0  0  0  0  0  0  0  0  0  0  0  0
   -2.5888    1.8460   -2.3062 H   0  0  0  0  0  0  0  0  0  0  0  0
   -1.8757    2.9347   -1.1024 H   0  0  0  0  0  0  0  0  0  0  0  0
   -0.4667    0.8641   -2.5942 H   0  0  0  0  0  0  0  0  0  0  0  0
    0.2634    2.0764   -1.5347 H   0  0  0  0  0  0  0  0  0  0  0  0
    1.3065   -0.6771   -2.2902 H   0  0  0  0  0  0  0  0  0  0  0  0
    2.0782    0.8960   -2.4809 H   0  0  0  0  0  0  0  0  0  0  0  0
    2.1608    1.1400    0.0172 H   0  0  0  0  0  0  0  0  0  0  0  0
    4.1200    0.0614    0.3045 H   0  0  0  0  0  0  0  0  0  0  0  0
    4.0277   -0.0568   -1.4434 H   0  0  0  0  0  0  0  0  0  0  0  0
    4.6793   -2.1901   -0.4303 H   0  0  0  0  0  0  0  0  0  0  0  0
    3.1416   -2.3731   -1.2581 H   0  0  0  0  0  0  0  0  0  0  0  0
  1  2  3  0
  2  3  1  0
  3  4  1  0
  4  5  3  0
  3  6  2  3
  6  7  1  0
  7  8  2  0
  8  9  1  0
  9 10  2  0
 10 11  1  0
 11 12  1  0
 12 13  1  0
 13 14  1  0
 14 15  1  0
 15 16  1  0
 10 17  1  0
 17 18  1  0
 18 19  1  0
 19 20  1  0
 20 21  1  0
 21  6  1  0
 19  8  1  0
 16 11  1  0
  7 22  1  0
  9 23  1  0
 12 24  1  0
 12 25  1  0
 13 26  1  0
 13 27  1  0
 14 28  1  0
 14 29  1  0
 15 30  1  0
 15 31  1  0
 16 32  1  0
 16 33  1  0
 17 34  1  0
 17 35  1  0
 18 36  1  0
 18 37  1  0
 19 38  1  0
 20 39  1  0
 20 40  1  0
 21 41  1  0
 21 42  1  0
M  END
$$$$
