
     RDKit          3D

 48 50  0  0  0  0  0  0  0  0999 V2000
    4.7006   -0.5685    3.5573 C   0  0  0  0  0  0  0  0  0  0  0  0
    4.0812    0.0068    2.3095 C   0  0  0  0  0  0  0  0  0  0  0  0
    4.7287    1.0651    1.6604 C   0  0  0  0  0  0  0  0  0  0  0  0
    4.2073    1.6376    0.4994 C   0  0  0  0  0  0  0  0  0  0  0  0
    3.0063    1.1245   -0.0049 C   0  0  0  0  0  0  0  0  0  0  0  0
    2.1355    1.6091   -1.4066 S   0  0  0  0  0  0  0  0  0  0  0  0
    0.9193    0.4581   -1.0600 C   0  0  0  0  0  0  0  0  0  0  0  0
   -0.1548    0.2629   -1.9252 N   0  0  0  0  0  0  0  0  0  0  0  0
   -0.7906   -1.0562   -1.9802 C   0  0  0  0  0  0  0  0  0  0  0  0
   -2.0110   -1.1269   -1.0577 C   0  0  0  0  0  0  0  0  0  0  0  0
   -2.6405   -2.5246   -1.1016 C   0  0  0  0  0  0  0  0  0  0  0  0
   -3.8265   -2.7390   -0.2617 N   0  0  0  0  0  0  0  0  0  0  0  0
   -3.5491   -2.5939    1.1642 C   0  0  0  0  0  0  0  0  0  0  0  0
   -4.9641   -1.9162   -0.6624 C   0  0  0  0  0  0  0  0  0  0  0  0
   -0.6685    1.2597   -2.7705 C   0  0  0  0  0  0  0  0  0  0  0  0
   -1.1904    0.9503   -3.8447 O   0  0  0  0  0  0  0  0  0  0  0  0
   -0.7206    2.6354   -2.2768 C   0  0  0  0  0  0  0  0  0  0  0  0
   -0.9481    3.1058   -0.9922 C   0  0  0  0  0  0  0  0  0  0  0  0
   -0.9385    4.5318   -0.9249 C   0  0  0  0  0  0  0  0  0  0  0  0
   -0.7300    5.0833   -2.1626 C   0  0  0  0  0  0  0  0  0  0  0  0
   -0.6552    6.9667   -2.4771 Br  0  0  0  0  0  0  0  0  0  0  0  0
   -0.5570    3.9324   -3.3913 S   0  0  0  0  0  0  0  0  0  0  0  0
    1.1564   -0.3111   -0.0237 N   0  0  0  0  0  0  0  0  0  0  0  0
    2.3299    0.0732    0.6126 C   0  0  0  0  0  0  0  0  0  0  0  0
    2.8648   -0.5110    1.7920 C   0  0  0  0  0  0  0  0  0  0  0  0
    2.1653   -1.6518    2.4836 C   0  0  0  0  0  0  0  0  0  0  0  0
    5.6295   -0.0516    3.8210 H   0  0  0  0  0  0  0  0  0  0  0  0
    4.9435   -1.6253    3.4087 H   0  0  0  0  0  0  0  0  0  0  0  0
    4.0158   -0.4644    4.4048 H   0  0  0  0  0  0  0  0  0  0  0  0
    5.6632    1.4598    2.0572 H   0  0  0  0  0  0  0  0  0  0  0  0
    4.7217    2.4551    0.0033 H   0  0  0  0  0  0  0  0  0  0  0  0
   -1.0983   -1.2706   -3.0104 H   0  0  0  0  0  0  0  0  0  0  0  0
   -0.0553   -1.8247   -1.7115 H   0  0  0  0  0  0  0  0  0  0  0  0
   -1.7044   -0.8776   -0.0356 H   0  0  0  0  0  0  0  0  0  0  0  0
   -2.7384   -0.3673   -1.3664 H   0  0  0  0  0  0  0  0  0  0  0  0
   -2.9045   -2.7666   -2.1396 H   0  0  0  0  0  0  0  0  0  0  0  0
   -1.8820   -3.2673   -0.8208 H   0  0  0  0  0  0  0  0  0  0  0  0
   -2.7078   -3.2288    1.4634 H   0  0  0  0  0  0  0  0  0  0  0  0
   -3.3220   -1.5606    1.4474 H   0  0  0  0  0  0  0  0  0  0  0  0
   -4.4126   -2.9221    1.7538 H   0  0  0  0  0  0  0  0  0  0  0  0
   -4.8026   -0.8502   -0.4699 H   0  0  0  0  0  0  0  0  0  0  0  0
   -5.8648   -2.2236   -0.1190 H   0  0  0  0  0  0  0  0  0  0  0  0
   -5.1828   -2.0474   -1.7279 H   0  0  0  0  0  0  0  0  0  0  0  0
   -1.1148    2.4606   -0.1368 H   0  0  0  0  0  0  0  0  0  0  0  0
   -1.0849    5.1063   -0.0184 H   0  0  0  0  0  0  0  0  0  0  0  0
    2.8137   -2.5331    2.5131 H   0  0  0  0  0  0  0  0  0  0  0  0
    1.2453   -1.9373    1.9641 H   0  0  0  0  0  0  0  0  0  0  0  0
    1.8920   -1.3668    3.5044 H   0  0  0  0  0  0  0  0  0  0  0  0
  1  2  1  0
  2  3  2  0
  3  4  1  0
  4  5  2  0
  5  6  1  0
  6  7  1  0
  7  8  1  0
  8  9  1  0
  9 10  1  0
 10 11  1  0
 11 12  1  0
 12 13  1  0
 12 14  1  0
  8 15  1  0
 15 16  2  0
 15 17  1  0
 17 18  2  0
 18 19  1  0
 19 20  2  0
 20 21  1  0
 20 22  1  0
  7 23  2  0
 23 24  1  0
 24 25  2  0
 25 26  1  0
 25  2  1  0
 24  5  1  0
 22 17  1  0
  1 27  1  0
  1 28  1  0
  1 29  1  0
  3 30  1  0
  4 31  1  0
  9 32  1  0
  9 33  1  0
 10 34  1  0
 10 35  1  0
 11 36  1  0
 11 37  1  0
 13 38  1  0
 13 39  1  0
 13 40  1  0
 14 41  1  0
 14 42  1  0
 14 43  1  0
 18 44  1  0
 19 45  1  0
 26 46  1  0
 26 47  1  0
 26 48  1  0
M  END
$$$$
