
     RDKit          3D

 43 44  0  0  0  0  0  0  0  0999 V2000
   -3.7220   -1.9737   -1.7876 C   0  0  0  0  0  0  0  0  0  0  0  0
   -3.8399   -2.2937   -0.4049 O   0  0  0  0  0  0  0  0  0  0  0  0
   -3.2135   -1.4485    0.4766 C   0  0  0  0  0  0  0  0  0  0  0  0
   -2.3981   -0.3651    0.1411 C   0  0  0  0  0  0  0  0  0  0  0  0
   -1.8073    0.4219    1.1473 C   0  0  0  0  0  0  0  0  0  0  0  0
   -0.8861    1.5275    0.8365 C   0  0  0  0  0  0  0  0  0  0  0  0
   -1.0742    2.3795   -0.1819 C   0  0  0  0  0  0  0  0  0  0  0  0
   -0.1374    3.4735   -0.5616 C   0  0  0  0  0  0  0  0  0  0  0  0
   -0.3902    4.1345   -1.5713 O   0  0  0  0  0  0  0  0  0  0  0  0
    1.1047    3.7397    0.2439 C   0  0  0  0  0  0  0  0  0  0  0  0
    2.1689    2.6951    0.0478 C   0  0  0  0  0  0  0  0  0  0  0  0
    2.6510    2.0979    1.0054 O   0  0  0  0  0  0  0  0  0  0  0  0
    2.6282    2.4456   -1.3496 C   0  0  0  0  0  0  0  0  0  0  0  0
    2.9943    1.2488   -1.8358 C   0  0  0  0  0  0  0  0  0  0  0  0
    2.9681   -0.0223   -1.1124 C   0  0  0  0  0  0  0  0  0  0  0  0
    4.1684   -0.6457   -0.7566 C   0  0  0  0  0  0  0  0  0  0  0  0
    4.1478   -1.8596   -0.0645 C   0  0  0  0  0  0  0  0  0  0  0  0
    2.9319   -2.4490    0.2631 C   0  0  0  0  0  0  0  0  0  0  0  0
    2.9631   -3.6257    0.9529 O   0  0  0  0  0  0  0  0  0  0  0  0
    1.7298   -1.8494   -0.0970 C   0  0  0  0  0  0  0  0  0  0  0  0
    1.7509   -0.6365   -0.7916 C   0  0  0  0  0  0  0  0  0  0  0  0
   -2.0311    0.0967    2.4931 C   0  0  0  0  0  0  0  0  0  0  0  0
   -2.8454   -0.9825    2.8351 C   0  0  0  0  0  0  0  0  0  0  0  0
   -3.4236   -1.7423    1.8280 C   0  0  0  0  0  0  0  0  0  0  0  0
   -4.2076   -2.8037    2.1903 O   0  0  0  0  0  0  0  0  0  0  0  0
   -2.6806   -2.0380   -2.1202 H   0  0  0  0  0  0  0  0  0  0  0  0
   -4.1438   -0.9862   -1.9999 H   0  0  0  0  0  0  0  0  0  0  0  0
   -4.2990   -2.7123   -2.3536 H   0  0  0  0  0  0  0  0  0  0  0  0
   -2.1916   -0.1308   -0.8986 H   0  0  0  0  0  0  0  0  0  0  0  0
   -0.0244    1.5934    1.4986 H   0  0  0  0  0  0  0  0  0  0  0  0
   -1.9469    2.3157   -0.8263 H   0  0  0  0  0  0  0  0  0  0  0  0
    1.5149    4.7180   -0.0331 H   0  0  0  0  0  0  0  0  0  0  0  0
    0.8412    3.8122    1.3051 H   0  0  0  0  0  0  0  0  0  0  0  0
    2.6279    3.3147   -2.0037 H   0  0  0  0  0  0  0  0  0  0  0  0
    3.3306    1.1747   -2.8688 H   0  0  0  0  0  0  0  0  0  0  0  0
    5.1237   -0.1842   -0.9974 H   0  0  0  0  0  0  0  0  0  0  0  0
    5.0795   -2.3397    0.2223 H   0  0  0  0  0  0  0  0  0  0  0  0
    2.0517   -3.8765    1.1761 H   0  0  0  0  0  0  0  0  0  0  0  0
    0.7765   -2.3001    0.1625 H   0  0  0  0  0  0  0  0  0  0  0  0
    0.8105   -0.1740   -1.0742 H   0  0  0  0  0  0  0  0  0  0  0  0
   -1.5727    0.6806    3.2879 H   0  0  0  0  0  0  0  0  0  0  0  0
   -3.0214   -1.2330    3.8779 H   0  0  0  0  0  0  0  0  0  0  0  0
   -4.5068   -3.1976    1.3482 H   0  0  0  0  0  0  0  0  0  0  0  0
  1  2  1  0
  2  3  1  0
  3  4  2  0
  4  5  1  0
  5  6  1  0
  6  7  2  3
  7  8  1  0
  8  9  2  0
  8 10  1  0
 10 11  1  0
 11 12  2  0
 11 13  1  0
 13 14  2  3
 14 15  1  0
 15 16  2  0
 16 17  1  0
 17 18  2  0
 18 19  1  0
 18 20  1  0
 20 21  2  0
  5 22  2  0
 22 23  1  0
 23 24  2  0
 24 25  1  0
 24  3  1  0
 21 15  1  0
  1 26  1  0
  1 27  1  0
  1 28  1  0
  4 29  1  0
  6 30  1  0
  7 31  1  0
 10 32  1  0
 10 33  1  0
 13 34  1  0
 14 35  1  0
 16 36  1  0
 17 37  1  0
 19 38  1  0
 20 39  1  0
 21 40  1  0
 22 41  1  0
 23 42  1  0
 25 43  1  0
M  END
$$$$
