
     RDKit          3D

 49 52  0  0  0  0  0  0  0  0999 V2000
   -6.3880   -1.2847   -2.7584 C   0  0  0  0  0  0  0  0  0  0  0  0
   -5.8935   -0.4229   -1.6340 C   0  0  0  0  0  0  0  0  0  0  0  0
   -6.7373    0.5112   -1.0245 C   0  0  0  0  0  0  0  0  0  0  0  0
   -6.2795    1.2948    0.0401 C   0  0  0  0  0  0  0  0  0  0  0  0
   -7.1702    2.3233    0.6729 C   0  0  0  0  0  0  0  0  0  0  0  0
   -4.9567    1.1468    0.4871 C   0  0  0  0  0  0  0  0  0  0  0  0
   -4.1017    0.2142   -0.1025 C   0  0  0  0  0  0  0  0  0  0  0  0
   -2.7673   -0.0028    0.3044 N   0  0  0  0  0  0  0  0  0  0  0  0
   -2.0574    0.6954    1.2650 C   0  0  0  0  0  0  0  0  0  0  0  0
   -2.4343    1.6811    1.8875 O   0  0  0  0  0  0  0  0  0  0  0  0
   -0.6712    0.1983    1.5081 C   0  0  0  0  0  0  0  0  0  0  0  0
   -0.3452   -1.1619    1.4296 C   0  0  0  0  0  0  0  0  0  0  0  0
    0.9694   -1.5786    1.6645 C   0  0  0  0  0  0  0  0  0  0  0  0
    1.9658   -0.6510    1.9793 C   0  0  0  0  0  0  0  0  0  0  0  0
    3.2687   -1.0969    2.2251 N   0  0  0  0  0  0  0  0  0  0  0  0
    4.1808   -0.8504    1.3550 C   0  0  0  0  0  0  0  0  0  0  0  0
    4.1231   -0.2208    0.1264 N   0  0  0  0  0  0  0  0  0  0  0  0
    5.2743   -0.5334   -0.6943 C   0  0  0  0  0  0  0  0  0  0  0  0
    5.6408    0.4276   -1.7975 C   0  0  0  0  0  0  0  0  0  0  0  0
    7.3676   -0.0062   -2.0881 S   0  0  0  0  0  6  0  0  0  0  0  0
    8.1532    1.2091   -2.0637 O   0  0  0  0  0  0  0  0  0  0  0  0
    7.4210   -0.9431   -3.1899 O   0  0  0  0  0  0  0  0  0  0  0  0
    7.6501   -0.9141   -0.5500 C   0  0  0  0  0  0  0  0  0  0  0  0
    6.4632   -0.4769    0.2716 C   0  0  0  0  0  0  0  0  0  0  0  0
    5.8410   -1.4281    1.6769 S   0  0  0  0  0  0  0  0  0  0  0  0
    1.6278    0.7002    2.0965 C   0  0  0  0  0  0  0  0  0  0  0  0
    0.3178    1.1256    1.8597 C   0  0  0  0  0  0  0  0  0  0  0  0
   -4.5829   -0.5722   -1.1579 C   0  0  0  0  0  0  0  0  0  0  0  0
   -7.3185   -0.8930   -3.1823 H   0  0  0  0  0  0  0  0  0  0  0  0
   -5.6496   -1.3188   -3.5660 H   0  0  0  0  0  0  0  0  0  0  0  0
   -6.5740   -2.3019   -2.3981 H   0  0  0  0  0  0  0  0  0  0  0  0
   -7.7585    0.6322   -1.3809 H   0  0  0  0  0  0  0  0  0  0  0  0
   -8.2246    2.1227    0.4559 H   0  0  0  0  0  0  0  0  0  0  0  0
   -7.0541    2.3149    1.7619 H   0  0  0  0  0  0  0  0  0  0  0  0
   -6.9202    3.3191    0.2932 H   0  0  0  0  0  0  0  0  0  0  0  0
   -4.6204    1.7751    1.3050 H   0  0  0  0  0  0  0  0  0  0  0  0
   -2.2688   -0.7125   -0.2139 H   0  0  0  0  0  0  0  0  0  0  0  0
   -1.1036   -1.9139    1.2301 H   0  0  0  0  0  0  0  0  0  0  0  0
    1.2194   -2.6361    1.6249 H   0  0  0  0  0  0  0  0  0  0  0  0
    3.2055   -0.2260   -0.3071 H   0  0  0  0  0  0  0  0  0  0  0  0
    5.1491   -1.5420   -1.1178 H   0  0  0  0  0  0  0  0  0  0  0  0
    5.0609    0.2766   -2.7111 H   0  0  0  0  0  0  0  0  0  0  0  0
    5.5902    1.4745   -1.4836 H   0  0  0  0  0  0  0  0  0  0  0  0
    8.6085   -0.6170   -0.1194 H   0  0  0  0  0  0  0  0  0  0  0  0
    7.6406   -1.9827   -0.7806 H   0  0  0  0  0  0  0  0  0  0  0  0
    6.6205    0.5502    0.6295 H   0  0  0  0  0  0  0  0  0  0  0  0
    2.3862    1.4236    2.3849 H   0  0  0  0  0  0  0  0  0  0  0  0
    0.0685    2.1801    1.9607 H   0  0  0  0  0  0  0  0  0  0  0  0
   -3.9367   -1.3084   -1.6301 H   0  0  0  0  0  0  0  0  0  0  0  0
  1  2  1  0
  2  3  2  0
  3  4  1  0
  4  5  1  0
  4  6  2  0
  6  7  1  0
  7  8  1  0
  8  9  1  0
  9 10  2  0
  9 11  1  0
 11 12  2  0
 12 13  1  0
 13 14  2  0
 14 15  1  0
 15 16  2  3
 16 17  1  0
 17 18  1  0
 18 19  1  0
 19 20  1  0
 20 21  2  0
 20 22  2  0
 20 23  1  0
 23 24  1  0
 24 25  1  0
 14 26  1  0
 26 27  2  0
  7 28  2  0
 28  2  1  0
 27 11  1  0
 25 16  1  0
 24 18  1  0
  1 29  1  0
  1 30  1  0
  1 31  1  0
  3 32  1  0
  5 33  1  0
  5 34  1  0
  5 35  1  0
  6 36  1  0
  8 37  1  0
 12 38  1  0
 13 39  1  0
 17 40  1  0
 18 41  1  0
 19 42  1  0
 19 43  1  0
 23 44  1  0
 23 45  1  0
 24 46  1  0
 26 47  1  0
 27 48  1  0
 28 49  1  0
M  END
$$$$
