
     RDKit          3D

 45 47  0  0  0  0  0  0  0  0999 V2000
    4.1856    3.1245    3.8632 C   0  0  0  0  0  0  0  0  0  0  0  0
    3.6351    2.3512    2.7012 C   0  0  0  0  0  0  0  0  0  0  0  0
    4.0750    1.0472    2.4447 C   0  0  0  0  0  0  0  0  0  0  0  0
    3.5862    0.3346    1.3451 C   0  0  0  0  0  0  0  0  0  0  0  0
    2.6618    0.9273    0.4791 C   0  0  0  0  0  0  0  0  0  0  0  0
    2.1190    0.1971   -0.7040 C   0  0  0  0  0  0  0  0  0  0  0  0
    0.9502    0.5226   -1.1716 N   0  0  0  0  0  0  0  0  0  0  0  0
    0.4610   -0.1714   -2.2561 N   0  0  0  0  0  0  0  0  0  0  0  0
   -0.9695   -0.0776   -2.4980 C   0  0  0  0  0  0  0  0  0  0  0  0
   -1.7166   -1.2428   -1.8427 C   0  0  0  0  0  0  0  0  0  0  0  0
   -1.1789   -2.1541   -1.2169 O   0  0  0  0  0  0  0  0  0  0  0  0
   -3.0866   -1.1803   -2.0280 N   0  0  0  0  0  0  0  0  0  0  0  0
   -3.9724   -2.1022   -1.3462 C   0  0  0  0  0  0  0  0  0  0  0  0
   -4.4152   -1.5453   -0.0132 C   0  0  0  0  0  0  0  0  0  0  0  0
   -3.6982   -1.8383    1.1451 C   0  0  0  0  0  0  0  0  0  0  0  0
   -4.1090   -1.2766    2.3502 C   0  0  0  0  0  0  0  0  0  0  0  0
   -5.2140   -0.4347    2.3671 C   0  0  0  0  0  0  0  0  0  0  0  0
   -5.8621   -0.1817    1.1700 C   0  0  0  0  0  0  0  0  0  0  0  0
   -5.4860   -0.7079   -0.0167 N   0  0  0  0  0  0  0  0  0  0  0  0
    1.2390   -0.9502   -3.1044 C   0  0  0  0  0  0  0  0  0  0  0  0
    0.8000   -1.5445   -4.0888 O   0  0  0  0  0  0  0  0  0  0  0  0
    2.7098   -0.9427   -2.7930 C   0  0  0  0  0  0  0  0  0  0  0  0
    2.9239   -0.9336   -1.2980 C   0  0  0  0  0  0  0  0  0  0  0  0
    2.2218    2.2319    0.7319 C   0  0  0  0  0  0  0  0  0  0  0  0
    2.7124    2.9418    1.8307 C   0  0  0  0  0  0  0  0  0  0  0  0
    3.4478    3.8404    4.2408 H   0  0  0  0  0  0  0  0  0  0  0  0
    5.0838    3.6698    3.5576 H   0  0  0  0  0  0  0  0  0  0  0  0
    4.4417    2.4555    4.6914 H   0  0  0  0  0  0  0  0  0  0  0  0
    4.7976    0.5734    3.1063 H   0  0  0  0  0  0  0  0  0  0  0  0
    3.9281   -0.6855    1.1967 H   0  0  0  0  0  0  0  0  0  0  0  0
   -1.3412    0.8669   -2.0856 H   0  0  0  0  0  0  0  0  0  0  0  0
   -1.1663   -0.0966   -3.5753 H   0  0  0  0  0  0  0  0  0  0  0  0
   -3.5008   -0.3016   -2.3105 H   0  0  0  0  0  0  0  0  0  0  0  0
   -3.4931   -3.0794   -1.2220 H   0  0  0  0  0  0  0  0  0  0  0  0
   -4.8481   -2.2415   -1.9895 H   0  0  0  0  0  0  0  0  0  0  0  0
   -2.8245   -2.4834    1.1071 H   0  0  0  0  0  0  0  0  0  0  0  0
   -3.5651   -1.4905    3.2658 H   0  0  0  0  0  0  0  0  0  0  0  0
   -5.5581    0.0183    3.2898 H   0  0  0  0  0  0  0  0  0  0  0  0
   -6.7275    0.4736    1.1319 H   0  0  0  0  0  0  0  0  0  0  0  0
    3.1504   -0.0557   -3.2624 H   0  0  0  0  0  0  0  0  0  0  0  0
    3.1736   -1.8332   -3.2298 H   0  0  0  0  0  0  0  0  0  0  0  0
    3.9913   -0.8201   -1.0887 H   0  0  0  0  0  0  0  0  0  0  0  0
    2.5742   -1.8700   -0.8478 H   0  0  0  0  0  0  0  0  0  0  0  0
    1.4987    2.7071    0.0725 H   0  0  0  0  0  0  0  0  0  0  0  0
    2.3652    3.9584    2.0034 H   0  0  0  0  0  0  0  0  0  0  0  0
  1  2  1  0
  2  3  2  0
  3  4  1  0
  4  5  2  0
  5  6  1  0
  6  7  2  0
  7  8  1  0
  8  9  1  0
  9 10  1  0
 10 11  2  0
 10 12  1  0
 12 13  1  0
 13 14  1  0
 14 15  2  0
 15 16  1  0
 16 17  2  0
 17 18  1  0
 18 19  2  0
  8 20  1  0
 20 21  2  0
 20 22  1  0
 22 23  1  0
  5 24  1  0
 24 25  2  0
 25  2  1  0
 23  6  1  0
 19 14  1  0
  1 26  1  0
  1 27  1  0
  1 28  1  0
  3 29  1  0
  4 30  1  0
  9 31  1  0
  9 32  1  0
 12 33  1  0
 13 34  1  0
 13 35  1  0
 15 36  1  0
 16 37  1  0
 17 38  1  0
 18 39  1  0
 22 40  1  0
 22 41  1  0
 23 42  1  0
 23 43  1  0
 24 44  1  0
 25 45  1  0
M  END
$$$$
