
     RDKit          3D

 28 30  0  0  0  0  0  0  0  0999 V2000
    1.1244    3.9177   -0.0552 S   0  0  0  0  0  0  0  0  0  0  0  0
   -0.2033    2.9445    0.1638 C   0  0  0  0  0  0  0  0  0  0  0  0
   -1.4994    3.4521    0.2353 N   0  0  0  0  0  0  0  0  0  0  0  0
   -2.4151    2.4379    0.2216 N   0  0  0  0  0  0  0  0  0  0  0  0
   -1.6986    1.3429    0.2263 C   0  0  0  0  0  0  0  0  0  0  0  0
   -2.3042   -0.0006    0.1886 C   0  0  0  0  0  0  0  0  0  0  0  0
   -3.5768   -0.1603   -0.3681 C   0  0  0  0  0  0  0  0  0  0  0  0
   -4.1732   -1.4197   -0.3810 C   0  0  0  0  0  0  0  0  0  0  0  0
   -3.4798   -2.4801    0.1783 C   0  0  0  0  0  0  0  0  0  0  0  0
   -2.2583   -2.3616    0.7416 N   0  0  0  0  0  0  0  0  0  0  0  0
   -1.6984   -1.1243    0.7338 C   0  0  0  0  0  0  0  0  0  0  0  0
   -0.3428    1.5656    0.2633 N   0  0  0  0  0  0  0  0  0  0  0  0
    0.5827    0.6093   -0.0454 N   0  0  0  0  0  0  0  0  0  0  0  0
    1.7501    0.7061    0.5076 C   0  0  0  0  0  0  0  0  0  0  0  0
    2.8168   -0.2266    0.2233 C   0  0  0  0  0  0  0  0  0  0  0  0
    4.0978   -0.2178    0.7458 C   0  0  0  0  0  0  0  0  0  0  0  0
    4.8949   -1.2925    0.2466 C   0  0  0  0  0  0  0  0  0  0  0  0
    4.1833   -2.0685   -0.6320 C   0  0  0  0  0  0  0  0  0  0  0  0
    4.9089   -3.6024   -1.5107 Br  0  0  0  0  0  0  0  0  0  0  0  0
    2.5946   -1.5330   -0.8636 S   0  0  0  0  0  0  0  0  0  0  0  0
   -1.7720    4.4190    0.1021 H   0  0  0  0  0  0  0  0  0  0  0  0
   -4.1049    0.6893   -0.7947 H   0  0  0  0  0  0  0  0  0  0  0  0
   -5.1561   -1.5678   -0.8144 H   0  0  0  0  0  0  0  0  0  0  0  0
   -3.9020   -3.4811    0.1926 H   0  0  0  0  0  0  0  0  0  0  0  0
   -0.7296   -1.0815    1.2194 H   0  0  0  0  0  0  0  0  0  0  0  0
    1.9799    1.4838    1.2570 H   0  0  0  0  0  0  0  0  0  0  0  0
    4.4543    0.5238    1.4515 H   0  0  0  0  0  0  0  0  0  0  0  0
    5.9267   -1.4743    0.5218 H   0  0  0  0  0  0  0  0  0  0  0  0
  1  2  2  0
  2  3  1  0
  3  4  1  0
  4  5  2  0
  5  6  1  0
  6  7  2  0
  7  8  1  0
  8  9  2  0
  9 10  1  0
 10 11  2  0
  5 12  1  0
 12 13  1  0
 13 14  2  3
 14 15  1  0
 15 16  2  0
 16 17  1  0
 17 18  2  0
 18 19  1  0
 18 20  1  0
 12  2  1  0
 20 15  1  0
 11  6  1  0
  3 21  1  0
  7 22  1  0
  8 23  1  0
  9 24  1  0
 11 25  1  0
 14 26  1  0
 16 27  1  0
 17 28  1  0
M  END
$$$$
