
     RDKit          3D

 37 39  0  0  0  0  0  0  0  0999 V2000
    2.6397    0.4434    0.7326 O   0  0  0  0  0  0  0  0  0  0  0  0
    1.5259   -0.0570    0.9328 C   0  0  0  0  0  0  0  0  0  0  0  0
    1.1194   -1.3958    0.3406 C   0  0  0  0  0  0  0  0  0  0  0  0
    2.1668   -1.9382   -0.5928 C   0  0  0  0  0  0  0  0  0  0  0  0
    3.3243   -2.6245   -0.2778 C   0  0  0  0  0  0  0  0  0  0  0  0
    4.0652   -3.0002   -1.4349 C   0  0  0  0  0  0  0  0  0  0  0  0
    3.4483   -2.5903   -2.5958 C   0  0  0  0  0  0  0  0  0  0  0  0
    1.9860   -1.7590   -2.2898 S   0  0  0  0  0  0  0  0  0  0  0  0
    0.5864    0.6192    1.7441 N   0  0  0  0  0  0  0  0  0  0  0  0
    0.9681    1.9175    2.2267 C   0  0  0  0  0  0  0  0  0  0  0  0
   -0.1951    2.3718    3.0832 C   0  0  0  0  0  0  0  0  0  0  0  0
   -1.2339    1.3327    2.9565 N   0  0  0  0  0  0  0  0  0  0  0  0
   -0.7099    0.4008    2.2255 C   0  0  0  0  0  0  0  0  0  0  0  0
   -1.6004   -1.0379    1.8941 S   0  0  0  0  0  0  0  0  0  0  0  0
   -3.0228   -0.3108    1.0242 C   0  0  0  0  0  0  0  0  0  0  0  0
   -2.6419    0.2993   -0.3052 C   0  0  0  0  0  0  0  0  0  0  0  0
   -2.4339    1.6902   -0.3786 C   0  0  0  0  0  0  0  0  0  0  0  0
   -2.0313    2.2950   -1.5705 C   0  0  0  0  0  0  0  0  0  0  0  0
   -1.8258    1.5206   -2.7080 C   0  0  0  0  0  0  0  0  0  0  0  0
   -2.0359    0.1430   -2.6583 C   0  0  0  0  0  0  0  0  0  0  0  0
   -2.4481   -0.4645   -1.4690 C   0  0  0  0  0  0  0  0  0  0  0  0
   -2.6817   -2.1760   -1.4894 Cl  0  0  0  0  0  0  0  0  0  0  0  0
    0.1848   -1.2699   -0.2107 H   0  0  0  0  0  0  0  0  0  0  0  0
    0.9735   -2.1101    1.1568 H   0  0  0  0  0  0  0  0  0  0  0  0
    3.6303   -2.8390    0.7393 H   0  0  0  0  0  0  0  0  0  0  0  0
    5.0045   -3.5382   -1.4201 H   0  0  0  0  0  0  0  0  0  0  0  0
    3.7868   -2.7360   -3.6129 H   0  0  0  0  0  0  0  0  0  0  0  0
    1.9012    1.8552    2.7976 H   0  0  0  0  0  0  0  0  0  0  0  0
    1.1281    2.5894    1.3750 H   0  0  0  0  0  0  0  0  0  0  0  0
   -0.5829    3.3414    2.7486 H   0  0  0  0  0  0  0  0  0  0  0  0
    0.1019    2.4676    4.1342 H   0  0  0  0  0  0  0  0  0  0  0  0
   -3.7798   -1.0891    0.8777 H   0  0  0  0  0  0  0  0  0  0  0  0
   -3.5026    0.4366    1.6673 H   0  0  0  0  0  0  0  0  0  0  0  0
   -2.5787    2.3132    0.5042 H   0  0  0  0  0  0  0  0  0  0  0  0
   -1.8703    3.3701   -1.6081 H   0  0  0  0  0  0  0  0  0  0  0  0
   -1.4974    1.9851   -3.6336 H   0  0  0  0  0  0  0  0  0  0  0  0
   -1.8687   -0.4557   -3.5504 H   0  0  0  0  0  0  0  0  0  0  0  0
  1  2  2  0
  2  3  1  0
  3  4  1  0
  4  5  2  0
  5  6  1  0
  6  7  2  0
  7  8  1  0
  2  9  1  0
  9 10  1  0
 10 11  1  0
 11 12  1  0
 12 13  2  0
 13 14  1  0
 14 15  1  0
 15 16  1  0
 16 17  2  0
 17 18  1  0
 18 19  2  0
 19 20  1  0
 20 21  2  0
 21 22  1  0
  8  4  1  0
 13  9  1  0
 21 16  1  0
  3 23  1  0
  3 24  1  0
  5 25  1  0
  6 26  1  0
  7 27  1  0
 10 28  1  0
 10 29  1  0
 11 30  1  0
 11 31  1  0
 15 32  1  0
 15 33  1  0
 17 34  1  0
 18 35  1  0
 19 36  1  0
 20 37  1  0
M  END
$$$$
