
     RDKit          3D

 51 53  0  0  0  0  0  0  0  0999 V2000
   -6.7234    0.2664   -0.0039 C   0  0  0  0  0  0  0  0  0  0  0  0
   -5.8678    1.1958   -0.8222 C   0  0  0  0  0  0  0  0  0  0  0  0
   -6.5118    2.1358   -1.6339 C   0  0  0  0  0  0  0  0  0  0  0  0
   -5.7766    3.0266   -2.4058 C   0  0  0  0  0  0  0  0  0  0  0  0
   -4.3847    2.9841   -2.3861 C   0  0  0  0  0  0  0  0  0  0  0  0
   -3.7064    2.0570   -1.5893 C   0  0  0  0  0  0  0  0  0  0  0  0
   -2.2948    1.9626   -1.6022 N   0  0  0  0  0  0  0  0  0  0  0  0
   -1.3802    2.8205   -2.2003 C   0  0  0  0  0  0  0  0  0  0  0  0
   -1.6239    3.8831   -2.7625 O   0  0  0  0  0  0  0  0  0  0  0  0
    0.0436    2.2987   -2.0991 C   0  0  0  0  0  0  0  0  0  0  0  0
    0.6432    2.5059   -0.3961 S   0  0  0  0  0  0  0  0  0  0  0  0
    1.8491    1.2488   -0.3329 C   0  0  0  0  0  0  0  0  0  0  0  0
    1.6626    0.1464   -0.9697 N   0  0  0  0  0  0  0  0  0  0  0  0
    2.6393   -0.8221   -0.8802 C   0  0  0  0  0  0  0  0  0  0  0  0
    2.6223   -1.8123   -1.6041 O   0  0  0  0  0  0  0  0  0  0  0  0
    3.7451   -0.6543    0.1395 C   0  0  0  0  0  0  0  0  0  0  0  0
    4.6411   -1.8523    0.3314 C   0  0  0  0  0  0  0  0  0  0  0  0
    4.1093   -2.8138    1.3731 C   0  0  0  0  0  0  0  0  0  0  0  0
    4.5089   -2.7140    2.7132 C   0  0  0  0  0  0  0  0  0  0  0  0
    3.9833   -3.5770    3.6756 C   0  0  0  0  0  0  0  0  0  0  0  0
    3.0537   -4.5480    3.3100 C   0  0  0  0  0  0  0  0  0  0  0  0
    2.6522   -4.6609    1.9804 C   0  0  0  0  0  0  0  0  0  0  0  0
    3.1768   -3.7994    1.0175 C   0  0  0  0  0  0  0  0  0  0  0  0
    3.8547    0.5503    0.7412 C   0  0  0  0  0  0  0  0  0  0  0  0
    4.9079    0.9300    1.7444 C   0  0  0  0  0  0  0  0  0  0  0  0
    2.9230    1.5199    0.4511 N   0  0  0  0  0  0  0  0  0  0  0  0
   -4.4508    1.1642   -0.7747 C   0  0  0  0  0  0  0  0  0  0  0  0
   -3.7428    0.1735    0.1202 C   0  0  0  0  0  0  0  0  0  0  0  0
   -6.6669    0.5382    1.0549 H   0  0  0  0  0  0  0  0  0  0  0  0
   -7.7755    0.3164   -0.3062 H   0  0  0  0  0  0  0  0  0  0  0  0
   -6.4048   -0.7736   -0.1397 H   0  0  0  0  0  0  0  0  0  0  0  0
   -7.5978    2.1814   -1.6716 H   0  0  0  0  0  0  0  0  0  0  0  0
   -6.2852    3.7547   -3.0352 H   0  0  0  0  0  0  0  0  0  0  0  0
   -3.8558    3.6861   -3.0242 H   0  0  0  0  0  0  0  0  0  0  0  0
   -1.8875    1.2038   -1.0712 H   0  0  0  0  0  0  0  0  0  0  0  0
    0.6854    2.8652   -2.7812 H   0  0  0  0  0  0  0  0  0  0  0  0
    0.0428    1.2543   -2.4299 H   0  0  0  0  0  0  0  0  0  0  0  0
    4.7896   -2.3880   -0.6152 H   0  0  0  0  0  0  0  0  0  0  0  0
    5.6562   -1.5454    0.6089 H   0  0  0  0  0  0  0  0  0  0  0  0
    5.2328   -1.9642    3.0212 H   0  0  0  0  0  0  0  0  0  0  0  0
    4.2970   -3.4899    4.7128 H   0  0  0  0  0  0  0  0  0  0  0  0
    2.6398   -5.2155    4.0610 H   0  0  0  0  0  0  0  0  0  0  0  0
    1.9268   -5.4170    1.6913 H   0  0  0  0  0  0  0  0  0  0  0  0
    2.8485   -3.9006   -0.0169 H   0  0  0  0  0  0  0  0  0  0  0  0
    5.6867    0.1763    1.8683 H   0  0  0  0  0  0  0  0  0  0  0  0
    5.4053    1.8567    1.4350 H   0  0  0  0  0  0  0  0  0  0  0  0
    4.4492    1.0997    2.7247 H   0  0  0  0  0  0  0  0  0  0  0  0
    2.9271    2.3846    0.9808 H   0  0  0  0  0  0  0  0  0  0  0  0
   -3.3215   -0.6390   -0.4783 H   0  0  0  0  0  0  0  0  0  0  0  0
   -4.4013   -0.2666    0.8741 H   0  0  0  0  0  0  0  0  0  0  0  0
   -2.9437    0.6670    0.6851 H   0  0  0  0  0  0  0  0  0  0  0  0
  1  2  1  0
  2  3  2  0
  3  4  1  0
  4  5  2  0
  5  6  1  0
  6  7  1  0
  7  8  1  0
  8  9  2  0
  8 10  1  0
 10 11  1  0
 11 12  1  0
 12 13  2  0
 13 14  1  0
 14 15  2  0
 14 16  1  0
 16 17  1  0
 17 18  1  0
 18 19  2  0
 19 20  1  0
 20 21  2  0
 21 22  1  0
 22 23  2  0
 16 24  2  0
 24 25  1  0
 24 26  1  0
  6 27  2  0
 27 28  1  0
 27  2  1  0
 26 12  1  0
 23 18  1  0
  1 29  1  0
  1 30  1  0
  1 31  1  0
  3 32  1  0
  4 33  1  0
  5 34  1  0
  7 35  1  0
 10 36  1  0
 10 37  1  0
 17 38  1  0
 17 39  1  0
 19 40  1  0
 20 41  1  0
 21 42  1  0
 22 43  1  0
 23 44  1  0
 25 45  1  0
 25 46  1  0
 25 47  1  0
 26 48  1  0
 28 49  1  0
 28 50  1  0
 28 51  1  0
M  END
$$$$
