
     RDKit          3D

 39 41  0  0  0  0  0  0  0  0999 V2000
    5.1179   -2.5732    0.6297 C   0  0  0  0  0  0  0  0  0  0  0  0
    3.8926   -1.7158    0.3641 C   0  0  0  0  0  0  0  0  0  0  0  0
    2.3855   -2.6400    0.8057 S   0  0  0  0  0  0  0  0  0  0  0  0
    1.1258   -1.4376    0.3963 C   0  0  0  0  0  0  0  0  0  0  0  0
   -0.1963   -1.7880    0.5690 C   0  0  0  0  0  0  0  0  0  0  0  0
   -1.1525   -0.8464    0.2528 C   0  0  0  0  0  0  0  0  0  0  0  0
   -2.4962   -1.1076    0.3789 N   0  0  0  0  0  0  0  0  0  0  0  0
   -3.0538   -2.1343    1.2516 C   0  0  0  0  0  0  0  0  0  0  0  0
   -4.4603   -1.6284    1.5747 C   0  0  0  0  0  0  0  0  0  0  0  0
   -4.8038   -0.7432    0.3873 C   0  0  0  0  0  0  0  0  0  0  0  0
   -3.4719   -0.0659    0.0799 C   0  0  0  0  0  0  0  0  0  0  0  0
   -0.7844    0.3552   -0.2237 N   0  0  0  0  0  0  0  0  0  0  0  0
    0.5272    0.6198   -0.3632 C   0  0  0  0  0  0  0  0  0  0  0  0
    0.9088    1.9508   -0.8822 C   0  0  0  0  0  0  0  0  0  0  0  0
    2.2600    2.3204   -1.0412 C   0  0  0  0  0  0  0  0  0  0  0  0
    2.6233    3.5803   -1.5322 C   0  0  0  0  0  0  0  0  0  0  0  0
    1.6368    4.4988   -1.8752 C   0  0  0  0  0  0  0  0  0  0  0  0
    2.0795    6.0473   -2.4785 Cl  0  0  0  0  0  0  0  0  0  0  0  0
    0.2936    4.1684   -1.7318 C   0  0  0  0  0  0  0  0  0  0  0  0
   -0.0633    2.9070   -1.2402 C   0  0  0  0  0  0  0  0  0  0  0  0
    1.5109   -0.2398   -0.0627 N   0  0  0  0  0  0  0  0  0  0  0  0
    5.1956   -2.8475    1.6873 H   0  0  0  0  0  0  0  0  0  0  0  0
    6.0243   -2.0185    0.3648 H   0  0  0  0  0  0  0  0  0  0  0  0
    5.1049   -3.4903    0.0311 H   0  0  0  0  0  0  0  0  0  0  0  0
    3.9518   -0.8002    0.9615 H   0  0  0  0  0  0  0  0  0  0  0  0
    3.8607   -1.4437   -0.6958 H   0  0  0  0  0  0  0  0  0  0  0  0
   -0.4645   -2.7724    0.9264 H   0  0  0  0  0  0  0  0  0  0  0  0
   -3.0992   -3.0893    0.7168 H   0  0  0  0  0  0  0  0  0  0  0  0
   -2.4840   -2.2686    2.1777 H   0  0  0  0  0  0  0  0  0  0  0  0
   -5.1747   -2.4436    1.7197 H   0  0  0  0  0  0  0  0  0  0  0  0
   -4.4386   -1.0274    2.4920 H   0  0  0  0  0  0  0  0  0  0  0  0
   -5.1194   -1.3616   -0.4616 H   0  0  0  0  0  0  0  0  0  0  0  0
   -5.5990   -0.0256    0.6068 H   0  0  0  0  0  0  0  0  0  0  0  0
   -3.3286    0.8012    0.7363 H   0  0  0  0  0  0  0  0  0  0  0  0
   -3.4299    0.2589   -0.9652 H   0  0  0  0  0  0  0  0  0  0  0  0
    3.0503    1.6181   -0.7794 H   0  0  0  0  0  0  0  0  0  0  0  0
    3.6746    3.8321   -1.6421 H   0  0  0  0  0  0  0  0  0  0  0  0
   -0.4824    4.8807   -1.9983 H   0  0  0  0  0  0  0  0  0  0  0  0
   -1.1216    2.6696   -1.1371 H   0  0  0  0  0  0  0  0  0  0  0  0
  1  2  1  0
  2  3  1  0
  3  4  1  0
  4  5  2  0
  5  6  1  0
  6  7  1  0
  7  8  1  0
  8  9  1  0
  9 10  1  0
 10 11  1  0
  6 12  2  0
 12 13  1  0
 13 14  1  0
 14 15  2  0
 15 16  1  0
 16 17  2  0
 17 18  1  0
 17 19  1  0
 19 20  2  0
 13 21  2  0
 21  4  1  0
 11  7  1  0
 20 14  1  0
  1 22  1  0
  1 23  1  0
  1 24  1  0
  2 25  1  0
  2 26  1  0
  5 27  1  0
  8 28  1  0
  8 29  1  0
  9 30  1  0
  9 31  1  0
 10 32  1  0
 10 33  1  0
 11 34  1  0
 11 35  1  0
 15 36  1  0
 16 37  1  0
 19 38  1  0
 20 39  1  0
M  END
$$$$
