
     RDKit          3D

 52 53  0  0  0  0  0  0  0  0999 V2000
    3.4101    4.7095   -0.8323 C   0  0  0  0  0  0  0  0  0  0  0  0
    4.0389    3.8089   -1.7370 O   0  0  0  0  0  0  0  0  0  0  0  0
    3.8667    2.4723   -1.4966 C   0  0  0  0  0  0  0  0  0  0  0  0
    4.4531    1.6323   -2.4454 C   0  0  0  0  0  0  0  0  0  0  0  0
    4.3534    0.2484   -2.3219 C   0  0  0  0  0  0  0  0  0  0  0  0
    3.6597   -0.3021   -1.2452 C   0  0  0  0  0  0  0  0  0  0  0  0
    3.0606    0.5262   -0.2893 C   0  0  0  0  0  0  0  0  0  0  0  0
    2.3709   -0.1080    0.7603 N   0  0  0  0  0  0  0  0  0  0  0  0
    1.5887    0.4720    1.7456 C   0  0  0  0  0  0  0  0  0  0  0  0
    1.2526    1.6512    1.8141 O   0  0  0  0  0  0  0  0  0  0  0  0
    1.1317   -0.5467    2.7969 C   0  0  0  0  0  0  0  0  0  0  0  0
   -0.0180   -1.3463    2.3715 N   0  0  0  0  0  0  0  0  0  0  0  0
   -1.3218   -0.9163    2.8579 C   0  0  0  0  0  0  0  0  0  0  0  0
    0.2177   -2.3825    1.4922 C   0  0  0  0  0  0  0  0  0  0  0  0
    1.3440   -2.6276    1.0526 O   0  0  0  0  0  0  0  0  0  0  0  0
   -0.8828   -3.2973    1.1200 C   0  0  0  0  0  0  0  0  0  0  0  0
   -1.9875   -3.0359    0.4053 C   0  0  0  0  0  0  0  0  0  0  0  0
   -2.4468   -1.7639   -0.1821 C   0  0  0  0  0  0  0  0  0  0  0  0
   -1.5848   -0.9822   -0.9695 C   0  0  0  0  0  0  0  0  0  0  0  0
   -2.0546    0.1798   -1.5855 C   0  0  0  0  0  0  0  0  0  0  0  0
   -1.3226    1.0013   -2.3980 O   0  0  0  0  0  0  0  0  0  0  0  0
    0.0779    1.0196   -2.1463 C   0  0  0  0  0  0  0  0  0  0  0  0
   -3.3887    0.5520   -1.4318 C   0  0  0  0  0  0  0  0  0  0  0  0
   -4.2558   -0.2113   -0.6497 C   0  0  0  0  0  0  0  0  0  0  0  0
   -3.7969   -1.3730   -0.0245 C   0  0  0  0  0  0  0  0  0  0  0  0
   -4.5777   -2.1861    0.7616 O   0  0  0  0  0  0  0  0  0  0  0  0
   -5.9513   -1.8452    0.8986 C   0  0  0  0  0  0  0  0  0  0  0  0
    3.1772    1.9147   -0.4154 C   0  0  0  0  0  0  0  0  0  0  0  0
    3.8265    4.6101    0.1755 H   0  0  0  0  0  0  0  0  0  0  0  0
    2.3234    4.5733   -0.8290 H   0  0  0  0  0  0  0  0  0  0  0  0
    3.6162    5.7272   -1.1778 H   0  0  0  0  0  0  0  0  0  0  0  0
    4.9927    2.0629   -3.2855 H   0  0  0  0  0  0  0  0  0  0  0  0
    4.8147   -0.3986   -3.0632 H   0  0  0  0  0  0  0  0  0  0  0  0
    3.5876   -1.3846   -1.1657 H   0  0  0  0  0  0  0  0  0  0  0  0
    2.3617   -1.1315    0.7474 H   0  0  0  0  0  0  0  0  0  0  0  0
    0.8965   -0.0141    3.7251 H   0  0  0  0  0  0  0  0  0  0  0  0
    1.9708   -1.2156    3.0261 H   0  0  0  0  0  0  0  0  0  0  0  0
   -1.2485   -0.6851    3.9251 H   0  0  0  0  0  0  0  0  0  0  0  0
   -2.0843   -1.6865    2.7420 H   0  0  0  0  0  0  0  0  0  0  0  0
   -1.6174   -0.0157    2.3127 H   0  0  0  0  0  0  0  0  0  0  0  0
   -0.6974   -4.3197    1.4373 H   0  0  0  0  0  0  0  0  0  0  0  0
   -2.6764   -3.8632    0.2332 H   0  0  0  0  0  0  0  0  0  0  0  0
   -0.5619   -1.3111   -1.1240 H   0  0  0  0  0  0  0  0  0  0  0  0
    0.5525    0.1032   -2.5101 H   0  0  0  0  0  0  0  0  0  0  0  0
    0.2789    1.1796   -1.0833 H   0  0  0  0  0  0  0  0  0  0  0  0
    0.5072    1.8603   -2.6996 H   0  0  0  0  0  0  0  0  0  0  0  0
   -3.7547    1.4502   -1.9241 H   0  0  0  0  0  0  0  0  0  0  0  0
   -5.2815    0.1287   -0.5577 H   0  0  0  0  0  0  0  0  0  0  0  0
   -6.4217   -2.6037    1.5316 H   0  0  0  0  0  0  0  0  0  0  0  0
   -6.4609   -1.8588   -0.0704 H   0  0  0  0  0  0  0  0  0  0  0  0
   -6.0693   -0.8776    1.3970 H   0  0  0  0  0  0  0  0  0  0  0  0
    2.7314    2.5589    0.3314 H   0  0  0  0  0  0  0  0  0  0  0  0
  1  2  1  0
  2  3  1  0
  3  4  2  0
  4  5  1  0
  5  6  2  0
  6  7  1  0
  7  8  1  0
  8  9  1  0
  9 10  2  0
  9 11  1  0
 11 12  1  0
 12 13  1  0
 12 14  1  0
 14 15  2  0
 14 16  1  0
 16 17  2  3
 17 18  1  0
 18 19  2  0
 19 20  1  0
 20 21  1  0
 21 22  1  0
 20 23  2  0
 23 24  1  0
 24 25  2  0
 25 26  1  0
 26 27  1  0
  7 28  2  0
 28  3  1  0
 25 18  1  0
  1 29  1  0
  1 30  1  0
  1 31  1  0
  4 32  1  0
  5 33  1  0
  6 34  1  0
  8 35  1  0
 11 36  1  0
 11 37  1  0
 13 38  1  0
 13 39  1  0
 13 40  1  0
 16 41  1  0
 17 42  1  0
 19 43  1  0
 22 44  1  0
 22 45  1  0
 22 46  1  0
 23 47  1  0
 24 48  1  0
 27 49  1  0
 27 50  1  0
 27 51  1  0
 28 52  1  0
M  END
$$$$
