
     RDKit          3D

 46 49  0  0  0  0  0  0  0  0999 V2000
    4.4275   -0.0396    2.3051 C   0  0  0  0  0  0  0  0  0  0  0  0
    3.2936   -0.0074    1.5928 C   0  0  0  0  0  0  0  0  0  0  0  0
    3.1508   -0.5895    0.2067 C   0  0  0  0  0  0  0  0  0  0  0  0
    2.0017   -1.6267    0.1283 C   0  0  0  0  0  0  0  0  0  0  0  0
    1.1985   -1.4974   -1.1235 N   0  0  0  0  0  0  0  0  0  0  0  0
    2.1449   -1.4716   -2.2672 C   0  0  0  0  0  0  0  0  0  0  0  0
    3.0255   -0.2081   -2.2411 C   0  0  0  0  0  0  0  0  0  0  0  0
    2.8798    0.4847   -0.8716 C   0  0  0  0  0  0  0  0  0  0  0  0
    1.4171    0.9619   -0.7508 C   0  0  0  0  0  0  0  0  0  0  0  0
    0.4633   -0.1937   -1.1283 C   0  0  0  0  0  0  0  0  0  0  0  0
   -0.7924   -0.2518   -0.2949 C   0  0  0  0  0  0  0  0  0  0  0  0
   -1.2543   -1.4604    0.1766 N   0  0  0  0  0  0  0  0  0  0  0  0
   -2.4094   -1.3084    0.8963 C   0  0  0  0  0  0  0  0  0  0  0  0
   -3.1876   -2.2593    1.5667 C   0  0  0  0  0  0  0  0  0  0  0  0
   -4.3426   -1.8110    2.2132 C   0  0  0  0  0  0  0  0  0  0  0  0
   -4.7031   -0.4664    2.1839 C   0  0  0  0  0  0  0  0  0  0  0  0
   -3.9127    0.4688    1.5052 C   0  0  0  0  0  0  0  0  0  0  0  0
   -2.7373    0.0435    0.8505 C   0  0  0  0  0  0  0  0  0  0  0  0
   -1.7285    0.7097    0.0744 C   0  0  0  0  0  0  0  0  0  0  0  0
   -1.7387    2.1654   -0.2774 C   0  0  0  0  0  0  0  0  0  0  0  0
   -2.4444    2.4323   -1.6036 C   0  0  0  0  0  0  0  0  0  0  0  0
   -2.4004    3.8255   -1.8977 O   0  0  0  0  0  0  0  0  0  0  0  0
    4.4687    0.3938    3.3002 H   0  0  0  0  0  0  0  0  0  0  0  0
    5.3358   -0.4916    1.9191 H   0  0  0  0  0  0  0  0  0  0  0  0
    2.4158    0.4592    2.0375 H   0  0  0  0  0  0  0  0  0  0  0  0
    4.0891   -1.1002   -0.0540 H   0  0  0  0  0  0  0  0  0  0  0  0
    1.3472   -1.5683    1.0063 H   0  0  0  0  0  0  0  0  0  0  0  0
    2.4296   -2.6374    0.1645 H   0  0  0  0  0  0  0  0  0  0  0  0
    1.5910   -1.5206   -3.2129 H   0  0  0  0  0  0  0  0  0  0  0  0
    2.7725   -2.3718   -2.2481 H   0  0  0  0  0  0  0  0  0  0  0  0
    2.7246    0.4793   -3.0410 H   0  0  0  0  0  0  0  0  0  0  0  0
    4.0716   -0.4808   -2.4231 H   0  0  0  0  0  0  0  0  0  0  0  0
    3.5734    1.3285   -0.7883 H   0  0  0  0  0  0  0  0  0  0  0  0
    1.2568    1.8006   -1.4404 H   0  0  0  0  0  0  0  0  0  0  0  0
    1.2268    1.3407    0.2592 H   0  0  0  0  0  0  0  0  0  0  0  0
    0.1027   -0.0184   -2.1534 H   0  0  0  0  0  0  0  0  0  0  0  0
   -0.7757   -2.3351    0.0061 H   0  0  0  0  0  0  0  0  0  0  0  0
   -2.9094   -3.3078    1.5853 H   0  0  0  0  0  0  0  0  0  0  0  0
   -4.9687   -2.5240    2.7444 H   0  0  0  0  0  0  0  0  0  0  0  0
   -5.6062   -0.1374    2.6916 H   0  0  0  0  0  0  0  0  0  0  0  0
   -4.2053    1.5143    1.4891 H   0  0  0  0  0  0  0  0  0  0  0  0
   -0.7224    2.5690   -0.3164 H   0  0  0  0  0  0  0  0  0  0  0  0
   -2.2311    2.7423    0.5157 H   0  0  0  0  0  0  0  0  0  0  0  0
   -1.9572    1.8928   -2.4229 H   0  0  0  0  0  0  0  0  0  0  0  0
   -3.4936    2.1206   -1.5584 H   0  0  0  0  0  0  0  0  0  0  0  0
   -2.8872    3.9515   -2.7304 H   0  0  0  0  0  0  0  0  0  0  0  0
  1  2  2  0
  2  3  1  0
  3  4  1  0
  4  5  1  0
  5  6  1  0
  6  7  1  0
  7  8  1  0
  8  9  1  0
  9 10  1  0
 10 11  1  0
 11 12  1  0
 12 13  1  0
 13 14  2  0
 14 15  1  0
 15 16  2  0
 16 17  1  0
 17 18  2  0
 18 19  1  0
 19 20  1  0
 20 21  1  0
 21 22  1  0
  8  3  1  0
 19 11  2  0
 10  5  1  0
 18 13  1  0
  1 23  1  0
  1 24  1  0
  2 25  1  0
  3 26  1  0
  4 27  1  0
  4 28  1  0
  6 29  1  0
  6 30  1  0
  7 31  1  0
  7 32  1  0
  8 33  1  0
  9 34  1  0
  9 35  1  0
 10 36  1  0
 12 37  1  0
 14 38  1  0
 15 39  1  0
 16 40  1  0
 17 41  1  0
 20 42  1  0
 20 43  1  0
 21 44  1  0
 21 45  1  0
 22 46  1  0
M  END
$$$$
