
     RDKit          3D

 63 65  0  0  0  0  0  0  0  0999 V2000
    0.2741   -1.8986    0.7728 C   0  0  0  0  0  0  0  0  0  0  0  0
   -0.1002   -1.4226   -0.6288 C   0  0  0  0  0  0  0  0  0  0  0  0
   -0.6202   -0.0429   -0.6555 N   0  0  0  0  0  0  0  0  0  0  0  0
    0.3632    0.9782   -0.2393 C   0  0  0  0  0  0  0  0  0  0  0  0
    1.6379    1.0061   -1.0991 C   0  0  0  0  0  0  0  0  0  0  0  0
    1.6011    1.3347   -2.2829 O   0  0  0  0  0  0  0  0  0  0  0  0
    2.7674    0.6189   -0.3943 N   0  0  0  0  0  0  0  0  0  0  0  0
    4.0929    0.5416   -0.8675 C   0  0  0  0  0  0  0  0  0  0  0  0
    4.4849    0.8754   -2.1623 C   0  0  0  0  0  0  0  0  0  0  0  0
    5.8298    0.7741   -2.5462 C   0  0  0  0  0  0  0  0  0  0  0  0
    6.8059    0.3354   -1.6439 C   0  0  0  0  0  0  0  0  0  0  0  0
    8.1346    0.2674   -2.1118 N   0  0  0  0  0  0  0  0  0  0  0  0
    9.2553   -0.1315   -1.4076 C   0  0  0  0  0  0  0  0  0  0  0  0
   10.5027   -0.0695   -2.2521 C   0  0  0  0  0  0  0  0  0  0  0  0
    9.3005   -0.5140   -0.2447 O   0  0  0  0  0  0  0  0  0  0  0  0
    6.4144   -0.0004   -0.3508 C   0  0  0  0  0  0  0  0  0  0  0  0
    5.0700    0.1038    0.0346 C   0  0  0  0  0  0  0  0  0  0  0  0
   -1.1908    0.2726   -1.9929 C   0  0  0  0  0  0  0  0  0  0  0  0
   -2.6238   -0.2765   -2.1325 C   0  0  0  0  0  0  0  0  0  0  0  0
   -3.1004   -0.5237   -3.2378 O   0  0  0  0  0  0  0  0  0  0  0  0
   -3.2805   -0.3629   -0.9168 N   0  0  0  0  0  0  0  0  0  0  0  0
   -4.6083   -0.7645   -0.6426 C   0  0  0  0  0  0  0  0  0  0  0  0
   -5.4976   -1.1462   -1.6521 C   0  0  0  0  0  0  0  0  0  0  0  0
   -6.8002   -1.5611   -1.3465 C   0  0  0  0  0  0  0  0  0  0  0  0
   -7.2331   -1.6093   -0.0259 C   0  0  0  0  0  0  0  0  0  0  0  0
   -6.3712   -1.2191    0.9949 C   0  0  0  0  0  0  0  0  0  0  0  0
   -5.0711   -0.7763    0.6919 C   0  0  0  0  0  0  0  0  0  0  0  0
   -4.1909   -0.3343    1.8063 C   0  0  0  0  0  0  0  0  0  0  0  0
   -3.0052   -0.6550    1.8059 O   0  0  0  0  0  0  0  0  0  0  0  0
   -4.7086    0.5092    2.9144 C   0  0  0  0  0  0  0  0  0  0  0  0
   -4.1269    0.3760    4.1811 C   0  0  0  0  0  0  0  0  0  0  0  0
   -4.5729    1.1634    5.2436 C   0  0  0  0  0  0  0  0  0  0  0  0
   -5.5964    2.0896    5.0432 C   0  0  0  0  0  0  0  0  0  0  0  0
   -6.1630    2.2412    3.7763 C   0  0  0  0  0  0  0  0  0  0  0  0
   -5.7176    1.4572    2.7091 C   0  0  0  0  0  0  0  0  0  0  0  0
   -0.5720   -1.8025    1.4594 H   0  0  0  0  0  0  0  0  0  0  0  0
    1.1213   -1.3426    1.1876 H   0  0  0  0  0  0  0  0  0  0  0  0
    0.5617   -2.9577    0.7418 H   0  0  0  0  0  0  0  0  0  0  0  0
    0.7594   -1.5423   -1.2995 H   0  0  0  0  0  0  0  0  0  0  0  0
   -0.8737   -2.1093   -0.9971 H   0  0  0  0  0  0  0  0  0  0  0  0
    0.6133    0.8435    0.8171 H   0  0  0  0  0  0  0  0  0  0  0  0
   -0.0881    1.9756   -0.2893 H   0  0  0  0  0  0  0  0  0  0  0  0
    2.6323    0.3519    0.5734 H   0  0  0  0  0  0  0  0  0  0  0  0
    3.7735    1.2256   -2.9043 H   0  0  0  0  0  0  0  0  0  0  0  0
    6.0932    1.0496   -3.5640 H   0  0  0  0  0  0  0  0  0  0  0  0
    8.2769    0.5506   -3.0726 H   0  0  0  0  0  0  0  0  0  0  0  0
   10.5656    0.8899   -2.7740 H   0  0  0  0  0  0  0  0  0  0  0  0
   11.3828   -0.1683   -1.6103 H   0  0  0  0  0  0  0  0  0  0  0  0
   10.4922   -0.8866   -2.9775 H   0  0  0  0  0  0  0  0  0  0  0  0
    7.1285   -0.3425    0.3926 H   0  0  0  0  0  0  0  0  0  0  0  0
    4.8120   -0.1640    1.0560 H   0  0  0  0  0  0  0  0  0  0  0  0
   -1.2823    1.3565   -2.1330 H   0  0  0  0  0  0  0  0  0  0  0  0
   -0.5720   -0.1317   -2.8022 H   0  0  0  0  0  0  0  0  0  0  0  0
   -2.6665   -0.2154   -0.1076 H   0  0  0  0  0  0  0  0  0  0  0  0
   -5.2042   -1.1426   -2.6975 H   0  0  0  0  0  0  0  0  0  0  0  0
   -7.4686   -1.8582   -2.1507 H   0  0  0  0  0  0  0  0  0  0  0  0
   -8.2392   -1.9527    0.2068 H   0  0  0  0  0  0  0  0  0  0  0  0
   -6.7175   -1.2735    2.0237 H   0  0  0  0  0  0  0  0  0  0  0  0
   -3.3237   -0.3409    4.3417 H   0  0  0  0  0  0  0  0  0  0  0  0
   -4.1176    1.0576    6.2253 H   0  0  0  0  0  0  0  0  0  0  0  0
   -5.9436    2.7039    5.8731 H   0  0  0  0  0  0  0  0  0  0  0  0
   -6.9460    2.9780    3.6168 H   0  0  0  0  0  0  0  0  0  0  0  0
   -6.1534    1.6115    1.7243 H   0  0  0  0  0  0  0  0  0  0  0  0
  1  2  1  0
  2  3  1  0
  3  4  1  0
  4  5  1  0
  5  6  2  0
  5  7  1  0
  7  8  1  0
  8  9  2  0
  9 10  1  0
 10 11  2  0
 11 12  1  0
 12 13  1  0
 13 14  1  0
 13 15  2  0
 11 16  1  0
 16 17  2  0
  3 18  1  0
 18 19  1  0
 19 20  2  0
 19 21  1  0
 21 22  1  0
 22 23  2  0
 23 24  1  0
 24 25  2  0
 25 26  1  0
 26 27  2  0
 27 28  1  0
 28 29  2  0
 28 30  1  0
 30 31  2  0
 31 32  1  0
 32 33  2  0
 33 34  1  0
 34 35  2  0
 17  8  1  0
 27 22  1  0
 35 30  1  0
  1 36  1  0
  1 37  1  0
  1 38  1  0
  2 39  1  0
  2 40  1  0
  4 41  1  0
  4 42  1  0
  7 43  1  0
  9 44  1  0
 10 45  1  0
 12 46  1  0
 14 47  1  0
 14 48  1  0
 14 49  1  0
 16 50  1  0
 17 51  1  0
 18 52  1  0
 18 53  1  0
 21 54  1  0
 23 55  1  0
 24 56  1  0
 25 57  1  0
 26 58  1  0
 31 59  1  0
 32 60  1  0
 33 61  1  0
 34 62  1  0
 35 63  1  0
M  END
$$$$
