
     RDKit          3D

 36 38  0  0  0  0  0  0  0  0999 V2000
    5.8481   -0.6491    0.7419 C   0  0  0  0  0  0  0  0  0  0  0  0
    4.4370   -0.4486    0.2710 C   0  0  0  0  0  0  0  0  0  0  0  0
    3.9375    0.8450    0.0655 C   0  0  0  0  0  0  0  0  0  0  0  0
    2.6371    1.0339   -0.4037 C   0  0  0  0  0  0  0  0  0  0  0  0
    1.8359   -0.0780   -0.6743 C   0  0  0  0  0  0  0  0  0  0  0  0
    0.1853    0.1786   -1.2673 S   0  0  0  0  0  6  0  0  0  0  0  0
   -0.4642   -1.1060   -1.4161 O   0  0  0  0  0  0  0  0  0  0  0  0
    0.2579    1.1120   -2.3695 O   0  0  0  0  0  0  0  0  0  0  0  0
   -0.5673    0.9731    0.0441 N   0  0  0  0  0  0  0  0  0  0  0  0
   -0.7786    0.1053    1.2467 C   0  0  0  0  0  0  0  0  0  0  0  0
   -2.1141   -0.6300    1.3666 C   0  0  0  0  0  0  0  0  0  0  0  0
   -2.3060   -1.4445    2.2709 O   0  0  0  0  0  0  0  0  0  0  0  0
   -3.1145   -0.2615    0.5040 N   0  0  0  0  0  0  0  0  0  0  0  0
   -4.5028   -0.5770    0.6982 C   0  0  0  0  0  0  0  0  0  0  0  0
   -5.1796    0.2038   -0.4115 C   0  0  0  0  0  0  0  0  0  0  0  0
   -4.2458    1.2584   -0.7355 O   0  0  0  0  0  0  0  0  0  0  0  0
   -2.9519    0.6576   -0.5891 C   0  0  0  0  0  0  0  0  0  0  0  0
   -1.8422    1.6777   -0.3247 C   0  0  0  0  0  0  0  0  0  0  0  0
    2.3257   -1.3733   -0.4966 C   0  0  0  0  0  0  0  0  0  0  0  0
    3.6274   -1.5542   -0.0263 C   0  0  0  0  0  0  0  0  0  0  0  0
    5.9377   -1.5719    1.3247 H   0  0  0  0  0  0  0  0  0  0  0  0
    6.1645    0.1755    1.3893 H   0  0  0  0  0  0  0  0  0  0  0  0
    6.5243   -0.7051   -0.1166 H   0  0  0  0  0  0  0  0  0  0  0  0
    4.5620    1.7130    0.2677 H   0  0  0  0  0  0  0  0  0  0  0  0
    2.2570    2.0409   -0.5612 H   0  0  0  0  0  0  0  0  0  0  0  0
   -0.6980    0.7596    2.1240 H   0  0  0  0  0  0  0  0  0  0  0  0
    0.0219   -0.6350    1.3384 H   0  0  0  0  0  0  0  0  0  0  0  0
   -4.8025   -0.2134    1.6868 H   0  0  0  0  0  0  0  0  0  0  0  0
   -4.6799   -1.6546    0.6453 H   0  0  0  0  0  0  0  0  0  0  0  0
   -5.3234   -0.4111   -1.3070 H   0  0  0  0  0  0  0  0  0  0  0  0
   -6.1404    0.6306   -0.1124 H   0  0  0  0  0  0  0  0  0  0  0  0
   -2.7503    0.0769   -1.4964 H   0  0  0  0  0  0  0  0  0  0  0  0
   -1.6956    2.3367   -1.1868 H   0  0  0  0  0  0  0  0  0  0  0  0
   -2.1223    2.3408    0.5042 H   0  0  0  0  0  0  0  0  0  0  0  0
    1.7102   -2.2412   -0.7222 H   0  0  0  0  0  0  0  0  0  0  0  0
    4.0096   -2.5648    0.1054 H   0  0  0  0  0  0  0  0  0  0  0  0
  1  2  1  0
  2  3  2  0
  3  4  1  0
  4  5  2  0
  5  6  1  0
  6  7  2  0
  6  8  2  0
  6  9  1  0
  9 10  1  0
 10 11  1  0
 11 12  2  0
 11 13  1  0
 13 14  1  0
 14 15  1  0
 15 16  1  0
 16 17  1  0
 17 18  1  0
  5 19  1  0
 19 20  2  0
 20  2  1  0
 18  9  1  0
 17 13  1  0
  1 21  1  0
  1 22  1  0
  1 23  1  0
  3 24  1  0
  4 25  1  0
 10 26  1  0
 10 27  1  0
 14 28  1  0
 14 29  1  0
 15 30  1  0
 15 31  1  0
 17 32  1  0
 18 33  1  0
 18 34  1  0
 19 35  1  0
 20 36  1  0
M  END
$$$$
