
     RDKit          3D

 53 56  0  0  0  0  0  0  0  0999 V2000
    4.6073   -4.1463    0.2499 C   0  0  0  0  0  0  0  0  0  0  0  0
    3.4560   -3.3336    0.4330 O   0  0  0  0  0  0  0  0  0  0  0  0
    3.3137   -2.2690   -0.4057 C   0  0  0  0  0  0  0  0  0  0  0  0
    4.1272   -1.9669   -1.4942 C   0  0  0  0  0  0  0  0  0  0  0  0
    3.8672   -0.8378   -2.2780 C   0  0  0  0  0  0  0  0  0  0  0  0
    2.7960    0.0086   -1.9784 C   0  0  0  0  0  0  0  0  0  0  0  0
    2.4683    1.1311   -2.6879 O   0  0  0  0  0  0  0  0  0  0  0  0
    3.2066    1.4048   -3.8705 C   0  0  0  0  0  0  0  0  0  0  0  0
    1.9796   -0.2788   -0.8731 C   0  0  0  0  0  0  0  0  0  0  0  0
    0.8053    0.5969   -0.4989 C   0  0  0  0  0  0  0  0  0  0  0  0
   -0.4468    0.0439   -1.0379 N   0  0  0  0  0  0  0  0  0  0  0  0
   -1.5737    0.8317   -0.6311 N   0  0  0  0  0  0  0  0  0  0  0  0
   -2.2377    0.5792    0.5718 C   0  0  0  0  0  0  0  0  0  0  0  0
   -1.7833   -0.5449    1.4278 C   0  0  0  0  0  0  0  0  0  0  0  0
   -1.7843   -1.8600    0.9475 C   0  0  0  0  0  0  0  0  0  0  0  0
   -1.3525   -2.8943    1.7758 C   0  0  0  0  0  0  0  0  0  0  0  0
   -0.9349   -2.6154    3.0798 C   0  0  0  0  0  0  0  0  0  0  0  0
   -0.9338   -1.3004    3.5698 C   0  0  0  0  0  0  0  0  0  0  0  0
   -0.4089   -1.0163    4.9476 C   0  0  0  0  0  0  0  0  0  0  0  0
   -1.3745   -0.2661    2.7359 C   0  0  0  0  0  0  0  0  0  0  0  0
   -3.2313    1.3044    0.9905 N   0  0  0  0  0  0  0  0  0  0  0  0
   -3.6803    2.3597    0.1860 C   0  0  0  0  0  0  0  0  0  0  0  0
   -4.7588    3.1287    0.6345 C   0  0  0  0  0  0  0  0  0  0  0  0
   -5.2454    4.1902   -0.1354 C   0  0  0  0  0  0  0  0  0  0  0  0
   -4.6548    4.4940   -1.3657 C   0  0  0  0  0  0  0  0  0  0  0  0
   -3.5806    3.7339   -1.8246 C   0  0  0  0  0  0  0  0  0  0  0  0
   -3.1027    2.6717   -1.0457 C   0  0  0  0  0  0  0  0  0  0  0  0
   -1.9691    1.8518   -1.5013 C   0  0  0  0  0  0  0  0  0  0  0  0
   -1.4297    2.0797   -2.5813 O   0  0  0  0  0  0  0  0  0  0  0  0
    2.2398   -1.4305   -0.1086 C   0  0  0  0  0  0  0  0  0  0  0  0
    4.6098   -4.9030    1.0412 H   0  0  0  0  0  0  0  0  0  0  0  0
    4.5703   -4.6686   -0.7112 H   0  0  0  0  0  0  0  0  0  0  0  0
    5.5283   -3.5612    0.3487 H   0  0  0  0  0  0  0  0  0  0  0  0
    4.9704   -2.5903   -1.7682 H   0  0  0  0  0  0  0  0  0  0  0  0
    4.5284   -0.6447   -3.1179 H   0  0  0  0  0  0  0  0  0  0  0  0
    4.2609    1.5916   -3.6440 H   0  0  0  0  0  0  0  0  0  0  0  0
    2.7980    2.3164   -4.3145 H   0  0  0  0  0  0  0  0  0  0  0  0
    3.0939    0.5989   -4.6012 H   0  0  0  0  0  0  0  0  0  0  0  0
    0.9592    1.6251   -0.8461 H   0  0  0  0  0  0  0  0  0  0  0  0
    0.7621    0.6611    0.5954 H   0  0  0  0  0  0  0  0  0  0  0  0
   -0.3854    0.1395   -2.0595 H   0  0  0  0  0  0  0  0  0  0  0  0
   -2.1096   -2.0786   -0.0664 H   0  0  0  0  0  0  0  0  0  0  0  0
   -1.3330   -3.9184    1.4034 H   0  0  0  0  0  0  0  0  0  0  0  0
   -0.5868   -3.4322    3.7096 H   0  0  0  0  0  0  0  0  0  0  0  0
    0.6827   -1.1441    4.9590 H   0  0  0  0  0  0  0  0  0  0  0  0
   -0.6355    0.0076    5.2653 H   0  0  0  0  0  0  0  0  0  0  0  0
   -0.8616   -1.6973    5.6760 H   0  0  0  0  0  0  0  0  0  0  0  0
   -1.3728    0.7624    3.0899 H   0  0  0  0  0  0  0  0  0  0  0  0
   -5.2235    2.8931    1.5941 H   0  0  0  0  0  0  0  0  0  0  0  0
   -6.0863    4.7780    0.2272 H   0  0  0  0  0  0  0  0  0  0  0  0
   -5.0316    5.3200   -1.9656 H   0  0  0  0  0  0  0  0  0  0  0  0
   -3.1172    3.9687   -2.7814 H   0  0  0  0  0  0  0  0  0  0  0  0
    1.5953   -1.6740    0.7343 H   0  0  0  0  0  0  0  0  0  0  0  0
  1  2  1  0
  2  3  1  0
  3  4  2  0
  4  5  1  0
  5  6  2  0
  6  7  1  0
  7  8  1  0
  6  9  1  0
  9 10  1  0
 10 11  1  0
 11 12  1  0
 12 13  1  0
 13 14  1  0
 14 15  2  0
 15 16  1  0
 16 17  2  0
 17 18  1  0
 18 19  1  0
 18 20  2  0
 13 21  2  0
 21 22  1  0
 22 23  2  0
 23 24  1  0
 24 25  2  0
 25 26  1  0
 26 27  2  0
 27 28  1  0
 28 29  2  0
  9 30  2  0
 30  3  1  0
 28 12  1  0
 20 14  1  0
 27 22  1  0
  1 31  1  0
  1 32  1  0
  1 33  1  0
  4 34  1  0
  5 35  1  0
  8 36  1  0
  8 37  1  0
  8 38  1  0
 10 39  1  0
 10 40  1  0
 11 41  1  0
 15 42  1  0
 16 43  1  0
 17 44  1  0
 19 45  1  0
 19 46  1  0
 19 47  1  0
 20 48  1  0
 23 49  1  0
 24 50  1  0
 25 51  1  0
 26 52  1  0
 30 53  1  0
M  END
$$$$
