
     RDKit          3D

 33 36  0  0  0  0  0  0  0  0999 V2000
    5.1166    0.1174    0.2389 C   0  0  0  0  0  0  0  0  0  0  0  0
    4.7231   -1.1867    0.5083 C   0  0  0  0  0  0  0  0  0  0  0  0
    3.3770   -1.5374    0.3920 C   0  0  0  0  0  0  0  0  0  0  0  0
    2.4156   -0.6091    0.0113 C   0  0  0  0  0  0  0  0  0  0  0  0
    1.1289   -0.9958   -0.0906 N   0  0  0  0  0  0  0  0  0  0  0  0
    0.2226   -0.0702   -0.4757 C   0  0  0  0  0  0  0  0  0  0  0  0
    0.6467    1.2550   -0.7195 C   0  0  0  0  0  0  0  0  0  0  0  0
    1.9319    1.6606   -0.6264 N   0  0  0  0  0  0  0  0  0  0  0  0
    2.8178    0.7210   -0.2622 C   0  0  0  0  0  0  0  0  0  0  0  0
    4.1604    1.0592   -0.1436 C   0  0  0  0  0  0  0  0  0  0  0  0
   -0.2324    2.2658   -1.0426 O   0  0  0  0  0  0  0  0  0  0  0  0
   -1.5482    1.9670   -0.5610 C   0  0  0  0  0  0  0  0  0  0  0  0
   -2.0233    0.6061   -1.0912 C   0  0  0  0  0  0  0  0  0  0  0  0
   -3.4639    0.2959   -0.6680 C   0  0  0  0  0  0  0  0  0  0  0  0
   -3.5854   -0.0833    0.8092 C   0  0  0  0  0  0  0  0  0  0  0  0
   -2.4635   -1.0093    1.2923 C   0  0  0  0  0  0  0  0  0  0  0  0
   -1.6245   -1.5638    0.1429 C   0  0  0  0  0  0  0  0  0  0  0  0
   -1.1086   -0.4552   -0.6503 N   0  0  0  0  0  0  0  0  0  0  0  0
    6.1612    0.4057    0.3241 H   0  0  0  0  0  0  0  0  0  0  0  0
    5.4563   -1.9318    0.8063 H   0  0  0  0  0  0  0  0  0  0  0  0
    3.0675   -2.5589    0.5998 H   0  0  0  0  0  0  0  0  0  0  0  0
    4.4653    2.0815   -0.3547 H   0  0  0  0  0  0  0  0  0  0  0  0
   -1.5484    2.0141    0.5360 H   0  0  0  0  0  0  0  0  0  0  0  0
   -2.2110    2.7618   -0.9206 H   0  0  0  0  0  0  0  0  0  0  0  0
   -1.9846    0.6368   -2.1884 H   0  0  0  0  0  0  0  0  0  0  0  0
   -4.1246    1.1419   -0.8911 H   0  0  0  0  0  0  0  0  0  0  0  0
   -3.8338   -0.5443   -1.2711 H   0  0  0  0  0  0  0  0  0  0  0  0
   -4.5567   -0.5658    0.9721 H   0  0  0  0  0  0  0  0  0  0  0  0
   -3.5916    0.8227    1.4273 H   0  0  0  0  0  0  0  0  0  0  0  0
   -1.8133   -0.4488    1.9763 H   0  0  0  0  0  0  0  0  0  0  0  0
   -2.8895   -1.8331    1.8763 H   0  0  0  0  0  0  0  0  0  0  0  0
   -2.2467   -2.2010   -0.4977 H   0  0  0  0  0  0  0  0  0  0  0  0
   -0.8411   -2.2179    0.5416 H   0  0  0  0  0  0  0  0  0  0  0  0
  1  2  2  0
  2  3  1  0
  3  4  2  0
  4  5  1  0
  5  6  2  0
  6  7  1  0
  7  8  2  0
  8  9  1  0
  9 10  2  0
  7 11  1  0
 11 12  1  0
 12 13  1  0
 13 14  1  0
 14 15  1  0
 15 16  1  0
 16 17  1  0
 17 18  1  0
 10  1  1  0
 18 13  1  0
  9  4  1  0
 18  6  1  0
  1 19  1  0
  2 20  1  0
  3 21  1  0
 10 22  1  0
 12 23  1  0
 12 24  1  0
 13 25  1  0
 14 26  1  0
 14 27  1  0
 15 28  1  0
 15 29  1  0
 16 30  1  0
 16 31  1  0
 17 32  1  0
 17 33  1  0
M  END
$$$$
