
     RDKit          3D

 43 45  0  0  0  0  0  0  0  0999 V2000
   -6.5169    1.8295   -0.0024 C   0  0  0  0  0  0  0  0  0  0  0  0
   -5.6028    2.7209    0.8263 C   0  0  0  0  0  0  0  0  0  0  0  0
   -4.9725    1.9888    2.0103 C   0  0  0  0  0  0  0  0  0  0  0  0
   -3.9524    0.9751    1.5769 C   0  0  0  0  0  0  0  0  0  0  0  0
   -4.2018   -0.2923    1.4727 N   0  0  0  0  0  0  0  0  0  0  0  0
   -3.0598   -0.9353    1.0478 N   0  0  0  0  0  0  0  0  0  0  0  0
   -3.0107   -2.3008    0.8787 C   0  0  0  0  0  0  0  0  0  0  0  0
   -3.9207   -3.1009    1.0707 O   0  0  0  0  0  0  0  0  0  0  0  0
   -1.6879   -2.7934    0.4326 C   0  0  0  0  0  0  0  0  0  0  0  0
   -0.6807   -1.9247    0.2379 C   0  0  0  0  0  0  0  0  0  0  0  0
    0.6859   -2.4142   -0.1905 C   0  0  0  0  0  0  0  0  0  0  0  0
    0.8994   -2.1454   -1.9853 S   0  0  0  0  0  0  0  0  0  0  0  0
    2.5702   -2.8474   -2.1692 C   0  0  0  0  0  0  0  0  0  0  0  0
    3.6021   -2.0778   -1.3572 C   0  0  0  0  0  0  0  0  0  0  0  0
    4.3252   -2.6640   -0.5564 O   0  0  0  0  0  0  0  0  0  0  0  0
    3.6187   -0.7244   -1.6476 N   0  0  0  0  0  0  0  0  0  0  0  0
    4.4637    0.2645   -1.1095 C   0  0  0  0  0  0  0  0  0  0  0  0
    4.2216    1.5915   -1.4989 C   0  0  0  0  0  0  0  0  0  0  0  0
    5.0175    2.6316   -1.0121 C   0  0  0  0  0  0  0  0  0  0  0  0
    6.0583    2.3449   -0.1393 C   0  0  0  0  0  0  0  0  0  0  0  0
    6.8232    3.3402    0.3272 F   0  0  0  0  0  0  0  0  0  0  0  0
    6.3156    1.0383    0.2552 C   0  0  0  0  0  0  0  0  0  0  0  0
    5.5173   -0.0032   -0.2298 C   0  0  0  0  0  0  0  0  0  0  0  0
   -0.7945   -0.5637    0.4538 N   0  0  0  0  0  0  0  0  0  0  0  0
   -1.9561   -0.1530    0.8369 C   0  0  0  0  0  0  0  0  0  0  0  0
   -2.3357    1.5053    1.1733 S   0  0  0  0  0  0  0  0  0  0  0  0
   -5.9669    0.9983   -0.4507 H   0  0  0  0  0  0  0  0  0  0  0  0
   -7.3240    1.4184    0.6121 H   0  0  0  0  0  0  0  0  0  0  0  0
   -6.9706    2.4054   -0.8138 H   0  0  0  0  0  0  0  0  0  0  0  0
   -4.8287    3.1422    0.1767 H   0  0  0  0  0  0  0  0  0  0  0  0
   -6.1927    3.5646    1.2070 H   0  0  0  0  0  0  0  0  0  0  0  0
   -5.7455    1.4819    2.5997 H   0  0  0  0  0  0  0  0  0  0  0  0
   -4.4869    2.7158    2.6733 H   0  0  0  0  0  0  0  0  0  0  0  0
   -1.5963   -3.8608    0.2775 H   0  0  0  0  0  0  0  0  0  0  0  0
    1.4583   -1.8739    0.3683 H   0  0  0  0  0  0  0  0  0  0  0  0
    0.8028   -3.4816    0.0208 H   0  0  0  0  0  0  0  0  0  0  0  0
    2.5591   -3.8945   -1.8498 H   0  0  0  0  0  0  0  0  0  0  0  0
    2.8605   -2.8181   -3.2243 H   0  0  0  0  0  0  0  0  0  0  0  0
    2.8808   -0.4010   -2.2677 H   0  0  0  0  0  0  0  0  0  0  0  0
    3.4098    1.8340   -2.1799 H   0  0  0  0  0  0  0  0  0  0  0  0
    4.8318    3.6604   -1.3088 H   0  0  0  0  0  0  0  0  0  0  0  0
    7.1332    0.8329    0.9393 H   0  0  0  0  0  0  0  0  0  0  0  0
    5.7493   -1.0140    0.0961 H   0  0  0  0  0  0  0  0  0  0  0  0
  1  2  1  0
  2  3  1  0
  3  4  1  0
  4  5  2  0
  5  6  1  0
  6  7  1  0
  7  8  2  0
  7  9  1  0
  9 10  2  0
 10 11  1  0
 11 12  1  0
 12 13  1  0
 13 14  1  0
 14 15  2  0
 14 16  1  0
 16 17  1  0
 17 18  2  0
 18 19  1  0
 19 20  2  0
 20 21  1  0
 20 22  1  0
 22 23  2  0
 10 24  1  0
 24 25  2  0
 25 26  1  0
 26  4  1  0
 25  6  1  0
 23 17  1  0
  1 27  1  0
  1 28  1  0
  1 29  1  0
  2 30  1  0
  2 31  1  0
  3 32  1  0
  3 33  1  0
  9 34  1  0
 11 35  1  0
 11 36  1  0
 13 37  1  0
 13 38  1  0
 16 39  1  0
 18 40  1  0
 19 41  1  0
 22 42  1  0
 23 43  1  0
M  END
$$$$
