
     RDKit          3D

 46 49  0  0  0  0  0  0  0  0999 V2000
   -3.5232   -1.3467   -1.7577 O   0  0  0  0  0  0  0  0  0  0  0  0
   -3.5266   -0.4997   -0.8708 C   0  0  0  0  0  0  0  0  0  0  0  0
   -2.4063    0.0745   -0.2990 N   0  0  0  0  0  0  0  0  0  0  0  0
   -1.0531   -0.1850   -0.6044 C   0  0  0  0  0  0  0  0  0  0  0  0
   -0.6255   -1.0995   -1.5689 C   0  0  0  0  0  0  0  0  0  0  0  0
    0.7416   -1.2973   -1.8080 C   0  0  0  0  0  0  0  0  0  0  0  0
    1.7026   -0.5863   -1.0913 C   0  0  0  0  0  0  0  0  0  0  0  0
    3.0565   -0.8189   -1.3534 N   0  0  0  0  0  0  0  0  0  0  0  0
    3.9375   -0.1339   -0.6983 C   0  0  0  0  0  0  0  0  0  0  0  0
    3.6209    0.8219    0.2514 N   0  0  0  0  0  0  0  0  0  0  0  0
    2.3011    1.0674    0.6147 C   0  0  0  0  0  0  0  0  0  0  0  0
    1.9582    1.8406    1.5058 O   0  0  0  0  0  0  0  0  0  0  0  0
    1.2729    0.3243   -0.1332 C   0  0  0  0  0  0  0  0  0  0  0  0
   -0.0909    0.5297    0.1166 C   0  0  0  0  0  0  0  0  0  0  0  0
    4.6736    1.5257    0.9753 C   0  0  0  0  0  0  0  0  0  0  0  0
    5.3571    0.6398    2.0163 C   0  0  0  0  0  0  0  0  0  0  0  0
    5.5785   -0.8140    1.5963 C   0  0  0  0  0  0  0  0  0  0  0  0
    6.1724   -1.0151    0.2025 C   0  0  0  0  0  0  0  0  0  0  0  0
    5.4074   -0.4016   -0.9734 C   0  0  0  0  0  0  0  0  0  0  0  0
   -4.8556   -0.0427   -0.3574 C   0  0  0  0  0  0  0  0  0  0  0  0
   -6.0162   -0.6086   -0.9163 C   0  0  0  0  0  0  0  0  0  0  0  0
   -7.2819   -0.2075   -0.4630 C   0  0  0  0  0  0  0  0  0  0  0  0
   -8.4914   -0.8016   -1.0500 N   0  0  0  0  0  4  0  0  0  0  0  0
   -9.5864   -0.4155   -0.6176 O   0  0  0  0  0  0  0  0  0  0  0  0
   -8.3443   -1.6500   -1.9391 O   0  0  0  0  0  1  0  0  0  0  0  0
   -7.4050    0.7568    0.5467 C   0  0  0  0  0  0  0  0  0  0  0  0
   -6.2544    1.3180    1.1009 C   0  0  0  0  0  0  0  0  0  0  0  0
   -4.9958    0.9183    0.6493 C   0  0  0  0  0  0  0  0  0  0  0  0
   -3.9209    1.4884    1.2146 F   0  0  0  0  0  0  0  0  0  0  0  0
   -2.5596    0.7662    0.4284 H   0  0  0  0  0  0  0  0  0  0  0  0
   -1.3273   -1.6820   -2.1578 H   0  0  0  0  0  0  0  0  0  0  0  0
    1.0567   -2.0156   -2.5611 H   0  0  0  0  0  0  0  0  0  0  0  0
   -0.3852    1.2503    0.8761 H   0  0  0  0  0  0  0  0  0  0  0  0
    4.2729    2.4177    1.4703 H   0  0  0  0  0  0  0  0  0  0  0  0
    5.4130    1.8952    0.2574 H   0  0  0  0  0  0  0  0  0  0  0  0
    6.3164    1.0960    2.2893 H   0  0  0  0  0  0  0  0  0  0  0  0
    4.7500    0.6337    2.9306 H   0  0  0  0  0  0  0  0  0  0  0  0
    6.2380   -1.2909    2.3322 H   0  0  0  0  0  0  0  0  0  0  0  0
    4.6272   -1.3579    1.6627 H   0  0  0  0  0  0  0  0  0  0  0  0
    6.2503   -2.0967    0.0311 H   0  0  0  0  0  0  0  0  0  0  0  0
    7.2027   -0.6385    0.1862 H   0  0  0  0  0  0  0  0  0  0  0  0
    5.8820    0.5358   -1.2843 H   0  0  0  0  0  0  0  0  0  0  0  0
    5.4929   -1.0681   -1.8409 H   0  0  0  0  0  0  0  0  0  0  0  0
   -5.9228   -1.3590   -1.7019 H   0  0  0  0  0  0  0  0  0  0  0  0
   -8.3806    1.0778    0.9085 H   0  0  0  0  0  0  0  0  0  0  0  0
   -6.3292    2.0674    1.8850 H   0  0  0  0  0  0  0  0  0  0  0  0
  1  2  2  0
  2  3  1  0
  3  4  1  0
  4  5  2  0
  5  6  1  0
  6  7  2  0
  7  8  1  0
  8  9  2  0
  9 10  1  0
 10 11  1  0
 11 12  2  0
 11 13  1  0
 13 14  2  0
 10 15  1  0
 15 16  1  0
 16 17  1  0
 17 18  1  0
 18 19  1  0
  2 20  1  0
 20 21  2  0
 21 22  1  0
 22 23  1  0
 23 24  2  0
 23 25  1  0
 22 26  2  0
 26 27  1  0
 27 28  2  0
 28 29  1  0
 14  4  1  0
 28 20  1  0
 13  7  1  0
 19  9  1  0
  3 30  1  0
  5 31  1  0
  6 32  1  0
 14 33  1  0
 15 34  1  0
 15 35  1  0
 16 36  1  0
 16 37  1  0
 17 38  1  0
 17 39  1  0
 18 40  1  0
 18 41  1  0
 19 42  1  0
 19 43  1  0
 21 44  1  0
 26 45  1  0
 27 46  1  0
M  CHG  2  23   1  25  -1
M  END
$$$$
