
     RDKit          3D

 50 52  0  0  0  0  0  0  0  0999 V2000
    1.6653   -0.3884   -0.9550 O   0  0  0  0  0  0  0  0  0  0  0  0
    2.1736    0.3602    0.1589 C   0  0  0  0  0  0  0  0  0  0  0  0
    3.5939    0.8262   -0.1941 C   0  0  0  0  0  0  0  0  0  0  0  0
    4.3848   -0.3457   -0.4352 O   0  0  0  0  0  0  0  0  0  0  0  0
    5.7084   -0.0434   -0.8817 C   0  0  0  0  0  0  0  0  0  0  0  0
    5.6848    0.1225   -2.3688 C   0  0  0  0  0  0  0  0  0  0  0  0
    5.8534    1.2798   -3.1051 C   0  0  0  0  0  0  0  0  0  0  0  0
    5.7685    1.0479   -4.5085 C   0  0  0  0  0  0  0  0  0  0  0  0
    5.5442   -0.2787   -4.7987 C   0  0  0  0  0  0  0  0  0  0  0  0
    5.4408   -1.2365   -3.3868 S   0  0  0  0  0  0  0  0  0  0  0  0
    1.2713    1.5770    0.4751 C   0  0  0  0  0  0  0  0  0  0  0  0
   -0.1075    1.3405    0.9351 N   0  0  0  0  0  0  0  0  0  0  0  0
   -0.1852    0.6464    2.2349 C   0  0  0  0  0  0  0  0  0  0  0  0
   -1.6108    0.1447    2.5698 C   0  0  0  0  0  0  0  0  0  0  0  0
   -2.1083   -0.8126    1.5481 N   0  0  0  0  0  0  0  0  0  0  0  0
   -3.4940   -0.9991    1.5919 C   0  0  0  0  0  0  0  0  0  0  0  0
   -4.0832   -1.5107    2.7600 C   0  0  0  0  0  0  0  0  0  0  0  0
   -5.4616   -1.7144    2.8635 C   0  0  0  0  0  0  0  0  0  0  0  0
   -6.2901   -1.4086    1.7895 C   0  0  0  0  0  0  0  0  0  0  0  0
   -5.7422   -0.9041    0.6044 C   0  0  0  0  0  0  0  0  0  0  0  0
   -6.6303   -0.5404   -0.5574 C   0  0  0  0  0  0  0  0  0  0  0  0
   -7.0444    0.7562   -0.5078 F   0  0  0  0  0  0  0  0  0  0  0  0
   -7.7664   -1.2913   -0.6200 F   0  0  0  0  0  0  0  0  0  0  0  0
   -6.0221   -0.6913   -1.7677 F   0  0  0  0  0  0  0  0  0  0  0  0
   -4.3505   -0.6995    0.5238 C   0  0  0  0  0  0  0  0  0  0  0  0
   -1.4012   -0.7414    0.2483 C   0  0  0  0  0  0  0  0  0  0  0  0
   -0.9765    0.7067   -0.0808 C   0  0  0  0  0  0  0  0  0  0  0  0
    2.3980   -0.9811   -1.2197 H   0  0  0  0  0  0  0  0  0  0  0  0
    2.2279   -0.3291    1.0071 H   0  0  0  0  0  0  0  0  0  0  0  0
    3.5704    1.4439   -1.0985 H   0  0  0  0  0  0  0  0  0  0  0  0
    4.0325    1.3958    0.6324 H   0  0  0  0  0  0  0  0  0  0  0  0
    6.1004    0.8457   -0.3741 H   0  0  0  0  0  0  0  0  0  0  0  0
    6.3526   -0.8864   -0.6085 H   0  0  0  0  0  0  0  0  0  0  0  0
    6.0257    2.2522   -2.6597 H   0  0  0  0  0  0  0  0  0  0  0  0
    5.8664    1.8147   -5.2672 H   0  0  0  0  0  0  0  0  0  0  0  0
    5.4366   -0.7352   -5.7731 H   0  0  0  0  0  0  0  0  0  0  0  0
    1.2129    2.2110   -0.4198 H   0  0  0  0  0  0  0  0  0  0  0  0
    1.7695    2.1915    1.2363 H   0  0  0  0  0  0  0  0  0  0  0  0
    0.1410    1.3341    3.0237 H   0  0  0  0  0  0  0  0  0  0  0  0
    0.4851   -0.2200    2.2649 H   0  0  0  0  0  0  0  0  0  0  0  0
   -2.2807    1.0127    2.6405 H   0  0  0  0  0  0  0  0  0  0  0  0
   -1.5845   -0.3431    3.5512 H   0  0  0  0  0  0  0  0  0  0  0  0
   -3.4542   -1.7819    3.6047 H   0  0  0  0  0  0  0  0  0  0  0  0
   -5.8812   -2.1166    3.7819 H   0  0  0  0  0  0  0  0  0  0  0  0
   -7.3634   -1.5674    1.8775 H   0  0  0  0  0  0  0  0  0  0  0  0
   -3.9526   -0.2720   -0.3933 H   0  0  0  0  0  0  0  0  0  0  0  0
   -0.5089   -1.3753    0.3226 H   0  0  0  0  0  0  0  0  0  0  0  0
   -1.9858   -1.1687   -0.5735 H   0  0  0  0  0  0  0  0  0  0  0  0
   -1.8843    1.3213   -0.1401 H   0  0  0  0  0  0  0  0  0  0  0  0
   -0.5383    0.7518   -1.0838 H   0  0  0  0  0  0  0  0  0  0  0  0
  1  2  1  0
  2  3  1  0
  3  4  1  0
  4  5  1  0
  5  6  1  0
  6  7  2  0
  7  8  1  0
  8  9  2  0
  9 10  1  0
  2 11  1  0
 11 12  1  0
 12 13  1  0
 13 14  1  0
 14 15  1  0
 15 16  1  0
 16 17  2  0
 17 18  1  0
 18 19  2  0
 19 20  1  0
 20 21  1  0
 21 22  1  0
 21 23  1  0
 21 24  1  0
 20 25  2  0
 15 26  1  0
 26 27  1  0
 10  6  1  0
 27 12  1  0
 25 16  1  0
  1 28  1  0
  2 29  1  0
  3 30  1  0
  3 31  1  0
  5 32  1  0
  5 33  1  0
  7 34  1  0
  8 35  1  0
  9 36  1  0
 11 37  1  0
 11 38  1  0
 13 39  1  0
 13 40  1  0
 14 41  1  0
 14 42  1  0
 17 43  1  0
 18 44  1  0
 19 45  1  0
 25 46  1  0
 26 47  1  0
 26 48  1  0
 27 49  1  0
 27 50  1  0
M  END
$$$$
