
     RDKit          3D

 58 62  0  0  0  0  0  0  0  0999 V2000
   -6.4908    0.2884    1.6300 C   0  0  0  0  0  0  0  0  0  0  0  0
   -5.7420    1.3472    1.0339 O   0  0  0  0  0  0  0  0  0  0  0  0
   -5.5151    1.1310   -0.3004 C   0  0  0  0  0  0  0  0  0  0  0  0
   -6.5864    0.9985   -1.1909 C   0  0  0  0  0  0  0  0  0  0  0  0
   -6.3478    0.8348   -2.5542 C   0  0  0  0  0  0  0  0  0  0  0  0
   -5.0409    0.8236   -3.0312 C   0  0  0  0  0  0  0  0  0  0  0  0
   -3.9719    0.9782   -2.1459 C   0  0  0  0  0  0  0  0  0  0  0  0
   -4.1916    1.1309   -0.7654 C   0  0  0  0  0  0  0  0  0  0  0  0
   -3.0164    1.2991    0.1763 C   0  0  0  0  0  0  0  0  0  0  0  0
   -2.1674    0.1092    0.2529 N   0  0  0  0  0  0  0  0  0  0  0  0
   -2.5010   -0.9125    1.1342 C   0  0  0  0  0  0  0  0  0  0  0  0
   -3.4735   -0.8742    1.8850 O   0  0  0  0  0  0  0  0  0  0  0  0
   -1.6185   -2.1151    1.1778 C   0  0  0  0  0  0  0  0  0  0  0  0
   -1.9414   -3.1465    2.0735 C   0  0  0  0  0  0  0  0  0  0  0  0
   -1.1346   -4.2778    2.1639 C   0  0  0  0  0  0  0  0  0  0  0  0
    0.0008   -4.3786    1.3667 C   0  0  0  0  0  0  0  0  0  0  0  0
    0.3310   -3.3577    0.4690 C   0  0  0  0  0  0  0  0  0  0  0  0
   -0.4833   -2.2263    0.3595 C   0  0  0  0  0  0  0  0  0  0  0  0
   -0.2326   -1.1532   -0.5230 N   0  0  0  0  0  0  0  0  0  0  0  0
    0.7082   -0.8927   -1.5006 C   0  0  0  0  0  0  0  0  0  0  0  0
    1.9617   -1.9410   -2.0727 S   0  0  0  0  0  0  0  0  0  0  0  0
    3.3831   -0.8138   -1.9121 C   0  0  0  0  0  0  0  0  0  0  0  0
    3.6812   -0.4563   -0.4553 C   0  0  0  0  0  0  0  0  0  0  0  0
    3.1135   -1.0183    0.4857 O   0  0  0  0  0  0  0  0  0  0  0  0
    4.6318    0.5493   -0.2376 N   0  0  0  0  0  0  0  0  0  0  0  0
    5.6127    0.9523   -1.2482 C   0  0  0  0  0  0  0  0  0  0  0  0
    6.0661    2.3976   -1.0684 C   0  0  0  0  0  0  0  0  0  0  0  0
    6.5386    2.6591    0.3570 C   0  0  0  0  0  0  0  0  0  0  0  0
    5.4492    2.2745    1.3510 C   0  0  0  0  0  0  0  0  0  0  0  0
    4.9982    0.8312    1.1513 C   0  0  0  0  0  0  0  0  0  0  0  0
    0.5188    0.3065   -2.0079 N   0  0  0  0  0  0  0  0  0  0  0  0
   -0.5769    0.8500   -1.4017 N   0  0  0  0  0  0  0  0  0  0  0  0
   -1.0400   -0.0281   -0.5388 C   0  0  0  0  0  0  0  0  0  0  0  0
   -6.3079    0.3161    2.7080 H   0  0  0  0  0  0  0  0  0  0  0  0
   -7.5623    0.4410    1.4667 H   0  0  0  0  0  0  0  0  0  0  0  0
   -6.1849   -0.6965    1.2598 H   0  0  0  0  0  0  0  0  0  0  0  0
   -7.6100    1.0426   -0.8326 H   0  0  0  0  0  0  0  0  0  0  0  0
   -7.1807    0.7311   -3.2442 H   0  0  0  0  0  0  0  0  0  0  0  0
   -4.8498    0.7062   -4.0947 H   0  0  0  0  0  0  0  0  0  0  0  0
   -2.9604    0.9867   -2.5462 H   0  0  0  0  0  0  0  0  0  0  0  0
   -3.3520    1.5429    1.1908 H   0  0  0  0  0  0  0  0  0  0  0  0
   -2.4171    2.1596   -0.1481 H   0  0  0  0  0  0  0  0  0  0  0  0
   -2.8217   -3.0686    2.7091 H   0  0  0  0  0  0  0  0  0  0  0  0
   -1.3853   -5.0721    2.8623 H   0  0  0  0  0  0  0  0  0  0  0  0
    0.6431   -5.2534    1.4479 H   0  0  0  0  0  0  0  0  0  0  0  0
    1.2442   -3.4899   -0.0968 H   0  0  0  0  0  0  0  0  0  0  0  0
    4.2570   -1.3222   -2.3305 H   0  0  0  0  0  0  0  0  0  0  0  0
    3.1807    0.0934   -2.4888 H   0  0  0  0  0  0  0  0  0  0  0  0
    5.2144    0.8316   -2.2579 H   0  0  0  0  0  0  0  0  0  0  0  0
    6.4662    0.2697   -1.1563 H   0  0  0  0  0  0  0  0  0  0  0  0
    5.2310    3.0706   -1.2998 H   0  0  0  0  0  0  0  0  0  0  0  0
    6.8704    2.6256   -1.7765 H   0  0  0  0  0  0  0  0  0  0  0  0
    7.4471    2.0792    0.5593 H   0  0  0  0  0  0  0  0  0  0  0  0
    6.7956    3.7172    0.4766 H   0  0  0  0  0  0  0  0  0  0  0  0
    4.5899    2.9440    1.2197 H   0  0  0  0  0  0  0  0  0  0  0  0
    5.8122    2.4120    2.3758 H   0  0  0  0  0  0  0  0  0  0  0  0
    4.1542    0.6266    1.8189 H   0  0  0  0  0  0  0  0  0  0  0  0
    5.8034    0.1370    1.4219 H   0  0  0  0  0  0  0  0  0  0  0  0
  1  2  1  0
  2  3  1  0
  3  4  2  0
  4  5  1  0
  5  6  2  0
  6  7  1  0
  7  8  2  0
  8  9  1  0
  9 10  1  0
 10 11  1  0
 11 12  2  0
 11 13  1  0
 13 14  2  0
 14 15  1  0
 15 16  2  0
 16 17  1  0
 17 18  2  0
 18 19  1  0
 19 20  1  0
 20 21  1  0
 21 22  1  0
 22 23  1  0
 23 24  2  0
 23 25  1  0
 25 26  1  0
 26 27  1  0
 27 28  1  0
 28 29  1  0
 29 30  1  0
 20 31  2  0
 31 32  1  0
 32 33  2  0
  8  3  1  0
 33 10  1  0
 18 13  1  0
 33 19  1  0
 30 25  1  0
  1 34  1  0
  1 35  1  0
  1 36  1  0
  4 37  1  0
  5 38  1  0
  6 39  1  0
  7 40  1  0
  9 41  1  0
  9 42  1  0
 14 43  1  0
 15 44  1  0
 16 45  1  0
 17 46  1  0
 22 47  1  0
 22 48  1  0
 26 49  1  0
 26 50  1  0
 27 51  1  0
 27 52  1  0
 28 53  1  0
 28 54  1  0
 29 55  1  0
 29 56  1  0
 30 57  1  0
 30 58  1  0
M  END
$$$$
