
     RDKit          3D

 46 48  0  0  0  0  0  0  0  0999 V2000
    5.5809   -2.0458   -1.6520 C   0  0  0  0  0  0  0  0  0  0  0  0
    5.1632   -0.6577   -1.1858 C   0  0  0  0  0  0  0  0  0  0  0  0
    3.7477   -0.6809   -0.5816 C   0  0  0  0  0  0  0  0  0  0  0  0
    3.3506    0.6360   -0.0721 N   0  0  0  0  0  0  0  0  0  0  0  0
    2.0396    1.0483    0.1874 C   0  0  0  0  0  0  0  0  0  0  0  0
    1.7967    2.2356    0.4186 O   0  0  0  0  0  0  0  0  0  0  0  0
    0.9318    0.0753    0.1868 C   0  0  0  0  0  0  0  0  0  0  0  0
   -0.4524    0.4054    0.2126 C   0  0  0  0  0  0  0  0  0  0  0  0
   -1.1098   -0.7994    0.2266 C   0  0  0  0  0  0  0  0  0  0  0  0
   -2.5282   -1.2253    0.2589 C   0  0  0  0  0  0  0  0  0  0  0  0
   -3.3250   -0.0719   -0.0072 O   0  0  0  0  0  0  0  0  0  0  0  0
   -4.6822   -0.2370    0.0040 C   0  0  0  0  0  0  0  0  0  0  0  0
   -5.3644   -1.4353    0.2150 C   0  0  0  0  0  0  0  0  0  0  0  0
   -6.7618   -1.4575    0.2052 C   0  0  0  0  0  0  0  0  0  0  0  0
   -7.4833   -0.2844   -0.0183 C   0  0  0  0  0  0  0  0  0  0  0  0
   -6.8139    0.9256   -0.2429 C   0  0  0  0  0  0  0  0  0  0  0  0
   -7.5813    2.2051   -0.4625 C   0  0  0  0  0  0  0  0  0  0  0  0
   -8.8179    2.0024   -0.9981 F   0  0  0  0  0  0  0  0  0  0  0  0
   -6.9508    3.0693   -1.3061 F   0  0  0  0  0  0  0  0  0  0  0  0
   -7.7843    2.8922    0.6956 F   0  0  0  0  0  0  0  0  0  0  0  0
   -5.4100    0.9351   -0.2217 C   0  0  0  0  0  0  0  0  0  0  0  0
   -0.1890   -1.7981    0.2240 O   0  0  0  0  0  0  0  0  0  0  0  0
    1.0812   -1.2603    0.2121 N   0  0  0  0  0  0  0  0  0  0  0  0
    4.4331    1.6113    0.0498 C   0  0  0  0  0  0  0  0  0  0  0  0
    5.7544    0.9624    0.5070 C   0  0  0  0  0  0  0  0  0  0  0  0
    5.7136    0.5769    1.9841 C   0  0  0  0  0  0  0  0  0  0  0  0
    6.1394   -0.2072   -0.2366 O   0  0  0  0  0  0  0  0  0  0  0  0
    6.5888   -2.0184   -2.0804 H   0  0  0  0  0  0  0  0  0  0  0  0
    4.8913   -2.4367   -2.4064 H   0  0  0  0  0  0  0  0  0  0  0  0
    5.6161   -2.7469   -0.8107 H   0  0  0  0  0  0  0  0  0  0  0  0
    5.1943    0.0225   -2.0465 H   0  0  0  0  0  0  0  0  0  0  0  0
    3.0316   -1.0066   -1.3426 H   0  0  0  0  0  0  0  0  0  0  0  0
    3.7176   -1.3704    0.2699 H   0  0  0  0  0  0  0  0  0  0  0  0
   -0.8928    1.3923    0.2198 H   0  0  0  0  0  0  0  0  0  0  0  0
   -2.7574   -1.6285    1.2519 H   0  0  0  0  0  0  0  0  0  0  0  0
   -2.6962   -1.9869   -0.5109 H   0  0  0  0  0  0  0  0  0  0  0  0
   -4.8453   -2.3719    0.3920 H   0  0  0  0  0  0  0  0  0  0  0  0
   -7.2897   -2.3937    0.3758 H   0  0  0  0  0  0  0  0  0  0  0  0
   -8.5720   -0.3180   -0.0179 H   0  0  0  0  0  0  0  0  0  0  0  0
   -4.8727    1.8691   -0.3840 H   0  0  0  0  0  0  0  0  0  0  0  0
    4.5631    2.0485   -0.9481 H   0  0  0  0  0  0  0  0  0  0  0  0
    4.1531    2.4263    0.7263 H   0  0  0  0  0  0  0  0  0  0  0  0
    6.5598    1.6945    0.3759 H   0  0  0  0  0  0  0  0  0  0  0  0
    6.6793    0.1638    2.2954 H   0  0  0  0  0  0  0  0  0  0  0  0
    5.4865    1.4422    2.6148 H   0  0  0  0  0  0  0  0  0  0  0  0
    4.9666   -0.2010    2.1742 H   0  0  0  0  0  0  0  0  0  0  0  0
  1  2  1  0
  2  3  1  0
  3  4  1  0
  4  5  1  0
  5  6  2  0
  5  7  1  0
  7  8  1  0
  8  9  2  0
  9 10  1  0
 10 11  1  0
 11 12  1  0
 12 13  2  0
 13 14  1  0
 14 15  2  0
 15 16  1  0
 16 17  1  0
 17 18  1  0
 17 19  1  0
 17 20  1  0
 16 21  2  0
  9 22  1  0
 22 23  1  0
  4 24  1  0
 24 25  1  0
 25 26  1  0
 25 27  1  0
 27  2  1  0
 23  7  2  0
 21 12  1  0
  1 28  1  0
  1 29  1  0
  1 30  1  0
  2 31  1  0
  3 32  1  0
  3 33  1  0
  8 34  1  0
 10 35  1  0
 10 36  1  0
 13 37  1  0
 14 38  1  0
 15 39  1  0
 21 40  1  0
 24 41  1  0
 24 42  1  0
 25 43  1  0
 26 44  1  0
 26 45  1  0
 26 46  1  0
M  END
$$$$
