
     RDKit          3D

 51 53  0  0  0  0  0  0  0  0999 V2000
   -4.3910   -4.2860    0.4289 C   0  0  0  0  0  0  0  0  0  0  0  0
   -3.2738   -3.8907   -0.3531 O   0  0  0  0  0  0  0  0  0  0  0  0
   -2.7978   -2.6134   -0.1885 C   0  0  0  0  0  0  0  0  0  0  0  0
   -3.3217   -1.6841    0.7156 C   0  0  0  0  0  0  0  0  0  0  0  0
   -2.7741   -0.3954    0.8212 C   0  0  0  0  0  0  0  0  0  0  0  0
   -1.6616   -0.0347    0.0405 C   0  0  0  0  0  0  0  0  0  0  0  0
   -1.1632   -0.9652   -0.8921 C   0  0  0  0  0  0  0  0  0  0  0  0
   -1.7089   -2.2498   -1.0016 C   0  0  0  0  0  0  0  0  0  0  0  0
   -1.2579   -3.2104   -1.8733 O   0  0  0  0  0  0  0  0  0  0  0  0
   -0.0752   -2.9305   -2.6086 C   0  0  0  0  0  0  0  0  0  0  0  0
   -1.0539    1.3693    0.1373 C   0  0  0  0  0  0  0  0  0  0  0  0
    0.4760    1.3937    0.1268 C   0  0  0  0  0  0  0  0  0  0  0  0
    1.2282    0.5254    0.9437 C   0  0  0  0  0  0  0  0  0  0  0  0
    2.6244    0.5547    0.9289 C   0  0  0  0  0  0  0  0  0  0  0  0
    3.4339   -0.2646    1.6725 O   0  0  0  0  0  0  0  0  0  0  0  0
    2.8052   -1.1854    2.5529 C   0  0  0  0  0  0  0  0  0  0  0  0
    3.2726    1.4772    0.0909 C   0  0  0  0  0  0  0  0  0  0  0  0
    4.6495    1.5464    0.1019 O   0  0  0  0  0  0  0  0  0  0  0  0
    5.1829    0.6827   -0.8997 C   0  0  0  0  0  0  0  0  0  0  0  0
    2.5459    2.3870   -0.6949 C   0  0  0  0  0  0  0  0  0  0  0  0
    3.2802    3.2602   -1.4558 O   0  0  0  0  0  0  0  0  0  0  0  0
    2.5950    4.3876   -1.9845 C   0  0  0  0  0  0  0  0  0  0  0  0
    1.1504    2.3306   -0.6775 C   0  0  0  0  0  0  0  0  0  0  0  0
   -1.5117    2.1401    1.3090 N   0  0  0  0  0  0  0  0  0  0  0  0
   -2.9602    2.0250    1.4741 C   0  0  0  0  0  0  0  0  0  0  0  0
   -3.3664    0.5869    1.8006 C   0  0  0  0  0  0  0  0  0  0  0  0
   -4.1510   -4.2693    1.4971 H   0  0  0  0  0  0  0  0  0  0  0  0
   -4.6386   -5.3177    0.1610 H   0  0  0  0  0  0  0  0  0  0  0  0
   -5.2669   -3.6668    0.2092 H   0  0  0  0  0  0  0  0  0  0  0  0
   -4.1654   -1.9354    1.3505 H   0  0  0  0  0  0  0  0  0  0  0  0
   -0.3367   -0.6631   -1.5286 H   0  0  0  0  0  0  0  0  0  0  0  0
    0.7674   -2.7182   -1.9419 H   0  0  0  0  0  0  0  0  0  0  0  0
    0.1774   -3.8237   -3.1881 H   0  0  0  0  0  0  0  0  0  0  0  0
   -0.2375   -2.1112   -3.3163 H   0  0  0  0  0  0  0  0  0  0  0  0
   -1.4071    1.8979   -0.7597 H   0  0  0  0  0  0  0  0  0  0  0  0
    0.6937   -0.1742    1.5792 H   0  0  0  0  0  0  0  0  0  0  0  0
    3.5915   -1.7401    3.0738 H   0  0  0  0  0  0  0  0  0  0  0  0
    2.2085   -0.6653    3.3095 H   0  0  0  0  0  0  0  0  0  0  0  0
    2.1992   -1.9099    1.9988 H   0  0  0  0  0  0  0  0  0  0  0  0
    4.8576    0.9830   -1.9018 H   0  0  0  0  0  0  0  0  0  0  0  0
    6.2736    0.7610   -0.8624 H   0  0  0  0  0  0  0  0  0  0  0  0
    4.9134   -0.3624   -0.7119 H   0  0  0  0  0  0  0  0  0  0  0  0
    1.9129    4.0880   -2.7865 H   0  0  0  0  0  0  0  0  0  0  0  0
    3.3421    5.0592   -2.4185 H   0  0  0  0  0  0  0  0  0  0  0  0
    2.0660    4.9401   -1.2006 H   0  0  0  0  0  0  0  0  0  0  0  0
    0.5581    3.0103   -1.2826 H   0  0  0  0  0  0  0  0  0  0  0  0
   -1.0507    1.7616    2.1353 H   0  0  0  0  0  0  0  0  0  0  0  0
   -3.2808    2.6844    2.2883 H   0  0  0  0  0  0  0  0  0  0  0  0
   -3.4699    2.3775    0.5683 H   0  0  0  0  0  0  0  0  0  0  0  0
   -3.0231    0.3209    2.8082 H   0  0  0  0  0  0  0  0  0  0  0  0
   -4.4604    0.5169    1.7870 H   0  0  0  0  0  0  0  0  0  0  0  0
  1  2  1  0
  2  3  1  0
  3  4  2  0
  4  5  1  0
  5  6  2  0
  6  7  1  0
  7  8  2  0
  8  9  1  0
  9 10  1  0
  6 11  1  0
 11 12  1  0
 12 13  2  0
 13 14  1  0
 14 15  1  0
 15 16  1  0
 14 17  2  0
 17 18  1  0
 18 19  1  0
 17 20  1  0
 20 21  1  0
 21 22  1  0
 20 23  2  0
 11 24  1  0
 24 25  1  0
 25 26  1  0
  8  3  1  0
 23 12  1  0
 26  5  1  0
  1 27  1  0
  1 28  1  0
  1 29  1  0
  4 30  1  0
  7 31  1  0
 10 32  1  0
 10 33  1  0
 10 34  1  0
 11 35  1  0
 13 36  1  0
 16 37  1  0
 16 38  1  0
 16 39  1  0
 19 40  1  0
 19 41  1  0
 19 42  1  0
 22 43  1  0
 22 44  1  0
 22 45  1  0
 23 46  1  0
 24 47  1  0
 25 48  1  0
 25 49  1  0
 26 50  1  0
 26 51  1  0
M  END
$$$$
