
     RDKit          3D

 40 43  0  0  0  0  0  0  0  0999 V2000
   -1.9359    3.9379   -2.6034 C   0  0  0  0  0  0  0  0  0  0  0  0
   -1.1342    3.0427   -2.0104 C   0  0  0  0  0  0  0  0  0  0  0  0
   -1.0766    2.8104   -0.5242 C   0  0  0  0  0  0  0  0  0  0  0  0
   -1.7373    1.5444   -0.2075 N   0  0  0  0  0  0  0  0  0  0  0  0
   -1.0980    0.3139   -0.2120 C   0  0  0  0  0  0  0  0  0  0  0  0
    0.6059    0.2540   -0.6266 S   0  0  0  0  0  0  0  0  0  0  0  0
    1.1111   -1.1913    0.3528 C   0  0  0  0  0  0  0  0  0  0  0  0
    2.6200   -1.3111    0.3397 C   0  0  0  0  0  0  0  0  0  0  0  0
    3.2293   -2.2019   -0.4615 C   0  0  0  0  0  0  0  0  0  0  0  0
    4.7040   -2.3030   -0.4526 C   0  0  0  0  0  0  0  0  0  0  0  0
    5.2671   -3.1136   -1.1824 O   0  0  0  0  0  0  0  0  0  0  0  0
    5.3244   -1.4419    0.4163 N   0  0  0  0  0  0  0  0  0  0  0  0
    6.6872   -1.3519    0.5994 C   0  0  0  0  0  0  0  0  0  0  0  0
    7.0524   -0.4433    1.5111 C   0  0  0  0  0  0  0  0  0  0  0  0
    5.6689    0.3614    2.2022 S   0  0  0  0  0  0  0  0  0  0  0  0
    4.5831   -0.5870    1.1984 C   0  0  0  0  0  0  0  0  0  0  0  0
    3.2986   -0.4838    1.2131 N   0  0  0  0  0  0  0  0  0  0  0  0
   -1.6776   -0.8108    0.0562 N   0  0  0  0  0  0  0  0  0  0  0  0
   -3.0371   -0.8047    0.3748 C   0  0  0  0  0  0  0  0  0  0  0  0
   -3.6701   -2.0178    0.6575 C   0  0  0  0  0  0  0  0  0  0  0  0
   -5.0291   -2.0534    0.9818 C   0  0  0  0  0  0  0  0  0  0  0  0
   -5.7674   -0.8715    1.0259 C   0  0  0  0  0  0  0  0  0  0  0  0
   -5.1455    0.3444    0.7454 C   0  0  0  0  0  0  0  0  0  0  0  0
   -3.7832    0.3674    0.4211 C   0  0  0  0  0  0  0  0  0  0  0  0
   -3.0909    1.6313    0.1205 C   0  0  0  0  0  0  0  0  0  0  0  0
   -3.7280    2.6811    0.1838 O   0  0  0  0  0  0  0  0  0  0  0  0
   -1.9278    4.0672   -3.6812 H   0  0  0  0  0  0  0  0  0  0  0  0
   -2.6289    4.5473   -2.0293 H   0  0  0  0  0  0  0  0  0  0  0  0
   -0.4608    2.4537   -2.6286 H   0  0  0  0  0  0  0  0  0  0  0  0
   -0.0362    2.8130   -0.1867 H   0  0  0  0  0  0  0  0  0  0  0  0
   -1.5642    3.6332    0.0125 H   0  0  0  0  0  0  0  0  0  0  0  0
    0.6489   -2.0920   -0.0666 H   0  0  0  0  0  0  0  0  0  0  0  0
    0.7619   -1.0881    1.3866 H   0  0  0  0  0  0  0  0  0  0  0  0
    2.6990   -2.8571   -1.1405 H   0  0  0  0  0  0  0  0  0  0  0  0
    7.3501   -1.9881    0.0261 H   0  0  0  0  0  0  0  0  0  0  0  0
    8.0687   -0.2165    1.8032 H   0  0  0  0  0  0  0  0  0  0  0  0
   -3.0985   -2.9418    0.6234 H   0  0  0  0  0  0  0  0  0  0  0  0
   -5.5098   -3.0043    1.1992 H   0  0  0  0  0  0  0  0  0  0  0  0
   -6.8249   -0.8969    1.2778 H   0  0  0  0  0  0  0  0  0  0  0  0
   -5.7185    1.2684    0.7784 H   0  0  0  0  0  0  0  0  0  0  0  0
  1  2  2  0
  2  3  1  0
  3  4  1  0
  4  5  1  0
  5  6  1  0
  6  7  1  0
  7  8  1  0
  8  9  2  0
  9 10  1  0
 10 11  2  0
 10 12  1  0
 12 13  1  0
 13 14  2  0
 14 15  1  0
 15 16  1  0
 16 17  2  0
  5 18  2  0
 18 19  1  0
 19 20  2  0
 20 21  1  0
 21 22  2  0
 22 23  1  0
 23 24  2  0
 24 25  1  0
 25 26  2  0
 25  4  1  0
 17  8  1  0
 24 19  1  0
 16 12  1  0
  1 27  1  0
  1 28  1  0
  2 29  1  0
  3 30  1  0
  3 31  1  0
  7 32  1  0
  7 33  1  0
  9 34  1  0
 13 35  1  0
 14 36  1  0
 20 37  1  0
 21 38  1  0
 22 39  1  0
 23 40  1  0
M  END
$$$$
