
     RDKit          3D

 41 44  0  0  0  0  0  0  0  0999 V2000
    4.4178   -3.1390    3.3061 N   0  0  0  0  0  0  0  0  0  0  0  0
    3.8439   -2.4776    2.5439 C   0  0  0  0  0  0  0  0  0  0  0  0
    3.1055   -1.6727    1.6258 C   0  0  0  0  0  0  0  0  0  0  0  0
    2.0050   -1.0295    2.0608 C   0  0  0  0  0  0  0  0  0  0  0  0
    1.1476   -0.1964    1.2876 C   0  0  0  0  0  0  0  0  0  0  0  0
    1.3986    0.6996    0.2560 C   0  0  0  0  0  0  0  0  0  0  0  0
    0.1644    1.2699   -0.1404 C   0  0  0  0  0  0  0  0  0  0  0  0
   -0.7996    0.7197    0.6738 C   0  0  0  0  0  0  0  0  0  0  0  0
   -2.2481    0.8726    0.7977 C   0  0  0  0  0  0  0  0  0  0  0  0
   -2.9476    1.7504   -0.0471 C   0  0  0  0  0  0  0  0  0  0  0  0
   -4.3341    1.9034    0.0612 C   0  0  0  0  0  0  0  0  0  0  0  0
   -5.0340    1.1801    1.0283 C   0  0  0  0  0  0  0  0  0  0  0  0
   -6.7906    1.3464    1.1453 S   0  0  0  0  0  6  0  0  0  0  0  0
   -6.9464    2.6361    2.2086 N   0  0  0  0  0  0  0  0  0  0  0  0
   -7.3346    0.1983    1.8320 O   0  0  0  0  0  0  0  0  0  0  0  0
   -7.3081    1.8094   -0.1212 O   0  0  0  0  0  0  0  0  0  0  0  0
   -4.3639    0.2926    1.8706 C   0  0  0  0  0  0  0  0  0  0  0  0
   -2.9777    0.1465    1.7547 C   0  0  0  0  0  0  0  0  0  0  0  0
   -0.2055   -0.1494    1.5406 O   0  0  0  0  0  0  0  0  0  0  0  0
    3.5622   -1.6124    0.2788 C   0  0  0  0  0  0  0  0  0  0  0  0
    4.4349   -0.7524   -0.2081 N   0  0  0  0  0  0  0  0  0  0  0  0
    4.6560   -0.9891   -1.5552 C   0  0  0  0  0  0  0  0  0  0  0  0
    5.5246   -0.2572   -2.3899 C   0  0  0  0  0  0  0  0  0  0  0  0
    5.6477   -0.6037   -3.7393 C   0  0  0  0  0  0  0  0  0  0  0  0
    4.9185   -1.6666   -4.2629 C   0  0  0  0  0  0  0  0  0  0  0  0
    4.0514   -2.4085   -3.4547 C   0  0  0  0  0  0  0  0  0  0  0  0
    3.9359   -2.0512   -2.1009 C   0  0  0  0  0  0  0  0  0  0  0  0
    2.9693   -2.7633   -0.8703 S   0  0  0  0  0  0  0  0  0  0  0  0
    1.6859   -1.1735    3.0922 H   0  0  0  0  0  0  0  0  0  0  0  0
    2.3676    0.9338   -0.1640 H   0  0  0  0  0  0  0  0  0  0  0  0
    0.0098    2.0010   -0.9208 H   0  0  0  0  0  0  0  0  0  0  0  0
   -2.4227    2.3258   -0.8062 H   0  0  0  0  0  0  0  0  0  0  0  0
   -4.8551    2.5830   -0.6098 H   0  0  0  0  0  0  0  0  0  0  0  0
   -7.4096    3.4163    1.7422 H   0  0  0  0  0  0  0  0  0  0  0  0
   -7.4168    2.3273    3.0599 H   0  0  0  0  0  0  0  0  0  0  0  0
   -4.9050   -0.2880    2.6144 H   0  0  0  0  0  0  0  0  0  0  0  0
   -2.4700   -0.5486    2.4213 H   0  0  0  0  0  0  0  0  0  0  0  0
    6.0934    0.5705   -1.9775 H   0  0  0  0  0  0  0  0  0  0  0  0
    6.3202   -0.0378   -4.3803 H   0  0  0  0  0  0  0  0  0  0  0  0
    5.0248   -1.9267   -5.3142 H   0  0  0  0  0  0  0  0  0  0  0  0
    3.4845   -3.2391   -3.8646 H   0  0  0  0  0  0  0  0  0  0  0  0
  1  2  3  0
  2  3  1  0
  3  4  2  3
  4  5  1  0
  5  6  2  0
  6  7  1  0
  7  8  2  0
  8  9  1  0
  9 10  2  0
 10 11  1  0
 11 12  2  0
 12 13  1  0
 13 14  1  0
 13 15  2  0
 13 16  2  0
 12 17  1  0
 17 18  2  0
  8 19  1  0
  3 20  1  0
 20 21  2  0
 21 22  1  0
 22 23  2  0
 23 24  1  0
 24 25  2  0
 25 26  1  0
 26 27  2  0
 27 28  1  0
 19  5  1  0
 28 20  1  0
 18  9  1  0
 27 22  1  0
  4 29  1  0
  6 30  1  0
  7 31  1  0
 10 32  1  0
 11 33  1  0
 14 34  1  0
 14 35  1  0
 17 36  1  0
 18 37  1  0
 23 38  1  0
 24 39  1  0
 25 40  1  0
 26 41  1  0
M  END
$$$$
