
     RDKit          3D

 58 61  0  0  0  0  0  0  0  0999 V2000
    9.1439    0.8605   -1.4368 C   0  0  0  0  0  0  0  0  0  0  0  0
    7.6474    0.9247   -1.5411 C   0  0  0  0  0  0  0  0  0  0  0  0
    6.9099   -0.2140   -1.8872 C   0  0  0  0  0  0  0  0  0  0  0  0
    5.5185   -0.1503   -2.0045 C   0  0  0  0  0  0  0  0  0  0  0  0
    4.8424    1.0595   -1.7982 C   0  0  0  0  0  0  0  0  0  0  0  0
    3.3379    1.1046   -1.8541 C   0  0  0  0  0  0  0  0  0  0  0  0
    2.8005    0.7592   -0.5564 N   0  0  0  0  0  0  0  0  0  0  0  0
    1.8583   -0.2302   -0.3761 C   0  0  0  0  0  0  0  0  0  0  0  0
    1.3313   -0.8405   -1.2987 O   0  0  0  0  0  0  0  0  0  0  0  0
    1.5494   -0.4951    1.1010 C   0  0  0  0  0  0  0  0  0  0  0  0
    0.7369   -1.7779    1.3040 C   0  0  0  0  0  0  0  0  0  0  0  0
   -0.7647   -1.6390    1.0573 C   0  0  0  0  0  0  0  0  0  0  0  0
   -1.3601   -0.2798    1.4563 C   0  0  0  0  0  0  0  0  0  0  0  0
   -2.7532   -0.4237    2.0862 C   0  0  0  0  0  0  0  0  0  0  0  0
   -3.7097   -1.0006    1.1493 N   0  0  0  0  0  0  0  0  0  0  0  0
   -4.6924   -0.2831    0.4792 C   0  0  0  0  0  0  0  0  0  0  0  0
   -4.3847    0.9782    0.0408 N   0  0  0  0  0  0  0  0  0  0  0  0
   -5.2170    1.8146   -0.6550 C   0  0  0  0  0  0  0  0  0  0  0  0
   -4.6037    3.2900   -1.1619 S   0  0  0  0  0  0  0  0  0  0  0  0
   -6.4980    1.4097   -0.8924 N   0  0  0  0  0  0  0  0  0  0  0  0
   -6.8303    0.2197   -0.4965 C   0  0  0  0  0  0  0  0  0  0  0  0
   -8.2254   -0.2434   -0.7414 C   0  0  0  0  0  0  0  0  0  0  0  0
   -8.6278   -1.4600   -0.3452 C   0  0  0  0  0  0  0  0  0  0  0  0
   -7.7384   -2.3822    0.3162 C   0  0  0  0  0  0  0  0  0  0  0  0
   -6.4646   -2.0627    0.5740 C   0  0  0  0  0  0  0  0  0  0  0  0
   -5.9320   -0.7562    0.2137 C   0  0  0  0  0  0  0  0  0  0  0  0
   -0.4317    0.4656    2.4190 C   0  0  0  0  0  0  0  0  0  0  0  0
    0.9194    0.7416    1.7671 C   0  0  0  0  0  0  0  0  0  0  0  0
    5.5835    2.2021   -1.4655 C   0  0  0  0  0  0  0  0  0  0  0  0
    6.9747    2.1359   -1.3453 C   0  0  0  0  0  0  0  0  0  0  0  0
    9.5140    1.5776   -0.6955 H   0  0  0  0  0  0  0  0  0  0  0  0
    9.4723   -0.1340   -1.1164 H   0  0  0  0  0  0  0  0  0  0  0  0
    9.5961    1.0899   -2.4062 H   0  0  0  0  0  0  0  0  0  0  0  0
    7.4145   -1.1622   -2.0597 H   0  0  0  0  0  0  0  0  0  0  0  0
    4.9590   -1.0512   -2.2542 H   0  0  0  0  0  0  0  0  0  0  0  0
    2.9955    2.1175   -2.0954 H   0  0  0  0  0  0  0  0  0  0  0  0
    2.9579    0.4361   -2.6345 H   0  0  0  0  0  0  0  0  0  0  0  0
    3.2466    1.1688    0.2555 H   0  0  0  0  0  0  0  0  0  0  0  0
    2.5295   -0.6750    1.5692 H   0  0  0  0  0  0  0  0  0  0  0  0
    1.1328   -2.5923    0.6859 H   0  0  0  0  0  0  0  0  0  0  0  0
    0.8764   -2.1037    2.3436 H   0  0  0  0  0  0  0  0  0  0  0  0
   -0.9843   -1.8229    0.0035 H   0  0  0  0  0  0  0  0  0  0  0  0
   -1.2582   -2.4448    1.6064 H   0  0  0  0  0  0  0  0  0  0  0  0
   -1.4545    0.3230    0.5442 H   0  0  0  0  0  0  0  0  0  0  0  0
   -2.6953   -1.0706    2.9702 H   0  0  0  0  0  0  0  0  0  0  0  0
   -3.1131    0.5478    2.4436 H   0  0  0  0  0  0  0  0  0  0  0  0
   -4.0018   -1.9336    1.4264 H   0  0  0  0  0  0  0  0  0  0  0  0
   -3.4383    1.3067    0.1680 H   0  0  0  0  0  0  0  0  0  0  0  0
   -8.8931    0.4474   -1.2427 H   0  0  0  0  0  0  0  0  0  0  0  0
   -9.6515   -1.7838   -0.5297 H   0  0  0  0  0  0  0  0  0  0  0  0
   -8.1315   -3.3541    0.5933 H   0  0  0  0  0  0  0  0  0  0  0  0
   -5.8273   -2.7891    1.0637 H   0  0  0  0  0  0  0  0  0  0  0  0
   -0.2897   -0.1196    3.3371 H   0  0  0  0  0  0  0  0  0  0  0  0
   -0.8838    1.4161    2.7220 H   0  0  0  0  0  0  0  0  0  0  0  0
    1.6053    1.1338    2.5299 H   0  0  0  0  0  0  0  0  0  0  0  0
    0.7885    1.5561    1.0398 H   0  0  0  0  0  0  0  0  0  0  0  0
    5.0816    3.1531   -1.2970 H   0  0  0  0  0  0  0  0  0  0  0  0
    7.5315    3.0357   -1.0911 H   0  0  0  0  0  0  0  0  0  0  0  0
  1  2  1  0
  2  3  2  0
  3  4  1  0
  4  5  2  0
  5  6  1  0
  6  7  1  0
  7  8  1  0
  8  9  2  0
  8 10  1  0
 10 11  1  0
 11 12  1  0
 12 13  1  0
 13 14  1  0
 14 15  1  0
 15 16  1  0
 16 17  1  0
 17 18  1  0
 18 19  2  0
 18 20  1  0
 20 21  2  0
 21 22  1  0
 22 23  2  0
 23 24  1  0
 24 25  2  0
 25 26  1  0
 13 27  1  0
 27 28  1  0
  5 29  1  0
 29 30  2  0
 30  2  1  0
 28 10  1  0
 26 16  2  0
 26 21  1  0
  1 31  1  0
  1 32  1  0
  1 33  1  0
  3 34  1  0
  4 35  1  0
  6 36  1  0
  6 37  1  0
  7 38  1  0
 10 39  1  0
 11 40  1  0
 11 41  1  0
 12 42  1  0
 12 43  1  0
 13 44  1  0
 14 45  1  0
 14 46  1  0
 15 47  1  0
 17 48  1  0
 22 49  1  0
 23 50  1  0
 24 51  1  0
 25 52  1  0
 27 53  1  0
 27 54  1  0
 28 55  1  0
 28 56  1  0
 29 57  1  0
 30 58  1  0
M  END
$$$$
