
     RDKit          3D

 61 63  0  0  0  0  0  0  0  0999 V2000
   -0.8418   -2.1208   -1.8865 C   0  0  0  0  0  0  0  0  0  0  0  0
   -0.6807   -2.3260   -0.3915 C   0  0  0  0  0  0  0  0  0  0  0  0
   -0.9452   -1.0997    0.3038 O   0  0  0  0  0  0  0  0  0  0  0  0
    0.1037   -0.2468    0.4599 C   0  0  0  0  0  0  0  0  0  0  0  0
    1.2406   -0.4800    0.0619 O   0  0  0  0  0  0  0  0  0  0  0  0
   -0.2483    0.9802    1.1805 C   0  0  0  0  0  0  0  0  0  0  0  0
   -1.5760    1.4943    1.4529 C   0  0  0  0  0  0  0  0  0  0  0  0
   -2.8623    0.9602    1.0287 C   0  0  0  0  0  0  0  0  0  0  0  0
   -3.7401    0.4054    1.9631 C   0  0  0  0  0  0  0  0  0  0  0  0
   -4.9677   -0.1211    1.5464 C   0  0  0  0  0  0  0  0  0  0  0  0
   -5.3438   -0.1080    0.1923 C   0  0  0  0  0  0  0  0  0  0  0  0
   -6.6299   -0.6807   -0.2458 C   0  0  0  0  0  0  0  0  0  0  0  0
   -7.0265   -1.9670    0.1594 C   0  0  0  0  0  0  0  0  0  0  0  0
   -8.2445   -2.5136   -0.2554 C   0  0  0  0  0  0  0  0  0  0  0  0
   -9.0871   -1.7837   -1.0883 C   0  0  0  0  0  0  0  0  0  0  0  0
   -8.7135   -0.5082   -1.5059 C   0  0  0  0  0  0  0  0  0  0  0  0
   -7.4971    0.0382   -1.0866 C   0  0  0  0  0  0  0  0  0  0  0  0
   -4.4518    0.4619   -0.7321 C   0  0  0  0  0  0  0  0  0  0  0  0
   -3.2249    0.9937   -0.3205 C   0  0  0  0  0  0  0  0  0  0  0  0
   -1.5372    2.6633    2.1872 C   0  0  0  0  0  0  0  0  0  0  0  0
    0.0545    3.1454    2.5439 S   0  0  0  0  0  0  0  0  0  0  0  0
    0.7219    1.8242    1.7108 C   0  0  0  0  0  0  0  0  0  0  0  0
    2.0940    1.6631    1.6110 N   0  0  0  0  0  0  0  0  0  0  0  0
    3.0946    2.4533    2.1536 C   0  0  0  0  0  0  0  0  0  0  0  0
    2.9691    3.4335    2.8798 O   0  0  0  0  0  0  0  0  0  0  0  0
    4.4929    1.9264    1.7963 C   0  0  0  0  0  0  0  0  0  0  0  0
    4.4789    1.2749    0.4696 N   0  0  0  0  0  0  0  0  0  0  0  0
    5.8013    0.7114    0.1563 C   0  0  0  0  0  0  0  0  0  0  0  0
    5.8271    0.1416   -1.2824 C   0  0  0  0  0  0  0  0  0  0  0  0
    7.0939   -0.4415   -1.7563 N   0  0  0  0  0  0  0  0  0  0  0  0
    8.1836    0.5288   -1.7992 C   0  0  0  0  0  0  0  0  0  0  0  0
    7.4785   -1.6319   -1.0034 C   0  0  0  0  0  0  0  0  0  0  0  0
   -0.0959   -1.4148   -2.2645 H   0  0  0  0  0  0  0  0  0  0  0  0
   -0.7257   -3.0663   -2.4236 H   0  0  0  0  0  0  0  0  0  0  0  0
   -1.8261   -1.6987   -2.1180 H   0  0  0  0  0  0  0  0  0  0  0  0
   -1.4132   -3.0596   -0.0392 H   0  0  0  0  0  0  0  0  0  0  0  0
    0.3127   -2.7184   -0.1470 H   0  0  0  0  0  0  0  0  0  0  0  0
   -3.4766    0.3719    3.0174 H   0  0  0  0  0  0  0  0  0  0  0  0
   -5.6380   -0.5385    2.2941 H   0  0  0  0  0  0  0  0  0  0  0  0
   -6.3787   -2.5619    0.8015 H   0  0  0  0  0  0  0  0  0  0  0  0
   -8.5318   -3.5108    0.0705 H   0  0  0  0  0  0  0  0  0  0  0  0
  -10.0333   -2.2094   -1.4139 H   0  0  0  0  0  0  0  0  0  0  0  0
   -9.3697    0.0632   -2.1575 H   0  0  0  0  0  0  0  0  0  0  0  0
   -7.2344    1.0414   -1.4144 H   0  0  0  0  0  0  0  0  0  0  0  0
   -4.7015    0.4822   -1.7920 H   0  0  0  0  0  0  0  0  0  0  0  0
   -2.5570    1.4240   -1.0629 H   0  0  0  0  0  0  0  0  0  0  0  0
   -2.3705    3.2666    2.5272 H   0  0  0  0  0  0  0  0  0  0  0  0
    2.4286    0.8863    1.0331 H   0  0  0  0  0  0  0  0  0  0  0  0
    4.7865    1.2143    2.5773 H   0  0  0  0  0  0  0  0  0  0  0  0
    5.1865    2.7751    1.7940 H   0  0  0  0  0  0  0  0  0  0  0  0
    4.2489    1.9812   -0.2318 H   0  0  0  0  0  0  0  0  0  0  0  0
    6.0271   -0.0848    0.8728 H   0  0  0  0  0  0  0  0  0  0  0  0
    6.5629    1.4910    0.2575 H   0  0  0  0  0  0  0  0  0  0  0  0
    5.0386   -0.6173   -1.3786 H   0  0  0  0  0  0  0  0  0  0  0  0
    5.5416    0.9384   -1.9827 H   0  0  0  0  0  0  0  0  0  0  0  0
    7.8924    1.4170   -2.3686 H   0  0  0  0  0  0  0  0  0  0  0  0
    8.5033    0.8467   -0.8013 H   0  0  0  0  0  0  0  0  0  0  0  0
    9.0532    0.1020   -2.3122 H   0  0  0  0  0  0  0  0  0  0  0  0
    8.3405   -2.1160   -1.4766 H   0  0  0  0  0  0  0  0  0  0  0  0
    7.7452   -1.4063    0.0349 H   0  0  0  0  0  0  0  0  0  0  0  0
    6.6679   -2.3692   -1.0014 H   0  0  0  0  0  0  0  0  0  0  0  0
  1  2  1  0
  2  3  1  0
  3  4  1  0
  4  5  2  0
  4  6  1  0
  6  7  1  0
  7  8  1  0
  8  9  2  0
  9 10  1  0
 10 11  2  0
 11 12  1  0
 12 13  2  0
 13 14  1  0
 14 15  2  0
 15 16  1  0
 16 17  2  0
 11 18  1  0
 18 19  2  0
  7 20  2  0
 20 21  1  0
 21 22  1  0
 22 23  1  0
 23 24  1  0
 24 25  2  0
 24 26  1  0
 26 27  1  0
 27 28  1  0
 28 29  1  0
 29 30  1  0
 30 31  1  0
 30 32  1  0
 22  6  2  0
 19  8  1  0
 17 12  1  0
  1 33  1  0
  1 34  1  0
  1 35  1  0
  2 36  1  0
  2 37  1  0
  9 38  1  0
 10 39  1  0
 13 40  1  0
 14 41  1  0
 15 42  1  0
 16 43  1  0
 17 44  1  0
 18 45  1  0
 19 46  1  0
 20 47  1  0
 23 48  1  0
 26 49  1  0
 26 50  1  0
 27 51  1  0
 28 52  1  0
 28 53  1  0
 29 54  1  0
 29 55  1  0
 31 56  1  0
 31 57  1  0
 31 58  1  0
 32 59  1  0
 32 60  1  0
 32 61  1  0
M  END
$$$$
