
     RDKit          3D

 47 50  0  0  0  0  0  0  0  0999 V2000
   -4.2828    3.0890   -1.3494 C   0  0  0  0  0  0  0  0  0  0  0  0
   -3.8136    1.9792   -0.5234 N   0  0  0  0  0  0  0  0  0  0  0  0
   -2.8368    2.4507    0.4768 C   0  0  0  0  0  0  0  0  0  0  0  0
   -2.2735    1.2898    1.3270 C   0  0  0  0  0  0  0  0  0  0  0  0
   -1.6457    0.2411    0.4987 N   0  0  0  0  0  0  0  0  0  0  0  0
   -1.1538   -0.8543    1.3425 C   0  0  0  0  0  0  0  0  0  0  0  0
   -0.2289   -1.7995    0.6091 C   0  0  0  0  0  0  0  0  0  0  0  0
   -0.5947   -3.1309    0.4116 C   0  0  0  0  0  0  0  0  0  0  0  0
    0.2646   -4.0060   -0.2602 C   0  0  0  0  0  0  0  0  0  0  0  0
   -0.2858   -5.6389   -0.4564 Cl  0  0  0  0  0  0  0  0  0  0  0  0
    1.5200   -3.5749   -0.7602 C   0  0  0  0  0  0  0  0  0  0  0  0
    2.4293   -4.4078   -1.4514 C   0  0  0  0  0  0  0  0  0  0  0  0
    3.6399   -3.9091   -1.9166 C   0  0  0  0  0  0  0  0  0  0  0  0
    3.9185   -2.5811   -1.6829 C   0  0  0  0  0  0  0  0  0  0  0  0
    3.0831   -1.7480   -1.0300 N   0  0  0  0  0  0  0  0  0  0  0  0
    1.9055   -2.2314   -0.5700 C   0  0  0  0  0  0  0  0  0  0  0  0
    1.0231   -1.3893    0.1196 C   0  0  0  0  0  0  0  0  0  0  0  0
    1.3929   -0.0400    0.2759 O   0  0  0  0  0  0  0  0  0  0  0  0
    2.2393    0.1703    1.3569 C   0  0  0  0  0  0  0  0  0  0  0  0
    2.5430   -0.6808    2.1897 O   0  0  0  0  0  0  0  0  0  0  0  0
    2.6841    1.5553    1.4113 C   0  0  0  0  0  0  0  0  0  0  0  0
    3.5545    2.1010    2.3402 C   0  0  0  0  0  0  0  0  0  0  0  0
    3.7882    3.4903    2.1289 C   0  0  0  0  0  0  0  0  0  0  0  0
    3.0873    3.9676    1.0454 C   0  0  0  0  0  0  0  0  0  0  0  0
    2.1565    2.7460    0.2954 S   0  0  0  0  0  0  0  0  0  0  0  0
   -2.6168   -0.2251   -0.5119 C   0  0  0  0  0  0  0  0  0  0  0  0
   -3.1838    0.9382   -1.3587 C   0  0  0  0  0  0  0  0  0  0  0  0
   -4.7751    3.8465   -0.7295 H   0  0  0  0  0  0  0  0  0  0  0  0
   -5.0287    2.7401   -2.0721 H   0  0  0  0  0  0  0  0  0  0  0  0
   -3.4684    3.5722   -1.9013 H   0  0  0  0  0  0  0  0  0  0  0  0
   -2.0035    2.9745   -0.0113 H   0  0  0  0  0  0  0  0  0  0  0  0
   -3.3219    3.1660    1.1520 H   0  0  0  0  0  0  0  0  0  0  0  0
   -1.5279    1.7062    2.0155 H   0  0  0  0  0  0  0  0  0  0  0  0
   -3.0821    0.8652    1.9373 H   0  0  0  0  0  0  0  0  0  0  0  0
   -0.5833   -0.4509    2.1900 H   0  0  0  0  0  0  0  0  0  0  0  0
   -1.9917   -1.4064    1.7894 H   0  0  0  0  0  0  0  0  0  0  0  0
   -1.5532   -3.4921    0.7788 H   0  0  0  0  0  0  0  0  0  0  0  0
    2.2009   -5.4554   -1.6328 H   0  0  0  0  0  0  0  0  0  0  0  0
    4.3427   -4.5420   -2.4460 H   0  0  0  0  0  0  0  0  0  0  0  0
    4.8478   -2.1328   -2.0223 H   0  0  0  0  0  0  0  0  0  0  0  0
    4.0042    1.5176    3.1364 H   0  0  0  0  0  0  0  0  0  0  0  0
    4.4376    4.1059    2.7395 H   0  0  0  0  0  0  0  0  0  0  0  0
    3.0759    4.9762    0.6550 H   0  0  0  0  0  0  0  0  0  0  0  0
   -3.4492   -0.7550   -0.0295 H   0  0  0  0  0  0  0  0  0  0  0  0
   -2.1353   -0.9298   -1.1996 H   0  0  0  0  0  0  0  0  0  0  0  0
   -2.3741    1.3661   -1.9656 H   0  0  0  0  0  0  0  0  0  0  0  0
   -3.9283    0.5264   -2.0507 H   0  0  0  0  0  0  0  0  0  0  0  0
  1  2  1  0
  2  3  1  0
  3  4  1  0
  4  5  1  0
  5  6  1  0
  6  7  1  0
  7  8  2  0
  8  9  1  0
  9 10  1  0
  9 11  2  0
 11 12  1  0
 12 13  2  0
 13 14  1  0
 14 15  2  0
 15 16  1  0
 16 17  2  0
 17 18  1  0
 18 19  1  0
 19 20  2  0
 19 21  1  0
 21 22  2  0
 22 23  1  0
 23 24  2  0
 24 25  1  0
  5 26  1  0
 26 27  1  0
 27  2  1  0
 17  7  1  0
 25 21  1  0
 16 11  1  0
  1 28  1  0
  1 29  1  0
  1 30  1  0
  3 31  1  0
  3 32  1  0
  4 33  1  0
  4 34  1  0
  6 35  1  0
  6 36  1  0
  8 37  1  0
 12 38  1  0
 13 39  1  0
 14 40  1  0
 22 41  1  0
 23 42  1  0
 24 43  1  0
 26 44  1  0
 26 45  1  0
 27 46  1  0
 27 47  1  0
M  END
$$$$
