
     RDKit          3D

 52 54  0  0  0  0  0  0  0  0999 V2000
    3.9679   -0.1652    0.6380 O   0  0  0  0  0  0  0  0  0  0  0  0
    2.8606   -0.6875    0.6181 C   0  0  0  0  0  0  0  0  0  0  0  0
    2.5122   -1.9365    1.0908 N   0  0  0  0  0  0  0  0  0  0  0  0
    3.3396   -2.8967    1.7008 C   0  0  0  0  0  0  0  0  0  0  0  0
    4.7063   -2.7200    1.9221 C   0  0  0  0  0  0  0  0  0  0  0  0
    5.4601   -3.7260    2.5357 C   0  0  0  0  0  0  0  0  0  0  0  0
    4.8535   -4.9155    2.9324 C   0  0  0  0  0  0  0  0  0  0  0  0
    3.4909   -5.1013    2.7161 C   0  0  0  0  0  0  0  0  0  0  0  0
    2.7381   -4.0963    2.1031 C   0  0  0  0  0  0  0  0  0  0  0  0
    1.6639    0.0216    0.0296 C   0  0  0  0  0  0  0  0  0  0  0  0
    1.8033    1.2819   -0.4147 C   0  0  0  0  0  0  0  0  0  0  0  0
    0.6484    2.0807   -0.9497 C   0  0  0  0  0  0  0  0  0  0  0  0
    0.6234    3.5091   -0.4332 C   0  0  0  0  0  0  0  0  0  0  0  0
    0.6399    3.7923    0.9426 C   0  0  0  0  0  0  0  0  0  0  0  0
    0.6060    5.1110    1.3993 C   0  0  0  0  0  0  0  0  0  0  0  0
    0.5528    6.1638    0.4891 C   0  0  0  0  0  0  0  0  0  0  0  0
    0.5333    5.8994   -0.8783 C   0  0  0  0  0  0  0  0  0  0  0  0
    0.5675    4.5810   -1.3376 C   0  0  0  0  0  0  0  0  0  0  0  0
   -0.6810    1.3728   -0.6691 C   0  0  0  0  0  0  0  0  0  0  0  0
   -0.5111   -0.1246   -0.9065 C   0  0  0  0  0  0  0  0  0  0  0  0
   -1.7529   -0.7880   -0.6569 O   0  0  0  0  0  0  0  0  0  0  0  0
   -2.5754   -0.8828   -1.8176 C   0  0  0  0  0  0  0  0  0  0  0  0
   -3.9110   -1.5115   -1.4347 C   0  0  0  0  0  0  0  0  0  0  0  0
   -4.6980   -0.6321   -0.4559 C   0  0  0  0  0  0  0  0  0  0  0  0
   -6.0400   -1.2493   -0.0853 C   0  0  0  0  0  0  0  0  0  0  0  0
   -6.8608   -1.3457   -1.2413 O   0  0  0  0  0  0  0  0  0  0  0  0
    0.4680   -0.6755   -0.0142 O   0  0  0  0  0  0  0  0  0  0  0  0
    1.5313   -2.1754    0.9839 H   0  0  0  0  0  0  0  0  0  0  0  0
    5.2177   -1.8087    1.6287 H   0  0  0  0  0  0  0  0  0  0  0  0
    6.5236   -3.5746    2.7022 H   0  0  0  0  0  0  0  0  0  0  0  0
    5.4426   -5.6944    3.4090 H   0  0  0  0  0  0  0  0  0  0  0  0
    3.0127   -6.0272    3.0242 H   0  0  0  0  0  0  0  0  0  0  0  0
    1.6759   -4.2645    1.9456 H   0  0  0  0  0  0  0  0  0  0  0  0
    2.7755    1.7712   -0.3737 H   0  0  0  0  0  0  0  0  0  0  0  0
    0.7893    2.1140   -2.0395 H   0  0  0  0  0  0  0  0  0  0  0  0
    0.6829    2.9854    1.6717 H   0  0  0  0  0  0  0  0  0  0  0  0
    0.6235    5.3155    2.4668 H   0  0  0  0  0  0  0  0  0  0  0  0
    0.5283    7.1901    0.8457 H   0  0  0  0  0  0  0  0  0  0  0  0
    0.4931    6.7210   -1.5888 H   0  0  0  0  0  0  0  0  0  0  0  0
    0.5521    4.3998   -2.4100 H   0  0  0  0  0  0  0  0  0  0  0  0
   -1.4772    1.7906   -1.2965 H   0  0  0  0  0  0  0  0  0  0  0  0
   -1.0044    1.5310    0.3691 H   0  0  0  0  0  0  0  0  0  0  0  0
   -0.1801   -0.3336   -1.9334 H   0  0  0  0  0  0  0  0  0  0  0  0
   -2.7368    0.1079   -2.2563 H   0  0  0  0  0  0  0  0  0  0  0  0
   -2.0756   -1.5174   -2.5582 H   0  0  0  0  0  0  0  0  0  0  0  0
   -3.7321   -2.4878   -0.9681 H   0  0  0  0  0  0  0  0  0  0  0  0
   -4.4968   -1.6797   -2.3453 H   0  0  0  0  0  0  0  0  0  0  0  0
   -4.1156   -0.4725    0.4585 H   0  0  0  0  0  0  0  0  0  0  0  0
   -4.8663    0.3481   -0.9186 H   0  0  0  0  0  0  0  0  0  0  0  0
   -6.5523   -0.6196    0.6490 H   0  0  0  0  0  0  0  0  0  0  0  0
   -5.9087   -2.2497    0.3393 H   0  0  0  0  0  0  0  0  0  0  0  0
   -7.7082   -1.7286   -0.9559 H   0  0  0  0  0  0  0  0  0  0  0  0
  1  2  2  0
  2  3  1  0
  3  4  1  0
  4  5  2  0
  5  6  1  0
  6  7  2  0
  7  8  1  0
  8  9  2  0
  2 10  1  0
 10 11  2  0
 11 12  1  0
 12 13  1  0
 13 14  2  0
 14 15  1  0
 15 16  2  0
 16 17  1  0
 17 18  2  0
 12 19  1  0
 19 20  1  0
 20 21  1  0
 21 22  1  0
 22 23  1  0
 23 24  1  0
 24 25  1  0
 25 26  1  0
 20 27  1  0
  9  4  1  0
 27 10  1  0
 18 13  1  0
  3 28  1  0
  5 29  1  0
  6 30  1  0
  7 31  1  0
  8 32  1  0
  9 33  1  0
 11 34  1  0
 12 35  1  0
 14 36  1  0
 15 37  1  0
 16 38  1  0
 17 39  1  0
 18 40  1  0
 19 41  1  0
 19 42  1  0
 20 43  1  0
 22 44  1  0
 22 45  1  0
 23 46  1  0
 23 47  1  0
 24 48  1  0
 24 49  1  0
 25 50  1  0
 25 51  1  0
 26 52  1  0
M  END
$$$$
