
     RDKit          3D

 64 68  0  0  0  0  0  0  0  0999 V2000
   -5.0283    0.0314   -3.8691 C   0  0  0  0  0  0  0  0  0  0  0  0
   -4.9482   -1.1338   -2.8600 C   0  0  0  0  0  0  0  0  0  0  0  0
   -6.3781   -1.4390   -2.3852 C   0  0  0  0  0  0  0  0  0  0  0  0
   -4.3684   -2.3520   -3.5916 C   0  0  0  0  0  0  0  0  0  0  0  0
   -4.1008   -0.6642   -1.6450 C   0  0  0  0  0  0  0  0  0  0  0  0
   -4.1332    0.5142   -1.2750 O   0  0  0  0  0  0  0  0  0  0  0  0
   -3.3233   -1.6370   -0.8116 C   0  0  0  0  0  0  0  0  0  0  0  0
   -4.0450   -2.7799   -0.3639 C   0  0  0  0  0  0  0  0  0  0  0  0
   -4.6385   -3.7153   -0.0179 N   0  0  0  0  0  0  0  0  0  0  0  0
   -2.0850   -1.3520   -0.3392 C   0  0  0  0  0  0  0  0  0  0  0  0
   -1.3933   -2.2856    0.9795 S   0  0  0  0  0  0  0  0  0  0  0  0
   -0.1656   -1.1042    1.2649 C   0  0  0  0  0  0  0  0  0  0  0  0
    0.6862   -1.2088    2.2985 C   0  0  0  0  0  0  0  0  0  0  0  0
    1.7794   -0.3502    2.6048 C   0  0  0  0  0  0  0  0  0  0  0  0
    1.6748    0.9538    3.0293 C   0  0  0  0  0  0  0  0  0  0  0  0
    2.9595    1.4333    3.1610 N   0  0  0  0  0  0  0  0  0  0  0  0
    3.3767    2.7335    3.5661 C   0  0  0  0  0  0  0  0  0  0  0  0
    4.7496    3.0298    3.6181 C   0  0  0  0  0  0  0  0  0  0  0  0
    5.1853    4.2954    4.0157 C   0  0  0  0  0  0  0  0  0  0  0  0
    4.2571    5.2723    4.3725 C   0  0  0  0  0  0  0  0  0  0  0  0
    2.8924    4.9862    4.3263 C   0  0  0  0  0  0  0  0  0  0  0  0
    2.4483    3.7227    3.9214 C   0  0  0  0  0  0  0  0  0  0  0  0
    3.8764    0.4753    2.8702 N   0  0  0  0  0  0  0  0  0  0  0  0
    3.1723   -0.6154    2.5378 C   0  0  0  0  0  0  0  0  0  0  0  0
    3.8586   -1.8381    2.1439 C   0  0  0  0  0  0  0  0  0  0  0  0
    4.9045   -1.8075    1.2172 C   0  0  0  0  0  0  0  0  0  0  0  0
    5.5428   -2.9914    0.8538 C   0  0  0  0  0  0  0  0  0  0  0  0
    5.1127   -4.1730    1.4366 C   0  0  0  0  0  0  0  0  0  0  0  0
    4.1126   -4.2463    2.3419 N   0  0  0  0  0  0  0  0  0  0  0  0
    3.5157   -3.0748    2.6787 C   0  0  0  0  0  0  0  0  0  0  0  0
   -0.1580   -0.0682    0.1929 C   0  0  0  0  0  0  0  0  0  0  0  0
    0.7070    0.7923    0.0884 O   0  0  0  0  0  0  0  0  0  0  0  0
   -1.2373   -0.2975   -0.6855 N   0  0  0  0  0  0  0  0  0  0  0  0
   -1.2043    0.3805   -1.9408 C   0  0  0  0  0  0  0  0  0  0  0  0
   -1.2122   -0.3530   -3.1381 C   0  0  0  0  0  0  0  0  0  0  0  0
   -1.1208    0.3036   -4.3681 C   0  0  0  0  0  0  0  0  0  0  0  0
   -1.0280    1.6906   -4.4004 C   0  0  0  0  0  0  0  0  0  0  0  0
   -0.9530    2.3167   -5.5811 F   0  0  0  0  0  0  0  0  0  0  0  0
   -1.0046    2.4330   -3.2265 C   0  0  0  0  0  0  0  0  0  0  0  0
   -1.0787    1.7762   -1.9958 C   0  0  0  0  0  0  0  0  0  0  0  0
   -5.4974    0.9174   -3.4257 H   0  0  0  0  0  0  0  0  0  0  0  0
   -5.6156   -0.2434   -4.7523 H   0  0  0  0  0  0  0  0  0  0  0  0
   -4.0320    0.3339   -4.2063 H   0  0  0  0  0  0  0  0  0  0  0  0
   -6.4143   -2.3041   -1.7182 H   0  0  0  0  0  0  0  0  0  0  0  0
   -7.0392   -1.6555   -3.2316 H   0  0  0  0  0  0  0  0  0  0  0  0
   -6.8030   -0.5904   -1.8350 H   0  0  0  0  0  0  0  0  0  0  0  0
   -4.9247   -2.5588   -4.5149 H   0  0  0  0  0  0  0  0  0  0  0  0
   -4.4134   -3.2624   -2.9870 H   0  0  0  0  0  0  0  0  0  0  0  0
   -3.3236   -2.1918   -3.8737 H   0  0  0  0  0  0  0  0  0  0  0  0
    0.5725   -2.0607    2.9665 H   0  0  0  0  0  0  0  0  0  0  0  0
    0.8100    1.5728    3.2097 H   0  0  0  0  0  0  0  0  0  0  0  0
    5.4941    2.2837    3.3394 H   0  0  0  0  0  0  0  0  0  0  0  0
    6.2497    4.5133    4.0542 H   0  0  0  0  0  0  0  0  0  0  0  0
    4.5971    6.2534    4.6883 H   0  0  0  0  0  0  0  0  0  0  0  0
    2.1726    5.7521    4.6079 H   0  0  0  0  0  0  0  0  0  0  0  0
    1.3782    3.5467    3.8957 H   0  0  0  0  0  0  0  0  0  0  0  0
    5.2228   -0.8634    0.7800 H   0  0  0  0  0  0  0  0  0  0  0  0
    6.3556   -2.9880    0.1369 H   0  0  0  0  0  0  0  0  0  0  0  0
    5.5788   -5.1214    1.1863 H   0  0  0  0  0  0  0  0  0  0  0  0
    2.7408   -3.1723    3.4331 H   0  0  0  0  0  0  0  0  0  0  0  0
   -1.2277   -1.4398   -3.1257 H   0  0  0  0  0  0  0  0  0  0  0  0
   -1.1077   -0.2545   -5.3000 H   0  0  0  0  0  0  0  0  0  0  0  0
   -0.9221    3.5152   -3.2720 H   0  0  0  0  0  0  0  0  0  0  0  0
   -1.0584    2.3645   -1.0800 H   0  0  0  0  0  0  0  0  0  0  0  0
  1  2  1  0
  2  3  1  0
  2  4  1  0
  2  5  1  0
  5  6  2  0
  5  7  1  0
  7  8  1  0
  8  9  3  0
  7 10  2  3
 10 11  1  0
 11 12  1  0
 12 13  2  3
 13 14  1  0
 14 15  2  0
 15 16  1  0
 16 17  1  0
 17 18  2  0
 18 19  1  0
 19 20  2  0
 20 21  1  0
 21 22  2  0
 16 23  1  0
 23 24  2  0
 24 25  1  0
 25 26  2  0
 26 27  1  0
 27 28  2  0
 28 29  1  0
 29 30  2  0
 12 31  1  0
 31 32  2  0
 31 33  1  0
 33 34  1  0
 34 35  2  0
 35 36  1  0
 36 37  2  0
 37 38  1  0
 37 39  1  0
 39 40  2  0
 33 10  1  0
 40 34  1  0
 24 14  1  0
 30 25  1  0
 22 17  1  0
  1 41  1  0
  1 42  1  0
  1 43  1  0
  3 44  1  0
  3 45  1  0
  3 46  1  0
  4 47  1  0
  4 48  1  0
  4 49  1  0
 13 50  1  0
 15 51  1  0
 18 52  1  0
 19 53  1  0
 20 54  1  0
 21 55  1  0
 22 56  1  0
 26 57  1  0
 27 58  1  0
 28 59  1  0
 30 60  1  0
 35 61  1  0
 36 62  1  0
 39 63  1  0
 40 64  1  0
M  END
$$$$
