
     RDKit          3D

 45 47  0  0  0  0  0  0  0  0999 V2000
    4.1215    0.9296    2.1985 C   0  0  0  0  0  0  0  0  0  0  0  0
    3.6922   -0.3347    1.5081 C   0  0  0  0  0  0  0  0  0  0  0  0
    4.5266   -1.4675    1.5757 C   0  0  0  0  0  0  0  0  0  0  0  0
    4.1799   -2.6615    0.9494 C   0  0  0  0  0  0  0  0  0  0  0  0
    2.9899   -2.7702    0.2289 C   0  0  0  0  0  0  0  0  0  0  0  0
    2.1582   -1.6426    0.1549 C   0  0  0  0  0  0  0  0  0  0  0  0
    0.6504   -1.4639   -0.6520 S   0  0  0  0  0  0  0  0  0  0  0  0
    0.5490    0.1688   -0.1400 C   0  0  0  0  0  0  0  0  0  0  0  0
   -0.5605    0.9336   -0.5157 N   0  0  0  0  0  0  0  0  0  0  0  0
   -1.8363    0.3531   -0.9554 C   0  0  0  0  0  0  0  0  0  0  0  0
   -2.6792   -0.1694    0.2137 C   0  0  0  0  0  0  0  0  0  0  0  0
   -4.0591   -0.6594   -0.2403 C   0  0  0  0  0  0  0  0  0  0  0  0
   -4.0058   -1.7385   -1.2416 N   0  0  0  0  0  0  0  0  0  0  0  0
   -5.3339   -1.9375   -1.8315 C   0  0  0  0  0  0  0  0  0  0  0  0
   -3.5378   -2.9995   -0.6590 C   0  0  0  0  0  0  0  0  0  0  0  0
   -0.5907    2.3042   -0.1677 C   0  0  0  0  0  0  0  0  0  0  0  0
   -1.6741    2.8602    0.0426 O   0  0  0  0  0  0  0  0  0  0  0  0
    0.6492    3.0780   -0.1866 C   0  0  0  0  0  0  0  0  0  0  0  0
    1.7080    3.0335   -1.0813 C   0  0  0  0  0  0  0  0  0  0  0  0
    2.7374    3.9660   -0.7527 C   0  0  0  0  0  0  0  0  0  0  0  0
    2.4041    4.6933    0.3593 C   0  0  0  0  0  0  0  0  0  0  0  0
    3.3522    5.9177    1.1016 Cl  0  0  0  0  0  0  0  0  0  0  0  0
    0.8919    4.2962    1.0014 S   0  0  0  0  0  0  0  0  0  0  0  0
    1.5517    0.5725    0.6012 N   0  0  0  0  0  0  0  0  0  0  0  0
    2.4838   -0.4375    0.7762 C   0  0  0  0  0  0  0  0  0  0  0  0
    4.3124    0.7345    3.2586 H   0  0  0  0  0  0  0  0  0  0  0  0
    3.3530    1.7058    2.1343 H   0  0  0  0  0  0  0  0  0  0  0  0
    5.0347    1.3169    1.7357 H   0  0  0  0  0  0  0  0  0  0  0  0
    5.4629   -1.4133    2.1295 H   0  0  0  0  0  0  0  0  0  0  0  0
    4.8444   -3.5202    1.0215 H   0  0  0  0  0  0  0  0  0  0  0  0
    2.7189   -3.7005   -0.2608 H   0  0  0  0  0  0  0  0  0  0  0  0
   -2.4018    1.1289   -1.4881 H   0  0  0  0  0  0  0  0  0  0  0  0
   -1.6460   -0.4260   -1.7005 H   0  0  0  0  0  0  0  0  0  0  0  0
   -2.1451   -0.9612    0.7499 H   0  0  0  0  0  0  0  0  0  0  0  0
   -2.8274    0.6327    0.9474 H   0  0  0  0  0  0  0  0  0  0  0  0
   -4.5832    0.2056   -0.6684 H   0  0  0  0  0  0  0  0  0  0  0  0
   -4.6409   -0.9718    0.6367 H   0  0  0  0  0  0  0  0  0  0  0  0
   -6.0803   -2.2261   -1.0823 H   0  0  0  0  0  0  0  0  0  0  0  0
   -5.6764   -1.0220   -2.3269 H   0  0  0  0  0  0  0  0  0  0  0  0
   -5.3002   -2.7142   -2.6038 H   0  0  0  0  0  0  0  0  0  0  0  0
   -4.1723   -3.3332    0.1700 H   0  0  0  0  0  0  0  0  0  0  0  0
   -3.5230   -3.7897   -1.4185 H   0  0  0  0  0  0  0  0  0  0  0  0
   -2.5096   -2.9118   -0.2955 H   0  0  0  0  0  0  0  0  0  0  0  0
    1.7499    2.3529   -1.9230 H   0  0  0  0  0  0  0  0  0  0  0  0
    3.6611    4.0884   -1.3034 H   0  0  0  0  0  0  0  0  0  0  0  0
  1  2  1  0
  2  3  2  0
  3  4  1  0
  4  5  2  0
  5  6  1  0
  6  7  1  0
  7  8  1  0
  8  9  1  0
  9 10  1  0
 10 11  1  0
 11 12  1  0
 12 13  1  0
 13 14  1  0
 13 15  1  0
  9 16  1  0
 16 17  2  0
 16 18  1  0
 18 19  2  0
 19 20  1  0
 20 21  2  0
 21 22  1  0
 21 23  1  0
  8 24  2  0
 24 25  1  0
 25  2  1  0
 25  6  2  0
 23 18  1  0
  1 26  1  0
  1 27  1  0
  1 28  1  0
  3 29  1  0
  4 30  1  0
  5 31  1  0
 10 32  1  0
 10 33  1  0
 11 34  1  0
 11 35  1  0
 12 36  1  0
 12 37  1  0
 14 38  1  0
 14 39  1  0
 14 40  1  0
 15 41  1  0
 15 42  1  0
 15 43  1  0
 19 44  1  0
 20 45  1  0
M  END
$$$$
