
     RDKit          3D

 39 41  0  0  0  0  0  0  0  0999 V2000
   -6.8031   -0.5783   -0.8431 C   0  0  0  0  0  0  0  0  0  0  0  0
   -5.5533   -1.1458   -1.2158 O   0  0  0  0  0  0  0  0  0  0  0  0
   -4.4283   -0.4518   -0.8676 C   0  0  0  0  0  0  0  0  0  0  0  0
   -3.2290   -1.0520   -1.2601 C   0  0  0  0  0  0  0  0  0  0  0  0
   -1.9998   -0.4555   -0.9683 C   0  0  0  0  0  0  0  0  0  0  0  0
   -1.9653    0.7604   -0.2776 C   0  0  0  0  0  0  0  0  0  0  0  0
   -0.7164    1.3781    0.0265 N   0  0  0  0  0  0  0  0  0  0  0  0
   -0.4420    2.7471   -0.0355 C   0  0  0  0  0  0  0  0  0  0  0  0
   -1.2977    3.6722   -0.4729 O   0  0  0  0  0  0  0  0  0  0  0  0
    0.8639    2.9422    0.3578 C   0  0  0  0  0  0  0  0  0  0  0  0
    1.4273    1.6807    0.6156 C   0  0  0  0  0  0  0  0  0  0  0  0
    2.7044    1.4750    1.0121 N   0  0  0  0  0  0  0  0  0  0  0  0
    3.2799    0.1967    1.0025 N   0  0  0  0  0  0  0  0  0  0  0  0
    4.5829    0.0711    0.5522 C   0  0  0  0  0  0  0  0  0  0  0  0
    5.3171    1.0473    0.3900 O   0  0  0  0  0  0  0  0  0  0  0  0
    4.9892   -1.2929    0.2889 C   0  0  0  0  0  0  0  0  0  0  0  0
    6.1924   -1.8116   -0.1523 C   0  0  0  0  0  0  0  0  0  0  0  0
    6.0273   -3.2147   -0.2364 C   0  0  0  0  0  0  0  0  0  0  0  0
    4.7354   -3.4712    0.1563 C   0  0  0  0  0  0  0  0  0  0  0  0
    4.0955   -2.3171    0.4759 O   0  0  0  0  0  0  0  0  0  0  0  0
    0.4478    0.7215    0.4387 C   0  0  0  0  0  0  0  0  0  0  0  0
    0.5279   -0.5956    0.6709 O   0  0  0  0  0  0  0  0  0  0  0  0
   -3.1646    1.3679    0.1158 C   0  0  0  0  0  0  0  0  0  0  0  0
   -4.3912    0.7601   -0.1776 C   0  0  0  0  0  0  0  0  0  0  0  0
   -6.9533    0.3949   -1.3220 H   0  0  0  0  0  0  0  0  0  0  0  0
   -7.5930   -1.2484   -1.1957 H   0  0  0  0  0  0  0  0  0  0  0  0
   -6.8924   -0.5019    0.2456 H   0  0  0  0  0  0  0  0  0  0  0  0
   -3.2546   -1.9912   -1.8091 H   0  0  0  0  0  0  0  0  0  0  0  0
   -1.0910   -0.9332   -1.3298 H   0  0  0  0  0  0  0  0  0  0  0  0
   -1.9622    3.2478   -1.0442 H   0  0  0  0  0  0  0  0  0  0  0  0
    1.3566    3.9036    0.4076 H   0  0  0  0  0  0  0  0  0  0  0  0
    3.4039    2.2197    0.9262 H   0  0  0  0  0  0  0  0  0  0  0  0
    2.6320   -0.5880    0.9293 H   0  0  0  0  0  0  0  0  0  0  0  0
    7.0767   -1.2320   -0.3820 H   0  0  0  0  0  0  0  0  0  0  0  0
    6.7590   -3.9481   -0.5449 H   0  0  0  0  0  0  0  0  0  0  0  0
    4.1492   -4.3741    0.2577 H   0  0  0  0  0  0  0  0  0  0  0  0
   -0.3651   -0.9292    0.8729 H   0  0  0  0  0  0  0  0  0  0  0  0
   -3.1682    2.2913    0.6934 H   0  0  0  0  0  0  0  0  0  0  0  0
   -5.2978    1.2549    0.1564 H   0  0  0  0  0  0  0  0  0  0  0  0
  1  2  1  0
  2  3  1  0
  3  4  2  0
  4  5  1  0
  5  6  2  0
  6  7  1  0
  7  8  1  0
  8  9  1  0
  8 10  2  0
 10 11  1  0
 11 12  1  0
 12 13  1  0
 13 14  1  0
 14 15  2  0
 14 16  1  0
 16 17  2  0
 17 18  1  0
 18 19  2  0
 19 20  1  0
 11 21  2  0
 21 22  1  0
  6 23  1  0
 23 24  2  0
 24  3  1  0
 21  7  1  0
 20 16  1  0
  1 25  1  0
  1 26  1  0
  1 27  1  0
  4 28  1  0
  5 29  1  0
  9 30  1  0
 10 31  1  0
 12 32  1  0
 13 33  1  0
 17 34  1  0
 18 35  1  0
 19 36  1  0
 22 37  1  0
 23 38  1  0
 24 39  1  0
M  END
$$$$
