
     RDKit          3D

 44 46  0  0  0  0  0  0  0  0999 V2000
    4.1616    1.1783   -2.8100 C   0  0  0  0  0  0  0  0  0  0  0  0
    2.9458    1.6197   -2.1330 N   0  0  0  0  0  0  0  0  0  0  0  0
    2.7310    0.9106   -0.8567 C   0  0  0  0  0  0  0  0  0  0  0  0
    1.6838   -0.2182   -0.8988 C   0  0  0  0  0  0  0  0  0  0  0  0
    0.3924    0.2437   -1.4198 N   0  0  0  0  0  0  0  0  0  0  0  0
   -0.8391   -0.3244   -1.1261 C   0  0  0  0  0  0  0  0  0  0  0  0
   -1.9081    0.0812   -1.5720 O   0  0  0  0  0  0  0  0  0  0  0  0
   -0.8640   -1.5086   -0.2457 C   0  0  0  0  0  0  0  0  0  0  0  0
   -0.6453   -2.7600   -0.8386 C   0  0  0  0  0  0  0  0  0  0  0  0
   -0.6508   -3.9083   -0.0504 C   0  0  0  0  0  0  0  0  0  0  0  0
   -0.8784   -3.8063    1.3208 C   0  0  0  0  0  0  0  0  0  0  0  0
   -1.1057   -2.5568    1.9071 C   0  0  0  0  0  0  0  0  0  0  0  0
   -1.1119   -1.3809    1.1347 C   0  0  0  0  0  0  0  0  0  0  0  0
   -1.3306   -0.0782    1.7895 C   0  0  0  0  0  0  0  0  0  0  0  0
   -0.2510    0.4811    2.5084 C   0  0  0  0  0  0  0  0  0  0  0  0
   -0.3475    1.7322    3.1205 C   0  0  0  0  0  0  0  0  0  0  0  0
   -1.5280    2.4579    3.0284 C   0  0  0  0  0  0  0  0  0  0  0  0
   -2.6134    1.9258    2.3340 C   0  0  0  0  0  0  0  0  0  0  0  0
   -2.5338    0.6594    1.7230 C   0  0  0  0  0  0  0  0  0  0  0  0
   -3.7751    0.2087    1.0381 C   0  0  0  0  0  0  0  0  0  0  0  0
   -4.6750    0.9395    0.6604 O   0  0  0  0  0  0  0  0  0  0  0  0
   -3.8946   -1.1251    0.9463 O   0  0  0  0  0  0  0  0  0  0  0  0
    0.4337    1.4132   -2.2995 C   0  0  0  0  0  0  0  0  0  0  0  0
    1.7793    1.5218   -3.0367 C   0  0  0  0  0  0  0  0  0  0  0  0
    4.3147    1.7439   -3.7358 H   0  0  0  0  0  0  0  0  0  0  0  0
    5.0399    1.3629   -2.1815 H   0  0  0  0  0  0  0  0  0  0  0  0
    4.1321    0.1109   -3.0564 H   0  0  0  0  0  0  0  0  0  0  0  0
    3.6733    0.5238   -0.4492 H   0  0  0  0  0  0  0  0  0  0  0  0
    2.3845    1.6613   -0.1341 H   0  0  0  0  0  0  0  0  0  0  0  0
    1.5608   -0.6371    0.1035 H   0  0  0  0  0  0  0  0  0  0  0  0
    2.0260   -1.0258   -1.5568 H   0  0  0  0  0  0  0  0  0  0  0  0
   -0.4799   -2.8347   -1.9104 H   0  0  0  0  0  0  0  0  0  0  0  0
   -0.4875   -4.8824   -0.5046 H   0  0  0  0  0  0  0  0  0  0  0  0
   -0.8916   -4.7022    1.9373 H   0  0  0  0  0  0  0  0  0  0  0  0
   -1.2964   -2.5036    2.9778 H   0  0  0  0  0  0  0  0  0  0  0  0
    0.6895   -0.0626    2.5842 H   0  0  0  0  0  0  0  0  0  0  0  0
    0.5025    2.1413    3.6609 H   0  0  0  0  0  0  0  0  0  0  0  0
   -1.6080    3.4368    3.4943 H   0  0  0  0  0  0  0  0  0  0  0  0
   -3.5343    2.5041    2.2694 H   0  0  0  0  0  0  0  0  0  0  0  0
   -4.7194   -1.2430    0.4319 H   0  0  0  0  0  0  0  0  0  0  0  0
   -0.3853    1.3617   -3.0253 H   0  0  0  0  0  0  0  0  0  0  0  0
    0.2651    2.2981   -1.6739 H   0  0  0  0  0  0  0  0  0  0  0  0
    1.7645    2.4018   -3.6897 H   0  0  0  0  0  0  0  0  0  0  0  0
    1.8741    0.6384   -3.6834 H   0  0  0  0  0  0  0  0  0  0  0  0
  1  2  1  0
  2  3  1  0
  3  4  1  0
  4  5  1  0
  5  6  1  0
  6  7  2  0
  6  8  1  0
  8  9  2  0
  9 10  1  0
 10 11  2  0
 11 12  1  0
 12 13  2  0
 13 14  1  0
 14 15  2  0
 15 16  1  0
 16 17  2  0
 17 18  1  0
 18 19  2  0
 19 20  1  0
 20 21  2  0
 20 22  1  0
  5 23  1  0
 23 24  1  0
 24  2  1  0
 13  8  1  0
 19 14  1  0
  1 25  1  0
  1 26  1  0
  1 27  1  0
  3 28  1  0
  3 29  1  0
  4 30  1  0
  4 31  1  0
  9 32  1  0
 10 33  1  0
 11 34  1  0
 12 35  1  0
 15 36  1  0
 16 37  1  0
 17 38  1  0
 18 39  1  0
 22 40  1  0
 23 41  1  0
 23 42  1  0
 24 43  1  0
 24 44  1  0
M  END
$$$$
