
     RDKit          3D

 38 39  0  0  0  0  0  0  0  0999 V2000
    7.1478    0.1821   -0.1582 C   0  0  0  0  0  0  0  0  0  0  0  0
    5.6629    0.2495    0.0362 C   0  0  0  0  0  0  0  0  0  0  0  0
    5.1177    0.4086    1.3110 C   0  0  0  0  0  0  0  0  0  0  0  0
    3.7297    0.4390    1.4878 C   0  0  0  0  0  0  0  0  0  0  0  0
    2.8473    0.3046    0.4036 C   0  0  0  0  0  0  0  0  0  0  0  0
    1.4709    0.3363    0.6564 N   0  0  0  0  0  0  0  0  0  0  0  0
    0.3349    0.2400   -0.1445 C   0  0  0  0  0  0  0  0  0  0  0  0
    0.4149    0.0455   -1.4475 N   0  0  0  0  0  0  0  0  0  0  0  0
   -0.7597   -0.0178   -2.0494 C   0  0  0  0  0  0  0  0  0  0  0  0
   -0.7215   -0.2759   -3.7388 Cl  0  0  0  0  0  0  0  0  0  0  0  0
   -1.9609    0.0811   -1.5068 N   0  0  0  0  0  0  0  0  0  0  0  0
   -1.9385    0.2727   -0.2051 C   0  0  0  0  0  0  0  0  0  0  0  0
   -3.1035    0.4143    0.5203 N   0  0  0  0  0  0  0  0  0  0  0  0
   -4.3714   -0.2068    0.1233 C   0  0  0  0  0  0  0  0  0  0  0  0
   -5.3601    0.0377    1.2833 C   0  0  0  0  0  0  0  0  0  0  0  0
   -4.2205   -1.7228   -0.0674 C   0  0  0  0  0  0  0  0  0  0  0  0
   -4.9546    0.4545   -1.1340 C   0  0  0  0  0  0  0  0  0  0  0  0
   -0.8213    0.3538    0.5102 N   0  0  0  0  0  0  0  0  0  0  0  0
    3.4076    0.1264   -0.8640 C   0  0  0  0  0  0  0  0  0  0  0  0
    4.7962    0.0953   -1.0481 C   0  0  0  0  0  0  0  0  0  0  0  0
    7.4901   -0.8537   -0.0719 H   0  0  0  0  0  0  0  0  0  0  0  0
    7.6677    0.7902    0.5896 H   0  0  0  0  0  0  0  0  0  0  0  0
    7.4307    0.5677   -1.1433 H   0  0  0  0  0  0  0  0  0  0  0  0
    5.7663    0.5106    2.1779 H   0  0  0  0  0  0  0  0  0  0  0  0
    3.3426    0.5681    2.4957 H   0  0  0  0  0  0  0  0  0  0  0  0
    1.1935    0.5115    1.6114 H   0  0  0  0  0  0  0  0  0  0  0  0
   -2.8557    0.3035    1.4981 H   0  0  0  0  0  0  0  0  0  0  0  0
   -4.9986   -0.4135    2.2150 H   0  0  0  0  0  0  0  0  0  0  0  0
   -6.3456   -0.3895    1.0662 H   0  0  0  0  0  0  0  0  0  0  0  0
   -5.4918    1.1100    1.4711 H   0  0  0  0  0  0  0  0  0  0  0  0
   -3.7766   -2.1910    0.8188 H   0  0  0  0  0  0  0  0  0  0  0  0
   -5.1932   -2.1956   -0.2451 H   0  0  0  0  0  0  0  0  0  0  0  0
   -3.5817   -1.9687   -0.9220 H   0  0  0  0  0  0  0  0  0  0  0  0
   -4.9759    1.5458   -1.0336 H   0  0  0  0  0  0  0  0  0  0  0  0
   -4.3822    0.2175   -2.0355 H   0  0  0  0  0  0  0  0  0  0  0  0
   -5.9808    0.1146   -1.3159 H   0  0  0  0  0  0  0  0  0  0  0  0
    2.7824    0.0055   -1.7430 H   0  0  0  0  0  0  0  0  0  0  0  0
    5.1908   -0.0509   -2.0513 H   0  0  0  0  0  0  0  0  0  0  0  0
  1  2  1  0
  2  3  2  0
  3  4  1  0
  4  5  2  0
  5  6  1  0
  6  7  1  0
  7  8  2  0
  8  9  1  0
  9 10  1  0
  9 11  2  0
 11 12  1  0
 12 13  1  0
 13 14  1  0
 14 15  1  0
 14 16  1  0
 14 17  1  0
 12 18  2  0
  5 19  1  0
 19 20  2  0
 20  2  1  0
 18  7  1  0
  1 21  1  0
  1 22  1  0
  1 23  1  0
  3 24  1  0
  4 25  1  0
  6 26  1  0
 13 27  1  0
 15 28  1  0
 15 29  1  0
 15 30  1  0
 16 31  1  0
 16 32  1  0
 16 33  1  0
 17 34  1  0
 17 35  1  0
 17 36  1  0
 19 37  1  0
 20 38  1  0
M  END
$$$$
