
     RDKit          3D

 57 59  0  0  0  0  0  0  0  0999 V2000
    5.2107   -4.0142   -0.3289 C   0  0  0  0  0  0  0  0  0  0  0  0
    5.4569   -2.8570   -1.3043 C   0  0  0  0  0  0  0  0  0  0  0  0
    6.5844   -1.9522   -0.7965 C   0  0  0  0  0  0  0  0  0  0  0  0
    4.1683   -2.0792   -1.6357 C   0  0  0  0  0  0  0  0  0  0  0  0
    3.5220   -1.3808   -0.4848 C   0  0  0  0  0  0  0  0  0  0  0  0
    3.7323   -0.0551   -0.0336 C   0  0  0  0  0  0  0  0  0  0  0  0
    2.8785    0.0798    1.0368 C   0  0  0  0  0  0  0  0  0  0  0  0
    2.5581    1.1751    1.9781 C   0  0  0  0  0  0  0  0  0  0  0  0
    1.4663    1.9368    1.4123 N   0  0  0  0  0  0  0  0  0  0  0  0
    0.2815    2.1293    2.0882 C   0  0  0  0  0  0  0  0  0  0  0  0
    0.1071    1.7878    3.2530 O   0  0  0  0  0  0  0  0  0  0  0  0
   -0.7976    2.7845    1.2386 C   0  0  0  0  0  0  0  0  0  0  0  0
   -2.0041    3.2093    2.0659 C   0  0  0  0  0  0  0  0  0  0  0  0
   -3.0281    3.8837    1.1696 C   0  0  0  0  0  0  0  0  0  0  0  0
   -3.3564    3.1350   -0.1120 C   0  0  0  0  0  0  0  0  0  0  0  0
   -4.4174    3.3553   -0.6968 O   0  0  0  0  0  0  0  0  0  0  0  0
   -2.3715    2.3049   -0.6341 N   0  0  0  0  0  0  0  0  0  0  0  0
   -2.6574    1.5897   -1.8806 C   0  0  0  0  0  0  0  0  0  0  0  0
   -3.2241    0.2048   -1.6546 C   0  0  0  0  0  0  0  0  0  0  0  0
   -2.3903   -0.9221   -1.6800 C   0  0  0  0  0  0  0  0  0  0  0  0
   -2.9109   -2.1939   -1.4490 C   0  0  0  0  0  0  0  0  0  0  0  0
   -4.2719   -2.3542   -1.1938 C   0  0  0  0  0  0  0  0  0  0  0  0
   -5.1294   -1.2442   -1.1676 C   0  0  0  0  0  0  0  0  0  0  0  0
   -6.5975   -1.4269   -0.8700 C   0  0  0  0  0  0  0  0  0  0  0  0
   -7.1170   -2.5481   -1.4502 F   0  0  0  0  0  0  0  0  0  0  0  0
   -6.8451   -1.5511    0.4634 F   0  0  0  0  0  0  0  0  0  0  0  0
   -7.3758   -0.3968   -1.3048 F   0  0  0  0  0  0  0  0  0  0  0  0
   -4.5914    0.0326   -1.3885 C   0  0  0  0  0  0  0  0  0  0  0  0
   -1.2827    1.7886    0.1915 C   0  0  0  0  0  0  0  0  0  0  0  0
    2.1886   -1.0821    1.2061 O   0  0  0  0  0  0  0  0  0  0  0  0
    2.5816   -2.0002    0.2486 N   0  0  0  0  0  0  0  0  0  0  0  0
    4.4072   -4.6631   -0.6934 H   0  0  0  0  0  0  0  0  0  0  0  0
    4.9388   -3.6590    0.6722 H   0  0  0  0  0  0  0  0  0  0  0  0
    6.1149   -4.6229   -0.2282 H   0  0  0  0  0  0  0  0  0  0  0  0
    5.8043   -3.2992   -2.2483 H   0  0  0  0  0  0  0  0  0  0  0  0
    7.5184   -2.5173   -0.6958 H   0  0  0  0  0  0  0  0  0  0  0  0
    6.7674   -1.1305   -1.5005 H   0  0  0  0  0  0  0  0  0  0  0  0
    6.3539   -1.5206    0.1848 H   0  0  0  0  0  0  0  0  0  0  0  0
    4.3917   -1.3388   -2.4132 H   0  0  0  0  0  0  0  0  0  0  0  0
    3.4443   -2.7662   -2.0896 H   0  0  0  0  0  0  0  0  0  0  0  0
    4.4101    0.6866   -0.4348 H   0  0  0  0  0  0  0  0  0  0  0  0
    2.3023    0.7824    2.9668 H   0  0  0  0  0  0  0  0  0  0  0  0
    3.4107    1.8544    2.0822 H   0  0  0  0  0  0  0  0  0  0  0  0
    1.5758    2.2956    0.4703 H   0  0  0  0  0  0  0  0  0  0  0  0
   -0.3623    3.6689    0.7548 H   0  0  0  0  0  0  0  0  0  0  0  0
   -2.4587    2.3399    2.5579 H   0  0  0  0  0  0  0  0  0  0  0  0
   -1.7022    3.8988    2.8630 H   0  0  0  0  0  0  0  0  0  0  0  0
   -3.9590    4.0187    1.7352 H   0  0  0  0  0  0  0  0  0  0  0  0
   -2.6675    4.8786    0.8774 H   0  0  0  0  0  0  0  0  0  0  0  0
   -3.3524    2.1688   -2.5007 H   0  0  0  0  0  0  0  0  0  0  0  0
   -1.7252    1.5307   -2.4571 H   0  0  0  0  0  0  0  0  0  0  0  0
   -1.3245   -0.8172   -1.8723 H   0  0  0  0  0  0  0  0  0  0  0  0
   -2.2533   -3.0618   -1.4632 H   0  0  0  0  0  0  0  0  0  0  0  0
   -4.6655   -3.3524   -1.0148 H   0  0  0  0  0  0  0  0  0  0  0  0
   -5.2441    0.9064   -1.3546 H   0  0  0  0  0  0  0  0  0  0  0  0
   -1.6354    0.8677    0.6774 H   0  0  0  0  0  0  0  0  0  0  0  0
   -0.4576    1.5125   -0.4788 H   0  0  0  0  0  0  0  0  0  0  0  0
  1  2  1  0
  2  3  1  0
  2  4  1  0
  4  5  1  0
  5  6  1  0
  6  7  2  0
  7  8  1  0
  8  9  1  0
  9 10  1  0
 10 11  2  0
 10 12  1  0
 12 13  1  0
 13 14  1  0
 14 15  1  0
 15 16  2  0
 15 17  1  0
 17 18  1  0
 18 19  1  0
 19 20  2  0
 20 21  1  0
 21 22  2  0
 22 23  1  0
 23 24  1  0
 24 25  1  0
 24 26  1  0
 24 27  1  0
 23 28  2  0
 17 29  1  0
  7 30  1  0
 30 31  1  0
 31  5  2  0
 29 12  1  0
 28 19  1  0
  1 32  1  0
  1 33  1  0
  1 34  1  0
  2 35  1  0
  3 36  1  0
  3 37  1  0
  3 38  1  0
  4 39  1  0
  4 40  1  0
  6 41  1  0
  8 42  1  0
  8 43  1  0
  9 44  1  0
 12 45  1  0
 13 46  1  0
 13 47  1  0
 14 48  1  0
 14 49  1  0
 18 50  1  0
 18 51  1  0
 20 52  1  0
 21 53  1  0
 22 54  1  0
 28 55  1  0
 29 56  1  0
 29 57  1  0
M  END
$$$$
