
     RDKit          3D

 47 49  0  0  0  0  0  0  0  0999 V2000
    8.2949   -1.1752   -1.0271 C   0  0  0  0  0  0  0  0  0  0  0  0
    6.9114   -1.2431   -0.4058 C   0  0  0  0  0  0  0  0  0  0  0  0
    6.0851   -0.2856   -1.0658 O   0  0  0  0  0  0  0  0  0  0  0  0
    4.7878   -0.1854   -0.6468 C   0  0  0  0  0  0  0  0  0  0  0  0
    4.1901   -0.9380    0.3643 C   0  0  0  0  0  0  0  0  0  0  0  0
    2.8453   -0.7330    0.6955 C   0  0  0  0  0  0  0  0  0  0  0  0
    2.0892    0.2271    0.0110 C   0  0  0  0  0  0  0  0  0  0  0  0
    0.7170    0.4318    0.3462 N   0  0  0  0  0  0  0  0  0  0  0  0
    0.1840    0.4303    1.6331 C   0  0  0  0  0  0  0  0  0  0  0  0
    0.9004    0.3151    2.7527 O   0  0  0  0  0  0  0  0  0  0  0  0
   -1.1725    0.6369    1.5295 C   0  0  0  0  0  0  0  0  0  0  0  0
   -1.4984    0.8323    0.1669 C   0  0  0  0  0  0  0  0  0  0  0  0
   -2.7469    1.0810   -0.3377 N   0  0  0  0  0  0  0  0  0  0  0  0
   -2.9689    1.1879   -1.7778 C   0  0  0  0  0  0  0  0  0  0  0  0
   -3.8748    1.4809    0.5094 C   0  0  0  0  0  0  0  0  0  0  0  0
   -4.9668    0.4297    0.5397 C   0  0  0  0  0  0  0  0  0  0  0  0
   -4.6699   -0.9202    0.7815 C   0  0  0  0  0  0  0  0  0  0  0  0
   -5.6866   -1.8752    0.8379 C   0  0  0  0  0  0  0  0  0  0  0  0
   -7.0143   -1.4917    0.6625 C   0  0  0  0  0  0  0  0  0  0  0  0
   -7.3264   -0.1535    0.4325 C   0  0  0  0  0  0  0  0  0  0  0  0
   -6.3099    0.8026    0.3753 C   0  0  0  0  0  0  0  0  0  0  0  0
   -0.3259    0.6630   -0.5575 C   0  0  0  0  0  0  0  0  0  0  0  0
   -0.1561    0.6484   -1.8859 O   0  0  0  0  0  0  0  0  0  0  0  0
    2.6862    0.9819   -1.0042 C   0  0  0  0  0  0  0  0  0  0  0  0
    4.0298    0.7726   -1.3250 C   0  0  0  0  0  0  0  0  0  0  0  0
    8.9705   -1.8930   -0.5537 H   0  0  0  0  0  0  0  0  0  0  0  0
    8.2466   -1.3896   -2.0999 H   0  0  0  0  0  0  0  0  0  0  0  0
    8.7161   -0.1698   -0.9215 H   0  0  0  0  0  0  0  0  0  0  0  0
    6.9867   -1.0085    0.6624 H   0  0  0  0  0  0  0  0  0  0  0  0
    6.5072   -2.2529   -0.5424 H   0  0  0  0  0  0  0  0  0  0  0  0
    4.7379   -1.7007    0.9086 H   0  0  0  0  0  0  0  0  0  0  0  0
    2.3963   -1.3667    1.4589 H   0  0  0  0  0  0  0  0  0  0  0  0
    1.8172    0.5877    2.5703 H   0  0  0  0  0  0  0  0  0  0  0  0
   -1.8370    0.6707    2.3809 H   0  0  0  0  0  0  0  0  0  0  0  0
   -2.6789    0.2631   -2.2882 H   0  0  0  0  0  0  0  0  0  0  0  0
   -2.4102    2.0321   -2.1962 H   0  0  0  0  0  0  0  0  0  0  0  0
   -4.0259    1.3562   -2.0143 H   0  0  0  0  0  0  0  0  0  0  0  0
   -4.2793    2.4257    0.1222 H   0  0  0  0  0  0  0  0  0  0  0  0
   -3.5817    1.6995    1.5421 H   0  0  0  0  0  0  0  0  0  0  0  0
   -3.6367   -1.2333    0.9169 H   0  0  0  0  0  0  0  0  0  0  0  0
   -5.4392   -2.9180    1.0179 H   0  0  0  0  0  0  0  0  0  0  0  0
   -7.8051   -2.2357    0.7061 H   0  0  0  0  0  0  0  0  0  0  0  0
   -8.3623    0.1466    0.2986 H   0  0  0  0  0  0  0  0  0  0  0  0
   -6.5741    1.8427    0.1991 H   0  0  0  0  0  0  0  0  0  0  0  0
    0.6115    0.0884   -2.0947 H   0  0  0  0  0  0  0  0  0  0  0  0
    2.1412    1.7658   -1.5273 H   0  0  0  0  0  0  0  0  0  0  0  0
    4.4951    1.3692   -2.1071 H   0  0  0  0  0  0  0  0  0  0  0  0
  1  2  1  0
  2  3  1  0
  3  4  1  0
  4  5  2  0
  5  6  1  0
  6  7  2  0
  7  8  1  0
  8  9  1  0
  9 10  1  0
  9 11  2  0
 11 12  1  0
 12 13  1  0
 13 14  1  0
 13 15  1  0
 15 16  1  0
 16 17  2  0
 17 18  1  0
 18 19  2  0
 19 20  1  0
 20 21  2  0
 12 22  2  0
 22 23  1  0
  7 24  1  0
 24 25  2  0
 25  4  1  0
 22  8  1  0
 21 16  1  0
  1 26  1  0
  1 27  1  0
  1 28  1  0
  2 29  1  0
  2 30  1  0
  5 31  1  0
  6 32  1  0
 10 33  1  0
 11 34  1  0
 14 35  1  0
 14 36  1  0
 14 37  1  0
 15 38  1  0
 15 39  1  0
 17 40  1  0
 18 41  1  0
 19 42  1  0
 20 43  1  0
 21 44  1  0
 23 45  1  0
 24 46  1  0
 25 47  1  0
M  END
$$$$
