
     RDKit          3D

 55 57  0  0  0  0  0  0  0  0999 V2000
   -1.5853    1.2872    3.5018 C   0  0  0  0  0  0  0  0  0  0  0  0
   -1.8691    0.5950    2.1653 C   0  0  0  0  0  0  0  0  0  0  0  0
   -2.2496   -0.8692    2.4091 C   0  0  0  0  0  0  0  0  0  0  0  0
   -0.6992    0.7765    1.1703 C   0  0  0  0  0  0  0  0  0  0  0  0
   -1.1715    0.3914   -0.1897 N   0  0  0  0  0  0  0  0  0  0  0  0
   -0.3445    1.0485   -1.5021 S   0  0  0  0  0  6  0  0  0  0  0  0
   -0.6753    0.2325   -2.6472 O   0  0  0  0  0  0  0  0  0  0  0  0
    1.0240    1.2844   -1.0969 O   0  0  0  0  0  0  0  0  0  0  0  0
   -1.1740    2.6026   -1.6957 C   0  0  0  0  0  0  0  0  0  0  0  0
   -2.4799    2.6197   -2.1985 C   0  0  0  0  0  0  0  0  0  0  0  0
   -3.1481    3.8372   -2.3372 C   0  0  0  0  0  0  0  0  0  0  0  0
   -2.5098    5.0233   -1.9773 C   0  0  0  0  0  0  0  0  0  0  0  0
   -1.1885    5.0001   -1.5115 C   0  0  0  0  0  0  0  0  0  0  0  0
   -0.5187    3.7885   -1.3578 C   0  0  0  0  0  0  0  0  0  0  0  0
   -0.4925    6.1329   -1.1743 O   0  0  0  0  0  0  0  0  0  0  0  0
   -1.1322    7.3108   -1.6808 C   0  0  0  0  0  0  0  0  0  0  0  0
   -2.6273    7.2663   -1.4083 C   0  0  0  0  0  0  0  0  0  0  0  0
   -3.2385    6.1784   -2.1129 O   0  0  0  0  0  0  0  0  0  0  0  0
    0.5528   -0.0021    1.5804 C   0  0  0  0  0  0  0  0  0  0  0  0
    1.3567    0.3699    2.4253 O   0  0  0  0  0  0  0  0  0  0  0  0
    0.6207   -1.1932    0.9232 O   0  0  0  0  0  0  0  0  0  0  0  0
    1.7741   -1.9710    1.2341 C   0  0  0  0  0  0  0  0  0  0  0  0
    1.6670   -3.3532    0.5866 C   0  0  0  0  0  0  0  0  0  0  0  0
    0.6581   -3.7137   -0.0139 O   0  0  0  0  0  0  0  0  0  0  0  0
    2.8120   -4.1101    0.7867 N   0  0  0  0  0  0  0  0  0  0  0  0
    3.0820   -5.4266    0.3322 C   0  0  0  0  0  0  0  0  0  0  0  0
    2.1931   -6.1502   -0.4722 C   0  0  0  0  0  0  0  0  0  0  0  0
    2.5036   -7.4479   -0.8888 C   0  0  0  0  0  0  0  0  0  0  0  0
    3.7045   -8.0426   -0.5023 C   0  0  0  0  0  0  0  0  0  0  0  0
    4.6094   -7.3348    0.2914 C   0  0  0  0  0  0  0  0  0  0  0  0
    6.0831   -8.1323    0.7267 Cl  0  0  0  0  0  0  0  0  0  0  0  0
    4.3063   -6.0285    0.7068 C   0  0  0  0  0  0  0  0  0  0  0  0
    5.4273   -5.1257    1.6889 Cl  0  0  0  0  0  0  0  0  0  0  0  0
   -1.3248    2.3399    3.3499 H   0  0  0  0  0  0  0  0  0  0  0  0
   -2.4713    1.2545    4.1462 H   0  0  0  0  0  0  0  0  0  0  0  0
   -0.7641    0.8061    4.0416 H   0  0  0  0  0  0  0  0  0  0  0  0
   -2.7507    1.0886    1.7336 H   0  0  0  0  0  0  0  0  0  0  0  0
   -2.4785   -1.3861    1.4722 H   0  0  0  0  0  0  0  0  0  0  0  0
   -1.4496   -1.4178    2.9161 H   0  0  0  0  0  0  0  0  0  0  0  0
   -3.1428   -0.9300    3.0409 H   0  0  0  0  0  0  0  0  0  0  0  0
   -0.4284    1.8398    1.1443 H   0  0  0  0  0  0  0  0  0  0  0  0
   -1.3200   -0.6113   -0.3373 H   0  0  0  0  0  0  0  0  0  0  0  0
   -2.9787    1.6932   -2.4731 H   0  0  0  0  0  0  0  0  0  0  0  0
   -4.1674    3.8617   -2.7154 H   0  0  0  0  0  0  0  0  0  0  0  0
    0.5025    3.7808   -0.9851 H   0  0  0  0  0  0  0  0  0  0  0  0
   -0.9202    7.3899   -2.7555 H   0  0  0  0  0  0  0  0  0  0  0  0
   -0.6808    8.1738   -1.1793 H   0  0  0  0  0  0  0  0  0  0  0  0
   -3.1034    8.1915   -1.7502 H   0  0  0  0  0  0  0  0  0  0  0  0
   -2.8356    7.1490   -0.3368 H   0  0  0  0  0  0  0  0  0  0  0  0
    1.8553   -2.1147    2.3180 H   0  0  0  0  0  0  0  0  0  0  0  0
    2.6656   -1.4683    0.8428 H   0  0  0  0  0  0  0  0  0  0  0  0
    3.5546   -3.6974    1.3488 H   0  0  0  0  0  0  0  0  0  0  0  0
    1.2407   -5.7360   -0.7958 H   0  0  0  0  0  0  0  0  0  0  0  0
    1.7966   -7.9961   -1.5093 H   0  0  0  0  0  0  0  0  0  0  0  0
    3.9303   -9.0552   -0.8287 H   0  0  0  0  0  0  0  0  0  0  0  0
  1  2  1  0
  2  3  1  0
  2  4  1  0
  4  5  1  0
  5  6  1  0
  6  7  2  0
  6  8  2  0
  6  9  1  0
  9 10  2  0
 10 11  1  0
 11 12  2  0
 12 13  1  0
 13 14  2  0
 13 15  1  0
 15 16  1  0
 16 17  1  0
 17 18  1  0
  4 19  1  0
 19 20  2  0
 19 21  1  0
 21 22  1  0
 22 23  1  0
 23 24  2  0
 23 25  1  0
 25 26  1  0
 26 27  2  0
 27 28  1  0
 28 29  2  0
 29 30  1  0
 30 31  1  0
 30 32  2  0
 32 33  1  0
 14  9  1  0
 32 26  1  0
 18 12  1  0
  1 34  1  0
  1 35  1  0
  1 36  1  0
  2 37  1  0
  3 38  1  0
  3 39  1  0
  3 40  1  0
  4 41  1  0
  5 42  1  0
 10 43  1  0
 11 44  1  0
 14 45  1  0
 16 46  1  0
 16 47  1  0
 17 48  1  0
 17 49  1  0
 22 50  1  0
 22 51  1  0
 25 52  1  0
 27 53  1  0
 28 54  1  0
 29 55  1  0
M  END
$$$$
