
     RDKit          3D

 61 64  0  0  0  0  0  0  0  0999 V2000
    8.1032   -1.2257    1.1665 C   0  0  0  0  0  0  0  0  0  0  0  0
    6.9749   -1.6010    0.2427 C   0  0  0  0  0  0  0  0  0  0  0  0
    7.0346   -2.8367   -0.4137 C   0  0  0  0  0  0  0  0  0  0  0  0
    6.0224   -3.2215   -1.2824 C   0  0  0  0  0  0  0  0  0  0  0  0
    4.9296   -2.3819   -1.4942 C   0  0  0  0  0  0  0  0  0  0  0  0
    4.8201   -1.1359   -0.8542 C   0  0  0  0  0  0  0  0  0  0  0  0
    3.6922   -0.3268   -1.0367 N   0  0  0  0  0  0  0  0  0  0  0  0
    2.8421   -0.1382    0.1600 C   0  0  0  0  0  0  0  0  0  0  0  0
    1.3435   -0.3534   -0.1355 C   0  0  0  0  0  0  0  0  0  0  0  0
    0.8647    0.4234   -1.2907 N   0  0  0  0  0  0  0  0  0  0  0  0
   -0.3670    1.0576   -1.3810 C   0  0  0  0  0  0  0  0  0  0  0  0
   -0.6346    1.8925   -2.2416 O   0  0  0  0  0  0  0  0  0  0  0  0
   -1.4256    0.7213   -0.4029 C   0  0  0  0  0  0  0  0  0  0  0  0
   -2.0657    1.7621    0.2787 C   0  0  0  0  0  0  0  0  0  0  0  0
   -3.0907    1.4759    1.1833 C   0  0  0  0  0  0  0  0  0  0  0  0
   -3.4798    0.1514    1.3929 C   0  0  0  0  0  0  0  0  0  0  0  0
   -4.5627   -0.1326    2.2734 N   0  0  0  0  0  0  0  0  0  0  0  0
   -6.0534   -0.5191    1.5656 S   0  0  0  0  0  6  0  0  0  0  0  0
   -5.8888   -1.6146    0.6376 O   0  0  0  0  0  0  0  0  0  0  0  0
   -7.0146   -0.5738    2.6451 O   0  0  0  0  0  0  0  0  0  0  0  0
   -6.5582    0.8089    0.6193 C   0  0  0  0  0  0  0  0  0  0  0  0
   -7.1768    1.9942    1.0752 C   0  0  0  0  0  0  0  0  0  0  0  0
   -7.5830    2.3828    2.4466 C   0  0  0  0  0  0  0  0  0  0  0  0
   -7.3891    2.8400    0.0581 N   0  0  0  0  0  0  0  0  0  0  0  0
   -6.9199    2.2001   -1.0740 O   0  0  0  0  0  0  0  0  0  0  0  0
   -6.4180    0.9808   -0.7365 C   0  0  0  0  0  0  0  0  0  0  0  0
   -5.8693    0.1739   -1.8426 C   0  0  0  0  0  0  0  0  0  0  0  0
   -2.8615   -0.8851    0.6907 C   0  0  0  0  0  0  0  0  0  0  0  0
   -1.8356   -0.6025   -0.2133 C   0  0  0  0  0  0  0  0  0  0  0  0
    1.8587    0.7032   -2.3336 C   0  0  0  0  0  0  0  0  0  0  0  0
    3.0019   -0.3244   -2.3386 C   0  0  0  0  0  0  0  0  0  0  0  0
    5.8838   -0.7280   -0.0040 C   0  0  0  0  0  0  0  0  0  0  0  0
    5.8617    0.6369    0.6454 C   0  0  0  0  0  0  0  0  0  0  0  0
    8.7250   -0.4505    0.7089 H   0  0  0  0  0  0  0  0  0  0  0  0
    7.7135   -0.8683    2.1246 H   0  0  0  0  0  0  0  0  0  0  0  0
    8.7450   -2.0860    1.3847 H   0  0  0  0  0  0  0  0  0  0  0  0
    7.8753   -3.5078   -0.2527 H   0  0  0  0  0  0  0  0  0  0  0  0
    6.0747   -4.1817   -1.7881 H   0  0  0  0  0  0  0  0  0  0  0  0
    4.1462   -2.7405   -2.1540 H   0  0  0  0  0  0  0  0  0  0  0  0
    2.9798    0.8910    0.5131 H   0  0  0  0  0  0  0  0  0  0  0  0
    3.1326   -0.8094    0.9783 H   0  0  0  0  0  0  0  0  0  0  0  0
    0.7651   -0.1042    0.7588 H   0  0  0  0  0  0  0  0  0  0  0  0
    1.1658   -1.4090   -0.3731 H   0  0  0  0  0  0  0  0  0  0  0  0
   -1.7712    2.7940    0.0958 H   0  0  0  0  0  0  0  0  0  0  0  0
   -3.5816    2.2961    1.7000 H   0  0  0  0  0  0  0  0  0  0  0  0
   -4.6899    0.5189    3.0471 H   0  0  0  0  0  0  0  0  0  0  0  0
   -7.8356    3.4473    2.5027 H   0  0  0  0  0  0  0  0  0  0  0  0
   -6.7720    2.1995    3.1588 H   0  0  0  0  0  0  0  0  0  0  0  0
   -8.4623    1.8124    2.7612 H   0  0  0  0  0  0  0  0  0  0  0  0
   -4.8427   -0.1348   -1.6272 H   0  0  0  0  0  0  0  0  0  0  0  0
   -6.4764   -0.7223   -2.0012 H   0  0  0  0  0  0  0  0  0  0  0  0
   -5.8554    0.7409   -2.7788 H   0  0  0  0  0  0  0  0  0  0  0  0
   -3.1812   -1.9149    0.8348 H   0  0  0  0  0  0  0  0  0  0  0  0
   -1.3773   -1.4100   -0.7785 H   0  0  0  0  0  0  0  0  0  0  0  0
    1.3600    0.7191   -3.3092 H   0  0  0  0  0  0  0  0  0  0  0  0
    2.2522    1.7094   -2.1430 H   0  0  0  0  0  0  0  0  0  0  0  0
    3.7111   -0.0710   -3.1350 H   0  0  0  0  0  0  0  0  0  0  0  0
    2.5752   -1.3110   -2.5553 H   0  0  0  0  0  0  0  0  0  0  0  0
    5.3325    1.3692    0.0270 H   0  0  0  0  0  0  0  0  0  0  0  0
    6.8707    1.0415    0.7699 H   0  0  0  0  0  0  0  0  0  0  0  0
    5.3819    0.5779    1.6271 H   0  0  0  0  0  0  0  0  0  0  0  0
  1  2  1  0
  2  3  2  0
  3  4  1  0
  4  5  2  0
  5  6  1  0
  6  7  1  0
  7  8  1  0
  8  9  1  0
  9 10  1  0
 10 11  1  0
 11 12  2  0
 11 13  1  0
 13 14  2  0
 14 15  1  0
 15 16  2  0
 16 17  1  0
 17 18  1  0
 18 19  2  0
 18 20  2  0
 18 21  1  0
 21 22  1  0
 22 23  1  0
 22 24  2  0
 24 25  1  0
 25 26  1  0
 26 27  1  0
 16 28  1  0
 28 29  2  0
 10 30  1  0
 30 31  1  0
  6 32  2  0
 32 33  1  0
 32  2  1  0
 31  7  1  0
 29 13  1  0
 26 21  2  0
  1 34  1  0
  1 35  1  0
  1 36  1  0
  3 37  1  0
  4 38  1  0
  5 39  1  0
  8 40  1  0
  8 41  1  0
  9 42  1  0
  9 43  1  0
 14 44  1  0
 15 45  1  0
 17 46  1  0
 23 47  1  0
 23 48  1  0
 23 49  1  0
 27 50  1  0
 27 51  1  0
 27 52  1  0
 28 53  1  0
 29 54  1  0
 30 55  1  0
 30 56  1  0
 31 57  1  0
 31 58  1  0
 33 59  1  0
 33 60  1  0
 33 61  1  0
M  END
$$$$
