
     RDKit          3D

 54 56  0  0  0  0  0  0  0  0999 V2000
    8.8409    0.2639   -1.8289 C   0  0  0  0  0  0  0  0  0  0  0  0
    7.6842   -0.3862   -2.3389 O   0  0  0  0  0  0  0  0  0  0  0  0
    6.4891   -0.0708   -1.7532 C   0  0  0  0  0  0  0  0  0  0  0  0
    6.3008    0.8265   -0.7021 C   0  0  0  0  0  0  0  0  0  0  0  0
    5.0167    1.0585   -0.1938 C   0  0  0  0  0  0  0  0  0  0  0  0
    3.9037    0.3989   -0.7316 C   0  0  0  0  0  0  0  0  0  0  0  0
    2.5158    0.6462   -0.1864 C   0  0  0  0  0  0  0  0  0  0  0  0
    2.0024   -0.5480    0.4859 N   0  0  0  0  0  0  0  0  0  0  0  0
    0.7387   -0.3116    1.1880 C   0  0  0  0  0  0  0  0  0  0  0  0
   -0.4499   -0.1438    0.2310 C   0  0  0  0  0  0  0  0  0  0  0  0
   -1.7882    0.0753    0.9829 C   0  0  0  0  0  0  0  0  0  0  0  0
   -2.2017   -1.1367    1.8145 C   0  0  0  0  0  0  0  0  0  0  0  0
   -2.4342   -2.3890    1.2192 C   0  0  0  0  0  0  0  0  0  0  0  0
   -2.8133   -3.4853    1.9958 C   0  0  0  0  0  0  0  0  0  0  0  0
   -2.9647   -3.3341    3.3678 C   0  0  0  0  0  0  0  0  0  0  0  0
   -3.3288   -4.3864    4.1124 F   0  0  0  0  0  0  0  0  0  0  0  0
   -2.7461   -2.1065    3.9795 C   0  0  0  0  0  0  0  0  0  0  0  0
   -2.3669   -1.0085    3.2054 C   0  0  0  0  0  0  0  0  0  0  0  0
   -2.9327    0.5505    0.0866 C   0  0  0  0  0  0  0  0  0  0  0  0
   -3.9487    1.3486    0.6401 C   0  0  0  0  0  0  0  0  0  0  0  0
   -5.0251    1.7958   -0.1358 C   0  0  0  0  0  0  0  0  0  0  0  0
   -5.1094    1.4483   -1.4820 C   0  0  0  0  0  0  0  0  0  0  0  0
   -6.1005    1.8153   -2.3496 O   0  0  0  0  0  0  0  0  0  0  0  0
   -7.1549    2.6091   -1.8207 C   0  0  0  0  0  0  0  0  0  0  0  0
   -4.1107    0.6491   -2.0394 C   0  0  0  0  0  0  0  0  0  0  0  0
   -3.0356    0.1997   -1.2662 C   0  0  0  0  0  0  0  0  0  0  0  0
    4.1013   -0.5039   -1.7841 C   0  0  0  0  0  0  0  0  0  0  0  0
    5.3832   -0.7340   -2.2886 C   0  0  0  0  0  0  0  0  0  0  0  0
    8.7764    1.3488   -1.9634 H   0  0  0  0  0  0  0  0  0  0  0  0
    9.7034   -0.0912   -2.4011 H   0  0  0  0  0  0  0  0  0  0  0  0
    9.0085    0.0041   -0.7784 H   0  0  0  0  0  0  0  0  0  0  0  0
    7.1300    1.3624   -0.2532 H   0  0  0  0  0  0  0  0  0  0  0  0
    4.8945    1.7608    0.6278 H   0  0  0  0  0  0  0  0  0  0  0  0
    1.8720    0.9350   -1.0249 H   0  0  0  0  0  0  0  0  0  0  0  0
    2.5430    1.4942    0.5088 H   0  0  0  0  0  0  0  0  0  0  0  0
    2.7038   -0.8552    1.1608 H   0  0  0  0  0  0  0  0  0  0  0  0
    0.8259    0.5536    1.8562 H   0  0  0  0  0  0  0  0  0  0  0  0
    0.5626   -1.1831    1.8282 H   0  0  0  0  0  0  0  0  0  0  0  0
   -0.2728    0.7248   -0.4156 H   0  0  0  0  0  0  0  0  0  0  0  0
   -0.5046   -1.0203   -0.4269 H   0  0  0  0  0  0  0  0  0  0  0  0
   -1.5929    0.9090    1.6746 H   0  0  0  0  0  0  0  0  0  0  0  0
   -2.3279   -2.5191    0.1445 H   0  0  0  0  0  0  0  0  0  0  0  0
   -2.9938   -4.4524    1.5379 H   0  0  0  0  0  0  0  0  0  0  0  0
   -2.8743   -2.0121    5.0529 H   0  0  0  0  0  0  0  0  0  0  0  0
   -2.2026   -0.0517    3.6961 H   0  0  0  0  0  0  0  0  0  0  0  0
   -3.9129    1.6262    1.6918 H   0  0  0  0  0  0  0  0  0  0  0  0
   -5.7790    2.4093    0.3453 H   0  0  0  0  0  0  0  0  0  0  0  0
   -7.8628    2.8075   -2.6313 H   0  0  0  0  0  0  0  0  0  0  0  0
   -6.7810    3.5738   -1.4621 H   0  0  0  0  0  0  0  0  0  0  0  0
   -7.6939    2.0750   -1.0313 H   0  0  0  0  0  0  0  0  0  0  0  0
   -4.1717    0.3680   -3.0882 H   0  0  0  0  0  0  0  0  0  0  0  0
   -2.2900   -0.4305   -1.7433 H   0  0  0  0  0  0  0  0  0  0  0  0
    3.2542   -1.0385   -2.2088 H   0  0  0  0  0  0  0  0  0  0  0  0
    5.5206   -1.4394   -3.1040 H   0  0  0  0  0  0  0  0  0  0  0  0
  1  2  1  0
  2  3  1  0
  3  4  2  0
  4  5  1  0
  5  6  2  0
  6  7  1  0
  7  8  1  0
  8  9  1  0
  9 10  1  0
 10 11  1  0
 11 12  1  0
 12 13  2  0
 13 14  1  0
 14 15  2  0
 15 16  1  0
 15 17  1  0
 17 18  2  0
 11 19  1  0
 19 20  2  0
 20 21  1  0
 21 22  2  0
 22 23  1  0
 23 24  1  0
 22 25  1  0
 25 26  2  0
  6 27  1  0
 27 28  2  0
 28  3  1  0
 18 12  1  0
 26 19  1  0
  1 29  1  0
  1 30  1  0
  1 31  1  0
  4 32  1  0
  5 33  1  0
  7 34  1  0
  7 35  1  0
  8 36  1  0
  9 37  1  0
  9 38  1  0
 10 39  1  0
 10 40  1  0
 11 41  1  0
 13 42  1  0
 14 43  1  0
 17 44  1  0
 18 45  1  0
 20 46  1  0
 21 47  1  0
 24 48  1  0
 24 49  1  0
 24 50  1  0
 25 51  1  0
 26 52  1  0
 27 53  1  0
 28 54  1  0
M  END
$$$$
