
     RDKit          3D

 72 74  0  0  0  0  0  0  0  0999 V2000
   10.0863    4.1064   -1.6640 C   0  0  0  0  0  0  0  0  0  0  0  0
    9.2370    3.0332   -0.9999 C   0  0  0  0  0  0  0  0  0  0  0  0
    7.7759    3.1303   -1.4370 C   0  0  0  0  0  0  0  0  0  0  0  0
    6.8577    2.1201   -0.7405 C   0  0  0  0  0  0  0  0  0  0  0  0
    7.1353    0.6709   -1.1518 C   0  0  0  0  0  0  0  0  0  0  0  0
    6.1766   -0.3421   -0.5151 C   0  0  0  0  0  0  0  0  0  0  0  0
    4.7310   -0.1992   -0.9979 C   0  0  0  0  0  0  0  0  0  0  0  0
    3.8636   -1.3616   -0.5070 C   0  0  0  0  0  0  0  0  0  0  0  0
    2.4120   -1.2008   -0.9562 C   0  0  0  0  0  0  0  0  0  0  0  0
    1.5691   -2.4156   -0.5836 C   0  0  0  0  0  0  0  0  0  0  0  0
    0.2207   -2.2102   -1.0464 O   0  0  0  0  0  0  0  0  0  0  0  0
   -0.6877   -1.8029   -0.1219 C   0  0  0  0  0  0  0  0  0  0  0  0
   -0.4629   -1.5890    1.0635 O   0  0  0  0  0  0  0  0  0  0  0  0
   -2.0486   -1.5876   -0.7713 C   0  0  0  0  0  0  0  0  0  0  0  0
   -3.1580   -1.8829    0.1650 N   0  0  0  0  0  0  0  0  0  0  0  0
   -3.4326   -1.1845    1.2989 C   0  0  0  0  0  0  0  0  0  0  0  0
   -2.7874    0.1115    1.7763 C   0  0  0  0  0  0  0  0  0  0  0  0
   -3.7340    1.0672    2.2526 O   0  0  0  0  0  0  0  0  0  0  0  0
   -4.6053    1.5983    1.3425 C   0  0  0  0  0  0  0  0  0  0  0  0
   -4.3819    1.7129   -0.0280 C   0  0  0  0  0  0  0  0  0  0  0  0
   -5.3704    2.2584   -0.8519 C   0  0  0  0  0  0  0  0  0  0  0  0
   -6.5748    2.7060   -0.3084 C   0  0  0  0  0  0  0  0  0  0  0  0
   -6.7948    2.6347    1.0692 C   0  0  0  0  0  0  0  0  0  0  0  0
   -8.0859    3.1120    1.6673 C   0  0  0  0  0  0  0  0  0  0  0  0
   -5.8024    2.0767    1.8862 C   0  0  0  0  0  0  0  0  0  0  0  0
   -4.4056   -1.8648    1.9513 N   0  0  0  0  0  4  0  0  0  0  0  0
   -4.9240   -1.5039    3.2703 C   0  0  0  0  0  0  0  0  0  0  0  0
   -4.8638   -2.9173    1.1722 C   0  0  0  0  0  0  0  0  0  0  0  0
   -5.8922   -3.8353    1.3754 C   0  0  0  0  0  0  0  0  0  0  0  0
   -6.0671   -4.8002    0.3752 C   0  0  0  0  0  0  0  0  0  0  0  0
   -5.2451   -4.8373   -0.7648 C   0  0  0  0  0  0  0  0  0  0  0  0
   -4.2164   -3.9062   -0.9620 C   0  0  0  0  0  0  0  0  0  0  0  0
   -4.0538   -2.9442    0.0350 C   0  0  0  0  0  0  0  0  0  0  0  0
   11.1304    4.0102   -1.3500 H   0  0  0  0  0  0  0  0  0  0  0  0
    9.7388    5.1079   -1.3895 H   0  0  0  0  0  0  0  0  0  0  0  0
   10.0506    4.0159   -2.7539 H   0  0  0  0  0  0  0  0  0  0  0  0
    9.3081    3.1401    0.0876 H   0  0  0  0  0  0  0  0  0  0  0  0
    9.6500    2.0539   -1.2588 H   0  0  0  0  0  0  0  0  0  0  0  0
    7.4033    4.1379   -1.2171 H   0  0  0  0  0  0  0  0  0  0  0  0
    7.7052    3.0006   -2.5231 H   0  0  0  0  0  0  0  0  0  0  0  0
    6.9515    2.2217    0.3470 H   0  0  0  0  0  0  0  0  0  0  0  0
    5.8252    2.3837   -0.9960 H   0  0  0  0  0  0  0  0  0  0  0  0
    7.0874    0.5795   -2.2441 H   0  0  0  0  0  0  0  0  0  0  0  0
    8.1541    0.3957   -0.8545 H   0  0  0  0  0  0  0  0  0  0  0  0
    6.5379   -1.3489   -0.7601 H   0  0  0  0  0  0  0  0  0  0  0  0
    6.2142   -0.2514    0.5777 H   0  0  0  0  0  0  0  0  0  0  0  0
    4.7104   -0.1690   -2.0952 H   0  0  0  0  0  0  0  0  0  0  0  0
    4.3074    0.7454   -0.6371 H   0  0  0  0  0  0  0  0  0  0  0  0
    3.9044   -1.4179    0.5883 H   0  0  0  0  0  0  0  0  0  0  0  0
    4.2661   -2.3061   -0.8956 H   0  0  0  0  0  0  0  0  0  0  0  0
    1.9764   -0.2973   -0.5110 H   0  0  0  0  0  0  0  0  0  0  0  0
    2.3635   -1.0530   -2.0427 H   0  0  0  0  0  0  0  0  0  0  0  0
    1.6061   -2.6181    0.4925 H   0  0  0  0  0  0  0  0  0  0  0  0
    1.9478   -3.3074   -1.0941 H   0  0  0  0  0  0  0  0  0  0  0  0
   -2.1290   -0.5483   -1.0996 H   0  0  0  0  0  0  0  0  0  0  0  0
   -2.1354   -2.2311   -1.6497 H   0  0  0  0  0  0  0  0  0  0  0  0
   -2.1589   -0.1900    2.6197 H   0  0  0  0  0  0  0  0  0  0  0  0
   -2.1459    0.5176    0.9932 H   0  0  0  0  0  0  0  0  0  0  0  0
   -3.4474    1.4248   -0.4914 H   0  0  0  0  0  0  0  0  0  0  0  0
   -5.1996    2.3547   -1.9219 H   0  0  0  0  0  0  0  0  0  0  0  0
   -7.3319    3.1314   -0.9655 H   0  0  0  0  0  0  0  0  0  0  0  0
   -7.8972    3.6748    2.5880 H   0  0  0  0  0  0  0  0  0  0  0  0
   -8.6203    3.7770    0.9805 H   0  0  0  0  0  0  0  0  0  0  0  0
   -8.7304    2.2575    1.8949 H   0  0  0  0  0  0  0  0  0  0  0  0
   -5.9664    2.0151    2.9600 H   0  0  0  0  0  0  0  0  0  0  0  0
   -5.3272   -2.3875    3.7726 H   0  0  0  0  0  0  0  0  0  0  0  0
   -4.1160   -1.1113    3.8897 H   0  0  0  0  0  0  0  0  0  0  0  0
   -5.7130   -0.7591    3.1539 H   0  0  0  0  0  0  0  0  0  0  0  0
   -6.5229   -3.8077    2.2552 H   0  0  0  0  0  0  0  0  0  0  0  0
   -6.8585   -5.5427    0.4828 H   0  0  0  0  0  0  0  0  0  0  0  0
   -5.4167   -5.6094   -1.5160 H   0  0  0  0  0  0  0  0  0  0  0  0
   -3.5926   -3.9419   -1.8449 H   0  0  0  0  0  0  0  0  0  0  0  0
  1  2  1  0
  2  3  1  0
  3  4  1  0
  4  5  1  0
  5  6  1  0
  6  7  1  0
  7  8  1  0
  8  9  1  0
  9 10  1  0
 10 11  1  0
 11 12  1  0
 12 13  2  0
 12 14  1  0
 14 15  1  0
 15 16  1  0
 16 17  1  0
 17 18  1  0
 18 19  1  0
 19 20  2  0
 20 21  1  0
 21 22  2  0
 22 23  1  0
 23 24  1  0
 23 25  2  0
 16 26  2  0
 26 27  1  0
 26 28  1  0
 28 29  2  0
 29 30  1  0
 30 31  2  0
 31 32  1  0
 32 33  2  0
 33 15  1  0
 25 19  1  0
 33 28  1  0
  1 34  1  0
  1 35  1  0
  1 36  1  0
  2 37  1  0
  2 38  1  0
  3 39  1  0
  3 40  1  0
  4 41  1  0
  4 42  1  0
  5 43  1  0
  5 44  1  0
  6 45  1  0
  6 46  1  0
  7 47  1  0
  7 48  1  0
  8 49  1  0
  8 50  1  0
  9 51  1  0
  9 52  1  0
 10 53  1  0
 10 54  1  0
 14 55  1  0
 14 56  1  0
 17 57  1  0
 17 58  1  0
 20 59  1  0
 21 60  1  0
 22 61  1  0
 24 62  1  0
 24 63  1  0
 24 64  1  0
 25 65  1  0
 27 66  1  0
 27 67  1  0
 27 68  1  0
 29 69  1  0
 30 70  1  0
 31 71  1  0
 32 72  1  0
M  CHG  1  26   1
M  END
$$$$
