
     RDKit          3D

 46 48  0  0  0  0  0  0  0  0999 V2000
   -0.9715    0.5208    1.8070 O   0  0  0  0  0  0  0  0  0  0  0  0
   -1.3618    1.2132    0.8743 C   0  0  0  0  0  0  0  0  0  0  0  0
   -2.6529    1.6677    0.7422 N   0  0  0  0  0  0  0  0  0  0  0  0
   -3.7074    1.2769    1.6647 C   0  0  0  0  0  0  0  0  0  0  0  0
   -4.5917    0.1580    1.1078 C   0  0  0  0  0  0  0  0  0  0  0  0
   -3.9140   -1.1881    0.9116 C   0  0  0  0  0  0  0  0  0  0  0  0
   -4.8114   -1.8213   -0.1228 C   0  0  0  0  0  0  0  0  0  0  0  0
   -5.1461   -0.6422   -1.0125 C   0  0  0  0  0  0  0  0  0  0  0  0
   -5.1181    0.5328   -0.1856 O   0  0  0  0  0  0  0  0  0  0  0  0
   -0.4212    1.5724   -0.2201 C   0  0  0  0  0  0  0  0  0  0  0  0
   -0.5525    2.7532   -0.9538 C   0  0  0  0  0  0  0  0  0  0  0  0
    0.3622    3.0453   -1.9698 C   0  0  0  0  0  0  0  0  0  0  0  0
    1.4289    2.1776   -2.2496 C   0  0  0  0  0  0  0  0  0  0  0  0
    2.5227    2.6619   -3.7225 Br  0  0  0  0  0  0  0  0  0  0  0  0
    1.5853    1.0175   -1.4860 C   0  0  0  0  0  0  0  0  0  0  0  0
    2.9245   -0.1166   -1.7451 S   0  0  0  0  0  6  0  0  0  0  0  0
    4.1395    0.6132   -2.0338 O   0  0  0  0  0  0  0  0  0  0  0  0
    2.4194   -1.1394   -2.6353 O   0  0  0  0  0  0  0  0  0  0  0  0
    3.1813   -0.8389   -0.2105 N   0  0  0  0  0  0  0  0  0  0  0  0
    3.6779    0.0933    0.8644 C   0  0  0  0  0  0  0  0  0  0  0  0
    4.2979   -0.7038    2.0170 C   0  0  0  0  0  0  0  0  0  0  0  0
    5.4579   -1.4485    1.6214 O   0  0  0  0  0  0  0  0  0  0  0  0
    5.4239   -1.8591    0.2468 C   0  0  0  0  0  0  0  0  0  0  0  0
    4.0031   -2.0991   -0.2698 C   0  0  0  0  0  0  0  0  0  0  0  0
    0.6448    0.7070   -0.4890 C   0  0  0  0  0  0  0  0  0  0  0  0
   -2.9713    2.0215   -0.1514 H   0  0  0  0  0  0  0  0  0  0  0  0
   -4.3152    2.1769    1.8079 H   0  0  0  0  0  0  0  0  0  0  0  0
   -3.2812    0.9890    2.6310 H   0  0  0  0  0  0  0  0  0  0  0  0
   -5.4554    0.0331    1.7735 H   0  0  0  0  0  0  0  0  0  0  0  0
   -3.8431   -1.7661    1.8371 H   0  0  0  0  0  0  0  0  0  0  0  0
   -2.9077   -1.0832    0.4936 H   0  0  0  0  0  0  0  0  0  0  0  0
   -5.7223   -2.1999    0.3560 H   0  0  0  0  0  0  0  0  0  0  0  0
   -4.3432   -2.6460   -0.6665 H   0  0  0  0  0  0  0  0  0  0  0  0
   -6.1284   -0.7373   -1.4834 H   0  0  0  0  0  0  0  0  0  0  0  0
   -4.3932   -0.5122   -1.7971 H   0  0  0  0  0  0  0  0  0  0  0  0
   -1.3490    3.4620   -0.7420 H   0  0  0  0  0  0  0  0  0  0  0  0
    0.2312    3.9605   -2.5457 H   0  0  0  0  0  0  0  0  0  0  0  0
    4.4324    0.7744    0.4569 H   0  0  0  0  0  0  0  0  0  0  0  0
    2.8404    0.6822    1.2478 H   0  0  0  0  0  0  0  0  0  0  0  0
    3.5706   -1.4086    2.4366 H   0  0  0  0  0  0  0  0  0  0  0  0
    4.6023   -0.0285    2.8228 H   0  0  0  0  0  0  0  0  0  0  0  0
    5.9318   -1.0915   -0.3482 H   0  0  0  0  0  0  0  0  0  0  0  0
    6.0139   -2.7777    0.1677 H   0  0  0  0  0  0  0  0  0  0  0  0
    4.0433   -2.5066   -1.2842 H   0  0  0  0  0  0  0  0  0  0  0  0
    3.4927   -2.8425    0.3542 H   0  0  0  0  0  0  0  0  0  0  0  0
    0.7308   -0.2168    0.0825 H   0  0  0  0  0  0  0  0  0  0  0  0
  1  2  2  0
  2  3  1  0
  3  4  1  0
  4  5  1  0
  5  6  1  0
  6  7  1  0
  7  8  1  0
  8  9  1  0
  2 10  1  0
 10 11  2  0
 11 12  1  0
 12 13  2  0
 13 14  1  0
 13 15  1  0
 15 16  1  0
 16 17  2  0
 16 18  2  0
 16 19  1  0
 19 20  1  0
 20 21  1  0
 21 22  1  0
 22 23  1  0
 23 24  1  0
 15 25  2  0
  9  5  1  0
 25 10  1  0
 24 19  1  0
  3 26  1  0
  4 27  1  0
  4 28  1  0
  5 29  1  0
  6 30  1  0
  6 31  1  0
  7 32  1  0
  7 33  1  0
  8 34  1  0
  8 35  1  0
 11 36  1  0
 12 37  1  0
 20 38  1  0
 20 39  1  0
 21 40  1  0
 21 41  1  0
 23 42  1  0
 23 43  1  0
 24 44  1  0
 24 45  1  0
 25 46  1  0
M  END
$$$$
