
     RDKit          3D

 48 50  0  0  0  0  0  0  0  0999 V2000
   -0.3173   -1.3961   -1.4190 O   0  0  0  0  0  0  0  0  0  0  0  0
   -0.9325   -0.6574   -0.6466 C   0  0  0  0  0  0  0  0  0  0  0  0
   -0.2234    0.1558    0.4374 C   0  0  0  0  0  0  0  0  0  0  0  0
    1.2496    0.1812    0.2153 N   0  0  0  0  0  0  0  0  0  0  0  0
    1.7360    1.2984   -0.5456 C   0  0  0  0  0  0  0  0  0  0  0  0
    1.8574    1.1437   -1.9249 C   0  0  0  0  0  0  0  0  0  0  0  0
    2.2578    2.2201   -2.7166 C   0  0  0  0  0  0  0  0  0  0  0  0
    2.5183    3.4646   -2.1345 C   0  0  0  0  0  0  0  0  0  0  0  0
    3.0034    4.7468   -3.1830 Cl  0  0  0  0  0  0  0  0  0  0  0  0
    2.3727    3.6473   -0.7535 C   0  0  0  0  0  0  0  0  0  0  0  0
    2.6296    4.9809   -0.1058 C   0  0  0  0  0  0  0  0  0  0  0  0
    3.9029    5.4272   -0.2784 F   0  0  0  0  0  0  0  0  0  0  0  0
    2.4303    4.9656    1.2443 F   0  0  0  0  0  0  0  0  0  0  0  0
    1.8083    5.9613   -0.5741 F   0  0  0  0  0  0  0  0  0  0  0  0
    1.9666    2.5504    0.0334 C   0  0  0  0  0  0  0  0  0  0  0  0
    2.2031   -0.2672    1.5539 S   0  0  0  0  0  6  0  0  0  0  0  0
    1.7294    0.5085    2.6848 O   0  0  0  0  0  0  0  0  0  0  0  0
    3.5998   -0.2633    1.1753 O   0  0  0  0  0  0  0  0  0  0  0  0
    1.7420   -1.9618    1.8214 C   0  0  0  0  0  0  0  0  0  0  0  0
    1.2940   -2.3735    3.0799 C   0  0  0  0  0  0  0  0  0  0  0  0
    0.9151   -3.7025    3.2695 C   0  0  0  0  0  0  0  0  0  0  0  0
    0.9834   -4.6073    2.2081 C   0  0  0  0  0  0  0  0  0  0  0  0
    1.4340   -4.1897    0.9543 C   0  0  0  0  0  0  0  0  0  0  0  0
    1.8182   -2.8642    0.7568 C   0  0  0  0  0  0  0  0  0  0  0  0
   -2.3146   -0.5337   -0.7176 N   0  0  0  0  0  0  0  0  0  0  0  0
   -3.1440    0.2534    0.2010 C   0  0  0  0  0  0  0  0  0  0  0  0
   -4.5906   -0.2516    0.2141 C   0  0  0  0  0  0  0  0  0  0  0  0
   -5.2110   -0.2282   -1.0765 O   0  0  0  0  0  0  0  0  0  0  0  0
   -4.3110   -0.4678   -2.1685 C   0  0  0  0  0  0  0  0  0  0  0  0
   -3.0453   -1.2358   -1.7761 C   0  0  0  0  0  0  0  0  0  0  0  0
   -0.6173    1.1783    0.4512 H   0  0  0  0  0  0  0  0  0  0  0  0
   -0.4716   -0.3100    1.3965 H   0  0  0  0  0  0  0  0  0  0  0  0
    1.6552    0.1796   -2.3876 H   0  0  0  0  0  0  0  0  0  0  0  0
    2.3648    2.0793   -3.7901 H   0  0  0  0  0  0  0  0  0  0  0  0
    1.8372    2.6824    1.1073 H   0  0  0  0  0  0  0  0  0  0  0  0
    1.2438   -1.6750    3.9121 H   0  0  0  0  0  0  0  0  0  0  0  0
    0.5705   -4.0366    4.2454 H   0  0  0  0  0  0  0  0  0  0  0  0
    0.6888   -5.6434    2.3589 H   0  0  0  0  0  0  0  0  0  0  0  0
    1.4854   -4.8972    0.1301 H   0  0  0  0  0  0  0  0  0  0  0  0
    2.1641   -2.5405   -0.2231 H   0  0  0  0  0  0  0  0  0  0  0  0
   -3.1090    1.2884   -0.1578 H   0  0  0  0  0  0  0  0  0  0  0  0
   -2.7235    0.2200    1.2097 H   0  0  0  0  0  0  0  0  0  0  0  0
   -5.1995    0.3624    0.8851 H   0  0  0  0  0  0  0  0  0  0  0  0
   -4.6318   -1.2823    0.5856 H   0  0  0  0  0  0  0  0  0  0  0  0
   -4.0427    0.5088   -2.5880 H   0  0  0  0  0  0  0  0  0  0  0  0
   -4.8641   -1.0143   -2.9388 H   0  0  0  0  0  0  0  0  0  0  0  0
   -2.4045   -1.3837   -2.6512 H   0  0  0  0  0  0  0  0  0  0  0  0
   -3.3085   -2.2212   -1.3741 H   0  0  0  0  0  0  0  0  0  0  0  0
  1  2  2  0
  2  3  1  0
  3  4  1  0
  4  5  1  0
  5  6  2  0
  6  7  1  0
  7  8  2  0
  8  9  1  0
  8 10  1  0
 10 11  1  0
 11 12  1  0
 11 13  1  0
 11 14  1  0
 10 15  2  0
  4 16  1  0
 16 17  2  0
 16 18  2  0
 16 19  1  0
 19 20  2  0
 20 21  1  0
 21 22  2  0
 22 23  1  0
 23 24  2  0
  2 25  1  0
 25 26  1  0
 26 27  1  0
 27 28  1  0
 28 29  1  0
 29 30  1  0
 15  5  1  0
 24 19  1  0
 30 25  1  0
  3 31  1  0
  3 32  1  0
  6 33  1  0
  7 34  1  0
 15 35  1  0
 20 36  1  0
 21 37  1  0
 22 38  1  0
 23 39  1  0
 24 40  1  0
 26 41  1  0
 26 42  1  0
 27 43  1  0
 27 44  1  0
 29 45  1  0
 29 46  1  0
 30 47  1  0
 30 48  1  0
M  END
$$$$
