
     RDKit          3D

 38 39  0  0  0  0  0  0  0  0999 V2000
    1.7872   -0.8992   -2.4736 O   0  0  0  0  0  0  0  0  0  0  0  0
    1.6159   -0.0538   -1.6123 C   0  0  0  0  0  0  0  0  0  0  0  0
    1.7991    1.2985   -1.7739 N   0  0  0  0  0  0  0  0  0  0  0  0
    2.2444    1.8853   -3.0181 C   0  0  0  0  0  0  0  0  0  0  0  0
    3.7348    1.6716   -3.2794 C   0  0  0  0  0  0  0  0  0  0  0  0
    4.1329    2.4131   -4.4267 O   0  0  0  0  0  0  0  0  0  0  0  0
    1.1557   -0.4431   -0.2035 C   0  0  0  0  0  0  0  0  0  0  0  0
    0.7122   -1.8842   -0.0200 C   0  0  0  0  0  0  0  0  0  0  0  0
   -0.7810   -2.0037    0.1830 C   0  0  0  0  0  0  0  0  0  0  0  0
   -1.6709   -1.6181   -0.8304 C   0  0  0  0  0  0  0  0  0  0  0  0
   -3.0503   -1.6918   -0.6260 C   0  0  0  0  0  0  0  0  0  0  0  0
   -3.5458   -2.1606    0.5885 C   0  0  0  0  0  0  0  0  0  0  0  0
   -5.4132   -2.2473    0.8698 Br  0  0  0  0  0  0  0  0  0  0  0  0
   -2.6754   -2.5657    1.5970 C   0  0  0  0  0  0  0  0  0  0  0  0
   -1.2963   -2.4907    1.3932 C   0  0  0  0  0  0  0  0  0  0  0  0
    1.1570    0.5091    0.6889 N   0  0  0  0  0  0  0  0  0  0  0  0
    0.7434    0.1901    1.9563 C   0  0  0  0  0  0  0  0  0  0  0  0
    1.3340   -0.6168    2.6656 O   0  0  0  0  0  0  0  0  0  0  0  0
   -0.4421    0.9222    2.3875 C   0  0  0  0  0  0  0  0  0  0  0  0
   -1.0511    0.8392    3.6287 C   0  0  0  0  0  0  0  0  0  0  0  0
   -2.2072    1.6647    3.7349 C   0  0  0  0  0  0  0  0  0  0  0  0
   -2.4524    2.3535    2.5696 C   0  0  0  0  0  0  0  0  0  0  0  0
   -1.2918    2.0077    1.3643 S   0  0  0  0  0  0  0  0  0  0  0  0
    1.6618    1.8817   -0.9525 H   0  0  0  0  0  0  0  0  0  0  0  0
    1.6601    1.4596   -3.8423 H   0  0  0  0  0  0  0  0  0  0  0  0
    2.0147    2.9555   -2.9801 H   0  0  0  0  0  0  0  0  0  0  0  0
    4.3288    2.0134   -2.4251 H   0  0  0  0  0  0  0  0  0  0  0  0
    3.9532    0.6126   -3.4507 H   0  0  0  0  0  0  0  0  0  0  0  0
    5.0642    2.1892   -4.5979 H   0  0  0  0  0  0  0  0  0  0  0  0
    0.9928   -2.4962   -0.8838 H   0  0  0  0  0  0  0  0  0  0  0  0
    1.2595   -2.3144    0.8255 H   0  0  0  0  0  0  0  0  0  0  0  0
   -1.2994   -1.2576   -1.7885 H   0  0  0  0  0  0  0  0  0  0  0  0
   -3.7273   -1.3810   -1.4171 H   0  0  0  0  0  0  0  0  0  0  0  0
   -3.0572   -2.9376    2.5439 H   0  0  0  0  0  0  0  0  0  0  0  0
   -0.6269   -2.8044    2.1930 H   0  0  0  0  0  0  0  0  0  0  0  0
   -0.6777    0.2060    4.4258 H   0  0  0  0  0  0  0  0  0  0  0  0
   -2.8278    1.7464    4.6190 H   0  0  0  0  0  0  0  0  0  0  0  0
   -3.2580    3.0467    2.3675 H   0  0  0  0  0  0  0  0  0  0  0  0
  1  2  2  0
  2  3  1  0
  3  4  1  0
  4  5  1  0
  5  6  1  0
  2  7  1  0
  7  8  1  0
  8  9  1  0
  9 10  2  0
 10 11  1  0
 11 12  2  0
 12 13  1  0
 12 14  1  0
 14 15  2  0
  7 16  2  3
 16 17  1  0
 17 18  2  0
 17 19  1  0
 19 20  2  0
 20 21  1  0
 21 22  2  0
 22 23  1  0
 15  9  1  0
 23 19  1  0
  3 24  1  0
  4 25  1  0
  4 26  1  0
  5 27  1  0
  5 28  1  0
  6 29  1  0
  8 30  1  0
  8 31  1  0
 10 32  1  0
 11 33  1  0
 14 34  1  0
 15 35  1  0
 20 36  1  0
 21 37  1  0
 22 38  1  0
M  END
$$$$
