
     RDKit          3D

 42 45  0  0  0  0  0  0  0  0999 V2000
    5.5546    0.8488   -1.8411 C   0  0  0  0  0  0  0  0  0  0  0  0
    5.7007    0.0314   -0.6474 N   0  0  0  0  0  0  0  0  0  0  0  0
    6.2932    0.6885    0.5081 C   0  0  0  0  0  0  0  0  0  0  0  0
    5.0646   -1.2126   -0.6038 C   0  0  0  0  0  0  0  0  0  0  0  0
    4.5343   -1.6959   -1.6068 O   0  0  0  0  0  0  0  0  0  0  0  0
    5.1067   -1.9532    0.7336 C   0  0  0  0  0  0  0  0  0  0  0  0
    3.9313   -3.3344    0.8129 S   0  0  0  0  0  0  0  0  0  0  0  0
    2.4192   -2.4563    0.7110 C   0  0  0  0  0  0  0  0  0  0  0  0
    2.3283   -1.1976    1.0745 N   0  0  0  0  0  0  0  0  0  0  0  0
    1.0310   -0.7566    0.8838 C   0  0  0  0  0  0  0  0  0  0  0  0
    0.5510    0.5382    1.1338 C   0  0  0  0  0  0  0  0  0  0  0  0
   -0.7997    0.8431    0.8920 C   0  0  0  0  0  0  0  0  0  0  0  0
   -1.7093   -0.1072    0.4046 C   0  0  0  0  0  0  0  0  0  0  0  0
   -3.0825    0.2292    0.1629 N   0  0  0  0  0  0  0  0  0  0  0  0
   -4.0575   -0.6598   -0.2517 C   0  0  0  0  0  0  0  0  0  0  0  0
   -4.0280   -1.8548   -0.4894 O   0  0  0  0  0  0  0  0  0  0  0  0
   -5.3035    0.0886   -0.3797 C   0  0  0  0  0  0  0  0  0  0  0  0
   -6.5652   -0.3313   -0.7585 C   0  0  0  0  0  0  0  0  0  0  0  0
   -7.5829    0.6286   -0.7798 C   0  0  0  0  0  0  0  0  0  0  0  0
   -7.3183    1.9666   -0.4265 C   0  0  0  0  0  0  0  0  0  0  0  0
   -6.0320    2.3646   -0.0493 C   0  0  0  0  0  0  0  0  0  0  0  0
   -5.0451    1.3949   -0.0360 C   0  0  0  0  0  0  0  0  0  0  0  0
   -3.6304    1.4924    0.3066 C   0  0  0  0  0  0  0  0  0  0  0  0
   -3.1477    2.5625    0.6352 O   0  0  0  0  0  0  0  0  0  0  0  0
   -1.2217   -1.4053    0.1618 C   0  0  0  0  0  0  0  0  0  0  0  0
    0.1359   -1.7067    0.4002 C   0  0  0  0  0  0  0  0  0  0  0  0
    0.9735   -3.1952    0.1757 S   0  0  0  0  0  0  0  0  0  0  0  0
    6.5445    1.1987   -2.1529 H   0  0  0  0  0  0  0  0  0  0  0  0
    5.1018    0.2992   -2.6706 H   0  0  0  0  0  0  0  0  0  0  0  0
    4.9211    1.7090   -1.6007 H   0  0  0  0  0  0  0  0  0  0  0  0
    6.7181   -0.0403    1.2023 H   0  0  0  0  0  0  0  0  0  0  0  0
    5.5169    1.2718    1.0149 H   0  0  0  0  0  0  0  0  0  0  0  0
    7.0984    1.3562    0.1791 H   0  0  0  0  0  0  0  0  0  0  0  0
    4.8926   -1.2732    1.5629 H   0  0  0  0  0  0  0  0  0  0  0  0
    6.1149   -2.3590    0.8630 H   0  0  0  0  0  0  0  0  0  0  0  0
    1.2274    1.3013    1.5048 H   0  0  0  0  0  0  0  0  0  0  0  0
   -1.0972    1.8659    1.1080 H   0  0  0  0  0  0  0  0  0  0  0  0
   -6.7553   -1.3668   -1.0241 H   0  0  0  0  0  0  0  0  0  0  0  0
   -8.5919    0.3387   -1.0692 H   0  0  0  0  0  0  0  0  0  0  0  0
   -8.1254    2.6971   -0.4453 H   0  0  0  0  0  0  0  0  0  0  0  0
   -5.8142    3.3917    0.2267 H   0  0  0  0  0  0  0  0  0  0  0  0
   -1.8520   -2.2008   -0.2200 H   0  0  0  0  0  0  0  0  0  0  0  0
  1  2  1  0
  2  3  1  0
  2  4  1  0
  4  5  2  0
  4  6  1  0
  6  7  1  0
  7  8  1  0
  8  9  2  0
  9 10  1  0
 10 11  2  0
 11 12  1  0
 12 13  2  0
 13 14  1  0
 14 15  1  0
 15 16  2  0
 15 17  1  0
 17 18  2  0
 18 19  1  0
 19 20  2  0
 20 21  1  0
 21 22  2  0
 22 23  1  0
 23 24  2  0
 13 25  1  0
 25 26  2  0
 26 27  1  0
 27  8  1  0
 26 10  1  0
 23 14  1  0
 22 17  1  0
  1 28  1  0
  1 29  1  0
  1 30  1  0
  3 31  1  0
  3 32  1  0
  3 33  1  0
  6 34  1  0
  6 35  1  0
 11 36  1  0
 12 37  1  0
 18 38  1  0
 19 39  1  0
 20 40  1  0
 21 41  1  0
 25 42  1  0
M  END
$$$$
