
     RDKit          3D

 64 64  0  0  0  0  0  0  0  0999 V2000
   -5.1485   -1.2733    3.9857 C   0  0  0  0  0  0  0  0  0  0  0  0
   -4.0653   -0.3500    3.4499 C   0  0  0  0  0  0  0  0  0  0  0  0
   -4.5835    0.6919    2.4547 C   0  0  0  0  0  0  0  0  0  0  0  0
   -5.0975    0.0796    1.1490 C   0  0  0  0  0  0  0  0  0  0  0  0
   -5.6179    1.1219    0.1529 C   0  0  0  0  0  0  0  0  0  0  0  0
   -4.5975    2.1612   -0.3234 C   0  0  0  0  0  0  0  0  0  0  0  0
   -3.3067    1.6010   -0.9302 C   0  0  0  0  0  0  0  0  0  0  0  0
   -3.5405    0.7738   -2.1971 C   0  0  0  0  0  0  0  0  0  0  0  0
   -2.2545    0.1669   -2.7695 C   0  0  0  0  0  0  0  0  0  0  0  0
   -1.2557    1.2133   -3.2689 C   0  0  0  0  0  0  0  0  0  0  0  0
   -0.0632    0.6063   -4.0162 C   0  0  0  0  0  0  0  0  0  0  0  0
    0.7728   -0.4118   -3.2322 C   0  0  0  0  0  0  0  0  0  0  0  0
    1.3789    0.1576   -1.9471 C   0  0  0  0  0  0  0  0  0  0  0  0
    2.2196   -0.8598   -1.1675 C   0  0  0  0  0  0  0  0  0  0  0  0
    3.5257   -1.2378   -1.8716 C   0  0  0  0  0  0  0  0  0  0  0  0
    4.3612   -2.2412   -1.0798 C   0  0  0  0  0  0  0  0  0  0  0  0
    4.8901   -1.6277    0.1654 N   0  0  0  0  0  4  0  0  0  0  0  0
    4.3262   -1.9298    1.3596 C   0  0  0  0  0  0  0  0  0  0  0  0
    4.8121   -1.3737    2.5369 C   0  0  0  0  0  0  0  0  0  0  0  0
    5.8846   -0.4908    2.4730 C   0  0  0  0  0  0  0  0  0  0  0  0
    6.3935    0.0830    3.7351 C   0  0  0  0  0  0  0  0  0  0  0  0
    6.8639    1.2744    3.9485 N   0  0  0  0  0  0  0  0  0  0  0  0
    6.7797    2.1118    2.8346 O   0  0  0  0  0  0  0  0  0  0  0  0
    6.4779   -0.2159    1.2457 C   0  0  0  0  0  0  0  0  0  0  0  0
    5.9569   -0.7957    0.0980 C   0  0  0  0  0  0  0  0  0  0  0  0
   -4.7397   -1.9141    4.7732 H   0  0  0  0  0  0  0  0  0  0  0  0
   -5.5438   -1.9260    3.2021 H   0  0  0  0  0  0  0  0  0  0  0  0
   -5.9781   -0.7009    4.4117 H   0  0  0  0  0  0  0  0  0  0  0  0
   -3.2720   -0.9477    2.9862 H   0  0  0  0  0  0  0  0  0  0  0  0
   -3.6101    0.1776    4.2967 H   0  0  0  0  0  0  0  0  0  0  0  0
   -3.7592    1.3805    2.2381 H   0  0  0  0  0  0  0  0  0  0  0  0
   -5.3778    1.2848    2.9240 H   0  0  0  0  0  0  0  0  0  0  0  0
   -4.3102   -0.5249    0.6847 H   0  0  0  0  0  0  0  0  0  0  0  0
   -5.9243   -0.6061    1.3674 H   0  0  0  0  0  0  0  0  0  0  0  0
   -6.4624    1.6548    0.6084 H   0  0  0  0  0  0  0  0  0  0  0  0
   -6.0317    0.5961   -0.7159 H   0  0  0  0  0  0  0  0  0  0  0  0
   -4.3318    2.8157    0.5153 H   0  0  0  0  0  0  0  0  0  0  0  0
   -5.0853    2.8083   -1.0634 H   0  0  0  0  0  0  0  0  0  0  0  0
   -2.7682    1.0033   -0.1864 H   0  0  0  0  0  0  0  0  0  0  0  0
   -2.6599    2.4537   -1.1671 H   0  0  0  0  0  0  0  0  0  0  0  0
   -4.2250   -0.0531   -1.9775 H   0  0  0  0  0  0  0  0  0  0  0  0
   -4.0267    1.3942   -2.9596 H   0  0  0  0  0  0  0  0  0  0  0  0
   -2.5285   -0.4921   -3.6027 H   0  0  0  0  0  0  0  0  0  0  0  0
   -1.7899   -0.4650   -2.0041 H   0  0  0  0  0  0  0  0  0  0  0  0
   -1.7685    1.9031   -3.9509 H   0  0  0  0  0  0  0  0  0  0  0  0
   -0.8904    1.8208   -2.4345 H   0  0  0  0  0  0  0  0  0  0  0  0
    0.5909    1.4237   -4.3448 H   0  0  0  0  0  0  0  0  0  0  0  0
   -0.4289    0.1206   -4.9296 H   0  0  0  0  0  0  0  0  0  0  0  0
    1.5731   -0.7579   -3.8958 H   0  0  0  0  0  0  0  0  0  0  0  0
    0.1654   -1.2932   -2.9973 H   0  0  0  0  0  0  0  0  0  0  0  0
    1.9883    1.0389   -2.1798 H   0  0  0  0  0  0  0  0  0  0  0  0
    0.5743    0.4940   -1.2836 H   0  0  0  0  0  0  0  0  0  0  0  0
    2.4492   -0.4169   -0.1918 H   0  0  0  0  0  0  0  0  0  0  0  0
    1.6247   -1.7609   -0.9758 H   0  0  0  0  0  0  0  0  0  0  0  0
    3.3008   -1.6901   -2.8435 H   0  0  0  0  0  0  0  0  0  0  0  0
    4.1092   -0.3313   -2.0694 H   0  0  0  0  0  0  0  0  0  0  0  0
    5.2292   -2.5716   -1.6622 H   0  0  0  0  0  0  0  0  0  0  0  0
    3.7813   -3.1317   -0.8144 H   0  0  0  0  0  0  0  0  0  0  0  0
    3.4800   -2.6119    1.3607 H   0  0  0  0  0  0  0  0  0  0  0  0
    4.3404   -1.6160    3.4873 H   0  0  0  0  0  0  0  0  0  0  0  0
    6.3506   -0.5880    4.6112 H   0  0  0  0  0  0  0  0  0  0  0  0
    7.1115    2.9602    3.1918 H   0  0  0  0  0  0  0  0  0  0  0  0
    7.3446    0.4375    1.1755 H   0  0  0  0  0  0  0  0  0  0  0  0
    6.3860   -0.6037   -0.8821 H   0  0  0  0  0  0  0  0  0  0  0  0
  1  2  1  0
  2  3  1  0
  3  4  1  0
  4  5  1  0
  5  6  1  0
  6  7  1  0
  7  8  1  0
  8  9  1  0
  9 10  1  0
 10 11  1  0
 11 12  1  0
 12 13  1  0
 13 14  1  0
 14 15  1  0
 15 16  1  0
 16 17  1  0
 17 18  2  0
 18 19  1  0
 19 20  2  0
 20 21  1  0
 21 22  2  3
 22 23  1  0
 20 24  1  0
 24 25  2  0
 25 17  1  0
  1 26  1  0
  1 27  1  0
  1 28  1  0
  2 29  1  0
  2 30  1  0
  3 31  1  0
  3 32  1  0
  4 33  1  0
  4 34  1  0
  5 35  1  0
  5 36  1  0
  6 37  1  0
  6 38  1  0
  7 39  1  0
  7 40  1  0
  8 41  1  0
  8 42  1  0
  9 43  1  0
  9 44  1  0
 10 45  1  0
 10 46  1  0
 11 47  1  0
 11 48  1  0
 12 49  1  0
 12 50  1  0
 13 51  1  0
 13 52  1  0
 14 53  1  0
 14 54  1  0
 15 55  1  0
 15 56  1  0
 16 57  1  0
 16 58  1  0
 18 59  1  0
 19 60  1  0
 21 61  1  0
 23 62  1  0
 24 63  1  0
 25 64  1  0
M  CHG  1  17   1
M  END
$$$$
