
     RDKit          3D

 38 39  0  0  0  0  0  0  0  0999 V2000
    6.7132    0.8564   -0.5237 C   0  0  0  0  0  0  0  0  0  0  0  0
    5.2284    0.6975   -0.3916 C   0  0  0  0  0  0  0  0  0  0  0  0
    4.6672   -0.5564   -0.1401 C   0  0  0  0  0  0  0  0  0  0  0  0
    3.2823   -0.7021    0.0155 C   0  0  0  0  0  0  0  0  0  0  0  0
    2.4235    0.3973   -0.0642 C   0  0  0  0  0  0  0  0  0  0  0  0
    1.0337    0.3193    0.0791 N   0  0  0  0  0  0  0  0  0  0  0  0
    0.1403   -0.7192    0.3308 C   0  0  0  0  0  0  0  0  0  0  0  0
    0.5444   -1.9652    0.4928 N   0  0  0  0  0  0  0  0  0  0  0  0
   -0.4384   -2.8168    0.7275 C   0  0  0  0  0  0  0  0  0  0  0  0
    0.0228   -4.4491    0.9412 Cl  0  0  0  0  0  0  0  0  0  0  0  0
   -1.7356   -2.5673    0.8062 N   0  0  0  0  0  0  0  0  0  0  0  0
   -2.0378   -1.2965    0.6297 C   0  0  0  0  0  0  0  0  0  0  0  0
   -3.3822   -0.9990    0.7237 N   0  0  0  0  0  0  0  0  0  0  0  0
   -4.0094    0.0885   -0.0340 C   0  0  0  0  0  0  0  0  0  0  0  0
   -3.5770    1.4647    0.4927 C   0  0  0  0  0  0  0  0  0  0  0  0
   -5.5310   -0.0429    0.1900 C   0  0  0  0  0  0  0  0  0  0  0  0
   -3.7323   -0.0398   -1.5388 C   0  0  0  0  0  0  0  0  0  0  0  0
   -1.1387   -0.3513    0.3892 N   0  0  0  0  0  0  0  0  0  0  0  0
    3.0020    1.6543   -0.3035 C   0  0  0  0  0  0  0  0  0  0  0  0
    4.3843    1.8069   -0.4598 C   0  0  0  0  0  0  0  0  0  0  0  0
    7.1593    1.0375    0.4590 H   0  0  0  0  0  0  0  0  0  0  0  0
    6.9593    1.6946   -1.1840 H   0  0  0  0  0  0  0  0  0  0  0  0
    7.1651   -0.0418   -0.9578 H   0  0  0  0  0  0  0  0  0  0  0  0
    5.3008   -1.4373   -0.0628 H   0  0  0  0  0  0  0  0  0  0  0  0
    2.9007   -1.7006    0.2032 H   0  0  0  0  0  0  0  0  0  0  0  0
    0.5229    1.1875    0.0066 H   0  0  0  0  0  0  0  0  0  0  0  0
   -3.8753   -1.8864    0.6881 H   0  0  0  0  0  0  0  0  0  0  0  0
   -3.6863    1.5241    1.5817 H   0  0  0  0  0  0  0  0  0  0  0  0
   -2.5352    1.6961    0.2527 H   0  0  0  0  0  0  0  0  0  0  0  0
   -4.1851    2.2627    0.0509 H   0  0  0  0  0  0  0  0  0  0  0  0
   -5.7813    0.0274    1.2553 H   0  0  0  0  0  0  0  0  0  0  0  0
   -5.9032   -1.0101   -0.1682 H   0  0  0  0  0  0  0  0  0  0  0  0
   -6.0828    0.7430   -0.3380 H   0  0  0  0  0  0  0  0  0  0  0  0
   -2.6740    0.1106   -1.7763 H   0  0  0  0  0  0  0  0  0  0  0  0
   -4.0137   -1.0320   -1.9100 H   0  0  0  0  0  0  0  0  0  0  0  0
   -4.3000    0.7051   -2.1081 H   0  0  0  0  0  0  0  0  0  0  0  0
    2.3760    2.5411   -0.3686 H   0  0  0  0  0  0  0  0  0  0  0  0
    4.7931    2.7992   -0.6356 H   0  0  0  0  0  0  0  0  0  0  0  0
  1  2  1  0
  2  3  2  0
  3  4  1  0
  4  5  2  0
  5  6  1  0
  6  7  1  0
  7  8  2  0
  8  9  1  0
  9 10  1  0
  9 11  2  0
 11 12  1  0
 12 13  1  0
 13 14  1  0
 14 15  1  0
 14 16  1  0
 14 17  1  0
 12 18  2  0
  5 19  1  0
 19 20  2  0
 20  2  1  0
 18  7  1  0
  1 21  1  0
  1 22  1  0
  1 23  1  0
  3 24  1  0
  4 25  1  0
  6 26  1  0
 13 27  1  0
 15 28  1  0
 15 29  1  0
 15 30  1  0
 16 31  1  0
 16 32  1  0
 16 33  1  0
 17 34  1  0
 17 35  1  0
 17 36  1  0
 19 37  1  0
 20 38  1  0
M  END
$$$$
