
     RDKit          3D

 38 39  0  0  0  0  0  0  0  0999 V2000
   -3.1383   -0.4662    1.9522 C   0  0  0  0  0  0  0  0  0  0  0  0
   -3.6058    0.2846    0.8325 O   0  0  0  0  0  0  0  0  0  0  0  0
   -2.7308    0.4083   -0.2156 C   0  0  0  0  0  0  0  0  0  0  0  0
   -1.7643   -0.5698   -0.4999 C   0  0  0  0  0  0  0  0  0  0  0  0
   -0.8444   -0.4033   -1.5409 C   0  0  0  0  0  0  0  0  0  0  0  0
    0.1681   -1.4187   -1.8454 C   0  0  0  0  0  0  0  0  0  0  0  0
    1.1907   -1.8130   -1.0701 C   0  0  0  0  0  0  0  0  0  0  0  0
    1.4907   -1.3241    0.3054 C   0  0  0  0  0  0  0  0  0  0  0  0
    0.6172   -1.1778    1.1525 O   0  0  0  0  0  0  0  0  0  0  0  0
    2.9222   -1.1054    0.6578 C   0  0  0  0  0  0  0  0  0  0  0  0
    3.9065   -0.8695   -0.3120 C   0  0  0  0  0  0  0  0  0  0  0  0
    5.2333   -0.6633    0.0751 C   0  0  0  0  0  0  0  0  0  0  0  0
    5.5725   -0.6849    1.4234 C   0  0  0  0  0  0  0  0  0  0  0  0
    6.8789   -0.4769    1.7507 O   0  0  0  0  0  0  0  0  0  0  0  0
    4.6064   -0.9037    2.3995 C   0  0  0  0  0  0  0  0  0  0  0  0
    3.2792   -1.1104    2.0147 C   0  0  0  0  0  0  0  0  0  0  0  0
   -0.9230    0.7376   -2.3389 C   0  0  0  0  0  0  0  0  0  0  0  0
   -1.9041    1.6980   -2.0893 C   0  0  0  0  0  0  0  0  0  0  0  0
   -2.8214    1.5396   -1.0423 C   0  0  0  0  0  0  0  0  0  0  0  0
   -3.7020    2.5859   -0.9516 O   0  0  0  0  0  0  0  0  0  0  0  0
   -4.8991    2.3941   -0.1972 C   0  0  0  0  0  0  0  0  0  0  0  0
   -5.8465    3.4845   -0.4907 C   0  0  0  0  0  0  0  0  0  0  0  0
   -6.6094    4.3338   -0.7087 N   0  0  0  0  0  0  0  0  0  0  0  0
   -3.2027   -1.5402    1.7510 H   0  0  0  0  0  0  0  0  0  0  0  0
   -3.8003   -0.2483    2.7960 H   0  0  0  0  0  0  0  0  0  0  0  0
   -2.1226   -0.1760    2.2432 H   0  0  0  0  0  0  0  0  0  0  0  0
   -1.7036   -1.4770    0.0941 H   0  0  0  0  0  0  0  0  0  0  0  0
    0.0804   -1.8470   -2.8426 H   0  0  0  0  0  0  0  0  0  0  0  0
    1.8915   -2.5446   -1.4619 H   0  0  0  0  0  0  0  0  0  0  0  0
    3.6630   -0.8209   -1.3694 H   0  0  0  0  0  0  0  0  0  0  0  0
    5.9999   -0.4760   -0.6721 H   0  0  0  0  0  0  0  0  0  0  0  0
    6.9667   -0.4998    2.7178 H   0  0  0  0  0  0  0  0  0  0  0  0
    4.8611   -0.9141    3.4548 H   0  0  0  0  0  0  0  0  0  0  0  0
    2.5208   -1.2765    2.7778 H   0  0  0  0  0  0  0  0  0  0  0  0
   -0.2268    0.8921   -3.1597 H   0  0  0  0  0  0  0  0  0  0  0  0
   -1.9579    2.5820   -2.7213 H   0  0  0  0  0  0  0  0  0  0  0  0
   -4.6685    2.4228    0.8733 H   0  0  0  0  0  0  0  0  0  0  0  0
   -5.3777    1.4443   -0.4649 H   0  0  0  0  0  0  0  0  0  0  0  0
  1  2  1  0
  2  3  1  0
  3  4  2  0
  4  5  1  0
  5  6  1  0
  6  7  2  3
  7  8  1  0
  8  9  2  0
  8 10  1  0
 10 11  2  0
 11 12  1  0
 12 13  2  0
 13 14  1  0
 13 15  1  0
 15 16  2  0
  5 17  2  0
 17 18  1  0
 18 19  2  0
 19 20  1  0
 20 21  1  0
 21 22  1  0
 22 23  3  0
 19  3  1  0
 16 10  1  0
  1 24  1  0
  1 25  1  0
  1 26  1  0
  4 27  1  0
  6 28  1  0
  7 29  1  0
 11 30  1  0
 12 31  1  0
 14 32  1  0
 15 33  1  0
 16 34  1  0
 17 35  1  0
 18 36  1  0
 21 37  1  0
 21 38  1  0
M  END
$$$$
