
     RDKit          3D

 46 48  0  0  0  0  0  0  0  0999 V2000
    1.2769   -1.1385    1.3555 O   0  0  0  0  0  0  0  0  0  0  0  0
    1.9278   -1.5507    0.3994 C   0  0  0  0  0  0  0  0  0  0  0  0
    3.4394   -1.4004    0.3491 C   0  0  0  0  0  0  0  0  0  0  0  0
    3.8633   -0.1853   -0.4389 C   0  0  0  0  0  0  0  0  0  0  0  0
    4.4899   -0.3195   -1.6856 C   0  0  0  0  0  0  0  0  0  0  0  0
    4.8547    0.8137   -2.4169 C   0  0  0  0  0  0  0  0  0  0  0  0
    4.5948    2.0838   -1.9060 C   0  0  0  0  0  0  0  0  0  0  0  0
    5.0354    3.4770   -2.8137 Cl  0  0  0  0  0  0  0  0  0  0  0  0
    3.9759    2.2320   -0.6679 C   0  0  0  0  0  0  0  0  0  0  0  0
    3.6110    1.1004    0.0638 C   0  0  0  0  0  0  0  0  0  0  0  0
    1.4125   -2.2098   -0.7146 N   0  0  0  0  0  0  0  0  0  0  0  0
    0.0977   -2.4681   -0.9593 C   0  0  0  0  0  0  0  0  0  0  0  0
   -0.3126   -3.9427   -1.6327 S   0  0  0  0  0  0  0  0  0  0  0  0
   -0.8694   -1.5785   -0.6460 N   0  0  0  0  0  0  0  0  0  0  0  0
   -0.8624   -0.1622   -0.6755 C   0  0  0  0  0  0  0  0  0  0  0  0
    0.1351    0.5696   -1.3301 C   0  0  0  0  0  0  0  0  0  0  0  0
    0.0390    1.9564   -1.4295 C   0  0  0  0  0  0  0  0  0  0  0  0
   -1.0612    2.6144   -0.8924 C   0  0  0  0  0  0  0  0  0  0  0  0
   -2.0697    1.8896   -0.2498 C   0  0  0  0  0  0  0  0  0  0  0  0
   -1.9934    0.4945   -0.1175 C   0  0  0  0  0  0  0  0  0  0  0  0
   -2.9729   -0.2582    0.5603 N   0  0  0  0  0  0  0  0  0  0  0  0
   -4.3572    0.2448    0.6209 C   0  0  0  0  0  0  0  0  0  0  0  0
   -5.2061   -0.7288    1.4538 C   0  0  0  0  0  0  0  0  0  0  0  0
   -4.7764   -0.8326    2.8221 O   0  0  0  0  0  0  0  0  0  0  0  0
   -3.3978   -0.4751    3.0133 C   0  0  0  0  0  0  0  0  0  0  0  0
   -2.4895   -0.8621    1.8344 C   0  0  0  0  0  0  0  0  0  0  0  0
    3.8175   -1.3241    1.3759 H   0  0  0  0  0  0  0  0  0  0  0  0
    3.8858   -2.3121   -0.0659 H   0  0  0  0  0  0  0  0  0  0  0  0
    4.7007   -1.3027   -2.1001 H   0  0  0  0  0  0  0  0  0  0  0  0
    5.3393    0.6999   -3.3829 H   0  0  0  0  0  0  0  0  0  0  0  0
    3.7686    3.2210   -0.2684 H   0  0  0  0  0  0  0  0  0  0  0  0
    3.1141    1.2276    1.0253 H   0  0  0  0  0  0  0  0  0  0  0  0
    2.0295   -2.8922   -1.1328 H   0  0  0  0  0  0  0  0  0  0  0  0
   -1.8104   -1.9496   -0.5403 H   0  0  0  0  0  0  0  0  0  0  0  0
    0.9730    0.0809   -1.8130 H   0  0  0  0  0  0  0  0  0  0  0  0
    0.8149    2.5185   -1.9429 H   0  0  0  0  0  0  0  0  0  0  0  0
   -1.1400    3.6956   -0.9735 H   0  0  0  0  0  0  0  0  0  0  0  0
   -2.9002    2.4491    0.1667 H   0  0  0  0  0  0  0  0  0  0  0  0
   -4.7688    0.3199   -0.3916 H   0  0  0  0  0  0  0  0  0  0  0  0
   -4.4004    1.2313    1.0960 H   0  0  0  0  0  0  0  0  0  0  0  0
   -6.2521   -0.4066    1.4636 H   0  0  0  0  0  0  0  0  0  0  0  0
   -5.1742   -1.7352    1.0200 H   0  0  0  0  0  0  0  0  0  0  0  0
   -3.0558   -0.9699    3.9279 H   0  0  0  0  0  0  0  0  0  0  0  0
   -3.3527    0.6054    3.1933 H   0  0  0  0  0  0  0  0  0  0  0  0
   -2.5139   -1.9515    1.7137 H   0  0  0  0  0  0  0  0  0  0  0  0
   -1.4599   -0.5692    2.0726 H   0  0  0  0  0  0  0  0  0  0  0  0
  1  2  2  0
  2  3  1  0
  3  4  1  0
  4  5  2  0
  5  6  1  0
  6  7  2  0
  7  8  1  0
  7  9  1  0
  9 10  2  0
  2 11  1  0
 11 12  1  0
 12 13  2  0
 12 14  1  0
 14 15  1  0
 15 16  2  0
 16 17  1  0
 17 18  2  0
 18 19  1  0
 19 20  2  0
 20 21  1  0
 21 22  1  0
 22 23  1  0
 23 24  1  0
 24 25  1  0
 25 26  1  0
 10  4  1  0
 20 15  1  0
 26 21  1  0
  3 27  1  0
  3 28  1  0
  5 29  1  0
  6 30  1  0
  9 31  1  0
 10 32  1  0
 11 33  1  0
 14 34  1  0
 16 35  1  0
 17 36  1  0
 18 37  1  0
 19 38  1  0
 22 39  1  0
 22 40  1  0
 23 41  1  0
 23 42  1  0
 25 43  1  0
 25 44  1  0
 26 45  1  0
 26 46  1  0
M  END
$$$$
