
     RDKit          3D

 37 40  0  0  0  0  0  0  0  0999 V2000
    2.9562   -2.0405   -1.4184 C   0  0  0  0  0  0  0  0  0  0  0  0
    3.2346   -0.8347   -0.5938 C   0  0  0  0  0  0  0  0  0  0  0  0
    4.5202   -0.5476   -0.3343 N   0  0  0  0  0  0  0  0  0  0  0  0
    4.4607    0.5033    0.4902 N   0  0  0  0  0  0  0  0  0  0  0  0
    5.6829    1.0870    0.9856 C   0  0  0  0  0  0  0  0  0  0  0  0
    3.1915    0.8961    0.7754 C   0  0  0  0  0  0  0  0  0  0  0  0
    2.3351    0.0694    0.0711 C   0  0  0  0  0  0  0  0  0  0  0  0
    0.9169    0.1367    0.0751 N   0  0  0  0  0  0  0  0  0  0  0  0
    0.2712    0.7205    1.1779 C   0  0  0  0  0  0  0  0  0  0  0  0
    0.8147    1.1970    2.1744 O   0  0  0  0  0  0  0  0  0  0  0  0
   -1.2136    0.7305    1.1705 C   0  0  0  0  0  0  0  0  0  0  0  0
   -1.8914    1.2866    2.2650 C   0  0  0  0  0  0  0  0  0  0  0  0
   -3.2787    1.2883    2.3000 C   0  0  0  0  0  0  0  0  0  0  0  0
   -3.9952    0.7191    1.2489 C   0  0  0  0  0  0  0  0  0  0  0  0
   -3.3468    0.1366    0.1364 C   0  0  0  0  0  0  0  0  0  0  0  0
   -4.0529   -0.4718   -0.9379 C   0  0  0  0  0  0  0  0  0  0  0  0
   -5.4595   -0.4666   -1.0111 N   0  0  0  0  0  0  0  0  0  0  0  0
   -3.3445   -0.9118   -2.0608 C   0  0  0  0  0  0  0  0  0  0  0  0
   -1.9546   -0.8621   -2.0897 C   0  0  0  0  0  0  0  0  0  0  0  0
   -1.2461   -0.3352   -1.0039 C   0  0  0  0  0  0  0  0  0  0  0  0
   -1.9234    0.1705    0.1046 C   0  0  0  0  0  0  0  0  0  0  0  0
    0.2324   -0.2737   -1.0748 C   0  0  0  0  0  0  0  0  0  0  0  0
    0.7410   -0.5261   -2.1657 O   0  0  0  0  0  0  0  0  0  0  0  0
    2.0190   -2.5205   -1.1215 H   0  0  0  0  0  0  0  0  0  0  0  0
    2.9129   -1.7815   -2.4805 H   0  0  0  0  0  0  0  0  0  0  0  0
    3.7476   -2.7885   -1.2934 H   0  0  0  0  0  0  0  0  0  0  0  0
    6.2294    0.3222    1.5431 H   0  0  0  0  0  0  0  0  0  0  0  0
    6.2702    1.4341    0.1318 H   0  0  0  0  0  0  0  0  0  0  0  0
    5.4460    1.9283    1.6415 H   0  0  0  0  0  0  0  0  0  0  0  0
    3.0082    1.7355    1.4313 H   0  0  0  0  0  0  0  0  0  0  0  0
   -1.3387    1.7236    3.0954 H   0  0  0  0  0  0  0  0  0  0  0  0
   -3.8036    1.7301    3.1437 H   0  0  0  0  0  0  0  0  0  0  0  0
   -5.0805    0.7508    1.3055 H   0  0  0  0  0  0  0  0  0  0  0  0
   -5.9214   -0.5381   -0.1111 H   0  0  0  0  0  0  0  0  0  0  0  0
   -5.8381   -1.1389   -1.6721 H   0  0  0  0  0  0  0  0  0  0  0  0
   -3.8730   -1.3035   -2.9269 H   0  0  0  0  0  0  0  0  0  0  0  0
   -1.4289   -1.2249   -2.9716 H   0  0  0  0  0  0  0  0  0  0  0  0
  1  2  1  0
  2  3  2  0
  3  4  1  0
  4  5  1  0
  4  6  1  0
  6  7  2  0
  7  8  1  0
  8  9  1  0
  9 10  2  0
  9 11  1  0
 11 12  2  0
 12 13  1  0
 13 14  2  0
 14 15  1  0
 15 16  2  0
 16 17  1  0
 16 18  1  0
 18 19  2  0
 19 20  1  0
 20 21  2  0
 20 22  1  0
 22 23  2  0
  7  2  1  0
 22  8  1  0
 21 11  1  0
 21 15  1  0
  1 24  1  0
  1 25  1  0
  1 26  1  0
  5 27  1  0
  5 28  1  0
  5 29  1  0
  6 30  1  0
 12 31  1  0
 13 32  1  0
 14 33  1  0
 17 34  1  0
 17 35  1  0
 18 36  1  0
 19 37  1  0
M  END
$$$$
