
     RDKit          3D

 72 76  0  0  0  0  0  0  0  0999 V2000
    1.6848   -5.5714    0.6004 C   0  0  0  0  0  0  0  0  0  0  0  0
    0.9559   -4.3252    1.0080 C   0  0  0  0  0  0  0  0  0  0  0  0
    0.1714   -4.3064    2.1685 C   0  0  0  0  0  0  0  0  0  0  0  0
   -0.4964   -3.1406    2.5667 C   0  0  0  0  0  0  0  0  0  0  0  0
   -1.3229   -3.1293    3.8189 C   0  0  0  0  0  0  0  0  0  0  0  0
   -0.3427   -1.9732    1.8100 C   0  0  0  0  0  0  0  0  0  0  0  0
    0.4466   -1.9772    0.6554 C   0  0  0  0  0  0  0  0  0  0  0  0
    0.6318   -0.7916   -0.0998 N   0  0  0  0  0  0  0  0  0  0  0  0
    1.1802    0.3680    0.4652 C   0  0  0  0  0  0  0  0  0  0  0  0
    1.0348    1.4706   -0.0695 O   0  0  0  0  0  0  0  0  0  0  0  0
    1.9689    0.2052    1.7487 C   0  0  0  0  0  0  0  0  0  0  0  0
    3.0404    1.1731    1.8218 N   0  0  0  0  0  0  0  0  0  0  0  0
    4.1626    1.0294    1.0943 N   0  0  0  0  0  0  0  0  0  0  0  0
    4.9710    1.9830    1.5323 N   0  0  0  0  0  0  0  0  0  0  0  0
    4.3117    2.6330    2.5522 C   0  0  0  0  0  0  0  0  0  0  0  0
    4.8989    3.7430    3.2917 C   0  0  0  0  0  0  0  0  0  0  0  0
    4.1906    4.3748    4.3252 C   0  0  0  0  0  0  0  0  0  0  0  0
    4.7591    5.4376    5.0324 C   0  0  0  0  0  0  0  0  0  0  0  0
    6.0414    5.8805    4.7143 C   0  0  0  0  0  0  0  0  0  0  0  0
    6.7562    5.2635    3.6895 C   0  0  0  0  0  0  0  0  0  0  0  0
    6.1884    4.2007    2.9815 C   0  0  0  0  0  0  0  0  0  0  0  0
    3.0961    2.1079    2.7933 N   0  0  0  0  0  0  0  0  0  0  0  0
   -0.1361   -0.6041   -1.3562 C   0  0  0  0  0  0  0  0  0  0  0  0
   -1.5083    0.0721   -1.0886 C   0  0  0  0  0  0  0  0  0  0  0  0
   -2.1401   -0.0660   -0.0410 O   0  0  0  0  0  0  0  0  0  0  0  0
   -1.9963    0.8117   -2.1560 N   0  0  0  0  0  0  0  0  0  0  0  0
   -3.3279    1.3972   -2.1449 C   0  0  0  0  0  0  0  0  0  0  0  0
   -3.3792    2.6365   -3.0527 C   0  0  0  0  0  0  0  0  0  0  0  0
   -4.7773    2.9415   -3.5963 C   0  0  0  0  0  0  0  0  0  0  0  0
   -5.8736    2.4420   -2.6661 C   0  0  0  0  0  0  0  0  0  0  0  0
   -5.8004    0.9276   -2.4647 C   0  0  0  0  0  0  0  0  0  0  0  0
   -4.3804    0.3645   -2.5569 C   0  0  0  0  0  0  0  0  0  0  0  0
   -0.3151   -1.8386   -2.2365 C   0  0  0  0  0  0  0  0  0  0  0  0
   -1.3364   -2.7655   -2.0089 C   0  0  0  0  0  0  0  0  0  0  0  0
   -1.4454   -3.8752   -2.8426 C   0  0  0  0  0  0  0  0  0  0  0  0
   -0.5403   -4.0385   -3.8825 C   0  0  0  0  0  0  0  0  0  0  0  0
    0.4437   -3.0808   -4.0468 C   0  0  0  0  0  0  0  0  0  0  0  0
    0.5749   -1.9936   -3.2547 N   0  0  0  0  0  0  0  0  0  0  0  0
    1.1002   -3.1492    0.2630 C   0  0  0  0  0  0  0  0  0  0  0  0
    1.1513   -6.4658    0.9390 H   0  0  0  0  0  0  0  0  0  0  0  0
    1.7656   -5.6356   -0.4900 H   0  0  0  0  0  0  0  0  0  0  0  0
    2.6902   -5.5753    1.0323 H   0  0  0  0  0  0  0  0  0  0  0  0
    0.0747   -5.2113    2.7666 H   0  0  0  0  0  0  0  0  0  0  0  0
   -1.7871   -4.1066    3.9884 H   0  0  0  0  0  0  0  0  0  0  0  0
   -2.1315   -2.3941    3.7480 H   0  0  0  0  0  0  0  0  0  0  0  0
   -0.6938   -2.8812    4.6795 H   0  0  0  0  0  0  0  0  0  0  0  0
   -0.8680   -1.0673    2.1088 H   0  0  0  0  0  0  0  0  0  0  0  0
    2.4417   -0.7779    1.8249 H   0  0  0  0  0  0  0  0  0  0  0  0
    1.3041    0.3624    2.6035 H   0  0  0  0  0  0  0  0  0  0  0  0
    3.1873    4.0426    4.5855 H   0  0  0  0  0  0  0  0  0  0  0  0
    4.1989    5.9183    5.8302 H   0  0  0  0  0  0  0  0  0  0  0  0
    6.4832    6.7075    5.2642 H   0  0  0  0  0  0  0  0  0  0  0  0
    7.7563    5.6083    3.4393 H   0  0  0  0  0  0  0  0  0  0  0  0
    6.7628    3.7330    2.1838 H   0  0  0  0  0  0  0  0  0  0  0  0
    0.4400    0.1153   -1.9571 H   0  0  0  0  0  0  0  0  0  0  0  0
   -1.5036    0.7577   -3.0408 H   0  0  0  0  0  0  0  0  0  0  0  0
   -3.5424    1.7116   -1.1148 H   0  0  0  0  0  0  0  0  0  0  0  0
   -3.0114    3.4988   -2.4819 H   0  0  0  0  0  0  0  0  0  0  0  0
   -2.6937    2.5328   -3.9035 H   0  0  0  0  0  0  0  0  0  0  0  0
   -4.8955    2.4641   -4.5773 H   0  0  0  0  0  0  0  0  0  0  0  0
   -4.8803    4.0200   -3.7608 H   0  0  0  0  0  0  0  0  0  0  0  0
   -5.7773    2.9435   -1.6946 H   0  0  0  0  0  0  0  0  0  0  0  0
   -6.8598    2.7128   -3.0598 H   0  0  0  0  0  0  0  0  0  0  0  0
   -6.2338    0.6827   -1.4874 H   0  0  0  0  0  0  0  0  0  0  0  0
   -6.4265    0.4231   -3.2109 H   0  0  0  0  0  0  0  0  0  0  0  0
   -4.1848    0.0399   -3.5880 H   0  0  0  0  0  0  0  0  0  0  0  0
   -4.3088   -0.5400   -1.9406 H   0  0  0  0  0  0  0  0  0  0  0  0
   -2.0336   -2.6435   -1.1835 H   0  0  0  0  0  0  0  0  0  0  0  0
   -2.2290   -4.6090   -2.6749 H   0  0  0  0  0  0  0  0  0  0  0  0
   -0.5983   -4.8935   -4.5466 H   0  0  0  0  0  0  0  0  0  0  0  0
    1.1772   -3.1636   -4.8441 H   0  0  0  0  0  0  0  0  0  0  0  0
    1.7354   -3.1465   -0.6215 H   0  0  0  0  0  0  0  0  0  0  0  0
  1  2  1  0
  2  3  2  0
  3  4  1  0
  4  5  1  0
  4  6  2  0
  6  7  1  0
  7  8  1  0
  8  9  1  0
  9 10  2  0
  9 11  1  0
 11 12  1  0
 12 13  1  0
 13 14  2  0
 14 15  1  0
 15 16  1  0
 16 17  2  0
 17 18  1  0
 18 19  2  0
 19 20  1  0
 20 21  2  0
 15 22  2  0
  8 23  1  0
 23 24  1  0
 24 25  2  0
 24 26  1  0
 26 27  1  0
 27 28  1  0
 28 29  1  0
 29 30  1  0
 30 31  1  0
 31 32  1  0
 23 33  1  0
 33 34  2  0
 34 35  1  0
 35 36  2  0
 36 37  1  0
 37 38  2  0
  7 39  2  0
 39  2  1  0
 22 12  1  0
 32 27  1  0
 38 33  1  0
 21 16  1  0
  1 40  1  0
  1 41  1  0
  1 42  1  0
  3 43  1  0
  5 44  1  0
  5 45  1  0
  5 46  1  0
  6 47  1  0
 11 48  1  0
 11 49  1  0
 17 50  1  0
 18 51  1  0
 19 52  1  0
 20 53  1  0
 21 54  1  0
 23 55  1  0
 26 56  1  0
 27 57  1  0
 28 58  1  0
 28 59  1  0
 29 60  1  0
 29 61  1  0
 30 62  1  0
 30 63  1  0
 31 64  1  0
 31 65  1  0
 32 66  1  0
 32 67  1  0
 34 68  1  0
 35 69  1  0
 36 70  1  0
 37 71  1  0
 39 72  1  0
M  END
$$$$
