
     RDKit          3D

 39 40  0  0  0  0  0  0  0  0999 V2000
    6.8868    0.1980    0.9073 C   0  0  0  0  0  0  0  0  0  0  0  0
    5.8135    1.1153    0.6945 O   0  0  0  0  0  0  0  0  0  0  0  0
    5.0350    0.8120   -0.3724 C   0  0  0  0  0  0  0  0  0  0  0  0
    5.1932   -0.1443   -1.1155 O   0  0  0  0  0  0  0  0  0  0  0  0
    4.0455    1.7383   -0.4743 N   0  0  0  0  0  0  0  0  0  0  0  0
    2.9636    1.6174   -1.4155 C   0  0  0  0  0  0  0  0  0  0  0  0
    1.7380    1.0347   -0.7573 C   0  0  0  0  0  0  0  0  0  0  0  0
    0.7137    1.8704   -0.2859 C   0  0  0  0  0  0  0  0  0  0  0  0
   -0.4071    1.3275    0.3441 C   0  0  0  0  0  0  0  0  0  0  0  0
   -0.5029   -0.0572    0.5069 C   0  0  0  0  0  0  0  0  0  0  0  0
   -1.9336   -0.7283    1.3139 S   0  0  0  0  0  6  0  0  0  0  0  0
   -1.8410   -2.1733    1.3043 O   0  0  0  0  0  0  0  0  0  0  0  0
   -2.1190    0.0086    2.5453 O   0  0  0  0  0  0  0  0  0  0  0  0
   -3.1949   -0.3012    0.2476 N   0  0  0  0  0  0  0  0  0  0  0  0
   -3.1628   -0.9634   -1.0988 C   0  0  0  0  0  0  0  0  0  0  0  0
   -4.2430   -2.0435   -1.2082 C   0  0  0  0  0  0  0  0  0  0  0  0
   -5.5717   -1.5216   -1.0632 O   0  0  0  0  0  0  0  0  0  0  0  0
   -5.6433   -0.3876   -0.1870 C   0  0  0  0  0  0  0  0  0  0  0  0
   -4.5503   -0.3841    0.8851 C   0  0  0  0  0  0  0  0  0  0  0  0
    0.5135   -0.9026    0.0592 C   0  0  0  0  0  0  0  0  0  0  0  0
    1.6306   -0.3537   -0.5722 C   0  0  0  0  0  0  0  0  0  0  0  0
    6.4997   -0.8067    1.1048 H   0  0  0  0  0  0  0  0  0  0  0  0
    7.4477    0.5308    1.7850 H   0  0  0  0  0  0  0  0  0  0  0  0
    7.5630    0.1918    0.0466 H   0  0  0  0  0  0  0  0  0  0  0  0
    3.9747    2.3897    0.2933 H   0  0  0  0  0  0  0  0  0  0  0  0
    2.7505    2.6213   -1.7990 H   0  0  0  0  0  0  0  0  0  0  0  0
    3.2615    1.0000   -2.2707 H   0  0  0  0  0  0  0  0  0  0  0  0
    0.7849    2.9498   -0.4033 H   0  0  0  0  0  0  0  0  0  0  0  0
   -1.1965    1.9806    0.7101 H   0  0  0  0  0  0  0  0  0  0  0  0
   -2.1819   -1.3978   -1.3110 H   0  0  0  0  0  0  0  0  0  0  0  0
   -3.3356   -0.1789   -1.8452 H   0  0  0  0  0  0  0  0  0  0  0  0
   -4.0995   -2.8198   -0.4481 H   0  0  0  0  0  0  0  0  0  0  0  0
   -4.1903   -2.5308   -2.1869 H   0  0  0  0  0  0  0  0  0  0  0  0
   -6.6328   -0.3974    0.2808 H   0  0  0  0  0  0  0  0  0  0  0  0
   -5.5812    0.5162   -0.8043 H   0  0  0  0  0  0  0  0  0  0  0  0
   -4.6837    0.4822    1.5411 H   0  0  0  0  0  0  0  0  0  0  0  0
   -4.6238   -1.3010    1.4817 H   0  0  0  0  0  0  0  0  0  0  0  0
    0.4504   -1.9791    0.2009 H   0  0  0  0  0  0  0  0  0  0  0  0
    2.4289   -1.0125   -0.9139 H   0  0  0  0  0  0  0  0  0  0  0  0
  1  2  1  0
  2  3  1  0
  3  4  2  0
  3  5  1  0
  5  6  1  0
  6  7  1  0
  7  8  2  0
  8  9  1  0
  9 10  2  0
 10 11  1  0
 11 12  2  0
 11 13  2  0
 11 14  1  0
 14 15  1  0
 15 16  1  0
 16 17  1  0
 17 18  1  0
 18 19  1  0
 10 20  1  0
 20 21  2  0
 21  7  1  0
 19 14  1  0
  1 22  1  0
  1 23  1  0
  1 24  1  0
  5 25  1  0
  6 26  1  0
  6 27  1  0
  8 28  1  0
  9 29  1  0
 15 30  1  0
 15 31  1  0
 16 32  1  0
 16 33  1  0
 18 34  1  0
 18 35  1  0
 19 36  1  0
 19 37  1  0
 20 38  1  0
 21 39  1  0
M  END
$$$$
