
     RDKit          3D

 30 31  0  0  0  0  0  0  0  0999 V2000
   -2.3042    2.8364   -1.6305 C   0  0  0  0  0  0  0  0  0  0  0  0
   -2.0191    1.7284   -0.6826 C   0  0  0  0  0  0  0  0  0  0  0  0
   -2.3968    1.8367    0.5989 N   0  0  0  0  0  0  0  0  0  0  0  0
   -2.0143    0.6697    1.1600 N   0  0  0  0  0  0  0  0  0  0  0  0
   -2.3194    0.4425    2.5556 C   0  0  0  0  0  0  0  0  0  0  0  0
   -1.3568   -0.1608    0.2878 C   0  0  0  0  0  0  0  0  0  0  0  0
   -0.6974   -1.6838    0.8144 S   0  0  0  0  0  0  0  0  0  0  0  0
    1.0483   -1.2923    0.6395 C   0  0  0  0  0  0  0  0  0  0  0  0
    1.6469   -0.4350    1.5762 C   0  0  0  0  0  0  0  0  0  0  0  0
    3.0071   -0.1373    1.4963 C   0  0  0  0  0  0  0  0  0  0  0  0
    3.7836   -0.7130    0.4959 C   0  0  0  0  0  0  0  0  0  0  0  0
    3.1980   -1.5745   -0.4336 C   0  0  0  0  0  0  0  0  0  0  0  0
    1.8225   -1.8387   -0.4059 C   0  0  0  0  0  0  0  0  0  0  0  0
    1.3035   -2.8024   -1.2919 N   0  0  0  0  0  0  0  0  0  0  0  0
   -1.3851    0.4853   -0.9327 C   0  0  0  0  0  0  0  0  0  0  0  0
   -0.8863    0.0085   -2.1837 N   0  0  0  0  0  4  0  0  0  0  0  0
   -0.9561   -1.2085   -2.4019 O   0  0  0  0  0  0  0  0  0  0  0  0
   -0.4475    0.8565   -2.9706 O   0  0  0  0  0  1  0  0  0  0  0  0
   -2.9637    3.5870   -1.1820 H   0  0  0  0  0  0  0  0  0  0  0  0
   -1.3755    3.3363   -1.9228 H   0  0  0  0  0  0  0  0  0  0  0  0
   -2.7972    2.4573   -2.5313 H   0  0  0  0  0  0  0  0  0  0  0  0
   -2.8841   -0.4888    2.6437 H   0  0  0  0  0  0  0  0  0  0  0  0
   -1.3811    0.3886    3.1124 H   0  0  0  0  0  0  0  0  0  0  0  0
   -2.9243    1.2707    2.9351 H   0  0  0  0  0  0  0  0  0  0  0  0
    1.0643   -0.0032    2.3852 H   0  0  0  0  0  0  0  0  0  0  0  0
    3.4643    0.5253    2.2267 H   0  0  0  0  0  0  0  0  0  0  0  0
    4.8499   -0.5069    0.4463 H   0  0  0  0  0  0  0  0  0  0  0  0
    3.8272   -2.0428   -1.1866 H   0  0  0  0  0  0  0  0  0  0  0  0
    0.2981   -2.6899   -1.4395 H   0  0  0  0  0  0  0  0  0  0  0  0
    1.7953   -2.8513   -2.1785 H   0  0  0  0  0  0  0  0  0  0  0  0
  1  2  1  0
  2  3  2  0
  3  4  1  0
  4  5  1  0
  4  6  1  0
  6  7  1  0
  7  8  1  0
  8  9  2  0
  9 10  1  0
 10 11  2  0
 11 12  1  0
 12 13  2  0
 13 14  1  0
  6 15  2  0
 15 16  1  0
 16 17  2  0
 16 18  1  0
 15  2  1  0
 13  8  1  0
  1 19  1  0
  1 20  1  0
  1 21  1  0
  5 22  1  0
  5 23  1  0
  5 24  1  0
  9 25  1  0
 10 26  1  0
 11 27  1  0
 12 28  1  0
 14 29  1  0
 14 30  1  0
M  CHG  2  16   1  18  -1
M  END
$$$$
