
     RDKit          3D

 63 65  0  0  0  0  0  0  0  0999 V2000
   -0.8674    2.6577   -0.8159 C   0  0  0  0  0  0  0  0  0  0  0  0
    0.2799    1.9169   -0.1337 C   0  0  0  0  0  0  0  0  0  0  0  0
   -0.1030    0.5550    0.2554 N   0  0  0  0  0  0  0  0  0  0  0  0
    0.6548    0.0381    1.4227 C   0  0  0  0  0  0  0  0  0  0  0  0
    2.1574    0.3704    1.4516 C   0  0  0  0  0  0  0  0  0  0  0  0
    2.6184    1.0838    2.3449 O   0  0  0  0  0  0  0  0  0  0  0  0
    2.8857   -0.2130    0.4305 N   0  0  0  0  0  0  0  0  0  0  0  0
    4.2633   -0.0706    0.1644 C   0  0  0  0  0  0  0  0  0  0  0  0
    5.1677    0.5727    1.0129 C   0  0  0  0  0  0  0  0  0  0  0  0
    6.5198    0.6778    0.6607 C   0  0  0  0  0  0  0  0  0  0  0  0
    6.9878    0.1654   -0.5564 C   0  0  0  0  0  0  0  0  0  0  0  0
    8.3555    0.3453   -0.8498 N   0  0  0  0  0  0  0  0  0  0  0  0
    9.0033    0.0421   -2.0340 C   0  0  0  0  0  0  0  0  0  0  0  0
   10.4784    0.3516   -1.9656 C   0  0  0  0  0  0  0  0  0  0  0  0
    8.4999   -0.4186   -3.0558 O   0  0  0  0  0  0  0  0  0  0  0  0
    6.0882   -0.4928   -1.3957 C   0  0  0  0  0  0  0  0  0  0  0  0
    4.7402   -0.6164   -1.0325 C   0  0  0  0  0  0  0  0  0  0  0  0
   -0.2299   -0.3807   -0.8707 C   0  0  0  0  0  0  0  0  0  0  0  0
   -1.0634   -1.5997   -0.4516 C   0  0  0  0  0  0  0  0  0  0  0  0
   -0.5318   -2.6893   -0.2558 O   0  0  0  0  0  0  0  0  0  0  0  0
   -2.3993   -1.2876   -0.3269 N   0  0  0  0  0  0  0  0  0  0  0  0
   -3.4841   -2.1081    0.0610 C   0  0  0  0  0  0  0  0  0  0  0  0
   -3.3253   -3.4634    0.3801 C   0  0  0  0  0  0  0  0  0  0  0  0
   -4.4262   -4.2473    0.7449 C   0  0  0  0  0  0  0  0  0  0  0  0
   -5.7000   -3.6897    0.7909 C   0  0  0  0  0  0  0  0  0  0  0  0
   -5.8819   -2.3402    0.4796 C   0  0  0  0  0  0  0  0  0  0  0  0
   -4.7787   -1.5381    0.1334 C   0  0  0  0  0  0  0  0  0  0  0  0
   -4.9851   -0.0996   -0.2193 C   0  0  0  0  0  0  0  0  0  0  0  0
   -4.2639    0.4127   -1.0737 O   0  0  0  0  0  0  0  0  0  0  0  0
   -6.0303    0.7409    0.4128 C   0  0  0  0  0  0  0  0  0  0  0  0
   -6.4144    0.5947    1.7542 C   0  0  0  0  0  0  0  0  0  0  0  0
   -7.4322    1.4022    2.2803 C   0  0  0  0  0  0  0  0  0  0  0  0
   -8.0545    2.3638    1.4782 C   0  0  0  0  0  0  0  0  0  0  0  0
   -7.6481    2.5341    0.1531 C   0  0  0  0  0  0  0  0  0  0  0  0
   -6.6330    1.7314   -0.3777 C   0  0  0  0  0  0  0  0  0  0  0  0
   -1.7503    2.6828   -0.1674 H   0  0  0  0  0  0  0  0  0  0  0  0
   -1.1515    2.2060   -1.7709 H   0  0  0  0  0  0  0  0  0  0  0  0
   -0.5724    3.6948   -1.0189 H   0  0  0  0  0  0  0  0  0  0  0  0
    1.1632    1.9082   -0.7858 H   0  0  0  0  0  0  0  0  0  0  0  0
    0.5406    2.5005    0.7595 H   0  0  0  0  0  0  0  0  0  0  0  0
    0.2127    0.5072    2.3148 H   0  0  0  0  0  0  0  0  0  0  0  0
    0.5304   -1.0425    1.5745 H   0  0  0  0  0  0  0  0  0  0  0  0
    2.3680   -0.7831   -0.2269 H   0  0  0  0  0  0  0  0  0  0  0  0
    4.8583    0.9970    1.9649 H   0  0  0  0  0  0  0  0  0  0  0  0
    7.1921    1.1813    1.3539 H   0  0  0  0  0  0  0  0  0  0  0  0
    8.9136    0.7883   -0.1264 H   0  0  0  0  0  0  0  0  0  0  0  0
   10.9418   -0.2320   -1.1658 H   0  0  0  0  0  0  0  0  0  0  0  0
   10.9513    0.0862   -2.9167 H   0  0  0  0  0  0  0  0  0  0  0  0
   10.6252    1.4200   -1.7809 H   0  0  0  0  0  0  0  0  0  0  0  0
    6.3993   -0.9290   -2.3402 H   0  0  0  0  0  0  0  0  0  0  0  0
    4.0664   -1.1227   -1.7237 H   0  0  0  0  0  0  0  0  0  0  0  0
    0.7294   -0.7189   -1.2687 H   0  0  0  0  0  0  0  0  0  0  0  0
   -0.7569    0.0754   -1.7185 H   0  0  0  0  0  0  0  0  0  0  0  0
   -2.6488   -0.3216   -0.5632 H   0  0  0  0  0  0  0  0  0  0  0  0
   -2.3561   -3.9513    0.3469 H   0  0  0  0  0  0  0  0  0  0  0  0
   -4.2794   -5.3004    0.9801 H   0  0  0  0  0  0  0  0  0  0  0  0
   -6.5531   -4.3131    1.0595 H   0  0  0  0  0  0  0  0  0  0  0  0
   -6.8896   -1.9353    0.4924 H   0  0  0  0  0  0  0  0  0  0  0  0
   -5.9374   -0.1328    2.4071 H   0  0  0  0  0  0  0  0  0  0  0  0
   -7.7423    1.2861    3.3203 H   0  0  0  0  0  0  0  0  0  0  0  0
   -8.8551    2.9849    1.8880 H   0  0  0  0  0  0  0  0  0  0  0  0
   -8.1212    3.2916   -0.4693 H   0  0  0  0  0  0  0  0  0  0  0  0
   -6.3258    1.8710   -1.4151 H   0  0  0  0  0  0  0  0  0  0  0  0
  1  2  1  0
  2  3  1  0
  3  4  1  0
  4  5  1  0
  5  6  2  0
  5  7  1  0
  7  8  1  0
  8  9  2  0
  9 10  1  0
 10 11  2  0
 11 12  1  0
 12 13  1  0
 13 14  1  0
 13 15  2  0
 11 16  1  0
 16 17  2  0
  3 18  1  0
 18 19  1  0
 19 20  2  0
 19 21  1  0
 21 22  1  0
 22 23  2  0
 23 24  1  0
 24 25  2  0
 25 26  1  0
 26 27  2  0
 27 28  1  0
 28 29  2  0
 28 30  1  0
 30 31  2  0
 31 32  1  0
 32 33  2  0
 33 34  1  0
 34 35  2  0
 17  8  1  0
 27 22  1  0
 35 30  1  0
  1 36  1  0
  1 37  1  0
  1 38  1  0
  2 39  1  0
  2 40  1  0
  4 41  1  0
  4 42  1  0
  7 43  1  0
  9 44  1  0
 10 45  1  0
 12 46  1  0
 14 47  1  0
 14 48  1  0
 14 49  1  0
 16 50  1  0
 17 51  1  0
 18 52  1  0
 18 53  1  0
 21 54  1  0
 23 55  1  0
 24 56  1  0
 25 57  1  0
 26 58  1  0
 31 59  1  0
 32 60  1  0
 33 61  1  0
 34 62  1  0
 35 63  1  0
M  END
$$$$
