
     RDKit          3D

 40 42  0  0  0  0  0  0  0  0999 V2000
    5.9800    0.1332   -1.1175 C   0  0  0  0  0  0  0  0  0  0  0  0
    5.4732    0.2732    0.3098 C   0  0  0  0  0  0  0  0  0  0  0  0
    3.9692    0.1933    0.3808 C   0  0  0  0  0  0  0  0  0  0  0  0
    3.3302   -1.0409    0.5541 C   0  0  0  0  0  0  0  0  0  0  0  0
    1.9348   -1.1198    0.6042 C   0  0  0  0  0  0  0  0  0  0  0  0
    1.1618    0.0381    0.4749 C   0  0  0  0  0  0  0  0  0  0  0  0
   -0.3185   -0.0095    0.5208 C   0  0  0  0  0  0  0  0  0  0  0  0
   -1.0589    1.0572    0.5727 N   0  0  0  0  0  0  0  0  0  0  0  0
   -2.4889    0.5795    0.5670 N   0  0  0  0  0  0  0  0  0  0  0  0
   -3.4664    1.0482    1.8882 S   0  0  0  0  0  6  0  0  0  0  0  0
   -3.3104    2.8193    1.8232 C   0  0  0  0  0  0  0  0  0  0  0  0
   -2.8424    0.5584    3.1017 O   0  0  0  0  0  0  0  0  0  0  0  0
   -4.8369    0.6944    1.5755 O   0  0  0  0  0  0  0  0  0  0  0  0
   -2.5073   -0.8817    0.3009 C   0  0  0  0  0  0  0  0  0  0  0  0
   -3.0114   -1.1079   -1.1062 C   0  0  0  0  0  0  0  0  0  0  0  0
   -4.2646   -1.5716   -1.4692 C   0  0  0  0  0  0  0  0  0  0  0  0
   -4.4308   -1.6655   -2.8805 C   0  0  0  0  0  0  0  0  0  0  0  0
   -3.3042   -1.2609   -3.5580 C   0  0  0  0  0  0  0  0  0  0  0  0
   -2.0609   -0.7658   -2.4970 S   0  0  0  0  0  0  0  0  0  0  0  0
   -1.0670   -1.3189    0.5547 C   0  0  0  0  0  0  0  0  0  0  0  0
    1.7962    1.2728    0.2980 C   0  0  0  0  0  0  0  0  0  0  0  0
    3.1904    1.3490    0.2481 C   0  0  0  0  0  0  0  0  0  0  0  0
    7.0727    0.1937   -1.1387 H   0  0  0  0  0  0  0  0  0  0  0  0
    5.6848   -0.8282   -1.5514 H   0  0  0  0  0  0  0  0  0  0  0  0
    5.5837    0.9271   -1.7596 H   0  0  0  0  0  0  0  0  0  0  0  0
    5.9145   -0.5100    0.9383 H   0  0  0  0  0  0  0  0  0  0  0  0
    5.8120    1.2272    0.7319 H   0  0  0  0  0  0  0  0  0  0  0  0
    3.9181   -1.9514    0.6528 H   0  0  0  0  0  0  0  0  0  0  0  0
    1.4804   -2.0949    0.7508 H   0  0  0  0  0  0  0  0  0  0  0  0
   -3.6450    3.1681    0.8445 H   0  0  0  0  0  0  0  0  0  0  0  0
   -2.2721    3.0983    2.0091 H   0  0  0  0  0  0  0  0  0  0  0  0
   -3.9490    3.2397    2.6033 H   0  0  0  0  0  0  0  0  0  0  0  0
   -3.1655   -1.4228    0.9917 H   0  0  0  0  0  0  0  0  0  0  0  0
   -5.0357   -1.8225   -0.7489 H   0  0  0  0  0  0  0  0  0  0  0  0
   -5.3347   -2.0031   -3.3727 H   0  0  0  0  0  0  0  0  0  0  0  0
   -3.1533   -1.2218   -4.6280 H   0  0  0  0  0  0  0  0  0  0  0  0
   -0.9675   -1.7307    1.5659 H   0  0  0  0  0  0  0  0  0  0  0  0
   -0.6875   -2.0459   -0.1672 H   0  0  0  0  0  0  0  0  0  0  0  0
    1.2131    2.1852    0.1924 H   0  0  0  0  0  0  0  0  0  0  0  0
    3.6639    2.3179    0.1039 H   0  0  0  0  0  0  0  0  0  0  0  0
  1  2  1  0
  2  3  1  0
  3  4  2  0
  4  5  1  0
  5  6  2  0
  6  7  1  0
  7  8  2  0
  8  9  1  0
  9 10  1  0
 10 11  1  0
 10 12  2  0
 10 13  2  0
  9 14  1  0
 14 15  1  0
 15 16  2  0
 16 17  1  0
 17 18  2  0
 18 19  1  0
 14 20  1  0
  6 21  1  0
 21 22  2  0
 22  3  1  0
 20  7  1  0
 19 15  1  0
  1 23  1  0
  1 24  1  0
  1 25  1  0
  2 26  1  0
  2 27  1  0
  4 28  1  0
  5 29  1  0
 11 30  1  0
 11 31  1  0
 11 32  1  0
 14 33  1  0
 16 34  1  0
 17 35  1  0
 18 36  1  0
 20 37  1  0
 20 38  1  0
 21 39  1  0
 22 40  1  0
M  END
$$$$
