
     RDKit          3D

 40 41  0  0  0  0  0  0  0  0999 V2000
    7.7197   -1.4040   -1.0458 C   0  0  0  0  0  0  0  0  0  0  0  0
    6.9707   -1.8037    0.0939 O   0  0  0  0  0  0  0  0  0  0  0  0
    5.8029   -1.1316    0.3280 C   0  0  0  0  0  0  0  0  0  0  0  0
    5.3449   -0.0162   -0.3703 C   0  0  0  0  0  0  0  0  0  0  0  0
    4.1279    0.5824   -0.0260 C   0  0  0  0  0  0  0  0  0  0  0  0
    3.3577    0.0782    1.0305 C   0  0  0  0  0  0  0  0  0  0  0  0
    2.0441    0.7244    1.4013 C   0  0  0  0  0  0  0  0  0  0  0  0
    0.8239    0.0673    0.7851 C   0  0  0  0  0  0  0  0  0  0  0  0
    0.8118   -0.9995    0.1869 O   0  0  0  0  0  0  0  0  0  0  0  0
   -0.2590    0.8836    1.0398 O   0  0  0  0  0  0  0  0  0  0  0  0
   -1.4207    0.3419    0.4608 N   0  0  0  0  0  0  0  0  0  0  0  0
   -2.4376    1.1461    0.5793 C   0  0  0  0  0  0  0  0  0  0  0  0
   -2.3608    2.3635    1.2232 N   0  0  0  0  0  0  0  0  0  0  0  0
   -3.7511    0.7139   -0.0021 C   0  0  0  0  0  0  0  0  0  0  0  0
   -3.9548   -0.6269   -0.3485 C   0  0  0  0  0  0  0  0  0  0  0  0
   -5.1792   -1.0388   -0.8830 C   0  0  0  0  0  0  0  0  0  0  0  0
   -6.2144   -0.1158   -1.0803 C   0  0  0  0  0  0  0  0  0  0  0  0
   -7.5125   -0.5589   -1.6862 C   0  0  0  0  0  0  0  0  0  0  0  0
   -6.0017    1.2280   -0.7499 C   0  0  0  0  0  0  0  0  0  0  0  0
   -4.7802    1.6400   -0.2108 C   0  0  0  0  0  0  0  0  0  0  0  0
    3.8170   -1.0483    1.7215 C   0  0  0  0  0  0  0  0  0  0  0  0
    5.0329   -1.6415    1.3729 C   0  0  0  0  0  0  0  0  0  0  0  0
    8.5821   -2.0717   -1.1313 H   0  0  0  0  0  0  0  0  0  0  0  0
    7.1287   -1.5040   -1.9626 H   0  0  0  0  0  0  0  0  0  0  0  0
    8.0989   -0.3834   -0.9307 H   0  0  0  0  0  0  0  0  0  0  0  0
    5.9122    0.4207   -1.1853 H   0  0  0  0  0  0  0  0  0  0  0  0
    3.7916    1.4500   -0.5890 H   0  0  0  0  0  0  0  0  0  0  0  0
    1.9320    0.7097    2.4926 H   0  0  0  0  0  0  0  0  0  0  0  0
    2.0660    1.7754    1.0854 H   0  0  0  0  0  0  0  0  0  0  0  0
   -1.4949    2.4470    1.7468 H   0  0  0  0  0  0  0  0  0  0  0  0
   -3.1594    2.5776    1.8109 H   0  0  0  0  0  0  0  0  0  0  0  0
   -3.1629   -1.3600   -0.2104 H   0  0  0  0  0  0  0  0  0  0  0  0
   -5.3149   -2.0859   -1.1494 H   0  0  0  0  0  0  0  0  0  0  0  0
   -7.4039   -0.6845   -2.7700 H   0  0  0  0  0  0  0  0  0  0  0  0
   -7.8368   -1.5079   -1.2459 H   0  0  0  0  0  0  0  0  0  0  0  0
   -8.3061    0.1731   -1.4994 H   0  0  0  0  0  0  0  0  0  0  0  0
   -6.7851    1.9648   -0.9129 H   0  0  0  0  0  0  0  0  0  0  0  0
   -4.6393    2.6900    0.0212 H   0  0  0  0  0  0  0  0  0  0  0  0
    3.2316   -1.4778    2.5319 H   0  0  0  0  0  0  0  0  0  0  0  0
    5.3786   -2.5172    1.9155 H   0  0  0  0  0  0  0  0  0  0  0  0
  1  2  1  0
  2  3  1  0
  3  4  2  0
  4  5  1  0
  5  6  2  0
  6  7  1  0
  7  8  1  0
  8  9  2  0
  8 10  1  0
 10 11  1  0
 11 12  2  3
 12 13  1  0
 12 14  1  0
 14 15  2  0
 15 16  1  0
 16 17  2  0
 17 18  1  0
 17 19  1  0
 19 20  2  0
  6 21  1  0
 21 22  2  0
 22  3  1  0
 20 14  1  0
  1 23  1  0
  1 24  1  0
  1 25  1  0
  4 26  1  0
  5 27  1  0
  7 28  1  0
  7 29  1  0
 13 30  1  0
 13 31  1  0
 15 32  1  0
 16 33  1  0
 18 34  1  0
 18 35  1  0
 18 36  1  0
 19 37  1  0
 20 38  1  0
 21 39  1  0
 22 40  1  0
M  END
$$$$
