
     RDKit          3D

 43 46  0  0  0  0  0  0  0  0999 V2000
    2.3715    1.6406   -1.1382 O   0  0  0  0  0  0  0  0  0  0  0  0
    2.8571    0.5847   -0.7375 C   0  0  0  0  0  0  0  0  0  0  0  0
    4.2807    0.5610   -0.3568 C   0  0  0  0  0  0  0  0  0  0  0  0
    5.0899    1.6925   -0.5066 C   0  0  0  0  0  0  0  0  0  0  0  0
    6.4329    1.6375   -0.1311 C   0  0  0  0  0  0  0  0  0  0  0  0
    6.9622    0.4571    0.3931 C   0  0  0  0  0  0  0  0  0  0  0  0
    6.1512   -0.6703    0.5432 C   0  0  0  0  0  0  0  0  0  0  0  0
    4.8096   -0.6107    0.1648 C   0  0  0  0  0  0  0  0  0  0  0  0
    3.9934   -1.7282    0.3164 N   0  0  0  0  0  0  0  0  0  0  0  0
    2.6723   -1.7683   -0.0390 C   0  0  0  0  0  0  0  0  0  0  0  0
    1.8765   -3.2178    0.2515 S   0  0  0  0  0  0  0  0  0  0  0  0
    2.1337   -0.6102   -0.5982 N   0  0  0  0  0  0  0  0  0  0  0  0
    0.7202   -0.5383   -1.0121 C   0  0  0  0  0  0  0  0  0  0  0  0
   -0.1857   -0.0358    0.1318 C   0  0  0  0  0  0  0  0  0  0  0  0
   -1.6188   -0.0310   -0.2199 N   0  0  0  0  0  0  0  0  0  0  0  0
   -2.1993   -1.3846   -0.1748 C   0  0  0  0  0  0  0  0  0  0  0  0
   -3.6370   -1.3765   -0.7132 C   0  0  0  0  0  0  0  0  0  0  0  0
   -4.4805   -0.2911   -0.0969 C   0  0  0  0  0  0  0  0  0  0  0  0
   -5.8762   -0.3289   -0.2145 C   0  0  0  0  0  0  0  0  0  0  0  0
   -6.6560    0.6933    0.3251 C   0  0  0  0  0  0  0  0  0  0  0  0
   -6.0479    1.7622    0.9791 C   0  0  0  0  0  0  0  0  0  0  0  0
   -4.6580    1.8124    1.0913 C   0  0  0  0  0  0  0  0  0  0  0  0
   -3.8614    0.7952    0.5447 C   0  0  0  0  0  0  0  0  0  0  0  0
   -2.3575    0.8444    0.7149 C   0  0  0  0  0  0  0  0  0  0  0  0
    4.6775    2.6132   -0.9140 H   0  0  0  0  0  0  0  0  0  0  0  0
    7.0652    2.5149   -0.2470 H   0  0  0  0  0  0  0  0  0  0  0  0
    8.0092    0.4163    0.6856 H   0  0  0  0  0  0  0  0  0  0  0  0
    6.5778   -1.5814    0.9537 H   0  0  0  0  0  0  0  0  0  0  0  0
    4.3798   -2.5794    0.7097 H   0  0  0  0  0  0  0  0  0  0  0  0
    0.3998   -1.5171   -1.3775 H   0  0  0  0  0  0  0  0  0  0  0  0
    0.6302    0.1426   -1.8680 H   0  0  0  0  0  0  0  0  0  0  0  0
   -0.0149   -0.6176    1.0467 H   0  0  0  0  0  0  0  0  0  0  0  0
    0.1324    0.9893    0.3647 H   0  0  0  0  0  0  0  0  0  0  0  0
   -2.1844   -1.7773    0.8512 H   0  0  0  0  0  0  0  0  0  0  0  0
   -1.6241   -2.0831   -0.7916 H   0  0  0  0  0  0  0  0  0  0  0  0
   -4.0915   -2.3555   -0.5201 H   0  0  0  0  0  0  0  0  0  0  0  0
   -3.6201   -1.2218   -1.7995 H   0  0  0  0  0  0  0  0  0  0  0  0
   -6.3604   -1.1545   -0.7304 H   0  0  0  0  0  0  0  0  0  0  0  0
   -7.7380    0.6574    0.2320 H   0  0  0  0  0  0  0  0  0  0  0  0
   -6.6558    2.5585    1.4001 H   0  0  0  0  0  0  0  0  0  0  0  0
   -4.1964    2.6521    1.6058 H   0  0  0  0  0  0  0  0  0  0  0  0
   -2.0285    1.8784    0.5512 H   0  0  0  0  0  0  0  0  0  0  0  0
   -2.1308    0.5758    1.7557 H   0  0  0  0  0  0  0  0  0  0  0  0
  1  2  2  0
  2  3  1  0
  3  4  2  0
  4  5  1  0
  5  6  2  0
  6  7  1  0
  7  8  2  0
  8  9  1  0
  9 10  1  0
 10 11  2  0
 10 12  1  0
 12 13  1  0
 13 14  1  0
 14 15  1  0
 15 16  1  0
 16 17  1  0
 17 18  1  0
 18 19  2  0
 19 20  1  0
 20 21  2  0
 21 22  1  0
 22 23  2  0
 23 24  1  0
 12  2  1  0
 24 15  1  0
  8  3  1  0
 23 18  1  0
  4 25  1  0
  5 26  1  0
  6 27  1  0
  7 28  1  0
  9 29  1  0
 13 30  1  0
 13 31  1  0
 14 32  1  0
 14 33  1  0
 16 34  1  0
 16 35  1  0
 17 36  1  0
 17 37  1  0
 19 38  1  0
 20 39  1  0
 21 40  1  0
 22 41  1  0
 24 42  1  0
 24 43  1  0
M  END
$$$$
