
     RDKit          3D

 50 53  0  0  0  0  0  0  0  0999 V2000
   -4.0797   -0.7207   -3.1521 C   0  0  0  0  0  0  0  0  0  0  0  0
   -4.0084    0.1463   -1.8968 C   0  0  0  0  0  0  0  0  0  0  0  0
   -5.0412   -0.2978   -0.8589 C   0  0  0  0  0  0  0  0  0  0  0  0
   -5.0306    0.6199    0.3784 C   0  0  0  0  0  0  0  0  0  0  0  0
   -5.3534   -0.1905    1.6368 C   0  0  0  0  0  0  0  0  0  0  0  0
   -3.7120    1.4041    0.5395 C   0  0  0  0  0  0  0  0  0  0  0  0
   -2.5894    0.5896    0.0956 N   0  0  0  0  0  0  0  0  0  0  0  0
   -1.3356    0.8968    0.6056 C   0  0  0  0  0  0  0  0  0  0  0  0
   -1.2353    1.7269    1.6584 N   0  0  0  0  0  0  0  0  0  0  0  0
   -0.0046    1.9853    2.1505 C   0  0  0  0  0  0  0  0  0  0  0  0
    1.1407    1.4388    1.6308 C   0  0  0  0  0  0  0  0  0  0  0  0
    0.9687    0.5928    0.5595 C   0  0  0  0  0  0  0  0  0  0  0  0
   -0.2516    0.3262    0.0410 N   0  0  0  0  0  0  0  0  0  0  0  0
    2.1480   -0.0535   -0.1147 C   0  0  0  0  0  0  0  0  0  0  0  0
    3.3030   -0.2493    0.8788 C   0  0  0  0  0  0  0  0  0  0  0  0
    4.5045   -0.9102    0.2256 C   0  0  0  0  0  0  0  0  0  0  0  0
    4.9304   -2.1717    0.6717 C   0  0  0  0  0  0  0  0  0  0  0  0
    6.0317   -2.8016    0.0859 C   0  0  0  0  0  0  0  0  0  0  0  0
    6.7165   -2.1757   -0.9516 C   0  0  0  0  0  0  0  0  0  0  0  0
    8.0720   -2.9508   -1.6733 Cl  0  0  0  0  0  0  0  0  0  0  0  0
    6.3093   -0.9254   -1.4082 C   0  0  0  0  0  0  0  0  0  0  0  0
    5.2079   -0.2951   -0.8227 C   0  0  0  0  0  0  0  0  0  0  0  0
    3.6716    1.0875    1.5347 C   0  0  0  0  0  0  0  0  0  0  0  0
    2.4697    1.7362    2.1858 C   0  0  0  0  0  0  0  0  0  0  0  0
    2.5806    2.5293    3.1153 O   0  0  0  0  0  0  0  0  0  0  0  0
   -2.5951    0.1077   -1.2863 C   0  0  0  0  0  0  0  0  0  0  0  0
   -3.8803   -1.7730   -2.9230 H   0  0  0  0  0  0  0  0  0  0  0  0
   -3.3450   -0.3896   -3.8936 H   0  0  0  0  0  0  0  0  0  0  0  0
   -5.0720   -0.6573   -3.6110 H   0  0  0  0  0  0  0  0  0  0  0  0
   -4.2371    1.1793   -2.1923 H   0  0  0  0  0  0  0  0  0  0  0  0
   -4.8323   -1.3361   -0.5679 H   0  0  0  0  0  0  0  0  0  0  0  0
   -6.0474   -0.2993   -1.2961 H   0  0  0  0  0  0  0  0  0  0  0  0
   -5.8325    1.3614    0.2632 H   0  0  0  0  0  0  0  0  0  0  0  0
   -6.3042   -0.7219    1.5225 H   0  0  0  0  0  0  0  0  0  0  0  0
   -4.5724   -0.9294    1.8461 H   0  0  0  0  0  0  0  0  0  0  0  0
   -5.4412    0.4648    2.5098 H   0  0  0  0  0  0  0  0  0  0  0  0
   -3.7517    2.3210   -0.0636 H   0  0  0  0  0  0  0  0  0  0  0  0
   -3.6243    1.7222    1.5855 H   0  0  0  0  0  0  0  0  0  0  0  0
    0.0203    2.6638    2.9989 H   0  0  0  0  0  0  0  0  0  0  0  0
    1.8462   -1.0225   -0.5318 H   0  0  0  0  0  0  0  0  0  0  0  0
    2.4486    0.5828   -0.9562 H   0  0  0  0  0  0  0  0  0  0  0  0
    2.9393   -0.9132    1.6779 H   0  0  0  0  0  0  0  0  0  0  0  0
    4.4090   -2.6792    1.4813 H   0  0  0  0  0  0  0  0  0  0  0  0
    6.3478   -3.7779    0.4438 H   0  0  0  0  0  0  0  0  0  0  0  0
    6.8434   -0.4358   -2.2183 H   0  0  0  0  0  0  0  0  0  0  0  0
    4.9099    0.6815   -1.1983 H   0  0  0  0  0  0  0  0  0  0  0  0
    4.0815    1.8018    0.8114 H   0  0  0  0  0  0  0  0  0  0  0  0
    4.4288    0.9184    2.3100 H   0  0  0  0  0  0  0  0  0  0  0  0
   -2.2154   -0.9223   -1.3014 H   0  0  0  0  0  0  0  0  0  0  0  0
   -1.9367    0.7153   -1.9222 H   0  0  0  0  0  0  0  0  0  0  0  0
  1  2  1  0
  2  3  1  0
  3  4  1  0
  4  5  1  0
  4  6  1  0
  6  7  1  0
  7  8  1  0
  8  9  2  0
  9 10  1  0
 10 11  2  0
 11 12  1  0
 12 13  2  0
 12 14  1  0
 14 15  1  0
 15 16  1  0
 16 17  2  0
 17 18  1  0
 18 19  2  0
 19 20  1  0
 19 21  1  0
 21 22  2  0
 15 23  1  0
 23 24  1  0
 24 25  2  0
  7 26  1  0
 26  2  1  0
 13  8  1  0
 22 16  1  0
 24 11  1  0
  1 27  1  0
  1 28  1  0
  1 29  1  0
  2 30  1  0
  3 31  1  0
  3 32  1  0
  4 33  1  0
  5 34  1  0
  5 35  1  0
  5 36  1  0
  6 37  1  0
  6 38  1  0
 10 39  1  0
 14 40  1  0
 14 41  1  0
 15 42  1  0
 17 43  1  0
 18 44  1  0
 21 45  1  0
 22 46  1  0
 23 47  1  0
 23 48  1  0
 26 49  1  0
 26 50  1  0
M  END
$$$$
