
     RDKit          3D

 52 55  0  0  0  0  0  0  0  0999 V2000
   -3.5671   -1.9135    0.8335 C   0  0  0  0  0  0  0  0  0  0  0  0
   -3.3197   -0.5209    1.0113 O   0  0  0  0  0  0  0  0  0  0  0  0
   -4.4314    0.1972    1.4115 C   0  0  0  0  0  0  0  0  0  0  0  0
   -5.5760   -0.4943    1.6520 N   0  0  0  0  0  0  0  0  0  0  0  0
   -6.6541    0.2099    2.0567 C   0  0  0  0  0  0  0  0  0  0  0  0
   -6.6497    1.5798    2.2388 C   0  0  0  0  0  0  0  0  0  0  0  0
   -5.4670    2.2701    1.9889 C   0  0  0  0  0  0  0  0  0  0  0  0
   -4.3219    1.5806    1.5633 C   0  0  0  0  0  0  0  0  0  0  0  0
   -3.0884    2.3810    1.3127 C   0  0  0  0  0  0  0  0  0  0  0  0
   -3.0758    3.5814    1.5728 O   0  0  0  0  0  0  0  0  0  0  0  0
   -1.9949    1.7353    0.7895 N   0  0  0  0  0  0  0  0  0  0  0  0
   -0.7202    2.3982    0.5985 C   0  0  0  0  0  0  0  0  0  0  0  0
    0.0641    2.4964    1.9273 C   0  0  0  0  0  0  0  0  0  0  0  0
    0.6587    1.1386    2.3472 C   0  0  0  0  0  0  0  0  0  0  0  0
    1.6430    0.5778    1.3012 C   0  0  0  0  0  0  0  0  0  0  0  0
    1.1133    0.7648   -0.0798 C   0  0  0  0  0  0  0  0  0  0  0  0
    0.0456    1.5897   -0.3919 C   0  0  0  0  0  0  0  0  0  0  0  0
   -0.1378    1.4350   -1.7677 C   0  0  0  0  0  0  0  0  0  0  0  0
    0.7280    0.5756   -2.2978 N   0  0  0  0  0  0  0  0  0  0  0  0
    1.5467    0.1922   -1.2708 N   0  0  0  0  0  0  0  0  0  0  0  0
    2.6466   -0.6784   -1.5565 C   0  0  0  0  0  0  0  0  0  0  0  0
    2.7245   -1.2689   -2.8320 C   0  0  0  0  0  0  0  0  0  0  0  0
    3.7743   -2.1334   -3.1723 C   0  0  0  0  0  0  0  0  0  0  0  0
    3.8075   -2.7878   -4.5219 C   0  0  0  0  0  0  0  0  0  0  0  0
    4.7543   -2.4212   -2.2189 C   0  0  0  0  0  0  0  0  0  0  0  0
    4.7162   -1.8215   -0.9554 C   0  0  0  0  0  0  0  0  0  0  0  0
    5.7716   -2.1413    0.0638 C   0  0  0  0  0  0  0  0  0  0  0  0
    3.6567   -0.9576   -0.6292 C   0  0  0  0  0  0  0  0  0  0  0  0
   -3.8507   -2.3893    1.7785 H   0  0  0  0  0  0  0  0  0  0  0  0
   -4.3221   -2.0874    0.0591 H   0  0  0  0  0  0  0  0  0  0  0  0
   -2.6337   -2.3748    0.4967 H   0  0  0  0  0  0  0  0  0  0  0  0
   -7.5509   -0.3765    2.2375 H   0  0  0  0  0  0  0  0  0  0  0  0
   -7.5424    2.1012    2.5668 H   0  0  0  0  0  0  0  0  0  0  0  0
   -5.4396    3.3497    2.1254 H   0  0  0  0  0  0  0  0  0  0  0  0
   -2.0308    0.7266    0.6772 H   0  0  0  0  0  0  0  0  0  0  0  0
   -0.9043    3.4076    0.2123 H   0  0  0  0  0  0  0  0  0  0  0  0
    0.8873    3.2131    1.8076 H   0  0  0  0  0  0  0  0  0  0  0  0
   -0.5780    2.8783    2.7293 H   0  0  0  0  0  0  0  0  0  0  0  0
   -0.1568    0.4203    2.5021 H   0  0  0  0  0  0  0  0  0  0  0  0
    1.1741    1.2405    3.3092 H   0  0  0  0  0  0  0  0  0  0  0  0
    2.5932    1.1155    1.3979 H   0  0  0  0  0  0  0  0  0  0  0  0
    1.8099   -0.4812    1.5228 H   0  0  0  0  0  0  0  0  0  0  0  0
   -0.8806    1.8955   -2.4069 H   0  0  0  0  0  0  0  0  0  0  0  0
    1.9543   -1.0683   -3.5766 H   0  0  0  0  0  0  0  0  0  0  0  0
    3.3837   -2.1278   -5.2861 H   0  0  0  0  0  0  0  0  0  0  0  0
    3.2340   -3.7196   -4.4999 H   0  0  0  0  0  0  0  0  0  0  0  0
    4.8361   -3.0129   -4.8227 H   0  0  0  0  0  0  0  0  0  0  0  0
    5.5598   -3.1102   -2.4660 H   0  0  0  0  0  0  0  0  0  0  0  0
    6.7186   -2.4022   -0.4203 H   0  0  0  0  0  0  0  0  0  0  0  0
    5.9651   -1.2776    0.7087 H   0  0  0  0  0  0  0  0  0  0  0  0
    5.4486   -2.9828    0.6843 H   0  0  0  0  0  0  0  0  0  0  0  0
    3.6782   -0.5024    0.3510 H   0  0  0  0  0  0  0  0  0  0  0  0
  1  2  1  0
  2  3  1  0
  3  4  2  0
  4  5  1  0
  5  6  2  0
  6  7  1  0
  7  8  2  0
  8  9  1  0
  9 10  2  0
  9 11  1  0
 11 12  1  0
 12 13  1  0
 13 14  1  0
 14 15  1  0
 15 16  1  0
 16 17  2  0
 17 18  1  0
 18 19  2  0
 19 20  1  0
 20 21  1  0
 21 22  2  0
 22 23  1  0
 23 24  1  0
 23 25  2  0
 25 26  1  0
 26 27  1  0
 26 28  2  0
  8  3  1  0
 17 12  1  0
 28 21  1  0
 20 16  1  0
  1 29  1  0
  1 30  1  0
  1 31  1  0
  5 32  1  0
  6 33  1  0
  7 34  1  0
 11 35  1  0
 12 36  1  0
 13 37  1  0
 13 38  1  0
 14 39  1  0
 14 40  1  0
 15 41  1  0
 15 42  1  0
 18 43  1  0
 22 44  1  0
 24 45  1  0
 24 46  1  0
 24 47  1  0
 25 48  1  0
 27 49  1  0
 27 50  1  0
 27 51  1  0
 28 52  1  0
M  END
$$$$
