
     RDKit          3D

 36 38  0  0  0  0  0  0  0  0999 V2000
    3.1565    2.7786    0.4364 N   0  0  0  0  0  0  0  0  0  0  0  0
    2.3419    1.9902    0.1845 C   0  0  0  0  0  0  0  0  0  0  0  0
    1.3241    1.0282   -0.1260 C   0  0  0  0  0  0  0  0  0  0  0  0
   -0.0260    1.2852    0.1745 C   0  0  0  0  0  0  0  0  0  0  0  0
   -0.4725    2.5249    0.8282 C   0  0  0  0  0  0  0  0  0  0  0  0
   -0.2635    2.7298    2.2011 C   0  0  0  0  0  0  0  0  0  0  0  0
   -0.6939    3.9055    2.8199 C   0  0  0  0  0  0  0  0  0  0  0  0
   -1.3416    4.8890    2.0760 C   0  0  0  0  0  0  0  0  0  0  0  0
   -1.5605    4.6991    0.7135 C   0  0  0  0  0  0  0  0  0  0  0  0
   -1.1299    3.5241    0.0933 C   0  0  0  0  0  0  0  0  0  0  0  0
   -0.9869    0.3173   -0.1621 C   0  0  0  0  0  0  0  0  0  0  0  0
   -0.5917   -0.8618   -0.7782 C   0  0  0  0  0  0  0  0  0  0  0  0
   -1.5064   -1.9484   -1.1726 C   0  0  0  0  0  0  0  0  0  0  0  0
   -1.2032   -3.1002   -1.8846 C   0  0  0  0  0  0  0  0  0  0  0  0
   -2.3287   -3.9488   -2.0909 C   0  0  0  0  0  0  0  0  0  0  0  0
   -3.4696   -3.4275   -1.5289 C   0  0  0  0  0  0  0  0  0  0  0  0
   -3.1773   -1.9309   -0.7620 S   0  0  0  0  0  0  0  0  0  0  0  0
    0.7060   -1.1089   -1.0719 N   0  0  0  0  0  0  0  0  0  0  0  0
    1.6416   -0.1840   -0.7384 C   0  0  0  0  0  0  0  0  0  0  0  0
    3.3234   -0.6273   -1.1725 S   0  0  0  0  0  0  0  0  0  0  0  0
    3.2378   -2.4375   -0.9808 C   0  0  0  0  0  0  0  0  0  0  0  0
    2.8360   -2.8552    0.4155 C   0  0  0  0  0  0  0  0  0  0  0  0
    2.6985   -2.1619    1.4106 O   0  0  0  0  0  0  0  0  0  0  0  0
    2.6464   -4.1917    0.5005 O   0  0  0  0  0  0  0  0  0  0  0  0
    0.2398    1.9744    2.8018 H   0  0  0  0  0  0  0  0  0  0  0  0
   -0.5192    4.0544    3.8826 H   0  0  0  0  0  0  0  0  0  0  0  0
   -1.6722    5.8057    2.5578 H   0  0  0  0  0  0  0  0  0  0  0  0
   -2.0625    5.4681    0.1319 H   0  0  0  0  0  0  0  0  0  0  0  0
   -1.3060    3.3977   -0.9731 H   0  0  0  0  0  0  0  0  0  0  0  0
   -2.0314    0.5067    0.0696 H   0  0  0  0  0  0  0  0  0  0  0  0
   -0.2054   -3.3215   -2.2457 H   0  0  0  0  0  0  0  0  0  0  0  0
   -2.3000   -4.8913   -2.6239 H   0  0  0  0  0  0  0  0  0  0  0  0
   -4.4635   -3.8542   -1.5308 H   0  0  0  0  0  0  0  0  0  0  0  0
    2.5347   -2.8533   -1.7084 H   0  0  0  0  0  0  0  0  0  0  0  0
    4.2339   -2.8422   -1.1835 H   0  0  0  0  0  0  0  0  0  0  0  0
    2.3915   -4.3326    1.4370 H   0  0  0  0  0  0  0  0  0  0  0  0
  1  2  3  0
  2  3  1  0
  3  4  2  0
  4  5  1  0
  5  6  2  0
  6  7  1  0
  7  8  2  0
  8  9  1  0
  9 10  2  0
  4 11  1  0
 11 12  2  0
 12 13  1  0
 13 14  2  0
 14 15  1  0
 15 16  2  0
 16 17  1  0
 12 18  1  0
 18 19  2  0
 19 20  1  0
 20 21  1  0
 21 22  1  0
 22 23  2  0
 22 24  1  0
 19  3  1  0
 10  5  1  0
 17 13  1  0
  6 25  1  0
  7 26  1  0
  8 27  1  0
  9 28  1  0
 10 29  1  0
 11 30  1  0
 14 31  1  0
 15 32  1  0
 16 33  1  0
 21 34  1  0
 21 35  1  0
 24 36  1  0
M  END
$$$$
