
     RDKit          3D

 65 69  0  0  0  0  0  0  0  0999 V2000
   -5.6731    5.1902    2.2420 C   0  0  0  0  0  0  0  0  0  0  0  0
   -4.2986    4.9986    1.9310 O   0  0  0  0  0  0  0  0  0  0  0  0
   -3.9131    3.7321    1.5818 C   0  0  0  0  0  0  0  0  0  0  0  0
   -2.5574    3.5974    1.3079 C   0  0  0  0  0  0  0  0  0  0  0  0
   -2.0183    2.3610    0.9380 C   0  0  0  0  0  0  0  0  0  0  0  0
   -2.8472    1.2161    0.8314 C   0  0  0  0  0  0  0  0  0  0  0  0
   -2.5337   -0.1509    0.4753 C   0  0  0  0  0  0  0  0  0  0  0  0
   -1.2126   -0.6541    0.1114 C   0  0  0  0  0  0  0  0  0  0  0  0
   -0.6237   -0.2504   -1.0939 C   0  0  0  0  0  0  0  0  0  0  0  0
    0.6379   -0.7261   -1.4522 C   0  0  0  0  0  0  0  0  0  0  0  0
    1.3194   -1.5847   -0.5940 C   0  0  0  0  0  0  0  0  0  0  0  0
    2.5418   -2.0506   -0.9902 O   0  0  0  0  0  0  0  0  0  0  0  0
    3.6046   -1.5596   -0.1539 C   0  0  0  0  0  0  0  0  0  0  0  0
    4.4920   -0.6245   -0.9923 C   0  0  0  0  0  0  0  0  0  0  0  0
    5.6959   -0.1430   -0.2908 N   0  0  0  0  0  0  0  0  0  0  0  0
    5.4079    0.7947    0.8060 C   0  0  0  0  0  0  0  0  0  0  0  0
    4.9295    2.1731    0.3426 C   0  0  0  0  0  0  0  0  0  0  0  0
    5.9055    2.7924   -0.6524 C   0  0  0  0  0  0  0  0  0  0  0  0
    6.2351    1.8179   -1.7778 C   0  0  0  0  0  0  0  0  0  0  0  0
    6.6630    0.4548   -1.2274 C   0  0  0  0  0  0  0  0  0  0  0  0
    0.7361   -2.0085    0.5996 C   0  0  0  0  0  0  0  0  0  0  0  0
   -0.5271   -1.5346    0.9578 C   0  0  0  0  0  0  0  0  0  0  0  0
   -3.6484   -0.9750    0.5052 C   0  0  0  0  0  0  0  0  0  0  0  0
   -3.7759   -2.4112    0.2147 C   0  0  0  0  0  0  0  0  0  0  0  0
   -4.0071   -3.3036    1.2761 C   0  0  0  0  0  0  0  0  0  0  0  0
   -4.1111   -4.6747    1.0444 C   0  0  0  0  0  0  0  0  0  0  0  0
   -3.9880   -5.1692   -0.2507 C   0  0  0  0  0  0  0  0  0  0  0  0
   -3.7571   -4.2960   -1.3159 C   0  0  0  0  0  0  0  0  0  0  0  0
   -3.6369   -2.9189   -1.0915 C   0  0  0  0  0  0  0  0  0  0  0  0
   -3.4444   -2.0139   -2.1064 O   0  0  0  0  0  0  0  0  0  0  0  0
   -2.6414   -2.4755   -3.1883 C   0  0  0  0  0  0  0  0  0  0  0  0
   -5.0570   -0.1102    0.9466 S   0  0  0  0  0  0  0  0  0  0  0  0
   -4.2044    1.3731    1.1141 C   0  0  0  0  0  0  0  0  0  0  0  0
   -4.7530    2.6206    1.4886 C   0  0  0  0  0  0  0  0  0  0  0  0
   -5.8153    6.2452    2.4968 H   0  0  0  0  0  0  0  0  0  0  0  0
   -6.3090    4.9693    1.3782 H   0  0  0  0  0  0  0  0  0  0  0  0
   -5.9667    4.5947    3.1131 H   0  0  0  0  0  0  0  0  0  0  0  0
   -1.9044    4.4639    1.3824 H   0  0  0  0  0  0  0  0  0  0  0  0
   -0.9529    2.2825    0.7348 H   0  0  0  0  0  0  0  0  0  0  0  0
   -1.1558    0.4193   -1.7656 H   0  0  0  0  0  0  0  0  0  0  0  0
    1.0861   -0.4271   -2.3947 H   0  0  0  0  0  0  0  0  0  0  0  0
    4.1844   -2.4301    0.1746 H   0  0  0  0  0  0  0  0  0  0  0  0
    3.2320   -1.0511    0.7424 H   0  0  0  0  0  0  0  0  0  0  0  0
    4.7966   -1.1962   -1.8796 H   0  0  0  0  0  0  0  0  0  0  0  0
    3.8823    0.2001   -1.3805 H   0  0  0  0  0  0  0  0  0  0  0  0
    6.3278    0.9219    1.3928 H   0  0  0  0  0  0  0  0  0  0  0  0
    4.6838    0.3702    1.5092 H   0  0  0  0  0  0  0  0  0  0  0  0
    4.8259    2.8350    1.2100 H   0  0  0  0  0  0  0  0  0  0  0  0
    3.9354    2.0961   -0.1131 H   0  0  0  0  0  0  0  0  0  0  0  0
    6.8294    3.0670   -0.1284 H   0  0  0  0  0  0  0  0  0  0  0  0
    5.4855    3.7156   -1.0654 H   0  0  0  0  0  0  0  0  0  0  0  0
    5.3641    1.7024   -2.4331 H   0  0  0  0  0  0  0  0  0  0  0  0
    7.0392    2.2322   -2.3970 H   0  0  0  0  0  0  0  0  0  0  0  0
    6.8612   -0.2335   -2.0586 H   0  0  0  0  0  0  0  0  0  0  0  0
    7.6242    0.5660   -0.7077 H   0  0  0  0  0  0  0  0  0  0  0  0
    1.2548   -2.7098    1.2460 H   0  0  0  0  0  0  0  0  0  0  0  0
   -0.9753   -1.8620    1.8923 H   0  0  0  0  0  0  0  0  0  0  0  0
   -4.1042   -2.9295    2.2933 H   0  0  0  0  0  0  0  0  0  0  0  0
   -4.2927   -5.3539    1.8732 H   0  0  0  0  0  0  0  0  0  0  0  0
   -4.0803   -6.2365   -0.4352 H   0  0  0  0  0  0  0  0  0  0  0  0
   -3.6938   -4.7112   -2.3163 H   0  0  0  0  0  0  0  0  0  0  0  0
   -1.7435   -2.9963   -2.8362 H   0  0  0  0  0  0  0  0  0  0  0  0
   -3.2259   -3.1125   -3.8601 H   0  0  0  0  0  0  0  0  0  0  0  0
   -2.3165   -1.6006   -3.7596 H   0  0  0  0  0  0  0  0  0  0  0  0
   -5.8154    2.6825    1.6938 H   0  0  0  0  0  0  0  0  0  0  0  0
  1  2  1  0
  2  3  1  0
  3  4  2  0
  4  5  1  0
  5  6  2  0
  6  7  1  0
  7  8  1  0
  8  9  2  0
  9 10  1  0
 10 11  2  0
 11 12  1  0
 12 13  1  0
 13 14  1  0
 14 15  1  0
 15 16  1  0
 16 17  1  0
 17 18  1  0
 18 19  1  0
 19 20  1  0
 11 21  1  0
 21 22  2  0
  7 23  2  0
 23 24  1  0
 24 25  2  0
 25 26  1  0
 26 27  2  0
 27 28  1  0
 28 29  2  0
 29 30  1  0
 30 31  1  0
 23 32  1  0
 32 33  1  0
 33 34  2  0
 34  3  1  0
 33  6  1  0
 22  8  1  0
 29 24  1  0
 20 15  1  0
  1 35  1  0
  1 36  1  0
  1 37  1  0
  4 38  1  0
  5 39  1  0
  9 40  1  0
 10 41  1  0
 13 42  1  0
 13 43  1  0
 14 44  1  0
 14 45  1  0
 16 46  1  0
 16 47  1  0
 17 48  1  0
 17 49  1  0
 18 50  1  0
 18 51  1  0
 19 52  1  0
 19 53  1  0
 20 54  1  0
 20 55  1  0
 21 56  1  0
 22 57  1  0
 25 58  1  0
 26 59  1  0
 27 60  1  0
 28 61  1  0
 31 62  1  0
 31 63  1  0
 31 64  1  0
 34 65  1  0
M  END
$$$$
