
     RDKit          3D

 36 38  0  0  0  0  0  0  0  0999 V2000
   -0.8445   -0.2329    0.1623 O   0  0  0  0  0  0  0  0  0  0  0  0
   -0.8065    0.0892    1.3428 C   0  0  0  0  0  0  0  0  0  0  0  0
   -2.0297    0.3163    2.1748 C   0  0  0  0  0  0  0  0  0  0  0  0
   -3.3096    0.3607    1.7750 C   0  0  0  0  0  0  0  0  0  0  0  0
   -3.8077    0.1972    0.4073 C   0  0  0  0  0  0  0  0  0  0  0  0
   -4.3814    1.2930   -0.2486 C   0  0  0  0  0  0  0  0  0  0  0  0
   -4.8877    1.1516   -1.5420 C   0  0  0  0  0  0  0  0  0  0  0  0
   -4.8241   -0.0838   -2.1752 C   0  0  0  0  0  0  0  0  0  0  0  0
   -5.3269   -0.1761   -3.4390 O   0  0  0  0  0  0  0  0  0  0  0  0
   -4.2662   -1.1853   -1.5348 C   0  0  0  0  0  0  0  0  0  0  0  0
   -3.7623   -1.0443   -0.2389 C   0  0  0  0  0  0  0  0  0  0  0  0
   -1.5904    0.5505    3.8300 S   0  0  0  0  0  0  0  0  0  0  0  0
    0.1311    0.4212    3.4995 C   0  0  0  0  0  0  0  0  0  0  0  0
    1.2786    0.5296    4.7115 S   0  0  0  0  0  0  0  0  0  0  0  0
    0.3317    0.2486    2.1384 N   0  0  0  0  0  0  0  0  0  0  0  0
    1.6266    0.0520    1.6825 N   0  0  0  0  0  0  0  0  0  0  0  0
    1.9038    0.2848    0.4400 C   0  0  0  0  0  0  0  0  0  0  0  0
    3.2597    0.0468   -0.0994 C   0  0  0  0  0  0  0  0  0  0  0  0
    3.4949    0.2866   -1.4567 C   0  0  0  0  0  0  0  0  0  0  0  0
    4.7687    0.0704   -1.9850 C   0  0  0  0  0  0  0  0  0  0  0  0
    5.7924   -0.3810   -1.1577 C   0  0  0  0  0  0  0  0  0  0  0  0
    7.0191   -0.5769   -1.7188 O   0  0  0  0  0  0  0  0  0  0  0  0
    5.5673   -0.6228    0.1947 C   0  0  0  0  0  0  0  0  0  0  0  0
    4.2939   -0.4082    0.7269 C   0  0  0  0  0  0  0  0  0  0  0  0
   -4.0973    0.5589    2.5006 H   0  0  0  0  0  0  0  0  0  0  0  0
   -4.4371    2.2643    0.2369 H   0  0  0  0  0  0  0  0  0  0  0  0
   -5.3283    2.0021   -2.0541 H   0  0  0  0  0  0  0  0  0  0  0  0
   -5.1813   -1.0800   -3.7632 H   0  0  0  0  0  0  0  0  0  0  0  0
   -4.2110   -2.1534   -2.0219 H   0  0  0  0  0  0  0  0  0  0  0  0
   -3.3237   -1.9080    0.2551 H   0  0  0  0  0  0  0  0  0  0  0  0
    1.1766    0.7007   -0.2770 H   0  0  0  0  0  0  0  0  0  0  0  0
    2.7001    0.6360   -2.1105 H   0  0  0  0  0  0  0  0  0  0  0  0
    4.9635    0.2521   -3.0386 H   0  0  0  0  0  0  0  0  0  0  0  0
    7.6302   -0.8900   -1.0315 H   0  0  0  0  0  0  0  0  0  0  0  0
    6.3616   -0.9748    0.8456 H   0  0  0  0  0  0  0  0  0  0  0  0
    4.1161   -0.5949    1.7838 H   0  0  0  0  0  0  0  0  0  0  0  0
  1  2  2  0
  2  3  1  0
  3  4  2  3
  4  5  1  0
  5  6  2  0
  6  7  1  0
  7  8  2  0
  8  9  1  0
  8 10  1  0
 10 11  2  0
  3 12  1  0
 12 13  1  0
 13 14  2  0
 13 15  1  0
 15 16  1  0
 16 17  2  3
 17 18  1  0
 18 19  2  0
 19 20  1  0
 20 21  2  0
 21 22  1  0
 21 23  1  0
 23 24  2  0
 15  2  1  0
 24 18  1  0
 11  5  1  0
  4 25  1  0
  6 26  1  0
  7 27  1  0
  9 28  1  0
 10 29  1  0
 11 30  1  0
 17 31  1  0
 19 32  1  0
 20 33  1  0
 22 34  1  0
 23 35  1  0
 24 36  1  0
M  END
$$$$
