
     RDKit          3D

 35 37  0  0  0  0  0  0  0  0999 V2000
   -6.7964    0.1761   -0.4897 O   0  0  0  0  0  0  0  0  0  0  0  0
   -5.4388    0.2816   -0.5630 C   0  0  0  0  0  0  0  0  0  0  0  0
   -4.8236    1.4718   -0.9377 C   0  0  0  0  0  0  0  0  0  0  0  0
   -3.4295    1.5353   -0.9990 C   0  0  0  0  0  0  0  0  0  0  0  0
   -2.6523    0.4100   -0.6899 C   0  0  0  0  0  0  0  0  0  0  0  0
   -1.1444    0.4797   -0.7350 C   0  0  0  0  0  0  0  0  0  0  0  0
   -0.5483    0.7391    0.6540 C   0  0  0  0  0  0  0  0  0  0  0  0
    0.9104    0.8859    0.5973 N   0  0  0  0  0  0  0  0  0  0  0  0
    1.6558   -0.3134    0.5269 C   0  0  0  0  0  0  0  0  0  0  0  0
    1.0035   -1.4875    0.5261 N   0  0  0  0  0  0  0  0  0  0  0  0
    1.7515   -2.5941    0.4683 C   0  0  0  0  0  0  0  0  0  0  0  0
    3.0862   -2.6464    0.4116 N   0  0  0  0  0  0  0  0  0  0  0  0
    3.7278   -1.4767    0.3940 C   0  0  0  0  0  0  0  0  0  0  0  0
    5.1160   -1.4822    0.3201 C   0  0  0  0  0  0  0  0  0  0  0  0
    5.8589   -0.2983    0.2860 C   0  0  0  0  0  0  0  0  0  0  0  0
    5.1996    0.9218    0.3218 C   0  0  0  0  0  0  0  0  0  0  0  0
    6.0976    2.3864    0.2712 Cl  0  0  0  0  0  0  0  0  0  0  0  0
    3.8112    0.9587    0.3980 C   0  0  0  0  0  0  0  0  0  0  0  0
    3.0601   -0.2434    0.4437 C   0  0  0  0  0  0  0  0  0  0  0  0
   -3.2919   -0.7790   -0.3115 C   0  0  0  0  0  0  0  0  0  0  0  0
   -4.6843   -0.8419   -0.2494 C   0  0  0  0  0  0  0  0  0  0  0  0
   -7.1860    1.0259   -0.7520 H   0  0  0  0  0  0  0  0  0  0  0  0
   -5.4062    2.3536   -1.1838 H   0  0  0  0  0  0  0  0  0  0  0  0
   -2.9524    2.4681   -1.2917 H   0  0  0  0  0  0  0  0  0  0  0  0
   -0.8320    1.2724   -1.4274 H   0  0  0  0  0  0  0  0  0  0  0  0
   -0.7594   -0.4514   -1.1677 H   0  0  0  0  0  0  0  0  0  0  0  0
   -0.8513   -0.0233    1.3832 H   0  0  0  0  0  0  0  0  0  0  0  0
   -0.9536    1.6859    1.0343 H   0  0  0  0  0  0  0  0  0  0  0  0
    1.2498    1.4152    1.3973 H   0  0  0  0  0  0  0  0  0  0  0  0
    1.2240   -3.5419    0.4699 H   0  0  0  0  0  0  0  0  0  0  0  0
    5.6363   -2.4374    0.2840 H   0  0  0  0  0  0  0  0  0  0  0  0
    6.9430   -0.3433    0.2259 H   0  0  0  0  0  0  0  0  0  0  0  0
    3.3034    1.9200    0.4068 H   0  0  0  0  0  0  0  0  0  0  0  0
   -2.7071   -1.6627   -0.0646 H   0  0  0  0  0  0  0  0  0  0  0  0
   -5.1779   -1.7645    0.0417 H   0  0  0  0  0  0  0  0  0  0  0  0
  1  2  1  0
  2  3  2  0
  3  4  1  0
  4  5  2  0
  5  6  1  0
  6  7  1  0
  7  8  1  0
  8  9  1  0
  9 10  2  0
 10 11  1  0
 11 12  2  0
 12 13  1  0
 13 14  2  0
 14 15  1  0
 15 16  2  0
 16 17  1  0
 16 18  1  0
 18 19  2  0
  5 20  1  0
 20 21  2  0
 21  2  1  0
 19  9  1  0
 19 13  1  0
  1 22  1  0
  3 23  1  0
  4 24  1  0
  6 25  1  0
  6 26  1  0
  7 27  1  0
  7 28  1  0
  8 29  1  0
 11 30  1  0
 14 31  1  0
 15 32  1  0
 18 33  1  0
 20 34  1  0
 21 35  1  0
M  END
$$$$
