
     RDKit          3D

 43 46  0  0  0  0  0  0  0  0999 V2000
    8.0231    0.2545    1.2050 C   0  0  0  0  0  0  0  0  0  0  0  0
    6.6836    0.3618    0.5356 C   0  0  0  0  0  0  0  0  0  0  0  0
    6.5876    0.8473   -0.7774 C   0  0  0  0  0  0  0  0  0  0  0  0
    5.3523    0.9897   -1.4230 C   0  0  0  0  0  0  0  0  0  0  0  0
    4.2197    0.6350   -0.6900 C   0  0  0  0  0  0  0  0  0  0  0  0
    2.8822    0.6457   -0.9933 N   0  0  0  0  0  0  0  0  0  0  0  0
    2.1748    0.1952    0.1052 C   0  0  0  0  0  0  0  0  0  0  0  0
    0.7450    0.1078    0.0550 C   0  0  0  0  0  0  0  0  0  0  0  0
    0.0495    0.4862   -1.1363 C   0  0  0  0  0  0  0  0  0  0  0  0
   -0.4025    0.8197   -2.1532 N   0  0  0  0  0  0  0  0  0  0  0  0
    0.1241   -0.3396    1.1661 C   0  0  0  0  0  0  0  0  0  0  0  0
   -1.2841   -0.4961    1.3104 C   0  0  0  0  0  0  0  0  0  0  0  0
   -1.9892   -0.9549    2.4161 C   0  0  0  0  0  0  0  0  0  0  0  0
   -3.3678   -0.9359    2.0912 C   0  0  0  0  0  0  0  0  0  0  0  0
   -3.4566   -0.4695    0.8011 C   0  0  0  0  0  0  0  0  0  0  0  0
   -4.4912   -0.2366   -0.0356 N   0  0  0  0  0  0  0  0  0  0  0  0
   -5.8478   -0.7020    0.2589 C   0  0  0  0  0  0  0  0  0  0  0  0
   -6.5431   -1.1522   -1.0364 C   0  0  0  0  0  0  0  0  0  0  0  0
   -6.6402   -0.1245   -2.0327 O   0  0  0  0  0  0  0  0  0  0  0  0
   -5.5599    0.8213   -1.9838 C   0  0  0  0  0  0  0  0  0  0  0  0
   -4.2550    0.2586   -1.3987 C   0  0  0  0  0  0  0  0  0  0  0  0
   -2.2077   -0.2040    0.3378 O   0  0  0  0  0  0  0  0  0  0  0  0
    3.0105   -0.0989    1.0876 N   0  0  0  0  0  0  0  0  0  0  0  0
    4.2718    0.1649    0.6136 C   0  0  0  0  0  0  0  0  0  0  0  0
    5.5164    0.0285    1.2457 C   0  0  0  0  0  0  0  0  0  0  0  0
    8.2703    1.1988    1.6998 H   0  0  0  0  0  0  0  0  0  0  0  0
    8.0243   -0.5471    1.9511 H   0  0  0  0  0  0  0  0  0  0  0  0
    8.8059    0.0201    0.4760 H   0  0  0  0  0  0  0  0  0  0  0  0
    7.4923    1.1225   -1.3181 H   0  0  0  0  0  0  0  0  0  0  0  0
    5.2895    1.3613   -2.4401 H   0  0  0  0  0  0  0  0  0  0  0  0
    2.4926    0.9392   -1.8790 H   0  0  0  0  0  0  0  0  0  0  0  0
    0.7227   -0.6097    2.0353 H   0  0  0  0  0  0  0  0  0  0  0  0
   -1.5523   -1.2664    3.3552 H   0  0  0  0  0  0  0  0  0  0  0  0
   -4.1913   -1.2230    2.7273 H   0  0  0  0  0  0  0  0  0  0  0  0
   -6.4079    0.1234    0.7133 H   0  0  0  0  0  0  0  0  0  0  0  0
   -5.8463   -1.5424    0.9621 H   0  0  0  0  0  0  0  0  0  0  0  0
   -6.0048   -1.9968   -1.4829 H   0  0  0  0  0  0  0  0  0  0  0  0
   -7.5599   -1.4937   -0.8178 H   0  0  0  0  0  0  0  0  0  0  0  0
   -5.9018    1.6768   -1.3892 H   0  0  0  0  0  0  0  0  0  0  0  0
   -5.3918    1.1806   -3.0041 H   0  0  0  0  0  0  0  0  0  0  0  0
   -3.8941   -0.5683   -2.0220 H   0  0  0  0  0  0  0  0  0  0  0  0
   -3.5017    1.0547   -1.4034 H   0  0  0  0  0  0  0  0  0  0  0  0
    5.5589   -0.3321    2.2678 H   0  0  0  0  0  0  0  0  0  0  0  0
  1  2  1  0
  2  3  2  0
  3  4  1  0
  4  5  2  0
  5  6  1  0
  6  7  1  0
  7  8  1  0
  8  9  1  0
  9 10  3  0
  8 11  2  3
 11 12  1  0
 12 13  2  0
 13 14  1  0
 14 15  2  0
 15 16  1  0
 16 17  1  0
 17 18  1  0
 18 19  1  0
 19 20  1  0
 20 21  1  0
 15 22  1  0
  7 23  2  0
 23 24  1  0
 24 25  2  0
 25  2  1  0
 24  5  1  0
 22 12  1  0
 21 16  1  0
  1 26  1  0
  1 27  1  0
  1 28  1  0
  3 29  1  0
  4 30  1  0
  6 31  1  0
 11 32  1  0
 13 33  1  0
 14 34  1  0
 17 35  1  0
 17 36  1  0
 18 37  1  0
 18 38  1  0
 20 39  1  0
 20 40  1  0
 21 41  1  0
 21 42  1  0
 25 43  1  0
M  END
$$$$
