
     RDKit          3D

138148  0  0  0  0  0  0  0  0999 V2000
  -12.6154    1.6310   -2.6324 C   0  0  0  0  0  0  0  0  0  0  0  0
  -12.4947    0.1785   -2.2653 C   0  0  0  0  0  0  0  0  0  0  0  0
  -13.5763   -0.6124   -2.1801 C   0  0  0  0  0  0  0  0  0  0  0  0
  -13.4941   -2.0784   -2.0473 C   0  0  0  0  0  0  0  0  0  0  0  0
  -14.5103   -2.7578   -2.0514 O   0  0  0  0  0  0  0  0  0  0  0  0
  -12.2511   -2.6168   -2.0121 O   0  0  0  0  0  0  0  0  0  0  0  0
  -11.1368   -1.8329   -1.5316 C   0  0  0  0  0  0  0  0  0  0  0  0
  -11.1088   -1.9109   -0.0065 C   0  0  0  0  0  0  0  0  0  0  0  0
  -10.0202   -1.0041    0.5533 C   0  0  0  0  0  0  0  0  0  0  0  0
   -8.7683   -1.5603    0.1241 O   0  0  0  0  0  0  0  0  0  0  0  0
   -7.5948   -0.8286    0.5186 C   0  0  0  0  0  0  0  0  0  0  0  0
   -7.2504   -1.1158    1.9865 C   0  0  0  0  0  0  0  0  0  0  0  0
   -6.1948   -0.2650    2.7183 C   0  0  0  0  0  0  0  0  0  0  0  0
   -6.8610    0.8445    3.5516 C   0  0  0  0  0  0  0  0  0  0  0  0
   -5.0108    0.3047    1.8979 C   0  0  0  0  0  0  0  0  0  0  0  0
   -4.0452   -0.7199    1.6956 O   0  0  0  0  0  0  0  0  0  0  0  0
   -2.6700   -0.3512    1.9164 C   0  0  0  0  0  0  0  0  0  0  0  0
   -1.8793   -1.5780    1.4308 C   0  0  0  0  0  0  0  0  0  0  0  0
   -0.3726   -1.3923    1.1966 C   0  0  0  0  0  0  0  0  0  0  0  0
   -0.1885   -1.6902   -0.1984 O   0  0  0  0  0  0  0  0  0  0  0  0
    1.1486   -1.5772   -0.7286 C   0  0  0  0  0  0  0  0  0  0  0  0
    0.9522   -1.7235   -2.2566 C   0  0  0  0  0  0  0  0  0  0  0  0
    1.9963   -2.7995   -0.2870 C   0  0  0  0  0  0  0  0  0  0  0  0
    2.7233   -2.7569    1.0252 C   0  0  0  0  0  0  0  0  0  0  0  0
    3.7973   -2.0224    1.3541 C   0  0  0  0  0  0  0  0  0  0  0  0
    4.5735   -0.9791    0.5893 C   0  0  0  0  0  0  0  0  0  0  0  0
    5.9235   -1.4750    0.6339 O   0  0  0  0  0  0  0  0  0  0  0  0
    6.8516   -0.5349    0.1074 C   0  0  0  0  0  0  0  0  0  0  0  0
    8.2763   -0.9901    0.3969 C   0  0  0  0  0  0  0  0  0  0  0  0
    9.2293   -0.0135   -0.2822 C   0  0  0  0  0  0  0  0  0  0  0  0
   10.5873   -0.3748   -0.0401 O   0  0  0  0  0  0  0  0  0  0  0  0
   11.4936    0.6795   -0.4335 C   0  0  0  0  0  0  0  0  0  0  0  0
   12.8932    0.1888   -0.0254 C   0  0  0  0  0  0  0  0  0  0  0  0
   14.0961    1.1478   -0.1587 C   0  0  0  0  0  0  0  0  0  0  0  0
   14.6771    1.1790   -1.5717 C   0  0  0  0  0  0  0  0  0  0  0  0
   13.8367    2.5666    0.3566 C   0  0  0  0  0  0  0  0  0  0  0  0
   13.5299    2.5592    1.7457 O   0  0  0  0  0  0  0  0  0  0  0  0
   11.3447    0.9840   -1.9328 C   0  0  0  0  0  0  0  0  0  0  0  0
    9.8805    1.1841   -2.3490 C   0  0  0  0  0  0  0  0  0  0  0  0
    9.4535    2.4628   -1.8562 O   0  0  0  0  0  0  0  0  0  0  0  0
    8.9502    0.0757   -1.7969 C   0  0  0  0  0  0  0  0  0  0  0  0
    9.2534   -1.2378   -2.5505 C   0  0  0  0  0  0  0  0  0  0  0  0
    7.5773    0.4725   -2.0324 O   0  0  0  0  0  0  0  0  0  0  0  0
    6.6131   -0.3855   -1.3981 C   0  0  0  0  0  0  0  0  0  0  0  0
    5.2162    0.1932   -1.5902 C   0  0  0  0  0  0  0  0  0  0  0  0
    4.1243   -0.6216   -0.8590 C   0  0  0  0  0  0  0  0  0  0  0  0
    2.9659    0.2113   -0.9673 O   0  0  0  0  0  0  0  0  0  0  0  0
    1.6889   -0.1565   -0.4471 C   0  0  0  0  0  0  0  0  0  0  0  0
    1.5141    0.3125    0.9989 C   0  0  0  0  0  0  0  0  0  0  0  0
    0.1164    0.0154    1.5792 C   0  0  0  0  0  0  0  0  0  0  0  0
    0.2480    0.1930    3.1046 C   0  0  0  0  0  0  0  0  0  0  0  0
   -0.7475    0.9846    0.9799 O   0  0  0  0  0  0  0  0  0  0  0  0
   -2.1536    1.0079    1.3219 C   0  0  0  0  0  0  0  0  0  0  0  0
   -2.2484    2.1732    2.3376 C   0  0  0  0  0  0  0  0  0  0  0  0
   -2.8574    1.4014   -0.0024 C   0  0  0  0  0  0  0  0  0  0  0  0
   -4.3020    1.9176    0.0689 C   0  0  0  0  0  0  0  0  0  0  0  0
   -5.3371    0.8792    0.5123 C   0  0  0  0  0  0  0  0  0  0  0  0
   -6.6201    1.4978    0.5275 O   0  0  0  0  0  0  0  0  0  0  0  0
   -7.6746    0.6435    0.0621 C   0  0  0  0  0  0  0  0  0  0  0  0
   -8.9996    1.2842    0.4744 C   0  0  0  0  0  0  0  0  0  0  0  0
  -10.2125    0.4407    0.0527 C   0  0  0  0  0  0  0  0  0  0  0  0
  -11.4606    1.0942    0.6740 C   0  0  0  0  0  0  0  0  0  0  0  0
  -10.2590    0.5041   -1.3840 O   0  0  0  0  0  0  0  0  0  0  0  0
  -11.1147   -0.3986   -2.0922 C   0  0  0  0  0  0  0  0  0  0  0  0
  -12.0315    2.2686   -1.9667 H   0  0  0  0  0  0  0  0  0  0  0  0
  -12.2557    1.7822   -3.6538 H   0  0  0  0  0  0  0  0  0  0  0  0
  -13.6538    1.9748   -2.5880 H   0  0  0  0  0  0  0  0  0  0  0  0
  -14.5845   -0.2290   -2.3111 H   0  0  0  0  0  0  0  0  0  0  0  0
  -10.2357   -2.3391   -1.9022 H   0  0  0  0  0  0  0  0  0  0  0  0
  -12.0875   -1.6558    0.4160 H   0  0  0  0  0  0  0  0  0  0  0  0
  -10.9247   -2.9534    0.2870 H   0  0  0  0  0  0  0  0  0  0  0  0
  -10.0674   -1.0458    1.6481 H   0  0  0  0  0  0  0  0  0  0  0  0
   -6.7952   -1.3034   -0.0615 H   0  0  0  0  0  0  0  0  0  0  0  0
   -6.9077   -2.1607    2.0164 H   0  0  0  0  0  0  0  0  0  0  0  0
   -8.1626   -1.1397    2.5911 H   0  0  0  0  0  0  0  0  0  0  0  0
   -5.7546   -0.9418    3.4663 H   0  0  0  0  0  0  0  0  0  0  0  0
   -7.2433    1.6616    2.9389 H   0  0  0  0  0  0  0  0  0  0  0  0
   -6.1376    1.2759    4.2545 H   0  0  0  0  0  0  0  0  0  0  0  0
   -7.6883    0.4483    4.1506 H   0  0  0  0  0  0  0  0  0  0  0  0
   -4.5894    1.0806    2.5390 H   0  0  0  0  0  0  0  0  0  0  0  0
   -2.5691   -0.3158    3.0077 H   0  0  0  0  0  0  0  0  0  0  0  0
   -2.0179   -2.3742    2.1794 H   0  0  0  0  0  0  0  0  0  0  0  0
   -2.3580   -1.9801    0.5242 H   0  0  0  0  0  0  0  0  0  0  0  0
    0.1633   -2.1566    1.7703 H   0  0  0  0  0  0  0  0  0  0  0  0
    0.5485   -2.7117   -2.5078 H   0  0  0  0  0  0  0  0  0  0  0  0
    1.8905   -1.5876   -2.8034 H   0  0  0  0  0  0  0  0  0  0  0  0
    0.2250   -0.9942   -2.6318 H   0  0  0  0  0  0  0  0  0  0  0  0
    2.7219   -3.0828   -1.0579 H   0  0  0  0  0  0  0  0  0  0  0  0
    1.3227   -3.6694   -0.2343 H   0  0  0  0  0  0  0  0  0  0  0  0
    2.3462   -3.4561    1.7749 H   0  0  0  0  0  0  0  0  0  0  0  0
    4.1934   -2.1826    2.3589 H   0  0  0  0  0  0  0  0  0  0  0  0
    4.5342   -0.0634    1.1954 H   0  0  0  0  0  0  0  0  0  0  0  0
    6.7139    0.4328    0.6105 H   0  0  0  0  0  0  0  0  0  0  0  0
    8.4580   -1.0115    1.4791 H   0  0  0  0  0  0  0  0  0  0  0  0
    8.4448   -2.0237    0.0689 H   0  0  0  0  0  0  0  0  0  0  0  0
    9.0447    0.9626    0.1897 H   0  0  0  0  0  0  0  0  0  0  0  0
   11.2372    1.5690    0.1552 H   0  0  0  0  0  0  0  0  0  0  0  0
   13.1120   -0.7479   -0.5555 H   0  0  0  0  0  0  0  0  0  0  0  0
   12.8305   -0.1167    1.0289 H   0  0  0  0  0  0  0  0  0  0  0  0
   14.8785    0.7124    0.4812 H   0  0  0  0  0  0  0  0  0  0  0  0
   15.6451    1.6918   -1.5721 H   0  0  0  0  0  0  0  0  0  0  0  0
   14.8458    0.1645   -1.9510 H   0  0  0  0  0  0  0  0  0  0  0  0
   14.0354    1.7061   -2.2795 H   0  0  0  0  0  0  0  0  0  0  0  0
   13.0229    3.0614   -0.1835 H   0  0  0  0  0  0  0  0  0  0  0  0
   14.7329    3.1834    0.2309 H   0  0  0  0  0  0  0  0  0  0  0  0
   12.7416    2.0114    1.8875 H   0  0  0  0  0  0  0  0  0  0  0  0
   11.7703    0.1592   -2.5161 H   0  0  0  0  0  0  0  0  0  0  0  0
   11.9040    1.8934   -2.1780 H   0  0  0  0  0  0  0  0  0  0  0  0
    9.8108    1.2408   -3.4431 H   0  0  0  0  0  0  0  0  0  0  0  0
    8.5733    2.6141   -2.2655 H   0  0  0  0  0  0  0  0  0  0  0  0
    9.0315   -1.1237   -3.6182 H   0  0  0  0  0  0  0  0  0  0  0  0
   10.2969   -1.5516   -2.4512 H   0  0  0  0  0  0  0  0  0  0  0  0
    8.6390   -2.0722   -2.2052 H   0  0  0  0  0  0  0  0  0  0  0  0
    6.6253   -1.3678   -1.8888 H   0  0  0  0  0  0  0  0  0  0  0  0
    4.9796    0.2604   -2.6608 H   0  0  0  0  0  0  0  0  0  0  0  0
    5.1990    1.2371   -1.2439 H   0  0  0  0  0  0  0  0  0  0  0  0
    3.9939   -1.5274   -1.4565 H   0  0  0  0  0  0  0  0  0  0  0  0
    1.0129    0.5134   -0.9972 H   0  0  0  0  0  0  0  0  0  0  0  0
    1.7053    1.3956    1.0267 H   0  0  0  0  0  0  0  0  0  0  0  0
    2.2795   -0.1090    1.6462 H   0  0  0  0  0  0  0  0  0  0  0  0
   -0.6692   -0.0087    3.6551 H   0  0  0  0  0  0  0  0  0  0  0  0
    1.0058   -0.4834    3.5154 H   0  0  0  0  0  0  0  0  0  0  0  0
    0.5398    1.2208    3.3468 H   0  0  0  0  0  0  0  0  0  0  0  0
   -1.8919    1.8724    3.3277 H   0  0  0  0  0  0  0  0  0  0  0  0
   -1.6089    3.0087    2.0255 H   0  0  0  0  0  0  0  0  0  0  0  0
   -3.2515    2.5738    2.4806 H   0  0  0  0  0  0  0  0  0  0  0  0
   -2.8098    0.5504   -0.6955 H   0  0  0  0  0  0  0  0  0  0  0  0
   -2.2611    2.1863   -0.4890 H   0  0  0  0  0  0  0  0  0  0  0  0
   -4.3744    2.8184    0.6889 H   0  0  0  0  0  0  0  0  0  0  0  0
   -4.5866    2.2636   -0.9352 H   0  0  0  0  0  0  0  0  0  0  0  0
   -5.2916    0.0955   -0.2543 H   0  0  0  0  0  0  0  0  0  0  0  0
   -7.6316    0.6556   -1.0360 H   0  0  0  0  0  0  0  0  0  0  0  0
   -9.0535    2.2864    0.0280 H   0  0  0  0  0  0  0  0  0  0  0  0
   -9.0063    1.4373    1.5600 H   0  0  0  0  0  0  0  0  0  0  0  0
  -12.3882    0.5812    0.4087 H   0  0  0  0  0  0  0  0  0  0  0  0
  -11.5693    2.1297    0.3293 H   0  0  0  0  0  0  0  0  0  0  0  0
  -11.3970    1.1090    1.7675 H   0  0  0  0  0  0  0  0  0  0  0  0
  -10.7026   -0.4549   -3.1093 H   0  0  0  0  0  0  0  0  0  0  0  0
  1  2  1  0
  2  3  2  0
  3  4  1  0
  4  5  2  0
  4  6  1  0
  6  7  1  0
  7  8  1  0
  8  9  1  0
  9 10  1  0
 10 11  1  0
 11 12  1  0
 12 13  1  0
 13 14  1  0
 13 15  1  0
 15 16  1  0
 16 17  1  0
 17 18  1  0
 18 19  1  0
 19 20  1  0
 20 21  1  0
 21 22  1  0
 21 23  1  0
 23 24  1  0
 24 25  2  3
 25 26  1  0
 26 27  1  0
 27 28  1  0
 28 29  1  0
 29 30  1  0
 30 31  1  0
 31 32  1  0
 32 33  1  0
 33 34  1  0
 34 35  1  0
 34 36  1  0
 36 37  1  0
 32 38  1  0
 38 39  1  0
 39 40  1  0
 39 41  1  0
 41 42  1  0
 41 43  1  0
 43 44  1  0
 44 45  1  0
 45 46  1  0
 46 47  1  0
 47 48  1  0
 48 49  1  0
 49 50  1  0
 50 51  1  0
 50 52  1  0
 52 53  1  0
 53 54  1  0
 53 55  1  0
 55 56  1  0
 56 57  1  0
 57 58  1  0
 58 59  1  0
 59 60  1  0
 60 61  1  0
 61 62  1  0
 61 63  1  0
 63 64  1  0
 64  2  1  0
 64  7  1  0
 61  9  1  0
 59 11  1  0
 57 15  1  0
 53 17  1  0
 50 19  1  0
 48 21  1  0
 46 26  1  0
 44 28  1  0
 41 30  1  0
  1 65  1  0
  1 66  1  0
  1 67  1  0
  3 68  1  0
  7 69  1  0
  8 70  1  0
  8 71  1  0
  9 72  1  0
 11 73  1  0
 12 74  1  0
 12 75  1  0
 13 76  1  0
 14 77  1  0
 14 78  1  0
 14 79  1  0
 15 80  1  0
 17 81  1  0
 18 82  1  0
 18 83  1  0
 19 84  1  0
 22 85  1  0
 22 86  1  0
 22 87  1  0
 23 88  1  0
 23 89  1  0
 24 90  1  0
 25 91  1  0
 26 92  1  0
 28 93  1  0
 29 94  1  0
 29 95  1  0
 30 96  1  0
 32 97  1  0
 33 98  1  0
 33 99  1  0
 34100  1  0
 35101  1  0
 35102  1  0
 35103  1  0
 36104  1  0
 36105  1  0
 37106  1  0
 38107  1  0
 38108  1  0
 39109  1  0
 40110  1  0
 42111  1  0
 42112  1  0
 42113  1  0
 44114  1  0
 45115  1  0
 45116  1  0
 46117  1  0
 48118  1  0
 49119  1  0
 49120  1  0
 51121  1  0
 51122  1  0
 51123  1  0
 54124  1  0
 54125  1  0
 54126  1  0
 55127  1  0
 55128  1  0
 56129  1  0
 56130  1  0
 57131  1  0
 59132  1  0
 60133  1  0
 60134  1  0
 62135  1  0
 62136  1  0
 62137  1  0
 64138  1  0
M  END
$$$$
