
     RDKit          3D

 33 35  0  0  0  0  0  0  0  0999 V2000
    4.2445    1.1548    1.2262 C   0  0  0  0  0  0  0  0  0  0  0  0
    3.4037    0.4792    0.2192 C   0  0  0  0  0  0  0  0  0  0  0  0
    3.6028    0.1092   -1.0885 C   0  0  0  0  0  0  0  0  0  0  0  0
    2.4010   -0.5100   -1.5058 C   0  0  0  0  0  0  0  0  0  0  0  0
    1.5195   -0.5041   -0.4286 C   0  0  0  0  0  0  0  0  0  0  0  0
    0.1708   -0.9975   -0.3303 C   0  0  0  0  0  0  0  0  0  0  0  0
   -0.9634   -0.0886   -0.0734 C   0  0  0  0  0  0  0  0  0  0  0  0
   -2.2086   -0.5814    0.0554 C   0  0  0  0  0  0  0  0  0  0  0  0
   -2.4224   -1.9295   -0.0707 N   0  0  0  0  0  0  0  0  0  0  0  0
   -1.4415   -2.8602   -0.3185 C   0  0  0  0  0  0  0  0  0  0  0  0
   -1.9405   -4.4598   -0.4499 S   0  0  0  0  0  0  0  0  0  0  0  0
   -0.0385   -2.3345   -0.4414 C   0  0  0  0  0  0  0  0  0  0  0  0
    1.0231   -3.2681   -0.6533 C   0  0  0  0  0  0  0  0  0  0  0  0
    1.8955   -4.0108   -0.8433 N   0  0  0  0  0  0  0  0  0  0  0  0
   -3.4204    0.2661    0.3467 C   0  0  0  0  0  0  0  0  0  0  0  0
   -3.0676    1.6775    0.8137 C   0  0  0  0  0  0  0  0  0  0  0  0
   -1.9530    2.2645   -0.0405 C   0  0  0  0  0  0  0  0  0  0  0  0
   -0.6914    1.3990    0.0289 C   0  0  0  0  0  0  0  0  0  0  0  0
    2.1550    0.1245    0.6196 O   0  0  0  0  0  0  0  0  0  0  0  0
    4.3972    0.5065    2.0945 H   0  0  0  0  0  0  0  0  0  0  0  0
    3.7677    2.0799    1.5645 H   0  0  0  0  0  0  0  0  0  0  0  0
    5.2256    1.4082    0.8130 H   0  0  0  0  0  0  0  0  0  0  0  0
    4.5013    0.2634   -1.6696 H   0  0  0  0  0  0  0  0  0  0  0  0
    2.1968   -0.9236   -2.4845 H   0  0  0  0  0  0  0  0  0  0  0  0
   -3.3677   -2.2916    0.0222 H   0  0  0  0  0  0  0  0  0  0  0  0
   -4.0297    0.3257   -0.5640 H   0  0  0  0  0  0  0  0  0  0  0  0
   -4.0394   -0.2107    1.1165 H   0  0  0  0  0  0  0  0  0  0  0  0
   -3.9570    2.3157    0.7656 H   0  0  0  0  0  0  0  0  0  0  0  0
   -2.7495    1.6513    1.8637 H   0  0  0  0  0  0  0  0  0  0  0  0
   -2.2911    2.3395   -1.0820 H   0  0  0  0  0  0  0  0  0  0  0  0
   -1.7193    3.2823    0.2920 H   0  0  0  0  0  0  0  0  0  0  0  0
   -0.0237    1.7268   -0.7770 H   0  0  0  0  0  0  0  0  0  0  0  0
   -0.1798    1.5964    0.9796 H   0  0  0  0  0  0  0  0  0  0  0  0
  1  2  1  0
  2  3  2  0
  3  4  1  0
  4  5  2  0
  5  6  1  0
  6  7  1  0
  7  8  2  0
  8  9  1  0
  9 10  1  0
 10 11  2  0
 10 12  1  0
 12 13  1  0
 13 14  3  0
  8 15  1  0
 15 16  1  0
 16 17  1  0
 17 18  1  0
  5 19  1  0
 19  2  1  0
 12  6  2  0
 18  7  1  0
  1 20  1  0
  1 21  1  0
  1 22  1  0
  3 23  1  0
  4 24  1  0
  9 25  1  0
 15 26  1  0
 15 27  1  0
 16 28  1  0
 16 29  1  0
 17 30  1  0
 17 31  1  0
 18 32  1  0
 18 33  1  0
M  END
$$$$
