
     RDKit          3D

 48 51  0  0  0  0  0  0  0  0999 V2000
    6.8117   -0.6581    2.4482 C   0  0  0  0  0  0  0  0  0  0  0  0
    5.4733   -0.5119    1.7879 C   0  0  0  0  0  0  0  0  0  0  0  0
    4.3861   -1.2808    2.2045 C   0  0  0  0  0  0  0  0  0  0  0  0
    3.1495   -1.1599    1.5612 C   0  0  0  0  0  0  0  0  0  0  0  0
    2.9623   -0.2930    0.4942 C   0  0  0  0  0  0  0  0  0  0  0  0
    1.7549   -0.2144   -0.0882 N   0  0  0  0  0  0  0  0  0  0  0  0
    1.5837    0.6271   -1.1360 C   0  0  0  0  0  0  0  0  0  0  0  0
   -0.0661    0.6906   -1.8205 S   0  0  0  0  0  0  0  0  0  0  0  0
   -0.6715   -0.9598   -1.3385 C   0  0  0  0  0  0  0  0  0  0  0  0
   -2.1023   -1.1231   -1.8016 C   0  0  0  0  0  0  0  0  0  0  0  0
   -2.3087   -1.5582   -2.9442 O   0  0  0  0  0  0  0  0  0  0  0  0
   -3.1612   -0.8364   -0.9592 N   0  0  0  0  0  0  0  0  0  0  0  0
   -3.2265   -0.2943    0.3434 C   0  0  0  0  0  0  0  0  0  0  0  0
   -2.2605    0.3009    1.1370 C   0  0  0  0  0  0  0  0  0  0  0  0
   -2.6152    0.7656    2.4114 C   0  0  0  0  0  0  0  0  0  0  0  0
   -3.9254    0.6366    2.8860 C   0  0  0  0  0  0  0  0  0  0  0  0
   -4.9012    0.0454    2.0894 C   0  0  0  0  0  0  0  0  0  0  0  0
   -4.5377   -0.4022    0.8260 C   0  0  0  0  0  0  0  0  0  0  0  0
   -5.4254   -1.1021   -0.1542 C   0  0  0  0  0  0  0  0  0  0  0  0
   -4.5484   -1.0958   -1.4167 C   0  0  0  0  0  0  0  0  0  0  0  0
   -5.0160   -0.0244   -2.4086 C   0  0  0  0  0  0  0  0  0  0  0  0
    2.6083    1.4340   -1.6357 C   0  0  0  0  0  0  0  0  0  0  0  0
    2.4185    2.3774   -2.7876 C   0  0  0  0  0  0  0  0  0  0  0  0
    3.8608    1.3412   -1.0177 C   0  0  0  0  0  0  0  0  0  0  0  0
    4.0585    0.4728    0.0618 C   0  0  0  0  0  0  0  0  0  0  0  0
    5.3054    0.3566    0.7045 C   0  0  0  0  0  0  0  0  0  0  0  0
    7.3567    0.2916    2.4378 H   0  0  0  0  0  0  0  0  0  0  0  0
    6.7011   -0.9573    3.4958 H   0  0  0  0  0  0  0  0  0  0  0  0
    7.4061   -1.4142    1.9259 H   0  0  0  0  0  0  0  0  0  0  0  0
    4.4874   -1.9799    3.0317 H   0  0  0  0  0  0  0  0  0  0  0  0
    2.3109   -1.7625    1.9018 H   0  0  0  0  0  0  0  0  0  0  0  0
   -0.0696   -1.7154   -1.8578 H   0  0  0  0  0  0  0  0  0  0  0  0
   -0.5799   -1.1831   -0.2752 H   0  0  0  0  0  0  0  0  0  0  0  0
   -1.2399    0.4600    0.8204 H   0  0  0  0  0  0  0  0  0  0  0  0
   -1.8608    1.2386    3.0366 H   0  0  0  0  0  0  0  0  0  0  0  0
   -4.1795    1.0012    3.8782 H   0  0  0  0  0  0  0  0  0  0  0  0
   -5.9185   -0.0638    2.4518 H   0  0  0  0  0  0  0  0  0  0  0  0
   -5.6019   -2.1279    0.1880 H   0  0  0  0  0  0  0  0  0  0  0  0
   -6.3836   -0.5923   -0.2924 H   0  0  0  0  0  0  0  0  0  0  0  0
   -4.5922   -2.0735   -1.9126 H   0  0  0  0  0  0  0  0  0  0  0  0
   -4.3935   -0.0164   -3.3089 H   0  0  0  0  0  0  0  0  0  0  0  0
   -6.0493   -0.2114   -2.7188 H   0  0  0  0  0  0  0  0  0  0  0  0
   -4.9670    0.9781   -1.9687 H   0  0  0  0  0  0  0  0  0  0  0  0
    3.3488    2.9009   -3.0333 H   0  0  0  0  0  0  0  0  0  0  0  0
    2.1082    1.8321   -3.6846 H   0  0  0  0  0  0  0  0  0  0  0  0
    1.6723    3.1397   -2.5416 H   0  0  0  0  0  0  0  0  0  0  0  0
    4.6870    1.9506   -1.3780 H   0  0  0  0  0  0  0  0  0  0  0  0
    6.1501    0.9486    0.3573 H   0  0  0  0  0  0  0  0  0  0  0  0
  1  2  1  0
  2  3  2  0
  3  4  1  0
  4  5  2  0
  5  6  1  0
  6  7  2  0
  7  8  1  0
  8  9  1  0
  9 10  1  0
 10 11  2  0
 10 12  1  0
 12 13  1  0
 13 14  2  0
 14 15  1  0
 15 16  2  0
 16 17  1  0
 17 18  2  0
 18 19  1  0
 19 20  1  0
 20 21  1  0
  7 22  1  0
 22 23  1  0
 22 24  2  0
 24 25  1  0
 25 26  2  0
 26  2  1  0
 25  5  1  0
 20 12  1  0
 18 13  1  0
  1 27  1  0
  1 28  1  0
  1 29  1  0
  3 30  1  0
  4 31  1  0
  9 32  1  0
  9 33  1  0
 14 34  1  0
 15 35  1  0
 16 36  1  0
 17 37  1  0
 19 38  1  0
 19 39  1  0
 20 40  1  0
 21 41  1  0
 21 42  1  0
 21 43  1  0
 23 44  1  0
 23 45  1  0
 23 46  1  0
 24 47  1  0
 26 48  1  0
M  END
$$$$
