
     RDKit          3D

 58 61  0  0  0  0  0  0  0  0999 V2000
    7.9670   -1.4972   -0.8095 C   0  0  0  0  0  0  0  0  0  0  0  0
    7.4812   -0.1631   -0.7084 O   0  0  0  0  0  0  0  0  0  0  0  0
    6.1645   -0.0131   -0.3690 C   0  0  0  0  0  0  0  0  0  0  0  0
    5.3128   -1.0250    0.0757 C   0  0  0  0  0  0  0  0  0  0  0  0
    3.9803   -0.7326    0.3950 C   0  0  0  0  0  0  0  0  0  0  0  0
    3.4715    0.5714    0.2787 C   0  0  0  0  0  0  0  0  0  0  0  0
    2.0668    0.8397    0.5941 C   0  0  0  0  0  0  0  0  0  0  0  0
    1.1353    1.1153   -0.3872 C   0  0  0  0  0  0  0  0  0  0  0  0
   -0.1878    1.3229    0.0017 C   0  0  0  0  0  0  0  0  0  0  0  0
   -1.1664    1.4816   -1.1050 C   0  0  0  0  0  0  0  0  0  0  0  0
   -0.9167    2.2027   -2.0642 O   0  0  0  0  0  0  0  0  0  0  0  0
   -2.2951    0.7044   -1.0044 N   0  0  0  0  0  0  0  0  0  0  0  0
   -3.2535    0.5766   -2.0886 C   0  0  0  0  0  0  0  0  0  0  0  0
   -4.5634   -0.0487   -1.5751 C   0  0  0  0  0  0  0  0  0  0  0  0
   -4.3182   -1.2313   -0.7240 N   0  0  0  0  0  0  0  0  0  0  0  0
   -5.4909   -1.5334    0.1197 C   0  0  0  0  0  0  0  0  0  0  0  0
   -5.3528   -2.9237    0.7569 C   0  0  0  0  0  0  0  0  0  0  0  0
   -5.3543   -3.9813   -0.2074 O   0  0  0  0  0  0  0  0  0  0  0  0
   -4.9410   -3.5556   -1.5136 C   0  0  0  0  0  0  0  0  0  0  0  0
   -3.8971   -2.4256   -1.4909 C   0  0  0  0  0  0  0  0  0  0  0  0
   -0.5504    1.3335    1.3717 C   0  0  0  0  0  0  0  0  0  0  0  0
   -1.8402    1.6429    1.8814 C   0  0  0  0  0  0  0  0  0  0  0  0
   -2.1042    1.6220    3.2501 C   0  0  0  0  0  0  0  0  0  0  0  0
   -1.0858    1.3057    4.1360 C   0  0  0  0  0  0  0  0  0  0  0  0
    0.1900    1.0204    3.6436 C   0  0  0  0  0  0  0  0  0  0  0  0
    0.4786    1.0353    2.2841 C   0  0  0  0  0  0  0  0  0  0  0  0
    1.7394    0.7701    1.9063 N   0  0  0  0  0  0  0  0  0  0  0  0
    4.3558    1.5827   -0.1291 C   0  0  0  0  0  0  0  0  0  0  0  0
    3.9355    2.8880   -0.2452 O   0  0  0  0  0  0  0  0  0  0  0  0
    4.1429    3.5743    0.9934 C   0  0  0  0  0  0  0  0  0  0  0  0
    5.6813    1.2936   -0.4649 C   0  0  0  0  0  0  0  0  0  0  0  0
    9.0062   -1.4504   -1.1498 H   0  0  0  0  0  0  0  0  0  0  0  0
    7.3976   -2.0691   -1.5534 H   0  0  0  0  0  0  0  0  0  0  0  0
    7.9600   -1.9966    0.1680 H   0  0  0  0  0  0  0  0  0  0  0  0
    5.6526   -2.0487    0.1971 H   0  0  0  0  0  0  0  0  0  0  0  0
    3.3340   -1.5340    0.7497 H   0  0  0  0  0  0  0  0  0  0  0  0
    1.4230    1.1467   -1.4376 H   0  0  0  0  0  0  0  0  0  0  0  0
   -2.3365   -0.0335   -0.3040 H   0  0  0  0  0  0  0  0  0  0  0  0
   -2.7906   -0.0447   -2.8637 H   0  0  0  0  0  0  0  0  0  0  0  0
   -3.4435    1.5663   -2.5222 H   0  0  0  0  0  0  0  0  0  0  0  0
   -5.2325   -0.2839   -2.4115 H   0  0  0  0  0  0  0  0  0  0  0  0
   -5.0621    0.7203   -0.9701 H   0  0  0  0  0  0  0  0  0  0  0  0
   -5.5723   -0.7765    0.9077 H   0  0  0  0  0  0  0  0  0  0  0  0
   -6.4119   -1.5051   -0.4788 H   0  0  0  0  0  0  0  0  0  0  0  0
   -6.1834   -3.1087    1.4462 H   0  0  0  0  0  0  0  0  0  0  0  0
   -4.4245   -2.9952    1.3365 H   0  0  0  0  0  0  0  0  0  0  0  0
   -5.8355   -3.2418   -2.0686 H   0  0  0  0  0  0  0  0  0  0  0  0
   -4.5324   -4.4299   -2.0331 H   0  0  0  0  0  0  0  0  0  0  0  0
   -2.9866   -2.8058   -1.0091 H   0  0  0  0  0  0  0  0  0  0  0  0
   -3.6230   -2.1773   -2.5219 H   0  0  0  0  0  0  0  0  0  0  0  0
   -2.6481    1.9295    1.2111 H   0  0  0  0  0  0  0  0  0  0  0  0
   -3.0963    1.8669    3.6214 H   0  0  0  0  0  0  0  0  0  0  0  0
   -1.2713    1.2966    5.2093 H   0  0  0  0  0  0  0  0  0  0  0  0
    0.9890    0.7912    4.3454 H   0  0  0  0  0  0  0  0  0  0  0  0
    3.5512    3.1327    1.8021 H   0  0  0  0  0  0  0  0  0  0  0  0
    3.8059    4.6115    0.8682 H   0  0  0  0  0  0  0  0  0  0  0  0
    5.2039    3.5920    1.2662 H   0  0  0  0  0  0  0  0  0  0  0  0
    6.3420    2.0948   -0.7965 H   0  0  0  0  0  0  0  0  0  0  0  0
  1  2  1  0
  2  3  1  0
  3  4  2  0
  4  5  1  0
  5  6  2  0
  6  7  1  0
  7  8  2  0
  8  9  1  0
  9 10  1  0
 10 11  2  0
 10 12  1  0
 12 13  1  0
 13 14  1  0
 14 15  1  0
 15 16  1  0
 16 17  1  0
 17 18  1  0
 18 19  1  0
 19 20  1  0
  9 21  2  0
 21 22  1  0
 22 23  2  0
 23 24  1  0
 24 25  2  0
 25 26  1  0
 26 27  2  0
  6 28  1  0
 28 29  1  0
 29 30  1  0
 28 31  2  0
 31  3  1  0
 27  7  1  0
 20 15  1  0
 26 21  1  0
  1 32  1  0
  1 33  1  0
  1 34  1  0
  4 35  1  0
  5 36  1  0
  8 37  1  0
 12 38  1  0
 13 39  1  0
 13 40  1  0
 14 41  1  0
 14 42  1  0
 16 43  1  0
 16 44  1  0
 17 45  1  0
 17 46  1  0
 19 47  1  0
 19 48  1  0
 20 49  1  0
 20 50  1  0
 22 51  1  0
 23 52  1  0
 24 53  1  0
 25 54  1  0
 30 55  1  0
 30 56  1  0
 30 57  1  0
 31 58  1  0
M  END
$$$$
