
     RDKit          3D

 38 40  0  0  0  0  0  0  0  0999 V2000
    2.0691   -1.7637   -0.4213 O   0  0  0  0  0  0  0  0  0  0  0  0
    2.3305   -0.6323   -0.8228 C   0  0  0  0  0  0  0  0  0  0  0  0
    1.3799    0.1752   -1.4204 N   0  0  0  0  0  0  0  0  0  0  0  0
    0.0455   -0.2766   -1.3476 N   0  0  0  0  0  0  0  0  0  0  0  0
   -0.8910    0.6364   -0.8839 C   0  0  0  0  0  0  0  0  0  0  0  0
   -0.6199    1.8325   -0.7739 O   0  0  0  0  0  0  0  0  0  0  0  0
   -2.2447    0.0195   -0.5367 C   0  0  0  0  0  0  0  0  0  0  0  0
   -2.1475   -0.6582    0.8247 C   0  0  0  0  0  0  0  0  0  0  0  0
   -3.3565   -1.3717    1.1156 O   0  0  0  0  0  0  0  0  0  0  0  0
   -4.4607   -0.6027    0.8483 C   0  0  0  0  0  0  0  0  0  0  0  0
   -5.6720   -1.0347    1.3843 C   0  0  0  0  0  0  0  0  0  0  0  0
   -6.8316   -0.2875    1.1703 C   0  0  0  0  0  0  0  0  0  0  0  0
   -6.7780    0.8882    0.4192 C   0  0  0  0  0  0  0  0  0  0  0  0
   -5.5669    1.3135   -0.1295 C   0  0  0  0  0  0  0  0  0  0  0  0
   -4.4124    0.5601    0.0719 C   0  0  0  0  0  0  0  0  0  0  0  0
   -3.2629    1.0230   -0.5154 O   0  0  0  0  0  0  0  0  0  0  0  0
    3.6914   -0.0550   -0.6482 C   0  0  0  0  0  0  0  0  0  0  0  0
    4.1584    1.0041   -1.4409 C   0  0  0  0  0  0  0  0  0  0  0  0
    5.4463    1.5131   -1.2496 C   0  0  0  0  0  0  0  0  0  0  0  0
    6.2786    0.9659   -0.2725 C   0  0  0  0  0  0  0  0  0  0  0  0
    5.8167   -0.1004    0.5109 C   0  0  0  0  0  0  0  0  0  0  0  0
    6.6937   -0.6804    1.5360 N   0  0  0  0  0  4  0  0  0  0  0  0
    6.2190   -1.5558    2.2723 O   0  0  0  0  0  0  0  0  0  0  0  0
    7.8559   -0.2563    1.6050 O   0  0  0  0  0  1  0  0  0  0  0  0
    4.5279   -0.6170    0.3260 C   0  0  0  0  0  0  0  0  0  0  0  0
    1.4805    1.1913   -1.4176 H   0  0  0  0  0  0  0  0  0  0  0  0
   -0.0504   -1.2771   -1.1655 H   0  0  0  0  0  0  0  0  0  0  0  0
   -2.5049   -0.7039   -1.3219 H   0  0  0  0  0  0  0  0  0  0  0  0
   -1.9679    0.0680    1.6288 H   0  0  0  0  0  0  0  0  0  0  0  0
   -1.3289   -1.3851    0.8521 H   0  0  0  0  0  0  0  0  0  0  0  0
   -5.7113   -1.9441    1.9773 H   0  0  0  0  0  0  0  0  0  0  0  0
   -7.7762   -0.6190    1.5942 H   0  0  0  0  0  0  0  0  0  0  0  0
   -7.6806    1.4724    0.2584 H   0  0  0  0  0  0  0  0  0  0  0  0
   -5.5253    2.2248   -0.7196 H   0  0  0  0  0  0  0  0  0  0  0  0
    3.5457    1.4333   -2.2304 H   0  0  0  0  0  0  0  0  0  0  0  0
    5.8044    2.3336   -1.8692 H   0  0  0  0  0  0  0  0  0  0  0  0
    7.2789    1.3746   -0.1382 H   0  0  0  0  0  0  0  0  0  0  0  0
    4.1670   -1.4490    0.9300 H   0  0  0  0  0  0  0  0  0  0  0  0
  1  2  2  0
  2  3  1  0
  3  4  1  0
  4  5  1  0
  5  6  2  0
  5  7  1  0
  7  8  1  0
  8  9  1  0
  9 10  1  0
 10 11  2  0
 11 12  1  0
 12 13  2  0
 13 14  1  0
 14 15  2  0
 15 16  1  0
  2 17  1  0
 17 18  2  0
 18 19  1  0
 19 20  2  0
 20 21  1  0
 21 22  1  0
 22 23  2  0
 22 24  1  0
 21 25  2  0
 16  7  1  0
 25 17  1  0
 15 10  1  0
  3 26  1  0
  4 27  1  0
  7 28  1  0
  8 29  1  0
  8 30  1  0
 11 31  1  0
 12 32  1  0
 13 33  1  0
 14 34  1  0
 18 35  1  0
 19 36  1  0
 20 37  1  0
 25 38  1  0
M  CHG  2  22   1  24  -1
M  END
$$$$
