
     RDKit          3D

 74 78  0  0  0  0  0  0  0  0999 V2000
    0.7279   -4.5515    3.2368 C   0  0  0  0  0  0  0  0  0  0  0  0
    0.5570   -3.1156    3.7142 C   0  0  0  0  0  0  0  0  0  0  0  0
   -0.6790   -2.4612    3.1568 C   0  0  0  0  0  0  0  0  0  0  0  0
   -2.0064   -2.5986    3.8718 C   0  0  0  0  0  0  0  0  0  0  0  0
   -2.0613   -3.4050    5.1521 C   0  0  0  0  0  0  0  0  0  0  0  0
   -3.1268   -2.0583    3.4876 N   0  0  0  0  0  0  0  0  0  0  0  0
   -3.0873   -1.3014    2.3578 C   0  0  0  0  0  0  0  0  0  0  0  0
   -4.0745   -0.6115    1.6972 C   0  0  0  0  0  0  0  0  0  0  0  0
   -3.4504    0.0116    0.5898 C   0  0  0  0  0  0  0  0  0  0  0  0
   -4.0593    0.8724   -0.4353 C   0  0  0  0  0  0  0  0  0  0  0  0
   -3.2583    1.4865   -1.4110 C   0  0  0  0  0  0  0  0  0  0  0  0
   -3.8119    2.3121   -2.3923 C   0  0  0  0  0  0  0  0  0  0  0  0
   -2.9080    2.8426   -3.2715 O   0  0  0  0  0  0  0  0  0  0  0  0
   -3.4257    3.6681   -4.3073 C   0  0  0  0  0  0  0  0  0  0  0  0
   -5.1881    2.5280   -2.4018 C   0  0  0  0  0  0  0  0  0  0  0  0
   -6.0087    1.9249   -1.4432 C   0  0  0  0  0  0  0  0  0  0  0  0
   -7.3396    2.2212   -1.5725 O   0  0  0  0  0  0  0  0  0  0  0  0
   -8.2318    1.6225   -0.6409 C   0  0  0  0  0  0  0  0  0  0  0  0
   -5.4443    1.1013   -0.4652 C   0  0  0  0  0  0  0  0  0  0  0  0
   -2.1413   -0.2763    0.5665 N   0  0  0  0  0  0  0  0  0  0  0  0
   -1.9153   -1.0874    1.6391 N   0  0  0  0  0  0  0  0  0  0  0  0
   -0.6876   -1.6776    2.0515 C   0  0  0  0  0  0  0  0  0  0  0  0
    0.4808   -1.4336    1.2918 N   0  0  0  0  0  0  0  0  0  0  0  0
    0.6493   -2.1824    0.0191 C   0  0  0  0  0  0  0  0  0  0  0  0
    1.9968   -1.8221   -0.6397 C   0  0  0  0  0  0  0  0  0  0  0  0
    2.0805   -0.4104   -1.0796 N   0  0  0  0  0  0  0  0  0  0  0  0
    3.4820    0.0393   -1.1306 C   0  0  0  0  0  0  0  0  0  0  0  0
    3.6798    1.2811   -2.0405 C   0  0  0  0  0  0  0  0  0  0  0  0
    5.0511    1.7919   -2.1857 N   0  0  0  0  0  0  0  0  0  0  0  0
    5.5703    2.4413   -0.9714 C   0  0  0  0  0  0  0  0  0  0  0  0
    7.0942    2.6183   -1.0492 C   0  0  0  0  0  0  0  0  0  0  0  0
    7.7950    1.3668   -1.1032 O   0  0  0  0  0  0  0  0  0  0  0  0
    7.0388    0.3206   -1.7284 C   0  0  0  0  0  0  0  0  0  0  0  0
    6.0119    0.8316   -2.7528 C   0  0  0  0  0  0  0  0  0  0  0  0
    1.2192    0.4514   -0.2352 C   0  0  0  0  0  0  0  0  0  0  0  0
    1.0052   -0.0410    1.2156 C   0  0  0  0  0  0  0  0  0  0  0  0
    1.6133   -4.9982    3.7009 H   0  0  0  0  0  0  0  0  0  0  0  0
   -0.1346   -5.1735    3.4915 H   0  0  0  0  0  0  0  0  0  0  0  0
    0.8637   -4.5959    2.1522 H   0  0  0  0  0  0  0  0  0  0  0  0
    0.5441   -3.0911    4.8090 H   0  0  0  0  0  0  0  0  0  0  0  0
    1.4523   -2.5469    3.4346 H   0  0  0  0  0  0  0  0  0  0  0  0
   -1.6718   -4.4119    4.9908 H   0  0  0  0  0  0  0  0  0  0  0  0
   -3.0953   -3.4949    5.4999 H   0  0  0  0  0  0  0  0  0  0  0  0
   -1.4818   -2.9000    5.9298 H   0  0  0  0  0  0  0  0  0  0  0  0
   -5.1090   -0.5708    2.0015 H   0  0  0  0  0  0  0  0  0  0  0  0
   -2.1819    1.3234   -1.4148 H   0  0  0  0  0  0  0  0  0  0  0  0
   -2.5844    3.9953   -4.9257 H   0  0  0  0  0  0  0  0  0  0  0  0
   -4.1143    3.1102   -4.9504 H   0  0  0  0  0  0  0  0  0  0  0  0
   -3.9041    4.5629   -3.8959 H   0  0  0  0  0  0  0  0  0  0  0  0
   -5.6587    3.1627   -3.1454 H   0  0  0  0  0  0  0  0  0  0  0  0
   -9.2448    1.9545   -0.8881 H   0  0  0  0  0  0  0  0  0  0  0  0
   -8.2108    0.5305   -0.7199 H   0  0  0  0  0  0  0  0  0  0  0  0
   -8.0138    1.9504    0.3808 H   0  0  0  0  0  0  0  0  0  0  0  0
   -6.0755    0.6290    0.2779 H   0  0  0  0  0  0  0  0  0  0  0  0
    0.6341   -3.2576    0.2286 H   0  0  0  0  0  0  0  0  0  0  0  0
   -0.1786   -1.9710   -0.6691 H   0  0  0  0  0  0  0  0  0  0  0  0
    2.1558   -2.4672   -1.5114 H   0  0  0  0  0  0  0  0  0  0  0  0
    2.7936   -2.0461    0.0832 H   0  0  0  0  0  0  0  0  0  0  0  0
    3.8542    0.2267   -0.1172 H   0  0  0  0  0  0  0  0  0  0  0  0
    4.0911   -0.7725   -1.5468 H   0  0  0  0  0  0  0  0  0  0  0  0
    3.0498    2.1085   -1.6945 H   0  0  0  0  0  0  0  0  0  0  0  0
    3.3045    1.0382   -3.0437 H   0  0  0  0  0  0  0  0  0  0  0  0
    5.0933    3.4205   -0.8540 H   0  0  0  0  0  0  0  0  0  0  0  0
    5.3441    1.8468   -0.0790 H   0  0  0  0  0  0  0  0  0  0  0  0
    7.3772    3.2084   -1.9292 H   0  0  0  0  0  0  0  0  0  0  0  0
    7.4557    3.1578   -0.1677 H   0  0  0  0  0  0  0  0  0  0  0  0
    6.5439   -0.2542   -0.9374 H   0  0  0  0  0  0  0  0  0  0  0  0
    7.7527   -0.3507   -2.2165 H   0  0  0  0  0  0  0  0  0  0  0  0
    5.5116   -0.0110   -3.2435 H   0  0  0  0  0  0  0  0  0  0  0  0
    6.5573    1.3617   -3.5441 H   0  0  0  0  0  0  0  0  0  0  0  0
    1.5847    1.4833   -0.2061 H   0  0  0  0  0  0  0  0  0  0  0  0
    0.2426    0.5047   -0.7313 H   0  0  0  0  0  0  0  0  0  0  0  0
    0.3422    0.6581    1.7395 H   0  0  0  0  0  0  0  0  0  0  0  0
    1.9636   -0.0199    1.7484 H   0  0  0  0  0  0  0  0  0  0  0  0
  1  2  1  0
  2  3  1  0
  3  4  1  0
  4  5  1  0
  4  6  2  0
  6  7  1  0
  7  8  2  0
  8  9  1  0
  9 10  1  0
 10 11  2  0
 11 12  1  0
 12 13  1  0
 13 14  1  0
 12 15  2  0
 15 16  1  0
 16 17  1  0
 17 18  1  0
 16 19  2  0
  9 20  2  0
 20 21  1  0
 21 22  1  0
 22 23  1  0
 23 24  1  0
 24 25  1  0
 25 26  1  0
 26 27  1  0
 27 28  1  0
 28 29  1  0
 29 30  1  0
 30 31  1  0
 31 32  1  0
 32 33  1  0
 33 34  1  0
 26 35  1  0
 35 36  1  0
 22  3  2  0
 36 23  1  0
 21  7  1  0
 34 29  1  0
 19 10  1  0
  1 37  1  0
  1 38  1  0
  1 39  1  0
  2 40  1  0
  2 41  1  0
  5 42  1  0
  5 43  1  0
  5 44  1  0
  8 45  1  0
 11 46  1  0
 14 47  1  0
 14 48  1  0
 14 49  1  0
 15 50  1  0
 18 51  1  0
 18 52  1  0
 18 53  1  0
 19 54  1  0
 24 55  1  0
 24 56  1  0
 25 57  1  0
 25 58  1  0
 27 59  1  0
 27 60  1  0
 28 61  1  0
 28 62  1  0
 30 63  1  0
 30 64  1  0
 31 65  1  0
 31 66  1  0
 33 67  1  0
 33 68  1  0
 34 69  1  0
 34 70  1  0
 35 71  1  0
 35 72  1  0
 36 73  1  0
 36 74  1  0
M  END
$$$$
