
     RDKit          3D

 52 53  0  0  0  0  0  0  0  0999 V2000
    5.5841   -1.1228   -0.4038 C   0  0  0  0  0  0  0  0  0  0  0  0
    4.8671   -0.1111    0.5180 C   0  0  0  0  0  0  0  0  0  0  0  0
    5.0764   -0.5899    1.9725 C   0  0  0  0  0  0  0  0  0  0  0  0
    5.5502    1.2617    0.3642 C   0  0  0  0  0  0  0  0  0  0  0  0
    3.3322   -0.0614    0.1834 C   0  0  0  0  0  0  0  0  0  0  0  0
    3.0330    0.1223   -1.3267 C   0  0  0  0  0  0  0  0  0  0  0  0
    1.6183    0.6269   -1.6235 C   0  0  0  0  0  0  0  0  0  0  0  0
    0.6315    0.2046   -0.5421 C   0  0  0  0  0  0  0  0  0  0  0  0
   -0.6833    0.6535   -0.9271 O   0  0  0  0  0  0  0  0  0  0  0  0
   -1.7275   -0.0421   -0.4049 C   0  0  0  0  0  0  0  0  0  0  0  0
   -1.6432   -0.9915    0.3626 O   0  0  0  0  0  0  0  0  0  0  0  0
   -3.0465    0.5429   -0.9088 C   0  0  0  0  0  0  0  0  0  0  0  0
   -4.3214   -0.3256   -0.6434 N   0  0  0  0  0  4  0  0  0  0  0  0
   -4.1816   -1.6759   -1.3482 C   0  0  0  0  0  0  0  0  0  0  0  0
   -5.5728    0.4002   -1.1537 C   0  0  0  0  0  0  0  0  0  0  0  0
   -6.6572   -0.0061   -0.1769 C   0  0  0  0  0  0  0  0  0  0  0  0
   -5.9387    0.0343    1.1517 C   0  0  0  0  0  0  0  0  0  0  0  0
   -4.5574   -0.5379    0.8715 C   0  0  0  0  0  0  0  0  0  0  0  0
    1.0200    0.8200    0.8074 C   0  0  0  0  0  0  0  0  0  0  0  0
    2.5350    0.9772    0.9948 C   0  0  0  0  0  0  0  0  0  0  0  0
    5.0894   -2.1002   -0.3774 H   0  0  0  0  0  0  0  0  0  0  0  0
    6.6260   -1.2710   -0.0966 H   0  0  0  0  0  0  0  0  0  0  0  0
    5.6063   -0.7811   -1.4430 H   0  0  0  0  0  0  0  0  0  0  0  0
    6.1433   -0.7153    2.1966 H   0  0  0  0  0  0  0  0  0  0  0  0
    4.5871   -1.5557    2.1443 H   0  0  0  0  0  0  0  0  0  0  0  0
    4.6808    0.1252    2.7018 H   0  0  0  0  0  0  0  0  0  0  0  0
    6.6303    1.1786    0.5339 H   0  0  0  0  0  0  0  0  0  0  0  0
    5.1631    1.9851    1.0905 H   0  0  0  0  0  0  0  0  0  0  0  0
    5.4110    1.6830   -0.6364 H   0  0  0  0  0  0  0  0  0  0  0  0
    2.9286   -1.0484    0.4584 H   0  0  0  0  0  0  0  0  0  0  0  0
    3.7438    0.8068   -1.8004 H   0  0  0  0  0  0  0  0  0  0  0  0
    3.1644   -0.8471   -1.8229 H   0  0  0  0  0  0  0  0  0  0  0  0
    1.2890    0.2675   -2.6053 H   0  0  0  0  0  0  0  0  0  0  0  0
    1.6241    1.7219   -1.7039 H   0  0  0  0  0  0  0  0  0  0  0  0
    0.6431   -0.8921   -0.4809 H   0  0  0  0  0  0  0  0  0  0  0  0
   -2.9965    0.6752   -1.9957 H   0  0  0  0  0  0  0  0  0  0  0  0
   -3.2133    1.5056   -0.4129 H   0  0  0  0  0  0  0  0  0  0  0  0
   -5.1132   -2.2342   -1.2154 H   0  0  0  0  0  0  0  0  0  0  0  0
   -3.9990   -1.4909   -2.4106 H   0  0  0  0  0  0  0  0  0  0  0  0
   -3.3525   -2.2325   -0.9075 H   0  0  0  0  0  0  0  0  0  0  0  0
   -5.3843    1.4787   -1.0989 H   0  0  0  0  0  0  0  0  0  0  0  0
   -5.7721    0.1090   -2.1897 H   0  0  0  0  0  0  0  0  0  0  0  0
   -7.5162    0.6712   -0.2071 H   0  0  0  0  0  0  0  0  0  0  0  0
   -7.0171   -1.0191   -0.3907 H   0  0  0  0  0  0  0  0  0  0  0  0
   -5.8491    1.0707    1.5002 H   0  0  0  0  0  0  0  0  0  0  0  0
   -6.4661   -0.5330    1.9285 H   0  0  0  0  0  0  0  0  0  0  0  0
   -4.5143   -1.6101    1.0819 H   0  0  0  0  0  0  0  0  0  0  0  0
   -3.7881   -0.0127    1.4423 H   0  0  0  0  0  0  0  0  0  0  0  0
    0.5376    1.7964    0.9429 H   0  0  0  0  0  0  0  0  0  0  0  0
    0.6184    0.1855    1.6071 H   0  0  0  0  0  0  0  0  0  0  0  0
    2.7547    0.9162    2.0642 H   0  0  0  0  0  0  0  0  0  0  0  0
    2.8227    1.9878    0.6758 H   0  0  0  0  0  0  0  0  0  0  0  0
  1  2  1  0
  2  3  1  0
  2  4  1  0
  2  5  1  0
  5  6  1  0
  6  7  1  0
  7  8  1  0
  8  9  1  0
  9 10  1  0
 10 11  2  0
 10 12  1  0
 12 13  1  0
 13 14  1  0
 13 15  1  0
 15 16  1  0
 16 17  1  0
 17 18  1  0
  8 19  1  0
 19 20  1  0
 20  5  1  0
 18 13  1  0
  1 21  1  0
  1 22  1  0
  1 23  1  0
  3 24  1  0
  3 25  1  0
  3 26  1  0
  4 27  1  0
  4 28  1  0
  4 29  1  0
  5 30  1  0
  6 31  1  0
  6 32  1  0
  7 33  1  0
  7 34  1  0
  8 35  1  0
 12 36  1  0
 12 37  1  0
 14 38  1  0
 14 39  1  0
 14 40  1  0
 15 41  1  0
 15 42  1  0
 16 43  1  0
 16 44  1  0
 17 45  1  0
 17 46  1  0
 18 47  1  0
 18 48  1  0
 19 49  1  0
 19 50  1  0
 20 51  1  0
 20 52  1  0
M  CHG  1  13   1
M  END
$$$$
