
     RDKit          3D

 41 44  0  0  0  0  0  0  0  0999 V2000
   -5.0646   -2.4252    1.0880 C   0  0  0  0  0  0  0  0  0  0  0  0
   -5.4760   -1.0235    0.6308 C   0  0  0  0  0  0  0  0  0  0  0  0
   -6.5073   -1.0986   -0.4979 C   0  0  0  0  0  0  0  0  0  0  0  0
   -4.2704   -0.1911    0.2315 C   0  0  0  0  0  0  0  0  0  0  0  0
   -3.9622    0.9766    0.9433 C   0  0  0  0  0  0  0  0  0  0  0  0
   -2.8524    1.7532    0.5972 C   0  0  0  0  0  0  0  0  0  0  0  0
   -2.0252    1.3725   -0.4632 C   0  0  0  0  0  0  0  0  0  0  0  0
   -0.8881    2.2221   -0.8251 C   0  0  0  0  0  0  0  0  0  0  0  0
    0.4094    1.8875   -0.7609 C   0  0  0  0  0  0  0  0  0  0  0  0
    1.6708    3.0344   -1.2256 S   0  0  0  0  0  0  0  0  0  0  0  0
    2.8653    1.8721   -0.8354 C   0  0  0  0  0  0  0  0  0  0  0  0
    4.1656    1.8344   -0.8671 N   0  0  0  0  0  0  0  0  0  0  0  0
    4.4257    0.5489   -0.4015 C   0  0  0  0  0  0  0  0  0  0  0  0
    5.7862    0.0417   -0.2614 C   0  0  0  0  0  0  0  0  0  0  0  0
    6.0263   -1.2516    0.2097 C   0  0  0  0  0  0  0  0  0  0  0  0
    7.3375   -1.6804    0.3223 C   0  0  0  0  0  0  0  0  0  0  0  0
    8.4055   -0.9196    0.0023 N   0  0  0  0  0  0  0  0  0  0  0  0
    8.1517    0.3260   -0.4505 C   0  0  0  0  0  0  0  0  0  0  0  0
    6.8774    0.8460   -0.5983 C   0  0  0  0  0  0  0  0  0  0  0  0
    3.3231   -0.1712   -0.0985 N   0  0  0  0  0  0  0  0  0  0  0  0
    2.3509    0.7117   -0.3888 N   0  0  0  0  0  0  0  0  0  0  0  0
    0.9812    0.5791   -0.2947 C   0  0  0  0  0  0  0  0  0  0  0  0
    0.4374   -0.4354    0.0965 O   0  0  0  0  0  0  0  0  0  0  0  0
   -2.3326    0.2171   -1.1859 C   0  0  0  0  0  0  0  0  0  0  0  0
   -3.4417   -0.5598   -0.8380 C   0  0  0  0  0  0  0  0  0  0  0  0
   -5.9350   -2.9825    1.4510 H   0  0  0  0  0  0  0  0  0  0  0  0
   -4.3359   -2.3725    1.9046 H   0  0  0  0  0  0  0  0  0  0  0  0
   -4.6138   -3.0056    0.2756 H   0  0  0  0  0  0  0  0  0  0  0  0
   -5.9681   -0.5380    1.4841 H   0  0  0  0  0  0  0  0  0  0  0  0
   -6.1172   -1.6252   -1.3756 H   0  0  0  0  0  0  0  0  0  0  0  0
   -6.8109   -0.0956   -0.8180 H   0  0  0  0  0  0  0  0  0  0  0  0
   -7.4051   -1.6298   -0.1639 H   0  0  0  0  0  0  0  0  0  0  0  0
   -4.5840    1.2917    1.7786 H   0  0  0  0  0  0  0  0  0  0  0  0
   -2.6416    2.6536    1.1696 H   0  0  0  0  0  0  0  0  0  0  0  0
   -1.1777    3.2186   -1.1558 H   0  0  0  0  0  0  0  0  0  0  0  0
    5.2132   -1.9160    0.4851 H   0  0  0  0  0  0  0  0  0  0  0  0
    7.5703   -2.6779    0.6842 H   0  0  0  0  0  0  0  0  0  0  0  0
    9.0290    0.9160   -0.7003 H   0  0  0  0  0  0  0  0  0  0  0  0
    6.7439    1.8575   -0.9685 H   0  0  0  0  0  0  0  0  0  0  0  0
   -1.7124   -0.0999   -2.0206 H   0  0  0  0  0  0  0  0  0  0  0  0
   -3.6480   -1.4615   -1.4103 H   0  0  0  0  0  0  0  0  0  0  0  0
  1  2  1  0
  2  3  1  0
  2  4  1  0
  4  5  2  0
  5  6  1  0
  6  7  2  0
  7  8  1  0
  8  9  2  3
  9 10  1  0
 10 11  1  0
 11 12  2  0
 12 13  1  0
 13 14  1  0
 14 15  2  0
 15 16  1  0
 16 17  2  0
 17 18  1  0
 18 19  2  0
 13 20  2  0
 20 21  1  0
 21 22  1  0
 22 23  2  0
  7 24  1  0
 24 25  2  0
 25  4  1  0
 22  9  1  0
 21 11  1  0
 19 14  1  0
  1 26  1  0
  1 27  1  0
  1 28  1  0
  2 29  1  0
  3 30  1  0
  3 31  1  0
  3 32  1  0
  5 33  1  0
  6 34  1  0
  8 35  1  0
 15 36  1  0
 16 37  1  0
 18 38  1  0
 19 39  1  0
 24 40  1  0
 25 41  1  0
M  END
$$$$
