
     RDKit          3D

 43 44  0  0  0  0  0  0  0  0999 V2000
   -0.6802    2.9211    1.6499 C   0  0  0  0  0  0  0  0  0  0  0  0
   -1.6251    2.7605    0.4732 C   0  0  0  0  0  0  0  0  0  0  0  0
   -2.0675    1.3989    0.3714 O   0  0  0  0  0  0  0  0  0  0  0  0
   -1.2398    0.5499   -0.2996 C   0  0  0  0  0  0  0  0  0  0  0  0
   -0.1793    0.8965   -0.8156 O   0  0  0  0  0  0  0  0  0  0  0  0
   -1.7120   -0.8417   -0.3278 C   0  0  0  0  0  0  0  0  0  0  0  0
   -0.8962   -1.8618   -0.8026 C   0  0  0  0  0  0  0  0  0  0  0  0
    0.3884   -1.7055   -1.2959 N   0  0  0  0  0  0  0  0  0  0  0  0
    1.2865   -2.6800   -1.6927 C   0  0  0  0  0  0  0  0  0  0  0  0
    1.0955   -3.8893   -1.7687 O   0  0  0  0  0  0  0  0  0  0  0  0
    2.6328   -2.0753   -2.1185 C   0  0  0  0  0  0  0  0  0  0  0  0
    2.8256   -0.7218   -1.6868 O   0  0  0  0  0  0  0  0  0  0  0  0
    3.2847   -0.5853   -0.4171 C   0  0  0  0  0  0  0  0  0  0  0  0
    3.5694   -1.4981    0.3393 O   0  0  0  0  0  0  0  0  0  0  0  0
    3.3590    0.8479   -0.0340 C   0  0  0  0  0  0  0  0  0  0  0  0
    3.7943    1.1610    1.2549 C   0  0  0  0  0  0  0  0  0  0  0  0
    3.8377    2.4928    1.6227 C   0  0  0  0  0  0  0  0  0  0  0  0
    3.4803    3.5059    0.8052 N   0  0  0  0  0  0  0  0  0  0  0  0
    3.0660    3.1765   -0.4367 C   0  0  0  0  0  0  0  0  0  0  0  0
    2.9895    1.8763   -0.9020 C   0  0  0  0  0  0  0  0  0  0  0  0
   -1.6274   -3.3805   -0.7167 S   0  0  0  0  0  0  0  0  0  0  0  0
   -3.0621   -2.7448   -0.0532 C   0  0  0  0  0  0  0  0  0  0  0  0
   -4.1880   -3.6731    0.2727 C   0  0  0  0  0  0  0  0  0  0  0  0
   -3.0003   -1.3671    0.1079 C   0  0  0  0  0  0  0  0  0  0  0  0
   -4.1223   -0.5413    0.6610 C   0  0  0  0  0  0  0  0  0  0  0  0
   -0.3816    3.9666    1.7674 H   0  0  0  0  0  0  0  0  0  0  0  0
    0.2207    2.3138    1.5189 H   0  0  0  0  0  0  0  0  0  0  0  0
   -1.1589    2.5840    2.5751 H   0  0  0  0  0  0  0  0  0  0  0  0
   -1.1644    3.0991   -0.4619 H   0  0  0  0  0  0  0  0  0  0  0  0
   -2.5175    3.3748    0.6320 H   0  0  0  0  0  0  0  0  0  0  0  0
    0.7236   -0.7429   -1.3274 H   0  0  0  0  0  0  0  0  0  0  0  0
    3.4487   -2.7193   -1.7708 H   0  0  0  0  0  0  0  0  0  0  0  0
    2.6560   -2.0695   -3.2133 H   0  0  0  0  0  0  0  0  0  0  0  0
    4.0876    0.3880    1.9584 H   0  0  0  0  0  0  0  0  0  0  0  0
    4.1681    2.7904    2.6141 H   0  0  0  0  0  0  0  0  0  0  0  0
    2.7844    4.0146   -1.0683 H   0  0  0  0  0  0  0  0  0  0  0  0
    2.6347    1.6863   -1.9084 H   0  0  0  0  0  0  0  0  0  0  0  0
   -5.0632   -3.4335   -0.3403 H   0  0  0  0  0  0  0  0  0  0  0  0
   -3.9325   -4.7229    0.0950 H   0  0  0  0  0  0  0  0  0  0  0  0
   -4.4668   -3.5739    1.3271 H   0  0  0  0  0  0  0  0  0  0  0  0
   -3.8368   -0.1080    1.6248 H   0  0  0  0  0  0  0  0  0  0  0  0
   -5.0280   -1.1338    0.8218 H   0  0  0  0  0  0  0  0  0  0  0  0
   -4.3836    0.2645   -0.0325 H   0  0  0  0  0  0  0  0  0  0  0  0
  1  2  1  0
  2  3  1  0
  3  4  1  0
  4  5  2  0
  4  6  1  0
  6  7  2  0
  7  8  1  0
  8  9  1  0
  9 10  2  0
  9 11  1  0
 11 12  1  0
 12 13  1  0
 13 14  2  0
 13 15  1  0
 15 16  2  0
 16 17  1  0
 17 18  2  0
 18 19  1  0
 19 20  2  0
  7 21  1  0
 21 22  1  0
 22 23  1  0
 22 24  2  0
 24 25  1  0
 24  6  1  0
 20 15  1  0
  1 26  1  0
  1 27  1  0
  1 28  1  0
  2 29  1  0
  2 30  1  0
  8 31  1  0
 11 32  1  0
 11 33  1  0
 16 34  1  0
 17 35  1  0
 19 36  1  0
 20 37  1  0
 23 38  1  0
 23 39  1  0
 23 40  1  0
 25 41  1  0
 25 42  1  0
 25 43  1  0
M  END
$$$$
