
     RDKit          3D

 51 53  0  0  0  0  0  0  0  0999 V2000
   -5.4716    2.8578    0.4475 C   0  0  0  0  0  0  0  0  0  0  0  0
   -4.6687    2.2028   -0.5213 O   0  0  0  0  0  0  0  0  0  0  0  0
   -3.6855    1.3600   -0.0642 C   0  0  0  0  0  0  0  0  0  0  0  0
   -3.5351    0.9741    1.2708 C   0  0  0  0  0  0  0  0  0  0  0  0
   -2.5044    0.1005    1.6543 C   0  0  0  0  0  0  0  0  0  0  0  0
   -1.5859   -0.3737    0.7007 C   0  0  0  0  0  0  0  0  0  0  0  0
   -1.7653   -0.0046   -0.6462 C   0  0  0  0  0  0  0  0  0  0  0  0
   -2.7956    0.8622   -1.0329 C   0  0  0  0  0  0  0  0  0  0  0  0
   -3.0217    1.2678   -2.3270 O   0  0  0  0  0  0  0  0  0  0  0  0
   -2.0273    0.9583   -3.2914 C   0  0  0  0  0  0  0  0  0  0  0  0
   -0.4750   -1.3480    1.1029 C   0  0  0  0  0  0  0  0  0  0  0  0
    0.8637   -1.0657    0.4276 C   0  0  0  0  0  0  0  0  0  0  0  0
    1.5560    0.1393    0.6722 C   0  0  0  0  0  0  0  0  0  0  0  0
    2.7777    0.4133    0.0476 C   0  0  0  0  0  0  0  0  0  0  0  0
    3.5085    1.5598    0.2249 O   0  0  0  0  0  0  0  0  0  0  0  0
    3.0429    2.4796    1.2042 C   0  0  0  0  0  0  0  0  0  0  0  0
    3.3104   -0.5345   -0.8404 C   0  0  0  0  0  0  0  0  0  0  0  0
    4.5103   -0.2947   -1.4658 O   0  0  0  0  0  0  0  0  0  0  0  0
    4.2829    0.3993   -2.6928 C   0  0  0  0  0  0  0  0  0  0  0  0
    2.6544   -1.7526   -1.0545 C   0  0  0  0  0  0  0  0  0  0  0  0
    3.1316   -2.7012   -1.9224 O   0  0  0  0  0  0  0  0  0  0  0  0
    4.2387   -3.3953   -1.3430 C   0  0  0  0  0  0  0  0  0  0  0  0
    1.4266   -2.0074   -0.4464 C   0  0  0  0  0  0  0  0  0  0  0  0
   -0.2490   -1.4136    2.5606 N   0  0  0  0  0  0  0  0  0  0  0  0
   -1.5140   -1.5540    3.2743 C   0  0  0  0  0  0  0  0  0  0  0  0
   -2.3626   -0.2926    3.1035 C   0  0  0  0  0  0  0  0  0  0  0  0
   -6.1179    3.5659   -0.0781 H   0  0  0  0  0  0  0  0  0  0  0  0
   -4.8597    3.4293    1.1528 H   0  0  0  0  0  0  0  0  0  0  0  0
   -6.1149    2.1440    0.9704 H   0  0  0  0  0  0  0  0  0  0  0  0
   -4.2158    1.3325    2.0357 H   0  0  0  0  0  0  0  0  0  0  0  0
   -1.0852   -0.4107   -1.3878 H   0  0  0  0  0  0  0  0  0  0  0  0
   -1.9762   -0.1207   -3.4693 H   0  0  0  0  0  0  0  0  0  0  0  0
   -1.0505    1.3585   -2.9993 H   0  0  0  0  0  0  0  0  0  0  0  0
   -2.3149    1.4364   -4.2330 H   0  0  0  0  0  0  0  0  0  0  0  0
   -0.8218   -2.3410    0.7851 H   0  0  0  0  0  0  0  0  0  0  0  0
    1.1026    0.8482    1.3606 H   0  0  0  0  0  0  0  0  0  0  0  0
    2.0635    2.8845    0.9276 H   0  0  0  0  0  0  0  0  0  0  0  0
    3.0161    2.0148    2.1938 H   0  0  0  0  0  0  0  0  0  0  0  0
    3.7494    3.3136    1.2430 H   0  0  0  0  0  0  0  0  0  0  0  0
    5.2470    0.5077   -3.1969 H   0  0  0  0  0  0  0  0  0  0  0  0
    3.8823    1.4013   -2.5121 H   0  0  0  0  0  0  0  0  0  0  0  0
    3.6171   -0.1635   -3.3562 H   0  0  0  0  0  0  0  0  0  0  0  0
    4.4844   -4.2334   -2.0017 H   0  0  0  0  0  0  0  0  0  0  0  0
    5.1223   -2.7565   -1.2719 H   0  0  0  0  0  0  0  0  0  0  0  0
    3.9834   -3.8053   -0.3609 H   0  0  0  0  0  0  0  0  0  0  0  0
    0.9171   -2.9438   -0.6581 H   0  0  0  0  0  0  0  0  0  0  0  0
    0.3468   -2.2191    2.7508 H   0  0  0  0  0  0  0  0  0  0  0  0
   -1.3100   -1.7099    4.3400 H   0  0  0  0  0  0  0  0  0  0  0  0
   -2.0551   -2.4409    2.9225 H   0  0  0  0  0  0  0  0  0  0  0  0
   -1.9008    0.5428    3.6434 H   0  0  0  0  0  0  0  0  0  0  0  0
   -3.3513   -0.4715    3.5393 H   0  0  0  0  0  0  0  0  0  0  0  0
  1  2  1  0
  2  3  1  0
  3  4  2  0
  4  5  1  0
  5  6  2  0
  6  7  1  0
  7  8  2  0
  8  9  1  0
  9 10  1  0
  6 11  1  0
 11 12  1  0
 12 13  2  0
 13 14  1  0
 14 15  1  0
 15 16  1  0
 14 17  2  0
 17 18  1  0
 18 19  1  0
 17 20  1  0
 20 21  1  0
 21 22  1  0
 20 23  2  0
 11 24  1  0
 24 25  1  0
 25 26  1  0
  8  3  1  0
 23 12  1  0
 26  5  1  0
  1 27  1  0
  1 28  1  0
  1 29  1  0
  4 30  1  0
  7 31  1  0
 10 32  1  0
 10 33  1  0
 10 34  1  0
 11 35  1  0
 13 36  1  0
 16 37  1  0
 16 38  1  0
 16 39  1  0
 19 40  1  0
 19 41  1  0
 19 42  1  0
 22 43  1  0
 22 44  1  0
 22 45  1  0
 23 46  1  0
 24 47  1  0
 25 48  1  0
 25 49  1  0
 26 50  1  0
 26 51  1  0
M  END
$$$$
