
     RDKit          3D

 49 51  0  0  0  0  0  0  0  0999 V2000
   -1.1590    2.9938    2.1804 N   0  0  0  0  0  0  0  0  0  0  0  0
    0.0411    2.5260    1.7898 C   0  0  0  0  0  0  0  0  0  0  0  0
    1.1100    3.2601    1.7530 N   0  0  0  0  0  0  0  0  0  0  0  0
    2.1761    2.3346    1.2760 C   0  0  0  0  0  0  0  0  0  0  0  0
    1.5051    0.9729    0.9838 C   0  0  0  0  0  0  0  0  0  0  0  0
    2.1281   -0.1860    1.7737 C   0  0  0  0  0  0  0  0  0  0  0  0
    3.4818   -0.5961    1.2425 C   0  0  0  0  0  0  0  0  0  0  0  0
    3.5828   -1.3609    0.0702 C   0  0  0  0  0  0  0  0  0  0  0  0
    4.8330   -1.7306   -0.4313 C   0  0  0  0  0  0  0  0  0  0  0  0
    5.9838   -1.3343    0.2412 C   0  0  0  0  0  0  0  0  0  0  0  0
    7.2243   -1.6720   -0.2122 O   0  0  0  0  0  0  0  0  0  0  0  0
    5.9034   -0.5785    1.4038 C   0  0  0  0  0  0  0  0  0  0  0  0
    4.6545   -0.2099    1.9058 C   0  0  0  0  0  0  0  0  0  0  0  0
    0.1296    1.2202    1.4250 N   0  0  0  0  0  0  0  0  0  0  0  0
   -0.9533    0.4737    0.7910 C   0  0  0  0  0  0  0  0  0  0  0  0
   -1.3509    1.0641   -0.5692 C   0  0  0  0  0  0  0  0  0  0  0  0
   -2.4541    0.2643   -1.2226 C   0  0  0  0  0  0  0  0  0  0  0  0
   -2.1487   -0.7944   -2.0882 C   0  0  0  0  0  0  0  0  0  0  0  0
   -3.1659   -1.5560   -2.6845 C   0  0  0  0  0  0  0  0  0  0  0  0
   -2.8234   -2.6759   -3.6393 C   0  0  0  0  0  0  0  0  0  0  0  0
   -3.7425   -3.6806   -3.6329 F   0  0  0  0  0  0  0  0  0  0  0  0
   -2.7403   -2.2491   -4.9284 F   0  0  0  0  0  0  0  0  0  0  0  0
   -1.6269   -3.2650   -3.3602 F   0  0  0  0  0  0  0  0  0  0  0  0
   -4.5052   -1.2357   -2.4086 C   0  0  0  0  0  0  0  0  0  0  0  0
   -4.8330   -0.1868   -1.5340 C   0  0  0  0  0  0  0  0  0  0  0  0
   -6.2761    0.1629   -1.2535 C   0  0  0  0  0  0  0  0  0  0  0  0
   -7.1184   -0.8982   -1.3947 F   0  0  0  0  0  0  0  0  0  0  0  0
   -6.4737    0.6276    0.0115 F   0  0  0  0  0  0  0  0  0  0  0  0
   -6.7459    1.1292   -2.0880 F   0  0  0  0  0  0  0  0  0  0  0  0
   -3.7970    0.5592   -0.9508 C   0  0  0  0  0  0  0  0  0  0  0  0
   -1.0512    3.9233    2.5752 H   0  0  0  0  0  0  0  0  0  0  0  0
   -1.6124    2.3781    2.8428 H   0  0  0  0  0  0  0  0  0  0  0  0
    2.9541    2.2707    2.0431 H   0  0  0  0  0  0  0  0  0  0  0  0
    2.6281    2.7435    0.3659 H   0  0  0  0  0  0  0  0  0  0  0  0
    1.5375    0.7771   -0.0949 H   0  0  0  0  0  0  0  0  0  0  0  0
    2.2009    0.0703    2.8390 H   0  0  0  0  0  0  0  0  0  0  0  0
    1.4705   -1.0646    1.7367 H   0  0  0  0  0  0  0  0  0  0  0  0
    2.6866   -1.6786   -0.4583 H   0  0  0  0  0  0  0  0  0  0  0  0
    4.8880   -2.3238   -1.3385 H   0  0  0  0  0  0  0  0  0  0  0  0
    7.1265   -2.2023   -1.0196 H   0  0  0  0  0  0  0  0  0  0  0  0
    6.8110   -0.2773    1.9196 H   0  0  0  0  0  0  0  0  0  0  0  0
    4.6071    0.3804    2.8185 H   0  0  0  0  0  0  0  0  0  0  0  0
   -0.6492   -0.5733    0.6675 H   0  0  0  0  0  0  0  0  0  0  0  0
   -1.8214    0.4508    1.4615 H   0  0  0  0  0  0  0  0  0  0  0  0
   -1.6786    2.1054   -0.4619 H   0  0  0  0  0  0  0  0  0  0  0  0
   -0.4846    1.0999   -1.2413 H   0  0  0  0  0  0  0  0  0  0  0  0
   -1.1066   -1.0293   -2.3072 H   0  0  0  0  0  0  0  0  0  0  0  0
   -5.3036   -1.8127   -2.8791 H   0  0  0  0  0  0  0  0  0  0  0  0
   -4.0421    1.3837   -0.2795 H   0  0  0  0  0  0  0  0  0  0  0  0
  1  2  1  0
  2  3  2  0
  3  4  1  0
  4  5  1  0
  5  6  1  0
  6  7  1  0
  7  8  2  0
  8  9  1  0
  9 10  2  0
 10 11  1  0
 10 12  1  0
 12 13  2  0
  5 14  1  0
 14 15  1  0
 15 16  1  0
 16 17  1  0
 17 18  2  0
 18 19  1  0
 19 20  1  0
 20 21  1  0
 20 22  1  0
 20 23  1  0
 19 24  2  0
 24 25  1  0
 25 26  1  0
 26 27  1  0
 26 28  1  0
 26 29  1  0
 25 30  2  0
 14  2  1  0
 30 17  1  0
 13  7  1  0
  1 31  1  0
  1 32  1  0
  4 33  1  0
  4 34  1  0
  5 35  1  0
  6 36  1  0
  6 37  1  0
  8 38  1  0
  9 39  1  0
 11 40  1  0
 12 41  1  0
 13 42  1  0
 15 43  1  0
 15 44  1  0
 16 45  1  0
 16 46  1  0
 18 47  1  0
 24 48  1  0
 30 49  1  0
M  END
$$$$
