
     RDKit          3D

 65 69  0  0  0  0  0  0  0  0999 V2000
   -3.9481    3.9063    3.0166 C   0  0  0  0  0  0  0  0  0  0  0  0
   -2.6206    4.4086    2.4743 C   0  0  0  0  0  0  0  0  0  0  0  0
   -2.4765    4.0868    1.0917 O   0  0  0  0  0  0  0  0  0  0  0  0
   -2.0032    2.8561    0.7385 C   0  0  0  0  0  0  0  0  0  0  0  0
   -1.6014    1.8416    1.6027 C   0  0  0  0  0  0  0  0  0  0  0  0
   -1.1428    0.6198    1.0941 C   0  0  0  0  0  0  0  0  0  0  0  0
   -1.0844    0.3864   -0.2885 C   0  0  0  0  0  0  0  0  0  0  0  0
   -0.5673   -0.9383   -0.8030 C   0  0  0  0  0  0  0  0  0  0  0  0
    0.9348   -0.9735   -1.1531 C   0  0  0  0  0  0  0  0  0  0  0  0
    1.4402    0.2517   -1.8756 C   0  0  0  0  0  0  0  0  0  0  0  0
    0.9697    0.6283   -2.9466 O   0  0  0  0  0  0  0  0  0  0  0  0
    2.5402    1.0309   -1.2586 C   0  0  0  0  0  0  0  0  0  0  0  0
    2.4522    2.4371   -1.2835 C   0  0  0  0  0  0  0  0  0  0  0  0
    3.4637    3.2177   -0.7189 C   0  0  0  0  0  0  0  0  0  0  0  0
    4.5466    2.5668   -0.1658 C   0  0  0  0  0  0  0  0  0  0  0  0
    4.6445    1.1835   -0.1464 C   0  0  0  0  0  0  0  0  0  0  0  0
    3.6482    0.3890   -0.6877 C   0  0  0  0  0  0  0  0  0  0  0  0
    5.8915    0.7932    0.5514 C   0  0  0  0  0  0  0  0  0  0  0  0
    6.6092    2.1520    0.5461 C   0  0  0  0  0  0  0  0  0  0  0  0
    7.4128    2.3936    1.8126 C   0  0  0  0  0  0  0  0  0  0  0  0
    5.6149    3.2024    0.4107 O   0  0  0  0  0  0  0  0  0  0  0  0
    0.9594   -2.1484   -2.0744 C   0  0  0  0  0  0  0  0  0  0  0  0
    1.9330   -2.8278   -2.3392 O   0  0  0  0  0  0  0  0  0  0  0  0
   -0.4445   -2.3793   -2.6288 C   0  0  0  0  0  0  0  0  0  0  0  0
   -0.7375   -3.2130   -3.4586 O   0  0  0  0  0  0  0  0  0  0  0  0
   -1.2817   -1.5243   -1.9323 N   0  0  0  0  0  0  0  0  0  0  0  0
   -2.7327   -1.6590   -1.9963 C   0  0  0  0  0  0  0  0  0  0  0  0
   -3.3288   -2.6080   -0.9569 C   0  0  0  0  0  0  0  0  0  0  0  0
   -2.9700   -4.0726   -1.2036 C   0  0  0  0  0  0  0  0  0  0  0  0
   -3.6025   -4.9428   -0.2301 N   0  0  0  0  0  0  0  0  0  0  0  0
   -3.0969   -5.2897    0.9907 C   0  0  0  0  0  0  0  0  0  0  0  0
   -4.0544   -6.1040    1.5494 C   0  0  0  0  0  0  0  0  0  0  0  0
   -5.1175   -6.2594    0.6980 N   0  0  0  0  0  0  0  0  0  0  0  0
   -4.8128   -5.5576   -0.3704 C   0  0  0  0  0  0  0  0  0  0  0  0
   -1.4829    1.4171   -1.1486 C   0  0  0  0  0  0  0  0  0  0  0  0
   -1.9361    2.6358   -0.6379 C   0  0  0  0  0  0  0  0  0  0  0  0
   -4.0044    2.8137    2.9910 H   0  0  0  0  0  0  0  0  0  0  0  0
   -4.7765    4.2809    2.4071 H   0  0  0  0  0  0  0  0  0  0  0  0
   -4.0929    4.2363    4.0502 H   0  0  0  0  0  0  0  0  0  0  0  0
   -1.7679    4.0713    3.0725 H   0  0  0  0  0  0  0  0  0  0  0  0
   -2.6171    5.5032    2.5363 H   0  0  0  0  0  0  0  0  0  0  0  0
   -1.6350    1.9603    2.6803 H   0  0  0  0  0  0  0  0  0  0  0  0
   -0.8386   -0.1499    1.8008 H   0  0  0  0  0  0  0  0  0  0  0  0
   -0.7156   -1.6745    0.0027 H   0  0  0  0  0  0  0  0  0  0  0  0
    1.5112   -1.1864   -0.2486 H   0  0  0  0  0  0  0  0  0  0  0  0
    1.5938    2.9232   -1.7438 H   0  0  0  0  0  0  0  0  0  0  0  0
    3.4119    4.3017   -0.7308 H   0  0  0  0  0  0  0  0  0  0  0  0
    3.7522   -0.6914   -0.6888 H   0  0  0  0  0  0  0  0  0  0  0  0
    5.6609    0.4473    1.5645 H   0  0  0  0  0  0  0  0  0  0  0  0
    6.4679    0.0316    0.0196 H   0  0  0  0  0  0  0  0  0  0  0  0
    7.2748    2.2242   -0.3253 H   0  0  0  0  0  0  0  0  0  0  0  0
    8.1744    1.6205    1.9532 H   0  0  0  0  0  0  0  0  0  0  0  0
    6.7619    2.4138    2.6936 H   0  0  0  0  0  0  0  0  0  0  0  0
    7.9076    3.3697    1.7663 H   0  0  0  0  0  0  0  0  0  0  0  0
   -3.1737   -0.6648   -1.8753 H   0  0  0  0  0  0  0  0  0  0  0  0
   -3.0026   -2.0040   -3.0018 H   0  0  0  0  0  0  0  0  0  0  0  0
   -3.0196   -2.3095    0.0520 H   0  0  0  0  0  0  0  0  0  0  0  0
   -4.4210   -2.5007   -0.9844 H   0  0  0  0  0  0  0  0  0  0  0  0
   -1.8908   -4.2403   -1.1231 H   0  0  0  0  0  0  0  0  0  0  0  0
   -3.2913   -4.3988   -2.1992 H   0  0  0  0  0  0  0  0  0  0  0  0
   -2.1384   -4.9459    1.3515 H   0  0  0  0  0  0  0  0  0  0  0  0
   -4.0357   -6.5873    2.5172 H   0  0  0  0  0  0  0  0  0  0  0  0
   -5.4278   -5.4612   -1.2560 H   0  0  0  0  0  0  0  0  0  0  0  0
   -1.4437    1.2871   -2.2300 H   0  0  0  0  0  0  0  0  0  0  0  0
   -2.2421    3.4227   -1.3238 H   0  0  0  0  0  0  0  0  0  0  0  0
  1  2  1  0
  2  3  1  0
  3  4  1  0
  4  5  2  0
  5  6  1  0
  6  7  2  0
  7  8  1  0
  8  9  1  0
  9 10  1  0
 10 11  2  0
 10 12  1  0
 12 13  2  0
 13 14  1  0
 14 15  2  0
 15 16  1  0
 16 17  2  0
 16 18  1  0
 18 19  1  0
 19 20  1  0
 19 21  1  0
  9 22  1  0
 22 23  2  0
 22 24  1  0
 24 25  2  0
 24 26  1  0
 26 27  1  0
 27 28  1  0
 28 29  1  0
 29 30  1  0
 30 31  1  0
 31 32  2  0
 32 33  1  0
 33 34  2  0
  7 35  1  0
 35 36  2  0
 36  4  1  0
 26  8  1  0
 34 30  1  0
 17 12  1  0
 21 15  1  0
  1 37  1  0
  1 38  1  0
  1 39  1  0
  2 40  1  0
  2 41  1  0
  5 42  1  0
  6 43  1  0
  8 44  1  0
  9 45  1  0
 13 46  1  0
 14 47  1  0
 17 48  1  0
 18 49  1  0
 18 50  1  0
 19 51  1  0
 20 52  1  0
 20 53  1  0
 20 54  1  0
 27 55  1  0
 27 56  1  0
 28 57  1  0
 28 58  1  0
 29 59  1  0
 29 60  1  0
 31 61  1  0
 32 62  1  0
 34 63  1  0
 35 64  1  0
 36 65  1  0
M  END
$$$$
