
     RDKit          3D

 47 49  0  0  0  0  0  0  0  0999 V2000
    5.8360   -3.1465   -0.0012 C   0  0  0  0  0  0  0  0  0  0  0  0
    4.7198   -2.7186    0.9459 C   0  0  0  0  0  0  0  0  0  0  0  0
    4.2469   -1.3582    0.6653 N   0  0  0  0  0  0  0  0  0  0  0  0
    3.4157   -1.2651   -0.5549 C   0  0  0  0  0  0  0  0  0  0  0  0
    1.8869   -1.1991   -0.3256 C   0  0  0  0  0  0  0  0  0  0  0  0
    1.5009   -0.0736    0.5578 N   0  0  0  0  0  0  0  0  0  0  0  0
    0.2325    0.5321    0.5215 C   0  0  0  0  0  0  0  0  0  0  0  0
   -0.8440   -0.0211   -0.0773 C   0  0  0  0  0  0  0  0  0  0  0  0
   -2.1726    0.5738   -0.1108 C   0  0  0  0  0  0  0  0  0  0  0  0
   -3.1572    0.0251   -0.8479 C   0  0  0  0  0  0  0  0  0  0  0  0
   -4.5210    0.5632   -0.9215 C   0  0  0  0  0  0  0  0  0  0  0  0
   -5.4636    0.0747   -1.7681 C   0  0  0  0  0  0  0  0  0  0  0  0
   -6.7881    0.6032   -1.7923 C   0  0  0  0  0  0  0  0  0  0  0  0
   -7.8628    1.0414   -1.8006 N   0  0  0  0  0  0  0  0  0  0  0  0
   -5.1960   -0.9962   -2.6717 C   0  0  0  0  0  0  0  0  0  0  0  0
   -4.9666   -1.8700   -3.4006 N   0  0  0  0  0  0  0  0  0  0  0  0
   -4.7991    1.7110    0.0420 C   0  0  0  0  0  0  0  0  0  0  0  0
   -3.5883    2.6274    0.2124 C   0  0  0  0  0  0  0  0  0  0  0  0
   -2.3770    1.8295    0.7079 C   0  0  0  0  0  0  0  0  0  0  0  0
   -1.1176    2.6970    0.6901 C   0  0  0  0  0  0  0  0  0  0  0  0
    0.0929    1.9000    1.1792 C   0  0  0  0  0  0  0  0  0  0  0  0
    2.5723    0.3569    1.4869 C   0  0  0  0  0  0  0  0  0  0  0  0
    3.5176   -0.8143    1.8321 C   0  0  0  0  0  0  0  0  0  0  0  0
    5.4924   -3.2330   -1.0358 H   0  0  0  0  0  0  0  0  0  0  0  0
    6.2241   -4.1253    0.2997 H   0  0  0  0  0  0  0  0  0  0  0  0
    6.6682   -2.4349    0.0260 H   0  0  0  0  0  0  0  0  0  0  0  0
    5.1363   -2.7574    1.9609 H   0  0  0  0  0  0  0  0  0  0  0  0
    3.8953   -3.4415    0.9113 H   0  0  0  0  0  0  0  0  0  0  0  0
    3.7173   -0.3434   -1.0702 H   0  0  0  0  0  0  0  0  0  0  0  0
    3.6302   -2.0763   -1.2589 H   0  0  0  0  0  0  0  0  0  0  0  0
    1.4144   -1.0858   -1.3086 H   0  0  0  0  0  0  0  0  0  0  0  0
    1.5325   -2.1394    0.1135 H   0  0  0  0  0  0  0  0  0  0  0  0
   -0.7460   -0.9893   -0.5597 H   0  0  0  0  0  0  0  0  0  0  0  0
   -2.9282   -0.8684   -1.4280 H   0  0  0  0  0  0  0  0  0  0  0  0
   -5.0786    1.2904    1.0170 H   0  0  0  0  0  0  0  0  0  0  0  0
   -5.6387    2.3307   -0.2906 H   0  0  0  0  0  0  0  0  0  0  0  0
   -3.8271    3.4232    0.9282 H   0  0  0  0  0  0  0  0  0  0  0  0
   -3.3626    3.1177   -0.7443 H   0  0  0  0  0  0  0  0  0  0  0  0
   -2.5692    1.5209    1.7459 H   0  0  0  0  0  0  0  0  0  0  0  0
   -1.2528    3.5801    1.3261 H   0  0  0  0  0  0  0  0  0  0  0  0
   -0.9235    3.0654   -0.3265 H   0  0  0  0  0  0  0  0  0  0  0  0
    0.0205    1.7619    2.2654 H   0  0  0  0  0  0  0  0  0  0  0  0
    0.9858    2.5060    0.9841 H   0  0  0  0  0  0  0  0  0  0  0  0
    3.1361    1.1824    1.0361 H   0  0  0  0  0  0  0  0  0  0  0  0
    2.1394    0.7189    2.4263 H   0  0  0  0  0  0  0  0  0  0  0  0
    2.9164   -1.6023    2.3072 H   0  0  0  0  0  0  0  0  0  0  0  0
    4.2501   -0.4735    2.5730 H   0  0  0  0  0  0  0  0  0  0  0  0
  1  2  1  0
  2  3  1  0
  3  4  1  0
  4  5  1  0
  5  6  1  0
  6  7  1  0
  7  8  2  0
  8  9  1  0
  9 10  2  0
 10 11  1  0
 11 12  2  3
 12 13  1  0
 13 14  3  0
 12 15  1  0
 15 16  3  0
 11 17  1  0
 17 18  1  0
 18 19  1  0
 19 20  1  0
 20 21  1  0
  6 22  1  0
 22 23  1  0
 23  3  1  0
 21  7  1  0
 19  9  1  0
  1 24  1  0
  1 25  1  0
  1 26  1  0
  2 27  1  0
  2 28  1  0
  4 29  1  0
  4 30  1  0
  5 31  1  0
  5 32  1  0
  8 33  1  0
 10 34  1  0
 17 35  1  0
 17 36  1  0
 18 37  1  0
 18 38  1  0
 19 39  1  0
 20 40  1  0
 20 41  1  0
 21 42  1  0
 21 43  1  0
 22 44  1  0
 22 45  1  0
 23 46  1  0
 23 47  1  0
M  END
$$$$
