
     RDKit          3D

 51 53  0  0  0  0  0  0  0  0999 V2000
   -4.7590   -0.4786   -4.2867 C   0  0  0  0  0  0  0  0  0  0  0  0
   -4.1711   -0.4629   -2.9917 O   0  0  0  0  0  0  0  0  0  0  0  0
   -4.2169    0.8367   -2.4078 C   0  0  0  0  0  0  0  0  0  0  0  0
   -3.6060    0.7750   -1.0135 C   0  0  0  0  0  0  0  0  0  0  0  0
   -2.1683    0.2580   -1.0516 C   0  0  0  0  0  0  0  0  0  0  0  0
   -1.5419    0.2873    0.2546 N   0  0  0  0  0  0  0  0  0  0  0  0
   -0.7979    1.2984    0.8021 C   0  0  0  0  0  0  0  0  0  0  0  0
   -0.4030    2.7691   -0.0161 S   0  0  0  0  0  0  0  0  0  0  0  0
    0.6485    3.5842    1.2266 C   0  0  0  0  0  0  0  0  0  0  0  0
    1.9186    2.8391    1.5760 C   0  0  0  0  0  0  0  0  0  0  0  0
    2.4891    2.9759    2.6537 O   0  0  0  0  0  0  0  0  0  0  0  0
    2.3985    2.0913    0.5426 O   0  0  0  0  0  0  0  0  0  0  0  0
    3.5515    1.2814    0.8288 C   0  0  0  0  0  0  0  0  0  0  0  0
    4.2783    1.0207   -0.4981 C   0  0  0  0  0  0  0  0  0  0  0  0
    5.1143   -0.2608   -0.4993 C   0  0  0  0  0  0  0  0  0  0  0  0
    5.5271   -0.6812    0.9052 C   0  0  0  0  0  0  0  0  0  0  0  0
    4.3124   -0.9305    1.8021 C   0  0  0  0  0  0  0  0  0  0  0  0
    3.1179   -0.0350    1.4729 C   0  0  0  0  0  0  0  0  0  0  0  0
   -0.4478    0.9844    2.0259 N   0  0  0  0  0  0  0  0  0  0  0  0
   -0.9678   -0.2556    2.3017 N   0  0  0  0  0  0  0  0  0  0  0  0
   -1.6200   -0.6768    1.2345 C   0  0  0  0  0  0  0  0  0  0  0  0
   -2.3042   -1.9313    1.1547 C   0  0  0  0  0  0  0  0  0  0  0  0
   -2.1111   -2.9503    0.2422 C   0  0  0  0  0  0  0  0  0  0  0  0
   -2.9774   -4.0597    0.4737 C   0  0  0  0  0  0  0  0  0  0  0  0
   -3.7944   -3.8555    1.5627 C   0  0  0  0  0  0  0  0  0  0  0  0
   -3.5160   -2.3365    2.2970 S   0  0  0  0  0  0  0  0  0  0  0  0
   -4.6797   -1.4917   -4.6881 H   0  0  0  0  0  0  0  0  0  0  0  0
   -4.2272    0.2053   -4.9558 H   0  0  0  0  0  0  0  0  0  0  0  0
   -5.8173   -0.2066   -4.2307 H   0  0  0  0  0  0  0  0  0  0  0  0
   -5.2574    1.1738   -2.3383 H   0  0  0  0  0  0  0  0  0  0  0  0
   -3.6583    1.5409   -3.0351 H   0  0  0  0  0  0  0  0  0  0  0  0
   -4.2093    0.1097   -0.3835 H   0  0  0  0  0  0  0  0  0  0  0  0
   -3.6441    1.7716   -0.5570 H   0  0  0  0  0  0  0  0  0  0  0  0
   -1.5584    0.8525   -1.7404 H   0  0  0  0  0  0  0  0  0  0  0  0
   -2.1241   -0.7685   -1.4262 H   0  0  0  0  0  0  0  0  0  0  0  0
    0.0626    3.7282    2.1407 H   0  0  0  0  0  0  0  0  0  0  0  0
    0.9343    4.5676    0.8416 H   0  0  0  0  0  0  0  0  0  0  0  0
    4.2373    1.8200    1.4967 H   0  0  0  0  0  0  0  0  0  0  0  0
    3.5671    0.9876   -1.3351 H   0  0  0  0  0  0  0  0  0  0  0  0
    4.9253    1.8815   -0.7083 H   0  0  0  0  0  0  0  0  0  0  0  0
    5.9990   -0.1248   -1.1320 H   0  0  0  0  0  0  0  0  0  0  0  0
    4.5289   -1.0700   -0.9545 H   0  0  0  0  0  0  0  0  0  0  0  0
    6.1471   -1.5843    0.8658 H   0  0  0  0  0  0  0  0  0  0  0  0
    6.1503    0.1062    1.3484 H   0  0  0  0  0  0  0  0  0  0  0  0
    3.9993   -1.9784    1.7194 H   0  0  0  0  0  0  0  0  0  0  0  0
    4.6107   -0.7821    2.8474 H   0  0  0  0  0  0  0  0  0  0  0  0
    2.5250    0.1429    2.3775 H   0  0  0  0  0  0  0  0  0  0  0  0
    2.4396   -0.5616    0.7873 H   0  0  0  0  0  0  0  0  0  0  0  0
   -1.3752   -2.9162   -0.5520 H   0  0  0  0  0  0  0  0  0  0  0  0
   -2.9905   -4.9639   -0.1209 H   0  0  0  0  0  0  0  0  0  0  0  0
   -4.5385   -4.5268    1.9701 H   0  0  0  0  0  0  0  0  0  0  0  0
  1  2  1  0
  2  3  1  0
  3  4  1  0
  4  5  1  0
  5  6  1  0
  6  7  1  0
  7  8  1  0
  8  9  1  0
  9 10  1  0
 10 11  2  0
 10 12  1  0
 12 13  1  0
 13 14  1  0
 14 15  1  0
 15 16  1  0
 16 17  1  0
 17 18  1  0
  7 19  2  0
 19 20  1  0
 20 21  2  0
 21 22  1  0
 22 23  2  0
 23 24  1  0
 24 25  2  0
 25 26  1  0
 21  6  1  0
 26 22  1  0
 18 13  1  0
  1 27  1  0
  1 28  1  0
  1 29  1  0
  3 30  1  0
  3 31  1  0
  4 32  1  0
  4 33  1  0
  5 34  1  0
  5 35  1  0
  9 36  1  0
  9 37  1  0
 13 38  1  0
 14 39  1  0
 14 40  1  0
 15 41  1  0
 15 42  1  0
 16 43  1  0
 16 44  1  0
 17 45  1  0
 17 46  1  0
 18 47  1  0
 18 48  1  0
 23 49  1  0
 24 50  1  0
 25 51  1  0
M  END
$$$$
