
     RDKit          3D

 43 46  0  0  0  0  0  0  0  0999 V2000
   -1.7343    0.3104   -2.1428 O   0  0  0  0  0  0  0  0  0  0  0  0
   -1.2357    0.5586   -0.7388 P   0  0  0  0  0  5  0  0  0  0  0  0
   -1.5975   -0.5449    0.4598 N   0  0  0  0  0  0  0  0  0  0  0  0
   -2.7403   -1.3861    0.3476 C   0  0  0  0  0  0  0  0  0  0  0  0
   -2.5911   -2.7862    0.4484 C   0  0  0  0  0  0  0  0  0  0  0  0
   -1.0371   -3.4909    0.7454 Cl  0  0  0  0  0  0  0  0  0  0  0  0
   -3.6800   -3.6518    0.3043 C   0  0  0  0  0  0  0  0  0  0  0  0
   -4.9492   -3.1372    0.0593 C   0  0  0  0  0  0  0  0  0  0  0  0
   -5.1280   -1.7586   -0.0295 C   0  0  0  0  0  0  0  0  0  0  0  0
   -4.0383   -0.8895    0.1163 C   0  0  0  0  0  0  0  0  0  0  0  0
   -4.3865    0.8051    0.0811 Cl  0  0  0  0  0  0  0  0  0  0  0  0
   -1.1796    2.2549   -0.2035 C   0  0  0  0  0  0  0  0  0  0  0  0
   -0.9613    2.5831    1.1429 C   0  0  0  0  0  0  0  0  0  0  0  0
   -0.9193    3.9171    1.5499 C   0  0  0  0  0  0  0  0  0  0  0  0
   -1.0984    4.9366    0.6167 C   0  0  0  0  0  0  0  0  0  0  0  0
   -1.3221    4.6247   -0.7229 C   0  0  0  0  0  0  0  0  0  0  0  0
   -1.3640    3.2912   -1.1307 C   0  0  0  0  0  0  0  0  0  0  0  0
    0.5069    0.1194   -0.6345 C   0  0  0  0  0  0  0  0  0  0  0  0
    1.0097   -0.6403    0.3312 N   0  0  0  0  0  0  0  0  0  0  0  0
    2.3608   -0.8031    0.1168 C   0  0  0  0  0  0  0  0  0  0  0  0
    2.8648   -0.1713   -1.0014 C   0  0  0  0  0  0  0  0  0  0  0  0
    1.6318    0.6645   -1.8217 S   0  0  0  0  0  0  0  0  0  0  0  0
    4.2933   -0.1859   -1.4282 C   0  0  0  0  0  0  0  0  0  0  0  0
    5.0514   -1.3107   -0.6989 C   0  0  0  0  0  0  0  0  0  0  0  0
    4.6972   -1.3737    0.7978 C   0  0  0  0  0  0  0  0  0  0  0  0
    3.1984   -1.6397    1.0241 C   0  0  0  0  0  0  0  0  0  0  0  0
   -0.7819   -1.1041    0.7321 H   0  0  0  0  0  0  0  0  0  0  0  0
   -3.5408   -4.7276    0.3784 H   0  0  0  0  0  0  0  0  0  0  0  0
   -5.7984   -3.8065   -0.0554 H   0  0  0  0  0  0  0  0  0  0  0  0
   -6.1251   -1.3604   -0.2053 H   0  0  0  0  0  0  0  0  0  0  0  0
   -0.8241    1.7941    1.8802 H   0  0  0  0  0  0  0  0  0  0  0  0
   -0.7497    4.1609    2.5956 H   0  0  0  0  0  0  0  0  0  0  0  0
   -1.0682    5.9756    0.9346 H   0  0  0  0  0  0  0  0  0  0  0  0
   -1.4680    5.4197   -1.4499 H   0  0  0  0  0  0  0  0  0  0  0  0
   -1.5468    3.0539   -2.1779 H   0  0  0  0  0  0  0  0  0  0  0  0
    4.7501    0.7795   -1.1788 H   0  0  0  0  0  0  0  0  0  0  0  0
    4.3828   -0.3267   -2.5111 H   0  0  0  0  0  0  0  0  0  0  0  0
    6.1301   -1.1617   -0.8218 H   0  0  0  0  0  0  0  0  0  0  0  0
    4.8071   -2.2755   -1.1621 H   0  0  0  0  0  0  0  0  0  0  0  0
    4.9748   -0.4219    1.2688 H   0  0  0  0  0  0  0  0  0  0  0  0
    5.2851   -2.1572    1.2890 H   0  0  0  0  0  0  0  0  0  0  0  0
    2.9807   -2.6957    0.8245 H   0  0  0  0  0  0  0  0  0  0  0  0
    2.9409   -1.4419    2.0702 H   0  0  0  0  0  0  0  0  0  0  0  0
  1  2  2  0
  2  3  1  0
  3  4  1  0
  4  5  2  0
  5  6  1  0
  5  7  1  0
  7  8  2  0
  8  9  1  0
  9 10  2  0
 10 11  1  0
  2 12  1  0
 12 13  2  0
 13 14  1  0
 14 15  2  0
 15 16  1  0
 16 17  2  0
  2 18  1  0
 18 19  2  0
 19 20  1  0
 20 21  2  0
 21 22  1  0
 21 23  1  0
 23 24  1  0
 24 25  1  0
 25 26  1  0
 10  4  1  0
 17 12  1  0
 22 18  1  0
 26 20  1  0
  3 27  1  0
  7 28  1  0
  8 29  1  0
  9 30  1  0
 13 31  1  0
 14 32  1  0
 15 33  1  0
 16 34  1  0
 17 35  1  0
 23 36  1  0
 23 37  1  0
 24 38  1  0
 24 39  1  0
 25 40  1  0
 25 41  1  0
 26 42  1  0
 26 43  1  0
M  END
$$$$
