
     RDKit          3D

 56 61  0  0  0  0  0  0  0  0999 V2000
   -0.0366    1.1905   -3.5974 C   0  0  0  0  0  0  0  0  0  0  0  0
    0.7541    0.6989   -2.4430 C   0  0  0  0  0  0  0  0  0  0  0  0
    2.0482    1.0162   -2.3415 N   0  0  0  0  0  0  0  0  0  0  0  0
    2.4858    0.4269   -1.1847 N   0  0  0  0  0  0  0  0  0  0  0  0
    3.8474    0.5948   -0.7794 C   0  0  0  0  0  0  0  0  0  0  0  0
    4.7093    1.3614   -1.5870 C   0  0  0  0  0  0  0  0  0  0  0  0
    6.0479    1.5517   -1.2280 C   0  0  0  0  0  0  0  0  0  0  0  0
    6.5339    0.9730   -0.0511 C   0  0  0  0  0  0  0  0  0  0  0  0
    7.9376    1.1682    0.3316 N   0  0  0  0  0  4  0  0  0  0  0  0
    8.6522    1.8459   -0.4213 O   0  0  0  0  0  0  0  0  0  0  0  0
    8.3279    0.6440    1.3847 O   0  0  0  0  0  1  0  0  0  0  0  0
    5.6900    0.2096    0.7634 C   0  0  0  0  0  0  0  0  0  0  0  0
    4.3504    0.0229    0.3980 C   0  0  0  0  0  0  0  0  0  0  0  0
    1.4523   -0.2831   -0.5800 C   0  0  0  0  0  0  0  0  0  0  0  0
    0.3363   -0.0956   -1.3622 C   0  0  0  0  0  0  0  0  0  0  0  0
   -0.9470   -0.7403   -0.9724 C   0  0  0  0  0  0  0  0  0  0  0  0
   -1.8766    0.4269   -0.6349 C   0  0  0  0  0  0  0  0  0  0  0  0
   -1.7214    1.1883    0.5379 C   0  0  0  0  0  0  0  0  0  0  0  0
   -2.5805    2.2548    0.8288 C   0  0  0  0  0  0  0  0  0  0  0  0
   -3.6184    2.5767   -0.0437 C   0  0  0  0  0  0  0  0  0  0  0  0
   -4.5242    3.5863    0.1177 O   0  0  0  0  0  0  0  0  0  0  0  0
   -4.5866    4.1843    1.4013 C   0  0  0  0  0  0  0  0  0  0  0  0
   -3.4952    4.9671    1.5832 F   0  0  0  0  0  0  0  0  0  0  0  0
   -5.6630    5.0111    1.4093 F   0  0  0  0  0  0  0  0  0  0  0  0
   -3.7737    1.8375   -1.2180 C   0  0  0  0  0  0  0  0  0  0  0  0
   -2.9168    0.7740   -1.5127 C   0  0  0  0  0  0  0  0  0  0  0  0
   -0.7995   -1.6702    0.1694 N   0  0  0  0  0  0  0  0  0  0  0  0
    0.4237   -1.6767    0.8674 C   0  0  0  0  0  0  0  0  0  0  0  0
    1.5162   -1.0251    0.5537 N   0  0  0  0  0  0  0  0  0  0  0  0
    0.5423   -2.5314    2.1524 C   0  0  0  0  0  0  0  0  0  0  0  0
    1.5407   -2.5085    2.8587 O   0  0  0  0  0  0  0  0  0  0  0  0
   -0.5396   -3.3158    2.4499 N   0  0  0  0  0  0  0  0  0  0  0  0
   -1.7068   -3.3573    1.6830 C   0  0  0  0  0  0  0  0  0  0  0  0
   -2.7205   -4.2304    2.0959 C   0  0  0  0  0  0  0  0  0  0  0  0
   -3.9024   -4.3163    1.3693 C   0  0  0  0  0  0  0  0  0  0  0  0
   -4.0658   -3.5326    0.2342 C   0  0  0  0  0  0  0  0  0  0  0  0
   -3.0498   -2.6589   -0.1742 C   0  0  0  0  0  0  0  0  0  0  0  0
   -1.8455   -2.5397    0.5401 C   0  0  0  0  0  0  0  0  0  0  0  0
    0.6081    1.4229   -4.4516 H   0  0  0  0  0  0  0  0  0  0  0  0
   -0.5816    2.0995   -3.3244 H   0  0  0  0  0  0  0  0  0  0  0  0
   -0.7595    0.4363   -3.9236 H   0  0  0  0  0  0  0  0  0  0  0  0
    4.3501    1.8213   -2.5073 H   0  0  0  0  0  0  0  0  0  0  0  0
    6.6880    2.1492   -1.8737 H   0  0  0  0  0  0  0  0  0  0  0  0
    6.0511   -0.2472    1.6832 H   0  0  0  0  0  0  0  0  0  0  0  0
    3.7331   -0.5751    1.0628 H   0  0  0  0  0  0  0  0  0  0  0  0
   -1.3126   -1.2919   -1.8483 H   0  0  0  0  0  0  0  0  0  0  0  0
   -0.9135    0.9668    1.2343 H   0  0  0  0  0  0  0  0  0  0  0  0
   -2.3886    2.8224    1.7349 H   0  0  0  0  0  0  0  0  0  0  0  0
   -4.6920    3.4606    2.2171 H   0  0  0  0  0  0  0  0  0  0  0  0
   -4.5717    2.0930   -1.9124 H   0  0  0  0  0  0  0  0  0  0  0  0
   -3.0711    0.2233   -2.4384 H   0  0  0  0  0  0  0  0  0  0  0  0
   -0.4462   -3.8864    3.2790 H   0  0  0  0  0  0  0  0  0  0  0  0
   -2.5980   -4.8495    2.9808 H   0  0  0  0  0  0  0  0  0  0  0  0
   -4.6918   -4.9936    1.6855 H   0  0  0  0  0  0  0  0  0  0  0  0
   -4.9872   -3.5977   -0.3407 H   0  0  0  0  0  0  0  0  0  0  0  0
   -3.2431   -2.0830   -1.0725 H   0  0  0  0  0  0  0  0  0  0  0  0
  1  2  1  0
  2  3  2  0
  3  4  1  0
  4  5  1  0
  5  6  2  0
  6  7  1  0
  7  8  2  0
  8  9  1  0
  9 10  2  0
  9 11  1  0
  8 12  1  0
 12 13  2  0
  4 14  1  0
 14 15  2  0
 15 16  1  0
 16 17  1  0
 17 18  2  0
 18 19  1  0
 19 20  2  0
 20 21  1  0
 21 22  1  0
 22 23  1  0
 22 24  1  0
 20 25  1  0
 25 26  2  0
 16 27  1  0
 27 28  1  0
 28 29  2  0
 28 30  1  0
 30 31  2  0
 30 32  1  0
 32 33  1  0
 33 34  2  0
 34 35  1  0
 35 36  2  0
 36 37  1  0
 37 38  2  0
 15  2  1  0
 26 17  1  0
 38 27  1  0
 13  5  1  0
 29 14  1  0
 38 33  1  0
  1 39  1  0
  1 40  1  0
  1 41  1  0
  6 42  1  0
  7 43  1  0
 12 44  1  0
 13 45  1  0
 16 46  1  0
 18 47  1  0
 19 48  1  0
 22 49  1  0
 25 50  1  0
 26 51  1  0
 32 52  1  0
 34 53  1  0
 35 54  1  0
 36 55  1  0
 37 56  1  0
M  CHG  2   9   1  11  -1
M  END
$$$$
