
     RDKit          3D

 37 39  0  0  0  0  0  0  0  0999 V2000
    5.9892   -1.5440    0.6560 C   0  0  0  0  0  0  0  0  0  0  0  0
    4.7712   -0.6988    0.8879 C   0  0  0  0  0  0  0  0  0  0  0  0
    4.7203    0.1951    1.9643 C   0  0  0  0  0  0  0  0  0  0  0  0
    3.6076    1.0191    2.1539 C   0  0  0  0  0  0  0  0  0  0  0  0
    2.5355    0.9542    1.2645 C   0  0  0  0  0  0  0  0  0  0  0  0
    1.4667    1.7874    1.4351 O   0  0  0  0  0  0  0  0  0  0  0  0
    2.5655    0.0586    0.1910 C   0  0  0  0  0  0  0  0  0  0  0  0
    1.4645   -0.0485   -0.7948 C   0  0  0  0  0  0  0  0  0  0  0  0
    1.7442   -0.1191   -1.9904 O   0  0  0  0  0  0  0  0  0  0  0  0
    0.0424   -0.1182   -0.3885 C   0  0  0  0  0  0  0  0  0  0  0  0
   -0.3626   -0.6259    0.8393 C   0  0  0  0  0  0  0  0  0  0  0  0
   -1.6596   -0.7389    1.2229 N   0  0  0  0  0  0  0  0  0  0  0  0
   -2.5893   -0.3237    0.3393 C   0  0  0  0  0  0  0  0  0  0  0  0
   -2.2936    0.1775   -0.9158 C   0  0  0  0  0  0  0  0  0  0  0  0
   -0.9506    0.2706   -1.2901 C   0  0  0  0  0  0  0  0  0  0  0  0
   -3.4123    0.5015   -1.8449 C   0  0  0  0  0  0  0  0  0  0  0  0
   -4.6806    0.7098   -1.1680 N   0  0  0  0  0  0  0  0  0  0  0  0
   -5.7804    1.2029   -1.9751 C   0  0  0  0  0  0  0  0  0  0  0  0
   -4.9681    0.0831    0.0288 C   0  0  0  0  0  0  0  0  0  0  0  0
   -6.1031   -0.0083    0.4925 O   0  0  0  0  0  0  0  0  0  0  0  0
   -3.9123   -0.4188    0.7234 N   0  0  0  0  0  0  0  0  0  0  0  0
    3.6950   -0.7479   -0.0075 C   0  0  0  0  0  0  0  0  0  0  0  0
    6.6993   -1.0096    0.0176 H   0  0  0  0  0  0  0  0  0  0  0  0
    5.7215   -2.4903    0.1742 H   0  0  0  0  0  0  0  0  0  0  0  0
    6.4801   -1.7898    1.6035 H   0  0  0  0  0  0  0  0  0  0  0  0
    5.5561    0.2623    2.6586 H   0  0  0  0  0  0  0  0  0  0  0  0
    3.6028    1.7086    2.9933 H   0  0  0  0  0  0  0  0  0  0  0  0
    1.6404    2.3902    2.1784 H   0  0  0  0  0  0  0  0  0  0  0  0
    0.3495   -0.9833    1.5769 H   0  0  0  0  0  0  0  0  0  0  0  0
   -0.6750    0.6359   -2.2771 H   0  0  0  0  0  0  0  0  0  0  0  0
   -3.5440   -0.3213   -2.5574 H   0  0  0  0  0  0  0  0  0  0  0  0
   -3.1763    1.4173   -2.3990 H   0  0  0  0  0  0  0  0  0  0  0  0
   -6.0795    0.4199   -2.6784 H   0  0  0  0  0  0  0  0  0  0  0  0
   -6.6403    1.4699   -1.3544 H   0  0  0  0  0  0  0  0  0  0  0  0
   -5.4555    2.0902   -2.5260 H   0  0  0  0  0  0  0  0  0  0  0  0
   -4.1005   -0.8103    1.6334 H   0  0  0  0  0  0  0  0  0  0  0  0
    3.7317   -1.4157   -0.8673 H   0  0  0  0  0  0  0  0  0  0  0  0
  1  2  1  0
  2  3  2  0
  3  4  1  0
  4  5  2  0
  5  6  1  0
  5  7  1  0
  7  8  1  0
  8  9  2  0
  8 10  1  0
 10 11  2  0
 11 12  1  0
 12 13  2  0
 13 14  1  0
 14 15  2  0
 14 16  1  0
 16 17  1  0
 17 18  1  0
 17 19  1  0
 19 20  2  0
 19 21  1  0
  7 22  2  0
 22  2  1  0
 15 10  1  0
 21 13  1  0
  1 23  1  0
  1 24  1  0
  1 25  1  0
  3 26  1  0
  4 27  1  0
  6 28  1  0
 11 29  1  0
 15 30  1  0
 16 31  1  0
 16 32  1  0
 18 33  1  0
 18 34  1  0
 18 35  1  0
 21 36  1  0
 22 37  1  0
M  END
$$$$
