
     RDKit          3D

 42 45  0  0  0  0  0  0  0  0999 V2000
   -1.9220    1.4995    0.0405 O   0  0  0  0  0  0  0  0  0  0  0  0
   -1.8003    0.4400   -0.5590 C   0  0  0  0  0  0  0  0  0  0  0  0
   -0.5045   -0.2783   -0.7089 C   0  0  0  0  0  0  0  0  0  0  0  0
    0.6173    0.2549   -0.2091 C   0  0  0  0  0  0  0  0  0  0  0  0
    1.9327   -0.2845   -0.2732 C   0  0  0  0  0  0  0  0  0  0  0  0
    2.4216   -1.5758   -0.4298 C   0  0  0  0  0  0  0  0  0  0  0  0
    3.8373   -1.5207   -0.4029 C   0  0  0  0  0  0  0  0  0  0  0  0
    4.1724   -0.1993   -0.2234 C   0  0  0  0  0  0  0  0  0  0  0  0
    5.4203    0.5506   -0.0977 C   0  0  0  0  0  0  0  0  0  0  0  0
    5.4701    1.6238    0.8135 C   0  0  0  0  0  0  0  0  0  0  0  0
    6.6362    2.3718    0.9964 C   0  0  0  0  0  0  0  0  0  0  0  0
    7.7794    2.0630    0.2682 C   0  0  0  0  0  0  0  0  0  0  0  0
    7.7529    1.0103   -0.6449 C   0  0  0  0  0  0  0  0  0  0  0  0
    6.5840    0.2579   -0.8312 C   0  0  0  0  0  0  0  0  0  0  0  0
    6.6578   -0.9941   -2.0252 Cl  0  0  0  0  0  0  0  0  0  0  0  0
    3.0300    0.5389   -0.1244 O   0  0  0  0  0  0  0  0  0  0  0  0
   -0.7482   -1.7287   -1.5886 S   0  0  0  0  0  0  0  0  0  0  0  0
   -2.4719   -1.4437   -1.7899 C   0  0  0  0  0  0  0  0  0  0  0  0
   -3.4453   -2.5130   -2.6200 S   0  0  0  0  0  0  0  0  0  0  0  0
   -2.8231   -0.2625   -1.1730 N   0  0  0  0  0  0  0  0  0  0  0  0
   -4.1750    0.3024   -1.1348 C   0  0  0  0  0  0  0  0  0  0  0  0
   -4.8435    0.2049    0.2421 C   0  0  0  0  0  0  0  0  0  0  0  0
   -5.0591   -1.2120    0.7480 C   0  0  0  0  0  0  0  0  0  0  0  0
   -6.1853   -1.0088    1.7310 C   0  0  0  0  0  0  0  0  0  0  0  0
   -7.0369    0.0248    1.0242 C   0  0  0  0  0  0  0  0  0  0  0  0
   -6.1577    0.7962    0.1905 O   0  0  0  0  0  0  0  0  0  0  0  0
    0.5544    1.2273    0.2783 H   0  0  0  0  0  0  0  0  0  0  0  0
    1.8341   -2.4760   -0.5384 H   0  0  0  0  0  0  0  0  0  0  0  0
    4.5212   -2.3531   -0.4901 H   0  0  0  0  0  0  0  0  0  0  0  0
    4.5881    1.8819    1.3985 H   0  0  0  0  0  0  0  0  0  0  0  0
    6.6468    3.1941    1.7079 H   0  0  0  0  0  0  0  0  0  0  0  0
    8.6884    2.6433    0.4057 H   0  0  0  0  0  0  0  0  0  0  0  0
    8.6484    0.7821   -1.2184 H   0  0  0  0  0  0  0  0  0  0  0  0
   -4.8168   -0.1549   -1.8944 H   0  0  0  0  0  0  0  0  0  0  0  0
   -4.1053    1.3623   -1.4130 H   0  0  0  0  0  0  0  0  0  0  0  0
   -4.2709    0.7753    0.9835 H   0  0  0  0  0  0  0  0  0  0  0  0
   -4.1636   -1.6473    1.1996 H   0  0  0  0  0  0  0  0  0  0  0  0
   -5.4008   -1.8711   -0.0580 H   0  0  0  0  0  0  0  0  0  0  0  0
   -6.7343   -1.9239    1.9675 H   0  0  0  0  0  0  0  0  0  0  0  0
   -5.7927   -0.5941    2.6671 H   0  0  0  0  0  0  0  0  0  0  0  0
   -7.5576    0.6867    1.7220 H   0  0  0  0  0  0  0  0  0  0  0  0
   -7.7785   -0.4501    0.3735 H   0  0  0  0  0  0  0  0  0  0  0  0
  1  2  2  0
  2  3  1  0
  3  4  2  3
  4  5  1  0
  5  6  2  0
  6  7  1  0
  7  8  2  0
  8  9  1  0
  9 10  2  0
 10 11  1  0
 11 12  2  0
 12 13  1  0
 13 14  2  0
 14 15  1  0
  8 16  1  0
  3 17  1  0
 17 18  1  0
 18 19  2  0
 18 20  1  0
 20 21  1  0
 21 22  1  0
 22 23  1  0
 23 24  1  0
 24 25  1  0
 25 26  1  0
 20  2  1  0
 26 22  1  0
 16  5  1  0
 14  9  1  0
  4 27  1  0
  6 28  1  0
  7 29  1  0
 10 30  1  0
 11 31  1  0
 12 32  1  0
 13 33  1  0
 21 34  1  0
 21 35  1  0
 22 36  1  0
 23 37  1  0
 23 38  1  0
 24 39  1  0
 24 40  1  0
 25 41  1  0
 25 42  1  0
M  END
$$$$
