
     RDKit          3D

 56 59  0  0  0  0  0  0  0  0999 V2000
    3.5905   -4.7328    2.5130 C   0  0  0  0  0  0  0  0  0  0  0  0
    3.4198   -3.3215    2.5658 O   0  0  0  0  0  0  0  0  0  0  0  0
    3.0880   -2.6972    1.3980 C   0  0  0  0  0  0  0  0  0  0  0  0
    2.8784   -3.3145    0.1672 C   0  0  0  0  0  0  0  0  0  0  0  0
    2.5295   -2.5472   -0.9503 C   0  0  0  0  0  0  0  0  0  0  0  0
    2.3859   -1.1587   -0.8553 C   0  0  0  0  0  0  0  0  0  0  0  0
    2.0120   -0.4705   -2.0421 N   0  0  0  0  0  0  0  0  0  0  0  0
    1.7065    1.1753   -2.1704 S   0  0  0  0  0  6  0  0  0  0  0  0
    1.3281    1.3821   -3.5534 O   0  0  0  0  0  0  0  0  0  0  0  0
    2.8483    1.8499   -1.5895 O   0  0  0  0  0  0  0  0  0  0  0  0
    0.2413    1.4459   -1.1897 C   0  0  0  0  0  0  0  0  0  0  0  0
   -0.6632    0.3751   -1.0328 C   0  0  0  0  0  0  0  0  0  0  0  0
   -1.7998    0.5137   -0.2413 C   0  0  0  0  0  0  0  0  0  0  0  0
   -2.7369   -0.5135   -0.0007 N   0  0  0  0  0  0  0  0  0  0  0  0
   -2.7034   -1.8196   -0.4557 C   0  0  0  0  0  0  0  0  0  0  0  0
   -1.8522   -2.2864   -1.2091 O   0  0  0  0  0  0  0  0  0  0  0  0
   -3.8201   -2.7239   -0.0427 C   0  0  0  0  0  0  0  0  0  0  0  0
   -4.0041   -3.8991   -0.7957 C   0  0  0  0  0  0  0  0  0  0  0  0
   -5.0309   -4.7897   -0.4872 C   0  0  0  0  0  0  0  0  0  0  0  0
   -5.8585   -4.4835    0.5755 C   0  0  0  0  0  0  0  0  0  0  0  0
   -5.7156   -3.3750    1.3336 N   0  0  0  0  0  0  0  0  0  0  0  0
   -4.7008   -2.5292    1.0174 C   0  0  0  0  0  0  0  0  0  0  0  0
   -4.6460   -1.2043    2.1280 Cl  0  0  0  0  0  0  0  0  0  0  0  0
   -2.0410    1.7432    0.3703 C   0  0  0  0  0  0  0  0  0  0  0  0
   -1.1607    2.8136    0.1885 C   0  0  0  0  0  0  0  0  0  0  0  0
   -0.0037    2.6930   -0.5957 C   0  0  0  0  0  0  0  0  0  0  0  0
    0.8359    3.7821   -0.7870 N   0  0  0  0  0  0  0  0  0  0  0  0
    1.6018    4.2319    0.3826 C   0  0  0  0  0  0  0  0  0  0  0  0
    1.9894    5.6597    0.0190 C   0  0  0  0  0  0  0  0  0  0  0  0
    0.7479    6.1570   -0.6997 C   0  0  0  0  0  0  0  0  0  0  0  0
    0.2915    4.9427   -1.5070 C   0  0  0  0  0  0  0  0  0  0  0  0
    2.6090   -0.5448    0.3745 C   0  0  0  0  0  0  0  0  0  0  0  0
    2.9523   -1.3112    1.4927 C   0  0  0  0  0  0  0  0  0  0  0  0
    3.8442   -5.0752    3.5179 H   0  0  0  0  0  0  0  0  0  0  0  0
    2.6609   -5.2320    2.2189 H   0  0  0  0  0  0  0  0  0  0  0  0
    4.4196   -5.0075    1.8472 H   0  0  0  0  0  0  0  0  0  0  0  0
    2.9719   -4.3903    0.0389 H   0  0  0  0  0  0  0  0  0  0  0  0
    2.3651   -3.0546   -1.8968 H   0  0  0  0  0  0  0  0  0  0  0  0
    1.8312   -0.9933   -2.9007 H   0  0  0  0  0  0  0  0  0  0  0  0
   -0.4604   -0.5601   -1.5399 H   0  0  0  0  0  0  0  0  0  0  0  0
   -3.5022   -0.2523    0.6146 H   0  0  0  0  0  0  0  0  0  0  0  0
   -3.3434   -4.1273   -1.6318 H   0  0  0  0  0  0  0  0  0  0  0  0
   -5.1784   -5.6988   -1.0640 H   0  0  0  0  0  0  0  0  0  0  0  0
   -6.6779   -5.1395    0.8561 H   0  0  0  0  0  0  0  0  0  0  0  0
   -2.9175    1.8948    0.9930 H   0  0  0  0  0  0  0  0  0  0  0  0
   -1.3895    3.7609    0.6670 H   0  0  0  0  0  0  0  0  0  0  0  0
    0.9942    4.2354    1.2950 H   0  0  0  0  0  0  0  0  0  0  0  0
    2.4842    3.6074    0.5532 H   0  0  0  0  0  0  0  0  0  0  0  0
    2.8457    5.6589   -0.6655 H   0  0  0  0  0  0  0  0  0  0  0  0
    2.2447    6.2633    0.8933 H   0  0  0  0  0  0  0  0  0  0  0  0
    0.9460    7.0274   -1.3316 H   0  0  0  0  0  0  0  0  0  0  0  0
   -0.0234    6.4328    0.0299 H   0  0  0  0  0  0  0  0  0  0  0  0
    0.7304    4.9655   -2.5110 H   0  0  0  0  0  0  0  0  0  0  0  0
   -0.7988    4.9351   -1.6153 H   0  0  0  0  0  0  0  0  0  0  0  0
    2.5191    0.5261    0.5086 H   0  0  0  0  0  0  0  0  0  0  0  0
    3.1150   -0.8194    2.4478 H   0  0  0  0  0  0  0  0  0  0  0  0
  1  2  1  0
  2  3  1  0
  3  4  2  0
  4  5  1  0
  5  6  2  0
  6  7  1  0
  7  8  1  0
  8  9  2  0
  8 10  2  0
  8 11  1  0
 11 12  2  0
 12 13  1  0
 13 14  1  0
 14 15  1  0
 15 16  2  0
 15 17  1  0
 17 18  2  0
 18 19  1  0
 19 20  2  0
 20 21  1  0
 21 22  2  0
 22 23  1  0
 13 24  2  0
 24 25  1  0
 25 26  2  0
 26 27  1  0
 27 28  1  0
 28 29  1  0
 29 30  1  0
 30 31  1  0
  6 32  1  0
 32 33  2  0
 33  3  1  0
 26 11  1  0
 31 27  1  0
 22 17  1  0
  1 34  1  0
  1 35  1  0
  1 36  1  0
  4 37  1  0
  5 38  1  0
  7 39  1  0
 12 40  1  0
 14 41  1  0
 18 42  1  0
 19 43  1  0
 20 44  1  0
 24 45  1  0
 25 46  1  0
 28 47  1  0
 28 48  1  0
 29 49  1  0
 29 50  1  0
 30 51  1  0
 30 52  1  0
 31 53  1  0
 31 54  1  0
 32 55  1  0
 33 56  1  0
M  END
$$$$
