
     RDKit          3D

 45 47  0  0  0  0  0  0  0  0999 V2000
    2.4420    0.4801   -1.6302 O   0  0  0  0  0  0  0  0  0  0  0  0
    2.0900    0.2723   -0.4701 C   0  0  0  0  0  0  0  0  0  0  0  0
    2.9717   -0.1642    0.5011 N   0  0  0  0  0  0  0  0  0  0  0  0
    4.3388   -0.1547    0.1587 N   0  0  0  0  0  0  0  0  0  0  0  0
    5.2498    0.1666    1.1556 C   0  0  0  0  0  0  0  0  0  0  0  0
    4.8718    0.2274    2.3285 O   0  0  0  0  0  0  0  0  0  0  0  0
    6.6122    0.4205    0.7029 C   0  0  0  0  0  0  0  0  0  0  0  0
    7.1511    0.4294   -0.5733 C   0  0  0  0  0  0  0  0  0  0  0  0
    8.5470    0.7261   -0.5807 C   0  0  0  0  0  0  0  0  0  0  0  0
    9.0375    0.9281    0.6886 C   0  0  0  0  0  0  0  0  0  0  0  0
    7.8195    0.7845    1.8760 S   0  0  0  0  0  0  0  0  0  0  0  0
    0.6839    0.5164   -0.0441 C   0  0  0  0  0  0  0  0  0  0  0  0
    0.1362   -0.0613    1.1106 C   0  0  0  0  0  0  0  0  0  0  0  0
   -1.1908    0.2033    1.4641 C   0  0  0  0  0  0  0  0  0  0  0  0
   -1.9764    1.0257    0.6501 C   0  0  0  0  0  0  0  0  0  0  0  0
   -3.6575    1.3945    1.1248 S   0  0  0  0  0  6  0  0  0  0  0  0
   -3.7544    1.1717    2.5506 O   0  0  0  0  0  0  0  0  0  0  0  0
   -3.9994    2.6740    0.5427 O   0  0  0  0  0  0  0  0  0  0  0  0
   -4.5516    0.1907    0.3357 N   0  0  0  0  0  0  0  0  0  0  0  0
   -4.7325    0.2944   -1.1299 C   0  0  0  0  0  0  0  0  0  0  0  0
   -4.2425   -0.9601   -1.8366 C   0  0  0  0  0  0  0  0  0  0  0  0
   -4.9795   -2.2069   -1.3535 C   0  0  0  0  0  0  0  0  0  0  0  0
   -5.4136   -2.1019    0.1066 C   0  0  0  0  0  0  0  0  0  0  0  0
   -4.4980   -1.1766    0.8966 C   0  0  0  0  0  0  0  0  0  0  0  0
   -1.4354    1.6158   -0.4949 C   0  0  0  0  0  0  0  0  0  0  0  0
   -0.1106    1.3493   -0.8459 C   0  0  0  0  0  0  0  0  0  0  0  0
    2.7824   -0.0373    1.4968 H   0  0  0  0  0  0  0  0  0  0  0  0
    4.5350    0.0058   -0.8266 H   0  0  0  0  0  0  0  0  0  0  0  0
    6.5878    0.2383   -1.4770 H   0  0  0  0  0  0  0  0  0  0  0  0
    9.1601    0.7835   -1.4721 H   0  0  0  0  0  0  0  0  0  0  0  0
   10.0540    1.1604    0.9793 H   0  0  0  0  0  0  0  0  0  0  0  0
    0.7159   -0.7285    1.7425 H   0  0  0  0  0  0  0  0  0  0  0  0
   -1.6038   -0.2321    2.3721 H   0  0  0  0  0  0  0  0  0  0  0  0
   -5.7985    0.4525   -1.3274 H   0  0  0  0  0  0  0  0  0  0  0  0
   -4.2090    1.1600   -1.5405 H   0  0  0  0  0  0  0  0  0  0  0  0
   -3.1682   -1.0848   -1.6532 H   0  0  0  0  0  0  0  0  0  0  0  0
   -4.3636   -0.8577   -2.9197 H   0  0  0  0  0  0  0  0  0  0  0  0
   -5.8661   -2.3847   -1.9740 H   0  0  0  0  0  0  0  0  0  0  0  0
   -4.3280   -3.0782   -1.4900 H   0  0  0  0  0  0  0  0  0  0  0  0
   -5.4312   -3.0981    0.5591 H   0  0  0  0  0  0  0  0  0  0  0  0
   -6.4413   -1.7186    0.1496 H   0  0  0  0  0  0  0  0  0  0  0  0
   -3.4737   -1.5605    0.8732 H   0  0  0  0  0  0  0  0  0  0  0  0
   -4.8376   -1.1564    1.9356 H   0  0  0  0  0  0  0  0  0  0  0  0
   -2.0300    2.2858   -1.1122 H   0  0  0  0  0  0  0  0  0  0  0  0
    0.3065    1.8053   -1.7432 H   0  0  0  0  0  0  0  0  0  0  0  0
  1  2  2  0
  2  3  1  0
  3  4  1  0
  4  5  1  0
  5  6  2  0
  5  7  1  0
  7  8  2  0
  8  9  1  0
  9 10  2  0
 10 11  1  0
  2 12  1  0
 12 13  2  0
 13 14  1  0
 14 15  2  0
 15 16  1  0
 16 17  2  0
 16 18  2  0
 16 19  1  0
 19 20  1  0
 20 21  1  0
 21 22  1  0
 22 23  1  0
 23 24  1  0
 15 25  1  0
 25 26  2  0
 11  7  1  0
 26 12  1  0
 24 19  1  0
  3 27  1  0
  4 28  1  0
  8 29  1  0
  9 30  1  0
 10 31  1  0
 13 32  1  0
 14 33  1  0
 20 34  1  0
 20 35  1  0
 21 36  1  0
 21 37  1  0
 22 38  1  0
 22 39  1  0
 23 40  1  0
 23 41  1  0
 24 42  1  0
 24 43  1  0
 25 44  1  0
 26 45  1  0
M  END
$$$$
