
     RDKit          3D

 46 46  0  0  0  0  0  0  0  0999 V2000
   -2.0443   -0.6501    1.8840 O   0  0  0  0  0  0  0  0  0  0  0  0
   -1.8407   -0.0962    0.8097 C   0  0  0  0  0  0  0  0  0  0  0  0
   -0.4695    0.3363    0.3410 C   0  0  0  0  0  0  0  0  0  0  0  0
    0.6239   -0.1365    1.2895 C   0  0  0  0  0  0  0  0  0  0  0  0
    1.9723    0.3691    0.8509 C   0  0  0  0  0  0  0  0  0  0  0  0
    2.1595    1.2325    0.0047 O   0  0  0  0  0  0  0  0  0  0  0  0
    2.9531   -0.2693    1.5486 O   0  0  0  0  0  0  0  0  0  0  0  0
    4.2968    0.1341    1.2452 C   0  0  0  0  0  0  0  0  0  0  0  0
    4.8169   -0.6392    0.0364 C   0  0  0  0  0  0  0  0  0  0  0  0
    6.2588   -0.2568   -0.3006 C   0  0  0  0  0  0  0  0  0  0  0  0
    6.7699   -1.0124   -1.5244 C   0  0  0  0  0  0  0  0  0  0  0  0
    6.6675   -2.3508   -1.2857 F   0  0  0  0  0  0  0  0  0  0  0  0
    5.9476   -0.7502   -2.5790 F   0  0  0  0  0  0  0  0  0  0  0  0
    8.2135   -0.6395   -1.8684 C   0  0  0  0  0  0  0  0  0  0  0  0
    8.6697   -1.3050   -2.9536 F   0  0  0  0  0  0  0  0  0  0  0  0
    9.0552   -0.9174   -0.8423 F   0  0  0  0  0  0  0  0  0  0  0  0
    8.3392    0.6857   -2.1281 F   0  0  0  0  0  0  0  0  0  0  0  0
   -2.8335    0.2063   -0.0989 N   0  0  0  0  0  0  0  0  0  0  0  0
   -4.2417   -0.0094    0.2043 C   0  0  0  0  0  0  0  0  0  0  0  0
   -5.0345   -0.2572   -1.0882 C   0  0  0  0  0  0  0  0  0  0  0  0
   -6.5213    0.0892   -0.9735 C   0  0  0  0  0  0  0  0  0  0  0  0
   -7.0271   -0.0156    0.4584 C   0  0  0  0  0  0  0  0  0  0  0  0
   -6.2777    0.9320    1.3951 C   0  0  0  0  0  0  0  0  0  0  0  0
   -4.8203    1.1696    0.9914 C   0  0  0  0  0  0  0  0  0  0  0  0
   -0.4666    1.4311    0.2679 H   0  0  0  0  0  0  0  0  0  0  0  0
   -0.2941   -0.0687   -0.6636 H   0  0  0  0  0  0  0  0  0  0  0  0
    0.4391    0.2245    2.3064 H   0  0  0  0  0  0  0  0  0  0  0  0
    0.6455   -1.2314    1.3041 H   0  0  0  0  0  0  0  0  0  0  0  0
    4.9034   -0.0959    2.1268 H   0  0  0  0  0  0  0  0  0  0  0  0
    4.3551    1.2177    1.0918 H   0  0  0  0  0  0  0  0  0  0  0  0
    4.7461   -1.7155    0.2411 H   0  0  0  0  0  0  0  0  0  0  0  0
    4.1675   -0.4559   -0.8283 H   0  0  0  0  0  0  0  0  0  0  0  0
    6.3088    0.8216   -0.4884 H   0  0  0  0  0  0  0  0  0  0  0  0
    6.8972   -0.4795    0.5621 H   0  0  0  0  0  0  0  0  0  0  0  0
   -2.6035    0.8355   -0.8586 H   0  0  0  0  0  0  0  0  0  0  0  0
   -4.3117   -0.9067    0.8336 H   0  0  0  0  0  0  0  0  0  0  0  0
   -4.9229   -1.3135   -1.3666 H   0  0  0  0  0  0  0  0  0  0  0  0
   -4.6122    0.3131   -1.9257 H   0  0  0  0  0  0  0  0  0  0  0  0
   -7.1028   -0.5673   -1.6306 H   0  0  0  0  0  0  0  0  0  0  0  0
   -6.6823    1.1119   -1.3366 H   0  0  0  0  0  0  0  0  0  0  0  0
   -6.9032   -1.0485    0.8100 H   0  0  0  0  0  0  0  0  0  0  0  0
   -8.1008    0.2006    0.4999 H   0  0  0  0  0  0  0  0  0  0  0  0
   -6.7928    1.8996    1.4330 H   0  0  0  0  0  0  0  0  0  0  0  0
   -6.3196    0.5254    2.4130 H   0  0  0  0  0  0  0  0  0  0  0  0
   -4.7586    2.0796    0.3789 H   0  0  0  0  0  0  0  0  0  0  0  0
   -4.2251    1.3726    1.8893 H   0  0  0  0  0  0  0  0  0  0  0  0
  1  2  2  0
  2  3  1  0
  3  4  1  0
  4  5  1  0
  5  6  2  0
  5  7  1  0
  7  8  1  0
  8  9  1  0
  9 10  1  0
 10 11  1  0
 11 12  1  0
 11 13  1  0
 11 14  1  0
 14 15  1  0
 14 16  1  0
 14 17  1  0
  2 18  1  0
 18 19  1  0
 19 20  1  0
 20 21  1  0
 21 22  1  0
 22 23  1  0
 23 24  1  0
 24 19  1  0
  3 25  1  0
  3 26  1  0
  4 27  1  0
  4 28  1  0
  8 29  1  0
  8 30  1  0
  9 31  1  0
  9 32  1  0
 10 33  1  0
 10 34  1  0
 18 35  1  0
 19 36  1  0
 20 37  1  0
 20 38  1  0
 21 39  1  0
 21 40  1  0
 22 41  1  0
 22 42  1  0
 23 43  1  0
 23 44  1  0
 24 45  1  0
 24 46  1  0
M  END
$$$$
