
     RDKit          3D

 36 37  0  0  0  0  0  0  0  0999 V2000
   -2.1912    3.3975    0.6259 C   0  0  0  0  0  0  0  0  0  0  0  0
   -1.7451    2.0528    0.1756 C   0  0  0  0  0  0  0  0  0  0  0  0
   -0.4285    1.6786    0.4013 N   0  0  0  0  0  0  0  0  0  0  0  0
   -0.2010    0.4861   -0.0982 C   0  0  0  0  0  0  0  0  0  0  0  0
    1.0500   -0.0721    0.0022 N   0  0  0  0  0  0  0  0  0  0  0  0
    1.5726   -1.2858   -0.3662 C   0  0  0  0  0  0  0  0  0  0  0  0
    0.8435   -2.6227   -1.0577 S   0  0  0  0  0  0  0  0  0  0  0  0
    2.9303   -1.4298   -0.1147 N   0  0  0  0  0  0  0  0  0  0  0  0
    3.8332   -0.5399    0.4534 C   0  0  0  0  0  0  0  0  0  0  0  0
    3.5002    0.5736    0.8545 O   0  0  0  0  0  0  0  0  0  0  0  0
    5.1833   -1.0524    0.5308 C   0  0  0  0  0  0  0  0  0  0  0  0
    6.3473   -0.4897    1.0178 C   0  0  0  0  0  0  0  0  0  0  0  0
    7.3707   -1.4507    0.8368 C   0  0  0  0  0  0  0  0  0  0  0  0
    6.7729   -2.5414    0.2514 C   0  0  0  0  0  0  0  0  0  0  0  0
    5.4476   -2.3136    0.0608 O   0  0  0  0  0  0  0  0  0  0  0  0
   -1.5248   -0.2431   -0.8698 S   0  0  0  0  0  0  0  0  0  0  0  0
   -2.5148    1.0926   -0.4572 C   0  0  0  0  0  0  0  0  0  0  0  0
   -3.8987    1.1844   -0.8769 C   0  0  0  0  0  0  0  0  0  0  0  0
   -4.3130    2.1882   -1.4587 O   0  0  0  0  0  0  0  0  0  0  0  0
   -4.7627    0.1185   -0.5966 N   0  0  0  0  0  0  0  0  0  0  0  0
   -6.0849    0.1213   -1.1972 C   0  0  0  0  0  0  0  0  0  0  0  0
   -4.5296   -0.8855    0.4320 C   0  0  0  0  0  0  0  0  0  0  0  0
   -1.4342    3.8666    1.2624 H   0  0  0  0  0  0  0  0  0  0  0  0
   -3.1187    3.3259    1.2026 H   0  0  0  0  0  0  0  0  0  0  0  0
   -2.3631    4.0498   -0.2358 H   0  0  0  0  0  0  0  0  0  0  0  0
    1.6927    0.5740    0.4598 H   0  0  0  0  0  0  0  0  0  0  0  0
    3.3190   -2.3233   -0.3966 H   0  0  0  0  0  0  0  0  0  0  0  0
    6.4355    0.4986    1.4499 H   0  0  0  0  0  0  0  0  0  0  0  0
    8.4156   -1.3599    1.1001 H   0  0  0  0  0  0  0  0  0  0  0  0
    7.1347   -3.5073   -0.0748 H   0  0  0  0  0  0  0  0  0  0  0  0
   -6.1229    0.7552   -2.0873 H   0  0  0  0  0  0  0  0  0  0  0  0
   -6.3493   -0.9008   -1.4844 H   0  0  0  0  0  0  0  0  0  0  0  0
   -6.8035    0.4944   -0.4615 H   0  0  0  0  0  0  0  0  0  0  0  0
   -3.6823   -0.6366    1.0733 H   0  0  0  0  0  0  0  0  0  0  0  0
   -5.4175   -0.9526    1.0690 H   0  0  0  0  0  0  0  0  0  0  0  0
   -4.3633   -1.8509   -0.0539 H   0  0  0  0  0  0  0  0  0  0  0  0
  1  2  1  0
  2  3  1  0
  3  4  2  0
  4  5  1  0
  5  6  1  0
  6  7  2  0
  6  8  1  0
  8  9  1  0
  9 10  2  0
  9 11  1  0
 11 12  2  0
 12 13  1  0
 13 14  2  0
 14 15  1  0
  4 16  1  0
 16 17  1  0
 17 18  1  0
 18 19  2  0
 18 20  1  0
 20 21  1  0
 20 22  1  0
 17  2  2  0
 15 11  1  0
  1 23  1  0
  1 24  1  0
  1 25  1  0
  5 26  1  0
  8 27  1  0
 12 28  1  0
 13 29  1  0
 14 30  1  0
 21 31  1  0
 21 32  1  0
 21 33  1  0
 22 34  1  0
 22 35  1  0
 22 36  1  0
M  END
$$$$
