
     RDKit          3D

 46 48  0  0  0  0  0  0  0  0999 V2000
   -3.1866   -2.7165    2.9168 C   0  0  0  0  0  0  0  0  0  0  0  0
   -2.3952   -2.0108    1.9675 O   0  0  0  0  0  0  0  0  0  0  0  0
   -3.0420   -1.5406    0.8455 C   0  0  0  0  0  0  0  0  0  0  0  0
   -4.4107   -1.6689    0.5981 C   0  0  0  0  0  0  0  0  0  0  0  0
   -4.9623   -1.1529   -0.5772 C   0  0  0  0  0  0  0  0  0  0  0  0
   -4.1536   -0.5134   -1.5212 C   0  0  0  0  0  0  0  0  0  0  0  0
   -4.7518    0.0681   -2.7689 C   0  0  0  0  0  0  0  0  0  0  0  0
   -2.7823   -0.3701   -1.2653 C   0  0  0  0  0  0  0  0  0  0  0  0
   -2.2194   -0.8821   -0.0937 C   0  0  0  0  0  0  0  0  0  0  0  0
   -0.8458   -0.7829    0.2279 N   0  0  0  0  0  0  0  0  0  0  0  0
    0.1698   -0.2017   -0.5090 C   0  0  0  0  0  0  0  0  0  0  0  0
    0.0493    0.3172   -1.6108 O   0  0  0  0  0  0  0  0  0  0  0  0
    1.5267   -0.3425    0.1842 C   0  0  0  0  0  0  0  0  0  0  0  0
    2.0767   -1.7169   -0.1608 C   0  0  0  0  0  0  0  0  0  0  0  0
    2.9943   -1.4188   -1.3083 C   0  0  0  0  0  0  0  0  0  0  0  0
    3.4876   -2.2570   -2.0451 O   0  0  0  0  0  0  0  0  0  0  0  0
    3.2491   -0.0825   -1.3852 O   0  0  0  0  0  0  0  0  0  0  0  0
    2.6492    0.6011   -0.2680 C   0  0  0  0  0  0  0  0  0  0  0  0
    2.1804    2.0006   -0.7201 C   0  0  0  0  0  0  0  0  0  0  0  0
    3.2719    3.0576   -0.5640 C   0  0  0  0  0  0  0  0  0  0  0  0
    3.6817    3.2293    0.8983 C   0  0  0  0  0  0  0  0  0  0  0  0
    3.5737    1.9364    1.7056 C   0  0  0  0  0  0  0  0  0  0  0  0
    3.7583    0.7113    0.8191 C   0  0  0  0  0  0  0  0  0  0  0  0
   -2.5258   -3.0375    3.7279 H   0  0  0  0  0  0  0  0  0  0  0  0
   -3.9539   -2.0671    3.3509 H   0  0  0  0  0  0  0  0  0  0  0  0
   -3.6289   -3.6146    2.4731 H   0  0  0  0  0  0  0  0  0  0  0  0
   -5.0793   -2.1606    1.2963 H   0  0  0  0  0  0  0  0  0  0  0  0
   -6.0314   -1.2552   -0.7527 H   0  0  0  0  0  0  0  0  0  0  0  0
   -5.6506   -0.4823   -3.0661 H   0  0  0  0  0  0  0  0  0  0  0  0
   -4.0453    0.0099   -3.6036 H   0  0  0  0  0  0  0  0  0  0  0  0
   -5.0189    1.1160   -2.6020 H   0  0  0  0  0  0  0  0  0  0  0  0
   -2.1733    0.1466   -2.0010 H   0  0  0  0  0  0  0  0  0  0  0  0
   -0.6228   -1.2095    1.1225 H   0  0  0  0  0  0  0  0  0  0  0  0
    1.3491   -0.2386    1.2623 H   0  0  0  0  0  0  0  0  0  0  0  0
    1.3114   -2.4339   -0.4711 H   0  0  0  0  0  0  0  0  0  0  0  0
    2.6677   -2.1327    0.6606 H   0  0  0  0  0  0  0  0  0  0  0  0
    1.8826    1.9827   -1.7748 H   0  0  0  0  0  0  0  0  0  0  0  0
    1.3131    2.3217   -0.1295 H   0  0  0  0  0  0  0  0  0  0  0  0
    2.9278    4.0190   -0.9624 H   0  0  0  0  0  0  0  0  0  0  0  0
    4.1463    2.7682   -1.1605 H   0  0  0  0  0  0  0  0  0  0  0  0
    3.0579    3.9956    1.3741 H   0  0  0  0  0  0  0  0  0  0  0  0
    4.7106    3.6071    0.9335 H   0  0  0  0  0  0  0  0  0  0  0  0
    2.5923    1.8883    2.1935 H   0  0  0  0  0  0  0  0  0  0  0  0
    4.3204    1.9418    2.5077 H   0  0  0  0  0  0  0  0  0  0  0  0
    3.7845   -0.1869    1.4474 H   0  0  0  0  0  0  0  0  0  0  0  0
    4.7474    0.7580    0.3428 H   0  0  0  0  0  0  0  0  0  0  0  0
  1  2  1  0
  2  3  1  0
  3  4  2  0
  4  5  1  0
  5  6  2  0
  6  7  1  0
  6  8  1  0
  8  9  2  0
  9 10  1  0
 10 11  1  0
 11 12  2  0
 11 13  1  0
 13 14  1  0
 14 15  1  0
 15 16  2  0
 15 17  1  0
 17 18  1  0
 18 19  1  0
 19 20  1  0
 20 21  1  0
 21 22  1  0
 22 23  1  0
  9  3  1  0
 18 13  1  0
 23 18  1  0
  1 24  1  0
  1 25  1  0
  1 26  1  0
  4 27  1  0
  5 28  1  0
  7 29  1  0
  7 30  1  0
  7 31  1  0
  8 32  1  0
 10 33  1  0
 13 34  1  0
 14 35  1  0
 14 36  1  0
 19 37  1  0
 19 38  1  0
 20 39  1  0
 20 40  1  0
 21 41  1  0
 21 42  1  0
 22 43  1  0
 22 44  1  0
 23 45  1  0
 23 46  1  0
M  END
$$$$
