
     RDKit          3D

 58 61  0  0  0  0  0  0  0  0999 V2000
   -0.5262    3.4543    0.5284 O   0  0  0  0  0  0  0  0  0  0  0  0
   -0.7598    2.4516   -0.1412 C   0  0  0  0  0  0  0  0  0  0  0  0
    0.1787    2.0133   -1.2792 C   0  0  0  0  0  0  0  0  0  0  0  0
    1.3126    1.2279   -0.7642 N   0  0  0  0  0  0  0  0  0  0  0  0
    2.3971    1.1193   -1.7437 C   0  0  0  0  0  0  0  0  0  0  0  0
    3.6507    0.4520   -1.1375 C   0  0  0  0  0  0  0  0  0  0  0  0
    3.3398   -0.7611   -0.3111 N   0  0  0  0  0  0  0  0  0  0  0  0
    4.5032   -2.0037   -0.3546 S   0  0  0  0  0  6  0  0  0  0  0  0
    4.0603   -3.0470    0.5501 O   0  0  0  0  0  0  0  0  0  0  0  0
    4.7717   -2.3183   -1.7411 O   0  0  0  0  0  0  0  0  0  0  0  0
    5.9194   -1.2508    0.3793 C   0  0  0  0  0  0  0  0  0  0  0  0
    6.1051   -1.3435    1.7645 C   0  0  0  0  0  0  0  0  0  0  0  0
    7.2443   -0.7888    2.3508 C   0  0  0  0  0  0  0  0  0  0  0  0
    8.1977   -0.1506    1.5568 C   0  0  0  0  0  0  0  0  0  0  0  0
    8.0114   -0.0675    0.1765 C   0  0  0  0  0  0  0  0  0  0  0  0
    6.8743   -0.6222   -0.4083 C   0  0  0  0  0  0  0  0  0  0  0  0
    6.7249   -0.4971   -1.7329 F   0  0  0  0  0  0  0  0  0  0  0  0
    1.9446   -1.2402   -0.5058 C   0  0  0  0  0  0  0  0  0  0  0  0
    0.9216   -0.1053   -0.2614 C   0  0  0  0  0  0  0  0  0  0  0  0
   -1.8508    1.6129    0.0023 N   0  0  0  0  0  0  0  0  0  0  0  0
   -2.8726    1.6419    0.9813 C   0  0  0  0  0  0  0  0  0  0  0  0
   -2.9052    2.5950    2.0046 C   0  0  0  0  0  0  0  0  0  0  0  0
   -3.9072    2.5665    2.9792 C   0  0  0  0  0  0  0  0  0  0  0  0
   -4.8870    1.5799    2.9514 C   0  0  0  0  0  0  0  0  0  0  0  0
   -4.8790    0.6250    1.9367 C   0  0  0  0  0  0  0  0  0  0  0  0
   -3.8929    0.6621    0.9362 C   0  0  0  0  0  0  0  0  0  0  0  0
   -3.9139   -0.3576   -0.1564 C   0  0  0  0  0  0  0  0  0  0  0  0
   -2.8592   -0.7042   -0.6896 O   0  0  0  0  0  0  0  0  0  0  0  0
   -5.1809   -0.9519   -0.6449 C   0  0  0  0  0  0  0  0  0  0  0  0
   -5.2026   -2.3161   -0.9541 C   0  0  0  0  0  0  0  0  0  0  0  0
   -6.3763   -2.9040   -1.4263 C   0  0  0  0  0  0  0  0  0  0  0  0
   -7.5224   -2.1283   -1.6031 C   0  0  0  0  0  0  0  0  0  0  0  0
   -7.4957   -0.7622   -1.3185 C   0  0  0  0  0  0  0  0  0  0  0  0
   -6.3243   -0.1691   -0.8447 C   0  0  0  0  0  0  0  0  0  0  0  0
   -0.3742    1.4698   -2.0550 H   0  0  0  0  0  0  0  0  0  0  0  0
    0.5359    2.9421   -1.7426 H   0  0  0  0  0  0  0  0  0  0  0  0
    2.6904    2.1139   -2.1014 H   0  0  0  0  0  0  0  0  0  0  0  0
    2.0624    0.5524   -2.6225 H   0  0  0  0  0  0  0  0  0  0  0  0
    4.3295    0.2099   -1.9605 H   0  0  0  0  0  0  0  0  0  0  0  0
    4.1575    1.1689   -0.4806 H   0  0  0  0  0  0  0  0  0  0  0  0
    5.3688   -1.8456    2.3896 H   0  0  0  0  0  0  0  0  0  0  0  0
    7.3894   -0.8580    3.4267 H   0  0  0  0  0  0  0  0  0  0  0  0
    9.0859    0.2804    2.0133 H   0  0  0  0  0  0  0  0  0  0  0  0
    8.7470    0.4281   -0.4503 H   0  0  0  0  0  0  0  0  0  0  0  0
    1.8350   -1.6259   -1.5271 H   0  0  0  0  0  0  0  0  0  0  0  0
    1.7205   -2.0541    0.1917 H   0  0  0  0  0  0  0  0  0  0  0  0
    0.7513   -0.0113    0.8177 H   0  0  0  0  0  0  0  0  0  0  0  0
   -0.0215   -0.4416   -0.7071 H   0  0  0  0  0  0  0  0  0  0  0  0
   -1.8895    0.8025   -0.6181 H   0  0  0  0  0  0  0  0  0  0  0  0
   -2.1515    3.3726    2.0836 H   0  0  0  0  0  0  0  0  0  0  0  0
   -3.9063    3.3134    3.7700 H   0  0  0  0  0  0  0  0  0  0  0  0
   -5.6521    1.5515    3.7236 H   0  0  0  0  0  0  0  0  0  0  0  0
   -5.6416   -0.1497    1.9495 H   0  0  0  0  0  0  0  0  0  0  0  0
   -4.3076   -2.9213   -0.8290 H   0  0  0  0  0  0  0  0  0  0  0  0
   -6.3955   -3.9648   -1.6635 H   0  0  0  0  0  0  0  0  0  0  0  0
   -8.4351   -2.5875   -1.9759 H   0  0  0  0  0  0  0  0  0  0  0  0
   -8.3868   -0.1585   -1.4753 H   0  0  0  0  0  0  0  0  0  0  0  0
   -6.3135    0.9006   -0.6514 H   0  0  0  0  0  0  0  0  0  0  0  0
  1  2  2  0
  2  3  1  0
  3  4  1  0
  4  5  1  0
  5  6  1  0
  6  7  1  0
  7  8  1  0
  8  9  2  0
  8 10  2  0
  8 11  1  0
 11 12  2  0
 12 13  1  0
 13 14  2  0
 14 15  1  0
 15 16  2  0
 16 17  1  0
  7 18  1  0
 18 19  1  0
  2 20  1  0
 20 21  1  0
 21 22  2  0
 22 23  1  0
 23 24  2  0
 24 25  1  0
 25 26  2  0
 26 27  1  0
 27 28  2  0
 27 29  1  0
 29 30  2  0
 30 31  1  0
 31 32  2  0
 32 33  1  0
 33 34  2  0
 19  4  1  0
 26 21  1  0
 34 29  1  0
 16 11  1  0
  3 35  1  0
  3 36  1  0
  5 37  1  0
  5 38  1  0
  6 39  1  0
  6 40  1  0
 12 41  1  0
 13 42  1  0
 14 43  1  0
 15 44  1  0
 18 45  1  0
 18 46  1  0
 19 47  1  0
 19 48  1  0
 20 49  1  0
 22 50  1  0
 23 51  1  0
 24 52  1  0
 25 53  1  0
 30 54  1  0
 31 55  1  0
 32 56  1  0
 33 57  1  0
 34 58  1  0
M  END
$$$$
