
     RDKit          3D

 49 52  0  0  0  0  0  0  0  0999 V2000
   -0.6062    5.3666   -1.7943 C   0  0  0  0  0  0  0  0  0  0  0  0
   -0.7369    4.1547   -0.9198 C   0  0  0  0  0  0  0  0  0  0  0  0
   -1.1966    4.2784    0.3952 C   0  0  0  0  0  0  0  0  0  0  0  0
   -1.3480    3.1492    1.1982 C   0  0  0  0  0  0  0  0  0  0  0  0
   -1.0502    1.8845    0.6918 C   0  0  0  0  0  0  0  0  0  0  0  0
   -0.5929    1.7307   -0.6258 C   0  0  0  0  0  0  0  0  0  0  0  0
   -0.2904    0.3636   -1.2216 C   0  0  0  0  0  0  0  0  0  0  0  0
   -1.5721   -0.3152   -1.7082 C   0  0  0  0  0  0  0  0  0  0  0  0
   -1.6793   -1.4380   -0.7137 C   0  0  0  0  0  0  0  0  0  0  0  0
   -2.8702   -2.3180   -0.6553 C   0  0  0  0  0  0  0  0  0  0  0  0
   -3.9237   -2.1858   -1.5671 C   0  0  0  0  0  0  0  0  0  0  0  0
   -5.0322   -3.0327   -1.4825 C   0  0  0  0  0  0  0  0  0  0  0  0
   -5.0925   -4.0117   -0.4914 C   0  0  0  0  0  0  0  0  0  0  0  0
   -4.0454   -4.1484    0.4179 C   0  0  0  0  0  0  0  0  0  0  0  0
   -2.9362   -3.3044    0.3367 C   0  0  0  0  0  0  0  0  0  0  0  0
   -0.6456   -1.5904    0.0577 N   0  0  0  0  0  0  0  0  0  0  0  0
    0.2400   -0.5972   -0.2506 N   0  0  0  0  0  0  0  0  0  0  0  0
    1.5176   -0.5826    0.3056 C   0  0  0  0  0  0  0  0  0  0  0  0
    2.4728    0.3947   -0.0222 C   0  0  0  0  0  0  0  0  0  0  0  0
    3.7537    0.3925    0.5440 C   0  0  0  0  0  0  0  0  0  0  0  0
    4.1022   -0.6042    1.4534 C   0  0  0  0  0  0  0  0  0  0  0  0
    5.7228   -0.6129    2.1667 S   0  0  0  0  0  6  0  0  0  0  0  0
    6.5646   -1.5720    1.0649 N   0  0  0  0  0  0  0  0  0  0  0  0
    5.6849   -1.3741    3.3942 O   0  0  0  0  0  0  0  0  0  0  0  0
    6.2678    0.7218    2.0959 O   0  0  0  0  0  0  0  0  0  0  0  0
    3.1785   -1.5800    1.8166 C   0  0  0  0  0  0  0  0  0  0  0  0
    1.9044   -1.5634    1.2394 C   0  0  0  0  0  0  0  0  0  0  0  0
   -0.4531    2.8787   -1.4265 C   0  0  0  0  0  0  0  0  0  0  0  0
    0.2003    5.2363   -2.5236 H   0  0  0  0  0  0  0  0  0  0  0  0
   -1.5436    5.5438   -2.3304 H   0  0  0  0  0  0  0  0  0  0  0  0
   -0.3651    6.2541   -1.1997 H   0  0  0  0  0  0  0  0  0  0  0  0
   -1.4374    5.2569    0.8047 H   0  0  0  0  0  0  0  0  0  0  0  0
   -1.6975    3.2526    2.2223 H   0  0  0  0  0  0  0  0  0  0  0  0
   -1.1712    1.0154    1.3371 H   0  0  0  0  0  0  0  0  0  0  0  0
    0.4040    0.4709   -2.0647 H   0  0  0  0  0  0  0  0  0  0  0  0
   -1.4346   -0.7425   -2.7072 H   0  0  0  0  0  0  0  0  0  0  0  0
   -2.4544    0.3306   -1.6963 H   0  0  0  0  0  0  0  0  0  0  0  0
   -3.9059   -1.4362   -2.3520 H   0  0  0  0  0  0  0  0  0  0  0  0
   -5.8508   -2.9292   -2.1909 H   0  0  0  0  0  0  0  0  0  0  0  0
   -5.9563   -4.6691   -0.4274 H   0  0  0  0  0  0  0  0  0  0  0  0
   -4.0904   -4.9110    1.1914 H   0  0  0  0  0  0  0  0  0  0  0  0
   -2.1256   -3.4206    1.0534 H   0  0  0  0  0  0  0  0  0  0  0  0
    2.2352    1.1916   -0.7210 H   0  0  0  0  0  0  0  0  0  0  0  0
    4.4620    1.1731    0.2737 H   0  0  0  0  0  0  0  0  0  0  0  0
    6.0267   -1.7745    0.2229 H   0  0  0  0  0  0  0  0  0  0  0  0
    6.8639   -2.4258    1.5389 H   0  0  0  0  0  0  0  0  0  0  0  0
    3.4273   -2.3500    2.5429 H   0  0  0  0  0  0  0  0  0  0  0  0
    1.1911   -2.3319    1.5329 H   0  0  0  0  0  0  0  0  0  0  0  0
   -0.1156    2.7812   -2.4569 H   0  0  0  0  0  0  0  0  0  0  0  0
  1  2  1  0
  2  3  2  0
  3  4  1  0
  4  5  2  0
  5  6  1  0
  6  7  1  0
  7  8  1  0
  8  9  1  0
  9 10  1  0
 10 11  2  0
 11 12  1  0
 12 13  2  0
 13 14  1  0
 14 15  2  0
  9 16  2  0
 16 17  1  0
 17 18  1  0
 18 19  2  0
 19 20  1  0
 20 21  2  0
 21 22  1  0
 22 23  1  0
 22 24  2  0
 22 25  2  0
 21 26  1  0
 26 27  2  0
  6 28  2  0
 28  2  1  0
 17  7  1  0
 27 18  1  0
 15 10  1  0
  1 29  1  0
  1 30  1  0
  1 31  1  0
  3 32  1  0
  4 33  1  0
  5 34  1  0
  7 35  1  0
  8 36  1  0
  8 37  1  0
 11 38  1  0
 12 39  1  0
 13 40  1  0
 14 41  1  0
 15 42  1  0
 19 43  1  0
 20 44  1  0
 23 45  1  0
 23 46  1  0
 26 47  1  0
 27 48  1  0
 28 49  1  0
M  END
$$$$
