
     RDKit          3D

 43 46  0  0  0  0  0  0  0  0999 V2000
   -1.6708    6.2551   -5.2114 N   0  0  0  0  0  0  0  0  0  0  0  0
   -1.3046    5.2641   -4.7327 C   0  0  0  0  0  0  0  0  0  0  0  0
   -0.8501    4.0205   -4.1063 C   0  0  0  0  0  0  0  0  0  0  0  0
   -1.7516    3.6663   -2.9337 C   0  0  0  0  0  0  0  0  0  0  0  0
   -1.2896    2.4764   -2.2450 N   0  0  0  0  0  0  0  0  0  0  0  0
   -0.8114    2.4005   -0.9713 C   0  0  0  0  0  0  0  0  0  0  0  0
   -0.5234    1.0719   -0.7499 C   0  0  0  0  0  0  0  0  0  0  0  0
   -0.0218    0.4825    0.4564 C   0  0  0  0  0  0  0  0  0  0  0  0
   -0.2090    0.8624    1.7417 C   0  0  0  0  0  0  0  0  0  0  0  0
   -1.0204    1.9875    2.0825 C   0  0  0  0  0  0  0  0  0  0  0  0
   -1.6725    2.9076    2.3611 N   0  0  0  0  0  0  0  0  0  0  0  0
    0.4231    0.0721    2.7707 C   0  0  0  0  0  0  0  0  0  0  0  0
    1.2501   -0.9403    2.5644 N   0  0  0  0  0  0  0  0  0  0  0  0
    1.6830   -1.4969    3.7556 C   0  0  0  0  0  0  0  0  0  0  0  0
    2.5649   -2.5887    3.8859 C   0  0  0  0  0  0  0  0  0  0  0  0
    2.9181   -3.0483    5.1589 C   0  0  0  0  0  0  0  0  0  0  0  0
    2.4043   -2.4342    6.2966 C   0  0  0  0  0  0  0  0  0  0  0  0
    1.5279   -1.3497    6.1915 C   0  0  0  0  0  0  0  0  0  0  0  0
    1.1809   -0.8979    4.9074 C   0  0  0  0  0  0  0  0  0  0  0  0
    0.1428    0.3916    4.4566 S   0  0  0  0  0  0  0  0  0  0  0  0
   -0.8140    0.4226   -1.9931 C   0  0  0  0  0  0  0  0  0  0  0  0
   -0.6747   -0.9854   -2.3544 C   0  0  0  0  0  0  0  0  0  0  0  0
    0.5667   -1.6318   -2.2628 C   0  0  0  0  0  0  0  0  0  0  0  0
    0.6837   -2.9794   -2.6114 C   0  0  0  0  0  0  0  0  0  0  0  0
   -0.4357   -3.6731   -3.0579 C   0  0  0  0  0  0  0  0  0  0  0  0
   -0.3202   -4.9651   -3.3916 F   0  0  0  0  0  0  0  0  0  0  0  0
   -1.6706   -3.0451   -3.1687 C   0  0  0  0  0  0  0  0  0  0  0  0
   -1.7900   -1.6982   -2.8205 C   0  0  0  0  0  0  0  0  0  0  0  0
   -1.3038    1.2992   -2.8852 N   0  0  0  0  0  0  0  0  0  0  0  0
   -0.8484    3.2145   -4.8493 H   0  0  0  0  0  0  0  0  0  0  0  0
    0.1857    4.1361   -3.7651 H   0  0  0  0  0  0  0  0  0  0  0  0
   -1.7893    4.4828   -2.2025 H   0  0  0  0  0  0  0  0  0  0  0  0
   -2.7798    3.4692   -3.2613 H   0  0  0  0  0  0  0  0  0  0  0  0
   -0.7325    3.2848   -0.3534 H   0  0  0  0  0  0  0  0  0  0  0  0
    0.5698   -0.4189    0.2953 H   0  0  0  0  0  0  0  0  0  0  0  0
    2.9633   -3.0663    2.9963 H   0  0  0  0  0  0  0  0  0  0  0  0
    3.5983   -3.8915    5.2568 H   0  0  0  0  0  0  0  0  0  0  0  0
    2.6864   -2.8015    7.2815 H   0  0  0  0  0  0  0  0  0  0  0  0
    1.1271   -0.8717    7.0806 H   0  0  0  0  0  0  0  0  0  0  0  0
    1.4514   -1.0902   -1.9365 H   0  0  0  0  0  0  0  0  0  0  0  0
    1.6396   -3.4891   -2.5447 H   0  0  0  0  0  0  0  0  0  0  0  0
   -2.5292   -3.6028   -3.5282 H   0  0  0  0  0  0  0  0  0  0  0  0
   -2.7537   -1.2015   -2.9157 H   0  0  0  0  0  0  0  0  0  0  0  0
  1  2  3  0
  2  3  1  0
  3  4  1  0
  4  5  1  0
  5  6  1  0
  6  7  2  0
  7  8  1  0
  8  9  2  3
  9 10  1  0
 10 11  3  0
  9 12  1  0
 12 13  2  0
 13 14  1  0
 14 15  2  0
 15 16  1  0
 16 17  2  0
 17 18  1  0
 18 19  2  0
 19 20  1  0
  7 21  1  0
 21 22  1  0
 22 23  2  0
 23 24  1  0
 24 25  2  0
 25 26  1  0
 25 27  1  0
 27 28  2  0
 21 29  2  0
 29  5  1  0
 20 12  1  0
 28 22  1  0
 19 14  1  0
  3 30  1  0
  3 31  1  0
  4 32  1  0
  4 33  1  0
  6 34  1  0
  8 35  1  0
 15 36  1  0
 16 37  1  0
 17 38  1  0
 18 39  1  0
 23 40  1  0
 24 41  1  0
 27 42  1  0
 28 43  1  0
M  END
$$$$
