
     RDKit          3D

 41 44  0  0  0  0  0  0  0  0999 V2000
   -5.7476   -1.9199    1.4443 C   0  0  0  0  0  0  0  0  0  0  0  0
   -5.7725   -0.5355    0.7916 C   0  0  0  0  0  0  0  0  0  0  0  0
   -6.9423   -0.4153   -0.1883 C   0  0  0  0  0  0  0  0  0  0  0  0
   -4.4484   -0.2100    0.1227 C   0  0  0  0  0  0  0  0  0  0  0  0
   -3.9533   -0.9751   -0.9435 C   0  0  0  0  0  0  0  0  0  0  0  0
   -2.7312   -0.6587   -1.5439 C   0  0  0  0  0  0  0  0  0  0  0  0
   -1.9796    0.4258   -1.0848 C   0  0  0  0  0  0  0  0  0  0  0  0
   -0.7047    0.7459   -1.7316 C   0  0  0  0  0  0  0  0  0  0  0  0
    0.5084    0.5982   -1.1809 C   0  0  0  0  0  0  0  0  0  0  0  0
    0.8787   -0.0136    0.4215 S   0  0  0  0  0  0  0  0  0  0  0  0
    2.5509    0.1858    0.1017 C   0  0  0  0  0  0  0  0  0  0  0  0
    3.6538   -0.0204    0.7607 N   0  0  0  0  0  0  0  0  0  0  0  0
    4.6174    0.3807   -0.1606 C   0  0  0  0  0  0  0  0  0  0  0  0
    6.0429    0.3258    0.1443 C   0  0  0  0  0  0  0  0  0  0  0  0
    6.4812   -0.1393    1.3864 C   0  0  0  0  0  0  0  0  0  0  0  0
    7.8424   -0.1752    1.6354 C   0  0  0  0  0  0  0  0  0  0  0  0
    8.7782    0.2147    0.7446 N   0  0  0  0  0  0  0  0  0  0  0  0
    8.3338    0.6606   -0.4493 C   0  0  0  0  0  0  0  0  0  0  0  0
    6.9950    0.7344   -0.7930 C   0  0  0  0  0  0  0  0  0  0  0  0
    4.1196    0.8171   -1.3392 N   0  0  0  0  0  0  0  0  0  0  0  0
    2.8000    0.6755   -1.1274 N   0  0  0  0  0  0  0  0  0  0  0  0
    1.7359    0.9523   -1.9578 C   0  0  0  0  0  0  0  0  0  0  0  0
    1.8434    1.3950   -3.0867 O   0  0  0  0  0  0  0  0  0  0  0  0
   -2.4690    1.1993   -0.0288 C   0  0  0  0  0  0  0  0  0  0  0  0
   -3.6912    0.8818    0.5708 C   0  0  0  0  0  0  0  0  0  0  0  0
   -6.6778   -2.1034    1.9928 H   0  0  0  0  0  0  0  0  0  0  0  0
   -4.9175   -2.0027    2.1548 H   0  0  0  0  0  0  0  0  0  0  0  0
   -5.6348   -2.7200    0.7047 H   0  0  0  0  0  0  0  0  0  0  0  0
   -5.9475    0.1948    1.5928 H   0  0  0  0  0  0  0  0  0  0  0  0
   -6.9681    0.5795   -0.6469 H   0  0  0  0  0  0  0  0  0  0  0  0
   -7.8952   -0.5705    0.3292 H   0  0  0  0  0  0  0  0  0  0  0  0
   -6.8787   -1.1533   -0.9954 H   0  0  0  0  0  0  0  0  0  0  0  0
   -4.5157   -1.8274   -1.3183 H   0  0  0  0  0  0  0  0  0  0  0  0
   -2.3745   -1.2710   -2.3690 H   0  0  0  0  0  0  0  0  0  0  0  0
   -0.7982    1.1156   -2.7525 H   0  0  0  0  0  0  0  0  0  0  0  0
    5.7817   -0.4683    2.1483 H   0  0  0  0  0  0  0  0  0  0  0  0
    8.2278   -0.5294    2.5873 H   0  0  0  0  0  0  0  0  0  0  0  0
    9.1079    0.9677   -1.1470 H   0  0  0  0  0  0  0  0  0  0  0  0
    6.7066    1.1035   -1.7722 H   0  0  0  0  0  0  0  0  0  0  0  0
   -1.9095    2.0565    0.3381 H   0  0  0  0  0  0  0  0  0  0  0  0
   -4.0480    1.4983    1.3933 H   0  0  0  0  0  0  0  0  0  0  0  0
  1  2  1  0
  2  3  1  0
  2  4  1  0
  4  5  2  0
  5  6  1  0
  6  7  2  0
  7  8  1  0
  8  9  2  3
  9 10  1  0
 10 11  1  0
 11 12  2  0
 12 13  1  0
 13 14  1  0
 14 15  2  0
 15 16  1  0
 16 17  2  0
 17 18  1  0
 18 19  2  0
 13 20  2  0
 20 21  1  0
 21 22  1  0
 22 23  2  0
  7 24  1  0
 24 25  2  0
 25  4  1  0
 22  9  1  0
 21 11  1  0
 19 14  1  0
  1 26  1  0
  1 27  1  0
  1 28  1  0
  2 29  1  0
  3 30  1  0
  3 31  1  0
  3 32  1  0
  5 33  1  0
  6 34  1  0
  8 35  1  0
 15 36  1  0
 16 37  1  0
 18 38  1  0
 19 39  1  0
 24 40  1  0
 25 41  1  0
M  END
$$$$
