
     RDKit          3D

 21 21  0  0  0  0  0  0  0  0999 V2000
   -1.8767   -2.3243   -0.0109 C   0  0  0  0  0  0  0  0  0  0  0  0
   -0.7461   -1.7798   -0.6797 O   0  0  0  0  0  0  0  0  0  0  0  0
   -0.2643   -0.5798   -0.2297 C   0  0  0  0  0  0  0  0  0  0  0  0
   -1.0306    0.3302    0.5149 C   0  0  0  0  0  0  0  0  0  0  0  0
   -0.5194    1.5807    0.8924 C   0  0  0  0  0  0  0  0  0  0  0  0
   -1.2848    2.3989    1.7413 N   0  0  0  0  0  0  0  0  0  0  0  0
    0.8162    1.8766    0.5811 C   0  0  0  0  0  0  0  0  0  0  0  0
    1.6106    3.5117    1.1361 Br  0  0  0  0  0  0  0  0  0  0  0  0
    1.5909    0.9901   -0.1671 C   0  0  0  0  0  0  0  0  0  0  0  0
    1.0505   -0.2357   -0.5833 C   0  0  0  0  0  0  0  0  0  0  0  0
    1.9055   -1.1760   -1.3523 C   0  0  0  0  0  0  0  0  0  0  0  0
    1.8743   -2.3907   -1.3519 O   0  0  0  0  0  0  0  0  0  0  0  0
    2.7960   -0.5126   -2.1174 O   0  0  0  0  0  0  0  0  0  0  0  0
   -2.7864   -1.7778   -0.2790 H   0  0  0  0  0  0  0  0  0  0  0  0
   -1.9986   -3.3580   -0.3485 H   0  0  0  0  0  0  0  0  0  0  0  0
   -1.7318   -2.3427    1.0746 H   0  0  0  0  0  0  0  0  0  0  0  0
   -2.0479    0.0878    0.8054 H   0  0  0  0  0  0  0  0  0  0  0  0
   -2.2885    2.3263    1.6091 H   0  0  0  0  0  0  0  0  0  0  0  0
   -0.9612    3.3641    1.7612 H   0  0  0  0  0  0  0  0  0  0  0  0
    2.6190    1.2435   -0.4146 H   0  0  0  0  0  0  0  0  0  0  0  0
    3.2733   -1.2324   -2.5818 H   0  0  0  0  0  0  0  0  0  0  0  0
  1  2  1  0
  2  3  1  0
  3  4  2  0
  4  5  1  0
  5  6  1  0
  5  7  2  0
  7  8  1  0
  7  9  1  0
  9 10  2  0
 10 11  1  0
 11 12  2  0
 11 13  1  0
 10  3  1  0
  1 14  1  0
  1 15  1  0
  1 16  1  0
  4 17  1  0
  6 18  1  0
  6 19  1  0
  9 20  1  0
 13 21  1  0
M  END
$$$$
