
     RDKit          3D

 60 64  0  0  0  0  0  0  0  0999 V2000
   -3.3904   -2.0691   -1.2686 O   0  0  0  0  0  0  0  0  0  0  0  0
   -3.2132   -1.2201   -0.3945 C   0  0  0  0  0  0  0  0  0  0  0  0
   -1.8175   -0.8820    0.0974 C   0  0  0  0  0  0  0  0  0  0  0  0
   -0.7664   -1.7594   -0.5805 C   0  0  0  0  0  0  0  0  0  0  0  0
    0.5866   -1.4449   -0.1160 N   0  0  0  0  0  0  0  0  0  0  0  0
    1.0226   -2.0741    1.0393 C   0  0  0  0  0  0  0  0  0  0  0  0
    0.3194   -2.8187    1.7189 O   0  0  0  0  0  0  0  0  0  0  0  0
    2.4015   -1.7967    1.4636 C   0  0  0  0  0  0  0  0  0  0  0  0
    2.9277   -2.4839    2.5698 C   0  0  0  0  0  0  0  0  0  0  0  0
    4.2292   -2.2347    2.9913 C   0  0  0  0  0  0  0  0  0  0  0  0
    4.9985   -1.2992    2.3105 C   0  0  0  0  0  0  0  0  0  0  0  0
    4.4674   -0.6147    1.2102 C   0  0  0  0  0  0  0  0  0  0  0  0
    3.1578   -0.8558    0.7654 C   0  0  0  0  0  0  0  0  0  0  0  0
    2.5773   -0.1733   -0.3420 N   0  0  0  0  0  0  0  0  0  0  0  0
    3.3338    0.8433   -1.0819 C   0  0  0  0  0  0  0  0  0  0  0  0
    4.3063    0.2626   -2.0922 C   0  0  0  0  0  0  0  0  0  0  0  0
    3.8649   -0.6098   -3.1010 C   0  0  0  0  0  0  0  0  0  0  0  0
    4.7560   -1.1355   -4.0409 C   0  0  0  0  0  0  0  0  0  0  0  0
    6.1059   -0.7918   -3.9961 C   0  0  0  0  0  0  0  0  0  0  0  0
    6.5544    0.0899   -3.0069 C   0  0  0  0  0  0  0  0  0  0  0  0
    7.9739    0.4607   -2.9527 N   0  0  0  0  0  4  0  0  0  0  0  0
    8.3474    1.1655   -2.0034 O   0  0  0  0  0  0  0  0  0  0  0  0
    8.7155    0.0458   -3.8544 O   0  0  0  0  0  1  0  0  0  0  0  0
    5.6627    0.6238   -2.0632 C   0  0  0  0  0  0  0  0  0  0  0  0
    1.2824   -0.4434   -0.7784 C   0  0  0  0  0  0  0  0  0  0  0  0
    0.7706    0.1819   -1.7106 O   0  0  0  0  0  0  0  0  0  0  0  0
   -4.2662   -0.5086    0.1750 N   0  0  0  0  0  0  0  0  0  0  0  0
   -5.6300   -0.8926   -0.1798 C   0  0  0  0  0  0  0  0  0  0  0  0
   -6.5410    0.3268   -0.2859 C   0  0  0  0  0  0  0  0  0  0  0  0
   -6.4550    1.1847    0.9490 C   0  0  0  0  0  0  0  0  0  0  0  0
   -7.5131    2.0392    1.2867 C   0  0  0  0  0  0  0  0  0  0  0  0
   -7.4286    2.8540    2.4148 C   0  0  0  0  0  0  0  0  0  0  0  0
   -6.2846    2.8284    3.2078 C   0  0  0  0  0  0  0  0  0  0  0  0
   -5.2205    1.9916    2.8705 C   0  0  0  0  0  0  0  0  0  0  0  0
   -5.2902    1.1679    1.7358 C   0  0  0  0  0  0  0  0  0  0  0  0
   -4.1158    0.2779    1.3997 C   0  0  0  0  0  0  0  0  0  0  0  0
   -1.7731   -1.0296    1.1817 H   0  0  0  0  0  0  0  0  0  0  0  0
   -1.6149    0.1725   -0.1207 H   0  0  0  0  0  0  0  0  0  0  0  0
   -0.9745   -2.8178   -0.3790 H   0  0  0  0  0  0  0  0  0  0  0  0
   -0.8128   -1.6357   -1.6695 H   0  0  0  0  0  0  0  0  0  0  0  0
    2.3222   -3.2156    3.1019 H   0  0  0  0  0  0  0  0  0  0  0  0
    4.6394   -2.7672    3.8459 H   0  0  0  0  0  0  0  0  0  0  0  0
    6.0177   -1.0971    2.6340 H   0  0  0  0  0  0  0  0  0  0  0  0
    5.1184    0.1049    0.7273 H   0  0  0  0  0  0  0  0  0  0  0  0
    2.6536    1.5085   -1.6281 H   0  0  0  0  0  0  0  0  0  0  0  0
    3.8415    1.4998   -0.3652 H   0  0  0  0  0  0  0  0  0  0  0  0
    2.8126   -0.8835   -3.1706 H   0  0  0  0  0  0  0  0  0  0  0  0
    4.3911   -1.8116   -4.8116 H   0  0  0  0  0  0  0  0  0  0  0  0
    6.7859   -1.2113   -4.7345 H   0  0  0  0  0  0  0  0  0  0  0  0
    6.0189    1.3205   -1.3063 H   0  0  0  0  0  0  0  0  0  0  0  0
   -5.6502   -1.4379   -1.1293 H   0  0  0  0  0  0  0  0  0  0  0  0
   -5.9855   -1.5812    0.5974 H   0  0  0  0  0  0  0  0  0  0  0  0
   -6.2472    0.9378   -1.1481 H   0  0  0  0  0  0  0  0  0  0  0  0
   -7.5717   -0.0107   -0.4445 H   0  0  0  0  0  0  0  0  0  0  0  0
   -8.4096    2.0732    0.6716 H   0  0  0  0  0  0  0  0  0  0  0  0
   -8.2552    3.5107    2.6734 H   0  0  0  0  0  0  0  0  0  0  0  0
   -6.2195    3.4636    4.0874 H   0  0  0  0  0  0  0  0  0  0  0  0
   -4.3320    1.9874    3.4982 H   0  0  0  0  0  0  0  0  0  0  0  0
   -3.2202    0.9015    1.3127 H   0  0  0  0  0  0  0  0  0  0  0  0
   -3.9638   -0.4350    2.2193 H   0  0  0  0  0  0  0  0  0  0  0  0
  1  2  2  0
  2  3  1  0
  3  4  1  0
  4  5  1  0
  5  6  1  0
  6  7  2  0
  6  8  1  0
  8  9  2  0
  9 10  1  0
 10 11  2  0
 11 12  1  0
 12 13  2  0
 13 14  1  0
 14 15  1  0
 15 16  1  0
 16 17  2  0
 17 18  1  0
 18 19  2  0
 19 20  1  0
 20 21  1  0
 21 22  2  0
 21 23  1  0
 20 24  2  0
 14 25  1  0
 25 26  2  0
  2 27  1  0
 27 28  1  0
 28 29  1  0
 29 30  1  0
 30 31  2  0
 31 32  1  0
 32 33  2  0
 33 34  1  0
 34 35  2  0
 35 36  1  0
 25  5  1  0
 36 27  1  0
 13  8  1  0
 24 16  1  0
 35 30  1  0
  3 37  1  0
  3 38  1  0
  4 39  1  0
  4 40  1  0
  9 41  1  0
 10 42  1  0
 11 43  1  0
 12 44  1  0
 15 45  1  0
 15 46  1  0
 17 47  1  0
 18 48  1  0
 19 49  1  0
 24 50  1  0
 28 51  1  0
 28 52  1  0
 29 53  1  0
 29 54  1  0
 31 55  1  0
 32 56  1  0
 33 57  1  0
 34 58  1  0
 36 59  1  0
 36 60  1  0
M  CHG  2  21   1  23  -1
M  END
$$$$
