
     RDKit          3D

 56 59  0  0  0  0  0  0  0  0999 V2000
   -4.4344   -0.7887    2.4134 C   0  0  0  0  0  0  0  0  0  0  0  0
   -3.9689    0.5954    2.8419 C   0  0  0  0  0  0  0  0  0  0  0  0
   -2.5635    0.8497    2.5264 N   0  0  0  0  0  0  0  0  0  0  0  0
   -2.2335    1.9845    1.6514 C   0  0  0  0  0  0  0  0  0  0  0  0
   -1.8784    1.5371    0.2266 C   0  0  0  0  0  0  0  0  0  0  0  0
   -0.6937    1.8319   -0.2157 N   0  0  0  0  0  0  0  0  0  0  0  0
   -0.3344    1.4434   -1.4877 C   0  0  0  0  0  0  0  0  0  0  0  0
    0.7725    1.6844   -1.9568 O   0  0  0  0  0  0  0  0  0  0  0  0
   -1.3107    0.7096   -2.3363 C   0  0  0  0  0  0  0  0  0  0  0  0
   -0.9967    0.3167   -3.6424 C   0  0  0  0  0  0  0  0  0  0  0  0
   -1.9561   -0.3501   -4.4076 C   0  0  0  0  0  0  0  0  0  0  0  0
   -3.2141   -0.6176   -3.8638 C   0  0  0  0  0  0  0  0  0  0  0  0
   -4.4056   -1.4236   -4.8153 Cl  0  0  0  0  0  0  0  0  0  0  0  0
   -3.5236   -0.2280   -2.5587 C   0  0  0  0  0  0  0  0  0  0  0  0
   -2.5655    0.4305   -1.7829 C   0  0  0  0  0  0  0  0  0  0  0  0
   -2.8458    0.8785   -0.4928 N   0  0  0  0  0  0  0  0  0  0  0  0
   -1.6023    0.1756    3.2882 C   0  0  0  0  0  0  0  0  0  0  0  0
   -1.8731   -0.6291    4.1744 O   0  0  0  0  0  0  0  0  0  0  0  0
   -0.1787    0.4314    3.0162 C   0  0  0  0  0  0  0  0  0  0  0  0
    0.4963    1.4174    3.7408 C   0  0  0  0  0  0  0  0  0  0  0  0
    1.8404    1.6639    3.4667 C   0  0  0  0  0  0  0  0  0  0  0  0
    2.5007    0.9237    2.4805 C   0  0  0  0  0  0  0  0  0  0  0  0
    1.8184   -0.0689    1.7689 C   0  0  0  0  0  0  0  0  0  0  0  0
    2.3962   -0.8676    0.8209 O   0  0  0  0  0  0  0  0  0  0  0  0
    3.2533   -0.1777   -0.0966 C   0  0  0  0  0  0  0  0  0  0  0  0
    3.6776   -1.0813   -1.2013 C   0  0  0  0  0  0  0  0  0  0  0  0
    4.1302   -2.4282   -1.1049 C   0  0  0  0  0  0  0  0  0  0  0  0
    4.2726   -3.2704    0.1086 C   0  0  0  0  0  0  0  0  0  0  0  0
    4.4493   -2.9257   -2.3042 N   0  0  0  0  0  0  0  0  0  0  0  0
    4.2113   -1.9081   -3.2088 O   0  0  0  0  0  0  0  0  0  0  0  0
    3.7583   -0.8094   -2.5518 C   0  0  0  0  0  0  0  0  0  0  0  0
    3.4703    0.3686   -3.3924 C   0  0  0  0  0  0  0  0  0  0  0  0
    0.4810   -0.3362    2.0554 C   0  0  0  0  0  0  0  0  0  0  0  0
   -3.8781   -1.5811    2.9252 H   0  0  0  0  0  0  0  0  0  0  0  0
   -5.4951   -0.9202    2.6510 H   0  0  0  0  0  0  0  0  0  0  0  0
   -4.3056   -0.9408    1.3396 H   0  0  0  0  0  0  0  0  0  0  0  0
   -4.1025    0.7106    3.9238 H   0  0  0  0  0  0  0  0  0  0  0  0
   -4.5980    1.3468    2.3551 H   0  0  0  0  0  0  0  0  0  0  0  0
   -1.4027    2.5568    2.0717 H   0  0  0  0  0  0  0  0  0  0  0  0
   -3.0893    2.6650    1.5920 H   0  0  0  0  0  0  0  0  0  0  0  0
   -0.0173    0.5327   -4.0629 H   0  0  0  0  0  0  0  0  0  0  0  0
   -1.7204   -0.6534   -5.4246 H   0  0  0  0  0  0  0  0  0  0  0  0
   -4.5123   -0.4374   -2.1587 H   0  0  0  0  0  0  0  0  0  0  0  0
   -3.7004    0.5718   -0.0418 H   0  0  0  0  0  0  0  0  0  0  0  0
   -0.0196    1.9850    4.5100 H   0  0  0  0  0  0  0  0  0  0  0  0
    2.3797    2.4272    4.0245 H   0  0  0  0  0  0  0  0  0  0  0  0
    3.5543    1.1208    2.3073 H   0  0  0  0  0  0  0  0  0  0  0  0
    2.7277    0.6952   -0.4990 H   0  0  0  0  0  0  0  0  0  0  0  0
    4.1599    0.1611    0.4174 H   0  0  0  0  0  0  0  0  0  0  0  0
    4.9594   -4.1089   -0.0618 H   0  0  0  0  0  0  0  0  0  0  0  0
    4.6673   -2.6845    0.9444 H   0  0  0  0  0  0  0  0  0  0  0  0
    3.3032   -3.6825    0.3993 H   0  0  0  0  0  0  0  0  0  0  0  0
    4.2382    0.4904   -4.1616 H   0  0  0  0  0  0  0  0  0  0  0  0
    2.5024    0.2504   -3.8872 H   0  0  0  0  0  0  0  0  0  0  0  0
    3.4445    1.2869   -2.7982 H   0  0  0  0  0  0  0  0  0  0  0  0
   -0.0448   -1.1235    1.5217 H   0  0  0  0  0  0  0  0  0  0  0  0
  1  2  1  0
  2  3  1  0
  3  4  1  0
  4  5  1  0
  5  6  2  0
  6  7  1  0
  7  8  2  0
  7  9  1  0
  9 10  2  0
 10 11  1  0
 11 12  2  0
 12 13  1  0
 12 14  1  0
 14 15  2  0
 15 16  1  0
  3 17  1  0
 17 18  2  0
 17 19  1  0
 19 20  2  0
 20 21  1  0
 21 22  2  0
 22 23  1  0
 23 24  1  0
 24 25  1  0
 25 26  1  0
 26 27  1  0
 27 28  1  0
 27 29  2  0
 29 30  1  0
 30 31  1  0
 31 32  1  0
 23 33  2  0
 16  5  1  0
 33 19  1  0
 15  9  1  0
 31 26  2  0
  1 34  1  0
  1 35  1  0
  1 36  1  0
  2 37  1  0
  2 38  1  0
  4 39  1  0
  4 40  1  0
 10 41  1  0
 11 42  1  0
 14 43  1  0
 16 44  1  0
 20 45  1  0
 21 46  1  0
 22 47  1  0
 25 48  1  0
 25 49  1  0
 28 50  1  0
 28 51  1  0
 28 52  1  0
 32 53  1  0
 32 54  1  0
 32 55  1  0
 33 56  1  0
M  END
$$$$
