
     RDKit          3D

 35 36  0  0  0  0  0  0  0  0999 V2000
   -4.7066   -2.8950   -1.7548 N   0  0  0  0  0  0  0  0  0  0  0  0
   -4.1037   -1.7218   -1.3922 C   0  0  0  0  0  0  0  0  0  0  0  0
   -4.3776   -1.1337   -0.0649 C   0  0  0  0  0  0  0  0  0  0  0  0
   -3.7704    0.0234    0.1969 C   0  0  0  0  0  0  0  0  0  0  0  0
   -2.9421    0.6105   -0.7319 N   0  0  0  0  0  0  0  0  0  0  0  0
   -2.2988    1.8898   -0.4246 C   0  0  0  0  0  0  0  0  0  0  0  0
   -0.8893    1.7341    0.1548 C   0  0  0  0  0  0  0  0  0  0  0  0
   -0.5300    2.3593    1.1517 O   0  0  0  0  0  0  0  0  0  0  0  0
   -0.0327    0.9393   -0.5740 N   0  0  0  0  0  0  0  0  0  0  0  0
    1.3704    0.7965   -0.2318 C   0  0  0  0  0  0  0  0  0  0  0  0
    1.5860   -0.0484    1.0238 C   0  0  0  0  0  0  0  0  0  0  0  0
    3.0524   -0.1846    1.3390 C   0  0  0  0  0  0  0  0  0  0  0  0
    3.7251    0.8240    2.0272 C   0  0  0  0  0  0  0  0  0  0  0  0
    5.0857    0.6724    2.2786 C   0  0  0  0  0  0  0  0  0  0  0  0
    5.7345   -0.4768    1.8435 C   0  0  0  0  0  0  0  0  0  0  0  0
    4.9915   -1.4326    1.1716 C   0  0  0  0  0  0  0  0  0  0  0  0
    3.6733   -1.3079    0.9035 N   0  0  0  0  0  0  0  0  0  0  0  0
   -2.6758    0.0019   -1.9597 C   0  0  0  0  0  0  0  0  0  0  0  0
   -1.8636    0.5058   -2.7364 O   0  0  0  0  0  0  0  0  0  0  0  0
   -3.3134   -1.1763   -2.2619 N   0  0  0  0  0  0  0  0  0  0  0  0
   -5.6464   -3.0511   -1.4121 H   0  0  0  0  0  0  0  0  0  0  0  0
   -4.6145   -3.0750   -2.7508 H   0  0  0  0  0  0  0  0  0  0  0  0
   -5.0280   -1.6398    0.6347 H   0  0  0  0  0  0  0  0  0  0  0  0
   -3.9057    0.5301    1.1489 H   0  0  0  0  0  0  0  0  0  0  0  0
   -2.2270    2.5013   -1.3328 H   0  0  0  0  0  0  0  0  0  0  0  0
   -2.9155    2.4424    0.2947 H   0  0  0  0  0  0  0  0  0  0  0  0
   -0.3275    0.6573   -1.5112 H   0  0  0  0  0  0  0  0  0  0  0  0
    1.8648    0.3354   -1.0952 H   0  0  0  0  0  0  0  0  0  0  0  0
    1.7909    1.8025   -0.1049 H   0  0  0  0  0  0  0  0  0  0  0  0
    1.1513   -1.0466    0.8764 H   0  0  0  0  0  0  0  0  0  0  0  0
    1.0660    0.3828    1.8890 H   0  0  0  0  0  0  0  0  0  0  0  0
    3.2005    1.7158    2.3597 H   0  0  0  0  0  0  0  0  0  0  0  0
    5.6345    1.4473    2.8062 H   0  0  0  0  0  0  0  0  0  0  0  0
    6.7922   -0.6275    2.0277 H   0  0  0  0  0  0  0  0  0  0  0  0
    5.4497   -2.3549    0.8228 H   0  0  0  0  0  0  0  0  0  0  0  0
  1  2  1  0
  2  3  1  0
  3  4  2  0
  4  5  1  0
  5  6  1  0
  6  7  1  0
  7  8  2  0
  7  9  1  0
  9 10  1  0
 10 11  1  0
 11 12  1  0
 12 13  2  0
 13 14  1  0
 14 15  2  0
 15 16  1  0
 16 17  2  0
  5 18  1  0
 18 19  2  0
 18 20  1  0
 20  2  2  0
 17 12  1  0
  1 21  1  0
  1 22  1  0
  3 23  1  0
  4 24  1  0
  6 25  1  0
  6 26  1  0
  9 27  1  0
 10 28  1  0
 10 29  1  0
 11 30  1  0
 11 31  1  0
 13 32  1  0
 14 33  1  0
 15 34  1  0
 16 35  1  0
M  END
$$$$
