
     RDKit          3D

 37 39  0  0  0  0  0  0  0  0999 V2000
    0.6756    0.0288    2.0704 O   0  0  0  0  0  0  0  0  0  0  0  0
    0.8878   -0.1229    0.8735 C   0  0  0  0  0  0  0  0  0  0  0  0
    2.2362    0.0125    0.2571 C   0  0  0  0  0  0  0  0  0  0  0  0
    3.3045    0.3718    0.9825 C   0  0  0  0  0  0  0  0  0  0  0  0
    4.6709    0.5444    0.4785 C   0  0  0  0  0  0  0  0  0  0  0  0
    5.2570    1.8157    0.5111 C   0  0  0  0  0  0  0  0  0  0  0  0
    6.5614    2.0042    0.0485 C   0  0  0  0  0  0  0  0  0  0  0  0
    7.2906    0.9221   -0.4434 C   0  0  0  0  0  0  0  0  0  0  0  0
    6.7120   -0.3455   -0.4661 C   0  0  0  0  0  0  0  0  0  0  0  0
    7.7025   -1.8149   -1.1257 Br  0  0  0  0  0  0  0  0  0  0  0  0
    5.4100   -0.5418   -0.0047 C   0  0  0  0  0  0  0  0  0  0  0  0
    2.1681   -0.3297   -1.4269 S   0  0  0  0  0  0  0  0  0  0  0  0
    0.4485   -0.7155   -1.3810 C   0  0  0  0  0  0  0  0  0  0  0  0
   -0.3536   -1.3308   -2.7124 S   0  0  0  0  0  0  0  0  0  0  0  0
   -0.0437   -0.4401   -0.1108 N   0  0  0  0  0  0  0  0  0  0  0  0
   -1.3316   -0.7274    0.3054 N   0  0  0  0  0  0  0  0  0  0  0  0
   -2.2834   -0.0943   -0.3070 C   0  0  0  0  0  0  0  0  0  0  0  0
   -3.7024   -0.3332    0.0294 C   0  0  0  0  0  0  0  0  0  0  0  0
   -4.6728    0.3251   -0.7345 C   0  0  0  0  0  0  0  0  0  0  0  0
   -6.0307    0.1175   -0.4463 C   0  0  0  0  0  0  0  0  0  0  0  0
   -7.0536    0.8073   -1.2434 N   0  0  0  0  0  4  0  0  0  0  0  0
   -8.2419    0.5663   -0.9920 O   0  0  0  0  0  0  0  0  0  0  0  0
   -6.6626    1.5920   -2.1191 O   0  0  0  0  0  1  0  0  0  0  0  0
   -6.4216   -0.7378    0.5925 C   0  0  0  0  0  0  0  0  0  0  0  0
   -5.4455   -1.3879    1.3494 C   0  0  0  0  0  0  0  0  0  0  0  0
   -4.0941   -1.1857    1.0704 C   0  0  0  0  0  0  0  0  0  0  0  0
   -3.2103   -1.8558    1.8688 O   0  0  0  0  0  0  0  0  0  0  0  0
    3.1877    0.5824    2.0454 H   0  0  0  0  0  0  0  0  0  0  0  0
    4.7023    2.6706    0.8926 H   0  0  0  0  0  0  0  0  0  0  0  0
    7.0088    2.9949    0.0723 H   0  0  0  0  0  0  0  0  0  0  0  0
    8.3049    1.0761   -0.8021 H   0  0  0  0  0  0  0  0  0  0  0  0
    4.9753   -1.5381   -0.0201 H   0  0  0  0  0  0  0  0  0  0  0  0
   -2.0764    0.6596   -1.0888 H   0  0  0  0  0  0  0  0  0  0  0  0
   -4.3751    0.9861   -1.5460 H   0  0  0  0  0  0  0  0  0  0  0  0
   -7.4713   -0.9072    0.8256 H   0  0  0  0  0  0  0  0  0  0  0  0
   -5.7354   -2.0528    2.1605 H   0  0  0  0  0  0  0  0  0  0  0  0
   -2.2981   -1.6159    1.5973 H   0  0  0  0  0  0  0  0  0  0  0  0
  1  2  2  0
  2  3  1  0
  3  4  2  3
  4  5  1  0
  5  6  2  0
  6  7  1  0
  7  8  2  0
  8  9  1  0
  9 10  1  0
  9 11  2  0
  3 12  1  0
 12 13  1  0
 13 14  2  0
 13 15  1  0
 15 16  1  0
 16 17  2  3
 17 18  1  0
 18 19  2  0
 19 20  1  0
 20 21  1  0
 21 22  2  0
 21 23  1  0
 20 24  2  0
 24 25  1  0
 25 26  2  0
 26 27  1  0
 15  2  1  0
 26 18  1  0
 11  5  1  0
  4 28  1  0
  6 29  1  0
  7 30  1  0
  8 31  1  0
 11 32  1  0
 17 33  1  0
 19 34  1  0
 24 35  1  0
 25 36  1  0
 27 37  1  0
M  CHG  2  21   1  23  -1
M  END
$$$$
