
     RDKit          3D

 67 72  0  0  0  0  0  0  0  0999 V2000
   -2.6849    1.3701    2.3877 O   0  0  0  0  0  0  0  0  0  0  0  0
   -2.3304    0.7334    1.3937 C   0  0  0  0  0  0  0  0  0  0  0  0
   -3.2470    0.5714    0.1590 C   0  0  0  0  0  0  0  0  0  0  0  0
   -4.7124    0.8385    0.5451 C   0  0  0  0  0  0  0  0  0  0  0  0
   -5.6478    0.8402   -0.6443 C   0  0  0  0  0  0  0  0  0  0  0  0
   -6.4212   -0.2906   -0.9401 C   0  0  0  0  0  0  0  0  0  0  0  0
   -7.2621   -0.3004   -2.0534 C   0  0  0  0  0  0  0  0  0  0  0  0
   -7.3386    0.8181   -2.8805 C   0  0  0  0  0  0  0  0  0  0  0  0
   -6.5769    1.9492   -2.5927 C   0  0  0  0  0  0  0  0  0  0  0  0
   -5.7353    1.9621   -1.4796 C   0  0  0  0  0  0  0  0  0  0  0  0
   -3.1003   -0.7779   -0.3946 N   0  0  0  0  0  0  0  0  0  0  0  0
   -1.7670   -1.0571   -0.7196 C   0  0  0  0  0  0  0  0  0  0  0  0
   -1.5949   -1.8254   -1.8022 N   0  0  0  0  0  0  0  0  0  0  0  0
   -0.3325   -2.1409   -2.0909 C   0  0  0  0  0  0  0  0  0  0  0  0
    0.7561   -1.7212   -1.4361 N   0  0  0  0  0  0  0  0  0  0  0  0
    0.5681   -0.9205   -0.3642 C   0  0  0  0  0  0  0  0  0  0  0  0
    1.7236   -0.3275    0.1982 N   0  0  0  0  0  0  0  0  0  0  0  0
    2.9609   -1.1303    0.0182 C   0  0  0  0  0  0  0  0  0  0  0  0
    3.8365   -0.6535   -1.1622 C   0  0  0  0  0  0  0  0  0  0  0  0
    4.2118    0.7678   -1.0075 N   0  0  0  0  0  0  0  0  0  0  0  0
    5.4282    1.2467   -1.4651 C   0  0  0  0  0  0  0  0  0  0  0  0
    6.0265    2.3982   -0.9272 C   0  0  0  0  0  0  0  0  0  0  0  0
    7.2545    2.8856   -1.3929 C   0  0  0  0  0  0  0  0  0  0  0  0
    7.9201    2.2298   -2.4204 C   0  0  0  0  0  0  0  0  0  0  0  0
    7.3536    1.0916   -2.9804 C   0  0  0  0  0  0  0  0  0  0  0  0
    6.1259    0.6119   -2.5060 C   0  0  0  0  0  0  0  0  0  0  0  0
    3.3005    1.5986   -0.2023 C   0  0  0  0  0  0  0  0  0  0  0  0
    1.8493    1.0748   -0.2924 C   0  0  0  0  0  0  0  0  0  0  0  0
   -0.7199   -0.5880    0.0843 C   0  0  0  0  0  0  0  0  0  0  0  0
   -1.0423    0.1907    1.2559 N   0  0  0  0  0  0  0  0  0  0  0  0
   -0.2109    0.1236    2.4571 C   0  0  0  0  0  0  0  0  0  0  0  0
   -0.4462   -1.1460    3.2510 C   0  0  0  0  0  0  0  0  0  0  0  0
    0.3315   -2.2909    3.0218 C   0  0  0  0  0  0  0  0  0  0  0  0
    0.0898   -3.4676    3.7320 C   0  0  0  0  0  0  0  0  0  0  0  0
   -0.9279   -3.5114    4.6839 C   0  0  0  0  0  0  0  0  0  0  0  0
   -1.7078   -2.3814    4.9217 C   0  0  0  0  0  0  0  0  0  0  0  0
   -1.4722   -1.2068    4.2055 C   0  0  0  0  0  0  0  0  0  0  0  0
   -2.9262    1.3169   -0.5823 H   0  0  0  0  0  0  0  0  0  0  0  0
   -5.0526    0.0977    1.2805 H   0  0  0  0  0  0  0  0  0  0  0  0
   -4.8018    1.8113    1.0455 H   0  0  0  0  0  0  0  0  0  0  0  0
   -6.3688   -1.1730   -0.3053 H   0  0  0  0  0  0  0  0  0  0  0  0
   -7.8574   -1.1822   -2.2745 H   0  0  0  0  0  0  0  0  0  0  0  0
   -7.9943    0.8099   -3.7475 H   0  0  0  0  0  0  0  0  0  0  0  0
   -6.6398    2.8236   -3.2350 H   0  0  0  0  0  0  0  0  0  0  0  0
   -5.1514    2.8552   -1.2674 H   0  0  0  0  0  0  0  0  0  0  0  0
   -3.6766   -0.9977   -1.2039 H   0  0  0  0  0  0  0  0  0  0  0  0
   -0.1716   -2.7901   -2.9440 H   0  0  0  0  0  0  0  0  0  0  0  0
    2.7526   -2.2045   -0.0645 H   0  0  0  0  0  0  0  0  0  0  0  0
    3.5426   -1.0209    0.9428 H   0  0  0  0  0  0  0  0  0  0  0  0
    3.3043   -0.7810   -2.1115 H   0  0  0  0  0  0  0  0  0  0  0  0
    4.7271   -1.2928   -1.1819 H   0  0  0  0  0  0  0  0  0  0  0  0
    5.5558    2.9357   -0.1090 H   0  0  0  0  0  0  0  0  0  0  0  0
    7.6875    3.7760   -0.9443 H   0  0  0  0  0  0  0  0  0  0  0  0
    8.8725    2.6053   -2.7837 H   0  0  0  0  0  0  0  0  0  0  0  0
    7.8579    0.5747   -3.7920 H   0  0  0  0  0  0  0  0  0  0  0  0
    5.7083   -0.2653   -2.9932 H   0  0  0  0  0  0  0  0  0  0  0  0
    3.6323    1.5996    0.8427 H   0  0  0  0  0  0  0  0  0  0  0  0
    3.2993    2.6336   -0.5647 H   0  0  0  0  0  0  0  0  0  0  0  0
    1.2029    1.7310    0.3014 H   0  0  0  0  0  0  0  0  0  0  0  0
    1.5257    1.1502   -1.3407 H   0  0  0  0  0  0  0  0  0  0  0  0
   -0.4462    0.9799    3.1029 H   0  0  0  0  0  0  0  0  0  0  0  0
    0.8506    0.2460    2.2461 H   0  0  0  0  0  0  0  0  0  0  0  0
    1.1284   -2.2764    2.2822 H   0  0  0  0  0  0  0  0  0  0  0  0
    0.6941   -4.3511    3.5411 H   0  0  0  0  0  0  0  0  0  0  0  0
   -1.1153   -4.4274    5.2380 H   0  0  0  0  0  0  0  0  0  0  0  0
   -2.5015   -2.4144    5.6648 H   0  0  0  0  0  0  0  0  0  0  0  0
   -2.0963   -0.3347    4.3972 H   0  0  0  0  0  0  0  0  0  0  0  0
  1  2  2  0
  2  3  1  0
  3  4  1  0
  4  5  1  0
  5  6  2  0
  6  7  1  0
  7  8  2  0
  8  9  1  0
  9 10  2  0
  3 11  1  0
 11 12  1  0
 12 13  2  0
 13 14  1  0
 14 15  2  0
 15 16  1  0
 16 17  1  0
 17 18  1  0
 18 19  1  0
 19 20  1  0
 20 21  1  0
 21 22  2  0
 22 23  1  0
 23 24  2  0
 24 25  1  0
 25 26  2  0
 20 27  1  0
 27 28  1  0
 16 29  2  0
 29 30  1  0
 30 31  1  0
 31 32  1  0
 32 33  2  0
 33 34  1  0
 34 35  2  0
 35 36  1  0
 36 37  2  0
 30  2  1  0
 37 32  1  0
 10  5  1  0
 29 12  1  0
 28 17  1  0
 26 21  1  0
  3 38  1  0
  4 39  1  0
  4 40  1  0
  6 41  1  0
  7 42  1  0
  8 43  1  0
  9 44  1  0
 10 45  1  0
 11 46  1  0
 14 47  1  0
 18 48  1  0
 18 49  1  0
 19 50  1  0
 19 51  1  0
 22 52  1  0
 23 53  1  0
 24 54  1  0
 25 55  1  0
 26 56  1  0
 27 57  1  0
 27 58  1  0
 28 59  1  0
 28 60  1  0
 31 61  1  0
 31 62  1  0
 33 63  1  0
 34 64  1  0
 35 65  1  0
 36 66  1  0
 37 67  1  0
M  END
$$$$
