
     RDKit          3D

 65 69  0  0  0  0  0  0  0  0999 V2000
   -4.9021    5.1855    1.0338 C   0  0  0  0  0  0  0  0  0  0  0  0
   -3.8973    4.1441    1.4929 C   0  0  0  0  0  0  0  0  0  0  0  0
   -3.6710    3.2455    0.4081 O   0  0  0  0  0  0  0  0  0  0  0  0
   -2.7950    2.2183    0.6198 C   0  0  0  0  0  0  0  0  0  0  0  0
   -2.6505    1.3459   -0.4600 C   0  0  0  0  0  0  0  0  0  0  0  0
   -1.7900    0.2490   -0.3822 C   0  0  0  0  0  0  0  0  0  0  0  0
   -1.0580    0.0019    0.7877 C   0  0  0  0  0  0  0  0  0  0  0  0
   -0.1142   -1.1803    0.9024 C   0  0  0  0  0  0  0  0  0  0  0  0
    1.1441   -0.9858    0.0320 C   0  0  0  0  0  0  0  0  0  0  0  0
    2.2461   -0.2845    0.7856 C   0  0  0  0  0  0  0  0  0  0  0  0
    2.2709   -0.2703    2.0168 O   0  0  0  0  0  0  0  0  0  0  0  0
    3.3247    0.4293    0.0330 C   0  0  0  0  0  0  0  0  0  0  0  0
    3.5244    0.2616   -1.3528 C   0  0  0  0  0  0  0  0  0  0  0  0
    4.5335    0.9678   -2.0184 C   0  0  0  0  0  0  0  0  0  0  0  0
    5.3297    1.8182   -1.2805 C   0  0  0  0  0  0  0  0  0  0  0  0
    5.1534    1.9858    0.0799 C   0  0  0  0  0  0  0  0  0  0  0  0
    4.1546    1.3047    0.7557 C   0  0  0  0  0  0  0  0  0  0  0  0
    6.1185    2.9882    0.5852 C   0  0  0  0  0  0  0  0  0  0  0  0
    7.0289    3.1199   -0.6478 C   0  0  0  0  0  0  0  0  0  0  0  0
    8.3602    2.3922   -0.4793 C   0  0  0  0  0  0  0  0  0  0  0  0
    6.3469    2.5679   -1.8045 O   0  0  0  0  0  0  0  0  0  0  0  0
    1.4605   -2.4018   -0.3114 C   0  0  0  0  0  0  0  0  0  0  0  0
    2.5005   -2.8186   -0.7856 O   0  0  0  0  0  0  0  0  0  0  0  0
    0.2387   -3.2706   -0.0458 C   0  0  0  0  0  0  0  0  0  0  0  0
    0.1833   -4.4606   -0.2659 O   0  0  0  0  0  0  0  0  0  0  0  0
   -0.7351   -2.4374    0.4868 N   0  0  0  0  0  0  0  0  0  0  0  0
   -1.8340   -3.0074    1.2624 C   0  0  0  0  0  0  0  0  0  0  0  0
   -2.8101   -3.8564    0.4470 C   0  0  0  0  0  0  0  0  0  0  0  0
   -3.4786   -3.0584   -0.6687 C   0  0  0  0  0  0  0  0  0  0  0  0
   -4.5193   -3.8164   -1.3337 N   0  0  0  0  0  0  0  0  0  0  0  0
   -4.3387   -4.7417   -2.3225 C   0  0  0  0  0  0  0  0  0  0  0  0
   -5.6066   -5.1699   -2.6393 C   0  0  0  0  0  0  0  0  0  0  0  0
   -6.5446   -4.5233   -1.8754 N   0  0  0  0  0  0  0  0  0  0  0  0
   -5.8602   -3.7119   -1.1007 C   0  0  0  0  0  0  0  0  0  0  0  0
   -1.1970    0.8905    1.8637 C   0  0  0  0  0  0  0  0  0  0  0  0
   -2.0610    1.9888    1.7816 C   0  0  0  0  0  0  0  0  0  0  0  0
   -5.8346    4.7066    0.7148 H   0  0  0  0  0  0  0  0  0  0  0  0
   -4.5160    5.7371    0.1692 H   0  0  0  0  0  0  0  0  0  0  0  0
   -5.1232    5.8963    1.8355 H   0  0  0  0  0  0  0  0  0  0  0  0
   -2.9641    4.6473    1.7742 H   0  0  0  0  0  0  0  0  0  0  0  0
   -4.3082    3.6046    2.3540 H   0  0  0  0  0  0  0  0  0  0  0  0
   -3.2179    1.5234   -1.3711 H   0  0  0  0  0  0  0  0  0  0  0  0
   -1.7052   -0.4081   -1.2445 H   0  0  0  0  0  0  0  0  0  0  0  0
    0.1532   -1.3318    1.9574 H   0  0  0  0  0  0  0  0  0  0  0  0
    0.8981   -0.4510   -0.8915 H   0  0  0  0  0  0  0  0  0  0  0  0
    2.9250   -0.4277   -1.9405 H   0  0  0  0  0  0  0  0  0  0  0  0
    4.6970    0.8427   -3.0835 H   0  0  0  0  0  0  0  0  0  0  0  0
    4.0174    1.4538    1.8237 H   0  0  0  0  0  0  0  0  0  0  0  0
    6.6542    2.6637    1.4819 H   0  0  0  0  0  0  0  0  0  0  0  0
    5.6017    3.9328    0.7880 H   0  0  0  0  0  0  0  0  0  0  0  0
    7.2331    4.1781   -0.8496 H   0  0  0  0  0  0  0  0  0  0  0  0
    8.9599    2.4812   -1.3913 H   0  0  0  0  0  0  0  0  0  0  0  0
    8.9322    2.8058    0.3565 H   0  0  0  0  0  0  0  0  0  0  0  0
    8.2098    1.3210   -0.3055 H   0  0  0  0  0  0  0  0  0  0  0  0
   -1.3958   -3.6197    2.0604 H   0  0  0  0  0  0  0  0  0  0  0  0
   -2.3897   -2.1924    1.7389 H   0  0  0  0  0  0  0  0  0  0  0  0
   -3.5777   -4.2477    1.1273 H   0  0  0  0  0  0  0  0  0  0  0  0
   -2.3050   -4.7321    0.0245 H   0  0  0  0  0  0  0  0  0  0  0  0
   -3.9383   -2.1448   -0.2754 H   0  0  0  0  0  0  0  0  0  0  0  0
   -2.7545   -2.7660   -1.4370 H   0  0  0  0  0  0  0  0  0  0  0  0
   -3.3636   -5.0168   -2.7010 H   0  0  0  0  0  0  0  0  0  0  0  0
   -5.8934   -5.9086   -3.3765 H   0  0  0  0  0  0  0  0  0  0  0  0
   -6.2833   -3.0392   -0.3658 H   0  0  0  0  0  0  0  0  0  0  0  0
   -0.6306    0.7380    2.7825 H   0  0  0  0  0  0  0  0  0  0  0  0
   -2.1363    2.6436    2.6442 H   0  0  0  0  0  0  0  0  0  0  0  0
  1  2  1  0
  2  3  1  0
  3  4  1  0
  4  5  2  0
  5  6  1  0
  6  7  2  0
  7  8  1  0
  8  9  1  0
  9 10  1  0
 10 11  2  0
 10 12  1  0
 12 13  2  0
 13 14  1  0
 14 15  2  0
 15 16  1  0
 16 17  2  0
 16 18  1  0
 18 19  1  0
 19 20  1  0
 19 21  1  0
  9 22  1  0
 22 23  2  0
 22 24  1  0
 24 25  2  0
 24 26  1  0
 26 27  1  0
 27 28  1  0
 28 29  1  0
 29 30  1  0
 30 31  1  0
 31 32  2  0
 32 33  1  0
 33 34  2  0
  7 35  1  0
 35 36  2  0
 36  4  1  0
 26  8  1  0
 34 30  1  0
 17 12  1  0
 21 15  1  0
  1 37  1  0
  1 38  1  0
  1 39  1  0
  2 40  1  0
  2 41  1  0
  5 42  1  0
  6 43  1  0
  8 44  1  0
  9 45  1  0
 13 46  1  0
 14 47  1  0
 17 48  1  0
 18 49  1  0
 18 50  1  0
 19 51  1  0
 20 52  1  0
 20 53  1  0
 20 54  1  0
 27 55  1  0
 27 56  1  0
 28 57  1  0
 28 58  1  0
 29 59  1  0
 29 60  1  0
 31 61  1  0
 32 62  1  0
 34 63  1  0
 35 64  1  0
 36 65  1  0
M  END
$$$$
