
     RDKit          3D

 48 50  0  0  0  0  0  0  0  0999 V2000
   -3.5763    4.5074    1.0509 C   0  0  0  0  0  0  0  0  0  0  0  0
   -4.5811    3.4705    0.5884 C   0  0  0  0  0  0  0  0  0  0  0  0
   -4.0680    2.1507    0.8290 O   0  0  0  0  0  0  0  0  0  0  0  0
   -4.3165    1.6244    2.0486 C   0  0  0  0  0  0  0  0  0  0  0  0
   -4.9660    2.1361    2.9447 O   0  0  0  0  0  0  0  0  0  0  0  0
   -3.7664    0.2691    2.1404 C   0  0  0  0  0  0  0  0  0  0  0  0
   -4.4471   -0.6805    2.8639 C   0  0  0  0  0  0  0  0  0  0  0  0
   -4.0343   -1.9604    2.9877 N   0  0  0  0  0  0  0  0  0  0  0  0
   -2.8831   -2.2888    2.3774 C   0  0  0  0  0  0  0  0  0  0  0  0
   -2.3652   -3.9783    2.5185 S   0  0  0  0  0  0  0  0  0  0  0  0
   -0.6200   -3.8149    2.0533 C   0  0  0  0  0  0  0  0  0  0  0  0
   -2.1293   -1.4322    1.6753 N   0  0  0  0  0  0  0  0  0  0  0  0
   -2.5969   -0.1671    1.5590 C   0  0  0  0  0  0  0  0  0  0  0  0
   -1.7810    0.7520    0.9158 O   0  0  0  0  0  0  0  0  0  0  0  0
   -1.1850    0.3034   -0.2395 C   0  0  0  0  0  0  0  0  0  0  0  0
   -1.9471    0.0144   -1.3699 C   0  0  0  0  0  0  0  0  0  0  0  0
   -1.3056   -0.3884   -2.5382 C   0  0  0  0  0  0  0  0  0  0  0  0
    0.0904   -0.4895   -2.5764 C   0  0  0  0  0  0  0  0  0  0  0  0
    0.8602   -0.1893   -1.4481 C   0  0  0  0  0  0  0  0  0  0  0  0
    2.2713   -0.2650   -1.4125 N   0  0  0  0  0  0  0  0  0  0  0  0
    3.1079   -0.7244   -2.4148 C   0  0  0  0  0  0  0  0  0  0  0  0
    2.7736   -1.2054   -3.4901 O   0  0  0  0  0  0  0  0  0  0  0  0
    4.5660   -0.6523   -2.1072 C   0  0  0  0  0  0  0  0  0  0  0  0
    5.1123    0.3618   -1.3066 C   0  0  0  0  0  0  0  0  0  0  0  0
    6.4886    0.3876   -1.0524 C   0  0  0  0  0  0  0  0  0  0  0  0
    7.3182   -0.5868   -1.6062 C   0  0  0  0  0  0  0  0  0  0  0  0
    9.0099   -0.5488   -1.2910 Cl  0  0  0  0  0  0  0  0  0  0  0  0
    6.7866   -1.5860   -2.4199 C   0  0  0  0  0  0  0  0  0  0  0  0
    5.4119   -1.6160   -2.6732 C   0  0  0  0  0  0  0  0  0  0  0  0
    0.2104    0.2238   -0.2779 C   0  0  0  0  0  0  0  0  0  0  0  0
   -3.4405    4.4610    2.1378 H   0  0  0  0  0  0  0  0  0  0  0  0
   -2.5947    4.3234    0.5981 H   0  0  0  0  0  0  0  0  0  0  0  0
   -3.9119    5.5134    0.7866 H   0  0  0  0  0  0  0  0  0  0  0  0
   -5.5527    3.6158    1.0686 H   0  0  0  0  0  0  0  0  0  0  0  0
   -4.7367    3.5620   -0.4893 H   0  0  0  0  0  0  0  0  0  0  0  0
   -5.3764   -0.4445    3.3802 H   0  0  0  0  0  0  0  0  0  0  0  0
   -0.5202   -3.5026    1.0095 H   0  0  0  0  0  0  0  0  0  0  0  0
   -0.1109   -3.0979    2.7055 H   0  0  0  0  0  0  0  0  0  0  0  0
   -0.1291   -4.7853    2.1673 H   0  0  0  0  0  0  0  0  0  0  0  0
   -3.0288    0.1102   -1.3522 H   0  0  0  0  0  0  0  0  0  0  0  0
   -1.8868   -0.6213   -3.4276 H   0  0  0  0  0  0  0  0  0  0  0  0
    0.5467   -0.8007   -3.5120 H   0  0  0  0  0  0  0  0  0  0  0  0
    2.6953   -0.0375   -0.5230 H   0  0  0  0  0  0  0  0  0  0  0  0
    4.4920    1.1543   -0.8995 H   0  0  0  0  0  0  0  0  0  0  0  0
    6.9110    1.1757   -0.4323 H   0  0  0  0  0  0  0  0  0  0  0  0
    7.4326   -2.3393   -2.8636 H   0  0  0  0  0  0  0  0  0  0  0  0
    5.0002   -2.3935   -3.3162 H   0  0  0  0  0  0  0  0  0  0  0  0
    0.7723    0.4795    0.6147 H   0  0  0  0  0  0  0  0  0  0  0  0
  1  2  1  0
  2  3  1  0
  3  4  1  0
  4  5  2  0
  4  6  1  0
  6  7  2  0
  7  8  1  0
  8  9  2  0
  9 10  1  0
 10 11  1  0
  9 12  1  0
 12 13  2  0
 13 14  1  0
 14 15  1  0
 15 16  2  0
 16 17  1  0
 17 18  2  0
 18 19  1  0
 19 20  1  0
 20 21  1  0
 21 22  2  0
 21 23  1  0
 23 24  2  0
 24 25  1  0
 25 26  2  0
 26 27  1  0
 26 28  1  0
 28 29  2  0
 19 30  2  0
 13  6  1  0
 30 15  1  0
 29 23  1  0
  1 31  1  0
  1 32  1  0
  1 33  1  0
  2 34  1  0
  2 35  1  0
  7 36  1  0
 11 37  1  0
 11 38  1  0
 11 39  1  0
 16 40  1  0
 17 41  1  0
 18 42  1  0
 20 43  1  0
 24 44  1  0
 25 45  1  0
 28 46  1  0
 29 47  1  0
 30 48  1  0
M  END
$$$$
