
     RDKit          3D

 76 78  0  0  0  0  0  0  0  0999 V2000
    8.6799    0.2314    1.5961 C   0  0  0  0  0  0  0  0  0  0  0  0
    7.4244    0.4911    2.4143 C   0  0  0  0  0  0  0  0  0  0  0  0
    6.2570    0.9148    1.5249 C   0  0  0  0  0  0  0  0  0  0  0  0
    4.9912    1.1763    2.3468 C   0  0  0  0  0  0  0  0  0  0  0  0
    3.8791    1.6267    1.4988 N   0  0  0  0  0  0  0  0  0  0  0  0
    3.0994    0.7030    0.8027 C   0  0  0  0  0  0  0  0  0  0  0  0
    3.1872   -0.6578    1.0999 N   0  0  0  0  0  0  0  0  0  0  0  0
    2.2226    1.1334   -0.1402 C   0  0  0  0  0  0  0  0  0  0  0  0
    1.5088    0.2578   -0.9697 N   0  0  0  0  0  0  0  0  0  0  0  0
    2.2905   -0.5421   -1.9378 C   0  0  0  0  0  0  0  0  0  0  0  0
    2.8898    0.2868   -3.0956 C   0  0  0  0  0  0  0  0  0  0  0  0
    1.8173    0.8430   -4.0323 C   0  0  0  0  0  0  0  0  0  0  0  0
    3.8710   -0.5749   -3.8936 C   0  0  0  0  0  0  0  0  0  0  0  0
    0.1175    0.3028   -1.1407 C   0  0  0  0  0  0  0  0  0  0  0  0
   -0.4482   -0.3297   -2.0403 O   0  0  0  0  0  0  0  0  0  0  0  0
   -0.7121    1.0405   -0.0793 C   0  0  0  0  0  0  0  0  0  0  0  0
   -1.7054    0.1062    0.4031 N   0  0  0  0  0  0  0  0  0  0  0  0
   -1.4093   -0.9383    1.2174 C   0  0  0  0  0  0  0  0  0  0  0  0
   -0.3203   -1.2089    1.6998 O   0  0  0  0  0  0  0  0  0  0  0  0
   -2.5476   -1.6815    1.3996 N   0  0  0  0  0  0  0  0  0  0  0  0
   -3.6953   -1.1599    0.6664 C   0  0  0  0  0  0  0  0  0  0  0  0
   -4.1708   -2.1785   -0.3810 C   0  0  0  0  0  0  0  0  0  0  0  0
   -5.6996   -2.2716   -0.5143 C   0  0  0  0  0  0  0  0  0  0  0  0
   -6.0816   -2.9063   -1.8523 C   0  0  0  0  0  0  0  0  0  0  0  0
   -6.3472   -0.8930   -0.3573 C   0  0  0  0  0  0  0  0  0  0  0  0
   -6.1441   -0.3151    1.0624 C   0  0  0  0  0  0  0  0  0  0  0  0
   -6.2917    1.2191    1.0133 C   0  0  0  0  0  0  0  0  0  0  0  0
   -7.2602   -0.8402    1.9957 C   0  0  0  0  0  0  0  0  0  0  0  0
   -4.7705   -0.7147    1.6683 C   0  0  0  0  0  0  0  0  0  0  0  0
   -3.0029    0.0459   -0.0162 C   0  0  0  0  0  0  0  0  0  0  0  0
   -3.5339    0.8217   -0.7985 O   0  0  0  0  0  0  0  0  0  0  0  0
    2.0353    2.6040   -0.3284 C   0  0  0  0  0  0  0  0  0  0  0  0
    1.2261    3.0643   -1.1285 O   0  0  0  0  0  0  0  0  0  0  0  0
    2.8043    3.4124    0.4430 N   0  0  0  0  0  0  0  0  0  0  0  0
    3.7823    2.9990    1.2940 C   0  0  0  0  0  0  0  0  0  0  0  0
    4.5106    3.8368    1.8229 O   0  0  0  0  0  0  0  0  0  0  0  0
    8.9886    1.1322    1.0560 H   0  0  0  0  0  0  0  0  0  0  0  0
    8.5156   -0.5681    0.8659 H   0  0  0  0  0  0  0  0  0  0  0  0
    9.5039   -0.0703    2.2509 H   0  0  0  0  0  0  0  0  0  0  0  0
    7.1611   -0.4177    2.9679 H   0  0  0  0  0  0  0  0  0  0  0  0
    7.6322    1.2739    3.1529 H   0  0  0  0  0  0  0  0  0  0  0  0
    6.5299    1.8190    0.9661 H   0  0  0  0  0  0  0  0  0  0  0  0
    6.0615    0.1349    0.7789 H   0  0  0  0  0  0  0  0  0  0  0  0
    5.2029    1.9479    3.0969 H   0  0  0  0  0  0  0  0  0  0  0  0
    4.7030    0.2891    2.9195 H   0  0  0  0  0  0  0  0  0  0  0  0
    3.2323   -0.8114    2.1047 H   0  0  0  0  0  0  0  0  0  0  0  0
    2.3612   -1.1553    0.7548 H   0  0  0  0  0  0  0  0  0  0  0  0
    1.6587   -1.3404   -2.3445 H   0  0  0  0  0  0  0  0  0  0  0  0
    3.0982   -1.0518   -1.4036 H   0  0  0  0  0  0  0  0  0  0  0  0
    3.4528    1.1338   -2.6831 H   0  0  0  0  0  0  0  0  0  0  0  0
    1.1513    1.5352   -3.5076 H   0  0  0  0  0  0  0  0  0  0  0  0
    2.2738    1.3970   -4.8600 H   0  0  0  0  0  0  0  0  0  0  0  0
    1.2088    0.0397   -4.4608 H   0  0  0  0  0  0  0  0  0  0  0  0
    3.3698   -1.4427   -4.3347 H   0  0  0  0  0  0  0  0  0  0  0  0
    4.3259    0.0027   -4.7055 H   0  0  0  0  0  0  0  0  0  0  0  0
    4.6793   -0.9399   -3.2511 H   0  0  0  0  0  0  0  0  0  0  0  0
   -0.1197    1.3532    0.7820 H   0  0  0  0  0  0  0  0  0  0  0  0
   -1.1935    1.9063   -0.5428 H   0  0  0  0  0  0  0  0  0  0  0  0
   -2.5404   -2.5254    1.9576 H   0  0  0  0  0  0  0  0  0  0  0  0
   -3.7980   -3.1828   -0.1346 H   0  0  0  0  0  0  0  0  0  0  0  0
   -3.7295   -1.9386   -1.3580 H   0  0  0  0  0  0  0  0  0  0  0  0
   -6.0740   -2.9319    0.2782 H   0  0  0  0  0  0  0  0  0  0  0  0
   -5.6187   -3.8928   -1.9600 H   0  0  0  0  0  0  0  0  0  0  0  0
   -7.1672   -3.0358   -1.9246 H   0  0  0  0  0  0  0  0  0  0  0  0
   -5.7574   -2.2859   -2.6951 H   0  0  0  0  0  0  0  0  0  0  0  0
   -7.4198   -0.9529   -0.5847 H   0  0  0  0  0  0  0  0  0  0  0  0
   -5.9254   -0.2156   -1.1105 H   0  0  0  0  0  0  0  0  0  0  0  0
   -7.2666    1.5106    0.6025 H   0  0  0  0  0  0  0  0  0  0  0  0
   -5.5239    1.6845    0.3900 H   0  0  0  0  0  0  0  0  0  0  0  0
   -6.2108    1.6577    2.0146 H   0  0  0  0  0  0  0  0  0  0  0  0
   -8.2524   -0.5443    1.6368 H   0  0  0  0  0  0  0  0  0  0  0  0
   -7.2478   -1.9330    2.0646 H   0  0  0  0  0  0  0  0  0  0  0  0
   -7.1434   -0.4435    3.0105 H   0  0  0  0  0  0  0  0  0  0  0  0
   -4.9227   -1.5513    2.3658 H   0  0  0  0  0  0  0  0  0  0  0  0
   -4.3878    0.1034    2.2941 H   0  0  0  0  0  0  0  0  0  0  0  0
    2.7347    4.4056    0.2868 H   0  0  0  0  0  0  0  0  0  0  0  0
  1  2  1  0
  2  3  1  0
  3  4  1  0
  4  5  1  0
  5  6  1  0
  6  7  1  0
  6  8  2  0
  8  9  1  0
  9 10  1  0
 10 11  1  0
 11 12  1  0
 11 13  1  0
  9 14  1  0
 14 15  2  0
 14 16  1  0
 16 17  1  0
 17 18  1  0
 18 19  2  0
 18 20  1  0
 20 21  1  0
 21 22  1  0
 22 23  1  0
 23 24  1  0
 23 25  1  0
 25 26  1  0
 26 27  1  0
 26 28  1  0
 26 29  1  0
 21 30  1  0
 30 31  2  0
  8 32  1  0
 32 33  2  0
 32 34  1  0
 34 35  1  0
 35 36  2  0
 35  5  1  0
 30 17  1  0
 29 21  1  0
  1 37  1  0
  1 38  1  0
  1 39  1  0
  2 40  1  0
  2 41  1  0
  3 42  1  0
  3 43  1  0
  4 44  1  0
  4 45  1  0
  7 46  1  0
  7 47  1  0
 10 48  1  0
 10 49  1  0
 11 50  1  0
 12 51  1  0
 12 52  1  0
 12 53  1  0
 13 54  1  0
 13 55  1  0
 13 56  1  0
 16 57  1  0
 16 58  1  0
 20 59  1  0
 22 60  1  0
 22 61  1  0
 23 62  1  0
 24 63  1  0
 24 64  1  0
 24 65  1  0
 25 66  1  0
 25 67  1  0
 27 68  1  0
 27 69  1  0
 27 70  1  0
 28 71  1  0
 28 72  1  0
 28 73  1  0
 29 74  1  0
 29 75  1  0
 34 76  1  0
M  END
$$$$
