
     RDKit          3D

 53 56  0  0  0  0  0  0  0  0999 V2000
   -4.8432    1.1407    4.3649 C   0  0  0  0  0  0  0  0  0  0  0  0
   -3.7078    1.2481    3.3576 C   0  0  0  0  0  0  0  0  0  0  0  0
   -3.6031    0.0337    2.4150 C   0  0  0  0  0  0  0  0  0  0  0  0
   -4.8673   -0.1242    1.5370 C   0  0  0  0  0  0  0  0  0  0  0  0
   -4.7559   -1.1828    0.4590 C   0  0  0  0  0  0  0  0  0  0  0  0
   -4.4388   -2.5100    0.7793 C   0  0  0  0  0  0  0  0  0  0  0  0
   -4.3285   -3.4748   -0.2236 C   0  0  0  0  0  0  0  0  0  0  0  0
   -4.5432   -3.1266   -1.5553 C   0  0  0  0  0  0  0  0  0  0  0  0
   -4.8725   -1.8140   -1.8855 C   0  0  0  0  0  0  0  0  0  0  0  0
   -4.9810   -0.8471   -0.8843 C   0  0  0  0  0  0  0  0  0  0  0  0
   -2.4077    0.1564    1.5804 N   0  0  0  0  0  0  0  0  0  0  0  0
   -1.1525   -0.1756    2.0379 C   0  0  0  0  0  0  0  0  0  0  0  0
   -0.9058   -0.5006    3.1927 O   0  0  0  0  0  0  0  0  0  0  0  0
   -0.0586   -0.1006    1.0345 C   0  0  0  0  0  0  0  0  0  0  0  0
   -0.2753   -0.4567   -0.2997 C   0  0  0  0  0  0  0  0  0  0  0  0
    0.7726   -0.3897   -1.2253 C   0  0  0  0  0  0  0  0  0  0  0  0
    2.0519    0.0333   -0.8091 C   0  0  0  0  0  0  0  0  0  0  0  0
    3.1681    0.1446   -1.6152 N   0  0  0  0  0  0  0  0  0  0  0  0
    4.2150    0.5604   -0.9348 C   0  0  0  0  0  0  0  0  0  0  0  0
    5.4395    0.7485   -1.5019 N   0  0  0  0  0  0  0  0  0  0  0  0
    5.5877    0.6333   -2.9578 C   0  0  0  0  0  0  0  0  0  0  0  0
    6.5628    1.7048   -3.4707 C   0  0  0  0  0  0  0  0  0  0  0  0
    7.8703    1.6429   -2.8806 O   0  0  0  0  0  0  0  0  0  0  0  0
    7.8808    1.0433   -1.5779 C   0  0  0  0  0  0  0  0  0  0  0  0
    6.5921    1.2837   -0.7745 C   0  0  0  0  0  0  0  0  0  0  0  0
    3.8838    0.8398    0.7422 S   0  0  0  0  0  0  0  0  0  0  0  0
    2.2471    0.3716    0.5269 C   0  0  0  0  0  0  0  0  0  0  0  0
    1.2101    0.3058    1.4722 C   0  0  0  0  0  0  0  0  0  0  0  0
   -4.7993    1.9773    5.0697 H   0  0  0  0  0  0  0  0  0  0  0  0
   -4.7731    0.2110    4.9385 H   0  0  0  0  0  0  0  0  0  0  0  0
   -5.8205    1.1747    3.8746 H   0  0  0  0  0  0  0  0  0  0  0  0
   -2.7694    1.3628    3.9140 H   0  0  0  0  0  0  0  0  0  0  0  0
   -3.8277    2.1681    2.7719 H   0  0  0  0  0  0  0  0  0  0  0  0
   -3.4741   -0.8674    3.0281 H   0  0  0  0  0  0  0  0  0  0  0  0
   -5.0924    0.8419    1.0656 H   0  0  0  0  0  0  0  0  0  0  0  0
   -5.7348   -0.3740    2.1598 H   0  0  0  0  0  0  0  0  0  0  0  0
   -4.2689   -2.8048    1.8126 H   0  0  0  0  0  0  0  0  0  0  0  0
   -4.0774   -4.5001    0.0370 H   0  0  0  0  0  0  0  0  0  0  0  0
   -4.4606   -3.8802   -2.3341 H   0  0  0  0  0  0  0  0  0  0  0  0
   -5.0503   -1.5439   -2.9232 H   0  0  0  0  0  0  0  0  0  0  0  0
   -5.2456    0.1704   -1.1632 H   0  0  0  0  0  0  0  0  0  0  0  0
   -2.5167    0.5260    0.6455 H   0  0  0  0  0  0  0  0  0  0  0  0
   -1.2441   -0.8240   -0.6313 H   0  0  0  0  0  0  0  0  0  0  0  0
    0.6159   -0.6744   -2.2613 H   0  0  0  0  0  0  0  0  0  0  0  0
    4.6352    0.7567   -3.4856 H   0  0  0  0  0  0  0  0  0  0  0  0
    5.9759   -0.3655   -3.1892 H   0  0  0  0  0  0  0  0  0  0  0  0
    6.1614    2.7053   -3.2718 H   0  0  0  0  0  0  0  0  0  0  0  0
    6.6873    1.6135   -4.5544 H   0  0  0  0  0  0  0  0  0  0  0  0
    8.0524   -0.0319   -1.7085 H   0  0  0  0  0  0  0  0  0  0  0  0
    8.7427    1.4464   -1.0370 H   0  0  0  0  0  0  0  0  0  0  0  0
    6.4511    2.3605   -0.6224 H   0  0  0  0  0  0  0  0  0  0  0  0
    6.7071    0.8006    0.2021 H   0  0  0  0  0  0  0  0  0  0  0  0
    1.3853    0.5625    2.5139 H   0  0  0  0  0  0  0  0  0  0  0  0
  1  2  1  0
  2  3  1  0
  3  4  1  0
  4  5  1  0
  5  6  2  0
  6  7  1  0
  7  8  2  0
  8  9  1  0
  9 10  2  0
  3 11  1  0
 11 12  1  0
 12 13  2  0
 12 14  1  0
 14 15  2  0
 15 16  1  0
 16 17  2  0
 17 18  1  0
 18 19  2  0
 19 20  1  0
 20 21  1  0
 21 22  1  0
 22 23  1  0
 23 24  1  0
 24 25  1  0
 19 26  1  0
 26 27  1  0
 27 28  2  0
 10  5  1  0
 28 14  1  0
 27 17  1  0
 25 20  1  0
  1 29  1  0
  1 30  1  0
  1 31  1  0
  2 32  1  0
  2 33  1  0
  3 34  1  0
  4 35  1  0
  4 36  1  0
  6 37  1  0
  7 38  1  0
  8 39  1  0
  9 40  1  0
 10 41  1  0
 11 42  1  0
 15 43  1  0
 16 44  1  0
 21 45  1  0
 21 46  1  0
 22 47  1  0
 22 48  1  0
 24 49  1  0
 24 50  1  0
 25 51  1  0
 25 52  1  0
 28 53  1  0
M  END
$$$$
