
     RDKit          3D

 62 65  0  0  0  0  0  0  0  0999 V2000
   -5.0842   -3.0673   -3.6331 C   0  0  0  0  0  0  0  0  0  0  0  0
   -5.1692   -2.1808   -2.4041 C   0  0  0  0  0  0  0  0  0  0  0  0
   -3.9397   -2.2380   -1.6652 O   0  0  0  0  0  0  0  0  0  0  0  0
   -2.9925   -1.3278   -2.0237 C   0  0  0  0  0  0  0  0  0  0  0  0
   -3.0939   -0.4904   -2.9077 O   0  0  0  0  0  0  0  0  0  0  0  0
   -1.8065   -1.4571   -1.1401 C   0  0  0  0  0  0  0  0  0  0  0  0
   -1.0522   -2.5915   -1.1950 C   0  0  0  0  0  0  0  0  0  0  0  0
   -1.3975   -3.8062   -2.0267 C   0  0  0  0  0  0  0  0  0  0  0  0
    0.2001   -2.7187   -0.5888 N   0  0  0  0  0  0  0  0  0  0  0  0
    0.7746   -1.6084   -0.2533 C   0  0  0  0  0  0  0  0  0  0  0  0
    2.4526   -1.4945    0.1825 S   0  0  0  0  0  0  0  0  0  0  0  0
    2.4618    0.2341   -0.1219 C   0  0  0  0  0  0  0  0  0  0  0  0
    3.5747    0.9978   -0.0518 C   0  0  0  0  0  0  0  0  0  0  0  0
    3.5322    2.3757   -0.2174 O   0  0  0  0  0  0  0  0  0  0  0  0
    4.9233    0.4780    0.2295 C   0  0  0  0  0  0  0  0  0  0  0  0
    5.4553    0.5717    1.5205 C   0  0  0  0  0  0  0  0  0  0  0  0
    6.7471    0.1056    1.7786 C   0  0  0  0  0  0  0  0  0  0  0  0
    7.5232   -0.4524    0.7564 C   0  0  0  0  0  0  0  0  0  0  0  0
    8.7681   -0.8648    1.1436 O   0  0  0  0  0  0  0  0  0  0  0  0
    9.5957   -1.4414    0.1422 C   0  0  0  0  0  0  0  0  0  0  0  0
    6.9936   -0.5433   -0.5327 C   0  0  0  0  0  0  0  0  0  0  0  0
    5.6993   -0.0786   -0.7957 C   0  0  0  0  0  0  0  0  0  0  0  0
    1.0888    0.7026   -0.3893 C   0  0  0  0  0  0  0  0  0  0  0  0
    0.8532    2.0229   -0.7027 N   0  0  0  0  0  0  0  0  0  0  0  0
    0.1559   -0.2657   -0.2929 C   0  0  0  0  0  0  0  0  0  0  0  0
   -1.3088   -0.2995   -0.3472 C   0  0  0  0  0  0  0  0  0  0  0  0
   -2.0974    0.5166    0.4224 C   0  0  0  0  0  0  0  0  0  0  0  0
   -3.5744    0.4200    0.4559 C   0  0  0  0  0  0  0  0  0  0  0  0
   -4.3289    1.3364    1.0888 C   0  0  0  0  0  0  0  0  0  0  0  0
   -3.7069    2.4404    1.8243 C   0  0  0  0  0  0  0  0  0  0  0  0
   -4.4507    3.4227    2.3819 C   0  0  0  0  0  0  0  0  0  0  0  0
   -3.8660    4.4661    3.0665 O   0  0  0  0  0  0  0  0  0  0  0  0
   -5.8222    3.4830    2.2297 O   0  0  0  0  0  0  0  0  0  0  0  0
   -6.4602    3.0702    3.4369 C   0  0  0  0  0  0  0  0  0  0  0  0
   -2.2588    2.3968    2.0219 C   0  0  0  0  0  0  0  0  0  0  0  0
   -1.5081    1.4799    1.3870 C   0  0  0  0  0  0  0  0  0  0  0  0
   -4.8383   -4.0934   -3.3476 H   0  0  0  0  0  0  0  0  0  0  0  0
   -4.2949   -2.7269   -4.3129 H   0  0  0  0  0  0  0  0  0  0  0  0
   -6.0350   -3.0709   -4.1759 H   0  0  0  0  0  0  0  0  0  0  0  0
   -5.4286   -1.1511   -2.6732 H   0  0  0  0  0  0  0  0  0  0  0  0
   -5.9594   -2.5464   -1.7388 H   0  0  0  0  0  0  0  0  0  0  0  0
   -2.1473   -3.6167   -2.7958 H   0  0  0  0  0  0  0  0  0  0  0  0
   -1.7592   -4.6092   -1.3793 H   0  0  0  0  0  0  0  0  0  0  0  0
   -0.5068   -4.1709   -2.5525 H   0  0  0  0  0  0  0  0  0  0  0  0
    4.4536    2.6994   -0.2331 H   0  0  0  0  0  0  0  0  0  0  0  0
    4.8685    0.9993    2.3332 H   0  0  0  0  0  0  0  0  0  0  0  0
    7.1522    0.1743    2.7867 H   0  0  0  0  0  0  0  0  0  0  0  0
   10.5476   -1.7144    0.6117 H   0  0  0  0  0  0  0  0  0  0  0  0
    9.1484   -2.3567   -0.2629 H   0  0  0  0  0  0  0  0  0  0  0  0
    9.8106   -0.7200   -0.6526 H   0  0  0  0  0  0  0  0  0  0  0  0
    7.5579   -0.9718   -1.3568 H   0  0  0  0  0  0  0  0  0  0  0  0
    5.2990   -0.1578   -1.8064 H   0  0  0  0  0  0  0  0  0  0  0  0
   -0.0881    2.3689   -0.5549 H   0  0  0  0  0  0  0  0  0  0  0  0
    1.6060    2.6564   -0.4239 H   0  0  0  0  0  0  0  0  0  0  0  0
   -4.0942   -0.4052   -0.0119 H   0  0  0  0  0  0  0  0  0  0  0  0
   -5.4120    1.2462    1.0867 H   0  0  0  0  0  0  0  0  0  0  0  0
   -4.5589    5.1491    3.0967 H   0  0  0  0  0  0  0  0  0  0  0  0
   -7.5415    3.1426    3.2859 H   0  0  0  0  0  0  0  0  0  0  0  0
   -6.1879    3.7223    4.2755 H   0  0  0  0  0  0  0  0  0  0  0  0
   -6.2169    2.0290    3.6710 H   0  0  0  0  0  0  0  0  0  0  0  0
   -1.8043    3.0895    2.7223 H   0  0  0  0  0  0  0  0  0  0  0  0
   -0.4522    1.4403    1.6298 H   0  0  0  0  0  0  0  0  0  0  0  0
  1  2  1  0
  2  3  1  0
  3  4  1  0
  4  5  2  0
  4  6  1  0
  6  7  2  0
  7  8  1  0
  7  9  1  0
  9 10  2  0
 10 11  1  0
 11 12  1  0
 12 13  2  3
 13 14  1  0
 13 15  1  0
 15 16  2  0
 16 17  1  0
 17 18  2  0
 18 19  1  0
 19 20  1  0
 18 21  1  0
 21 22  2  0
 12 23  1  0
 23 24  1  0
 23 25  2  0
 25 26  1  0
 26 27  2  3
 27 28  1  0
 28 29  2  0
 29 30  1  0
 30 31  2  3
 31 32  1  0
 31 33  1  0
 33 34  1  0
 30 35  1  0
 35 36  2  0
 26  6  1  0
 36 27  1  0
 25 10  1  0
 22 15  1  0
  1 37  1  0
  1 38  1  0
  1 39  1  0
  2 40  1  0
  2 41  1  0
  8 42  1  0
  8 43  1  0
  8 44  1  0
 14 45  1  0
 16 46  1  0
 17 47  1  0
 20 48  1  0
 20 49  1  0
 20 50  1  0
 21 51  1  0
 22 52  1  0
 24 53  1  0
 24 54  1  0
 28 55  1  0
 29 56  1  0
 32 57  1  0
 34 58  1  0
 34 59  1  0
 34 60  1  0
 35 61  1  0
 36 62  1  0
M  END
$$$$
