
     RDKit          3D

 33 35  0  0  0  0  0  0  0  0999 V2000
   -4.3963   -1.7524    1.1660 C   0  0  0  0  0  0  0  0  0  0  0  0
   -3.6556   -0.5300    0.7159 C   0  0  0  0  0  0  0  0  0  0  0  0
   -3.4637    0.5275    1.5818 C   0  0  0  0  0  0  0  0  0  0  0  0
   -2.7714    1.6040    1.0782 C   0  0  0  0  0  0  0  0  0  0  0  0
   -2.2893    1.6581   -0.1746 N   0  0  0  0  0  0  0  0  0  0  0  0
   -2.5083    0.5730   -0.9352 C   0  0  0  0  0  0  0  0  0  0  0  0
   -1.8762    0.6053   -2.5882 S   0  0  0  0  0  0  0  0  0  0  0  0
   -0.7770   -0.8343   -2.4607 C   0  0  0  0  0  0  0  0  0  0  0  0
    0.3730   -0.6024   -1.5381 C   0  0  0  0  0  0  0  0  0  0  0  0
    1.3667    0.3550   -1.6065 C   0  0  0  0  0  0  0  0  0  0  0  0
    2.1710    0.1548   -0.5103 N   0  0  0  0  0  0  0  0  0  0  0  0
    3.3135    0.8543   -0.0807 C   0  0  0  0  0  0  0  0  0  0  0  0
    3.8058    2.0255   -0.8745 C   0  0  0  0  0  0  0  0  0  0  0  0
    3.9246    0.4342    1.0472 C   0  0  0  0  0  0  0  0  0  0  0  0
    3.3955   -0.7094    1.7728 C   0  0  0  0  0  0  0  0  0  0  0  0
    2.3004   -1.3664    1.3486 C   0  0  0  0  0  0  0  0  0  0  0  0
    1.6377   -0.9413    0.1646 C   0  0  0  0  0  0  0  0  0  0  0  0
    0.5672   -1.4116   -0.4397 N   0  0  0  0  0  0  0  0  0  0  0  0
   -3.1934   -0.5180   -0.5503 N   0  0  0  0  0  0  0  0  0  0  0  0
   -4.4601   -2.4892    0.3588 H   0  0  0  0  0  0  0  0  0  0  0  0
   -3.8800   -2.2176    2.0115 H   0  0  0  0  0  0  0  0  0  0  0  0
   -5.4148   -1.4883    1.4673 H   0  0  0  0  0  0  0  0  0  0  0  0
   -3.8334    0.5179    2.5982 H   0  0  0  0  0  0  0  0  0  0  0  0
   -2.5771    2.4815    1.6876 H   0  0  0  0  0  0  0  0  0  0  0  0
   -1.3473   -1.7179   -2.1549 H   0  0  0  0  0  0  0  0  0  0  0  0
   -0.3868   -1.0435   -3.4629 H   0  0  0  0  0  0  0  0  0  0  0  0
    1.5446    1.1506   -2.3149 H   0  0  0  0  0  0  0  0  0  0  0  0
    4.0698    1.7190   -1.8921 H   0  0  0  0  0  0  0  0  0  0  0  0
    3.0383    2.8047   -0.9299 H   0  0  0  0  0  0  0  0  0  0  0  0
    4.6980    2.4747   -0.4249 H   0  0  0  0  0  0  0  0  0  0  0  0
    4.8098    0.9229    1.4422 H   0  0  0  0  0  0  0  0  0  0  0  0
    3.9129   -1.0218    2.6748 H   0  0  0  0  0  0  0  0  0  0  0  0
    1.9021   -2.2190    1.8857 H   0  0  0  0  0  0  0  0  0  0  0  0
  1  2  1  0
  2  3  2  0
  3  4  1  0
  4  5  2  0
  5  6  1  0
  6  7  1  0
  7  8  1  0
  8  9  1  0
  9 10  2  0
 10 11  1  0
 11 12  1  0
 12 13  1  0
 12 14  2  0
 14 15  1  0
 15 16  2  0
 16 17  1  0
 17 18  2  0
  6 19  2  0
 19  2  1  0
 18  9  1  0
 17 11  1  0
  1 20  1  0
  1 21  1  0
  1 22  1  0
  3 23  1  0
  4 24  1  0
  8 25  1  0
  8 26  1  0
 10 27  1  0
 13 28  1  0
 13 29  1  0
 13 30  1  0
 14 31  1  0
 15 32  1  0
 16 33  1  0
M  END
$$$$
