
     RDKit          3D

 53 56  0  0  0  0  0  0  0  0999 V2000
    4.1449    0.5494    2.0481 C   0  0  0  0  0  0  0  0  0  0  0  0
    3.1613    0.0224    1.0901 N   0  0  0  0  0  0  0  0  0  0  0  0
    3.6377   -0.4154   -0.1709 C   0  0  0  0  0  0  0  0  0  0  0  0
    4.9819   -0.3202   -0.5674 C   0  0  0  0  0  0  0  0  0  0  0  0
    5.4125   -0.7852   -1.8164 C   0  0  0  0  0  0  0  0  0  0  0  0
    4.5075   -1.3671   -2.6977 C   0  0  0  0  0  0  0  0  0  0  0  0
    3.1731   -1.4881   -2.3286 C   0  0  0  0  0  0  0  0  0  0  0  0
    2.7479   -1.0204   -1.0803 C   0  0  0  0  0  0  0  0  0  0  0  0
    1.8694    0.5658    1.3083 C   0  0  0  0  0  0  0  0  0  0  0  0
    1.4158    1.6334    0.5163 C   0  0  0  0  0  0  0  0  0  0  0  0
    0.1652    2.2234    0.7403 C   0  0  0  0  0  0  0  0  0  0  0  0
   -0.6735    1.7547    1.7574 C   0  0  0  0  0  0  0  0  0  0  0  0
   -1.9791    2.3997    1.9659 C   0  0  0  0  0  0  0  0  0  0  0  0
   -3.1903    1.8116    1.8511 C   0  0  0  0  0  0  0  0  0  0  0  0
   -4.3741    2.5779    2.0688 C   0  0  0  0  0  0  0  0  0  0  0  0
   -5.3218    3.2368    2.1931 N   0  0  0  0  0  0  0  0  0  0  0  0
   -3.3065    0.4430    1.5019 C   0  0  0  0  0  0  0  0  0  0  0  0
   -3.2671   -0.6233    2.2777 N   0  0  0  0  0  0  0  0  0  0  0  0
   -3.3370   -1.7384    1.4827 N   0  0  0  0  0  0  0  0  0  0  0  0
   -3.4182   -1.3450    0.2310 C   0  0  0  0  0  0  0  0  0  0  0  0
   -3.4317    0.0271    0.1957 N   0  0  0  0  0  0  0  0  0  0  0  0
   -3.4986    0.8191   -1.0138 C   0  0  0  0  0  0  0  0  0  0  0  0
   -2.2961    0.6000   -1.9322 C   0  0  0  0  0  0  0  0  0  0  0  0
   -2.3650   -0.7022   -2.7362 C   0  0  0  0  0  0  0  0  0  0  0  0
   -2.2688   -1.9838   -1.9006 C   0  0  0  0  0  0  0  0  0  0  0  0
   -3.4608   -2.2147   -0.9706 C   0  0  0  0  0  0  0  0  0  0  0  0
   -0.2448    0.6933    2.5583 C   0  0  0  0  0  0  0  0  0  0  0  0
    1.0064    0.1102    2.3160 C   0  0  0  0  0  0  0  0  0  0  0  0
    1.3948   -1.0034    3.1542 N   0  0  0  0  0  4  0  0  0  0  0  0
    1.4410   -2.1279    2.6362 O   0  0  0  0  0  0  0  0  0  0  0  0
    1.6460   -0.7398    4.3405 O   0  0  0  0  0  1  0  0  0  0  0  0
    3.7072    0.7441    3.0342 H   0  0  0  0  0  0  0  0  0  0  0  0
    4.5757    1.4929    1.6908 H   0  0  0  0  0  0  0  0  0  0  0  0
    4.9498   -0.1756    2.2168 H   0  0  0  0  0  0  0  0  0  0  0  0
    5.7326    0.1214    0.0812 H   0  0  0  0  0  0  0  0  0  0  0  0
    6.4604   -0.6983   -2.0916 H   0  0  0  0  0  0  0  0  0  0  0  0
    4.8440   -1.7386   -3.6627 H   0  0  0  0  0  0  0  0  0  0  0  0
    2.4617   -1.9618   -2.9996 H   0  0  0  0  0  0  0  0  0  0  0  0
    1.7059   -1.1639   -0.8062 H   0  0  0  0  0  0  0  0  0  0  0  0
    2.0501    2.0234   -0.2786 H   0  0  0  0  0  0  0  0  0  0  0  0
   -0.1403    3.0537    0.1076 H   0  0  0  0  0  0  0  0  0  0  0  0
   -1.9161    3.4589    2.2173 H   0  0  0  0  0  0  0  0  0  0  0  0
   -4.4383    0.5695   -1.5214 H   0  0  0  0  0  0  0  0  0  0  0  0
   -3.5549    1.8764   -0.7371 H   0  0  0  0  0  0  0  0  0  0  0  0
   -2.2614    1.4292   -2.6483 H   0  0  0  0  0  0  0  0  0  0  0  0
   -1.3581    0.6344   -1.3625 H   0  0  0  0  0  0  0  0  0  0  0  0
   -3.2869   -0.7167   -3.3300 H   0  0  0  0  0  0  0  0  0  0  0  0
   -1.5368   -0.7040   -3.4542 H   0  0  0  0  0  0  0  0  0  0  0  0
   -2.2169   -2.8261   -2.6002 H   0  0  0  0  0  0  0  0  0  0  0  0
   -1.3263   -1.9897   -1.3336 H   0  0  0  0  0  0  0  0  0  0  0  0
   -3.4439   -3.2606   -0.6376 H   0  0  0  0  0  0  0  0  0  0  0  0
   -4.4057   -2.0696   -1.5066 H   0  0  0  0  0  0  0  0  0  0  0  0
   -0.8740    0.3078    3.3589 H   0  0  0  0  0  0  0  0  0  0  0  0
  1  2  1  0
  2  3  1  0
  3  4  2  0
  4  5  1  0
  5  6  2  0
  6  7  1  0
  7  8  2  0
  2  9  1  0
  9 10  2  0
 10 11  1  0
 11 12  2  0
 12 13  1  0
 13 14  2  3
 14 15  1  0
 15 16  3  0
 14 17  1  0
 17 18  2  0
 18 19  1  0
 19 20  2  0
 20 21  1  0
 21 22  1  0
 22 23  1  0
 23 24  1  0
 24 25  1  0
 25 26  1  0
 12 27  1  0
 27 28  2  0
 28 29  1  0
 29 30  2  0
 29 31  1  0
  8  3  1  0
 28  9  1  0
 21 17  1  0
 26 20  1  0
  1 32  1  0
  1 33  1  0
  1 34  1  0
  4 35  1  0
  5 36  1  0
  6 37  1  0
  7 38  1  0
  8 39  1  0
 10 40  1  0
 11 41  1  0
 13 42  1  0
 22 43  1  0
 22 44  1  0
 23 45  1  0
 23 46  1  0
 24 47  1  0
 24 48  1  0
 25 49  1  0
 25 50  1  0
 26 51  1  0
 26 52  1  0
 27 53  1  0
M  CHG  2  29   1  31  -1
M  END
$$$$
