
     RDKit          3D

 92 91  0  0  0  0  0  0  0  0999 V2000
  -10.8253   -0.3191    0.0254 C   0  0  0  0  0  0  0  0  0  0  0  0
   -9.6112    0.5741   -0.2124 C   0  0  0  0  0  0  0  0  0  0  0  0
   -8.3696    0.0719    0.5304 C   0  0  0  0  0  0  0  0  0  0  0  0
   -7.6942   -1.1228   -0.1582 C   0  0  0  0  0  0  0  0  0  0  0  0
   -6.8036   -1.9400    0.8061 C   0  0  0  0  0  0  0  0  0  0  0  0
   -7.6255   -2.8007    1.7931 C   0  0  0  0  0  0  0  0  0  0  0  0
   -8.4606   -3.9049    1.1572 C   0  0  0  0  0  0  0  0  0  0  0  0
   -5.8040   -2.8137    0.0230 C   0  0  0  0  0  0  0  0  0  0  0  0
   -4.6973   -1.9928   -0.4780 N   0  0  0  0  0  0  0  0  0  0  0  0
   -3.6080   -1.9349    0.2087 C   0  0  0  0  0  0  0  0  0  0  0  0
   -3.3959   -2.4939    1.4308 N   0  0  0  0  0  0  0  0  0  0  0  0
   -2.5515   -1.2097   -0.2577 N   0  0  0  0  0  0  0  0  0  0  0  0
   -2.3780   -0.9689   -1.5131 C   0  0  0  0  0  0  0  0  0  0  0  0
   -3.1578   -1.3653   -2.5575 N   0  0  0  0  0  0  0  0  0  0  0  0
   -1.3470   -0.2335   -2.0097 N   0  0  0  0  0  0  0  0  0  0  0  0
   -0.2104    0.1731   -1.2027 C   0  0  0  0  0  0  0  0  0  0  0  0
    0.3734    1.4700   -1.7569 C   0  0  0  0  0  0  0  0  0  0  0  0
   -0.5884    2.6625   -1.7361 C   0  0  0  0  0  0  0  0  0  0  0  0
   -1.2459    3.0079   -0.3954 C   0  0  0  0  0  0  0  0  0  0  0  0
   -0.3262    3.6316    0.6611 C   0  0  0  0  0  0  0  0  0  0  0  0
    0.2395    2.6512    1.6947 C   0  0  0  0  0  0  0  0  0  0  0  0
    1.5062    2.0809    1.2445 N   0  0  0  0  0  0  0  0  0  0  0  0
    2.5987    2.7115    1.4978 C   0  0  0  0  0  0  0  0  0  0  0  0
    2.7219    3.9170    2.1082 N   0  0  0  0  0  0  0  0  0  0  0  0
    3.7788    2.1851    1.0703 N   0  0  0  0  0  0  0  0  0  0  0  0
    3.9966    0.9118    1.0678 C   0  0  0  0  0  0  0  0  0  0  0  0
    3.1531   -0.0837    1.4486 N   0  0  0  0  0  0  0  0  0  0  0  0
    5.1804    0.3593    0.6669 N   0  0  0  0  0  0  0  0  0  0  0  0
    6.3171    1.2184    0.3640 C   0  0  0  0  0  0  0  0  0  0  0  0
    7.5536    0.3906   -0.0621 C   0  0  0  0  0  0  0  0  0  0  0  0
    8.5551    1.2820   -0.8306 C   0  0  0  0  0  0  0  0  0  0  0  0
    8.0676    1.6810   -2.2199 C   0  0  0  0  0  0  0  0  0  0  0  0
    8.2101   -0.2332    1.1922 C   0  0  0  0  0  0  0  0  0  0  0  0
    9.4270   -1.1469    0.9744 C   0  0  0  0  0  0  0  0  0  0  0  0
    9.1616   -2.3961    0.1271 C   0  0  0  0  0  0  0  0  0  0  0  0
    9.5291   -2.2298   -1.3385 C   0  0  0  0  0  0  0  0  0  0  0  0
  -11.0245   -0.4242    1.0996 H   0  0  0  0  0  0  0  0  0  0  0  0
  -11.7101    0.1159   -0.4497 H   0  0  0  0  0  0  0  0  0  0  0  0
  -10.6744   -1.3203   -0.3915 H   0  0  0  0  0  0  0  0  0  0  0  0
   -9.8484    1.5825    0.1421 H   0  0  0  0  0  0  0  0  0  0  0  0
   -9.4182    0.6474   -1.2902 H   0  0  0  0  0  0  0  0  0  0  0  0
   -8.6330   -0.1519    1.5740 H   0  0  0  0  0  0  0  0  0  0  0  0
   -7.6359    0.8923    0.5721 H   0  0  0  0  0  0  0  0  0  0  0  0
   -8.4328   -1.7777   -0.6302 H   0  0  0  0  0  0  0  0  0  0  0  0
   -7.0835   -0.7279   -0.9815 H   0  0  0  0  0  0  0  0  0  0  0  0
   -6.2310   -1.2230    1.4114 H   0  0  0  0  0  0  0  0  0  0  0  0
   -8.2868   -2.1606    2.3853 H   0  0  0  0  0  0  0  0  0  0  0  0
   -6.9332   -3.2626    2.5093 H   0  0  0  0  0  0  0  0  0  0  0  0
   -7.8425   -4.5878    0.5696 H   0  0  0  0  0  0  0  0  0  0  0  0
   -9.2447   -3.5005    0.5085 H   0  0  0  0  0  0  0  0  0  0  0  0
   -8.9548   -4.4913    1.9391 H   0  0  0  0  0  0  0  0  0  0  0  0
   -5.4446   -3.6521    0.6323 H   0  0  0  0  0  0  0  0  0  0  0  0
   -6.2984   -3.2716   -0.8428 H   0  0  0  0  0  0  0  0  0  0  0  0
   -2.5436   -2.1250    1.8269 H   0  0  0  0  0  0  0  0  0  0  0  0
   -4.1788   -2.3898    2.0573 H   0  0  0  0  0  0  0  0  0  0  0  0
   -3.3733   -0.5885   -3.1727 H   0  0  0  0  0  0  0  0  0  0  0  0
   -4.0382   -1.7350   -2.1825 H   0  0  0  0  0  0  0  0  0  0  0  0
   -1.0991   -0.5023   -2.9556 H   0  0  0  0  0  0  0  0  0  0  0  0
    0.5492   -0.6155   -1.2340 H   0  0  0  0  0  0  0  0  0  0  0  0
   -0.4870    0.3007   -0.1523 H   0  0  0  0  0  0  0  0  0  0  0  0
    1.2851    1.7230   -1.2133 H   0  0  0  0  0  0  0  0  0  0  0  0
    0.6856    1.3079   -2.7959 H   0  0  0  0  0  0  0  0  0  0  0  0
   -0.0590    3.5428   -2.1131 H   0  0  0  0  0  0  0  0  0  0  0  0
   -1.3900    2.4657   -2.4583 H   0  0  0  0  0  0  0  0  0  0  0  0
   -2.0194    3.7572   -0.6166 H   0  0  0  0  0  0  0  0  0  0  0  0
   -1.7870    2.1469    0.0139 H   0  0  0  0  0  0  0  0  0  0  0  0
   -0.9335    4.3545    1.2205 H   0  0  0  0  0  0  0  0  0  0  0  0
    0.4668    4.2118    0.1793 H   0  0  0  0  0  0  0  0  0  0  0  0
    0.3603    3.1610    2.6601 H   0  0  0  0  0  0  0  0  0  0  0  0
   -0.4666    1.8347    1.8872 H   0  0  0  0  0  0  0  0  0  0  0  0
    3.6308    4.3128    1.9086 H   0  0  0  0  0  0  0  0  0  0  0  0
    1.9620    4.5576    1.9292 H   0  0  0  0  0  0  0  0  0  0  0  0
    2.2068    0.2992    1.5219 H   0  0  0  0  0  0  0  0  0  0  0  0
    3.1493   -0.8368    0.7720 H   0  0  0  0  0  0  0  0  0  0  0  0
    5.4094   -0.4517    1.2291 H   0  0  0  0  0  0  0  0  0  0  0  0
    6.5579    1.8354    1.2364 H   0  0  0  0  0  0  0  0  0  0  0  0
    6.0172    1.8996   -0.4361 H   0  0  0  0  0  0  0  0  0  0  0  0
    7.2161   -0.4231   -0.7187 H   0  0  0  0  0  0  0  0  0  0  0  0
    9.5060    0.7574   -0.9646 H   0  0  0  0  0  0  0  0  0  0  0  0
    8.7755    2.1860   -0.2510 H   0  0  0  0  0  0  0  0  0  0  0  0
    7.8099    0.7970   -2.8135 H   0  0  0  0  0  0  0  0  0  0  0  0
    8.8578    2.2225   -2.7486 H   0  0  0  0  0  0  0  0  0  0  0  0
    7.1947    2.3364   -2.1761 H   0  0  0  0  0  0  0  0  0  0  0  0
    8.5182    0.5745    1.8694 H   0  0  0  0  0  0  0  0  0  0  0  0
    7.4583   -0.8130    1.7438 H   0  0  0  0  0  0  0  0  0  0  0  0
    9.7356   -1.4876    1.9728 H   0  0  0  0  0  0  0  0  0  0  0  0
   10.2803   -0.5795    0.5863 H   0  0  0  0  0  0  0  0  0  0  0  0
    9.7753   -3.2119    0.5244 H   0  0  0  0  0  0  0  0  0  0  0  0
    8.1170   -2.7103    0.2180 H   0  0  0  0  0  0  0  0  0  0  0  0
    8.8836   -1.5086   -1.8456 H   0  0  0  0  0  0  0  0  0  0  0  0
   10.5644   -1.8967   -1.4437 H   0  0  0  0  0  0  0  0  0  0  0  0
    9.4295   -3.1862   -1.8609 H   0  0  0  0  0  0  0  0  0  0  0  0
  1  2  1  0
  2  3  1  0
  3  4  1  0
  4  5  1  0
  5  6  1  0
  6  7  1  0
  5  8  1  0
  8  9  1  0
  9 10  2  3
 10 11  1  0
 10 12  1  0
 12 13  2  3
 13 14  1  0
 13 15  1  0
 15 16  1  0
 16 17  1  0
 17 18  1  0
 18 19  1  0
 19 20  1  0
 20 21  1  0
 21 22  1  0
 22 23  2  3
 23 24  1  0
 23 25  1  0
 25 26  2  3
 26 27  1  0
 26 28  1  0
 28 29  1  0
 29 30  1  0
 30 31  1  0
 31 32  1  0
 30 33  1  0
 33 34  1  0
 34 35  1  0
 35 36  1  0
  1 37  1  0
  1 38  1  0
  1 39  1  0
  2 40  1  0
  2 41  1  0
  3 42  1  0
  3 43  1  0
  4 44  1  0
  4 45  1  0
  5 46  1  0
  6 47  1  0
  6 48  1  0
  7 49  1  0
  7 50  1  0
  7 51  1  0
  8 52  1  0
  8 53  1  0
 11 54  1  0
 11 55  1  0
 14 56  1  0
 14 57  1  0
 15 58  1  0
 16 59  1  0
 16 60  1  0
 17 61  1  0
 17 62  1  0
 18 63  1  0
 18 64  1  0
 19 65  1  0
 19 66  1  0
 20 67  1  0
 20 68  1  0
 21 69  1  0
 21 70  1  0
 24 71  1  0
 24 72  1  0
 27 73  1  0
 27 74  1  0
 28 75  1  0
 29 76  1  0
 29 77  1  0
 30 78  1  0
 31 79  1  0
 31 80  1  0
 32 81  1  0
 32 82  1  0
 32 83  1  0
 33 84  1  0
 33 85  1  0
 34 86  1  0
 34 87  1  0
 35 88  1  0
 35 89  1  0
 36 90  1  0
 36 91  1  0
 36 92  1  0
M  END
$$$$
