
     RDKit          3D

 52 54  0  0  0  0  0  0  0  0999 V2000
    1.1847   -3.4080   -1.6783 C   0  0  0  0  0  0  0  0  0  0  0  0
    0.7948   -1.9432   -1.7168 C   0  0  0  0  0  0  0  0  0  0  0  0
    1.5492   -1.2158   -0.7290 O   0  0  0  0  0  0  0  0  0  0  0  0
    2.7364   -0.7225   -1.1649 C   0  0  0  0  0  0  0  0  0  0  0  0
    3.1377   -0.7793   -2.3187 O   0  0  0  0  0  0  0  0  0  0  0  0
    3.5481   -0.1364   -0.0562 C   0  0  0  0  0  0  0  0  0  0  0  0
    4.8900    0.1390   -0.3990 C   0  0  0  0  0  0  0  0  0  0  0  0
    5.7811    0.6676    0.5302 C   0  0  0  0  0  0  0  0  0  0  0  0
    5.3417    0.9279    1.8184 C   0  0  0  0  0  0  0  0  0  0  0  0
    4.0151    0.6638    2.1744 C   0  0  0  0  0  0  0  0  0  0  0  0
    3.0927    0.1314    1.2565 C   0  0  0  0  0  0  0  0  0  0  0  0
    1.7379   -0.1044    1.6236 N   0  0  0  0  0  0  0  0  0  0  0  0
    1.1728   -0.0098    2.8823 C   0  0  0  0  0  0  0  0  0  0  0  0
    1.7710    0.2622    3.9218 O   0  0  0  0  0  0  0  0  0  0  0  0
   -0.3326   -0.2232    2.9494 C   0  0  0  0  0  0  0  0  0  0  0  0
   -0.8184   -1.5271    2.3301 C   0  0  0  0  0  0  0  0  0  0  0  0
   -1.5488   -1.1035    1.0803 C   0  0  0  0  0  0  0  0  0  0  0  0
   -2.0626   -1.8797    0.2913 O   0  0  0  0  0  0  0  0  0  0  0  0
   -1.5359    0.2819    1.0022 N   0  0  0  0  0  0  0  0  0  0  0  0
   -2.3032    1.0720    0.0348 C   0  0  0  0  0  0  0  0  0  0  0  0
   -1.8522    0.8184   -1.4083 C   0  0  0  0  0  0  0  0  0  0  0  0
   -2.6278    1.6910   -2.3931 C   0  0  0  0  0  0  0  0  0  0  0  0
   -4.1345    1.4966   -2.2437 C   0  0  0  0  0  0  0  0  0  0  0  0
   -4.5967    1.7315   -0.8076 C   0  0  0  0  0  0  0  0  0  0  0  0
   -3.8184    0.8720    0.1873 C   0  0  0  0  0  0  0  0  0  0  0  0
   -1.0809    0.8809    2.2326 C   0  0  0  0  0  0  0  0  0  0  0  0
    0.5776   -3.9897   -2.3760 H   0  0  0  0  0  0  0  0  0  0  0  0
    2.2402   -3.5403   -1.9364 H   0  0  0  0  0  0  0  0  0  0  0  0
    1.0501   -3.8108   -0.6697 H   0  0  0  0  0  0  0  0  0  0  0  0
    0.9177   -1.5182   -2.7188 H   0  0  0  0  0  0  0  0  0  0  0  0
   -0.2606   -1.8431   -1.4623 H   0  0  0  0  0  0  0  0  0  0  0  0
    5.2526   -0.0660   -1.4059 H   0  0  0  0  0  0  0  0  0  0  0  0
    6.8110    0.8711    0.2483 H   0  0  0  0  0  0  0  0  0  0  0  0
    6.0260    1.3409    2.5563 H   0  0  0  0  0  0  0  0  0  0  0  0
    3.7354    0.9043    3.1950 H   0  0  0  0  0  0  0  0  0  0  0  0
    1.1459   -0.4389    0.8654 H   0  0  0  0  0  0  0  0  0  0  0  0
   -0.5883   -0.2100    4.0170 H   0  0  0  0  0  0  0  0  0  0  0  0
   -1.5361   -2.0276    2.9924 H   0  0  0  0  0  0  0  0  0  0  0  0
   -0.0080   -2.2179    2.0796 H   0  0  0  0  0  0  0  0  0  0  0  0
   -2.0790    2.1234    0.2602 H   0  0  0  0  0  0  0  0  0  0  0  0
   -0.7785    1.0206   -1.5034 H   0  0  0  0  0  0  0  0  0  0  0  0
   -1.9993   -0.2317   -1.6809 H   0  0  0  0  0  0  0  0  0  0  0  0
   -2.3758    2.7454   -2.2263 H   0  0  0  0  0  0  0  0  0  0  0  0
   -2.3246    1.4488   -3.4178 H   0  0  0  0  0  0  0  0  0  0  0  0
   -4.6630    2.1803   -2.9179 H   0  0  0  0  0  0  0  0  0  0  0  0
   -4.4023    0.4768   -2.5486 H   0  0  0  0  0  0  0  0  0  0  0  0
   -5.6668    1.5098   -0.7275 H   0  0  0  0  0  0  0  0  0  0  0  0
   -4.4685    2.7907   -0.5513 H   0  0  0  0  0  0  0  0  0  0  0  0
   -4.1284    1.1260    1.2089 H   0  0  0  0  0  0  0  0  0  0  0  0
   -4.0841   -0.1815    0.0330 H   0  0  0  0  0  0  0  0  0  0  0  0
   -1.9638    1.1913    2.8033 H   0  0  0  0  0  0  0  0  0  0  0  0
   -0.4708    1.7630    2.0145 H   0  0  0  0  0  0  0  0  0  0  0  0
  1  2  1  0
  2  3  1  0
  3  4  1  0
  4  5  2  0
  4  6  1  0
  6  7  2  0
  7  8  1  0
  8  9  2  0
  9 10  1  0
 10 11  2  0
 11 12  1  0
 12 13  1  0
 13 14  2  0
 13 15  1  0
 15 16  1  0
 16 17  1  0
 17 18  2  0
 17 19  1  0
 19 20  1  0
 20 21  1  0
 21 22  1  0
 22 23  1  0
 23 24  1  0
 24 25  1  0
 19 26  1  0
 11  6  1  0
 26 15  1  0
 25 20  1  0
  1 27  1  0
  1 28  1  0
  1 29  1  0
  2 30  1  0
  2 31  1  0
  7 32  1  0
  8 33  1  0
  9 34  1  0
 10 35  1  0
 12 36  1  0
 15 37  1  0
 16 38  1  0
 16 39  1  0
 20 40  1  0
 21 41  1  0
 21 42  1  0
 22 43  1  0
 22 44  1  0
 23 45  1  0
 23 46  1  0
 24 47  1  0
 24 48  1  0
 25 49  1  0
 25 50  1  0
 26 51  1  0
 26 52  1  0
M  END
$$$$
