
     RDKit          3D

 55 57  0  0  0  0  0  0  0  0999 V2000
    7.2934   -0.0593   -1.3818 C   0  0  0  0  0  0  0  0  0  0  0  0
    6.1996   -0.9224   -1.0996 O   0  0  0  0  0  0  0  0  0  0  0  0
    4.9827   -0.3322   -0.8984 C   0  0  0  0  0  0  0  0  0  0  0  0
    4.7133    1.0337   -0.9521 C   0  0  0  0  0  0  0  0  0  0  0  0
    3.4139    1.5054   -0.7295 C   0  0  0  0  0  0  0  0  0  0  0  0
    2.3609    0.6216   -0.4437 C   0  0  0  0  0  0  0  0  0  0  0  0
    0.9546    1.1691   -0.2274 C   0  0  0  0  0  0  0  0  0  0  0  0
    0.3773    0.7772    1.4724 S   0  0  0  0  0  0  0  0  0  0  0  0
   -1.3338    1.2555    1.3110 C   0  0  0  0  0  0  0  0  0  0  0  0
   -1.7704    2.3246    2.1077 C   0  0  0  0  0  0  0  0  0  0  0  0
   -3.1124    2.6988    2.1217 C   0  0  0  0  0  0  0  0  0  0  0  0
   -4.0321    1.9950    1.3538 C   0  0  0  0  0  0  0  0  0  0  0  0
   -3.6102    0.9201    0.5674 C   0  0  0  0  0  0  0  0  0  0  0  0
   -2.2574    0.5403    0.5204 C   0  0  0  0  0  0  0  0  0  0  0  0
   -1.8572   -0.5681   -0.2972 N   0  0  0  0  0  0  0  0  0  0  0  0
   -2.7352   -1.7526   -0.3625 C   0  0  0  0  0  0  0  0  0  0  0  0
   -3.0965   -2.4002    0.9990 C   0  0  0  0  0  0  0  0  0  0  0  0
   -2.1693   -3.4494    1.4706 N   0  0  0  0  0  0  0  0  0  0  0  0
   -0.8427   -2.9164    1.7814 C   0  0  0  0  0  0  0  0  0  0  0  0
   -2.7224   -4.1133    2.6540 C   0  0  0  0  0  0  0  0  0  0  0  0
   -0.7458   -0.5369   -1.1514 C   0  0  0  0  0  0  0  0  0  0  0  0
   -0.3758   -1.5387   -1.7756 O   0  0  0  0  0  0  0  0  0  0  0  0
    0.0019    0.7873   -1.3787 C   0  0  0  0  0  0  0  0  0  0  0  0
   -0.9700    1.8211   -1.6741 O   0  0  0  0  0  0  0  0  0  0  0  0
   -0.4996    2.9278   -2.3031 C   0  0  0  0  0  0  0  0  0  0  0  0
   -1.6206    3.8851   -2.5656 C   0  0  0  0  0  0  0  0  0  0  0  0
    0.6704    3.1338   -2.5880 O   0  0  0  0  0  0  0  0  0  0  0  0
    2.6428   -0.7512   -0.3980 C   0  0  0  0  0  0  0  0  0  0  0  0
    3.9411   -1.2183   -0.6219 C   0  0  0  0  0  0  0  0  0  0  0  0
    7.1288    0.4995   -2.3085 H   0  0  0  0  0  0  0  0  0  0  0  0
    7.4885    0.6155   -0.5422 H   0  0  0  0  0  0  0  0  0  0  0  0
    8.1824   -0.6813   -1.5224 H   0  0  0  0  0  0  0  0  0  0  0  0
    5.4873    1.7614   -1.1710 H   0  0  0  0  0  0  0  0  0  0  0  0
    3.2311    2.5771   -0.7930 H   0  0  0  0  0  0  0  0  0  0  0  0
    1.0355    2.2622   -0.2023 H   0  0  0  0  0  0  0  0  0  0  0  0
   -1.0671    2.8655    2.7382 H   0  0  0  0  0  0  0  0  0  0  0  0
   -3.4398    3.5293    2.7426 H   0  0  0  0  0  0  0  0  0  0  0  0
   -5.0815    2.2806    1.3650 H   0  0  0  0  0  0  0  0  0  0  0  0
   -4.3585    0.4125   -0.0343 H   0  0  0  0  0  0  0  0  0  0  0  0
   -2.3009   -2.5226   -1.0107 H   0  0  0  0  0  0  0  0  0  0  0  0
   -3.6536   -1.4485   -0.8790 H   0  0  0  0  0  0  0  0  0  0  0  0
   -3.2480   -1.6449    1.7788 H   0  0  0  0  0  0  0  0  0  0  0  0
   -4.0714   -2.8821    0.8435 H   0  0  0  0  0  0  0  0  0  0  0  0
   -0.1920   -3.7074    2.1726 H   0  0  0  0  0  0  0  0  0  0  0  0
   -0.8848   -2.1134    2.5252 H   0  0  0  0  0  0  0  0  0  0  0  0
   -0.3463   -2.5458    0.8818 H   0  0  0  0  0  0  0  0  0  0  0  0
   -3.6911   -4.5706    2.4225 H   0  0  0  0  0  0  0  0  0  0  0  0
   -2.0661   -4.9271    2.9824 H   0  0  0  0  0  0  0  0  0  0  0  0
   -2.8589   -3.4198    3.4921 H   0  0  0  0  0  0  0  0  0  0  0  0
    0.5758    0.6399   -2.3058 H   0  0  0  0  0  0  0  0  0  0  0  0
   -2.4310    3.3747   -3.0944 H   0  0  0  0  0  0  0  0  0  0  0  0
   -1.2591    4.7014   -3.1978 H   0  0  0  0  0  0  0  0  0  0  0  0
   -1.9805    4.2988   -1.6197 H   0  0  0  0  0  0  0  0  0  0  0  0
    1.8615   -1.4794   -0.1906 H   0  0  0  0  0  0  0  0  0  0  0  0
    4.1393   -2.2869   -0.5836 H   0  0  0  0  0  0  0  0  0  0  0  0
  1  2  1  0
  2  3  1  0
  3  4  2  0
  4  5  1  0
  5  6  2  0
  6  7  1  0
  7  8  1  0
  8  9  1  0
  9 10  2  0
 10 11  1  0
 11 12  2  0
 12 13  1  0
 13 14  2  0
 14 15  1  0
 15 16  1  0
 16 17  1  0
 17 18  1  0
 18 19  1  0
 18 20  1  0
 15 21  1  0
 21 22  2  0
 21 23  1  0
 23 24  1  0
 24 25  1  0
 25 26  1  0
 25 27  2  0
  6 28  1  0
 28 29  2  0
 29  3  1  0
 23  7  1  0
 14  9  1  0
  1 30  1  0
  1 31  1  0
  1 32  1  0
  4 33  1  0
  5 34  1  0
  7 35  1  0
 10 36  1  0
 11 37  1  0
 12 38  1  0
 13 39  1  0
 16 40  1  0
 16 41  1  0
 17 42  1  0
 17 43  1  0
 19 44  1  0
 19 45  1  0
 19 46  1  0
 20 47  1  0
 20 48  1  0
 20 49  1  0
 23 50  1  0
 26 51  1  0
 26 52  1  0
 26 53  1  0
 28 54  1  0
 29 55  1  0
M  END
$$$$
