
     RDKit          3D

 40 43  0  0  0  0  0  0  0  0999 V2000
    6.7552    0.2796    2.3893 O   0  0  0  0  0  0  0  0  0  0  0  0
    6.1927    1.1968    1.7739 N   0  0  0  0  0  4  0  0  0  0  0  0
    6.6701    2.3284    1.6089 O   0  0  0  0  0  1  0  0  0  0  0  0
    4.8722    0.9196    1.1947 C   0  0  0  0  0  0  0  0  0  0  0  0
    4.2104    1.9149    0.4658 C   0  0  0  0  0  0  0  0  0  0  0  0
    2.9528    1.6435   -0.0816 C   0  0  0  0  0  0  0  0  0  0  0  0
    2.3543    0.3853    0.0863 C   0  0  0  0  0  0  0  0  0  0  0  0
    1.0391    0.1167   -0.4920 C   0  0  0  0  0  0  0  0  0  0  0  0
    0.0569    1.0938   -0.4811 N   0  0  0  0  0  0  0  0  0  0  0  0
   -1.0462    0.4808   -1.0495 N   0  0  0  0  0  0  0  0  0  0  0  0
   -2.3138    1.1568   -1.2203 C   0  0  0  0  0  0  0  0  0  0  0  0
   -3.2419    0.9064   -0.0572 C   0  0  0  0  0  0  0  0  0  0  0  0
   -4.3459    0.0529   -0.1939 C   0  0  0  0  0  0  0  0  0  0  0  0
   -5.2029   -0.1754    0.8841 C   0  0  0  0  0  0  0  0  0  0  0  0
   -4.9645    0.4438    2.1096 C   0  0  0  0  0  0  0  0  0  0  0  0
   -3.8674    1.2895    2.2602 C   0  0  0  0  0  0  0  0  0  0  0  0
   -3.0098    1.5195    1.1836 C   0  0  0  0  0  0  0  0  0  0  0  0
   -0.7104   -0.7730   -1.4228 C   0  0  0  0  0  0  0  0  0  0  0  0
   -1.2691   -1.8338   -2.0248 C   0  0  0  0  0  0  0  0  0  0  0  0
   -2.5108   -1.9007   -2.4814 O   0  0  0  0  0  0  0  0  0  0  0  0
   -0.3446   -2.8670   -2.1133 N   0  0  0  0  0  0  0  0  0  0  0  0
    0.8531   -2.3907   -1.5513 C   0  0  0  0  0  0  0  0  0  0  0  0
    1.9301   -3.1622   -1.5452 O   0  0  0  0  0  0  0  0  0  0  0  0
    0.5929   -1.1185   -1.1257 C   0  0  0  0  0  0  0  0  0  0  0  0
    3.0240   -0.5991    0.8282 C   0  0  0  0  0  0  0  0  0  0  0  0
    4.2823   -0.3381    1.3810 C   0  0  0  0  0  0  0  0  0  0  0  0
    4.6493    2.8995    0.3187 H   0  0  0  0  0  0  0  0  0  0  0  0
    2.4328    2.4207   -0.6410 H   0  0  0  0  0  0  0  0  0  0  0  0
   -2.7532    0.8287   -2.1686 H   0  0  0  0  0  0  0  0  0  0  0  0
   -2.1127    2.2303   -1.3177 H   0  0  0  0  0  0  0  0  0  0  0  0
   -4.5409   -0.4451   -1.1414 H   0  0  0  0  0  0  0  0  0  0  0  0
   -6.0552   -0.8396    0.7683 H   0  0  0  0  0  0  0  0  0  0  0  0
   -5.6306    0.2637    2.9491 H   0  0  0  0  0  0  0  0  0  0  0  0
   -3.6751    1.7674    3.2172 H   0  0  0  0  0  0  0  0  0  0  0  0
   -2.1489    2.1731    1.3171 H   0  0  0  0  0  0  0  0  0  0  0  0
   -2.6720   -2.7870   -2.8490 H   0  0  0  0  0  0  0  0  0  0  0  0
   -0.4620   -3.7837   -2.5209 H   0  0  0  0  0  0  0  0  0  0  0  0
    2.6729   -2.6170   -1.2271 H   0  0  0  0  0  0  0  0  0  0  0  0
    2.5586   -1.5662    1.0095 H   0  0  0  0  0  0  0  0  0  0  0  0
    4.7783   -1.1147    1.9600 H   0  0  0  0  0  0  0  0  0  0  0  0
  1  2  2  0
  2  3  1  0
  2  4  1  0
  4  5  2  0
  5  6  1  0
  6  7  2  0
  7  8  1  0
  8  9  2  0
  9 10  1  0
 10 11  1  0
 11 12  1  0
 12 13  2  0
 13 14  1  0
 14 15  2  0
 15 16  1  0
 16 17  2  0
 10 18  1  0
 18 19  2  0
 19 20  1  0
 19 21  1  0
 21 22  1  0
 22 23  1  0
 22 24  2  0
  7 25  1  0
 25 26  2  0
 26  4  1  0
 24  8  1  0
 17 12  1  0
 24 18  1  0
  5 27  1  0
  6 28  1  0
 11 29  1  0
 11 30  1  0
 13 31  1  0
 14 32  1  0
 15 33  1  0
 16 34  1  0
 17 35  1  0
 20 36  1  0
 21 37  1  0
 23 38  1  0
 25 39  1  0
 26 40  1  0
M  CHG  2   2   1   3  -1
M  END
$$$$
