
     RDKit          3D

 46 48  0  0  0  0  0  0  0  0999 V2000
   -3.7597    1.9124    0.2713 C   0  0  0  0  0  0  0  0  0  0  0  0
   -3.1172    0.5876   -0.0549 C   0  0  0  0  0  0  0  0  0  0  0  0
   -3.8252   -0.5623   -0.1131 C   0  0  0  0  0  0  0  0  0  0  0  0
   -5.2687   -0.6890    0.1066 C   0  0  0  0  0  0  0  0  0  0  0  0
   -6.1640   -0.4814   -0.9480 C   0  0  0  0  0  0  0  0  0  0  0  0
   -7.5384   -0.6014   -0.7344 C   0  0  0  0  0  0  0  0  0  0  0  0
   -8.0219   -0.9290    0.5321 C   0  0  0  0  0  0  0  0  0  0  0  0
   -7.1328   -1.1366    1.5864 C   0  0  0  0  0  0  0  0  0  0  0  0
   -5.7581   -1.0171    1.3751 C   0  0  0  0  0  0  0  0  0  0  0  0
   -1.6729    0.5108   -0.3064 C   0  0  0  0  0  0  0  0  0  0  0  0
   -0.7122    1.4463   -0.3761 C   0  0  0  0  0  0  0  0  0  0  0  0
   -0.8054    3.1581   -0.2037 S   0  0  0  0  0  0  0  0  0  0  0  0
    0.9203    3.4003   -0.4542 C   0  0  0  0  0  0  0  0  0  0  0  0
    1.6513    4.8954   -0.4392 S   0  0  0  0  0  0  0  0  0  0  0  0
    1.4987    2.1731   -0.6842 N   0  0  0  0  0  0  0  0  0  0  0  0
    2.9955    1.9794   -0.8291 N   0  0  0  0  0  0  0  0  0  0  0  0
    3.7838    1.7350    0.6742 S   0  0  0  0  0  6  0  0  0  0  0  0
    2.7751    1.4255    1.6668 O   0  0  0  0  0  0  0  0  0  0  0  0
    4.7252    2.8157    0.8637 O   0  0  0  0  0  0  0  0  0  0  0  0
    4.7051    0.2555    0.3386 C   0  0  0  0  0  0  0  0  0  0  0  0
    6.0322    0.3495   -0.0866 C   0  0  0  0  0  0  0  0  0  0  0  0
    6.7533   -0.8167   -0.3475 C   0  0  0  0  0  0  0  0  0  0  0  0
    6.1601   -2.0741   -0.1686 C   0  0  0  0  0  0  0  0  0  0  0  0
    6.9295   -3.3253   -0.4784 C   0  0  0  0  0  0  0  0  0  0  0  0
    4.8265   -2.1512    0.2559 C   0  0  0  0  0  0  0  0  0  0  0  0
    4.0994   -0.9897    0.5201 C   0  0  0  0  0  0  0  0  0  0  0  0
    0.6991    1.0459   -0.6549 C   0  0  0  0  0  0  0  0  0  0  0  0
    1.0886   -0.0992   -0.8499 O   0  0  0  0  0  0  0  0  0  0  0  0
   -4.8270    1.8328    0.4979 H   0  0  0  0  0  0  0  0  0  0  0  0
   -3.6769    2.6007   -0.5758 H   0  0  0  0  0  0  0  0  0  0  0  0
   -3.2978    2.3583    1.1581 H   0  0  0  0  0  0  0  0  0  0  0  0
   -3.3457   -1.5132   -0.3396 H   0  0  0  0  0  0  0  0  0  0  0  0
   -5.7969   -0.2236   -1.9385 H   0  0  0  0  0  0  0  0  0  0  0  0
   -8.2315   -0.4384   -1.5555 H   0  0  0  0  0  0  0  0  0  0  0  0
   -9.0922   -1.0218    0.6979 H   0  0  0  0  0  0  0  0  0  0  0  0
   -7.5100   -1.3906    2.5736 H   0  0  0  0  0  0  0  0  0  0  0  0
   -5.0734   -1.1776    2.2045 H   0  0  0  0  0  0  0  0  0  0  0  0
   -1.3295   -0.5161   -0.4655 H   0  0  0  0  0  0  0  0  0  0  0  0
    3.2169    1.2205   -1.4826 H   0  0  0  0  0  0  0  0  0  0  0  0
    6.5121    1.3179   -0.2149 H   0  0  0  0  0  0  0  0  0  0  0  0
    7.7855   -0.7402   -0.6845 H   0  0  0  0  0  0  0  0  0  0  0  0
    7.9985   -3.1838   -0.2878 H   0  0  0  0  0  0  0  0  0  0  0  0
    6.7902   -3.5992   -1.5287 H   0  0  0  0  0  0  0  0  0  0  0  0
    6.5947   -4.1558    0.1519 H   0  0  0  0  0  0  0  0  0  0  0  0
    4.3475   -3.1197    0.3892 H   0  0  0  0  0  0  0  0  0  0  0  0
    3.0683   -1.0678    0.8599 H   0  0  0  0  0  0  0  0  0  0  0  0
  1  2  1  0
  2  3  2  3
  3  4  1  0
  4  5  2  0
  5  6  1  0
  6  7  2  0
  7  8  1  0
  8  9  2  0
  2 10  1  0
 10 11  2  3
 11 12  1  0
 12 13  1  0
 13 14  2  0
 13 15  1  0
 15 16  1  0
 16 17  1  0
 17 18  2  0
 17 19  2  0
 17 20  1  0
 20 21  2  0
 21 22  1  0
 22 23  2  0
 23 24  1  0
 23 25  1  0
 25 26  2  0
 15 27  1  0
 27 28  2  0
  9  4  1  0
 27 11  1  0
 26 20  1  0
  1 29  1  0
  1 30  1  0
  1 31  1  0
  3 32  1  0
  5 33  1  0
  6 34  1  0
  7 35  1  0
  8 36  1  0
  9 37  1  0
 10 38  1  0
 16 39  1  0
 21 40  1  0
 22 41  1  0
 24 42  1  0
 24 43  1  0
 24 44  1  0
 25 45  1  0
 26 46  1  0
M  END
$$$$
