
     RDKit          3D

 42 44  0  0  0  0  0  0  0  0999 V2000
    5.7667   -4.5446    0.8853 N   0  0  0  0  0  0  0  0  0  0  0  0
    4.7232   -4.1004    1.1321 C   0  0  0  0  0  0  0  0  0  0  0  0
    3.4429   -3.5448    1.4225 C   0  0  0  0  0  0  0  0  0  0  0  0
    2.7240   -4.1365    2.5032 C   0  0  0  0  0  0  0  0  0  0  0  0
    2.1283   -4.6150    3.3770 N   0  0  0  0  0  0  0  0  0  0  0  0
    2.9430   -2.5052    0.7097 C   0  0  0  0  0  0  0  0  0  0  0  0
    1.6176   -1.9307    0.9483 C   0  0  0  0  0  0  0  0  0  0  0  0
    1.2598   -0.7180    0.4902 C   0  0  0  0  0  0  0  0  0  0  0  0
   -0.1155   -0.2545    0.5794 C   0  0  0  0  0  0  0  0  0  0  0  0
   -0.6299    0.7172   -0.2069 C   0  0  0  0  0  0  0  0  0  0  0  0
   -1.9698    1.1513   -0.1364 N   0  0  0  0  0  0  0  0  0  0  0  0
   -3.0211    0.3556    0.5321 C   0  0  0  0  0  0  0  0  0  0  0  0
   -4.3956    0.6215   -0.0741 C   0  0  0  0  0  0  0  0  0  0  0  0
   -4.7973    2.0874    0.0464 C   0  0  0  0  0  0  0  0  0  0  0  0
   -3.5898    3.0186    0.0316 C   0  0  0  0  0  0  0  0  0  0  0  0
   -2.4189    2.4212   -0.7427 C   0  0  0  0  0  0  0  0  0  0  0  0
    0.2629    1.3685   -1.2662 C   0  0  0  0  0  0  0  0  0  0  0  0
    1.5949    0.6469   -1.5249 C   0  0  0  0  0  0  0  0  0  0  0  0
    2.2198    0.2322   -0.1926 C   0  0  0  0  0  0  0  0  0  0  0  0
    3.6418   -0.3293   -0.3396 C   0  0  0  0  0  0  0  0  0  0  0  0
    3.6677   -1.8501   -0.4589 C   0  0  0  0  0  0  0  0  0  0  0  0
    0.8775   -2.5411    1.4645 H   0  0  0  0  0  0  0  0  0  0  0  0
   -0.7431   -0.7531    1.3115 H   0  0  0  0  0  0  0  0  0  0  0  0
   -2.8180   -0.7159    0.4204 H   0  0  0  0  0  0  0  0  0  0  0  0
   -3.0240    0.5863    1.6041 H   0  0  0  0  0  0  0  0  0  0  0  0
   -4.3804    0.3400   -1.1351 H   0  0  0  0  0  0  0  0  0  0  0  0
   -5.1520   -0.0097    0.4057 H   0  0  0  0  0  0  0  0  0  0  0  0
   -5.3610    2.2492    0.9730 H   0  0  0  0  0  0  0  0  0  0  0  0
   -5.4777    2.3389   -0.7760 H   0  0  0  0  0  0  0  0  0  0  0  0
   -3.8750    3.9866   -0.3956 H   0  0  0  0  0  0  0  0  0  0  0  0
   -3.2747    3.2129    1.0651 H   0  0  0  0  0  0  0  0  0  0  0  0
   -2.6981    2.2471   -1.7887 H   0  0  0  0  0  0  0  0  0  0  0  0
   -1.6110    3.1609   -0.7333 H   0  0  0  0  0  0  0  0  0  0  0  0
   -0.2752    1.4336   -2.2196 H   0  0  0  0  0  0  0  0  0  0  0  0
    0.4875    2.3936   -0.9450 H   0  0  0  0  0  0  0  0  0  0  0  0
    2.2636    1.3173   -2.0778 H   0  0  0  0  0  0  0  0  0  0  0  0
    1.4249   -0.2312   -2.1620 H   0  0  0  0  0  0  0  0  0  0  0  0
    2.3092    1.1369    0.4274 H   0  0  0  0  0  0  0  0  0  0  0  0
    4.2237   -0.0435    0.5479 H   0  0  0  0  0  0  0  0  0  0  0  0
    4.1535    0.1239   -1.1968 H   0  0  0  0  0  0  0  0  0  0  0  0
    4.7126   -2.1676   -0.5332 H   0  0  0  0  0  0  0  0  0  0  0  0
    3.1831   -2.1565   -1.3954 H   0  0  0  0  0  0  0  0  0  0  0  0
  1  2  3  0
  2  3  1  0
  3  4  1  0
  4  5  3  0
  3  6  2  3
  6  7  1  0
  7  8  2  0
  8  9  1  0
  9 10  2  0
 10 11  1  0
 11 12  1  0
 12 13  1  0
 13 14  1  0
 14 15  1  0
 15 16  1  0
 10 17  1  0
 17 18  1  0
 18 19  1  0
 19 20  1  0
 20 21  1  0
 21  6  1  0
 19  8  1  0
 16 11  1  0
  7 22  1  0
  9 23  1  0
 12 24  1  0
 12 25  1  0
 13 26  1  0
 13 27  1  0
 14 28  1  0
 14 29  1  0
 15 30  1  0
 15 31  1  0
 16 32  1  0
 16 33  1  0
 17 34  1  0
 17 35  1  0
 18 36  1  0
 18 37  1  0
 19 38  1  0
 20 39  1  0
 20 40  1  0
 21 41  1  0
 21 42  1  0
M  END
$$$$
