
     RDKit          3D

 60 63  0  0  0  0  0  0  0  0999 V2000
   -5.1576    1.8959    0.1273 O   0  0  0  0  0  0  0  0  0  0  0  0
   -5.7453    1.4583   -0.8503 C   0  0  0  0  0  0  0  0  0  0  0  0
   -5.7257    2.1168   -2.0228 O   0  0  0  0  0  0  0  0  0  0  0  0
   -6.5611    0.1910   -0.9061 C   0  0  0  0  0  0  0  0  0  0  0  0
   -8.0330    0.6031   -0.7297 C   0  0  0  0  0  0  0  0  0  0  0  0
   -8.9448   -0.5147   -0.3298 C   0  0  0  0  0  0  0  0  0  0  0  0
   -8.5023   -1.7168    0.0582 C   0  0  0  0  0  0  0  0  0  0  0  0
   -7.0464   -2.0613    0.1516 C   0  0  0  0  0  0  0  0  0  0  0  0
   -6.1183   -0.8291    0.1639 C   0  0  0  0  0  0  0  0  0  0  0  0
   -4.6695   -1.2885   -0.0580 C   0  0  0  0  0  0  0  0  0  0  0  0
   -4.4150   -2.3415   -0.6340 O   0  0  0  0  0  0  0  0  0  0  0  0
   -3.7360   -0.3918    0.4317 N   0  0  0  0  0  0  0  0  0  0  0  0
   -2.3313   -0.4892    0.3790 C   0  0  0  0  0  0  0  0  0  0  0  0
   -1.6369   -1.5709   -0.1483 C   0  0  0  0  0  0  0  0  0  0  0  0
   -0.2321   -1.5769   -0.1629 C   0  0  0  0  0  0  0  0  0  0  0  0
    0.5286   -0.5103    0.3396 C   0  0  0  0  0  0  0  0  0  0  0  0
    1.9128   -0.5189    0.3256 N   0  0  0  0  0  0  0  0  0  0  0  0
    2.6800   -1.7511    0.0850 C   0  0  0  0  0  0  0  0  0  0  0  0
    4.1162   -1.6028    0.6351 C   0  0  0  0  0  0  0  0  0  0  0  0
    4.8985   -0.5172    0.0035 N   0  0  0  0  0  0  0  0  0  0  0  0
    5.9687   -0.0706    0.9084 C   0  0  0  0  0  0  0  0  0  0  0  0
    7.0176    0.7794    0.2217 C   0  0  0  0  0  0  0  0  0  0  0  0
    7.3535    2.0443    0.7248 C   0  0  0  0  0  0  0  0  0  0  0  0
    8.3292    2.8209    0.0957 C   0  0  0  0  0  0  0  0  0  0  0  0
    8.9813    2.3413   -1.0385 C   0  0  0  0  0  0  0  0  0  0  0  0
    8.6638    1.0818   -1.5424 C   0  0  0  0  0  0  0  0  0  0  0  0
    7.6889    0.3042   -0.9153 C   0  0  0  0  0  0  0  0  0  0  0  0
    4.0175    0.5879   -0.4341 C   0  0  0  0  0  0  0  0  0  0  0  0
    2.6842    0.7365    0.3373 C   0  0  0  0  0  0  0  0  0  0  0  0
   -0.1957    0.5638    0.8754 C   0  0  0  0  0  0  0  0  0  0  0  0
   -1.5981    0.5788    0.8964 C   0  0  0  0  0  0  0  0  0  0  0  0
   -5.1550    2.8990   -1.8739 H   0  0  0  0  0  0  0  0  0  0  0  0
   -6.4116   -0.2624   -1.8958 H   0  0  0  0  0  0  0  0  0  0  0  0
   -8.1247    1.3983    0.0222 H   0  0  0  0  0  0  0  0  0  0  0  0
   -8.3957    1.0313   -1.6733 H   0  0  0  0  0  0  0  0  0  0  0  0
  -10.0155   -0.3261   -0.3719 H   0  0  0  0  0  0  0  0  0  0  0  0
   -9.2165   -2.4994    0.3072 H   0  0  0  0  0  0  0  0  0  0  0  0
   -6.8764   -2.6388    1.0693 H   0  0  0  0  0  0  0  0  0  0  0  0
   -6.8128   -2.7325   -0.6838 H   0  0  0  0  0  0  0  0  0  0  0  0
   -6.1784   -0.3723    1.1633 H   0  0  0  0  0  0  0  0  0  0  0  0
   -4.0973    0.4753    0.8273 H   0  0  0  0  0  0  0  0  0  0  0  0
   -2.1483   -2.4339   -0.5621 H   0  0  0  0  0  0  0  0  0  0  0  0
    0.2526   -2.4435   -0.6054 H   0  0  0  0  0  0  0  0  0  0  0  0
    2.7051   -1.9752   -0.9883 H   0  0  0  0  0  0  0  0  0  0  0  0
    2.2173   -2.6010    0.6020 H   0  0  0  0  0  0  0  0  0  0  0  0
    4.6536   -2.5477    0.4945 H   0  0  0  0  0  0  0  0  0  0  0  0
    4.0377   -1.4337    1.7184 H   0  0  0  0  0  0  0  0  0  0  0  0
    5.5439    0.4638    1.7687 H   0  0  0  0  0  0  0  0  0  0  0  0
    6.5000   -0.9416    1.3146 H   0  0  0  0  0  0  0  0  0  0  0  0
    6.8568    2.4350    1.6088 H   0  0  0  0  0  0  0  0  0  0  0  0
    8.5795    3.8031    0.4897 H   0  0  0  0  0  0  0  0  0  0  0  0
    9.7394    2.9471   -1.5270 H   0  0  0  0  0  0  0  0  0  0  0  0
    9.1713    0.7035   -2.4248 H   0  0  0  0  0  0  0  0  0  0  0  0
    7.4433   -0.6765   -1.3195 H   0  0  0  0  0  0  0  0  0  0  0  0
    4.5372    1.5532   -0.4368 H   0  0  0  0  0  0  0  0  0  0  0  0
    3.7731    0.3929   -1.4872 H   0  0  0  0  0  0  0  0  0  0  0  0
    2.8844    1.0289    1.3746 H   0  0  0  0  0  0  0  0  0  0  0  0
    2.1227    1.5475   -0.1414 H   0  0  0  0  0  0  0  0  0  0  0  0
    0.3218    1.4101    1.3180 H   0  0  0  0  0  0  0  0  0  0  0  0
   -2.0992    1.4428    1.3265 H   0  0  0  0  0  0  0  0  0  0  0  0
  1  2  2  0
  2  3  1  0
  2  4  1  0
  4  5  1  0
  5  6  1  0
  6  7  2  0
  7  8  1  0
  8  9  1  0
  9 10  1  0
 10 11  2  0
 10 12  1  0
 12 13  1  0
 13 14  2  0
 14 15  1  0
 15 16  2  0
 16 17  1  0
 17 18  1  0
 18 19  1  0
 19 20  1  0
 20 21  1  0
 21 22  1  0
 22 23  2  0
 23 24  1  0
 24 25  2  0
 25 26  1  0
 26 27  2  0
 20 28  1  0
 28 29  1  0
 16 30  1  0
 30 31  2  0
  9  4  1  0
 31 13  1  0
 29 17  1  0
 27 22  1  0
  3 32  1  0
  4 33  1  0
  5 34  1  0
  5 35  1  0
  6 36  1  0
  7 37  1  0
  8 38  1  0
  8 39  1  0
  9 40  1  0
 12 41  1  0
 14 42  1  0
 15 43  1  0
 18 44  1  0
 18 45  1  0
 19 46  1  0
 19 47  1  0
 21 48  1  0
 21 49  1  0
 23 50  1  0
 24 51  1  0
 25 52  1  0
 26 53  1  0
 27 54  1  0
 28 55  1  0
 28 56  1  0
 29 57  1  0
 29 58  1  0
 30 59  1  0
 31 60  1  0
M  END
$$$$
