
     RDKit          3D

 44 46  0  0  0  0  0  0  0  0999 V2000
    7.9697    1.8323    0.2076 C   0  0  0  0  0  0  0  0  0  0  0  0
    7.7245    0.4579   -0.0685 O   0  0  0  0  0  0  0  0  0  0  0  0
    6.4412    0.0119    0.0899 C   0  0  0  0  0  0  0  0  0  0  0  0
    5.3583    0.7733    0.5352 C   0  0  0  0  0  0  0  0  0  0  0  0
    4.0933    0.1904    0.6552 C   0  0  0  0  0  0  0  0  0  0  0  0
    3.9041   -1.1496    0.3155 C   0  0  0  0  0  0  0  0  0  0  0  0
    2.6427   -1.6558    0.4857 O   0  0  0  0  0  0  0  0  0  0  0  0
    1.9809   -1.8634   -0.7696 C   0  0  0  0  0  0  0  0  0  0  0  0
    0.6320   -1.2652   -0.6446 C   0  0  0  0  0  0  0  0  0  0  0  0
   -0.3390   -1.2714    0.3255 C   0  0  0  0  0  0  0  0  0  0  0  0
   -1.3992   -0.4889   -0.2080 C   0  0  0  0  0  0  0  0  0  0  0  0
   -2.6556   -0.1546    0.4846 C   0  0  0  0  0  0  0  0  0  0  0  0
   -2.7171   -0.2645    1.7115 O   0  0  0  0  0  0  0  0  0  0  0  0
   -3.7640    0.3046   -0.2505 N   0  0  0  0  0  0  0  0  0  0  0  0
   -3.9287    0.0594   -1.6801 C   0  0  0  0  0  0  0  0  0  0  0  0
   -4.8891    0.8644    0.5048 C   0  0  0  0  0  0  0  0  0  0  0  0
   -5.9432   -0.1630    0.8716 C   0  0  0  0  0  0  0  0  0  0  0  0
   -7.1204    0.7187    1.2206 C   0  0  0  0  0  0  0  0  0  0  0  0
   -7.0628    1.8472    0.3372 O   0  0  0  0  0  0  0  0  0  0  0  0
   -5.7204    1.9565   -0.1715 C   0  0  0  0  0  0  0  0  0  0  0  0
   -1.0600   -0.0215   -1.4227 N   0  0  0  0  0  0  0  0  0  0  0  0
    0.1966   -0.5234   -1.6965 O   0  0  0  0  0  0  0  0  0  0  0  0
    4.9890   -1.9231   -0.1059 C   0  0  0  0  0  0  0  0  0  0  0  0
    4.8233   -3.6022   -0.4665 Cl  0  0  0  0  0  0  0  0  0  0  0  0
    6.2506   -1.3372   -0.2244 C   0  0  0  0  0  0  0  0  0  0  0  0
    7.3860    2.4785   -0.4578 H   0  0  0  0  0  0  0  0  0  0  0  0
    7.7703    2.0662    1.2585 H   0  0  0  0  0  0  0  0  0  0  0  0
    9.0298    2.0277    0.0175 H   0  0  0  0  0  0  0  0  0  0  0  0
    5.4648    1.8190    0.8049 H   0  0  0  0  0  0  0  0  0  0  0  0
    3.2554    0.7829    1.0137 H   0  0  0  0  0  0  0  0  0  0  0  0
    2.5202   -1.4198   -1.6172 H   0  0  0  0  0  0  0  0  0  0  0  0
    1.8873   -2.9412   -0.9395 H   0  0  0  0  0  0  0  0  0  0  0  0
   -0.2974   -1.7550    1.2910 H   0  0  0  0  0  0  0  0  0  0  0  0
   -4.9735   -0.1779   -1.9024 H   0  0  0  0  0  0  0  0  0  0  0  0
   -3.3363   -0.7959   -2.0124 H   0  0  0  0  0  0  0  0  0  0  0  0
   -3.6362    0.9604   -2.2259 H   0  0  0  0  0  0  0  0  0  0  0  0
   -4.4987    1.2908    1.4395 H   0  0  0  0  0  0  0  0  0  0  0  0
   -5.6467   -0.8210    1.6937 H   0  0  0  0  0  0  0  0  0  0  0  0
   -6.1931   -0.7939    0.0109 H   0  0  0  0  0  0  0  0  0  0  0  0
   -7.0473    1.0915    2.2480 H   0  0  0  0  0  0  0  0  0  0  0  0
   -8.0796    0.2071    1.1020 H   0  0  0  0  0  0  0  0  0  0  0  0
   -5.3317    2.9556    0.0506 H   0  0  0  0  0  0  0  0  0  0  0  0
   -5.7811    1.8580   -1.2588 H   0  0  0  0  0  0  0  0  0  0  0  0
    7.1011   -1.9314   -0.5522 H   0  0  0  0  0  0  0  0  0  0  0  0
  1  2  1  0
  2  3  1  0
  3  4  2  0
  4  5  1  0
  5  6  2  0
  6  7  1  0
  7  8  1  0
  8  9  1  0
  9 10  2  0
 10 11  1  0
 11 12  1  0
 12 13  2  0
 12 14  1  0
 14 15  1  0
 14 16  1  0
 16 17  1  0
 17 18  1  0
 18 19  1  0
 19 20  1  0
 11 21  2  0
 21 22  1  0
  6 23  1  0
 23 24  1  0
 23 25  2  0
 25  3  1  0
 22  9  1  0
 20 16  1  0
  1 26  1  0
  1 27  1  0
  1 28  1  0
  4 29  1  0
  5 30  1  0
  8 31  1  0
  8 32  1  0
 10 33  1  0
 15 34  1  0
 15 35  1  0
 15 36  1  0
 16 37  1  0
 17 38  1  0
 17 39  1  0
 18 40  1  0
 18 41  1  0
 20 42  1  0
 20 43  1  0
 25 44  1  0
M  END
$$$$
