
     RDKit          3D

 41 44  0  0  0  0  0  0  0  0999 V2000
    1.0156    0.6382   -3.3442 O   0  0  0  0  0  0  0  0  0  0  0  0
    1.1509    0.4315   -2.1386 C   0  0  0  0  0  0  0  0  0  0  0  0
    2.3908   -0.0732   -1.5907 C   0  0  0  0  0  0  0  0  0  0  0  0
    2.8732   -1.6587   -1.9849 S   0  0  0  0  0  0  0  0  0  0  0  0
    4.3090   -1.5395   -1.0435 C   0  0  0  0  0  0  0  0  0  0  0  0
    5.2800   -2.5439   -0.8585 C   0  0  0  0  0  0  0  0  0  0  0  0
    6.3945   -2.2718   -0.0634 C   0  0  0  0  0  0  0  0  0  0  0  0
    6.5460   -1.0298    0.5346 C   0  0  0  0  0  0  0  0  0  0  0  0
    5.5810   -0.0355    0.3476 C   0  0  0  0  0  0  0  0  0  0  0  0
    4.4324   -0.2786   -0.4512 C   0  0  0  0  0  0  0  0  0  0  0  0
    3.3154    0.5636   -0.7941 C   0  0  0  0  0  0  0  0  0  0  0  0
    3.1901    2.1902   -0.2520 Cl  0  0  0  0  0  0  0  0  0  0  0  0
    0.1071    0.6769   -1.2468 N   0  0  0  0  0  0  0  0  0  0  0  0
   -1.1311    1.2703   -1.7667 C   0  0  0  0  0  0  0  0  0  0  0  0
   -1.9651    1.9388   -0.6628 C   0  0  0  0  0  0  0  0  0  0  0  0
   -2.2976    1.0044    0.4380 N   0  0  0  0  0  0  0  0  0  0  0  0
   -3.6288    0.5563    0.5509 C   0  0  0  0  0  0  0  0  0  0  0  0
   -4.1067    0.2079    1.8269 C   0  0  0  0  0  0  0  0  0  0  0  0
   -5.4142   -0.2517    2.0208 C   0  0  0  0  0  0  0  0  0  0  0  0
   -6.2776   -0.3795    0.9365 C   0  0  0  0  0  0  0  0  0  0  0  0
   -5.8305   -0.0486   -0.3390 C   0  0  0  0  0  0  0  0  0  0  0  0
   -4.5253    0.4107   -0.5236 C   0  0  0  0  0  0  0  0  0  0  0  0
   -4.1379    0.6756   -1.7815 F   0  0  0  0  0  0  0  0  0  0  0  0
   -1.3260   -0.0965    0.6526 C   0  0  0  0  0  0  0  0  0  0  0  0
    0.0875    0.2807    0.1701 C   0  0  0  0  0  0  0  0  0  0  0  0
    5.1675   -3.5163   -1.3306 H   0  0  0  0  0  0  0  0  0  0  0  0
    7.1505   -3.0400    0.0834 H   0  0  0  0  0  0  0  0  0  0  0  0
    7.4196   -0.8248    1.1491 H   0  0  0  0  0  0  0  0  0  0  0  0
    5.7194    0.9339    0.8217 H   0  0  0  0  0  0  0  0  0  0  0  0
   -1.6952    0.4604   -2.2432 H   0  0  0  0  0  0  0  0  0  0  0  0
   -0.8841    2.0047   -2.5413 H   0  0  0  0  0  0  0  0  0  0  0  0
   -2.8484    2.4345   -1.0803 H   0  0  0  0  0  0  0  0  0  0  0  0
   -1.3658    2.7455   -0.2204 H   0  0  0  0  0  0  0  0  0  0  0  0
   -3.4562    0.3186    2.6917 H   0  0  0  0  0  0  0  0  0  0  0  0
   -5.7554   -0.5034    3.0220 H   0  0  0  0  0  0  0  0  0  0  0  0
   -7.2935   -0.7361    1.0846 H   0  0  0  0  0  0  0  0  0  0  0  0
   -6.4854   -0.1495   -1.1986 H   0  0  0  0  0  0  0  0  0  0  0  0
   -1.6478   -0.9945    0.1073 H   0  0  0  0  0  0  0  0  0  0  0  0
   -1.2784   -0.3468    1.7188 H   0  0  0  0  0  0  0  0  0  0  0  0
    0.7639   -0.5612    0.3422 H   0  0  0  0  0  0  0  0  0  0  0  0
    0.4568    1.1371    0.7457 H   0  0  0  0  0  0  0  0  0  0  0  0
  1  2  2  0
  2  3  1  0
  3  4  1  0
  4  5  1  0
  5  6  2  0
  6  7  1  0
  7  8  2  0
  8  9  1  0
  9 10  2  0
 10 11  1  0
 11 12  1  0
  2 13  1  0
 13 14  1  0
 14 15  1  0
 15 16  1  0
 16 17  1  0
 17 18  2  0
 18 19  1  0
 19 20  2  0
 20 21  1  0
 21 22  2  0
 22 23  1  0
 16 24  1  0
 24 25  1  0
 11  3  2  0
 25 13  1  0
 10  5  1  0
 22 17  1  0
  6 26  1  0
  7 27  1  0
  8 28  1  0
  9 29  1  0
 14 30  1  0
 14 31  1  0
 15 32  1  0
 15 33  1  0
 18 34  1  0
 19 35  1  0
 20 36  1  0
 21 37  1  0
 24 38  1  0
 24 39  1  0
 25 40  1  0
 25 41  1  0
M  END
$$$$
