
     RDKit          3D

 50 52  0  0  0  0  0  0  0  0999 V2000
    5.2633    1.4984    2.3144 O   0  0  0  0  0  0  0  0  0  0  0  0
    5.0541    1.5028    1.1163 C   0  0  0  0  0  0  0  0  0  0  0  0
    5.5433    2.4664    0.3198 O   0  0  0  0  0  0  0  0  0  0  0  0
    4.2627    0.4929    0.3745 C   0  0  0  0  0  0  0  0  0  0  0  0
    4.0174    0.6073   -0.9994 C   0  0  0  0  0  0  0  0  0  0  0  0
    3.2646   -0.3668   -1.6540 C   0  0  0  0  0  0  0  0  0  0  0  0
    2.9411   -0.2298   -3.0329 N   0  0  0  0  0  0  0  0  0  0  0  0
    1.8947    1.0113   -3.5110 S   0  0  0  0  0  6  0  0  0  0  0  0
    1.4507    0.6817   -4.8475 O   0  0  0  0  0  0  0  0  0  0  0  0
    2.4979    2.2888   -3.2032 O   0  0  0  0  0  0  0  0  0  0  0  0
    0.5028    0.7864   -2.4248 C   0  0  0  0  0  0  0  0  0  0  0  0
    0.3430    1.6179   -1.3125 C   0  0  0  0  0  0  0  0  0  0  0  0
   -0.7232    1.4051   -0.4297 C   0  0  0  0  0  0  0  0  0  0  0  0
   -1.6493    0.3691   -0.6384 C   0  0  0  0  0  0  0  0  0  0  0  0
   -2.7051    0.1257    0.2566 N   0  0  0  0  0  0  0  0  0  0  0  0
   -3.8582    1.0161    0.0158 C   0  0  0  0  0  0  0  0  0  0  0  0
   -5.0683    0.4894    0.7874 C   0  0  0  0  0  0  0  0  0  0  0  0
   -4.7530    0.3271    2.2736 C   0  0  0  0  0  0  0  0  0  0  0  0
   -3.4989   -0.5220    2.4763 C   0  0  0  0  0  0  0  0  0  0  0  0
   -2.3215    0.0360    1.6765 C   0  0  0  0  0  0  0  0  0  0  0  0
   -1.4734   -0.4153   -1.7949 C   0  0  0  0  0  0  0  0  0  0  0  0
   -2.3791   -1.5122   -2.0664 N   0  0  0  0  0  4  0  0  0  0  0  0
   -1.9344   -2.6558   -1.8860 O   0  0  0  0  0  0  0  0  0  0  0  0
   -3.4903   -1.2316   -2.5370 O   0  0  0  0  0  1  0  0  0  0  0  0
   -0.4153   -0.2266   -2.6929 C   0  0  0  0  0  0  0  0  0  0  0  0
    2.7533   -1.4566   -0.9489 C   0  0  0  0  0  0  0  0  0  0  0  0
    2.9864   -1.5692    0.4270 C   0  0  0  0  0  0  0  0  0  0  0  0
    2.4318   -2.6907    1.2217 C   0  0  0  0  0  0  0  0  0  0  0  0
    2.5335   -2.8281    2.4253 O   0  0  0  0  0  0  0  0  0  0  0  0
    1.7696   -3.5781    0.4614 O   0  0  0  0  0  0  0  0  0  0  0  0
    3.7419   -0.5939    1.0880 C   0  0  0  0  0  0  0  0  0  0  0  0
    6.0417    3.0557    0.9246 H   0  0  0  0  0  0  0  0  0  0  0  0
    4.4131    1.4523   -1.5598 H   0  0  0  0  0  0  0  0  0  0  0  0
    2.8053   -1.0770   -3.5847 H   0  0  0  0  0  0  0  0  0  0  0  0
    1.0464    2.4256   -1.1154 H   0  0  0  0  0  0  0  0  0  0  0  0
   -0.8229    2.0678    0.4273 H   0  0  0  0  0  0  0  0  0  0  0  0
   -4.1116    1.0521   -1.0507 H   0  0  0  0  0  0  0  0  0  0  0  0
   -3.6255    2.0401    0.3361 H   0  0  0  0  0  0  0  0  0  0  0  0
   -5.3687   -0.4823    0.3753 H   0  0  0  0  0  0  0  0  0  0  0  0
   -5.9164    1.1710    0.6596 H   0  0  0  0  0  0  0  0  0  0  0  0
   -5.6033   -0.1359    2.7864 H   0  0  0  0  0  0  0  0  0  0  0  0
   -4.6027    1.3152    2.7254 H   0  0  0  0  0  0  0  0  0  0  0  0
   -3.2422   -0.5579    3.5407 H   0  0  0  0  0  0  0  0  0  0  0  0
   -3.7043   -1.5514    2.1569 H   0  0  0  0  0  0  0  0  0  0  0  0
   -1.4631   -0.6366    1.7967 H   0  0  0  0  0  0  0  0  0  0  0  0
   -2.0420    1.0189    2.0757 H   0  0  0  0  0  0  0  0  0  0  0  0
   -0.3086   -0.8647   -3.5673 H   0  0  0  0  0  0  0  0  0  0  0  0
    2.1565   -2.2070   -1.4619 H   0  0  0  0  0  0  0  0  0  0  0  0
    1.4421   -4.2516    1.0955 H   0  0  0  0  0  0  0  0  0  0  0  0
    3.9241   -0.6797    2.1595 H   0  0  0  0  0  0  0  0  0  0  0  0
  1  2  2  0
  2  3  1  0
  2  4  1  0
  4  5  2  0
  5  6  1  0
  6  7  1  0
  7  8  1  0
  8  9  2  0
  8 10  2  0
  8 11  1  0
 11 12  2  0
 12 13  1  0
 13 14  2  0
 14 15  1  0
 15 16  1  0
 16 17  1  0
 17 18  1  0
 18 19  1  0
 19 20  1  0
 14 21  1  0
 21 22  1  0
 22 23  2  0
 22 24  1  0
 21 25  2  0
  6 26  2  0
 26 27  1  0
 27 28  1  0
 28 29  2  0
 28 30  1  0
 27 31  2  0
 31  4  1  0
 25 11  1  0
 20 15  1  0
  3 32  1  0
  5 33  1  0
  7 34  1  0
 12 35  1  0
 13 36  1  0
 16 37  1  0
 16 38  1  0
 17 39  1  0
 17 40  1  0
 18 41  1  0
 18 42  1  0
 19 43  1  0
 19 44  1  0
 20 45  1  0
 20 46  1  0
 25 47  1  0
 26 48  1  0
 30 49  1  0
 31 50  1  0
M  CHG  2  22   1  24  -1
M  END
$$$$
