
     RDKit          3D

 40 41  0  0  0  0  0  0  0  0999 V2000
   -5.4404   -0.2589    0.5156 C   0  0  0  0  0  0  0  0  0  0  0  0
   -4.4404    0.7695    0.2379 N   0  0  0  0  0  0  0  0  0  0  0  0
   -3.5710    1.0201    1.4042 C   0  0  0  0  0  0  0  0  0  0  0  0
   -2.5566   -0.0967    1.7119 C   0  0  0  0  0  0  0  0  0  0  0  0
   -1.7955   -0.5236    0.5331 N   0  0  0  0  0  0  0  0  0  0  0  0
   -0.5852   -1.1884    0.7664 C   0  0  0  0  0  0  0  0  0  0  0  0
   -0.1233   -1.2854    1.9048 O   0  0  0  0  0  0  0  0  0  0  0  0
    0.1205   -1.7539   -0.4650 C   0  0  0  0  0  0  0  0  0  0  0  0
    1.7447   -2.5047   -0.0970 S   0  0  0  0  0  0  0  0  0  0  0  0
    2.7515   -1.0315    0.0139 C   0  0  0  0  0  0  0  0  0  0  0  0
    2.9327   -0.4592    1.2799 C   0  0  0  0  0  0  0  0  0  0  0  0
    3.7472    0.6679    1.4576 C   0  0  0  0  0  0  0  0  0  0  0  0
    4.4157    1.2522    0.3720 C   0  0  0  0  0  0  0  0  0  0  0  0
    5.3157    2.4502    0.5681 C   0  0  0  0  0  0  0  0  0  0  0  0
    5.0139    3.1738    1.6803 F   0  0  0  0  0  0  0  0  0  0  0  0
    6.6235    2.0974    0.6880 F   0  0  0  0  0  0  0  0  0  0  0  0
    5.2547    3.3237   -0.4745 F   0  0  0  0  0  0  0  0  0  0  0  0
    4.2627    0.6772   -0.8975 C   0  0  0  0  0  0  0  0  0  0  0  0
    3.4359   -0.4475   -1.0597 C   0  0  0  0  0  0  0  0  0  0  0  0
    3.3180   -0.9885   -2.3986 N   0  0  0  0  0  4  0  0  0  0  0  0
    2.2175   -0.8811   -2.9574 O   0  0  0  0  0  0  0  0  0  0  0  0
    4.3436   -1.4623   -2.9043 O   0  0  0  0  0  1  0  0  0  0  0  0
   -2.5855   -0.7060   -0.6918 C   0  0  0  0  0  0  0  0  0  0  0  0
   -3.6040    0.4272   -0.9266 C   0  0  0  0  0  0  0  0  0  0  0  0
   -6.1005   -0.3910   -0.3491 H   0  0  0  0  0  0  0  0  0  0  0  0
   -5.0056   -1.2331    0.7611 H   0  0  0  0  0  0  0  0  0  0  0  0
   -6.0797    0.0486    1.3508 H   0  0  0  0  0  0  0  0  0  0  0  0
   -3.0145    1.9464    1.2086 H   0  0  0  0  0  0  0  0  0  0  0  0
   -4.1788    1.2239    2.2943 H   0  0  0  0  0  0  0  0  0  0  0  0
   -3.0666   -0.9833    2.1073 H   0  0  0  0  0  0  0  0  0  0  0  0
   -1.8680    0.2536    2.4893 H   0  0  0  0  0  0  0  0  0  0  0  0
    0.2460   -0.9603   -1.2054 H   0  0  0  0  0  0  0  0  0  0  0  0
   -0.5060   -2.5455   -0.8873 H   0  0  0  0  0  0  0  0  0  0  0  0
    2.4411   -0.8901    2.1537 H   0  0  0  0  0  0  0  0  0  0  0  0
    3.8597    1.0824    2.4603 H   0  0  0  0  0  0  0  0  0  0  0  0
    4.7863    1.1020   -1.7545 H   0  0  0  0  0  0  0  0  0  0  0  0
   -3.0961   -1.6722   -0.6032 H   0  0  0  0  0  0  0  0  0  0  0  0
   -1.9274   -0.7678   -1.5625 H   0  0  0  0  0  0  0  0  0  0  0  0
   -3.0504    1.3312   -1.2137 H   0  0  0  0  0  0  0  0  0  0  0  0
   -4.2355    0.1836   -1.7897 H   0  0  0  0  0  0  0  0  0  0  0  0
  1  2  1  0
  2  3  1  0
  3  4  1  0
  4  5  1  0
  5  6  1  0
  6  7  2  0
  6  8  1  0
  8  9  1  0
  9 10  1  0
 10 11  2  0
 11 12  1  0
 12 13  2  0
 13 14  1  0
 14 15  1  0
 14 16  1  0
 14 17  1  0
 13 18  1  0
 18 19  2  0
 19 20  1  0
 20 21  2  0
 20 22  1  0
  5 23  1  0
 23 24  1  0
 24  2  1  0
 19 10  1  0
  1 25  1  0
  1 26  1  0
  1 27  1  0
  3 28  1  0
  3 29  1  0
  4 30  1  0
  4 31  1  0
  8 32  1  0
  8 33  1  0
 11 34  1  0
 12 35  1  0
 18 36  1  0
 23 37  1  0
 23 38  1  0
 24 39  1  0
 24 40  1  0
M  CHG  2  20   1  22  -1
M  END
$$$$
