
     RDKit          3D

 46 49  0  0  0  0  0  0  0  0999 V2000
   -6.1730    0.5614    1.6582 C   0  0  0  0  0  0  0  0  0  0  0  0
   -4.7613    0.6262    1.8101 O   0  0  0  0  0  0  0  0  0  0  0  0
   -4.0011    0.1563    0.7741 C   0  0  0  0  0  0  0  0  0  0  0  0
   -4.4846   -0.3211   -0.4421 C   0  0  0  0  0  0  0  0  0  0  0  0
   -3.5967   -0.7554   -1.4323 C   0  0  0  0  0  0  0  0  0  0  0  0
   -2.2184   -0.7211   -1.2068 C   0  0  0  0  0  0  0  0  0  0  0  0
   -1.2603   -1.1172   -2.1127 O   0  0  0  0  0  0  0  0  0  0  0  0
   -1.7183   -1.5922   -3.3722 C   0  0  0  0  0  0  0  0  0  0  0  0
   -1.7149   -0.2639    0.0324 C   0  0  0  0  0  0  0  0  0  0  0  0
   -0.3131   -0.1982    0.2046 N   0  0  0  0  0  0  0  0  0  0  0  0
    0.4826   -0.2935    1.3808 C   0  0  0  0  0  0  0  0  0  0  0  0
   -0.1225   -0.4657    2.5858 N   0  0  0  0  0  0  0  0  0  0  0  0
    0.7782   -0.5779    3.5958 C   0  0  0  0  0  0  0  0  0  0  0  0
    0.5023   -0.7600    4.8873 N   0  0  0  0  0  0  0  0  0  0  0  0
    1.7483   -0.8175    5.5104 O   0  0  0  0  0  0  0  0  0  0  0  0
    2.7971   -0.6689    4.6030 N   0  0  0  0  0  0  0  0  0  0  0  0
    2.2003   -0.5190    3.4204 C   0  0  0  0  0  0  0  0  0  0  0  0
    2.8191   -0.3350    2.2241 N   0  0  0  0  0  0  0  0  0  0  0  0
    1.9302   -0.1992    1.2029 C   0  0  0  0  0  0  0  0  0  0  0  0
    2.4503    0.0063   -0.1067 N   0  0  0  0  0  0  0  0  0  0  0  0
    2.0910    1.3258   -0.6727 C   0  0  0  0  0  0  0  0  0  0  0  0
    3.3198    2.1044   -1.1403 C   0  0  0  0  0  0  0  0  0  0  0  0
    4.1820    1.2917   -2.1039 C   0  0  0  0  0  0  0  0  0  0  0  0
    4.2825   -0.1819   -1.7066 C   0  0  0  0  0  0  0  0  0  0  0  0
    3.8527   -0.4086   -0.2595 C   0  0  0  0  0  0  0  0  0  0  0  0
   -2.6209    0.1888    0.9988 C   0  0  0  0  0  0  0  0  0  0  0  0
   -6.5100   -0.4721    1.5261 H   0  0  0  0  0  0  0  0  0  0  0  0
   -6.5097    1.1962    0.8320 H   0  0  0  0  0  0  0  0  0  0  0  0
   -6.6263    0.9442    2.5777 H   0  0  0  0  0  0  0  0  0  0  0  0
   -5.5471   -0.3611   -0.6574 H   0  0  0  0  0  0  0  0  0  0  0  0
   -4.0162   -1.1110   -2.3670 H   0  0  0  0  0  0  0  0  0  0  0  0
   -0.8397   -1.8601   -3.9670 H   0  0  0  0  0  0  0  0  0  0  0  0
   -2.2615   -0.8117   -3.9149 H   0  0  0  0  0  0  0  0  0  0  0  0
   -2.3284   -2.4940   -3.2559 H   0  0  0  0  0  0  0  0  0  0  0  0
    0.1669   -0.6728   -0.5633 H   0  0  0  0  0  0  0  0  0  0  0  0
    1.4299    1.1595   -1.5319 H   0  0  0  0  0  0  0  0  0  0  0  0
    1.5428    1.9527    0.0425 H   0  0  0  0  0  0  0  0  0  0  0  0
    3.9225    2.3863   -0.2673 H   0  0  0  0  0  0  0  0  0  0  0  0
    3.0121    3.0408   -1.6196 H   0  0  0  0  0  0  0  0  0  0  0  0
    3.7730    1.3600   -3.1193 H   0  0  0  0  0  0  0  0  0  0  0  0
    5.1835    1.7361   -2.1461 H   0  0  0  0  0  0  0  0  0  0  0  0
    3.6415   -0.7750   -2.3717 H   0  0  0  0  0  0  0  0  0  0  0  0
    5.3072   -0.5389   -1.8591 H   0  0  0  0  0  0  0  0  0  0  0  0
    3.9513   -1.4765   -0.0279 H   0  0  0  0  0  0  0  0  0  0  0  0
    4.5200    0.1468    0.4126 H   0  0  0  0  0  0  0  0  0  0  0  0
   -2.2630    0.5861    1.9445 H   0  0  0  0  0  0  0  0  0  0  0  0
  1  2  1  0
  2  3  1  0
  3  4  2  0
  4  5  1  0
  5  6  2  0
  6  7  1  0
  7  8  1  0
  6  9  1  0
  9 10  1  0
 10 11  1  0
 11 12  2  0
 12 13  1  0
 13 14  2  0
 14 15  1  0
 15 16  1  0
 16 17  2  0
 17 18  1  0
 18 19  2  0
 19 20  1  0
 20 21  1  0
 21 22  1  0
 22 23  1  0
 23 24  1  0
 24 25  1  0
  9 26  2  0
 26  3  1  0
 19 11  1  0
 25 20  1  0
 17 13  1  0
  1 27  1  0
  1 28  1  0
  1 29  1  0
  4 30  1  0
  5 31  1  0
  8 32  1  0
  8 33  1  0
  8 34  1  0
 10 35  1  0
 21 36  1  0
 21 37  1  0
 22 38  1  0
 22 39  1  0
 23 40  1  0
 23 41  1  0
 24 42  1  0
 24 43  1  0
 25 44  1  0
 25 45  1  0
 26 46  1  0
M  END
$$$$
