
     RDKit          3D

 45 47  0  0  0  0  0  0  0  0999 V2000
   -3.0727   -2.3971   -0.9242 O   0  0  0  0  0  0  0  0  0  0  0  0
   -2.3730   -1.4143   -1.1563 C   0  0  0  0  0  0  0  0  0  0  0  0
   -0.9351   -1.5396   -1.6664 C   0  0  0  0  0  0  0  0  0  0  0  0
   -0.1617   -2.4517   -0.8906 O   0  0  0  0  0  0  0  0  0  0  0  0
    0.1391   -1.9988    0.3596 C   0  0  0  0  0  0  0  0  0  0  0  0
   -0.1854   -0.8992    0.7955 O   0  0  0  0  0  0  0  0  0  0  0  0
    0.9059   -3.0327    1.1494 C   0  0  0  0  0  0  0  0  0  0  0  0
    2.5313   -3.3926    0.4041 S   0  0  0  0  0  0  0  0  0  0  0  0
    3.2551   -1.7627    0.4254 C   0  0  0  0  0  0  0  0  0  0  0  0
    3.5054   -1.0960    1.6250 C   0  0  0  0  0  0  0  0  0  0  0  0
    4.0719    0.1814    1.6146 C   0  0  0  0  0  0  0  0  0  0  0  0
    4.4024    0.8095    0.4044 C   0  0  0  0  0  0  0  0  0  0  0  0
    4.9733    2.0919    0.3783 C   0  0  0  0  0  0  0  0  0  0  0  0
    5.3036    2.7007   -0.8336 C   0  0  0  0  0  0  0  0  0  0  0  0
    5.0684    2.0350   -2.0331 C   0  0  0  0  0  0  0  0  0  0  0  0
    4.5008    0.7596   -2.0238 C   0  0  0  0  0  0  0  0  0  0  0  0
    4.1615    0.1333   -0.8131 C   0  0  0  0  0  0  0  0  0  0  0  0
    3.5924   -1.1512   -0.7863 C   0  0  0  0  0  0  0  0  0  0  0  0
   -2.8025   -0.1123   -0.9780 N   0  0  0  0  0  0  0  0  0  0  0  0
   -4.0908    0.1578   -0.3735 C   0  0  0  0  0  0  0  0  0  0  0  0
   -4.5779    1.5768   -0.6552 C   0  0  0  0  0  0  0  0  0  0  0  0
   -5.5453    1.8410    0.4853 C   0  0  0  0  0  0  0  0  0  0  0  0
   -4.8318    1.2481    1.6908 C   0  0  0  0  0  0  0  0  0  0  0  0
   -4.0672    0.0374    1.1569 C   0  0  0  0  0  0  0  0  0  0  0  0
   -0.4333   -0.5658   -1.7235 H   0  0  0  0  0  0  0  0  0  0  0  0
   -0.9850   -1.9324   -2.6874 H   0  0  0  0  0  0  0  0  0  0  0  0
    1.0337   -2.6792    2.1776 H   0  0  0  0  0  0  0  0  0  0  0  0
    0.3121   -3.9515    1.1935 H   0  0  0  0  0  0  0  0  0  0  0  0
    3.2740   -1.5615    2.5797 H   0  0  0  0  0  0  0  0  0  0  0  0
    4.2573    0.6821    2.5621 H   0  0  0  0  0  0  0  0  0  0  0  0
    5.1679    2.6267    1.3052 H   0  0  0  0  0  0  0  0  0  0  0  0
    5.7477    3.6930   -0.8395 H   0  0  0  0  0  0  0  0  0  0  0  0
    5.3291    2.5070   -2.9776 H   0  0  0  0  0  0  0  0  0  0  0  0
    4.3266    0.2548   -2.9711 H   0  0  0  0  0  0  0  0  0  0  0  0
    3.4107   -1.6784   -1.7207 H   0  0  0  0  0  0  0  0  0  0  0  0
   -2.0754    0.5790   -0.8263 H   0  0  0  0  0  0  0  0  0  0  0  0
   -4.8195   -0.5589   -0.7740 H   0  0  0  0  0  0  0  0  0  0  0  0
   -5.0600    1.6568   -1.6362 H   0  0  0  0  0  0  0  0  0  0  0  0
   -3.7515    2.2994   -0.6276 H   0  0  0  0  0  0  0  0  0  0  0  0
   -5.7611    2.9052    0.6127 H   0  0  0  0  0  0  0  0  0  0  0  0
   -6.4910    1.3141    0.3114 H   0  0  0  0  0  0  0  0  0  0  0  0
   -5.5281    0.9779    2.4903 H   0  0  0  0  0  0  0  0  0  0  0  0
   -4.1237    1.9783    2.1002 H   0  0  0  0  0  0  0  0  0  0  0  0
   -4.5495   -0.8965    1.4693 H   0  0  0  0  0  0  0  0  0  0  0  0
   -3.0487    0.0255    1.5641 H   0  0  0  0  0  0  0  0  0  0  0  0
  1  2  2  0
  2  3  1  0
  3  4  1  0
  4  5  1  0
  5  6  2  0
  5  7  1  0
  7  8  1  0
  8  9  1  0
  9 10  2  0
 10 11  1  0
 11 12  2  0
 12 13  1  0
 13 14  2  0
 14 15  1  0
 15 16  2  0
 16 17  1  0
 17 18  2  0
  2 19  1  0
 19 20  1  0
 20 21  1  0
 21 22  1  0
 22 23  1  0
 23 24  1  0
 18  9  1  0
 24 20  1  0
 17 12  1  0
  3 25  1  0
  3 26  1  0
  7 27  1  0
  7 28  1  0
 10 29  1  0
 11 30  1  0
 13 31  1  0
 14 32  1  0
 15 33  1  0
 16 34  1  0
 18 35  1  0
 19 36  1  0
 20 37  1  0
 21 38  1  0
 21 39  1  0
 22 40  1  0
 22 41  1  0
 23 42  1  0
 23 43  1  0
 24 44  1  0
 24 45  1  0
M  END
$$$$
