
     RDKit          3D

 61 65  0  0  0  0  0  0  0  0999 V2000
    5.9537    4.8273    0.9144 C   0  0  0  0  0  0  0  0  0  0  0  0
    4.7248    4.6340    0.2282 O   0  0  0  0  0  0  0  0  0  0  0  0
    4.1287    3.4141    0.3726 C   0  0  0  0  0  0  0  0  0  0  0  0
    2.8484    3.3196   -0.1795 C   0  0  0  0  0  0  0  0  0  0  0  0
    2.1205    2.1295   -0.0974 C   0  0  0  0  0  0  0  0  0  0  0  0
    2.6703    1.0041    0.5280 C   0  0  0  0  0  0  0  0  0  0  0  0
    1.8987   -0.3007    0.6136 C   0  0  0  0  0  0  0  0  0  0  0  0
    1.8401   -1.0065   -0.6629 N   0  0  0  0  0  0  0  0  0  0  0  0
    2.9870   -1.7326   -1.0353 C   0  0  0  0  0  0  0  0  0  0  0  0
    3.9221   -1.9506   -0.2602 O   0  0  0  0  0  0  0  0  0  0  0  0
    2.9499   -2.3482   -2.4512 C   0  0  0  0  0  0  0  0  0  0  0  0
    4.3545   -2.6938   -2.9382 C   0  0  0  0  0  0  0  0  0  0  0  0
    2.3422   -1.4259   -3.4032 N   0  0  0  0  0  0  0  0  0  0  0  0
    1.0750   -0.9927   -2.9873 C   0  0  0  0  0  0  0  0  0  0  0  0
    0.2041   -0.7722   -3.9835 N   0  0  0  0  0  0  0  0  0  0  0  0
   -0.9731   -0.2653   -3.6226 C   0  0  0  0  0  0  0  0  0  0  0  0
   -1.3697   -0.0175   -2.3708 N   0  0  0  0  0  0  0  0  0  0  0  0
   -0.4974   -0.2899   -1.3738 C   0  0  0  0  0  0  0  0  0  0  0  0
   -0.9996   -0.1900   -0.0580 N   0  0  0  0  0  0  0  0  0  0  0  0
   -1.9905    0.9007    0.1184 C   0  0  0  0  0  0  0  0  0  0  0  0
   -3.4522    0.4065    0.1293 C   0  0  0  0  0  0  0  0  0  0  0  0
   -3.6665   -0.5955    1.1935 N   0  0  0  0  0  0  0  0  0  0  0  0
   -4.9128   -0.8019    1.7695 C   0  0  0  0  0  0  0  0  0  0  0  0
   -5.0659   -1.5056    2.9770 C   0  0  0  0  0  0  0  0  0  0  0  0
   -6.3191   -1.7186    3.5613 C   0  0  0  0  0  0  0  0  0  0  0  0
   -7.4669   -1.2275    2.9510 C   0  0  0  0  0  0  0  0  0  0  0  0
   -7.3555   -0.5228    1.7608 C   0  0  0  0  0  0  0  0  0  0  0  0
   -6.0960   -0.3168    1.1830 C   0  0  0  0  0  0  0  0  0  0  0  0
   -2.4986   -1.4212    1.5516 C   0  0  0  0  0  0  0  0  0  0  0  0
   -1.4937   -1.5228    0.3825 C   0  0  0  0  0  0  0  0  0  0  0  0
    0.8010   -0.7551   -1.6338 C   0  0  0  0  0  0  0  0  0  0  0  0
    3.9627    1.1014    1.0659 C   0  0  0  0  0  0  0  0  0  0  0  0
    4.6876    2.2976    0.9933 C   0  0  0  0  0  0  0  0  0  0  0  0
    5.8362    4.6653    1.9921 H   0  0  0  0  0  0  0  0  0  0  0  0
    6.2598    5.8646    0.7606 H   0  0  0  0  0  0  0  0  0  0  0  0
    6.7391    4.1887    0.5036 H   0  0  0  0  0  0  0  0  0  0  0  0
    2.4109    4.1818   -0.6776 H   0  0  0  0  0  0  0  0  0  0  0  0
    1.1271    2.0898   -0.5334 H   0  0  0  0  0  0  0  0  0  0  0  0
    2.3920   -0.9608    1.3404 H   0  0  0  0  0  0  0  0  0  0  0  0
    0.9264   -0.1129    1.0630 H   0  0  0  0  0  0  0  0  0  0  0  0
    2.3576   -3.2708   -2.3917 H   0  0  0  0  0  0  0  0  0  0  0  0
    4.3189   -3.1664   -3.9261 H   0  0  0  0  0  0  0  0  0  0  0  0
    4.8607   -3.3826   -2.2513 H   0  0  0  0  0  0  0  0  0  0  0  0
    4.9718   -1.7888   -3.0204 H   0  0  0  0  0  0  0  0  0  0  0  0
    2.2724   -1.7352   -4.3671 H   0  0  0  0  0  0  0  0  0  0  0  0
   -1.6794   -0.0445   -4.4163 H   0  0  0  0  0  0  0  0  0  0  0  0
   -1.8627    1.7023   -0.6226 H   0  0  0  0  0  0  0  0  0  0  0  0
   -1.7746    1.3650    1.0912 H   0  0  0  0  0  0  0  0  0  0  0  0
   -4.0813    1.2870    0.2922 H   0  0  0  0  0  0  0  0  0  0  0  0
   -3.7168   -0.0314   -0.8382 H   0  0  0  0  0  0  0  0  0  0  0  0
   -4.1993   -1.8884    3.5079 H   0  0  0  0  0  0  0  0  0  0  0  0
   -6.3909   -2.2632    4.4983 H   0  0  0  0  0  0  0  0  0  0  0  0
   -8.4384   -1.3895    3.4022 H   0  0  0  0  0  0  0  0  0  0  0  0
   -8.2445   -0.1320    1.2715 H   0  0  0  0  0  0  0  0  0  0  0  0
   -6.0653    0.2234    0.2408 H   0  0  0  0  0  0  0  0  0  0  0  0
   -2.8052   -2.4430    1.8045 H   0  0  0  0  0  0  0  0  0  0  0  0
   -2.0049   -0.9836    2.4275 H   0  0  0  0  0  0  0  0  0  0  0  0
   -0.6433   -2.1359    0.7029 H   0  0  0  0  0  0  0  0  0  0  0  0
   -1.9883   -2.0501   -0.4462 H   0  0  0  0  0  0  0  0  0  0  0  0
    4.4226    0.2347    1.5368 H   0  0  0  0  0  0  0  0  0  0  0  0
    5.6854    2.3152    1.4202 H   0  0  0  0  0  0  0  0  0  0  0  0
  1  2  1  0
  2  3  1  0
  3  4  2  0
  4  5  1  0
  5  6  2  0
  6  7  1  0
  7  8  1  0
  8  9  1  0
  9 10  2  0
  9 11  1  0
 11 12  1  0
 11 13  1  0
 13 14  1  0
 14 15  2  0
 15 16  1  0
 16 17  2  0
 17 18  1  0
 18 19  1  0
 19 20  1  0
 20 21  1  0
 21 22  1  0
 22 23  1  0
 23 24  2  0
 24 25  1  0
 25 26  2  0
 26 27  1  0
 27 28  2  0
 22 29  1  0
 29 30  1  0
 18 31  2  0
  6 32  1  0
 32 33  2  0
 33  3  1  0
 31  8  1  0
 31 14  1  0
 30 19  1  0
 28 23  1  0
  1 34  1  0
  1 35  1  0
  1 36  1  0
  4 37  1  0
  5 38  1  0
  7 39  1  0
  7 40  1  0
 11 41  1  0
 12 42  1  0
 12 43  1  0
 12 44  1  0
 13 45  1  0
 16 46  1  0
 20 47  1  0
 20 48  1  0
 21 49  1  0
 21 50  1  0
 24 51  1  0
 25 52  1  0
 26 53  1  0
 27 54  1  0
 28 55  1  0
 29 56  1  0
 29 57  1  0
 30 58  1  0
 30 59  1  0
 32 60  1  0
 33 61  1  0
M  END
$$$$
