
     RDKit          3D

 50 53  0  0  0  0  0  0  0  0999 V2000
   -2.7814    3.0137   -0.2783 C   0  0  0  0  0  0  0  0  0  0  0  0
   -2.1770    1.8875    0.3566 O   0  0  0  0  0  0  0  0  0  0  0  0
   -0.8515    1.7566    0.1059 C   0  0  0  0  0  0  0  0  0  0  0  0
   -0.1613    2.5384   -0.5305 O   0  0  0  0  0  0  0  0  0  0  0  0
   -0.3015    0.5741    0.8092 C   0  0  0  0  0  0  0  0  0  0  0  0
   -0.8784   -0.6540    0.8500 C   0  0  0  0  0  0  0  0  0  0  0  0
   -2.1089   -1.0140    0.1309 C   0  0  0  0  0  0  0  0  0  0  0  0
   -2.1035   -1.1054   -1.2671 C   0  0  0  0  0  0  0  0  0  0  0  0
   -3.2691   -1.4409   -1.9574 C   0  0  0  0  0  0  0  0  0  0  0  0
   -4.4489   -1.6871   -1.2547 C   0  0  0  0  0  0  0  0  0  0  0  0
   -4.4637   -1.5996    0.1414 C   0  0  0  0  0  0  0  0  0  0  0  0
   -5.6764   -1.8471    0.8642 C   0  0  0  0  0  0  0  0  0  0  0  0
   -6.6573   -2.0458    1.4519 N   0  0  0  0  0  0  0  0  0  0  0  0
   -3.2933   -1.2662    0.8328 C   0  0  0  0  0  0  0  0  0  0  0  0
   -0.2124   -1.7913    1.6270 C   0  0  0  0  0  0  0  0  0  0  0  0
    1.0697   -1.3214    2.3645 C   0  0  0  0  0  0  0  0  0  0  0  0
    0.7309   -0.4130    3.5597 C   0  0  0  0  0  0  0  0  0  0  0  0
    0.7933    1.0215    3.0000 C   0  0  0  0  0  0  0  0  0  0  0  0
    1.0298    0.8341    1.4972 C   0  0  0  0  0  0  0  0  0  0  0  0
    1.7833   -0.4161    1.4768 N   0  0  0  0  0  0  0  0  0  0  0  0
    2.5316   -0.9104    0.4339 C   0  0  0  0  0  0  0  0  0  0  0  0
    2.7878   -2.1049    0.3135 O   0  0  0  0  0  0  0  0  0  0  0  0
    2.9414    0.0300   -0.4702 N   0  0  0  0  0  0  0  0  0  0  0  0
    3.7351   -0.3632   -1.6095 C   0  0  0  0  0  0  0  0  0  0  0  0
    3.8929    0.8079   -2.5253 C   0  0  0  0  0  0  0  0  0  0  0  0
    3.8577    0.6227   -4.0212 C   0  0  0  0  0  0  0  0  0  0  0  0
    2.7184    1.3143   -3.3251 C   0  0  0  0  0  0  0  0  0  0  0  0
   -2.3552    3.9444    0.1089 H   0  0  0  0  0  0  0  0  0  0  0  0
   -3.8502    2.9991   -0.0478 H   0  0  0  0  0  0  0  0  0  0  0  0
   -2.6612    2.9537   -1.3646 H   0  0  0  0  0  0  0  0  0  0  0  0
   -1.1877   -0.9214   -1.8268 H   0  0  0  0  0  0  0  0  0  0  0  0
   -3.2550   -1.5116   -3.0426 H   0  0  0  0  0  0  0  0  0  0  0  0
   -5.3529   -1.9472   -1.8023 H   0  0  0  0  0  0  0  0  0  0  0  0
   -3.3084   -1.1889    1.9185 H   0  0  0  0  0  0  0  0  0  0  0  0
    0.0599   -2.5779    0.9110 H   0  0  0  0  0  0  0  0  0  0  0  0
   -0.9101   -2.2343    2.3473 H   0  0  0  0  0  0  0  0  0  0  0  0
    1.6834   -2.1794    2.6579 H   0  0  0  0  0  0  0  0  0  0  0  0
   -0.2421   -0.6421    4.0062 H   0  0  0  0  0  0  0  0  0  0  0  0
    1.4871   -0.5235    4.3460 H   0  0  0  0  0  0  0  0  0  0  0  0
   -0.1070    1.5991    3.2352 H   0  0  0  0  0  0  0  0  0  0  0  0
    1.6473    1.5423    3.4505 H   0  0  0  0  0  0  0  0  0  0  0  0
    1.5922    1.6594    1.0556 H   0  0  0  0  0  0  0  0  0  0  0  0
    3.1366    0.9407   -0.0880 H   0  0  0  0  0  0  0  0  0  0  0  0
    4.7132   -0.7008   -1.2499 H   0  0  0  0  0  0  0  0  0  0  0  0
    3.2459   -1.2096   -2.1053 H   0  0  0  0  0  0  0  0  0  0  0  0
    4.5843    1.5430   -2.1285 H   0  0  0  0  0  0  0  0  0  0  0  0
    3.6777   -0.3686   -4.4219 H   0  0  0  0  0  0  0  0  0  0  0  0
    4.5260    1.2279   -4.6234 H   0  0  0  0  0  0  0  0  0  0  0  0
    2.6157    2.3864   -3.4491 H   0  0  0  0  0  0  0  0  0  0  0  0
    1.7734    0.7887   -3.2417 H   0  0  0  0  0  0  0  0  0  0  0  0
  1  2  1  0
  2  3  1  0
  3  4  2  0
  3  5  1  0
  5  6  2  0
  6  7  1  0
  7  8  2  0
  8  9  1  0
  9 10  2  0
 10 11  1  0
 11 12  1  0
 12 13  3  0
 11 14  2  0
  6 15  1  0
 15 16  1  0
 16 17  1  0
 17 18  1  0
 18 19  1  0
 19 20  1  0
 20 21  1  0
 21 22  2  0
 21 23  1  0
 23 24  1  0
 24 25  1  0
 25 26  1  0
 26 27  1  0
 19  5  1  0
 27 25  1  0
 14  7  1  0
 20 16  1  0
  1 28  1  0
  1 29  1  0
  1 30  1  0
  8 31  1  0
  9 32  1  0
 10 33  1  0
 14 34  1  0
 15 35  1  0
 15 36  1  0
 16 37  1  0
 17 38  1  0
 17 39  1  0
 18 40  1  0
 18 41  1  0
 19 42  1  0
 23 43  1  0
 24 44  1  0
 24 45  1  0
 25 46  1  0
 26 47  1  0
 26 48  1  0
 27 49  1  0
 27 50  1  0
M  END
$$$$
