
     RDKit          3D

 46 47  0  0  0  0  0  0  0  0999 V2000
    1.3046    1.4845    4.5817 C   0  0  0  0  0  0  0  0  0  0  0  0
    0.6957   -0.0377    3.8149 S   0  0  0  0  0  0  0  0  0  0  0  0
   -0.8785    0.5757    3.1244 C   0  0  0  0  0  0  0  0  0  0  0  0
   -0.6962    1.3860    1.8410 C   0  0  0  0  0  0  0  0  0  0  0  0
   -0.3581    0.5215    0.6181 C   0  0  0  0  0  0  0  0  0  0  0  0
   -1.5429   -0.2144    0.1695 N   0  0  0  0  0  0  0  0  0  0  0  0
   -1.4118   -1.4686   -0.3891 C   0  0  0  0  0  0  0  0  0  0  0  0
   -0.4084   -2.1636   -0.3135 O   0  0  0  0  0  0  0  0  0  0  0  0
   -2.5797   -1.9240   -1.1670 C   0  0  0  0  0  0  0  0  0  0  0  0
   -2.9314   -1.2009   -2.3170 C   0  0  0  0  0  0  0  0  0  0  0  0
   -4.0180   -1.6100   -3.0901 C   0  0  0  0  0  0  0  0  0  0  0  0
   -4.7498   -2.7380   -2.7198 C   0  0  0  0  0  0  0  0  0  0  0  0
   -4.3972   -3.4590   -1.5758 C   0  0  0  0  0  0  0  0  0  0  0  0
   -3.3091   -3.0562   -0.7949 C   0  0  0  0  0  0  0  0  0  0  0  0
   -2.9581   -3.9648    0.6299 Cl  0  0  0  0  0  0  0  0  0  0  0  0
    0.0612    1.4435   -0.5554 C   0  0  0  0  0  0  0  0  0  0  0  0
   -0.7805    1.7592   -1.4082 O   0  0  0  0  0  0  0  0  0  0  0  0
    1.3466    1.9750   -0.5723 N   0  0  0  0  0  0  0  0  0  0  0  0
    1.6929    2.8647   -1.6725 C   0  0  0  0  0  0  0  0  0  0  0  0
    2.4639    1.4703    0.2315 C   0  0  0  0  0  0  0  0  0  0  0  0
    3.2799    0.4862   -0.5529 C   0  0  0  0  0  0  0  0  0  0  0  0
    2.9515   -0.7990   -0.9409 C   0  0  0  0  0  0  0  0  0  0  0  0
    3.9976   -1.4320   -1.6728 C   0  0  0  0  0  0  0  0  0  0  0  0
    5.0951   -0.6147   -1.8153 C   0  0  0  0  0  0  0  0  0  0  0  0
    4.8641    0.9041   -1.0674 S   0  0  0  0  0  0  0  0  0  0  0  0
    0.5781    1.8671    5.3031 H   0  0  0  0  0  0  0  0  0  0  0  0
    1.5107    2.2448    3.8248 H   0  0  0  0  0  0  0  0  0  0  0  0
    2.2361    1.2680    5.1118 H   0  0  0  0  0  0  0  0  0  0  0  0
   -1.5270   -0.2879    2.9444 H   0  0  0  0  0  0  0  0  0  0  0  0
   -1.3728    1.1878    3.8862 H   0  0  0  0  0  0  0  0  0  0  0  0
    0.0586    2.1668    1.9886 H   0  0  0  0  0  0  0  0  0  0  0  0
   -1.6347    1.9228    1.6444 H   0  0  0  0  0  0  0  0  0  0  0  0
    0.4359   -0.1968    0.8267 H   0  0  0  0  0  0  0  0  0  0  0  0
   -2.2962    0.3635   -0.1886 H   0  0  0  0  0  0  0  0  0  0  0  0
   -2.3504   -0.3315   -2.6212 H   0  0  0  0  0  0  0  0  0  0  0  0
   -4.2884   -1.0541   -3.9852 H   0  0  0  0  0  0  0  0  0  0  0  0
   -5.5954   -3.0596   -3.3239 H   0  0  0  0  0  0  0  0  0  0  0  0
   -4.9775   -4.3355   -1.2967 H   0  0  0  0  0  0  0  0  0  0  0  0
    2.4452    3.5856   -1.3392 H   0  0  0  0  0  0  0  0  0  0  0  0
    0.8174    3.4193   -2.0225 H   0  0  0  0  0  0  0  0  0  0  0  0
    2.0852    2.2718   -2.5038 H   0  0  0  0  0  0  0  0  0  0  0  0
    2.1096    0.9966    1.1478 H   0  0  0  0  0  0  0  0  0  0  0  0
    3.0598    2.3344    0.5489 H   0  0  0  0  0  0  0  0  0  0  0  0
    2.0037   -1.2749   -0.7153 H   0  0  0  0  0  0  0  0  0  0  0  0
    3.9436   -2.4383   -2.0703 H   0  0  0  0  0  0  0  0  0  0  0  0
    6.0249   -0.8381   -2.3202 H   0  0  0  0  0  0  0  0  0  0  0  0
  1  2  1  0
  2  3  1  0
  3  4  1  0
  4  5  1  0
  5  6  1  0
  6  7  1  0
  7  8  2  0
  7  9  1  0
  9 10  2  0
 10 11  1  0
 11 12  2  0
 12 13  1  0
 13 14  2  0
 14 15  1  0
  5 16  1  0
 16 17  2  0
 16 18  1  0
 18 19  1  0
 18 20  1  0
 20 21  1  0
 21 22  2  0
 22 23  1  0
 23 24  2  0
 24 25  1  0
 14  9  1  0
 25 21  1  0
  1 26  1  0
  1 27  1  0
  1 28  1  0
  3 29  1  0
  3 30  1  0
  4 31  1  0
  4 32  1  0
  5 33  1  0
  6 34  1  0
 10 35  1  0
 11 36  1  0
 12 37  1  0
 13 38  1  0
 19 39  1  0
 19 40  1  0
 19 41  1  0
 20 42  1  0
 20 43  1  0
 22 44  1  0
 23 45  1  0
 24 46  1  0
M  END
$$$$
