
     RDKit          3D

 43 45  0  0  0  0  0  0  0  0999 V2000
    5.5567    2.2460    0.8915 C   0  0  0  0  0  0  0  0  0  0  0  0
    4.2448    1.7009    0.8268 O   0  0  0  0  0  0  0  0  0  0  0  0
    4.1059    0.4890    0.2036 C   0  0  0  0  0  0  0  0  0  0  0  0
    5.1291   -0.2482   -0.3829 C   0  0  0  0  0  0  0  0  0  0  0  0
    4.8679   -1.4813   -0.9891 C   0  0  0  0  0  0  0  0  0  0  0  0
    3.5483   -1.9486   -0.9919 C   0  0  0  0  0  0  0  0  0  0  0  0
    3.0382   -3.1157   -1.5059 N   0  0  0  0  0  0  0  0  0  0  0  0
    1.6940   -3.1738   -1.2870 C   0  0  0  0  0  0  0  0  0  0  0  0
    1.2933   -2.0243   -0.6230 C   0  0  0  0  0  0  0  0  0  0  0  0
   -0.1124   -1.7841   -0.2502 C   0  0  0  0  0  0  0  0  0  0  0  0
   -0.9435   -2.6814   -0.4065 O   0  0  0  0  0  0  0  0  0  0  0  0
   -0.4826   -0.4085    0.3286 C   0  0  0  0  0  0  0  0  0  0  0  0
   -1.9442   -0.1996    0.4835 N   0  0  0  0  0  0  0  0  0  0  0  0
   -2.6057   -0.0520   -0.8237 C   0  0  0  0  0  0  0  0  0  0  0  0
   -4.1191    0.1101   -0.6612 C   0  0  0  0  0  0  0  0  0  0  0  0
   -4.4590    1.2988    0.2431 C   0  0  0  0  0  0  0  0  0  0  0  0
   -5.9634    1.3950    0.4812 C   0  0  0  0  0  0  0  0  0  0  0  0
   -3.6985    1.1737    1.5667 C   0  0  0  0  0  0  0  0  0  0  0  0
   -2.2002    0.9737    1.3311 C   0  0  0  0  0  0  0  0  0  0  0  0
    2.4850   -1.2398   -0.4231 C   0  0  0  0  0  0  0  0  0  0  0  0
    2.7908   -0.0014    0.1873 C   0  0  0  0  0  0  0  0  0  0  0  0
    6.2281    1.5934    1.4594 H   0  0  0  0  0  0  0  0  0  0  0  0
    5.9510    2.4450   -0.1105 H   0  0  0  0  0  0  0  0  0  0  0  0
    5.4957    3.2018    1.4207 H   0  0  0  0  0  0  0  0  0  0  0  0
    6.1553    0.1048   -0.3863 H   0  0  0  0  0  0  0  0  0  0  0  0
    5.6716   -2.0552   -1.4405 H   0  0  0  0  0  0  0  0  0  0  0  0
    3.5845   -3.8273   -1.9722 H   0  0  0  0  0  0  0  0  0  0  0  0
    1.1138   -4.0261   -1.6196 H   0  0  0  0  0  0  0  0  0  0  0  0
   -0.0627    0.3780   -0.3084 H   0  0  0  0  0  0  0  0  0  0  0  0
   -0.0118   -0.3659    1.3181 H   0  0  0  0  0  0  0  0  0  0  0  0
   -2.4329   -0.9323   -1.4516 H   0  0  0  0  0  0  0  0  0  0  0  0
   -2.2016    0.8127   -1.3667 H   0  0  0  0  0  0  0  0  0  0  0  0
   -4.5768    0.2496   -1.6479 H   0  0  0  0  0  0  0  0  0  0  0  0
   -4.5407   -0.8137   -0.2433 H   0  0  0  0  0  0  0  0  0  0  0  0
   -4.1347    2.2205   -0.2582 H   0  0  0  0  0  0  0  0  0  0  0  0
   -6.2021    2.2605    1.1081 H   0  0  0  0  0  0  0  0  0  0  0  0
   -6.4994    1.5090   -0.4669 H   0  0  0  0  0  0  0  0  0  0  0  0
   -6.3468    0.4990    0.9811 H   0  0  0  0  0  0  0  0  0  0  0  0
   -3.8537    2.0740    2.1733 H   0  0  0  0  0  0  0  0  0  0  0  0
   -4.0910    0.3283    2.1471 H   0  0  0  0  0  0  0  0  0  0  0  0
   -1.7716    1.8798    0.8829 H   0  0  0  0  0  0  0  0  0  0  0  0
   -1.7218    0.8375    2.3087 H   0  0  0  0  0  0  0  0  0  0  0  0
    2.0223    0.5985    0.6631 H   0  0  0  0  0  0  0  0  0  0  0  0
  1  2  1  0
  2  3  1  0
  3  4  2  0
  4  5  1  0
  5  6  2  0
  6  7  1  0
  7  8  1  0
  8  9  2  0
  9 10  1  0
 10 11  2  0
 10 12  1  0
 12 13  1  0
 13 14  1  0
 14 15  1  0
 15 16  1  0
 16 17  1  0
 16 18  1  0
 18 19  1  0
  9 20  1  0
 20 21  2  0
 21  3  1  0
 20  6  1  0
 19 13  1  0
  1 22  1  0
  1 23  1  0
  1 24  1  0
  4 25  1  0
  5 26  1  0
  7 27  1  0
  8 28  1  0
 12 29  1  0
 12 30  1  0
 14 31  1  0
 14 32  1  0
 15 33  1  0
 15 34  1  0
 16 35  1  0
 17 36  1  0
 17 37  1  0
 17 38  1  0
 18 39  1  0
 18 40  1  0
 19 41  1  0
 19 42  1  0
 21 43  1  0
M  END
$$$$
