
     RDKit          3D

 59 63  0  0  0  0  0  0  0  0999 V2000
   -3.4999    0.1186    2.1602 C   0  0  0  0  0  0  0  0  0  0  0  0
   -2.1951    0.8715    2.4092 C   0  0  0  0  0  0  0  0  0  0  0  0
   -0.9169    0.0181    2.2348 C   0  0  0  0  0  0  0  0  0  0  0  0
   -0.4291   -0.1059    0.8396 N   0  0  0  0  0  0  0  0  0  0  0  0
   -0.9506   -1.2079    0.1464 C   0  0  0  0  0  0  0  0  0  0  0  0
   -1.9904   -1.0214   -0.6932 N   0  0  0  0  0  0  0  0  0  0  0  0
   -2.5084   -2.0946   -1.3217 C   0  0  0  0  0  0  0  0  0  0  0  0
   -3.5858   -1.9320   -2.1847 C   0  0  0  0  0  0  0  0  0  0  0  0
   -4.1576   -3.0198   -2.8473 C   0  0  0  0  0  0  0  0  0  0  0  0
   -3.6419   -4.2933   -2.6436 C   0  0  0  0  0  0  0  0  0  0  0  0
   -2.5598   -4.4659   -1.7800 C   0  0  0  0  0  0  0  0  0  0  0  0
   -1.9863   -3.3872   -1.1167 C   0  0  0  0  0  0  0  0  0  0  0  0
   -0.9391   -3.5859   -0.3006 N   0  0  0  0  0  0  0  0  0  0  0  0
   -0.4008   -2.4921    0.3084 C   0  0  0  0  0  0  0  0  0  0  0  0
    0.9021   -2.6671    1.0615 C   0  0  0  0  0  0  0  0  0  0  0  0
    1.1572   -4.0480    1.5033 C   0  0  0  0  0  0  0  0  0  0  0  0
    1.3839   -5.1013    1.9395 N   0  0  0  0  0  0  0  0  0  0  0  0
    2.0790   -2.2032    0.2060 C   0  0  0  0  0  0  0  0  0  0  0  0
    2.2658   -2.5860   -0.9482 O   0  0  0  0  0  0  0  0  0  0  0  0
    2.9523   -1.3270    0.8327 N   0  0  0  0  0  0  0  0  0  0  0  0
    4.0965   -0.7682    0.1428 C   0  0  0  0  0  0  0  0  0  0  0  0
    3.9298    0.7190   -0.0434 C   0  0  0  0  0  0  0  0  0  0  0  0
    4.7470    1.6299    0.6644 C   0  0  0  0  0  0  0  0  0  0  0  0
    4.5851    3.0103    0.5118 C   0  0  0  0  0  0  0  0  0  0  0  0
    3.5965    3.4497   -0.3397 C   0  0  0  0  0  0  0  0  0  0  0  0
    2.7946    2.5738   -1.0309 C   0  0  0  0  0  0  0  0  0  0  0  0
    2.9401    1.2085   -0.9133 C   0  0  0  0  0  0  0  0  0  0  0  0
    1.8647    3.2096   -1.7885 O   0  0  0  0  0  0  0  0  0  0  0  0
    2.1833    4.5896   -1.5090 C   0  0  0  0  0  0  0  0  0  0  0  0
    3.2818    4.7489   -0.5898 O   0  0  0  0  0  0  0  0  0  0  0  0
   -0.5094    1.1765    0.0992 C   0  0  0  0  0  0  0  0  0  0  0  0
   -1.8576    1.8999    0.2791 C   0  0  0  0  0  0  0  0  0  0  0  0
   -1.8129    3.2764   -0.3753 C   0  0  0  0  0  0  0  0  0  0  0  0
   -2.1440    2.1031    1.6741 O   0  0  0  0  0  0  0  0  0  0  0  0
   -3.6148   -0.2048    1.1261 H   0  0  0  0  0  0  0  0  0  0  0  0
   -4.3531    0.7722    2.3702 H   0  0  0  0  0  0  0  0  0  0  0  0
   -3.5726   -0.7626    2.8043 H   0  0  0  0  0  0  0  0  0  0  0  0
   -2.2248    1.1713    3.4645 H   0  0  0  0  0  0  0  0  0  0  0  0
   -0.1110    0.5235    2.7839 H   0  0  0  0  0  0  0  0  0  0  0  0
   -1.0428   -0.9595    2.7162 H   0  0  0  0  0  0  0  0  0  0  0  0
   -3.9887   -0.9345   -2.3429 H   0  0  0  0  0  0  0  0  0  0  0  0
   -4.9989   -2.8680   -3.5186 H   0  0  0  0  0  0  0  0  0  0  0  0
   -4.0732   -5.1508   -3.1552 H   0  0  0  0  0  0  0  0  0  0  0  0
   -2.1480   -5.4607   -1.6215 H   0  0  0  0  0  0  0  0  0  0  0  0
    0.8664   -2.0639    1.9764 H   0  0  0  0  0  0  0  0  0  0  0  0
    2.6945   -0.8946    1.7102 H   0  0  0  0  0  0  0  0  0  0  0  0
    4.9728   -0.9829    0.7640 H   0  0  0  0  0  0  0  0  0  0  0  0
    4.2594   -1.2482   -0.8286 H   0  0  0  0  0  0  0  0  0  0  0  0
    5.5181    1.2633    1.3411 H   0  0  0  0  0  0  0  0  0  0  0  0
    5.2098    3.7132    1.0515 H   0  0  0  0  0  0  0  0  0  0  0  0
    2.2969    0.5332   -1.4702 H   0  0  0  0  0  0  0  0  0  0  0  0
    1.2979    5.0726   -1.0823 H   0  0  0  0  0  0  0  0  0  0  0  0
    2.4377    5.0901   -2.4499 H   0  0  0  0  0  0  0  0  0  0  0  0
    0.2810    1.8162    0.5126 H   0  0  0  0  0  0  0  0  0  0  0  0
   -0.2751    1.0350   -0.9639 H   0  0  0  0  0  0  0  0  0  0  0  0
   -2.6817    1.3420   -0.1748 H   0  0  0  0  0  0  0  0  0  0  0  0
   -1.0380    3.9050    0.0791 H   0  0  0  0  0  0  0  0  0  0  0  0
   -1.6184    3.2001   -1.4512 H   0  0  0  0  0  0  0  0  0  0  0  0
   -2.7671    3.7966   -0.2281 H   0  0  0  0  0  0  0  0  0  0  0  0
  1  2  1  0
  2  3  1  0
  3  4  1  0
  4  5  1  0
  5  6  2  0
  6  7  1  0
  7  8  2  0
  8  9  1  0
  9 10  2  0
 10 11  1  0
 11 12  2  0
 12 13  1  0
 13 14  2  0
 14 15  1  0
 15 16  1  0
 16 17  3  0
 15 18  1  0
 18 19  2  0
 18 20  1  0
 20 21  1  0
 21 22  1  0
 22 23  2  0
 23 24  1  0
 24 25  2  0
 25 26  1  0
 26 27  2  0
 26 28  1  0
 28 29  1  0
 29 30  1  0
  4 31  1  0
 31 32  1  0
 32 33  1  0
 32 34  1  0
 34  2  1  0
 14  5  1  0
 27 22  1  0
 12  7  1  0
 30 25  1  0
  1 35  1  0
  1 36  1  0
  1 37  1  0
  2 38  1  0
  3 39  1  0
  3 40  1  0
  8 41  1  0
  9 42  1  0
 10 43  1  0
 11 44  1  0
 15 45  1  0
 20 46  1  0
 21 47  1  0
 21 48  1  0
 23 49  1  0
 24 50  1  0
 27 51  1  0
 29 52  1  0
 29 53  1  0
 31 54  1  0
 31 55  1  0
 32 56  1  0
 33 57  1  0
 33 58  1  0
 33 59  1  0
M  END
$$$$
