
     RDKit          3D

 35 37  0  0  0  0  0  0  0  0999 V2000
   -4.4498   -2.2494   -1.0652 C   0  0  0  0  0  0  0  0  0  0  0  0
   -4.0358   -1.0597   -0.4076 O   0  0  0  0  0  0  0  0  0  0  0  0
   -3.5258   -0.0948   -1.3289 C   0  0  0  0  0  0  0  0  0  0  0  0
   -3.0859    1.1668   -0.5723 C   0  0  0  0  0  0  0  0  0  0  0  0
   -1.9422    0.9178    0.3226 N   0  0  0  0  0  0  0  0  0  0  0  0
   -2.1083    0.7722    1.7142 C   0  0  0  0  0  0  0  0  0  0  0  0
   -3.5329    0.9329    2.5912 S   0  0  0  0  0  0  0  0  0  0  0  0
   -0.9842    0.4889    2.4546 N   0  0  0  0  0  0  0  0  0  0  0  0
    0.2204    0.3634    1.8413 C   0  0  0  0  0  0  0  0  0  0  0  0
    1.5849    0.0274    2.7575 S   0  0  0  0  0  0  0  0  0  0  0  0
    2.5526    0.0491    1.3485 C   0  0  0  0  0  0  0  0  0  0  0  0
    1.8173    0.2979    0.1970 C   0  0  0  0  0  0  0  0  0  0  0  0
    0.4309    0.4947    0.5034 C   0  0  0  0  0  0  0  0  0  0  0  0
   -0.7018    0.7936   -0.3483 C   0  0  0  0  0  0  0  0  0  0  0  0
   -0.5731    0.9267   -1.5642 O   0  0  0  0  0  0  0  0  0  0  0  0
    2.4637    0.3706   -1.1555 C   0  0  0  0  0  0  0  0  0  0  0  0
    3.8802   -0.2275   -1.1457 C   0  0  0  0  0  0  0  0  0  0  0  0
    4.6867    0.2311    0.0777 C   0  0  0  0  0  0  0  0  0  0  0  0
    4.0262   -0.2110    1.3928 C   0  0  0  0  0  0  0  0  0  0  0  0
   -4.8335   -2.9432   -0.3125 H   0  0  0  0  0  0  0  0  0  0  0  0
   -3.6031   -2.7196   -1.5745 H   0  0  0  0  0  0  0  0  0  0  0  0
   -5.2483   -2.0334   -1.7814 H   0  0  0  0  0  0  0  0  0  0  0  0
   -4.3172    0.1733   -2.0384 H   0  0  0  0  0  0  0  0  0  0  0  0
   -2.6917   -0.5331   -1.8873 H   0  0  0  0  0  0  0  0  0  0  0  0
   -2.7924    1.9326   -1.3007 H   0  0  0  0  0  0  0  0  0  0  0  0
   -3.9347    1.5737   -0.0181 H   0  0  0  0  0  0  0  0  0  0  0  0
   -1.0599    0.3768    3.4582 H   0  0  0  0  0  0  0  0  0  0  0  0
    1.8584   -0.1589   -1.8994 H   0  0  0  0  0  0  0  0  0  0  0  0
    2.5162    1.4232   -1.4598 H   0  0  0  0  0  0  0  0  0  0  0  0
    3.8147   -1.3232   -1.1401 H   0  0  0  0  0  0  0  0  0  0  0  0
    4.4020    0.0566   -2.0665 H   0  0  0  0  0  0  0  0  0  0  0  0
    4.7737    1.3251    0.0594 H   0  0  0  0  0  0  0  0  0  0  0  0
    5.7046   -0.1716    0.0276 H   0  0  0  0  0  0  0  0  0  0  0  0
    4.1929   -1.2852    1.5399 H   0  0  0  0  0  0  0  0  0  0  0  0
    4.4952    0.3161    2.2312 H   0  0  0  0  0  0  0  0  0  0  0  0
  1  2  1  0
  2  3  1  0
  3  4  1  0
  4  5  1  0
  5  6  1  0
  6  7  2  0
  6  8  1  0
  8  9  1  0
  9 10  1  0
 10 11  1  0
 11 12  2  0
 12 13  1  0
 13 14  1  0
 14 15  2  0
 12 16  1  0
 16 17  1  0
 17 18  1  0
 18 19  1  0
 14  5  1  0
 13  9  2  0
 19 11  1  0
  1 20  1  0
  1 21  1  0
  1 22  1  0
  3 23  1  0
  3 24  1  0
  4 25  1  0
  4 26  1  0
  8 27  1  0
 16 28  1  0
 16 29  1  0
 17 30  1  0
 17 31  1  0
 18 32  1  0
 18 33  1  0
 19 34  1  0
 19 35  1  0
M  END
$$$$
