
     RDKit          3D

 62 65  0  0  0  0  0  0  0  0999 V2000
    3.6206   -0.0682   -4.1528 C   0  0  0  0  0  0  0  0  0  0  0  0
    4.1570    0.0710   -2.7589 C   0  0  0  0  0  0  0  0  0  0  0  0
    3.8267   -0.8703   -1.7786 C   0  0  0  0  0  0  0  0  0  0  0  0
    4.3043   -0.7297   -0.4737 C   0  0  0  0  0  0  0  0  0  0  0  0
    5.1143    0.3591   -0.1228 C   0  0  0  0  0  0  0  0  0  0  0  0
    5.6049    0.5151    1.2930 C   0  0  0  0  0  0  0  0  0  0  0  0
    4.5461    1.0074    2.1463 N   0  0  0  0  0  0  0  0  0  0  0  0
    3.8366    0.1651    2.9739 C   0  0  0  0  0  0  0  0  0  0  0  0
    4.1434   -1.0058    3.1715 O   0  0  0  0  0  0  0  0  0  0  0  0
    2.6830    0.8531    3.6754 C   0  0  0  0  0  0  0  0  0  0  0  0
    1.6316   -0.1319    4.1812 C   0  0  0  0  0  0  0  0  0  0  0  0
    0.7216   -0.6262    3.0969 C   0  0  0  0  0  0  0  0  0  0  0  0
    0.7582   -1.8791    2.4338 C   0  0  0  0  0  0  0  0  0  0  0  0
    1.7036   -3.0094    2.6302 C   0  0  0  0  0  0  0  0  0  0  0  0
   -0.2092   -1.9894    1.5211 N   0  0  0  0  0  0  0  0  0  0  0  0
   -0.8971   -0.8159    1.5735 N   0  0  0  0  0  0  0  0  0  0  0  0
   -2.0184   -0.6030    0.7132 C   0  0  0  0  0  0  0  0  0  0  0  0
   -2.4356   -1.6109   -0.1423 C   0  0  0  0  0  0  0  0  0  0  0  0
   -3.5430   -1.3851   -0.9632 C   0  0  0  0  0  0  0  0  0  0  0  0
   -4.2063   -0.1625   -0.9324 C   0  0  0  0  0  0  0  0  0  0  0  0
   -5.3421    0.0509   -1.7396 N   0  0  0  0  0  0  0  0  0  0  0  0
   -5.0907   -0.1391   -3.1841 C   0  0  0  0  0  0  0  0  0  0  0  0
   -6.4046    0.0370   -3.9648 C   0  0  0  0  0  0  0  0  0  0  0  0
   -7.0011    1.3180   -3.7148 O   0  0  0  0  0  0  0  0  0  0  0  0
   -7.2813    1.4659   -2.3136 C   0  0  0  0  0  0  0  0  0  0  0  0
   -6.0034    1.3477   -1.4680 C   0  0  0  0  0  0  0  0  0  0  0  0
   -3.7683    0.7857   -0.0754 N   0  0  0  0  0  0  0  0  0  0  0  0
   -2.6721    0.5747    0.7431 N   0  0  0  0  0  0  0  0  0  0  0  0
   -0.3558    0.0398    2.5278 C   0  0  0  0  0  0  0  0  0  0  0  0
   -0.8995    1.3929    2.8269 C   0  0  0  0  0  0  0  0  0  0  0  0
    5.4244    1.3130   -1.0999 C   0  0  0  0  0  0  0  0  0  0  0  0
    4.9477    1.1707   -2.4060 C   0  0  0  0  0  0  0  0  0  0  0  0
    4.2694    0.4364   -4.8757 H   0  0  0  0  0  0  0  0  0  0  0  0
    2.6195    0.3687   -4.2144 H   0  0  0  0  0  0  0  0  0  0  0  0
    3.5679   -1.1220   -4.4458 H   0  0  0  0  0  0  0  0  0  0  0  0
    3.1932   -1.7206   -2.0220 H   0  0  0  0  0  0  0  0  0  0  0  0
    4.0355   -1.4733    0.2746 H   0  0  0  0  0  0  0  0  0  0  0  0
    6.4198    1.2464    1.3385 H   0  0  0  0  0  0  0  0  0  0  0  0
    6.0009   -0.4367    1.6638 H   0  0  0  0  0  0  0  0  0  0  0  0
    4.1326    1.8933    1.8898 H   0  0  0  0  0  0  0  0  0  0  0  0
    2.2325    1.5979    3.0090 H   0  0  0  0  0  0  0  0  0  0  0  0
    3.1134    1.3879    4.5307 H   0  0  0  0  0  0  0  0  0  0  0  0
    2.1030   -0.9757    4.6974 H   0  0  0  0  0  0  0  0  0  0  0  0
    1.0180    0.3712    4.9392 H   0  0  0  0  0  0  0  0  0  0  0  0
    2.5858   -2.8801    1.9967 H   0  0  0  0  0  0  0  0  0  0  0  0
    1.2361   -3.9639    2.3660 H   0  0  0  0  0  0  0  0  0  0  0  0
    2.0285   -3.0815    3.6722 H   0  0  0  0  0  0  0  0  0  0  0  0
   -1.9351   -2.5738   -0.1723 H   0  0  0  0  0  0  0  0  0  0  0  0
   -3.8948   -2.1896   -1.6001 H   0  0  0  0  0  0  0  0  0  0  0  0
   -4.3627    0.6064   -3.5284 H   0  0  0  0  0  0  0  0  0  0  0  0
   -4.6951   -1.1361   -3.4034 H   0  0  0  0  0  0  0  0  0  0  0  0
   -7.1239   -0.7474   -3.7031 H   0  0  0  0  0  0  0  0  0  0  0  0
   -6.2098   -0.0341   -5.0389 H   0  0  0  0  0  0  0  0  0  0  0  0
   -7.7334    2.4518   -2.1695 H   0  0  0  0  0  0  0  0  0  0  0  0
   -8.0207    0.7130   -2.0174 H   0  0  0  0  0  0  0  0  0  0  0  0
   -5.3279    2.1719   -1.7308 H   0  0  0  0  0  0  0  0  0  0  0  0
   -6.2771    1.4326   -0.4097 H   0  0  0  0  0  0  0  0  0  0  0  0
   -0.3386    1.8779    3.6324 H   0  0  0  0  0  0  0  0  0  0  0  0
   -0.8293    2.0441    1.9497 H   0  0  0  0  0  0  0  0  0  0  0  0
   -1.9414    1.3325    3.1562 H   0  0  0  0  0  0  0  0  0  0  0  0
    6.0400    2.1752   -0.8530 H   0  0  0  0  0  0  0  0  0  0  0  0
    5.1984    1.9249   -3.1483 H   0  0  0  0  0  0  0  0  0  0  0  0
  1  2  1  0
  2  3  2  0
  3  4  1  0
  4  5  2  0
  5  6  1  0
  6  7  1  0
  7  8  1  0
  8  9  2  0
  8 10  1  0
 10 11  1  0
 11 12  1  0
 12 13  1  0
 13 14  1  0
 13 15  2  0
 15 16  1  0
 16 17  1  0
 17 18  2  0
 18 19  1  0
 19 20  2  0
 20 21  1  0
 21 22  1  0
 22 23  1  0
 23 24  1  0
 24 25  1  0
 25 26  1  0
 20 27  1  0
 27 28  2  0
 16 29  1  0
 29 30  1  0
  5 31  1  0
 31 32  2  0
 32  2  1  0
 29 12  2  0
 28 17  1  0
 26 21  1  0
  1 33  1  0
  1 34  1  0
  1 35  1  0
  3 36  1  0
  4 37  1  0
  6 38  1  0
  6 39  1  0
  7 40  1  0
 10 41  1  0
 10 42  1  0
 11 43  1  0
 11 44  1  0
 14 45  1  0
 14 46  1  0
 14 47  1  0
 18 48  1  0
 19 49  1  0
 22 50  1  0
 22 51  1  0
 23 52  1  0
 23 53  1  0
 25 54  1  0
 25 55  1  0
 26 56  1  0
 26 57  1  0
 30 58  1  0
 30 59  1  0
 30 60  1  0
 31 61  1  0
 32 62  1  0
M  END
$$$$
