
     RDKit          3D

 46 48  0  0  0  0  0  0  0  0999 V2000
    2.1525   -3.0708   -2.0273 C   0  0  0  0  0  0  0  0  0  0  0  0
    3.3110   -2.6400   -1.1475 C   0  0  0  0  0  0  0  0  0  0  0  0
    2.8320   -1.8082   -0.0818 O   0  0  0  0  0  0  0  0  0  0  0  0
    2.7299   -0.4723   -0.3530 C   0  0  0  0  0  0  0  0  0  0  0  0
    3.0206    0.0231   -1.4385 O   0  0  0  0  0  0  0  0  0  0  0  0
    2.1383    0.3066    0.8420 C   0  0  0  0  0  0  0  0  0  0  0  0
    3.2441    0.2699    1.9212 C   0  0  0  0  0  0  0  0  0  0  0  0
    3.4913   -0.9780    2.3903 F   0  0  0  0  0  0  0  0  0  0  0  0
    4.4249    0.7573    1.4630 F   0  0  0  0  0  0  0  0  0  0  0  0
    2.9070    1.0245    3.0018 F   0  0  0  0  0  0  0  0  0  0  0  0
    1.8664    1.6973    0.4246 N   0  0  0  0  0  0  0  0  0  0  0  0
    0.7416    1.8508   -0.1699 C   0  0  0  0  0  0  0  0  0  0  0  0
    0.3315    3.1126   -0.8177 C   0  0  0  0  0  0  0  0  0  0  0  0
   -0.8169    3.2284   -1.6063 C   0  0  0  0  0  0  0  0  0  0  0  0
   -1.1339    4.4579   -2.1825 C   0  0  0  0  0  0  0  0  0  0  0  0
   -0.2905    5.5325   -1.9504 C   0  0  0  0  0  0  0  0  0  0  0  0
    0.8267    5.4569   -1.1970 N   0  0  0  0  0  0  0  0  0  0  0  0
    1.1164    4.2479   -0.6517 C   0  0  0  0  0  0  0  0  0  0  0  0
   -0.2246    0.9202   -0.2606 O   0  0  0  0  0  0  0  0  0  0  0  0
   -0.1563   -0.0765    0.6499 C   0  0  0  0  0  0  0  0  0  0  0  0
   -1.3540   -0.7356    0.8250 N   0  0  0  0  0  0  0  0  0  0  0  0
   -1.4193   -1.9233    1.6842 C   0  0  0  0  0  0  0  0  0  0  0  0
   -2.4613   -2.9075    1.1624 C   0  0  0  0  0  0  0  0  0  0  0  0
   -3.8565   -2.2904    1.1082 C   0  0  0  0  0  0  0  0  0  0  0  0
   -3.8189   -0.7728    0.9529 C   0  0  0  0  0  0  0  0  0  0  0  0
   -2.5931   -0.3066    0.1739 C   0  0  0  0  0  0  0  0  0  0  0  0
    0.9138   -0.3736    1.2908 N   0  0  0  0  0  0  0  0  0  0  0  0
    2.4927   -3.7551   -2.8096 H   0  0  0  0  0  0  0  0  0  0  0  0
    1.6762   -2.2067   -2.5011 H   0  0  0  0  0  0  0  0  0  0  0  0
    1.3822   -3.5703   -1.4305 H   0  0  0  0  0  0  0  0  0  0  0  0
    4.0925   -2.1371   -1.7279 H   0  0  0  0  0  0  0  0  0  0  0  0
    3.7695   -3.5202   -0.6851 H   0  0  0  0  0  0  0  0  0  0  0  0
   -1.4652    2.3766   -1.7881 H   0  0  0  0  0  0  0  0  0  0  0  0
   -2.0169    4.5752   -2.8013 H   0  0  0  0  0  0  0  0  0  0  0  0
   -0.4955    6.5103   -2.3779 H   0  0  0  0  0  0  0  0  0  0  0  0
    2.0270    4.2282   -0.0576 H   0  0  0  0  0  0  0  0  0  0  0  0
   -0.4533   -2.4413    1.7113 H   0  0  0  0  0  0  0  0  0  0  0  0
   -1.6562   -1.6181    2.7102 H   0  0  0  0  0  0  0  0  0  0  0  0
   -2.1747   -3.2286    0.1524 H   0  0  0  0  0  0  0  0  0  0  0  0
   -2.4790   -3.8099    1.7838 H   0  0  0  0  0  0  0  0  0  0  0  0
   -4.4134   -2.5405    2.0190 H   0  0  0  0  0  0  0  0  0  0  0  0
   -4.4117   -2.7395    0.2760 H   0  0  0  0  0  0  0  0  0  0  0  0
   -4.7359   -0.4281    0.4617 H   0  0  0  0  0  0  0  0  0  0  0  0
   -3.8063   -0.3123    1.9494 H   0  0  0  0  0  0  0  0  0  0  0  0
   -2.6352    0.7869    0.1094 H   0  0  0  0  0  0  0  0  0  0  0  0
   -2.6197   -0.7000   -0.8491 H   0  0  0  0  0  0  0  0  0  0  0  0
  1  2  1  0
  2  3  1  0
  3  4  1  0
  4  5  2  0
  4  6  1  0
  6  7  1  0
  7  8  1  0
  7  9  1  0
  7 10  1  0
  6 11  1  0
 11 12  2  0
 12 13  1  0
 13 14  2  0
 14 15  1  0
 15 16  2  0
 16 17  1  0
 17 18  2  0
 12 19  1  0
 19 20  1  0
 20 21  1  0
 21 22  1  0
 22 23  1  0
 23 24  1  0
 24 25  1  0
 25 26  1  0
 20 27  2  0
 27  6  1  0
 18 13  1  0
 26 21  1  0
  1 28  1  0
  1 29  1  0
  1 30  1  0
  2 31  1  0
  2 32  1  0
 14 33  1  0
 15 34  1  0
 16 35  1  0
 18 36  1  0
 22 37  1  0
 22 38  1  0
 23 39  1  0
 23 40  1  0
 24 41  1  0
 24 42  1  0
 25 43  1  0
 25 44  1  0
 26 45  1  0
 26 46  1  0
M  END
$$$$
