
     RDKit          3D

 49 52  0  0  0  0  0  0  0  0999 V2000
   -6.8414   -1.5452   -2.1518 C   0  0  0  0  0  0  0  0  0  0  0  0
   -6.2347   -0.5117   -1.2484 C   0  0  0  0  0  0  0  0  0  0  0  0
   -7.0290    0.4920   -0.6827 C   0  0  0  0  0  0  0  0  0  0  0  0
   -6.4693    1.4433    0.1762 C   0  0  0  0  0  0  0  0  0  0  0  0
   -7.3294    2.5025    0.7999 C   0  0  0  0  0  0  0  0  0  0  0  0
   -5.1066    1.3570    0.4942 C   0  0  0  0  0  0  0  0  0  0  0  0
   -4.2992    0.3477   -0.0479 C   0  0  0  0  0  0  0  0  0  0  0  0
   -2.9378    0.3445    0.3239 N   0  0  0  0  0  0  0  0  0  0  0  0
   -1.9757   -0.5869   -0.0182 C   0  0  0  0  0  0  0  0  0  0  0  0
   -2.1323   -1.6210   -0.6551 O   0  0  0  0  0  0  0  0  0  0  0  0
   -0.6104   -0.2825    0.4905 C   0  0  0  0  0  0  0  0  0  0  0  0
    0.1816   -1.3387    0.9562 C   0  0  0  0  0  0  0  0  0  0  0  0
    1.4698   -1.0872    1.4337 C   0  0  0  0  0  0  0  0  0  0  0  0
    1.9856    0.2116    1.4249 C   0  0  0  0  0  0  0  0  0  0  0  0
    3.2769    0.4589    1.9004 N   0  0  0  0  0  0  0  0  0  0  0  0
    4.2494    0.4367    1.0611 C   0  0  0  0  0  0  0  0  0  0  0  0
    4.2706    0.1854   -0.2848 N   0  0  0  0  0  0  0  0  0  0  0  0
    5.5739   -0.0905   -0.8614 C   0  0  0  0  0  0  0  0  0  0  0  0
    5.9371   -1.5630   -0.7496 C   0  0  0  0  0  0  0  0  0  0  0  0
    7.7077   -1.5567   -0.8083 S   0  0  0  0  0  6  0  0  0  0  0  0
    8.0971   -1.5263   -2.2036 O   0  0  0  0  0  0  0  0  0  0  0  0
    8.2146   -2.5494    0.1128 O   0  0  0  0  0  0  0  0  0  0  0  0
    7.9615    0.0711   -0.1322 C   0  0  0  0  0  0  0  0  0  0  0  0
    6.5893    0.7149   -0.0330 C   0  0  0  0  0  0  0  0  0  0  0  0
    5.8849    0.7281    1.6581 S   0  0  0  0  0  0  0  0  0  0  0  0
    1.1915    1.2637    0.9587 C   0  0  0  0  0  0  0  0  0  0  0  0
   -0.1006    1.0219    0.4840 C   0  0  0  0  0  0  0  0  0  0  0  0
   -4.8723   -0.5809   -0.9180 C   0  0  0  0  0  0  0  0  0  0  0  0
   -7.7353   -1.1557   -2.6504 H   0  0  0  0  0  0  0  0  0  0  0  0
   -7.1195   -2.4311   -1.5727 H   0  0  0  0  0  0  0  0  0  0  0  0
   -6.1350   -1.8386   -2.9356 H   0  0  0  0  0  0  0  0  0  0  0  0
   -8.0915    0.5331   -0.9155 H   0  0  0  0  0  0  0  0  0  0  0  0
   -8.1682    2.7615    0.1452 H   0  0  0  0  0  0  0  0  0  0  0  0
   -6.7561    3.4198    0.9701 H   0  0  0  0  0  0  0  0  0  0  0  0
   -7.7242    2.1481    1.7569 H   0  0  0  0  0  0  0  0  0  0  0  0
   -4.6820    2.0872    1.1790 H   0  0  0  0  0  0  0  0  0  0  0  0
   -2.6611    1.0738    0.9680 H   0  0  0  0  0  0  0  0  0  0  0  0
   -0.2078   -2.3550    0.9574 H   0  0  0  0  0  0  0  0  0  0  0  0
    2.0745   -1.9050    1.8175 H   0  0  0  0  0  0  0  0  0  0  0  0
    3.4474   -0.2529   -0.6842 H   0  0  0  0  0  0  0  0  0  0  0  0
    5.6059    0.2296   -1.9093 H   0  0  0  0  0  0  0  0  0  0  0  0
    5.6269   -2.0156    0.1972 H   0  0  0  0  0  0  0  0  0  0  0  0
    5.5412   -2.1564   -1.5772 H   0  0  0  0  0  0  0  0  0  0  0  0
    8.5923    0.6135   -0.8437 H   0  0  0  0  0  0  0  0  0  0  0  0
    8.4872   -0.0067    0.8227 H   0  0  0  0  0  0  0  0  0  0  0  0
    6.6236    1.7607   -0.3579 H   0  0  0  0  0  0  0  0  0  0  0  0
    1.5899    2.2754    0.9618 H   0  0  0  0  0  0  0  0  0  0  0  0
   -0.6830    1.8516    0.0924 H   0  0  0  0  0  0  0  0  0  0  0  0
   -4.2778   -1.3764   -1.3573 H   0  0  0  0  0  0  0  0  0  0  0  0
  1  2  1  0
  2  3  2  0
  3  4  1  0
  4  5  1  0
  4  6  2  0
  6  7  1  0
  7  8  1  0
  8  9  1  0
  9 10  2  0
  9 11  1  0
 11 12  2  0
 12 13  1  0
 13 14  2  0
 14 15  1  0
 15 16  2  3
 16 17  1  0
 17 18  1  0
 18 19  1  0
 19 20  1  0
 20 21  2  0
 20 22  2  0
 20 23  1  0
 23 24  1  0
 24 25  1  0
 14 26  1  0
 26 27  2  0
  7 28  2  0
 28  2  1  0
 27 11  1  0
 25 16  1  0
 24 18  1  0
  1 29  1  0
  1 30  1  0
  1 31  1  0
  3 32  1  0
  5 33  1  0
  5 34  1  0
  5 35  1  0
  6 36  1  0
  8 37  1  0
 12 38  1  0
 13 39  1  0
 17 40  1  0
 18 41  1  0
 19 42  1  0
 19 43  1  0
 23 44  1  0
 23 45  1  0
 24 46  1  0
 26 47  1  0
 27 48  1  0
 28 49  1  0
M  END
$$$$
