
     RDKit          3D

 66 68  0  0  0  0  0  0  0  0999 V2000
   -2.2072    4.3003    2.7329 C   0  0  0  0  0  0  0  0  0  0  0  0
   -2.9307    5.3473    2.1026 O   0  0  0  0  0  0  0  0  0  0  0  0
   -3.7709    4.9123    1.0303 C   0  0  0  0  0  0  0  0  0  0  0  0
   -3.0033    4.3577   -0.1762 C   0  0  0  0  0  0  0  0  0  0  0  0
   -2.6783    2.9327   -0.0246 N   0  0  0  0  0  0  0  0  0  0  0  0
   -1.7931    2.2152   -0.8133 C   0  0  0  0  0  0  0  0  0  0  0  0
   -1.0010    2.9093   -2.1235 S   0  0  0  0  0  0  0  0  0  0  0  0
   -1.6523    0.8791   -0.4015 N   0  0  0  0  0  0  0  0  0  0  0  0
   -2.0995    0.3732    0.9031 C   0  0  0  0  0  0  0  0  0  0  0  0
   -3.1863   -0.6790    0.7114 C   0  0  0  0  0  0  0  0  0  0  0  0
   -2.8097   -1.7060   -0.3310 C   0  0  0  0  0  0  0  0  0  0  0  0
   -3.5311   -2.9095   -0.3967 C   0  0  0  0  0  0  0  0  0  0  0  0
   -3.2559   -3.8600   -1.3857 C   0  0  0  0  0  0  0  0  0  0  0  0
   -3.9109   -5.0600   -1.5131 O   0  0  0  0  0  0  0  0  0  0  0  0
   -4.8941   -5.3841   -0.5417 C   0  0  0  0  0  0  0  0  0  0  0  0
   -2.2577   -3.5964   -2.3417 C   0  0  0  0  0  0  0  0  0  0  0  0
   -2.0493   -4.5737   -3.2835 O   0  0  0  0  0  0  0  0  0  0  0  0
   -1.1934   -4.2662   -4.3744 C   0  0  0  0  0  0  0  0  0  0  0  0
   -1.5402   -2.3964   -2.2789 C   0  0  0  0  0  0  0  0  0  0  0  0
   -1.8012   -1.4434   -1.2765 C   0  0  0  0  0  0  0  0  0  0  0  0
   -0.9708   -0.1563   -1.2313 C   0  0  0  0  0  0  0  0  0  0  0  0
    0.4688   -0.4741   -0.7362 C   0  0  0  0  0  0  0  0  0  0  0  0
    1.2718    0.7057   -0.7558 O   0  0  0  0  0  0  0  0  0  0  0  0
    2.5262    0.6226   -0.2225 C   0  0  0  0  0  0  0  0  0  0  0  0
    3.1946    1.8425   -0.1173 C   0  0  0  0  0  0  0  0  0  0  0  0
    4.4851    1.9060    0.4143 C   0  0  0  0  0  0  0  0  0  0  0  0
    5.1349    0.7434    0.8483 C   0  0  0  0  0  0  0  0  0  0  0  0
    6.5368    0.8321    1.4241 C   0  0  0  0  0  0  0  0  0  0  0  0
    6.5832    0.3425    2.8738 C   0  0  0  0  0  0  0  0  0  0  0  0
    7.5473    0.0740    0.5600 C   0  0  0  0  0  0  0  0  0  0  0  0
    4.4598   -0.4803    0.7300 C   0  0  0  0  0  0  0  0  0  0  0  0
    3.1660   -0.5414    0.1978 C   0  0  0  0  0  0  0  0  0  0  0  0
   -2.8681    3.4688    2.9958 H   0  0  0  0  0  0  0  0  0  0  0  0
   -1.3894    3.9567    2.0941 H   0  0  0  0  0  0  0  0  0  0  0  0
   -1.7686    4.6972    3.6528 H   0  0  0  0  0  0  0  0  0  0  0  0
   -4.3187    5.8040    0.7063 H   0  0  0  0  0  0  0  0  0  0  0  0
   -4.5106    4.1972    1.4091 H   0  0  0  0  0  0  0  0  0  0  0  0
   -2.0793    4.9251   -0.3264 H   0  0  0  0  0  0  0  0  0  0  0  0
   -3.6261    4.4380   -1.0741 H   0  0  0  0  0  0  0  0  0  0  0  0
   -3.4541    2.3726    0.2963 H   0  0  0  0  0  0  0  0  0  0  0  0
   -2.4540    1.1674    1.5651 H   0  0  0  0  0  0  0  0  0  0  0  0
   -1.2327   -0.0625    1.4126 H   0  0  0  0  0  0  0  0  0  0  0  0
   -4.1126   -0.1909    0.3833 H   0  0  0  0  0  0  0  0  0  0  0  0
   -3.3835   -1.1693    1.6717 H   0  0  0  0  0  0  0  0  0  0  0  0
   -4.3147   -3.0778    0.3353 H   0  0  0  0  0  0  0  0  0  0  0  0
   -5.7324   -4.6808   -0.5795 H   0  0  0  0  0  0  0  0  0  0  0  0
   -5.2847   -6.3782   -0.7797 H   0  0  0  0  0  0  0  0  0  0  0  0
   -4.4595   -5.4293    0.4623 H   0  0  0  0  0  0  0  0  0  0  0  0
   -0.1588   -4.1432   -4.0385 H   0  0  0  0  0  0  0  0  0  0  0  0
   -1.5427   -3.3817   -4.9174 H   0  0  0  0  0  0  0  0  0  0  0  0
   -1.2179   -5.1125   -5.0675 H   0  0  0  0  0  0  0  0  0  0  0  0
   -0.7643   -2.1776   -3.0067 H   0  0  0  0  0  0  0  0  0  0  0  0
   -0.9071    0.2121   -2.2597 H   0  0  0  0  0  0  0  0  0  0  0  0
    0.9236   -1.2199   -1.4005 H   0  0  0  0  0  0  0  0  0  0  0  0
    0.4345   -0.8905    0.2780 H   0  0  0  0  0  0  0  0  0  0  0  0
    2.7033    2.7540   -0.4508 H   0  0  0  0  0  0  0  0  0  0  0  0
    4.9755    2.8743    0.4840 H   0  0  0  0  0  0  0  0  0  0  0  0
    6.8451    1.8860    1.4315 H   0  0  0  0  0  0  0  0  0  0  0  0
    5.8662    0.8907    3.4950 H   0  0  0  0  0  0  0  0  0  0  0  0
    7.5809    0.4958    3.2998 H   0  0  0  0  0  0  0  0  0  0  0  0
    6.3480   -0.7245    2.9543 H   0  0  0  0  0  0  0  0  0  0  0  0
    8.5641    0.2174    0.9417 H   0  0  0  0  0  0  0  0  0  0  0  0
    7.3465   -1.0028    0.5446 H   0  0  0  0  0  0  0  0  0  0  0  0
    7.5243    0.4330   -0.4751 H   0  0  0  0  0  0  0  0  0  0  0  0
    4.9368   -1.4039    1.0499 H   0  0  0  0  0  0  0  0  0  0  0  0
    2.6932   -1.5143    0.1216 H   0  0  0  0  0  0  0  0  0  0  0  0
  1  2  1  0
  2  3  1  0
  3  4  1  0
  4  5  1  0
  5  6  1  0
  6  7  2  0
  6  8  1  0
  8  9  1  0
  9 10  1  0
 10 11  1  0
 11 12  2  0
 12 13  1  0
 13 14  1  0
 14 15  1  0
 13 16  2  0
 16 17  1  0
 17 18  1  0
 16 19  1  0
 19 20  2  0
 20 21  1  0
 21 22  1  0
 22 23  1  0
 23 24  1  0
 24 25  2  0
 25 26  1  0
 26 27  2  0
 27 28  1  0
 28 29  1  0
 28 30  1  0
 27 31  1  0
 31 32  2  0
 21  8  1  0
 32 24  1  0
 20 11  1  0
  1 33  1  0
  1 34  1  0
  1 35  1  0
  3 36  1  0
  3 37  1  0
  4 38  1  0
  4 39  1  0
  5 40  1  0
  9 41  1  0
  9 42  1  0
 10 43  1  0
 10 44  1  0
 12 45  1  0
 15 46  1  0
 15 47  1  0
 15 48  1  0
 18 49  1  0
 18 50  1  0
 18 51  1  0
 19 52  1  0
 21 53  1  0
 22 54  1  0
 22 55  1  0
 25 56  1  0
 26 57  1  0
 28 58  1  0
 29 59  1  0
 29 60  1  0
 29 61  1  0
 30 62  1  0
 30 63  1  0
 30 64  1  0
 31 65  1  0
 32 66  1  0
M  END
$$$$
