
     RDKit          3D

 45 47  0  0  0  0  0  0  0  0999 V2000
    2.2989    0.9432   -1.4288 O   0  0  0  0  0  0  0  0  0  0  0  0
    2.4776   -0.2702   -1.4121 C   0  0  0  0  0  0  0  0  0  0  0  0
    1.5534   -1.2639   -0.7299 C   0  0  0  0  0  0  0  0  0  0  0  0
    0.3453   -0.5947   -0.2756 N   0  0  0  0  0  0  0  0  0  0  0  0
   -0.6564   -1.3040    0.3449 C   0  0  0  0  0  0  0  0  0  0  0  0
   -0.6072   -2.5187    0.5028 O   0  0  0  0  0  0  0  0  0  0  0  0
   -1.8126   -0.5189    0.8606 C   0  0  0  0  0  0  0  0  0  0  0  0
   -2.5675   -1.0589    1.9069 C   0  0  0  0  0  0  0  0  0  0  0  0
   -3.6631   -0.3582    2.4224 C   0  0  0  0  0  0  0  0  0  0  0  0
   -4.0340    0.8915    1.9005 C   0  0  0  0  0  0  0  0  0  0  0  0
   -5.1883    1.6276    2.4419 C   0  0  0  0  0  0  0  0  0  0  0  0
   -5.0597    2.9571    2.8780 C   0  0  0  0  0  0  0  0  0  0  0  0
   -6.1551    3.6565    3.3921 C   0  0  0  0  0  0  0  0  0  0  0  0
   -7.3995    3.0377    3.4778 C   0  0  0  0  0  0  0  0  0  0  0  0
   -7.5493    1.7209    3.0508 C   0  0  0  0  0  0  0  0  0  0  0  0
   -6.4526    1.0225    2.5380 C   0  0  0  0  0  0  0  0  0  0  0  0
   -3.2755    1.4146    0.8397 C   0  0  0  0  0  0  0  0  0  0  0  0
   -2.1779    0.7180    0.3191 C   0  0  0  0  0  0  0  0  0  0  0  0
    3.5329   -0.9151   -1.9758 O   0  0  0  0  0  0  0  0  0  0  0  0
    4.4555   -0.0438   -2.6330 C   0  0  0  0  0  0  0  0  0  0  0  0
    5.5606   -0.8929   -3.2073 C   0  0  0  0  0  0  0  0  0  0  0  0
    5.4245   -1.4704   -4.4786 C   0  0  0  0  0  0  0  0  0  0  0  0
    6.4391   -2.2744   -5.0036 C   0  0  0  0  0  0  0  0  0  0  0  0
    7.5908   -2.5115   -4.2566 C   0  0  0  0  0  0  0  0  0  0  0  0
    8.8403   -3.5020   -4.9031 Cl  0  0  0  0  0  0  0  0  0  0  0  0
    7.7352   -1.9550   -2.9877 C   0  0  0  0  0  0  0  0  0  0  0  0
    6.7208   -1.1510   -2.4623 C   0  0  0  0  0  0  0  0  0  0  0  0
    1.2668   -2.0515   -1.4333 H   0  0  0  0  0  0  0  0  0  0  0  0
    2.0588   -1.6954    0.1392 H   0  0  0  0  0  0  0  0  0  0  0  0
    0.3761    0.4172   -0.2146 H   0  0  0  0  0  0  0  0  0  0  0  0
   -2.3036   -2.0267    2.3293 H   0  0  0  0  0  0  0  0  0  0  0  0
   -4.2237   -0.7952    3.2469 H   0  0  0  0  0  0  0  0  0  0  0  0
   -4.0942    3.4567    2.8313 H   0  0  0  0  0  0  0  0  0  0  0  0
   -6.0340    4.6831    3.7277 H   0  0  0  0  0  0  0  0  0  0  0  0
   -8.2518    3.5809    3.8773 H   0  0  0  0  0  0  0  0  0  0  0  0
   -8.5197    1.2354    3.1137 H   0  0  0  0  0  0  0  0  0  0  0  0
   -6.5952   -0.0021    2.2000 H   0  0  0  0  0  0  0  0  0  0  0  0
   -3.5514    2.3690    0.3939 H   0  0  0  0  0  0  0  0  0  0  0  0
   -1.6444    1.1461   -0.5245 H   0  0  0  0  0  0  0  0  0  0  0  0
    4.8693    0.6793   -1.9192 H   0  0  0  0  0  0  0  0  0  0  0  0
    3.9522    0.5073   -3.4371 H   0  0  0  0  0  0  0  0  0  0  0  0
    4.5245   -1.3001   -5.0663 H   0  0  0  0  0  0  0  0  0  0  0  0
    6.3229   -2.7143   -5.9904 H   0  0  0  0  0  0  0  0  0  0  0  0
    8.6306   -2.1457   -2.4021 H   0  0  0  0  0  0  0  0  0  0  0  0
    6.8404   -0.7299   -1.4661 H   0  0  0  0  0  0  0  0  0  0  0  0
  1  2  2  0
  2  3  1  0
  3  4  1  0
  4  5  1  0
  5  6  2  0
  5  7  1  0
  7  8  2  0
  8  9  1  0
  9 10  2  0
 10 11  1  0
 11 12  2  0
 12 13  1  0
 13 14  2  0
 14 15  1  0
 15 16  2  0
 10 17  1  0
 17 18  2  0
  2 19  1  0
 19 20  1  0
 20 21  1  0
 21 22  2  0
 22 23  1  0
 23 24  2  0
 24 25  1  0
 24 26  1  0
 26 27  2  0
 18  7  1  0
 27 21  1  0
 16 11  1  0
  3 28  1  0
  3 29  1  0
  4 30  1  0
  8 31  1  0
  9 32  1  0
 12 33  1  0
 13 34  1  0
 14 35  1  0
 15 36  1  0
 16 37  1  0
 17 38  1  0
 18 39  1  0
 20 40  1  0
 20 41  1  0
 22 42  1  0
 23 43  1  0
 26 44  1  0
 27 45  1  0
M  END
$$$$
