
     RDKit          3D

 57 60  0  0  0  0  0  0  0  0999 V2000
   -5.5624   -0.9735   -5.5705 C   0  0  0  0  0  0  0  0  0  0  0  0
   -4.6765   -0.8760   -4.3639 C   0  0  0  0  0  0  0  0  0  0  0  0
   -4.1725   -2.0327   -3.7579 C   0  0  0  0  0  0  0  0  0  0  0  0
   -3.3251   -1.9430   -2.6498 C   0  0  0  0  0  0  0  0  0  0  0  0
   -2.9607   -0.6896   -2.1457 C   0  0  0  0  0  0  0  0  0  0  0  0
   -2.0948   -0.5919   -1.0167 N   0  0  0  0  0  0  0  0  0  0  0  0
   -2.1943   -1.3425    0.1550 C   0  0  0  0  0  0  0  0  0  0  0  0
   -3.2926   -2.3038    0.4583 C   0  0  0  0  0  0  0  0  0  0  0  0
   -1.1937   -0.9307    1.0135 C   0  0  0  0  0  0  0  0  0  0  0  0
   -0.4403    0.0731    0.3629 C   0  0  0  0  0  0  0  0  0  0  0  0
    0.7230    0.7477    0.9035 C   0  0  0  0  0  0  0  0  0  0  0  0
    0.4170    1.9412    1.1873 O   0  0  0  0  0  1  0  0  0  0  0  0
    1.8925    0.0707    1.0974 C   0  0  0  0  0  0  0  0  0  0  0  0
    3.1220    0.7394    1.7709 C   0  0  0  0  0  0  0  0  0  0  0  0
    4.6568    0.0386    1.6281 S   0  0  0  0  0  0  0  0  0  0  0  0
    2.8193    1.9242    2.4292 N   0  0  0  0  0  0  0  0  0  0  0  0
    3.5374    2.8208    3.2480 C   0  0  0  0  0  0  0  0  0  0  0  0
    4.7859    2.5774    3.8237 C   0  0  0  0  0  0  0  0  0  0  0  0
    5.3987    3.5417    4.6333 C   0  0  0  0  0  0  0  0  0  0  0  0
    4.7598    4.7504    4.8791 C   0  0  0  0  0  0  0  0  0  0  0  0
    5.3682    5.6550    5.6604 F   0  0  0  0  0  0  0  0  0  0  0  0
    3.5095    5.0053    4.3294 C   0  0  0  0  0  0  0  0  0  0  0  0
    2.7042    6.4958    4.6374 Cl  0  0  0  0  0  0  0  0  0  0  0  0
    2.8989    4.0431    3.5222 C   0  0  0  0  0  0  0  0  0  0  0  0
    1.9765   -1.3729    0.6483 N   0  0  0  0  0  4  0  0  0  0  0  0
    2.1617   -2.3410    1.5710 C   0  0  0  0  0  0  0  0  0  0  0  0
    2.2424   -3.6761    1.1891 C   0  0  0  0  0  0  0  0  0  0  0  0
    2.1302   -4.0068   -0.1558 C   0  0  0  0  0  0  0  0  0  0  0  0
    1.9408   -2.9979   -1.0920 C   0  0  0  0  0  0  0  0  0  0  0  0
    1.8684   -1.6770   -0.6638 C   0  0  0  0  0  0  0  0  0  0  0  0
   -0.9949    0.2601   -0.8974 C   0  0  0  0  0  0  0  0  0  0  0  0
   -0.5206    1.1758   -1.9801 C   0  0  0  0  0  0  0  0  0  0  0  0
   -3.4512    0.4699   -2.7555 C   0  0  0  0  0  0  0  0  0  0  0  0
   -4.3004    0.3747   -3.8612 C   0  0  0  0  0  0  0  0  0  0  0  0
   -6.2587   -0.1295   -5.6133 H   0  0  0  0  0  0  0  0  0  0  0  0
   -4.9552   -0.9782   -6.4809 H   0  0  0  0  0  0  0  0  0  0  0  0
   -6.1634   -1.8885   -5.5409 H   0  0  0  0  0  0  0  0  0  0  0  0
   -4.4349   -3.0135   -4.1482 H   0  0  0  0  0  0  0  0  0  0  0  0
   -2.9291   -2.8592   -2.2230 H   0  0  0  0  0  0  0  0  0  0  0  0
   -3.3960   -2.4355    1.5412 H   0  0  0  0  0  0  0  0  0  0  0  0
   -4.2589   -1.9497    0.0868 H   0  0  0  0  0  0  0  0  0  0  0  0
   -3.0763   -3.2870    0.0303 H   0  0  0  0  0  0  0  0  0  0  0  0
   -1.0524   -1.2852    2.0258 H   0  0  0  0  0  0  0  0  0  0  0  0
    1.8587    2.2487    2.2006 H   0  0  0  0  0  0  0  0  0  0  0  0
    5.3128    1.6416    3.6941 H   0  0  0  0  0  0  0  0  0  0  0  0
    6.3699    3.3495    5.0789 H   0  0  0  0  0  0  0  0  0  0  0  0
    1.9191    4.2543    3.0946 H   0  0  0  0  0  0  0  0  0  0  0  0
    2.2228   -2.0323    2.6099 H   0  0  0  0  0  0  0  0  0  0  0  0
    2.3862   -4.4504    1.9379 H   0  0  0  0  0  0  0  0  0  0  0  0
    2.1876   -5.0461   -0.4731 H   0  0  0  0  0  0  0  0  0  0  0  0
    1.8481   -3.2324   -2.1490 H   0  0  0  0  0  0  0  0  0  0  0  0
    1.7342   -0.8513   -1.3550 H   0  0  0  0  0  0  0  0  0  0  0  0
   -1.0485    2.1330   -1.9347 H   0  0  0  0  0  0  0  0  0  0  0  0
    0.5497    1.3847   -1.8797 H   0  0  0  0  0  0  0  0  0  0  0  0
   -0.6543    0.7351   -2.9726 H   0  0  0  0  0  0  0  0  0  0  0  0
   -3.2189    1.4551   -2.3583 H   0  0  0  0  0  0  0  0  0  0  0  0
   -4.6757    1.2874   -4.3195 H   0  0  0  0  0  0  0  0  0  0  0  0
  1  2  1  0
  2  3  2  0
  3  4  1  0
  4  5  2  0
  5  6  1  0
  6  7  1  0
  7  8  1  0
  7  9  2  0
  9 10  1  0
 10 11  1  0
 11 12  1  0
 11 13  2  3
 13 14  1  0
 14 15  2  0
 14 16  1  0
 16 17  1  0
 17 18  2  0
 18 19  1  0
 19 20  2  0
 20 21  1  0
 20 22  1  0
 22 23  1  0
 22 24  2  0
 13 25  1  0
 25 26  2  0
 26 27  1  0
 27 28  2  0
 28 29  1  0
 29 30  2  0
 10 31  2  0
 31 32  1  0
  5 33  1  0
 33 34  2  0
 34  2  1  0
 31  6  1  0
 24 17  1  0
 30 25  1  0
  1 35  1  0
  1 36  1  0
  1 37  1  0
  3 38  1  0
  4 39  1  0
  8 40  1  0
  8 41  1  0
  8 42  1  0
  9 43  1  0
 16 44  1  0
 18 45  1  0
 19 46  1  0
 24 47  1  0
 26 48  1  0
 27 49  1  0
 28 50  1  0
 29 51  1  0
 30 52  1  0
 32 53  1  0
 32 54  1  0
 32 55  1  0
 33 56  1  0
 34 57  1  0
M  CHG  2  12  -1  25   1
M  END
$$$$
