
     RDKit          3D

 50 52  0  0  0  0  0  0  0  0999 V2000
   -2.9884   -2.3333   -2.5145 C   0  0  0  0  0  0  0  0  0  0  0  0
   -3.8499   -1.3471   -1.9626 O   0  0  0  0  0  0  0  0  0  0  0  0
   -3.4195   -0.6813   -0.8446 C   0  0  0  0  0  0  0  0  0  0  0  0
   -2.2274   -0.9425   -0.1718 C   0  0  0  0  0  0  0  0  0  0  0  0
   -1.8826   -0.1787    0.9504 C   0  0  0  0  0  0  0  0  0  0  0  0
   -0.6207   -0.4440    1.6764 C   0  0  0  0  0  0  0  0  0  0  0  0
   -0.6909   -0.6694    2.8817 O   0  0  0  0  0  0  0  0  0  0  0  0
    0.5754   -0.4232    0.9704 N   0  0  0  0  0  0  0  0  0  0  0  0
    0.7503    0.1703   -0.3656 C   0  0  0  0  0  0  0  0  0  0  0  0
    2.1653    0.7441   -0.5720 C   0  0  0  0  0  0  0  0  0  0  0  0
    3.1839   -0.3013   -0.3677 N   0  0  0  0  0  0  0  0  0  0  0  0
    4.5233   -0.0539   -0.6952 C   0  0  0  0  0  0  0  0  0  0  0  0
    5.0346    1.2590   -0.6879 C   0  0  0  0  0  0  0  0  0  0  0  0
    6.3721    1.5309   -0.9949 C   0  0  0  0  0  0  0  0  0  0  0  0
    6.9426    3.1547   -0.9536 Cl  0  0  0  0  0  0  0  0  0  0  0  0
    7.2458    0.5051   -1.3284 C   0  0  0  0  0  0  0  0  0  0  0  0
    6.7731   -0.8029   -1.3641 C   0  0  0  0  0  0  0  0  0  0  0  0
    5.4318   -1.0814   -1.0582 C   0  0  0  0  0  0  0  0  0  0  0  0
    4.9452   -2.7370   -1.2368 Cl  0  0  0  0  0  0  0  0  0  0  0  0
    2.9256   -1.2578    0.7374 C   0  0  0  0  0  0  0  0  0  0  0  0
    1.8075   -0.7771    1.6816 C   0  0  0  0  0  0  0  0  0  0  0  0
   -2.7355    0.8164    1.4425 C   0  0  0  0  0  0  0  0  0  0  0  0
   -3.9334    1.0878    0.7843 C   0  0  0  0  0  0  0  0  0  0  0  0
   -4.8339    2.0502    1.1604 O   0  0  0  0  0  0  0  0  0  0  0  0
   -4.5299    2.8166    2.3182 C   0  0  0  0  0  0  0  0  0  0  0  0
   -4.2686    0.3291   -0.3536 C   0  0  0  0  0  0  0  0  0  0  0  0
   -5.4244    0.6264   -1.0437 O   0  0  0  0  0  0  0  0  0  0  0  0
   -6.5081   -0.1451   -0.5277 C   0  0  0  0  0  0  0  0  0  0  0  0
   -2.0290   -1.8985   -2.8138 H   0  0  0  0  0  0  0  0  0  0  0  0
   -2.8459   -3.1653   -1.8172 H   0  0  0  0  0  0  0  0  0  0  0  0
   -3.4684   -2.7315   -3.4136 H   0  0  0  0  0  0  0  0  0  0  0  0
   -1.5563   -1.7340   -0.4869 H   0  0  0  0  0  0  0  0  0  0  0  0
    0.5683   -0.6274   -1.0949 H   0  0  0  0  0  0  0  0  0  0  0  0
    0.0088    0.9598   -0.5226 H   0  0  0  0  0  0  0  0  0  0  0  0
    2.2371    1.1456   -1.5897 H   0  0  0  0  0  0  0  0  0  0  0  0
    2.3169    1.5670    0.1374 H   0  0  0  0  0  0  0  0  0  0  0  0
    4.4000    2.0967   -0.4154 H   0  0  0  0  0  0  0  0  0  0  0  0
    8.2844    0.7149   -1.5688 H   0  0  0  0  0  0  0  0  0  0  0  0
    7.4493   -1.6068   -1.6455 H   0  0  0  0  0  0  0  0  0  0  0  0
    3.8270   -1.4357    1.3366 H   0  0  0  0  0  0  0  0  0  0  0  0
    2.6115   -2.2117    0.2982 H   0  0  0  0  0  0  0  0  0  0  0  0
    2.1323    0.1199    2.2234 H   0  0  0  0  0  0  0  0  0  0  0  0
    1.5934   -1.5506    2.4276 H   0  0  0  0  0  0  0  0  0  0  0  0
   -2.4327    1.3578    2.3332 H   0  0  0  0  0  0  0  0  0  0  0  0
   -5.3490    3.5252    2.4744 H   0  0  0  0  0  0  0  0  0  0  0  0
   -4.4662    2.1806    3.2072 H   0  0  0  0  0  0  0  0  0  0  0  0
   -3.6113    3.3957    2.1781 H   0  0  0  0  0  0  0  0  0  0  0  0
   -6.3277   -1.2188   -0.6484 H   0  0  0  0  0  0  0  0  0  0  0  0
   -6.7019    0.0902    0.5244 H   0  0  0  0  0  0  0  0  0  0  0  0
   -7.4040    0.1123   -1.1008 H   0  0  0  0  0  0  0  0  0  0  0  0
  1  2  1  0
  2  3  1  0
  3  4  2  0
  4  5  1  0
  5  6  1  0
  6  7  2  0
  6  8  1  0
  8  9  1  0
  9 10  1  0
 10 11  1  0
 11 12  1  0
 12 13  2  0
 13 14  1  0
 14 15  1  0
 14 16  2  0
 16 17  1  0
 17 18  2  0
 18 19  1  0
 11 20  1  0
 20 21  1  0
  5 22  2  0
 22 23  1  0
 23 24  1  0
 24 25  1  0
 23 26  2  0
 26 27  1  0
 27 28  1  0
 26  3  1  0
 21  8  1  0
 18 12  1  0
  1 29  1  0
  1 30  1  0
  1 31  1  0
  4 32  1  0
  9 33  1  0
  9 34  1  0
 10 35  1  0
 10 36  1  0
 13 37  1  0
 16 38  1  0
 17 39  1  0
 20 40  1  0
 20 41  1  0
 21 42  1  0
 21 43  1  0
 22 44  1  0
 25 45  1  0
 25 46  1  0
 25 47  1  0
 28 48  1  0
 28 49  1  0
 28 50  1  0
M  END
$$$$
