
     RDKit          3D

 51 55  0  0  0  0  0  0  0  0999 V2000
    1.1330    2.5531    0.2917 C   0  0  0  0  0  0  0  0  0  0  0  0
   -0.0051    1.7870   -0.3228 C   0  0  0  0  0  0  0  0  0  0  0  0
    0.1163    0.5200   -0.7928 C   0  0  0  0  0  0  0  0  0  0  0  0
    1.3934   -0.2384   -0.7238 C   0  0  0  0  0  0  0  0  0  0  0  0
    1.9849   -0.5022   -1.7609 O   0  0  0  0  0  0  0  0  0  0  0  0
    1.7114   -0.6095    0.5647 N   0  0  0  0  0  0  0  0  0  0  0  0
    2.8124   -1.3838    0.9827 C   0  0  0  0  0  0  0  0  0  0  0  0
    3.8015   -1.8611    0.1213 C   0  0  0  0  0  0  0  0  0  0  0  0
    4.8606   -2.6291    0.6162 C   0  0  0  0  0  0  0  0  0  0  0  0
    4.9393   -2.9250    1.9748 C   0  0  0  0  0  0  0  0  0  0  0  0
    3.9589   -2.4521    2.8424 C   0  0  0  0  0  0  0  0  0  0  0  0
    2.9009   -1.6845    2.3484 C   0  0  0  0  0  0  0  0  0  0  0  0
   -0.9827   -0.2383   -1.5136 C   0  0  0  0  0  0  0  0  0  0  0  0
   -1.2721   -1.5910   -0.8633 C   0  0  0  0  0  0  0  0  0  0  0  0
   -2.0257   -1.6903    0.3219 C   0  0  0  0  0  0  0  0  0  0  0  0
   -2.2437   -2.9262    0.9355 C   0  0  0  0  0  0  0  0  0  0  0  0
   -1.7055   -4.0869    0.3819 C   0  0  0  0  0  0  0  0  0  0  0  0
   -0.9496   -4.0027   -0.7935 C   0  0  0  0  0  0  0  0  0  0  0  0
   -0.3831   -5.2241   -1.3796 N   0  0  0  0  0  4  0  0  0  0  0  0
    0.1483   -5.1355   -2.4953 O   0  0  0  0  0  0  0  0  0  0  0  0
   -0.4774   -6.2736   -0.7266 O   0  0  0  0  0  1  0  0  0  0  0  0
   -0.7303   -2.7653   -1.4169 C   0  0  0  0  0  0  0  0  0  0  0  0
   -2.2232    0.5229   -1.5627 N   0  0  0  0  0  0  0  0  0  0  0  0
   -2.3339    1.7863   -1.1080 C   0  0  0  0  0  0  0  0  0  0  0  0
   -3.4007    2.5359   -1.1743 N   0  0  0  0  0  0  0  0  0  0  0  0
   -3.0495    3.7070   -0.5651 C   0  0  0  0  0  0  0  0  0  0  0  0
   -3.8382    4.8513   -0.3624 C   0  0  0  0  0  0  0  0  0  0  0  0
   -3.2867    5.9505    0.2999 C   0  0  0  0  0  0  0  0  0  0  0  0
   -1.9719    5.9110    0.7549 C   0  0  0  0  0  0  0  0  0  0  0  0
   -1.1689    4.7793    0.5616 C   0  0  0  0  0  0  0  0  0  0  0  0
   -1.7282    3.6783   -0.1102 C   0  0  0  0  0  0  0  0  0  0  0  0
   -1.2600    2.4200   -0.4814 N   0  0  0  0  0  0  0  0  0  0  0  0
    2.0873    2.0207    0.2549 H   0  0  0  0  0  0  0  0  0  0  0  0
    0.9266    2.7656    1.3455 H   0  0  0  0  0  0  0  0  0  0  0  0
    1.2998    3.4912   -0.2476 H   0  0  0  0  0  0  0  0  0  0  0  0
    1.0609   -0.3402    1.2922 H   0  0  0  0  0  0  0  0  0  0  0  0
    3.7822   -1.6549   -0.9442 H   0  0  0  0  0  0  0  0  0  0  0  0
    5.6235   -2.9966   -0.0661 H   0  0  0  0  0  0  0  0  0  0  0  0
    5.7632   -3.5238    2.3545 H   0  0  0  0  0  0  0  0  0  0  0  0
    4.0168   -2.6818    3.9032 H   0  0  0  0  0  0  0  0  0  0  0  0
    2.1485   -1.3308    3.0481 H   0  0  0  0  0  0  0  0  0  0  0  0
   -0.6700   -0.4008   -2.5534 H   0  0  0  0  0  0  0  0  0  0  0  0
   -2.4570   -0.7963    0.7725 H   0  0  0  0  0  0  0  0  0  0  0  0
   -2.8370   -2.9824    1.8459 H   0  0  0  0  0  0  0  0  0  0  0  0
   -1.8849   -5.0416    0.8722 H   0  0  0  0  0  0  0  0  0  0  0  0
   -0.1254   -2.7051   -2.3222 H   0  0  0  0  0  0  0  0  0  0  0  0
   -2.9951    0.1224   -2.0843 H   0  0  0  0  0  0  0  0  0  0  0  0
   -4.8627    4.8699   -0.7184 H   0  0  0  0  0  0  0  0  0  0  0  0
   -3.8913    6.8399    0.4599 H   0  0  0  0  0  0  0  0  0  0  0  0
   -1.5590    6.7765    1.2703 H   0  0  0  0  0  0  0  0  0  0  0  0
   -0.1512    4.7852    0.9311 H   0  0  0  0  0  0  0  0  0  0  0  0
  1  2  1  0
  2  3  2  0
  3  4  1  0
  4  5  2  0
  4  6  1  0
  6  7  1  0
  7  8  2  0
  8  9  1  0
  9 10  2  0
 10 11  1  0
 11 12  2  0
  3 13  1  0
 13 14  1  0
 14 15  2  0
 15 16  1  0
 16 17  2  0
 17 18  1  0
 18 19  1  0
 19 20  2  0
 19 21  1  0
 18 22  2  0
 13 23  1  0
 23 24  1  0
 24 25  2  0
 25 26  1  0
 26 27  2  0
 27 28  1  0
 28 29  2  0
 29 30  1  0
 30 31  2  0
 31 32  1  0
 32  2  1  0
 12  7  1  0
 22 14  1  0
 32 24  1  0
 31 26  1  0
  1 33  1  0
  1 34  1  0
  1 35  1  0
  6 36  1  0
  8 37  1  0
  9 38  1  0
 10 39  1  0
 11 40  1  0
 12 41  1  0
 13 42  1  0
 15 43  1  0
 16 44  1  0
 17 45  1  0
 22 46  1  0
 23 47  1  0
 27 48  1  0
 28 49  1  0
 29 50  1  0
 30 51  1  0
M  CHG  2  19   1  21  -1
M  END
$$$$
