
     RDKit          3D

 67 69  0  0  0  0  0  0  0  0999 V2000
   -4.5966    2.0757   -1.3804 C   0  0  0  0  0  0  0  0  0  0  0  0
   -3.2229    1.7675   -1.9976 C   0  0  0  0  0  0  0  0  0  0  0  0
   -2.2090    2.8562   -1.6075 C   0  0  0  0  0  0  0  0  0  0  0  0
   -3.3813    1.7678   -3.5305 C   0  0  0  0  0  0  0  0  0  0  0  0
   -2.7297    0.4399   -1.6026 N   0  0  0  0  0  0  0  0  0  0  0  0
   -2.5916   -0.0035   -0.2986 C   0  0  0  0  0  0  0  0  0  0  0  0
   -2.9406    0.6529    0.6832 O   0  0  0  0  0  0  0  0  0  0  0  0
   -1.9112   -1.4028   -0.1307 C   0  0  0  0  0  0  0  0  0  0  0  0
   -1.9870   -2.3359   -1.3443 C   0  0  0  0  0  0  0  0  0  0  0  0
   -0.8509   -2.8155   -2.0218 C   0  0  0  0  0  0  0  0  0  0  0  0
   -0.9807   -3.6624   -3.1267 C   0  0  0  0  0  0  0  0  0  0  0  0
   -2.2451   -4.0413   -3.5590 C   0  0  0  0  0  0  0  0  0  0  0  0
   -2.3666   -4.8479   -4.6205 F   0  0  0  0  0  0  0  0  0  0  0  0
   -3.3859   -3.5922   -2.9055 C   0  0  0  0  0  0  0  0  0  0  0  0
   -3.2573   -2.7467   -1.8023 C   0  0  0  0  0  0  0  0  0  0  0  0
   -0.5804   -1.2839    0.5097 N   0  0  0  0  0  0  0  0  0  0  0  0
    0.3276   -0.3910   -0.0595 C   0  0  0  0  0  0  0  0  0  0  0  0
    0.1254    0.1319   -1.1578 O   0  0  0  0  0  0  0  0  0  0  0  0
    1.5946   -0.0888    0.7178 C   0  0  0  0  0  0  0  0  0  0  0  0
    2.3427    1.1056    0.1319 C   0  0  0  0  0  0  0  0  0  0  0  0
    3.5754    1.4455    0.9461 C   0  0  0  0  0  0  0  0  0  0  0  0
    3.9482    0.7469    1.8835 O   0  0  0  0  0  0  0  0  0  0  0  0
    4.1913    2.5866    0.4842 N   0  0  0  0  0  0  0  0  0  0  0  0
    5.3386    3.2109    0.9741 C   0  0  0  0  0  0  0  0  0  0  0  0
    6.0519    2.7820    2.0852 C   0  0  0  0  0  0  0  0  0  0  0  0
    7.1904    3.4919    2.4717 C   0  0  0  0  0  0  0  0  0  0  0  0
    7.5786    4.6027    1.7387 C   0  0  0  0  0  0  0  0  0  0  0  0
    6.7999    4.9723    0.6546 C   0  0  0  0  0  0  0  0  0  0  0  0
    5.6952    4.3015    0.2581 N   0  0  0  0  0  0  0  0  0  0  0  0
   -0.3208   -2.0426    1.7441 C   0  0  0  0  0  0  0  0  0  0  0  0
   -1.0465   -1.4839    2.9767 C   0  0  0  0  0  0  0  0  0  0  0  0
   -1.4399   -2.6973    3.8240 C   0  0  0  0  0  0  0  0  0  0  0  0
   -0.7596   -3.8968    3.1812 C   0  0  0  0  0  0  0  0  0  0  0  0
   -0.6983   -3.5281    1.7059 C   0  0  0  0  0  0  0  0  0  0  0  0
   -5.0228    2.9922   -1.8083 H   0  0  0  0  0  0  0  0  0  0  0  0
   -4.5332    2.2328   -0.2971 H   0  0  0  0  0  0  0  0  0  0  0  0
   -5.3043    1.2551   -1.5601 H   0  0  0  0  0  0  0  0  0  0  0  0
   -1.2302    2.6601   -2.0608 H   0  0  0  0  0  0  0  0  0  0  0  0
   -2.5438    3.8465   -1.9427 H   0  0  0  0  0  0  0  0  0  0  0  0
   -2.0599    2.9065   -0.5223 H   0  0  0  0  0  0  0  0  0  0  0  0
   -2.4327    1.5345   -4.0304 H   0  0  0  0  0  0  0  0  0  0  0  0
   -3.7239    2.7414   -3.8985 H   0  0  0  0  0  0  0  0  0  0  0  0
   -4.1081    1.0108   -3.8492 H   0  0  0  0  0  0  0  0  0  0  0  0
   -2.0335    0.0403   -2.2273 H   0  0  0  0  0  0  0  0  0  0  0  0
   -2.5647   -1.8780    0.6157 H   0  0  0  0  0  0  0  0  0  0  0  0
    0.1524   -2.5327   -1.7067 H   0  0  0  0  0  0  0  0  0  0  0  0
   -0.0999   -4.0222   -3.6527 H   0  0  0  0  0  0  0  0  0  0  0  0
   -4.3654   -3.9000   -3.2575 H   0  0  0  0  0  0  0  0  0  0  0  0
   -4.1626   -2.4029   -1.3021 H   0  0  0  0  0  0  0  0  0  0  0  0
    2.2374   -0.9757    0.6888 H   0  0  0  0  0  0  0  0  0  0  0  0
    1.3341    0.1305    1.7583 H   0  0  0  0  0  0  0  0  0  0  0  0
    2.6579    0.8893   -0.8951 H   0  0  0  0  0  0  0  0  0  0  0  0
    1.6838    1.9820    0.1082 H   0  0  0  0  0  0  0  0  0  0  0  0
    3.8048    3.0803   -0.3110 H   0  0  0  0  0  0  0  0  0  0  0  0
    5.7468    1.9292    2.6766 H   0  0  0  0  0  0  0  0  0  0  0  0
    7.7593    3.1780    3.3409 H   0  0  0  0  0  0  0  0  0  0  0  0
    8.4544    5.1771    2.0140 H   0  0  0  0  0  0  0  0  0  0  0  0
    7.0467    5.8525    0.0640 H   0  0  0  0  0  0  0  0  0  0  0  0
    0.7521   -2.0125    1.9612 H   0  0  0  0  0  0  0  0  0  0  0  0
   -0.3857   -0.8108    3.5370 H   0  0  0  0  0  0  0  0  0  0  0  0
   -1.9409   -0.9051    2.7186 H   0  0  0  0  0  0  0  0  0  0  0  0
   -2.5305   -2.8226    3.7968 H   0  0  0  0  0  0  0  0  0  0  0  0
   -1.1484   -2.5757    4.8726 H   0  0  0  0  0  0  0  0  0  0  0  0
   -1.3091   -4.8257    3.3573 H   0  0  0  0  0  0  0  0  0  0  0  0
    0.2521   -4.0189    3.5821 H   0  0  0  0  0  0  0  0  0  0  0  0
    0.0370   -4.1246    1.1543 H   0  0  0  0  0  0  0  0  0  0  0  0
   -1.6770   -3.7091    1.2502 H   0  0  0  0  0  0  0  0  0  0  0  0
  1  2  1  0
  2  3  1  0
  2  4  1  0
  2  5  1  0
  5  6  1  0
  6  7  2  0
  6  8  1  0
  8  9  1  0
  9 10  2  0
 10 11  1  0
 11 12  2  0
 12 13  1  0
 12 14  1  0
 14 15  2  0
  8 16  1  0
 16 17  1  0
 17 18  2  0
 17 19  1  0
 19 20  1  0
 20 21  1  0
 21 22  2  0
 21 23  1  0
 23 24  1  0
 24 25  2  0
 25 26  1  0
 26 27  2  0
 27 28  1  0
 28 29  2  0
 16 30  1  0
 30 31  1  0
 31 32  1  0
 32 33  1  0
 33 34  1  0
 15  9  1  0
 29 24  1  0
 34 30  1  0
  1 35  1  0
  1 36  1  0
  1 37  1  0
  3 38  1  0
  3 39  1  0
  3 40  1  0
  4 41  1  0
  4 42  1  0
  4 43  1  0
  5 44  1  0
  8 45  1  0
 10 46  1  0
 11 47  1  0
 14 48  1  0
 15 49  1  0
 19 50  1  0
 19 51  1  0
 20 52  1  0
 20 53  1  0
 23 54  1  0
 25 55  1  0
 26 56  1  0
 27 57  1  0
 28 58  1  0
 30 59  1  0
 31 60  1  0
 31 61  1  0
 32 62  1  0
 32 63  1  0
 33 64  1  0
 33 65  1  0
 34 66  1  0
 34 67  1  0
M  END
$$$$
