
     RDKit          3D

 68 70  0  0  0  0  0  0  0  0999 V2000
    4.7289    3.9748    0.6656 C   0  0  0  0  0  0  0  0  0  0  0  0
    3.9713    2.6641    0.5240 C   0  0  0  0  0  0  0  0  0  0  0  0
    4.9090    1.5865    0.1501 N   0  0  0  0  0  0  0  0  0  0  0  0
    5.6227    0.9085    1.2501 C   0  0  0  0  0  0  0  0  0  0  0  0
    4.7539   -0.0714    2.0174 C   0  0  0  0  0  0  0  0  0  0  0  0
    4.7757    0.8500   -1.3643 S   0  0  0  0  0  6  0  0  0  0  0  0
    4.2872    1.8226   -2.3183 O   0  0  0  0  0  0  0  0  0  0  0  0
    6.0072    0.1258   -1.6096 O   0  0  0  0  0  0  0  0  0  0  0  0
    3.4893   -0.3633   -1.1568 C   0  0  0  0  0  0  0  0  0  0  0  0
    3.7972   -1.7221   -1.2528 C   0  0  0  0  0  0  0  0  0  0  0  0
    2.7865   -2.6780   -1.1144 C   0  0  0  0  0  0  0  0  0  0  0  0
    1.4606   -2.2958   -0.8765 C   0  0  0  0  0  0  0  0  0  0  0  0
    0.4139   -3.2171   -0.6776 N   0  0  0  0  0  0  0  0  0  0  0  0
    0.0819   -3.4510    0.7508 C   0  0  0  0  0  0  0  0  0  0  0  0
    0.8426   -4.6564    1.3161 C   0  0  0  0  0  0  0  0  0  0  0  0
    0.5710   -5.8362    0.5452 O   0  0  0  0  0  0  0  0  0  0  0  0
    1.0249   -5.6638   -0.8037 C   0  0  0  0  0  0  0  0  0  0  0  0
    0.3741   -4.4519   -1.4928 C   0  0  0  0  0  0  0  0  0  0  0  0
    1.1656   -0.9045   -0.8155 C   0  0  0  0  0  0  0  0  0  0  0  0
   -0.1971   -0.5692   -0.6656 N   0  0  0  0  0  0  0  0  0  0  0  0
   -0.7571    0.6712   -0.4391 C   0  0  0  0  0  0  0  0  0  0  0  0
   -0.1442    1.7105   -0.2233 O   0  0  0  0  0  0  0  0  0  0  0  0
   -2.2769    0.5996   -0.4524 C   0  0  0  0  0  0  0  0  0  0  0  0
   -2.9315    1.9724   -0.2926 C   0  0  0  0  0  0  0  0  0  0  0  0
   -4.4639    1.9275   -0.4354 C   0  0  0  0  0  0  0  0  0  0  0  0
   -5.0542    3.3417   -0.3798 C   0  0  0  0  0  0  0  0  0  0  0  0
   -6.5610    3.3474   -0.6537 C   0  0  0  0  0  0  0  0  0  0  0  0
   -7.2644    2.0539   -0.2421 C   0  0  0  0  0  0  0  0  0  0  0  0
   -6.5741    1.3927    0.9414 C   0  0  0  0  0  0  0  0  0  0  0  0
   -5.1222    1.0230    0.6255 C   0  0  0  0  0  0  0  0  0  0  0  0
    2.1722    0.0510   -0.9619 C   0  0  0  0  0  0  0  0  0  0  0  0
    4.0376    4.7880    0.9122 H   0  0  0  0  0  0  0  0  0  0  0  0
    5.2445    4.2329   -0.2659 H   0  0  0  0  0  0  0  0  0  0  0  0
    5.4786    3.9187    1.4604 H   0  0  0  0  0  0  0  0  0  0  0  0
    3.1956    2.8001   -0.2330 H   0  0  0  0  0  0  0  0  0  0  0  0
    3.4571    2.4244    1.4592 H   0  0  0  0  0  0  0  0  0  0  0  0
    6.5103    0.3952    0.8649 H   0  0  0  0  0  0  0  0  0  0  0  0
    6.0050    1.6666    1.9431 H   0  0  0  0  0  0  0  0  0  0  0  0
    5.3001   -0.4503    2.8873 H   0  0  0  0  0  0  0  0  0  0  0  0
    4.4833   -0.9342    1.4056 H   0  0  0  0  0  0  0  0  0  0  0  0
    3.8298    0.3903    2.3768 H   0  0  0  0  0  0  0  0  0  0  0  0
    4.8193   -2.0488   -1.4340 H   0  0  0  0  0  0  0  0  0  0  0  0
    3.0708   -3.7209   -1.1816 H   0  0  0  0  0  0  0  0  0  0  0  0
   -0.9939   -3.6589    0.8002 H   0  0  0  0  0  0  0  0  0  0  0  0
    0.2662   -2.5639    1.3682 H   0  0  0  0  0  0  0  0  0  0  0  0
    1.9238   -4.4797    1.3385 H   0  0  0  0  0  0  0  0  0  0  0  0
    0.5152   -4.8519    2.3423 H   0  0  0  0  0  0  0  0  0  0  0  0
    0.7691   -6.5745   -1.3552 H   0  0  0  0  0  0  0  0  0  0  0  0
    2.1160   -5.5953   -0.7968 H   0  0  0  0  0  0  0  0  0  0  0  0
   -0.6871   -4.6848   -1.6488 H   0  0  0  0  0  0  0  0  0  0  0  0
    0.8056   -4.2915   -2.4882 H   0  0  0  0  0  0  0  0  0  0  0  0
   -0.8054   -1.3825   -0.7178 H   0  0  0  0  0  0  0  0  0  0  0  0
   -2.5892    0.1505   -1.4030 H   0  0  0  0  0  0  0  0  0  0  0  0
   -2.5854   -0.0658    0.3616 H   0  0  0  0  0  0  0  0  0  0  0  0
   -2.6588    2.3981    0.6817 H   0  0  0  0  0  0  0  0  0  0  0  0
   -2.5230    2.6533   -1.0505 H   0  0  0  0  0  0  0  0  0  0  0  0
   -4.6932    1.5123   -1.4272 H   0  0  0  0  0  0  0  0  0  0  0  0
   -4.5577    4.0010   -1.1023 H   0  0  0  0  0  0  0  0  0  0  0  0
   -4.8667    3.7747    0.6120 H   0  0  0  0  0  0  0  0  0  0  0  0
   -7.0096    4.1973   -0.1249 H   0  0  0  0  0  0  0  0  0  0  0  0
   -6.7444    3.5224   -1.7212 H   0  0  0  0  0  0  0  0  0  0  0  0
   -7.2723    1.3573   -1.0901 H   0  0  0  0  0  0  0  0  0  0  0  0
   -8.3127    2.2655   -0.0032 H   0  0  0  0  0  0  0  0  0  0  0  0
   -7.1231    0.4958    1.2497 H   0  0  0  0  0  0  0  0  0  0  0  0
   -6.5946    2.0795    1.7974 H   0  0  0  0  0  0  0  0  0  0  0  0
   -4.5519    1.0413    1.5625 H   0  0  0  0  0  0  0  0  0  0  0  0
   -5.0884   -0.0138    0.2679 H   0  0  0  0  0  0  0  0  0  0  0  0
    1.9403    1.1091   -0.9678 H   0  0  0  0  0  0  0  0  0  0  0  0
  1  2  1  0
  2  3  1  0
  3  4  1  0
  4  5  1  0
  3  6  1  0
  6  7  2  0
  6  8  2  0
  6  9  1  0
  9 10  2  0
 10 11  1  0
 11 12  2  0
 12 13  1  0
 13 14  1  0
 14 15  1  0
 15 16  1  0
 16 17  1  0
 17 18  1  0
 12 19  1  0
 19 20  1  0
 20 21  1  0
 21 22  2  0
 21 23  1  0
 23 24  1  0
 24 25  1  0
 25 26  1  0
 26 27  1  0
 27 28  1  0
 28 29  1  0
 29 30  1  0
 19 31  2  0
 31  9  1  0
 18 13  1  0
 30 25  1  0
  1 32  1  0
  1 33  1  0
  1 34  1  0
  2 35  1  0
  2 36  1  0
  4 37  1  0
  4 38  1  0
  5 39  1  0
  5 40  1  0
  5 41  1  0
 10 42  1  0
 11 43  1  0
 14 44  1  0
 14 45  1  0
 15 46  1  0
 15 47  1  0
 17 48  1  0
 17 49  1  0
 18 50  1  0
 18 51  1  0
 20 52  1  0
 23 53  1  0
 23 54  1  0
 24 55  1  0
 24 56  1  0
 25 57  1  0
 26 58  1  0
 26 59  1  0
 27 60  1  0
 27 61  1  0
 28 62  1  0
 28 63  1  0
 29 64  1  0
 29 65  1  0
 30 66  1  0
 30 67  1  0
 31 68  1  0
M  END
$$$$
