
     RDKit          3D

 58 60  0  0  0  0  0  0  0  0999 V2000
    2.0773   -4.6617    0.9599 C   0  0  0  0  0  0  0  0  0  0  0  0
    1.2018   -4.1324   -0.1668 C   0  0  0  0  0  0  0  0  0  0  0  0
    1.9453   -3.2197   -1.1473 C   0  0  0  0  0  0  0  0  0  0  0  0
    2.4523   -1.9447   -0.5353 C   0  0  0  0  0  0  0  0  0  0  0  0
    3.7861   -1.8555   -0.1490 N   0  0  0  0  0  0  0  0  0  0  0  0
    3.9429   -0.5958    0.4464 N   0  0  0  0  0  0  0  0  0  0  0  0
    5.2000   -0.1797    0.9371 C   0  0  0  0  0  0  0  0  0  0  0  0
    6.3337   -0.9980    0.7868 C   0  0  0  0  0  0  0  0  0  0  0  0
    7.5856   -0.6018    1.2749 C   0  0  0  0  0  0  0  0  0  0  0  0
    7.7153    0.6302    1.9232 C   0  0  0  0  0  0  0  0  0  0  0  0
    9.0247    1.0507    2.4372 N   0  0  0  0  0  4  0  0  0  0  0  0
    9.9975    0.3187    2.2008 O   0  0  0  0  0  0  0  0  0  0  0  0
    9.0802    2.1096    3.0786 O   0  0  0  0  0  1  0  0  0  0  0  0
    6.6040    1.4627    2.0800 C   0  0  0  0  0  0  0  0  0  0  0  0
    5.3578    1.0545    1.5859 C   0  0  0  0  0  0  0  0  0  0  0  0
    2.7356    0.1131    0.3606 C   0  0  0  0  0  0  0  0  0  0  0  0
    2.4826    1.2434    0.7409 O   0  0  0  0  0  0  0  0  0  0  0  0
    1.7703   -0.8060   -0.3082 C   0  0  0  0  0  0  0  0  0  0  0  0
    0.3551   -0.5638   -0.6124 C   0  0  0  0  0  0  0  0  0  0  0  0
   -0.2792    0.5161   -0.3147 N   0  0  0  0  0  0  0  0  0  0  0  0
   -1.6892    0.5097   -0.7201 C   0  0  0  0  0  0  0  0  0  0  0  0
   -2.2712    1.9071   -0.4931 C   0  0  0  0  0  0  0  0  0  0  0  0
   -3.7410    1.9595   -0.8336 C   0  0  0  0  0  0  0  0  0  0  0  0
   -4.1560    2.1922   -2.1479 C   0  0  0  0  0  0  0  0  0  0  0  0
   -5.5158    2.2050   -2.4704 C   0  0  0  0  0  0  0  0  0  0  0  0
   -6.4812    1.9853   -1.4822 C   0  0  0  0  0  0  0  0  0  0  0  0
   -7.8362    1.9778   -1.7076 O   0  0  0  0  0  0  0  0  0  0  0  0
   -8.2820    2.1956   -3.0393 C   0  0  0  0  0  0  0  0  0  0  0  0
   -6.0735    1.7573   -0.1528 C   0  0  0  0  0  0  0  0  0  0  0  0
   -7.0784    1.5471    0.7600 O   0  0  0  0  0  0  0  0  0  0  0  0
   -6.7195    1.5071    2.1343 C   0  0  0  0  0  0  0  0  0  0  0  0
   -4.7079    1.7395    0.1591 C   0  0  0  0  0  0  0  0  0  0  0  0
    1.5200   -5.3903    1.5570 H   0  0  0  0  0  0  0  0  0  0  0  0
    2.3955   -3.8591    1.6315 H   0  0  0  0  0  0  0  0  0  0  0  0
    2.9694   -5.1584    0.5658 H   0  0  0  0  0  0  0  0  0  0  0  0
    0.3394   -3.6080    0.2620 H   0  0  0  0  0  0  0  0  0  0  0  0
    0.8021   -4.9865   -0.7267 H   0  0  0  0  0  0  0  0  0  0  0  0
    2.7833   -3.7694   -1.5954 H   0  0  0  0  0  0  0  0  0  0  0  0
    1.2763   -2.9815   -1.9838 H   0  0  0  0  0  0  0  0  0  0  0  0
    4.0549   -2.6243    0.4686 H   0  0  0  0  0  0  0  0  0  0  0  0
    6.2703   -1.9508    0.2669 H   0  0  0  0  0  0  0  0  0  0  0  0
    8.4408   -1.2598    1.1346 H   0  0  0  0  0  0  0  0  0  0  0  0
    6.6826    2.4280    2.5771 H   0  0  0  0  0  0  0  0  0  0  0  0
    4.5162    1.7282    1.7283 H   0  0  0  0  0  0  0  0  0  0  0  0
   -0.1653   -1.3913   -1.1269 H   0  0  0  0  0  0  0  0  0  0  0  0
   -1.7871    0.2339   -1.7783 H   0  0  0  0  0  0  0  0  0  0  0  0
   -2.2418   -0.2274   -0.1234 H   0  0  0  0  0  0  0  0  0  0  0  0
   -2.1213    2.2125    0.5504 H   0  0  0  0  0  0  0  0  0  0  0  0
   -1.7275    2.6455   -1.0960 H   0  0  0  0  0  0  0  0  0  0  0  0
   -3.4214    2.3646   -2.9325 H   0  0  0  0  0  0  0  0  0  0  0  0
   -5.7869    2.3885   -3.5044 H   0  0  0  0  0  0  0  0  0  0  0  0
   -7.9820    3.1853   -3.4022 H   0  0  0  0  0  0  0  0  0  0  0  0
   -7.9280    1.4032   -3.7092 H   0  0  0  0  0  0  0  0  0  0  0  0
   -9.3762    2.1626   -3.0348 H   0  0  0  0  0  0  0  0  0  0  0  0
   -6.2053    2.4249    2.4393 H   0  0  0  0  0  0  0  0  0  0  0  0
   -6.1148    0.6221    2.3560 H   0  0  0  0  0  0  0  0  0  0  0  0
   -7.6421    1.4344    2.7178 H   0  0  0  0  0  0  0  0  0  0  0  0
   -4.3683    1.5501    1.1731 H   0  0  0  0  0  0  0  0  0  0  0  0
  1  2  1  0
  2  3  1  0
  3  4  1  0
  4  5  1  0
  5  6  1  0
  6  7  1  0
  7  8  2  0
  8  9  1  0
  9 10  2  0
 10 11  1  0
 11 12  2  0
 11 13  1  0
 10 14  1  0
 14 15  2  0
  6 16  1  0
 16 17  2  0
 16 18  1  0
 18 19  1  0
 19 20  2  3
 20 21  1  0
 21 22  1  0
 22 23  1  0
 23 24  2  0
 24 25  1  0
 25 26  2  0
 26 27  1  0
 27 28  1  0
 26 29  1  0
 29 30  1  0
 30 31  1  0
 29 32  2  0
 18  4  2  0
 32 23  1  0
 15  7  1  0
  1 33  1  0
  1 34  1  0
  1 35  1  0
  2 36  1  0
  2 37  1  0
  3 38  1  0
  3 39  1  0
  5 40  1  0
  8 41  1  0
  9 42  1  0
 14 43  1  0
 15 44  1  0
 19 45  1  0
 21 46  1  0
 21 47  1  0
 22 48  1  0
 22 49  1  0
 24 50  1  0
 25 51  1  0
 28 52  1  0
 28 53  1  0
 28 54  1  0
 31 55  1  0
 31 56  1  0
 31 57  1  0
 32 58  1  0
M  CHG  2  11   1  13  -1
M  END
$$$$
