
     RDKit          3D

 47 49  0  0  0  0  0  0  0  0999 V2000
   -3.2443    5.5608   -1.0857 C   0  0  0  0  0  0  0  0  0  0  0  0
   -2.4413    4.8140   -0.1704 O   0  0  0  0  0  0  0  0  0  0  0  0
   -2.0759    3.5795   -0.6249 C   0  0  0  0  0  0  0  0  0  0  0  0
   -2.3360    3.1402   -1.7385 O   0  0  0  0  0  0  0  0  0  0  0  0
   -1.2422    2.8682    0.4326 C   0  0  0  0  0  0  0  0  0  0  0  0
   -1.2522    1.4191    0.2436 N   0  0  0  0  0  0  0  0  0  0  0  0
   -0.3955    0.7222   -0.5944 C   0  0  0  0  0  0  0  0  0  0  0  0
    0.6996    1.3324   -1.3981 C   0  0  0  0  0  0  0  0  0  0  0  0
    1.9941    1.2528   -0.6043 C   0  0  0  0  0  0  0  0  0  0  0  0
    2.3241    2.1617    0.1510 O   0  0  0  0  0  0  0  0  0  0  0  0
    2.6774    0.0669   -0.8213 N   0  0  0  0  0  0  0  0  0  0  0  0
    3.8831   -0.3569   -0.2294 C   0  0  0  0  0  0  0  0  0  0  0  0
    4.6136    0.4037    0.6860 C   0  0  0  0  0  0  0  0  0  0  0  0
    5.7945   -0.1000    1.2445 C   0  0  0  0  0  0  0  0  0  0  0  0
    6.2511   -1.3661    0.8836 C   0  0  0  0  0  0  0  0  0  0  0  0
    7.6951   -1.9888    1.5794 Cl  0  0  0  0  0  0  0  0  0  0  0  0
    5.5378   -2.1301   -0.0323 C   0  0  0  0  0  0  0  0  0  0  0  0
    4.3573   -1.6253   -0.5870 C   0  0  0  0  0  0  0  0  0  0  0  0
   -0.7225   -0.5764   -0.5498 C   0  0  0  0  0  0  0  0  0  0  0  0
   -0.0267   -1.5868   -1.1482 O   0  0  0  0  0  0  0  0  0  0  0  0
   -1.7963   -0.7938    0.2966 N   0  0  0  0  0  0  0  0  0  0  0  0
   -2.4829   -2.0194    0.5131 C   0  0  0  0  0  0  0  0  0  0  0  0
   -2.9263   -2.3937    1.7877 C   0  0  0  0  0  0  0  0  0  0  0  0
   -3.5771   -3.6168    1.9896 C   0  0  0  0  0  0  0  0  0  0  0  0
   -3.7890   -4.4765    0.9154 C   0  0  0  0  0  0  0  0  0  0  0  0
   -4.5865   -5.9801    1.1629 Cl  0  0  0  0  0  0  0  0  0  0  0  0
   -3.3533   -4.1253   -0.3584 C   0  0  0  0  0  0  0  0  0  0  0  0
   -2.7008   -2.9042   -0.5564 C   0  0  0  0  0  0  0  0  0  0  0  0
   -2.1997    0.5034    0.8080 C   0  0  0  0  0  0  0  0  0  0  0  0
   -3.5055    0.9190    1.7584 S   0  0  0  0  0  0  0  0  0  0  0  0
   -4.0964    4.9671   -1.4350 H   0  0  0  0  0  0  0  0  0  0  0  0
   -2.6356    5.8974   -1.9311 H   0  0  0  0  0  0  0  0  0  0  0  0
   -3.6301    6.4363   -0.5572 H   0  0  0  0  0  0  0  0  0  0  0  0
   -1.6511    3.0992    1.4199 H   0  0  0  0  0  0  0  0  0  0  0  0
   -0.2159    3.2444    0.3952 H   0  0  0  0  0  0  0  0  0  0  0  0
    0.8192    0.8083   -2.3523 H   0  0  0  0  0  0  0  0  0  0  0  0
    0.5015    2.3765   -1.6576 H   0  0  0  0  0  0  0  0  0  0  0  0
    2.2161   -0.6097   -1.4227 H   0  0  0  0  0  0  0  0  0  0  0  0
    4.2888    1.3938    0.9966 H   0  0  0  0  0  0  0  0  0  0  0  0
    6.3451    0.5015    1.9653 H   0  0  0  0  0  0  0  0  0  0  0  0
    5.8909   -3.1169   -0.3168 H   0  0  0  0  0  0  0  0  0  0  0  0
    3.8162   -2.2394   -1.3008 H   0  0  0  0  0  0  0  0  0  0  0  0
   -0.2343   -2.3863   -0.6291 H   0  0  0  0  0  0  0  0  0  0  0  0
   -2.7414   -1.7640    2.6552 H   0  0  0  0  0  0  0  0  0  0  0  0
   -3.9101   -3.8897    2.9887 H   0  0  0  0  0  0  0  0  0  0  0  0
   -3.5279   -4.7872   -1.2028 H   0  0  0  0  0  0  0  0  0  0  0  0
   -2.4086   -2.6349   -1.5687 H   0  0  0  0  0  0  0  0  0  0  0  0
  1  2  1  0
  2  3  1  0
  3  4  2  0
  3  5  1  0
  5  6  1  0
  6  7  1  0
  7  8  1  0
  8  9  1  0
  9 10  2  0
  9 11  1  0
 11 12  1  0
 12 13  2  0
 13 14  1  0
 14 15  2  0
 15 16  1  0
 15 17  1  0
 17 18  2  0
  7 19  2  0
 19 20  1  0
 19 21  1  0
 21 22  1  0
 22 23  2  0
 23 24  1  0
 24 25  2  0
 25 26  1  0
 25 27  1  0
 27 28  2  0
 21 29  1  0
 29 30  2  0
 29  6  1  0
 18 12  1  0
 28 22  1  0
  1 31  1  0
  1 32  1  0
  1 33  1  0
  5 34  1  0
  5 35  1  0
  8 36  1  0
  8 37  1  0
 11 38  1  0
 13 39  1  0
 14 40  1  0
 17 41  1  0
 18 42  1  0
 20 43  1  0
 23 44  1  0
 24 45  1  0
 27 46  1  0
 28 47  1  0
M  END
$$$$
