
     RDKit          3D

 32 34  0  0  0  0  0  0  0  0999 V2000
    0.2631   -4.7912    0.3243 N   0  0  0  0  0  0  0  0  0  0  0  0
    0.5260   -3.6617    0.3773 C   0  0  0  0  0  0  0  0  0  0  0  0
    0.7531   -2.2597    0.4324 C   0  0  0  0  0  0  0  0  0  0  0  0
   -0.2787   -1.4009    0.4106 C   0  0  0  0  0  0  0  0  0  0  0  0
   -0.0611    0.0244    0.4507 C   0  0  0  0  0  0  0  0  0  0  0  0
   -1.1696    1.0270    0.4234 C   0  0  0  0  0  0  0  0  0  0  0  0
   -1.1040    2.0663    1.0754 O   0  0  0  0  0  0  0  0  0  0  0  0
   -2.3990    0.7432   -0.3549 C   0  0  0  0  0  0  0  0  0  0  0  0
   -3.6231    1.0835    0.2336 C   0  0  0  0  0  0  0  0  0  0  0  0
   -4.8038    0.8519   -0.4602 C   0  0  0  0  0  0  0  0  0  0  0  0
   -5.9750    1.1652    0.1077 F   0  0  0  0  0  0  0  0  0  0  0  0
   -4.7908    0.2980   -1.7359 C   0  0  0  0  0  0  0  0  0  0  0  0
   -3.5739   -0.0222   -2.3394 C   0  0  0  0  0  0  0  0  0  0  0  0
   -2.3797    0.2082   -1.6516 C   0  0  0  0  0  0  0  0  0  0  0  0
   -1.1916   -0.0743   -2.2645 O   0  0  0  0  0  0  0  0  0  0  0  0
    1.1906    0.4935    0.5667 C   0  0  0  0  0  0  0  0  0  0  0  0
    2.2947   -0.3559    0.6009 N   0  0  0  0  0  0  0  0  0  0  0  0
    3.5316    0.3039    0.7081 C   0  0  0  0  0  0  0  0  0  0  0  0
    3.6741    1.6184    0.7394 N   0  0  0  0  0  0  0  0  0  0  0  0
    5.0030    1.9694    0.8591 C   0  0  0  0  0  0  0  0  0  0  0  0
    5.8843    0.9172    0.9202 C   0  0  0  0  0  0  0  0  0  0  0  0
    5.0187   -0.5521    0.8265 S   0  0  0  0  0  0  0  0  0  0  0  0
    2.1645   -1.7502    0.5143 C   0  0  0  0  0  0  0  0  0  0  0  0
    3.0687   -2.5816    0.4965 O   0  0  0  0  0  0  0  0  0  0  0  0
   -1.3009   -1.7675    0.3663 H   0  0  0  0  0  0  0  0  0  0  0  0
   -3.6647    1.5287    1.2242 H   0  0  0  0  0  0  0  0  0  0  0  0
   -5.7302    0.1287   -2.2544 H   0  0  0  0  0  0  0  0  0  0  0  0
   -3.5781   -0.4428   -3.3412 H   0  0  0  0  0  0  0  0  0  0  0  0
   -1.3520   -0.2926   -3.1999 H   0  0  0  0  0  0  0  0  0  0  0  0
    1.3691    1.5670    0.6272 H   0  0  0  0  0  0  0  0  0  0  0  0
    5.2744    3.0175    0.8980 H   0  0  0  0  0  0  0  0  0  0  0  0
    6.9603    0.9407    1.0138 H   0  0  0  0  0  0  0  0  0  0  0  0
  1  2  3  0
  2  3  1  0
  3  4  2  0
  4  5  1  0
  5  6  1  0
  6  7  2  0
  6  8  1  0
  8  9  2  0
  9 10  1  0
 10 11  1  0
 10 12  2  0
 12 13  1  0
 13 14  2  0
 14 15  1  0
  5 16  2  0
 16 17  1  0
 17 18  1  0
 18 19  2  0
 19 20  1  0
 20 21  2  0
 21 22  1  0
 17 23  1  0
 23 24  2  0
 23  3  1  0
 14  8  1  0
 22 18  1  0
  4 25  1  0
  9 26  1  0
 12 27  1  0
 13 28  1  0
 15 29  1  0
 16 30  1  0
 20 31  1  0
 21 32  1  0
M  END
$$$$
