
     RDKit          3D

 35 37  0  0  0  0  0  0  0  0999 V2000
   -2.4047   -2.4434    0.9353 C   0  0  0  0  0  0  0  0  0  0  0  0
   -2.2837   -1.7053   -0.3907 C   0  0  0  0  0  0  0  0  0  0  0  0
   -1.8200   -0.3346   -0.1937 N   0  0  0  0  0  0  0  0  0  0  0  0
   -0.4982    0.1853   -0.2435 C   0  0  0  0  0  0  0  0  0  0  0  0
    0.6981   -0.4481   -0.3535 C   0  0  0  0  0  0  0  0  0  0  0  0
    0.9326   -2.1785   -0.4073 S   0  0  0  0  0  0  0  0  0  0  0  0
    2.6814   -2.0985   -0.3998 C   0  0  0  0  0  0  0  0  0  0  0  0
    3.6614   -3.4449   -0.4822 S   0  0  0  0  0  0  0  0  0  0  0  0
    3.0457   -0.7765   -0.3600 N   0  0  0  0  0  0  0  0  0  0  0  0
    4.3944   -0.3583   -0.3305 N   0  0  0  0  0  0  0  0  0  0  0  0
    4.9410   -0.1983    0.9308 C   0  0  0  0  0  0  0  0  0  0  0  0
    6.2553    0.5338    0.9382 C   0  0  0  0  0  0  0  0  0  0  0  0
    4.4190   -0.6171    1.9605 O   0  0  0  0  0  0  0  0  0  0  0  0
    2.0609    0.1961   -0.4202 C   0  0  0  0  0  0  0  0  0  0  0  0
    2.3157    1.3821   -0.5863 O   0  0  0  0  0  0  0  0  0  0  0  0
   -0.4983    1.9895   -0.0834 S   0  0  0  0  0  0  0  0  0  0  0  0
   -2.2604    1.9737    0.1206 C   0  0  0  0  0  0  0  0  0  0  0  0
   -3.0550    3.0926    0.3406 C   0  0  0  0  0  0  0  0  0  0  0  0
   -4.4283    2.9168    0.4877 C   0  0  0  0  0  0  0  0  0  0  0  0
   -4.9804    1.6346    0.4164 C   0  0  0  0  0  0  0  0  0  0  0  0
   -4.1659    0.5155    0.1938 C   0  0  0  0  0  0  0  0  0  0  0  0
   -2.7897    0.6740    0.0373 C   0  0  0  0  0  0  0  0  0  0  0  0
   -2.7075   -3.4808    0.7625 H   0  0  0  0  0  0  0  0  0  0  0  0
   -1.4587   -2.4509    1.4842 H   0  0  0  0  0  0  0  0  0  0  0  0
   -3.1548   -1.9787    1.5832 H   0  0  0  0  0  0  0  0  0  0  0  0
   -3.2491   -1.7294   -0.9110 H   0  0  0  0  0  0  0  0  0  0  0  0
   -1.6293   -2.2510   -1.0742 H   0  0  0  0  0  0  0  0  0  0  0  0
    4.6124    0.3542   -1.0226 H   0  0  0  0  0  0  0  0  0  0  0  0
    6.5662    0.8212   -0.0700 H   0  0  0  0  0  0  0  0  0  0  0  0
    6.1562    1.4376    1.5449 H   0  0  0  0  0  0  0  0  0  0  0  0
    7.0229   -0.1168    1.3659 H   0  0  0  0  0  0  0  0  0  0  0  0
   -2.6159    4.0834    0.3987 H   0  0  0  0  0  0  0  0  0  0  0  0
   -5.0708    3.7765    0.6617 H   0  0  0  0  0  0  0  0  0  0  0  0
   -6.0534    1.5036    0.5381 H   0  0  0  0  0  0  0  0  0  0  0  0
   -4.6391   -0.4594    0.1586 H   0  0  0  0  0  0  0  0  0  0  0  0
  1  2  1  0
  2  3  1  0
  3  4  1  0
  4  5  2  3
  5  6  1  0
  6  7  1  0
  7  8  2  0
  7  9  1  0
  9 10  1  0
 10 11  1  0
 11 12  1  0
 11 13  2  0
  9 14  1  0
 14 15  2  0
  4 16  1  0
 16 17  1  0
 17 18  2  0
 18 19  1  0
 19 20  2  0
 20 21  1  0
 21 22  2  0
 22  3  1  0
 14  5  1  0
 22 17  1  0
  1 23  1  0
  1 24  1  0
  1 25  1  0
  2 26  1  0
  2 27  1  0
 10 28  1  0
 12 29  1  0
 12 30  1  0
 12 31  1  0
 18 32  1  0
 19 33  1  0
 20 34  1  0
 21 35  1  0
M  END
$$$$
