
     RDKit          3D

 47 50  0  0  0  0  0  0  0  0999 V2000
   -6.0363   -0.6238    0.4184 C   0  0  0  0  0  0  0  0  0  0  0  0
   -4.8123   -0.4329    1.3029 C   0  0  0  0  0  0  0  0  0  0  0  0
   -3.8768    0.5285    0.7049 N   0  0  0  0  0  0  0  0  0  0  0  0
   -4.0377    1.9248    1.1320 C   0  0  0  0  0  0  0  0  0  0  0  0
   -3.1704    2.2316    2.3447 C   0  0  0  0  0  0  0  0  0  0  0  0
   -2.8756    0.1354   -0.1775 C   0  0  0  0  0  0  0  0  0  0  0  0
   -2.7836   -1.1765   -0.6748 C   0  0  0  0  0  0  0  0  0  0  0  0
   -1.7764   -1.5806   -1.5658 C   0  0  0  0  0  0  0  0  0  0  0  0
   -0.8070   -0.6774   -1.9914 C   0  0  0  0  0  0  0  0  0  0  0  0
    0.2159   -1.1079   -2.9462 C   0  0  0  0  0  0  0  0  0  0  0  0
    1.5385   -1.1501   -2.7287 C   0  0  0  0  0  0  0  0  0  0  0  0
    2.6576   -1.6829   -3.9787 S   0  0  0  0  0  0  0  0  0  0  0  0
    3.9686   -1.4127   -2.9098 C   0  0  0  0  0  0  0  0  0  0  0  0
    5.2564   -1.5901   -2.9778 N   0  0  0  0  0  0  0  0  0  0  0  0
    5.7578   -1.1979   -1.7441 N   0  0  0  0  0  0  0  0  0  0  0  0
    4.7513   -0.7743   -0.9862 C   0  0  0  0  0  0  0  0  0  0  0  0
    4.8544   -0.2551    0.3716 C   0  0  0  0  0  0  0  0  0  0  0  0
    5.3723   -1.0969    1.3691 C   0  0  0  0  0  0  0  0  0  0  0  0
    5.4891   -0.6528    2.6881 C   0  0  0  0  0  0  0  0  0  0  0  0
    5.0991    0.6409    3.0250 C   0  0  0  0  0  0  0  0  0  0  0  0
    4.6036    1.4966    2.0410 C   0  0  0  0  0  0  0  0  0  0  0  0
    4.4870    1.0559    0.7183 C   0  0  0  0  0  0  0  0  0  0  0  0
    3.9212    2.1957   -0.4569 Cl  0  0  0  0  0  0  0  0  0  0  0  0
    3.5931   -0.9463   -1.6997 N   0  0  0  0  0  0  0  0  0  0  0  0
    2.2496   -0.7915   -1.4595 C   0  0  0  0  0  0  0  0  0  0  0  0
    1.8226   -0.4513   -0.3748 O   0  0  0  0  0  0  0  0  0  0  0  0
   -0.8739    0.6336   -1.5298 C   0  0  0  0  0  0  0  0  0  0  0  0
   -1.8874    1.0228   -0.6393 C   0  0  0  0  0  0  0  0  0  0  0  0
   -5.7683   -1.0168   -0.5668 H   0  0  0  0  0  0  0  0  0  0  0  0
   -6.7341   -1.3257    0.8855 H   0  0  0  0  0  0  0  0  0  0  0  0
   -6.5615    0.3247    0.2651 H   0  0  0  0  0  0  0  0  0  0  0  0
   -4.3300   -1.3928    1.5187 H   0  0  0  0  0  0  0  0  0  0  0  0
   -5.1477   -0.0634    2.2805 H   0  0  0  0  0  0  0  0  0  0  0  0
   -5.0858    2.1080    1.4016 H   0  0  0  0  0  0  0  0  0  0  0  0
   -3.8345    2.6267    0.3156 H   0  0  0  0  0  0  0  0  0  0  0  0
   -3.4264    1.5793    3.1864 H   0  0  0  0  0  0  0  0  0  0  0  0
   -2.1066    2.0923    2.1298 H   0  0  0  0  0  0  0  0  0  0  0  0
   -3.3190    3.2684    2.6623 H   0  0  0  0  0  0  0  0  0  0  0  0
   -3.5078   -1.9333   -0.3903 H   0  0  0  0  0  0  0  0  0  0  0  0
   -1.7679   -2.6107   -1.9140 H   0  0  0  0  0  0  0  0  0  0  0  0
   -0.1879   -1.4228   -3.9073 H   0  0  0  0  0  0  0  0  0  0  0  0
    5.6908   -2.1082    1.1206 H   0  0  0  0  0  0  0  0  0  0  0  0
    5.8876   -1.3176    3.4511 H   0  0  0  0  0  0  0  0  0  0  0  0
    5.1896    0.9873    4.0518 H   0  0  0  0  0  0  0  0  0  0  0  0
    4.3151    2.5098    2.3102 H   0  0  0  0  0  0  0  0  0  0  0  0
   -0.1421    1.3742   -1.8423 H   0  0  0  0  0  0  0  0  0  0  0  0
   -1.8642    2.0560   -0.3075 H   0  0  0  0  0  0  0  0  0  0  0  0
  1  2  1  0
  2  3  1  0
  3  4  1  0
  4  5  1  0
  3  6  1  0
  6  7  2  0
  7  8  1  0
  8  9  2  0
  9 10  1  0
 10 11  2  3
 11 12  1  0
 12 13  1  0
 13 14  2  0
 14 15  1  0
 15 16  2  0
 16 17  1  0
 17 18  2  0
 18 19  1  0
 19 20  2  0
 20 21  1  0
 21 22  2  0
 22 23  1  0
 16 24  1  0
 24 25  1  0
 25 26  2  0
  9 27  1  0
 27 28  2  0
 28  6  1  0
 25 11  1  0
 24 13  1  0
 22 17  1  0
  1 29  1  0
  1 30  1  0
  1 31  1  0
  2 32  1  0
  2 33  1  0
  4 34  1  0
  4 35  1  0
  5 36  1  0
  5 37  1  0
  5 38  1  0
  7 39  1  0
  8 40  1  0
 10 41  1  0
 18 42  1  0
 19 43  1  0
 20 44  1  0
 21 45  1  0
 27 46  1  0
 28 47  1  0
M  END
$$$$
