
     RDKit          3D

 47 49  0  0  0  0  0  0  0  0999 V2000
    5.3238   -2.4105    1.2252 C   0  0  0  0  0  0  0  0  0  0  0  0
    5.3685   -0.9025    1.0313 C   0  0  0  0  0  0  0  0  0  0  0  0
    5.6230   -0.4835   -0.4189 C   0  0  0  0  0  0  0  0  0  0  0  0
    4.5009   -0.8355   -1.4016 C   0  0  0  0  0  0  0  0  0  0  0  0
    3.2542   -0.1259   -1.1265 N   0  0  0  0  0  0  0  0  0  0  0  0
    2.1300   -0.9037   -0.6338 C   0  0  0  0  0  0  0  0  0  0  0  0
    0.9585   -0.0845   -0.2132 C   0  0  0  0  0  0  0  0  0  0  0  0
   -0.1257   -0.6312    0.4798 C   0  0  0  0  0  0  0  0  0  0  0  0
   -1.2181    0.1795    0.7919 C   0  0  0  0  0  0  0  0  0  0  0  0
   -2.3575   -0.3887    1.5387 C   0  0  0  0  0  0  0  0  0  0  0  0
   -2.1328   -1.2310    2.4074 O   0  0  0  0  0  0  0  0  0  0  0  0
   -3.7623    0.0290    1.2987 C   0  0  0  0  0  0  0  0  0  0  0  0
   -4.1888    0.4606    0.0316 C   0  0  0  0  0  0  0  0  0  0  0  0
   -5.5114    0.8675   -0.1606 C   0  0  0  0  0  0  0  0  0  0  0  0
   -6.0498    1.3197   -1.3332 O   0  0  0  0  0  0  0  0  0  0  0  0
   -5.1787    1.4345   -2.4518 C   0  0  0  0  0  0  0  0  0  0  0  0
   -6.4087    0.8225    0.9103 C   0  0  0  0  0  0  0  0  0  0  0  0
   -6.0009    0.3643    2.1630 C   0  0  0  0  0  0  0  0  0  0  0  0
   -4.6856   -0.0432    2.3507 C   0  0  0  0  0  0  0  0  0  0  0  0
   -4.3612   -0.5081    3.5964 O   0  0  0  0  0  0  0  0  0  0  0  0
   -1.1653    1.5159    0.4214 C   0  0  0  0  0  0  0  0  0  0  0  0
   -0.1374    2.0623   -0.2707 N   0  0  0  0  0  0  0  0  0  0  0  0
    0.9003    1.2514   -0.5647 C   0  0  0  0  0  0  0  0  0  0  0  0
    1.9562    1.8085   -1.2546 N   0  0  0  0  0  0  0  0  0  0  0  0
    3.1293    1.1853   -1.5351 C   0  0  0  0  0  0  0  0  0  0  0  0
    4.0241    1.8034   -2.1087 O   0  0  0  0  0  0  0  0  0  0  0  0
    5.2182   -2.6488    2.2885 H   0  0  0  0  0  0  0  0  0  0  0  0
    6.2446   -2.8794    0.8641 H   0  0  0  0  0  0  0  0  0  0  0  0
    4.4785   -2.8620    0.6989 H   0  0  0  0  0  0  0  0  0  0  0  0
    4.4408   -0.4537    1.4027 H   0  0  0  0  0  0  0  0  0  0  0  0
    6.1784   -0.5006    1.6523 H   0  0  0  0  0  0  0  0  0  0  0  0
    6.5519   -0.9519   -0.7671 H   0  0  0  0  0  0  0  0  0  0  0  0
    5.7970    0.5992   -0.4360 H   0  0  0  0  0  0  0  0  0  0  0  0
    4.8278   -0.5652   -2.4133 H   0  0  0  0  0  0  0  0  0  0  0  0
    4.3103   -1.9140   -1.4154 H   0  0  0  0  0  0  0  0  0  0  0  0
    2.4796   -1.4971    0.2175 H   0  0  0  0  0  0  0  0  0  0  0  0
    1.8258   -1.5848   -1.4372 H   0  0  0  0  0  0  0  0  0  0  0  0
   -0.1229   -1.6792    0.7728 H   0  0  0  0  0  0  0  0  0  0  0  0
   -3.4924    0.4584   -0.7993 H   0  0  0  0  0  0  0  0  0  0  0  0
   -5.7593    1.8348   -3.2884 H   0  0  0  0  0  0  0  0  0  0  0  0
   -4.7934    0.4544   -2.7516 H   0  0  0  0  0  0  0  0  0  0  0  0
   -4.3622    2.1347   -2.2465 H   0  0  0  0  0  0  0  0  0  0  0  0
   -7.4399    1.1370    0.7642 H   0  0  0  0  0  0  0  0  0  0  0  0
   -6.7094    0.3169    2.9856 H   0  0  0  0  0  0  0  0  0  0  0  0
   -3.4884   -0.9573    3.5335 H   0  0  0  0  0  0  0  0  0  0  0  0
   -1.9541    2.2184    0.6771 H   0  0  0  0  0  0  0  0  0  0  0  0
    1.8845    2.7843   -1.5000 H   0  0  0  0  0  0  0  0  0  0  0  0
  1  2  1  0
  2  3  1  0
  3  4  1  0
  4  5  1  0
  5  6  1  0
  6  7  1  0
  7  8  2  0
  8  9  1  0
  9 10  1  0
 10 11  2  0
 10 12  1  0
 12 13  2  0
 13 14  1  0
 14 15  1  0
 15 16  1  0
 14 17  2  0
 17 18  1  0
 18 19  2  0
 19 20  1  0
  9 21  2  0
 21 22  1  0
 22 23  2  0
 23 24  1  0
 24 25  1  0
 25 26  2  0
 25  5  1  0
 23  7  1  0
 19 12  1  0
  1 27  1  0
  1 28  1  0
  1 29  1  0
  2 30  1  0
  2 31  1  0
  3 32  1  0
  3 33  1  0
  4 34  1  0
  4 35  1  0
  6 36  1  0
  6 37  1  0
  8 38  1  0
 13 39  1  0
 16 40  1  0
 16 41  1  0
 16 42  1  0
 17 43  1  0
 18 44  1  0
 20 45  1  0
 21 46  1  0
 24 47  1  0
M  END
$$$$
