
     RDKit          3D

 50 52  0  0  0  0  0  0  0  0999 V2000
   -8.7894    1.4072    0.0286 C   0  0  0  0  0  0  0  0  0  0  0  0
   -7.9979    0.4822   -0.7028 O   0  0  0  0  0  0  0  0  0  0  0  0
   -6.6464    0.4657   -0.4649 C   0  0  0  0  0  0  0  0  0  0  0  0
   -5.9940    1.3063    0.4440 C   0  0  0  0  0  0  0  0  0  0  0  0
   -4.6105    1.2180    0.6243 C   0  0  0  0  0  0  0  0  0  0  0  0
   -3.8711    0.2782   -0.1000 C   0  0  0  0  0  0  0  0  0  0  0  0
   -2.3977    0.1461    0.0570 C   0  0  0  0  0  0  0  0  0  0  0  0
   -1.7075   -0.2205   -0.8900 O   0  0  0  0  0  0  0  0  0  0  0  0
   -1.8888    0.4139    1.3213 N   0  0  0  0  0  0  0  0  0  0  0  0
   -0.5670    0.4327    1.7510 C   0  0  0  0  0  0  0  0  0  0  0  0
   -0.3542    0.7821    3.3696 S   0  0  0  0  0  0  0  0  0  0  0  0
    0.3547    0.1599    0.7694 N   0  0  0  0  0  0  0  0  0  0  0  0
    1.7646    0.1035    0.7374 C   0  0  0  0  0  0  0  0  0  0  0  0
    2.6226    0.3964    1.7879 C   0  0  0  0  0  0  0  0  0  0  0  0
    4.0174    0.3042    1.6244 C   0  0  0  0  0  0  0  0  0  0  0  0
    4.6126   -0.0799    0.4156 C   0  0  0  0  0  0  0  0  0  0  0  0
    5.9753   -0.1670    0.2677 N   0  0  0  0  0  0  0  0  0  0  0  0
    6.9406    0.2394    1.2860 C   0  0  0  0  0  0  0  0  0  0  0  0
    8.2781    0.2241    0.5502 C   0  0  0  0  0  0  0  0  0  0  0  0
    8.0917   -0.8798   -0.4755 C   0  0  0  0  0  0  0  0  0  0  0  0
    6.6421   -0.6976   -0.9187 C   0  0  0  0  0  0  0  0  0  0  0  0
    3.7310   -0.3664   -0.6324 C   0  0  0  0  0  0  0  0  0  0  0  0
    2.3387   -0.2764   -0.4793 C   0  0  0  0  0  0  0  0  0  0  0  0
   -4.5141   -0.5529   -1.0265 C   0  0  0  0  0  0  0  0  0  0  0  0
   -5.8981   -0.4680   -1.2118 C   0  0  0  0  0  0  0  0  0  0  0  0
   -6.6114   -1.2495   -2.0869 O   0  0  0  0  0  0  0  0  0  0  0  0
   -5.8847   -2.1423   -2.9198 C   0  0  0  0  0  0  0  0  0  0  0  0
   -8.7361    1.2091    1.1041 H   0  0  0  0  0  0  0  0  0  0  0  0
   -9.8304    1.2759   -0.2821 H   0  0  0  0  0  0  0  0  0  0  0  0
   -8.5023    2.4389   -0.1993 H   0  0  0  0  0  0  0  0  0  0  0  0
   -6.5352    2.0493    1.0213 H   0  0  0  0  0  0  0  0  0  0  0  0
   -4.1323    1.9113    1.3111 H   0  0  0  0  0  0  0  0  0  0  0  0
   -2.5405    0.5943    2.0723 H   0  0  0  0  0  0  0  0  0  0  0  0
   -0.0835   -0.0731   -0.1239 H   0  0  0  0  0  0  0  0  0  0  0  0
    2.2698    0.7084    2.7608 H   0  0  0  0  0  0  0  0  0  0  0  0
    4.6321    0.5392    2.4890 H   0  0  0  0  0  0  0  0  0  0  0  0
    6.7405    1.2404    1.6830 H   0  0  0  0  0  0  0  0  0  0  0  0
    6.9471   -0.4842    2.1092 H   0  0  0  0  0  0  0  0  0  0  0  0
    9.1231    0.0455    1.2209 H   0  0  0  0  0  0  0  0  0  0  0  0
    8.4390    1.1826    0.0420 H   0  0  0  0  0  0  0  0  0  0  0  0
    8.2186   -1.8587    0.0026 H   0  0  0  0  0  0  0  0  0  0  0  0
    8.7962   -0.8116   -1.3090 H   0  0  0  0  0  0  0  0  0  0  0  0
    6.2254   -1.6564   -1.2456 H   0  0  0  0  0  0  0  0  0  0  0  0
    6.5794    0.0252   -1.7402 H   0  0  0  0  0  0  0  0  0  0  0  0
    4.1087   -0.6608   -1.6071 H   0  0  0  0  0  0  0  0  0  0  0  0
    1.7131   -0.5119   -1.3377 H   0  0  0  0  0  0  0  0  0  0  0  0
   -3.9123   -1.2627   -1.5864 H   0  0  0  0  0  0  0  0  0  0  0  0
   -5.1760   -1.6025   -3.5565 H   0  0  0  0  0  0  0  0  0  0  0  0
   -5.3793   -2.9110   -2.3261 H   0  0  0  0  0  0  0  0  0  0  0  0
   -6.6016   -2.6469   -3.5746 H   0  0  0  0  0  0  0  0  0  0  0  0
  1  2  1  0
  2  3  1  0
  3  4  2  0
  4  5  1  0
  5  6  2  0
  6  7  1  0
  7  8  2  0
  7  9  1  0
  9 10  1  0
 10 11  2  0
 10 12  1  0
 12 13  1  0
 13 14  2  0
 14 15  1  0
 15 16  2  0
 16 17  1  0
 17 18  1  0
 18 19  1  0
 19 20  1  0
 20 21  1  0
 16 22  1  0
 22 23  2  0
  6 24  1  0
 24 25  2  0
 25 26  1  0
 26 27  1  0
 25  3  1  0
 23 13  1  0
 21 17  1  0
  1 28  1  0
  1 29  1  0
  1 30  1  0
  4 31  1  0
  5 32  1  0
  9 33  1  0
 12 34  1  0
 14 35  1  0
 15 36  1  0
 18 37  1  0
 18 38  1  0
 19 39  1  0
 19 40  1  0
 20 41  1  0
 20 42  1  0
 21 43  1  0
 21 44  1  0
 22 45  1  0
 23 46  1  0
 24 47  1  0
 27 48  1  0
 27 49  1  0
 27 50  1  0
M  END
$$$$
