
     RDKit          3D

 43 44  0  0  0  0  0  0  0  0999 V2000
    6.0956   -0.7454    0.7768 C   0  0  0  0  0  0  0  0  0  0  0  0
    5.7605    0.1163   -0.4259 C   0  0  0  0  0  0  0  0  0  0  0  0
    4.4348    0.6503   -0.2961 O   0  0  0  0  0  0  0  0  0  0  0  0
    4.3349    1.8349    0.3754 C   0  0  0  0  0  0  0  0  0  0  0  0
    5.2719    2.4147    0.9119 O   0  0  0  0  0  0  0  0  0  0  0  0
    2.8905    2.3292    0.4441 C   0  0  0  0  0  0  0  0  0  0  0  0
    1.9435    1.5256   -0.3162 N   0  0  0  0  0  0  0  0  0  0  0  0
    1.6907    1.7983   -1.6426 C   0  0  0  0  0  0  0  0  0  0  0  0
    2.1832    2.7697   -2.2141 O   0  0  0  0  0  0  0  0  0  0  0  0
    0.8554    0.7763   -2.4010 C   0  0  0  0  0  0  0  0  0  0  0  0
   -0.2794   -0.1863   -1.3550 S   0  0  0  0  0  0  0  0  0  0  0  0
   -1.4950    0.9983   -0.9871 C   0  0  0  0  0  0  0  0  0  0  0  0
   -1.4671    2.2412   -1.4123 N   0  0  0  0  0  0  0  0  0  0  0  0
   -2.6742    2.7829   -1.0824 N   0  0  0  0  0  0  0  0  0  0  0  0
   -3.4433    1.8962   -0.4724 N   0  0  0  0  0  0  0  0  0  0  0  0
   -2.7084    0.7601   -0.3464 N   0  0  0  0  0  0  0  0  0  0  0  0
   -3.1983   -0.3574    0.3920 C   0  0  0  0  0  0  0  0  0  0  0  0
   -2.2855   -1.1746    1.0872 C   0  0  0  0  0  0  0  0  0  0  0  0
   -2.7187   -2.2600    1.8619 C   0  0  0  0  0  0  0  0  0  0  0  0
   -1.7251   -3.1326    2.5718 C   0  0  0  0  0  0  0  0  0  0  0  0
   -4.0815   -2.5407    1.9322 C   0  0  0  0  0  0  0  0  0  0  0  0
   -4.9999   -1.7339    1.2617 C   0  0  0  0  0  0  0  0  0  0  0  0
   -4.5824   -0.6395    0.4814 C   0  0  0  0  0  0  0  0  0  0  0  0
   -5.6573    0.1424   -0.2302 C   0  0  0  0  0  0  0  0  0  0  0  0
    5.3492   -1.5366    0.9025 H   0  0  0  0  0  0  0  0  0  0  0  0
    6.0905   -0.1540    1.6978 H   0  0  0  0  0  0  0  0  0  0  0  0
    7.0813   -1.2050    0.6622 H   0  0  0  0  0  0  0  0  0  0  0  0
    6.5004    0.9121   -0.5691 H   0  0  0  0  0  0  0  0  0  0  0  0
    5.7700   -0.4977   -1.3324 H   0  0  0  0  0  0  0  0  0  0  0  0
    2.8618    3.3641    0.0905 H   0  0  0  0  0  0  0  0  0  0  0  0
    2.5702    2.2836    1.4891 H   0  0  0  0  0  0  0  0  0  0  0  0
    1.7566    0.5850    0.0076 H   0  0  0  0  0  0  0  0  0  0  0  0
    1.5502    0.0772   -2.8775 H   0  0  0  0  0  0  0  0  0  0  0  0
    0.2924    1.2851   -3.1899 H   0  0  0  0  0  0  0  0  0  0  0  0
   -1.2216   -0.9554    1.0951 H   0  0  0  0  0  0  0  0  0  0  0  0
   -1.3639   -3.9135    1.8956 H   0  0  0  0  0  0  0  0  0  0  0  0
   -2.1753   -3.6070    3.4501 H   0  0  0  0  0  0  0  0  0  0  0  0
   -0.8713   -2.5439    2.9235 H   0  0  0  0  0  0  0  0  0  0  0  0
   -4.4428   -3.3845    2.5164 H   0  0  0  0  0  0  0  0  0  0  0  0
   -6.0589   -1.9749    1.3455 H   0  0  0  0  0  0  0  0  0  0  0  0
   -5.3914    0.3077   -1.2791 H   0  0  0  0  0  0  0  0  0  0  0  0
   -6.6070   -0.4047   -0.2393 H   0  0  0  0  0  0  0  0  0  0  0  0
   -5.8353    1.0966    0.2747 H   0  0  0  0  0  0  0  0  0  0  0  0
  1  2  1  0
  2  3  1  0
  3  4  1  0
  4  5  2  0
  4  6  1  0
  6  7  1  0
  7  8  1  0
  8  9  2  0
  8 10  1  0
 10 11  1  0
 11 12  1  0
 12 13  2  0
 13 14  1  0
 14 15  2  0
 15 16  1  0
 16 17  1  0
 17 18  2  0
 18 19  1  0
 19 20  1  0
 19 21  2  0
 21 22  1  0
 22 23  2  0
 23 24  1  0
 16 12  1  0
 23 17  1  0
  1 25  1  0
  1 26  1  0
  1 27  1  0
  2 28  1  0
  2 29  1  0
  6 30  1  0
  6 31  1  0
  7 32  1  0
 10 33  1  0
 10 34  1  0
 18 35  1  0
 20 36  1  0
 20 37  1  0
 20 38  1  0
 21 39  1  0
 22 40  1  0
 24 41  1  0
 24 42  1  0
 24 43  1  0
M  END
$$$$
