
     RDKit          3D

 54 59  0  0  0  0  0  0  0  0999 V2000
    5.0081   -2.6237    0.2836 C   0  0  0  0  0  0  0  0  0  0  0  0
    5.1945   -1.2148    0.7771 C   0  0  0  0  0  0  0  0  0  0  0  0
    5.9124   -0.9837    1.9606 C   0  0  0  0  0  0  0  0  0  0  0  0
    6.0921    0.3129    2.4368 C   0  0  0  0  0  0  0  0  0  0  0  0
    5.5559    1.3875    1.7347 C   0  0  0  0  0  0  0  0  0  0  0  0
    4.8396    1.1703    0.5543 C   0  0  0  0  0  0  0  0  0  0  0  0
    4.6528   -0.1263    0.0668 C   0  0  0  0  0  0  0  0  0  0  0  0
    3.9740   -0.4539   -1.0765 O   0  0  0  0  0  0  0  0  0  0  0  0
    3.3382    0.5823   -1.8364 C   0  0  0  0  0  0  0  0  0  0  0  0
    2.0172    1.0117   -1.2812 C   0  0  0  0  0  0  0  0  0  0  0  0
    0.9309    0.1650   -1.2283 N   0  0  0  0  0  0  0  0  0  0  0  0
   -0.0078    0.8916   -0.6596 C   0  0  0  0  0  0  0  0  0  0  0  0
   -1.3721    0.6559   -0.2843 C   0  0  0  0  0  0  0  0  0  0  0  0
   -2.0325    1.7370    0.2343 C   0  0  0  0  0  0  0  0  0  0  0  0
   -1.4683    2.9940    0.4478 N   0  0  0  0  0  0  0  0  0  0  0  0
   -0.2251    3.1700    0.1211 C   0  0  0  0  0  0  0  0  0  0  0  0
    0.4990    2.1368   -0.4277 N   0  0  0  0  0  0  0  0  0  0  0  0
    1.7819    2.2524   -0.8217 N   0  0  0  0  0  0  0  0  0  0  0  0
   -3.4761    1.6182    0.5846 C   0  0  0  0  0  0  0  0  0  0  0  0
   -4.2774    2.7569    0.7709 C   0  0  0  0  0  0  0  0  0  0  0  0
   -5.6272    2.6417    1.1118 C   0  0  0  0  0  0  0  0  0  0  0  0
   -6.1960    1.3838    1.2801 C   0  0  0  0  0  0  0  0  0  0  0  0
   -5.4164    0.2428    1.1053 C   0  0  0  0  0  0  0  0  0  0  0  0
   -4.0640    0.3563    0.7481 C   0  0  0  0  0  0  0  0  0  0  0  0
   -3.2119   -0.8712    0.5984 C   0  0  0  0  0  0  0  0  0  0  0  0
   -2.0964   -0.6965   -0.4712 C   0  0  0  0  0  0  0  0  0  0  0  0
   -2.6598   -0.8127   -1.9053 C   0  0  0  0  0  0  0  0  0  0  0  0
   -2.8783   -2.3068   -2.1492 C   0  0  0  0  0  0  0  0  0  0  0  0
   -1.9979   -3.0423   -1.1409 C   0  0  0  0  0  0  0  0  0  0  0  0
   -1.1980   -1.9576   -0.4216 C   0  0  0  0  0  0  0  0  0  0  0  0
    5.4546   -2.7399   -0.7092 H   0  0  0  0  0  0  0  0  0  0  0  0
    3.9425   -2.8705    0.2356 H   0  0  0  0  0  0  0  0  0  0  0  0
    5.4867   -3.3497    0.9492 H   0  0  0  0  0  0  0  0  0  0  0  0
    6.3346   -1.8161    2.5189 H   0  0  0  0  0  0  0  0  0  0  0  0
    6.6483    0.4837    3.3547 H   0  0  0  0  0  0  0  0  0  0  0  0
    5.6929    2.4002    2.1053 H   0  0  0  0  0  0  0  0  0  0  0  0
    4.4405    2.0423    0.0477 H   0  0  0  0  0  0  0  0  0  0  0  0
    3.1519    0.1556   -2.8296 H   0  0  0  0  0  0  0  0  0  0  0  0
    4.0169    1.4260   -2.0077 H   0  0  0  0  0  0  0  0  0  0  0  0
    0.2713    4.1415    0.2690 H   0  0  0  0  0  0  0  0  0  0  0  0
   -3.8529    3.7516    0.6514 H   0  0  0  0  0  0  0  0  0  0  0  0
   -6.2286    3.5362    1.2507 H   0  0  0  0  0  0  0  0  0  0  0  0
   -7.2440    1.2917    1.5527 H   0  0  0  0  0  0  0  0  0  0  0  0
   -5.8673   -0.7362    1.2503 H   0  0  0  0  0  0  0  0  0  0  0  0
   -3.8543   -1.7272    0.3612 H   0  0  0  0  0  0  0  0  0  0  0  0
   -2.7606   -1.0779    1.5787 H   0  0  0  0  0  0  0  0  0  0  0  0
   -3.5852   -0.2464   -2.0550 H   0  0  0  0  0  0  0  0  0  0  0  0
   -1.9329   -0.4388   -2.6386 H   0  0  0  0  0  0  0  0  0  0  0  0
   -3.9297   -2.5757   -1.9977 H   0  0  0  0  0  0  0  0  0  0  0  0
   -2.6201   -2.5750   -3.1790 H   0  0  0  0  0  0  0  0  0  0  0  0
   -2.6202   -3.5985   -0.4306 H   0  0  0  0  0  0  0  0  0  0  0  0
   -1.3394   -3.7676   -1.6299 H   0  0  0  0  0  0  0  0  0  0  0  0
   -0.2639   -1.8305   -0.9733 H   0  0  0  0  0  0  0  0  0  0  0  0
   -0.9329   -2.2561    0.5983 H   0  0  0  0  0  0  0  0  0  0  0  0
  1  2  1  0
  2  3  2  0
  3  4  1  0
  4  5  2  0
  5  6  1  0
  6  7  2  0
  7  8  1  0
  8  9  1  0
  9 10  1  0
 10 11  1  0
 11 12  2  0
 12 13  1  0
 13 14  2  0
 14 15  1  0
 15 16  2  0
 16 17  1  0
 17 18  1  0
 14 19  1  0
 19 20  2  0
 20 21  1  0
 21 22  2  0
 22 23  1  0
 23 24  2  0
 24 25  1  0
 25 26  1  0
 26 27  1  0
 27 28  1  0
 28 29  1  0
 29 30  1  0
  7  2  1  0
 18 10  2  0
 24 19  1  0
 30 26  1  0
 17 12  1  0
 26 13  1  0
  1 31  1  0
  1 32  1  0
  1 33  1  0
  3 34  1  0
  4 35  1  0
  5 36  1  0
  6 37  1  0
  9 38  1  0
  9 39  1  0
 16 40  1  0
 20 41  1  0
 21 42  1  0
 22 43  1  0
 23 44  1  0
 25 45  1  0
 25 46  1  0
 27 47  1  0
 27 48  1  0
 28 49  1  0
 28 50  1  0
 29 51  1  0
 29 52  1  0
 30 53  1  0
 30 54  1  0
M  END
$$$$
