
     RDKit          3D

 54 55  0  0  0  0  0  0  0  0999 V2000
   -0.6234    3.9944   -2.6865 C   0  0  0  0  0  0  0  0  0  0  0  0
   -1.0933    2.8380   -2.0057 O   0  0  0  0  0  0  0  0  0  0  0  0
   -0.2275    1.7849   -1.8640 C   0  0  0  0  0  0  0  0  0  0  0  0
    1.1138    1.7977   -2.2632 C   0  0  0  0  0  0  0  0  0  0  0  0
    1.9280    0.6597   -2.1061 C   0  0  0  0  0  0  0  0  0  0  0  0
    3.3822    0.6991   -2.5204 C   0  0  0  0  0  0  0  0  0  0  0  0
    4.1964    1.3125   -1.4767 N   0  0  0  0  0  0  0  0  0  0  0  0
    4.6252    0.5731   -0.3702 C   0  0  0  0  0  0  0  0  0  0  0  0
    4.8753    1.2510    0.8333 C   0  0  0  0  0  0  0  0  0  0  0  0
    5.3562    0.5809    1.9639 C   0  0  0  0  0  0  0  0  0  0  0  0
    5.6278   -0.7873    1.9031 C   0  0  0  0  0  0  0  0  0  0  0  0
    6.1338   -1.4622    3.1216 C   0  0  0  0  0  0  0  0  0  0  0  0
    6.3332   -0.9336    4.1997 O   0  0  0  0  0  0  0  0  0  0  0  0
    6.3631   -2.7748    2.9342 O   0  0  0  0  0  0  0  0  0  0  0  0
    5.4280   -1.4699    0.7011 C   0  0  0  0  0  0  0  0  0  0  0  0
    4.9448   -0.7888   -0.4249 C   0  0  0  0  0  0  0  0  0  0  0  0
    1.3829   -0.4974   -1.5327 C   0  0  0  0  0  0  0  0  0  0  0  0
    0.0477   -0.5194   -1.1292 C   0  0  0  0  0  0  0  0  0  0  0  0
   -0.6391   -2.1202   -0.3719 Br  0  0  0  0  0  0  0  0  0  0  0  0
   -0.7514    0.6210   -1.2751 C   0  0  0  0  0  0  0  0  0  0  0  0
   -2.0721    0.5564   -0.8985 O   0  0  0  0  0  0  0  0  0  0  0  0
   -2.2972    1.2894    0.3127 C   0  0  0  0  0  0  0  0  0  0  0  0
   -3.5266    0.7526    1.0528 C   0  0  0  0  0  0  0  0  0  0  0  0
   -3.8936    1.2320    2.1218 O   0  0  0  0  0  0  0  0  0  0  0  0
   -4.1585   -0.2919    0.4125 N   0  0  0  0  0  0  0  0  0  0  0  0
   -5.3270   -1.0272    0.9078 C   0  0  0  0  0  0  0  0  0  0  0  0
   -6.5276   -0.0868    1.1032 C   0  0  0  0  0  0  0  0  0  0  0  0
   -4.9992   -1.7474    2.2251 C   0  0  0  0  0  0  0  0  0  0  0  0
   -5.7061   -2.0848   -0.1467 C   0  0  0  0  0  0  0  0  0  0  0  0
   -0.3125    3.7540   -3.7086 H   0  0  0  0  0  0  0  0  0  0  0  0
   -1.4528    4.7055   -2.7498 H   0  0  0  0  0  0  0  0  0  0  0  0
    0.1861    4.4764   -2.1284 H   0  0  0  0  0  0  0  0  0  0  0  0
    1.5563    2.6859   -2.7061 H   0  0  0  0  0  0  0  0  0  0  0  0
    3.4686    1.3154   -3.4246 H   0  0  0  0  0  0  0  0  0  0  0  0
    3.7352   -0.2922   -2.8229 H   0  0  0  0  0  0  0  0  0  0  0  0
    3.8227    2.2158   -1.1983 H   0  0  0  0  0  0  0  0  0  0  0  0
    4.6897    2.3206    0.9074 H   0  0  0  0  0  0  0  0  0  0  0  0
    5.5215    1.1346    2.8855 H   0  0  0  0  0  0  0  0  0  0  0  0
    6.6770   -3.0832    3.8101 H   0  0  0  0  0  0  0  0  0  0  0  0
    5.6557   -2.5303    0.6206 H   0  0  0  0  0  0  0  0  0  0  0  0
    4.8444   -1.3526   -1.3468 H   0  0  0  0  0  0  0  0  0  0  0  0
    2.0054   -1.3795   -1.3963 H   0  0  0  0  0  0  0  0  0  0  0  0
   -2.4945    2.3411    0.0756 H   0  0  0  0  0  0  0  0  0  0  0  0
   -1.4443    1.2062    1.0001 H   0  0  0  0  0  0  0  0  0  0  0  0
   -3.6924   -0.6251   -0.4276 H   0  0  0  0  0  0  0  0  0  0  0  0
   -7.4284   -0.6460    1.3789 H   0  0  0  0  0  0  0  0  0  0  0  0
   -6.7464    0.4683    0.1831 H   0  0  0  0  0  0  0  0  0  0  0  0
   -6.3480    0.6508    1.8936 H   0  0  0  0  0  0  0  0  0  0  0  0
   -5.8444   -2.3594    2.5604 H   0  0  0  0  0  0  0  0  0  0  0  0
   -4.1297   -2.4069    2.1088 H   0  0  0  0  0  0  0  0  0  0  0  0
   -4.7661   -1.0401    3.0290 H   0  0  0  0  0  0  0  0  0  0  0  0
   -6.5799   -2.6688    0.1646 H   0  0  0  0  0  0  0  0  0  0  0  0
   -4.8778   -2.7843   -0.3199 H   0  0  0  0  0  0  0  0  0  0  0  0
   -5.9416   -1.6139   -1.1090 H   0  0  0  0  0  0  0  0  0  0  0  0
  1  2  1  0
  2  3  1  0
  3  4  2  0
  4  5  1  0
  5  6  1  0
  6  7  1  0
  7  8  1  0
  8  9  2  0
  9 10  1  0
 10 11  2  0
 11 12  1  0
 12 13  2  0
 12 14  1  0
 11 15  1  0
 15 16  2  0
  5 17  2  0
 17 18  1  0
 18 19  1  0
 18 20  2  0
 20 21  1  0
 21 22  1  0
 22 23  1  0
 23 24  2  0
 23 25  1  0
 25 26  1  0
 26 27  1  0
 26 28  1  0
 26 29  1  0
 20  3  1  0
 16  8  1  0
  1 30  1  0
  1 31  1  0
  1 32  1  0
  4 33  1  0
  6 34  1  0
  6 35  1  0
  7 36  1  0
  9 37  1  0
 10 38  1  0
 14 39  1  0
 15 40  1  0
 16 41  1  0
 17 42  1  0
 22 43  1  0
 22 44  1  0
 25 45  1  0
 27 46  1  0
 27 47  1  0
 27 48  1  0
 28 49  1  0
 28 50  1  0
 28 51  1  0
 29 52  1  0
 29 53  1  0
 29 54  1  0
M  END
$$$$
