
     RDKit          3D

 56 59  0  0  0  0  0  0  0  0999 V2000
    3.1579    0.5718    1.8782 C   0  0  0  0  0  0  0  0  0  0  0  0
    2.3838   -0.6787    1.4706 C   0  0  0  0  0  0  0  0  0  0  0  0
    2.3076   -0.8772   -0.0565 C   0  0  0  0  0  0  0  0  0  0  0  0
    3.5663   -1.4870   -0.6892 C   0  0  0  0  0  0  0  0  0  0  0  0
    4.7491   -0.5630   -0.8347 C   0  0  0  0  0  0  0  0  0  0  0  0
    5.9817   -0.9004   -0.2561 C   0  0  0  0  0  0  0  0  0  0  0  0
    7.0880   -0.0625   -0.4038 C   0  0  0  0  0  0  0  0  0  0  0  0
    6.9777    1.1169   -1.1377 C   0  0  0  0  0  0  0  0  0  0  0  0
    5.7622    1.4570   -1.7283 C   0  0  0  0  0  0  0  0  0  0  0  0
    4.6546    0.6197   -1.5821 C   0  0  0  0  0  0  0  0  0  0  0  0
    1.0362   -0.5918    2.0297 N   0  0  0  0  0  0  0  0  0  0  0  0
    0.2714   -1.7122    2.2850 C   0  0  0  0  0  0  0  0  0  0  0  0
    0.6808   -2.8598    2.1285 O   0  0  0  0  0  0  0  0  0  0  0  0
   -1.1389   -1.4080    2.7969 C   0  0  0  0  0  0  0  0  0  0  0  0
   -2.0762   -1.1062    1.7639 O   0  0  0  0  0  0  0  0  0  0  0  0
   -1.9845    0.1449    1.2562 C   0  0  0  0  0  0  0  0  0  0  0  0
   -1.1783    1.0055    1.5685 O   0  0  0  0  0  0  0  0  0  0  0  0
   -3.0410    0.3134    0.2444 C   0  0  0  0  0  0  0  0  0  0  0  0
   -2.7897   -0.1273   -1.0837 C   0  0  0  0  0  0  0  0  0  0  0  0
   -1.5833   -0.7348   -1.5114 C   0  0  0  0  0  0  0  0  0  0  0  0
   -1.3973   -1.1442   -2.8333 C   0  0  0  0  0  0  0  0  0  0  0  0
   -2.4111   -0.9576   -3.7627 C   0  0  0  0  0  0  0  0  0  0  0  0
   -3.6092   -0.3637   -3.3684 C   0  0  0  0  0  0  0  0  0  0  0  0
   -3.8103    0.0534   -2.0408 C   0  0  0  0  0  0  0  0  0  0  0  0
   -5.0226    0.6514   -1.6614 C   0  0  0  0  0  0  0  0  0  0  0  0
   -5.2606    1.0877   -0.3479 C   0  0  0  0  0  0  0  0  0  0  0  0
   -6.4881    1.6831   -0.0101 C   0  0  0  0  0  0  0  0  0  0  0  0
   -6.7408    2.1244    1.2883 C   0  0  0  0  0  0  0  0  0  0  0  0
   -5.7675    1.9785    2.2673 C   0  0  0  0  0  0  0  0  0  0  0  0
   -4.5430    1.3895    1.9464 C   0  0  0  0  0  0  0  0  0  0  0  0
   -4.2612    0.9282    0.6356 C   0  0  0  0  0  0  0  0  0  0  0  0
    4.2163    0.4983    1.6229 H   0  0  0  0  0  0  0  0  0  0  0  0
    3.0981    0.7245    2.9617 H   0  0  0  0  0  0  0  0  0  0  0  0
    2.7480    1.4673    1.3985 H   0  0  0  0  0  0  0  0  0  0  0  0
    2.8636   -1.5542    1.9234 H   0  0  0  0  0  0  0  0  0  0  0  0
    2.0267    0.0627   -0.5457 H   0  0  0  0  0  0  0  0  0  0  0  0
    1.4907   -1.5772   -0.2741 H   0  0  0  0  0  0  0  0  0  0  0  0
    3.8518   -2.3847   -0.1249 H   0  0  0  0  0  0  0  0  0  0  0  0
    3.3120   -1.8429   -1.6971 H   0  0  0  0  0  0  0  0  0  0  0  0
    6.0891   -1.8201    0.3159 H   0  0  0  0  0  0  0  0  0  0  0  0
    8.0374   -0.3349    0.0492 H   0  0  0  0  0  0  0  0  0  0  0  0
    7.8408    1.7661   -1.2550 H   0  0  0  0  0  0  0  0  0  0  0  0
    5.6775    2.3717   -2.3100 H   0  0  0  0  0  0  0  0  0  0  0  0
    3.7184    0.8956   -2.0637 H   0  0  0  0  0  0  0  0  0  0  0  0
    0.5378    0.2961    1.9460 H   0  0  0  0  0  0  0  0  0  0  0  0
   -1.5027   -2.2978    3.3223 H   0  0  0  0  0  0  0  0  0  0  0  0
   -1.1037   -0.6033    3.5412 H   0  0  0  0  0  0  0  0  0  0  0  0
   -0.7668   -0.9012   -0.8124 H   0  0  0  0  0  0  0  0  0  0  0  0
   -0.4616   -1.6106   -3.1310 H   0  0  0  0  0  0  0  0  0  0  0  0
   -2.2725   -1.2744   -4.7937 H   0  0  0  0  0  0  0  0  0  0  0  0
   -4.3913   -0.2284   -4.1129 H   0  0  0  0  0  0  0  0  0  0  0  0
   -5.8029    0.7840   -2.4109 H   0  0  0  0  0  0  0  0  0  0  0  0
   -7.2644    1.8099   -0.7628 H   0  0  0  0  0  0  0  0  0  0  0  0
   -7.6958    2.5827    1.5319 H   0  0  0  0  0  0  0  0  0  0  0  0
   -5.9568    2.3230    3.2811 H   0  0  0  0  0  0  0  0  0  0  0  0
   -3.8037    1.2969    2.7402 H   0  0  0  0  0  0  0  0  0  0  0  0
  1  2  1  0
  2  3  1  0
  3  4  1  0
  4  5  1  0
  5  6  2  0
  6  7  1  0
  7  8  2  0
  8  9  1  0
  9 10  2  0
  2 11  1  0
 11 12  1  0
 12 13  2  0
 12 14  1  0
 14 15  1  0
 15 16  1  0
 16 17  2  0
 16 18  1  0
 18 19  1  0
 19 20  2  0
 20 21  1  0
 21 22  2  0
 22 23  1  0
 23 24  2  0
 24 25  1  0
 25 26  2  0
 26 27  1  0
 27 28  2  0
 28 29  1  0
 29 30  2  0
 30 31  1  0
 10  5  1  0
 31 18  2  0
 24 19  1  0
 31 26  1  0
  1 32  1  0
  1 33  1  0
  1 34  1  0
  2 35  1  0
  3 36  1  0
  3 37  1  0
  4 38  1  0
  4 39  1  0
  6 40  1  0
  7 41  1  0
  8 42  1  0
  9 43  1  0
 10 44  1  0
 11 45  1  0
 14 46  1  0
 14 47  1  0
 20 48  1  0
 21 49  1  0
 22 50  1  0
 23 51  1  0
 25 52  1  0
 27 53  1  0
 28 54  1  0
 29 55  1  0
 30 56  1  0
M  END
$$$$
