
     RDKit          3D

 47 49  0  0  0  0  0  0  0  0999 V2000
   -7.3265   -2.2531   -1.7664 C   0  0  0  0  0  0  0  0  0  0  0  0
   -6.1346   -1.3128   -1.7508 C   0  0  0  0  0  0  0  0  0  0  0  0
   -5.5676   -1.3429   -0.4420 O   0  0  0  0  0  0  0  0  0  0  0  0
   -4.4921   -0.5316   -0.2079 C   0  0  0  0  0  0  0  0  0  0  0  0
   -4.0201   -0.5591    1.1092 C   0  0  0  0  0  0  0  0  0  0  0  0
   -2.9267    0.2194    1.4910 C   0  0  0  0  0  0  0  0  0  0  0  0
   -2.2994    1.0265    0.5408 C   0  0  0  0  0  0  0  0  0  0  0  0
   -0.9011    2.0034    1.0285 S   0  0  0  0  0  6  0  0  0  0  0  0
   -1.3143    2.8166    2.1507 O   0  0  0  0  0  0  0  0  0  0  0  0
   -0.3103    2.5900   -0.1570 O   0  0  0  0  0  0  0  0  0  0  0  0
    0.1993    0.8282    1.5963 N   0  0  0  0  0  0  0  0  0  0  0  0
    0.7324   -0.1129    0.5592 C   0  0  0  0  0  0  0  0  0  0  0  0
    2.1490    0.2647    0.1032 C   0  0  0  0  0  0  0  0  0  0  0  0
    3.0974    0.3180    1.2246 N   0  0  0  0  0  0  0  0  0  0  0  0
    4.4389   -0.0377    1.1487 C   0  0  0  0  0  0  0  0  0  0  0  0
    5.1278   -0.2741    2.1378 O   0  0  0  0  0  0  0  0  0  0  0  0
    5.0807   -0.1426   -0.1791 C   0  0  0  0  0  0  0  0  0  0  0  0
    5.8077   -1.2920   -0.4800 C   0  0  0  0  0  0  0  0  0  0  0  0
    6.4127   -1.3599   -1.7198 C   0  0  0  0  0  0  0  0  0  0  0  0
    6.3426   -0.3743   -2.6420 N   0  0  0  0  0  0  0  0  0  0  0  0
    5.6601    0.7415   -2.3037 C   0  0  0  0  0  0  0  0  0  0  0  0
    5.0189    0.9093   -1.0912 C   0  0  0  0  0  0  0  0  0  0  0  0
    2.5120    0.5280    2.5507 C   0  0  0  0  0  0  0  0  0  0  0  0
    1.2592    1.4071    2.4904 C   0  0  0  0  0  0  0  0  0  0  0  0
   -2.7609    1.0673   -0.7767 C   0  0  0  0  0  0  0  0  0  0  0  0
   -3.8590    0.2846   -1.1490 C   0  0  0  0  0  0  0  0  0  0  0  0
   -7.0179   -3.2713   -1.5074 H   0  0  0  0  0  0  0  0  0  0  0  0
   -7.7992   -2.2670   -2.7524 H   0  0  0  0  0  0  0  0  0  0  0  0
   -8.0692   -1.9462   -1.0224 H   0  0  0  0  0  0  0  0  0  0  0  0
   -5.4005   -1.6535   -2.4900 H   0  0  0  0  0  0  0  0  0  0  0  0
   -6.4747   -0.3000   -1.9957 H   0  0  0  0  0  0  0  0  0  0  0  0
   -4.5153   -1.1902    1.8442 H   0  0  0  0  0  0  0  0  0  0  0  0
   -2.5738    0.1954    2.5195 H   0  0  0  0  0  0  0  0  0  0  0  0
    0.7351   -1.1165    1.0025 H   0  0  0  0  0  0  0  0  0  0  0  0
    0.0701   -0.1644   -0.3104 H   0  0  0  0  0  0  0  0  0  0  0  0
    2.1425    1.2586   -0.3572 H   0  0  0  0  0  0  0  0  0  0  0  0
    2.4941   -0.4584   -0.6421 H   0  0  0  0  0  0  0  0  0  0  0  0
    5.9015   -2.1036    0.2330 H   0  0  0  0  0  0  0  0  0  0  0  0
    6.9908   -2.2310   -2.0154 H   0  0  0  0  0  0  0  0  0  0  0  0
    5.6492    1.5234   -3.0582 H   0  0  0  0  0  0  0  0  0  0  0  0
    4.5054    1.8355   -0.8614 H   0  0  0  0  0  0  0  0  0  0  0  0
    2.2682   -0.4608    2.9579 H   0  0  0  0  0  0  0  0  0  0  0  0
    3.2573    0.9834    3.2123 H   0  0  0  0  0  0  0  0  0  0  0  0
    1.5461    2.4016    2.1268 H   0  0  0  0  0  0  0  0  0  0  0  0
    0.8400    1.5135    3.4967 H   0  0  0  0  0  0  0  0  0  0  0  0
   -2.2796    1.7036   -1.5163 H   0  0  0  0  0  0  0  0  0  0  0  0
   -4.1962    0.3365   -2.1793 H   0  0  0  0  0  0  0  0  0  0  0  0
  1  2  1  0
  2  3  1  0
  3  4  1  0
  4  5  2  0
  5  6  1  0
  6  7  2  0
  7  8  1  0
  8  9  2  0
  8 10  2  0
  8 11  1  0
 11 12  1  0
 12 13  1  0
 13 14  1  0
 14 15  1  0
 15 16  2  0
 15 17  1  0
 17 18  2  0
 18 19  1  0
 19 20  2  0
 20 21  1  0
 21 22  2  0
 14 23  1  0
 23 24  1  0
  7 25  1  0
 25 26  2  0
 26  4  1  0
 24 11  1  0
 22 17  1  0
  1 27  1  0
  1 28  1  0
  1 29  1  0
  2 30  1  0
  2 31  1  0
  5 32  1  0
  6 33  1  0
 12 34  1  0
 12 35  1  0
 13 36  1  0
 13 37  1  0
 18 38  1  0
 19 39  1  0
 21 40  1  0
 22 41  1  0
 23 42  1  0
 23 43  1  0
 24 44  1  0
 24 45  1  0
 25 46  1  0
 26 47  1  0
M  END
$$$$
