
     RDKit          3D

 35 37  0  0  0  0  0  0  0  0999 V2000
    5.5095    0.5995    0.3708 C   0  0  0  0  0  0  0  0  0  0  0  0
    4.1340    0.2124    0.8422 C   0  0  0  0  0  0  0  0  0  0  0  0
    3.3929    1.1191    1.6154 C   0  0  0  0  0  0  0  0  0  0  0  0
    2.1173    0.7883    2.0748 C   0  0  0  0  0  0  0  0  0  0  0  0
    1.5564   -0.4482    1.7625 C   0  0  0  0  0  0  0  0  0  0  0  0
    0.2693   -0.7734    2.2084 N   0  0  0  0  0  0  0  0  0  0  0  0
   -0.7365   -0.5057    1.4495 C   0  0  0  0  0  0  0  0  0  0  0  0
   -0.7182    0.0747    0.2237 N   0  0  0  0  0  0  0  0  0  0  0  0
   -1.9085    0.2502   -0.4229 C   0  0  0  0  0  0  0  0  0  0  0  0
   -1.9895    0.7266   -1.5426 O   0  0  0  0  0  0  0  0  0  0  0  0
   -3.0334   -0.2343    0.4335 C   0  0  0  0  0  0  0  0  0  0  0  0
   -4.3536   -0.2571    0.2005 C   0  0  0  0  0  0  0  0  0  0  0  0
   -5.0063    0.2415   -0.9612 C   0  0  0  0  0  0  0  0  0  0  0  0
   -4.8430    1.4209   -1.6672 C   0  0  0  0  0  0  0  0  0  0  0  0
   -5.7332    1.5414   -2.7743 C   0  0  0  0  0  0  0  0  0  0  0  0
   -6.5745    0.4593   -2.8761 C   0  0  0  0  0  0  0  0  0  0  0  0
   -6.2954   -0.6852   -1.6409 S   0  0  0  0  0  0  0  0  0  0  0  0
   -2.3728   -0.8735    1.9158 S   0  0  0  0  0  0  0  0  0  0  0  0
    2.2975   -1.3659    1.0140 C   0  0  0  0  0  0  0  0  0  0  0  0
    3.5830   -1.0499    0.5436 C   0  0  0  0  0  0  0  0  0  0  0  0
    4.3429   -2.0687   -0.2609 C   0  0  0  0  0  0  0  0  0  0  0  0
    6.2625   -0.0549    0.8212 H   0  0  0  0  0  0  0  0  0  0  0  0
    5.7547    1.6298    0.6497 H   0  0  0  0  0  0  0  0  0  0  0  0
    5.5720    0.5330   -0.7199 H   0  0  0  0  0  0  0  0  0  0  0  0
    3.8084    2.0911    1.8734 H   0  0  0  0  0  0  0  0  0  0  0  0
    1.5611    1.4965    2.6831 H   0  0  0  0  0  0  0  0  0  0  0  0
    0.1403    0.3448   -0.2295 H   0  0  0  0  0  0  0  0  0  0  0  0
   -5.0020   -0.7143    0.9472 H   0  0  0  0  0  0  0  0  0  0  0  0
   -4.1077    2.1745   -1.4108 H   0  0  0  0  0  0  0  0  0  0  0  0
   -5.7525    2.3813   -3.4576 H   0  0  0  0  0  0  0  0  0  0  0  0
   -7.3454    0.2868   -3.6143 H   0  0  0  0  0  0  0  0  0  0  0  0
    1.8626   -2.3405    0.8032 H   0  0  0  0  0  0  0  0  0  0  0  0
    3.7714   -2.9954   -0.3793 H   0  0  0  0  0  0  0  0  0  0  0  0
    4.5536   -1.6812   -1.2626 H   0  0  0  0  0  0  0  0  0  0  0  0
    5.2831   -2.3237    0.2382 H   0  0  0  0  0  0  0  0  0  0  0  0
  1  2  1  0
  2  3  2  0
  3  4  1  0
  4  5  2  0
  5  6  1  0
  6  7  2  3
  7  8  1  0
  8  9  1  0
  9 10  2  0
  9 11  1  0
 11 12  2  3
 12 13  1  0
 13 14  2  0
 14 15  1  0
 15 16  2  0
 16 17  1  0
 11 18  1  0
  5 19  1  0
 19 20  2  0
 20 21  1  0
 20  2  1  0
 18  7  1  0
 17 13  1  0
  1 22  1  0
  1 23  1  0
  1 24  1  0
  3 25  1  0
  4 26  1  0
  8 27  1  0
 12 28  1  0
 14 29  1  0
 15 30  1  0
 16 31  1  0
 19 32  1  0
 21 33  1  0
 21 34  1  0
 21 35  1  0
M  END
$$$$
