
     RDKit          3D

 43 46  0  0  0  0  0  0  0  0999 V2000
    4.6328    0.2760    2.5027 C   0  0  0  0  0  0  0  0  0  0  0  0
    3.5544    0.5728    1.6255 O   0  0  0  0  0  0  0  0  0  0  0  0
    2.7817   -0.5287    1.3200 C   0  0  0  0  0  0  0  0  0  0  0  0
    1.7893   -0.2809    0.4753 N   0  0  0  0  0  0  0  0  0  0  0  0
    1.0269   -1.3164    0.1704 C   0  0  0  0  0  0  0  0  0  0  0  0
   -0.0326   -1.1970   -0.7066 N   0  0  0  0  0  0  0  0  0  0  0  0
   -0.7789    0.0497   -0.8802 C   0  0  0  0  0  0  0  0  0  0  0  0
    0.0429    1.1253   -1.6300 C   0  0  0  0  0  0  0  0  0  0  0  0
   -0.8103    2.3850   -1.8682 C   0  0  0  0  0  0  0  0  0  0  0  0
   -1.2928    2.9334   -0.5136 C   0  0  0  0  0  0  0  0  0  0  0  0
   -2.1485    1.8807    0.2126 C   0  0  0  0  0  0  0  0  0  0  0  0
   -3.3568    1.5175   -0.6646 C   0  0  0  0  0  0  0  0  0  0  0  0
   -2.8767    0.9594   -2.0132 C   0  0  0  0  0  0  0  0  0  0  0  0
   -2.0280    2.0198   -2.7304 C   0  0  0  0  0  0  0  0  0  0  0  0
   -2.0160   -0.2890   -1.7637 C   0  0  0  0  0  0  0  0  0  0  0  0
   -1.3009    0.6193    0.4600 C   0  0  0  0  0  0  0  0  0  0  0  0
    1.2068   -2.5350    0.6604 N   0  0  0  0  0  0  0  0  0  0  0  0
    2.2351   -2.6647    1.4940 C   0  0  0  0  0  0  0  0  0  0  0  0
    2.5073   -3.8933    2.0597 O   0  0  0  0  0  0  0  0  0  0  0  0
    1.6635   -4.9320    1.5807 C   0  0  0  0  0  0  0  0  0  0  0  0
    3.0584   -1.7007    1.8709 N   0  0  0  0  0  0  0  0  0  0  0  0
    4.2698   -0.0744    3.4752 H   0  0  0  0  0  0  0  0  0  0  0  0
    5.1898    1.2028    2.6718 H   0  0  0  0  0  0  0  0  0  0  0  0
    5.3228   -0.4483    2.0557 H   0  0  0  0  0  0  0  0  0  0  0  0
   -0.6015   -2.0279   -0.5850 H   0  0  0  0  0  0  0  0  0  0  0  0
    0.4025    0.7293   -2.5888 H   0  0  0  0  0  0  0  0  0  0  0  0
    0.9347    1.4166   -1.0655 H   0  0  0  0  0  0  0  0  0  0  0  0
   -0.2100    3.1445   -2.3815 H   0  0  0  0  0  0  0  0  0  0  0  0
   -1.8789    3.8476   -0.6690 H   0  0  0  0  0  0  0  0  0  0  0  0
   -0.4315    3.2093    0.1072 H   0  0  0  0  0  0  0  0  0  0  0  0
   -2.4963    2.2840    1.1703 H   0  0  0  0  0  0  0  0  0  0  0  0
   -3.9823    0.7758   -0.1528 H   0  0  0  0  0  0  0  0  0  0  0  0
   -3.9824    2.4038   -0.8269 H   0  0  0  0  0  0  0  0  0  0  0  0
   -3.7408    0.6961   -2.6332 H   0  0  0  0  0  0  0  0  0  0  0  0
   -1.6973    1.6398   -3.7049 H   0  0  0  0  0  0  0  0  0  0  0  0
   -2.6317    2.9145   -2.9258 H   0  0  0  0  0  0  0  0  0  0  0  0
   -1.6904   -0.7123   -2.7236 H   0  0  0  0  0  0  0  0  0  0  0  0
   -2.6264   -1.0637   -1.2799 H   0  0  0  0  0  0  0  0  0  0  0  0
   -0.4725    0.8787    1.1295 H   0  0  0  0  0  0  0  0  0  0  0  0
   -1.8987   -0.1354    0.9876 H   0  0  0  0  0  0  0  0  0  0  0  0
    1.7724   -5.0677    0.4989 H   0  0  0  0  0  0  0  0  0  0  0  0
    1.9736   -5.8635    2.0642 H   0  0  0  0  0  0  0  0  0  0  0  0
    0.6174   -4.7507    1.8511 H   0  0  0  0  0  0  0  0  0  0  0  0
  1  2  1  0
  2  3  1  0
  3  4  2  0
  4  5  1  0
  5  6  1  0
  6  7  1  0
  7  8  1  0
  8  9  1  0
  9 10  1  0
 10 11  1  0
 11 12  1  0
 12 13  1  0
 13 14  1  0
 13 15  1  0
 11 16  1  0
  5 17  2  0
 17 18  1  0
 18 19  1  0
 19 20  1  0
 18 21  2  0
 21  3  1  0
 15  7  1  0
 16  7  1  0
 14  9  1  0
  1 22  1  0
  1 23  1  0
  1 24  1  0
  6 25  1  0
  8 26  1  0
  8 27  1  0
  9 28  1  0
 10 29  1  0
 10 30  1  0
 11 31  1  0
 12 32  1  0
 12 33  1  0
 13 34  1  0
 14 35  1  0
 14 36  1  0
 15 37  1  0
 15 38  1  0
 16 39  1  0
 16 40  1  0
 20 41  1  0
 20 42  1  0
 20 43  1  0
M  END
$$$$
