
     RDKit          3D

 53 56  0  0  0  0  0  0  0  0999 V2000
   -0.7036   -3.3319   -1.1020 C   0  0  0  0  0  0  0  0  0  0  0  0
   -0.3635   -2.6613   -2.4275 C   0  0  0  0  0  0  0  0  0  0  0  0
    0.2027   -1.3139   -2.2251 N   0  0  0  0  0  0  0  0  0  0  0  0
    1.5822   -1.0588   -2.1552 C   0  0  0  0  0  0  0  0  0  0  0  0
    2.0347    0.0936   -2.1498 O   0  0  0  0  0  0  0  0  0  0  0  0
    2.5271   -2.2625   -2.1138 C   0  0  0  0  0  0  0  0  0  0  0  0
    4.0062   -1.9278   -1.0979 S   0  0  0  0  0  0  0  0  0  0  0  0
    3.2537   -1.5629    0.4192 C   0  0  0  0  0  0  0  0  0  0  0  0
    1.9895   -1.7730    0.7174 N   0  0  0  0  0  0  0  0  0  0  0  0
    1.7737   -1.3069    1.9922 N   0  0  0  0  0  0  0  0  0  0  0  0
    2.9141   -0.8270    2.4433 C   0  0  0  0  0  0  0  0  0  0  0  0
    3.2829   -0.2183    3.6751 C   0  0  0  0  0  0  0  0  0  0  0  0
    4.5553    0.1841    3.8633 C   0  0  0  0  0  0  0  0  0  0  0  0
    5.5696    0.0118    2.8331 C   0  0  0  0  0  0  0  0  0  0  0  0
    5.2240   -0.5581    1.6658 C   0  0  0  0  0  0  0  0  0  0  0  0
    3.9041   -0.9728    1.4762 N   0  0  0  0  0  0  0  0  0  0  0  0
   -0.6990   -0.2315   -2.2001 C   0  0  0  0  0  0  0  0  0  0  0  0
   -0.7226    0.7101   -1.2193 C   0  0  0  0  0  0  0  0  0  0  0  0
    0.1170    0.6230   -0.1037 N   0  0  0  0  0  0  0  0  0  0  0  0
   -1.6099    1.7840   -1.3048 N   0  0  0  0  0  0  0  0  0  0  0  0
   -1.6859    2.7682   -0.2197 C   0  0  0  0  0  0  0  0  0  0  0  0
   -2.7434    2.4201    0.8101 C   0  0  0  0  0  0  0  0  0  0  0  0
   -4.0555    2.8995    0.6776 C   0  0  0  0  0  0  0  0  0  0  0  0
   -5.0346    2.5597    1.6130 C   0  0  0  0  0  0  0  0  0  0  0  0
   -4.7158    1.7350    2.6900 C   0  0  0  0  0  0  0  0  0  0  0  0
   -3.4186    1.2468    2.8306 C   0  0  0  0  0  0  0  0  0  0  0  0
   -2.4387    1.5859    1.8957 C   0  0  0  0  0  0  0  0  0  0  0  0
   -2.4977    1.9488   -2.3546 C   0  0  0  0  0  0  0  0  0  0  0  0
   -3.2327    2.9235   -2.5087 O   0  0  0  0  0  0  0  0  0  0  0  0
   -2.5290    0.9492   -3.2767 N   0  0  0  0  0  0  0  0  0  0  0  0
   -1.6194   -0.0539   -3.3682 C   0  0  0  0  0  0  0  0  0  0  0  0
   -1.5452   -0.7430   -4.3842 O   0  0  0  0  0  0  0  0  0  0  0  0
    0.1768   -3.4431   -0.4633 H   0  0  0  0  0  0  0  0  0  0  0  0
   -1.1227   -4.3283   -1.2772 H   0  0  0  0  0  0  0  0  0  0  0  0
   -1.4430   -2.7450   -0.5466 H   0  0  0  0  0  0  0  0  0  0  0  0
    0.3410   -3.2759   -2.9963 H   0  0  0  0  0  0  0  0  0  0  0  0
   -1.2783   -2.6194   -3.0244 H   0  0  0  0  0  0  0  0  0  0  0  0
    2.0565   -3.1544   -1.7008 H   0  0  0  0  0  0  0  0  0  0  0  0
    2.8436   -2.4799   -3.1383 H   0  0  0  0  0  0  0  0  0  0  0  0
    2.5254   -0.0891    4.4403 H   0  0  0  0  0  0  0  0  0  0  0  0
    4.8553    0.6536    4.7955 H   0  0  0  0  0  0  0  0  0  0  0  0
    6.5828    0.3490    3.0303 H   0  0  0  0  0  0  0  0  0  0  0  0
    5.9269   -0.7118    0.8565 H   0  0  0  0  0  0  0  0  0  0  0  0
    1.0031    1.0649   -0.3708 H   0  0  0  0  0  0  0  0  0  0  0  0
    0.4030   -0.3474    0.0686 H   0  0  0  0  0  0  0  0  0  0  0  0
   -0.7092    2.8980    0.2637 H   0  0  0  0  0  0  0  0  0  0  0  0
   -1.9160    3.7545   -0.6444 H   0  0  0  0  0  0  0  0  0  0  0  0
   -4.3241    3.5360   -0.1639 H   0  0  0  0  0  0  0  0  0  0  0  0
   -6.0467    2.9373    1.4967 H   0  0  0  0  0  0  0  0  0  0  0  0
   -5.4794    1.4678    3.4155 H   0  0  0  0  0  0  0  0  0  0  0  0
   -3.1676    0.5960    3.6646 H   0  0  0  0  0  0  0  0  0  0  0  0
   -1.4327    1.1883    2.0143 H   0  0  0  0  0  0  0  0  0  0  0  0
   -3.1167    1.1090   -4.0793 H   0  0  0  0  0  0  0  0  0  0  0  0
  1  2  1  0
  2  3  1  0
  3  4  1  0
  4  5  2  0
  4  6  1  0
  6  7  1  0
  7  8  1  0
  8  9  2  0
  9 10  1  0
 10 11  2  0
 11 12  1  0
 12 13  2  0
 13 14  1  0
 14 15  2  0
 15 16  1  0
  3 17  1  0
 17 18  2  0
 18 19  1  0
 18 20  1  0
 20 21  1  0
 21 22  1  0
 22 23  2  0
 23 24  1  0
 24 25  2  0
 25 26  1  0
 26 27  2  0
 20 28  1  0
 28 29  2  0
 28 30  1  0
 30 31  1  0
 31 32  2  0
 16  8  1  0
 31 17  1  0
 16 11  1  0
 27 22  1  0
  1 33  1  0
  1 34  1  0
  1 35  1  0
  2 36  1  0
  2 37  1  0
  6 38  1  0
  6 39  1  0
 12 40  1  0
 13 41  1  0
 14 42  1  0
 15 43  1  0
 19 44  1  0
 19 45  1  0
 21 46  1  0
 21 47  1  0
 23 48  1  0
 24 49  1  0
 25 50  1  0
 26 51  1  0
 27 52  1  0
 30 53  1  0
M  END
$$$$
