
     RDKit          3D

 46 48  0  0  0  0  0  0  0  0999 V2000
    6.5249    0.5235   -3.4672 C   0  0  0  0  0  0  0  0  0  0  0  0
    6.1500    0.5128   -2.0958 O   0  0  0  0  0  0  0  0  0  0  0  0
    4.8205    0.9969   -1.9119 C   0  0  0  0  0  0  0  0  0  0  0  0
    4.4520    0.9002   -0.4341 C   0  0  0  0  0  0  0  0  0  0  0  0
    3.1865    1.5222   -0.1633 O   0  0  0  0  0  0  0  0  0  0  0  0
    2.0837    0.7748   -0.4570 C   0  0  0  0  0  0  0  0  0  0  0  0
    2.1324   -0.3434   -0.9530 O   0  0  0  0  0  0  0  0  0  0  0  0
    0.8355    1.4461   -0.1339 C   0  0  0  0  0  0  0  0  0  0  0  0
    0.6785    2.7059    0.4290 C   0  0  0  0  0  0  0  0  0  0  0  0
    1.6170    3.7581    0.8808 C   0  0  0  0  0  0  0  0  0  0  0  0
   -0.6428    3.0011    0.5814 O   0  0  0  0  0  0  0  0  0  0  0  0
   -1.3513    1.9397    0.1215 C   0  0  0  0  0  0  0  0  0  0  0  0
   -2.7408    1.8522    0.1014 C   0  0  0  0  0  0  0  0  0  0  0  0
   -3.2854    0.6708   -0.4125 C   0  0  0  0  0  0  0  0  0  0  0  0
   -2.4627   -0.3605   -0.8749 C   0  0  0  0  0  0  0  0  0  0  0  0
   -3.0763   -1.5506   -1.3548 N   0  0  0  0  0  0  0  0  0  0  0  0
   -2.8429   -3.0064   -0.5323 S   0  0  0  0  0  6  0  0  0  0  0  0
   -3.8405   -3.9208   -1.0477 O   0  0  0  0  0  0  0  0  0  0  0  0
   -1.4381   -3.3483   -0.5348 O   0  0  0  0  0  0  0  0  0  0  0  0
   -3.3086   -2.6012    1.1389 C   0  0  0  0  0  0  0  0  0  0  0  0
   -4.6567   -2.6671    1.5124 C   0  0  0  0  0  0  0  0  0  0  0  0
   -5.0185   -2.3587    2.8242 C   0  0  0  0  0  0  0  0  0  0  0  0
   -4.0357   -2.0009    3.7434 C   0  0  0  0  0  0  0  0  0  0  0  0
   -4.3888   -1.7043    5.0006 F   0  0  0  0  0  0  0  0  0  0  0  0
   -2.6928   -1.9516    3.3803 C   0  0  0  0  0  0  0  0  0  0  0  0
   -2.3210   -2.2602    2.0716 C   0  0  0  0  0  0  0  0  0  0  0  0
   -1.0662   -0.2386   -0.8434 C   0  0  0  0  0  0  0  0  0  0  0  0
   -0.4947    0.9452   -0.3308 C   0  0  0  0  0  0  0  0  0  0  0  0
    6.4893    1.5420   -3.8657 H   0  0  0  0  0  0  0  0  0  0  0  0
    5.8696   -0.1326   -4.0483 H   0  0  0  0  0  0  0  0  0  0  0  0
    7.5501    0.1524   -3.5466 H   0  0  0  0  0  0  0  0  0  0  0  0
    4.7560    2.0402   -2.2433 H   0  0  0  0  0  0  0  0  0  0  0  0
    4.1217    0.4110   -2.5193 H   0  0  0  0  0  0  0  0  0  0  0  0
    4.4652   -0.1398   -0.0845 H   0  0  0  0  0  0  0  0  0  0  0  0
    5.2040    1.4241    0.1672 H   0  0  0  0  0  0  0  0  0  0  0  0
    2.2331    4.1072    0.0466 H   0  0  0  0  0  0  0  0  0  0  0  0
    2.2742    3.3749    1.6673 H   0  0  0  0  0  0  0  0  0  0  0  0
    1.0802    4.6224    1.2850 H   0  0  0  0  0  0  0  0  0  0  0  0
   -3.3609    2.6610    0.4691 H   0  0  0  0  0  0  0  0  0  0  0  0
   -4.3675    0.5658   -0.4358 H   0  0  0  0  0  0  0  0  0  0  0  0
   -4.0094   -1.4845   -1.7577 H   0  0  0  0  0  0  0  0  0  0  0  0
   -5.4210   -2.9615    0.7967 H   0  0  0  0  0  0  0  0  0  0  0  0
   -6.0565   -2.4016    3.1396 H   0  0  0  0  0  0  0  0  0  0  0  0
   -1.9459   -1.6782    4.1194 H   0  0  0  0  0  0  0  0  0  0  0  0
   -1.2710   -2.2307    1.7870 H   0  0  0  0  0  0  0  0  0  0  0  0
   -0.4284   -1.0372   -1.2152 H   0  0  0  0  0  0  0  0  0  0  0  0
  1  2  1  0
  2  3  1  0
  3  4  1  0
  4  5  1  0
  5  6  1  0
  6  7  2  0
  6  8  1  0
  8  9  2  0
  9 10  1  0
  9 11  1  0
 11 12  1  0
 12 13  2  0
 13 14  1  0
 14 15  2  0
 15 16  1  0
 16 17  1  0
 17 18  2  0
 17 19  2  0
 17 20  1  0
 20 21  2  0
 21 22  1  0
 22 23  2  0
 23 24  1  0
 23 25  1  0
 25 26  2  0
 15 27  1  0
 27 28  2  0
 28  8  1  0
 28 12  1  0
 26 20  1  0
  1 29  1  0
  1 30  1  0
  1 31  1  0
  3 32  1  0
  3 33  1  0
  4 34  1  0
  4 35  1  0
 10 36  1  0
 10 37  1  0
 10 38  1  0
 13 39  1  0
 14 40  1  0
 16 41  1  0
 21 42  1  0
 22 43  1  0
 25 44  1  0
 26 45  1  0
 27 46  1  0
M  END
$$$$
