
     RDKit          3D

 41 43  0  0  0  0  0  0  0  0999 V2000
   -2.9598    0.5947    1.4667 C   0  0  0  0  0  0  0  0  0  0  0  0
   -2.5284    0.2630    0.0605 C   0  0  0  0  0  0  0  0  0  0  0  0
   -3.4109   -0.0923   -0.8996 C   0  0  0  0  0  0  0  0  0  0  0  0
   -4.8620   -0.2031   -0.7272 C   0  0  0  0  0  0  0  0  0  0  0  0
   -5.6841    0.9054   -0.9546 C   0  0  0  0  0  0  0  0  0  0  0  0
   -7.0660    0.7990   -0.7869 C   0  0  0  0  0  0  0  0  0  0  0  0
   -7.6299   -0.4138   -0.3920 C   0  0  0  0  0  0  0  0  0  0  0  0
   -6.8139   -1.5215   -0.1639 C   0  0  0  0  0  0  0  0  0  0  0  0
   -5.4318   -1.4175   -0.3310 C   0  0  0  0  0  0  0  0  0  0  0  0
   -1.1078    0.3148   -0.3067 C   0  0  0  0  0  0  0  0  0  0  0  0
   -0.0006    0.6304    0.3845 C   0  0  0  0  0  0  0  0  0  0  0  0
    0.1874    1.1197    2.0259 S   0  0  0  0  0  0  0  0  0  0  0  0
    1.9377    1.2607    1.9102 C   0  0  0  0  0  0  0  0  0  0  0  0
    2.9041    1.7758    3.1683 S   0  0  0  0  0  0  0  0  0  0  0  0
    2.3160    0.9226    0.6295 N   0  0  0  0  0  0  0  0  0  0  0  0
    3.6580    0.8593    0.2274 N   0  0  0  0  0  0  0  0  0  0  0  0
    4.2998   -0.3562    0.3680 C   0  0  0  0  0  0  0  0  0  0  0  0
    3.8594   -1.2852    1.0374 O   0  0  0  0  0  0  0  0  0  0  0  0
    5.6036   -0.4919   -0.3236 C   0  0  0  0  0  0  0  0  0  0  0  0
    5.8416    0.0876   -1.5700 C   0  0  0  0  0  0  0  0  0  0  0  0
    7.0889   -0.1020   -2.1380 C   0  0  0  0  0  0  0  0  0  0  0  0
    8.0783   -0.8115   -1.5552 N   0  0  0  0  0  0  0  0  0  0  0  0
    7.8099   -1.3794   -0.3597 C   0  0  0  0  0  0  0  0  0  0  0  0
    6.5971   -1.2546    0.2898 C   0  0  0  0  0  0  0  0  0  0  0  0
    1.3350    0.5912   -0.2874 C   0  0  0  0  0  0  0  0  0  0  0  0
    1.5154    0.3484   -1.4747 O   0  0  0  0  0  0  0  0  0  0  0  0
   -2.4976   -0.0906    2.1845 H   0  0  0  0  0  0  0  0  0  0  0  0
   -2.6977    1.6275    1.7176 H   0  0  0  0  0  0  0  0  0  0  0  0
   -4.0396    0.5104    1.6209 H   0  0  0  0  0  0  0  0  0  0  0  0
   -3.0839   -0.3317   -1.9102 H   0  0  0  0  0  0  0  0  0  0  0  0
   -5.2537    1.8559   -1.2602 H   0  0  0  0  0  0  0  0  0  0  0  0
   -7.7022    1.6624   -0.9635 H   0  0  0  0  0  0  0  0  0  0  0  0
   -8.7059   -0.4957   -0.2611 H   0  0  0  0  0  0  0  0  0  0  0  0
   -7.2534   -2.4664    0.1451 H   0  0  0  0  0  0  0  0  0  0  0  0
   -4.8037   -2.2861   -0.1480 H   0  0  0  0  0  0  0  0  0  0  0  0
   -0.9344    0.0365   -1.3511 H   0  0  0  0  0  0  0  0  0  0  0  0
    3.9659    1.5721   -0.4216 H   0  0  0  0  0  0  0  0  0  0  0  0
    5.0834    0.6385   -2.1132 H   0  0  0  0  0  0  0  0  0  0  0  0
    7.3335    0.3166   -3.1107 H   0  0  0  0  0  0  0  0  0  0  0  0
    8.6221   -1.9568    0.0736 H   0  0  0  0  0  0  0  0  0  0  0  0
    6.4305   -1.7359    1.2483 H   0  0  0  0  0  0  0  0  0  0  0  0
  1  2  1  0
  2  3  2  3
  3  4  1  0
  4  5  2  0
  5  6  1  0
  6  7  2  0
  7  8  1  0
  8  9  2  0
  2 10  1  0
 10 11  2  3
 11 12  1  0
 12 13  1  0
 13 14  2  0
 13 15  1  0
 15 16  1  0
 16 17  1  0
 17 18  2  0
 17 19  1  0
 19 20  2  0
 20 21  1  0
 21 22  2  0
 22 23  1  0
 23 24  2  0
 15 25  1  0
 25 26  2  0
  9  4  1  0
 25 11  1  0
 24 19  1  0
  1 27  1  0
  1 28  1  0
  1 29  1  0
  3 30  1  0
  5 31  1  0
  6 32  1  0
  7 33  1  0
  8 34  1  0
  9 35  1  0
 10 36  1  0
 16 37  1  0
 20 38  1  0
 21 39  1  0
 23 40  1  0
 24 41  1  0
M  END
$$$$
