
     RDKit          3D

 57 59  0  0  0  0  0  0  0  0999 V2000
   -1.1332   -3.5726    2.4597 C   0  0  0  0  0  0  0  0  0  0  0  0
   -0.4422   -2.2638    2.8190 C   0  0  0  0  0  0  0  0  0  0  0  0
   -1.1217   -1.0570    2.1756 C   0  0  0  0  0  0  0  0  0  0  0  0
   -0.9947   -1.1614    0.7528 O   0  0  0  0  0  0  0  0  0  0  0  0
   -1.5167   -0.0529    0.1348 C   0  0  0  0  0  0  0  0  0  0  0  0
   -2.9050    0.0519   -0.0207 C   0  0  0  0  0  0  0  0  0  0  0  0
   -3.4859    1.1476   -0.6735 C   0  0  0  0  0  0  0  0  0  0  0  0
   -4.8684    1.2982   -0.8427 N   0  0  0  0  0  0  0  0  0  0  0  0
   -5.3242    1.5114   -2.2314 C   0  0  0  0  0  0  0  0  0  0  0  0
   -5.2072    0.2488   -3.0755 C   0  0  0  0  0  0  0  0  0  0  0  0
   -5.8075    0.5652    0.0226 C   0  0  0  0  0  0  0  0  0  0  0  0
   -5.7736    1.0966    1.4496 C   0  0  0  0  0  0  0  0  0  0  0  0
   -2.6078    2.1331   -1.1588 C   0  0  0  0  0  0  0  0  0  0  0  0
   -1.2170    2.0220   -1.0306 C   0  0  0  0  0  0  0  0  0  0  0  0
   -0.6582    0.9152   -0.3938 C   0  0  0  0  0  0  0  0  0  0  0  0
    0.8031    0.8144   -0.2790 C   0  0  0  0  0  0  0  0  0  0  0  0
    1.5780   -0.0280   -0.9939 C   0  0  0  0  0  0  0  0  0  0  0  0
    1.0355   -0.9290   -1.9647 C   0  0  0  0  0  0  0  0  0  0  0  0
    0.5914   -1.6215   -2.7856 N   0  0  0  0  0  0  0  0  0  0  0  0
    2.9839   -0.0350   -0.7706 C   0  0  0  0  0  0  0  0  0  0  0  0
    3.8130   -1.0432   -0.5819 N   0  0  0  0  0  0  0  0  0  0  0  0
    5.0633   -0.4908   -0.4498 C   0  0  0  0  0  0  0  0  0  0  0  0
    6.3011   -1.1111   -0.2263 C   0  0  0  0  0  0  0  0  0  0  0  0
    7.4560   -0.3152   -0.1246 C   0  0  0  0  0  0  0  0  0  0  0  0
    8.7963   -0.9607    0.0786 C   0  0  0  0  0  0  0  0  0  0  0  0
    7.3603    1.0772   -0.2718 C   0  0  0  0  0  0  0  0  0  0  0  0
    6.1323    1.7130   -0.4966 C   0  0  0  0  0  0  0  0  0  0  0  0
    5.0085    0.8902   -0.5761 C   0  0  0  0  0  0  0  0  0  0  0  0
    3.6806    1.1550   -0.7899 N   0  0  0  0  0  0  0  0  0  0  0  0
   -0.6408   -4.4107    2.9635 H   0  0  0  0  0  0  0  0  0  0  0  0
   -2.1833   -3.5582    2.7717 H   0  0  0  0  0  0  0  0  0  0  0  0
   -1.0977   -3.7602    1.3815 H   0  0  0  0  0  0  0  0  0  0  0  0
   -0.4424   -2.1429    3.9081 H   0  0  0  0  0  0  0  0  0  0  0  0
    0.6022   -2.3185    2.4876 H   0  0  0  0  0  0  0  0  0  0  0  0
   -2.1789   -1.0259    2.4696 H   0  0  0  0  0  0  0  0  0  0  0  0
   -0.6286   -0.1420    2.5279 H   0  0  0  0  0  0  0  0  0  0  0  0
   -3.5157   -0.7616    0.3548 H   0  0  0  0  0  0  0  0  0  0  0  0
   -4.7807    2.3301   -2.7147 H   0  0  0  0  0  0  0  0  0  0  0  0
   -6.3723    1.8348   -2.2194 H   0  0  0  0  0  0  0  0  0  0  0  0
   -5.7697   -0.5804   -2.6353 H   0  0  0  0  0  0  0  0  0  0  0  0
   -5.6025    0.4300   -4.0801 H   0  0  0  0  0  0  0  0  0  0  0  0
   -4.1648   -0.0681   -3.1780 H   0  0  0  0  0  0  0  0  0  0  0  0
   -6.8311    0.7094   -0.3463 H   0  0  0  0  0  0  0  0  0  0  0  0
   -5.6320   -0.5161   -0.0061 H   0  0  0  0  0  0  0  0  0  0  0  0
   -6.5539    0.6169    2.0503 H   0  0  0  0  0  0  0  0  0  0  0  0
   -5.9471    2.1783    1.4678 H   0  0  0  0  0  0  0  0  0  0  0  0
   -4.8128    0.9045    1.9362 H   0  0  0  0  0  0  0  0  0  0  0  0
   -3.0069    3.0258   -1.6343 H   0  0  0  0  0  0  0  0  0  0  0  0
   -0.5886    2.8102   -1.4363 H   0  0  0  0  0  0  0  0  0  0  0  0
    1.2257    1.4694    0.4790 H   0  0  0  0  0  0  0  0  0  0  0  0
    6.3461   -2.1914   -0.1372 H   0  0  0  0  0  0  0  0  0  0  0  0
    8.6958   -1.9231    0.5924 H   0  0  0  0  0  0  0  0  0  0  0  0
    9.4418   -0.3278    0.6972 H   0  0  0  0  0  0  0  0  0  0  0  0
    9.2813   -1.1266   -0.8889 H   0  0  0  0  0  0  0  0  0  0  0  0
    8.2606    1.6875   -0.2125 H   0  0  0  0  0  0  0  0  0  0  0  0
    6.0702    2.7898   -0.6078 H   0  0  0  0  0  0  0  0  0  0  0  0
    3.2858    2.0690   -0.9531 H   0  0  0  0  0  0  0  0  0  0  0  0
  1  2  1  0
  2  3  1  0
  3  4  1  0
  4  5  1  0
  5  6  2  0
  6  7  1  0
  7  8  1  0
  8  9  1  0
  9 10  1  0
  8 11  1  0
 11 12  1  0
  7 13  2  0
 13 14  1  0
 14 15  2  0
 15 16  1  0
 16 17  2  3
 17 18  1  0
 18 19  3  0
 17 20  1  0
 20 21  2  0
 21 22  1  0
 22 23  2  0
 23 24  1  0
 24 25  1  0
 24 26  2  0
 26 27  1  0
 27 28  2  0
 28 29  1  0
 15  5  1  0
 29 20  1  0
 28 22  1  0
  1 30  1  0
  1 31  1  0
  1 32  1  0
  2 33  1  0
  2 34  1  0
  3 35  1  0
  3 36  1  0
  6 37  1  0
  9 38  1  0
  9 39  1  0
 10 40  1  0
 10 41  1  0
 10 42  1  0
 11 43  1  0
 11 44  1  0
 12 45  1  0
 12 46  1  0
 12 47  1  0
 13 48  1  0
 14 49  1  0
 16 50  1  0
 23 51  1  0
 25 52  1  0
 25 53  1  0
 25 54  1  0
 26 55  1  0
 27 56  1  0
 29 57  1  0
M  END
$$$$
