
     RDKit          3D

 50 50  0  0  0  0  0  0  0  0999 V2000
    9.9089    1.1369   -0.8563 C   0  0  0  0  0  0  0  0  0  0  0  0
    9.1677    1.0403    0.2624 C   0  0  0  0  0  0  0  0  0  0  0  0
    9.7985    0.7386    1.5960 C   0  0  0  0  0  0  0  0  0  0  0  0
    7.6764    1.2837    0.2576 C   0  0  0  0  0  0  0  0  0  0  0  0
    6.7860   -0.2967    0.3327 S   0  0  0  0  0  0  0  0  0  0  0  0
    5.1480    0.2749    0.3099 C   0  0  0  0  0  0  0  0  0  0  0  0
    4.7818    1.5417    0.3532 N   0  0  0  0  0  0  0  0  0  0  0  0
    3.4031    1.5613    0.3162 N   0  0  0  0  0  0  0  0  0  0  0  0
    3.0226    0.3040    0.2545 C   0  0  0  0  0  0  0  0  0  0  0  0
    1.6565   -0.2659    0.1864 C   0  0  0  0  0  0  0  0  0  0  0  0
    1.1153   -0.2248   -1.2439 C   0  0  0  0  0  0  0  0  0  0  0  0
   -0.2459   -0.9090   -1.4018 C   0  0  0  0  0  0  0  0  0  0  0  0
   -1.3713   -0.2079   -0.6396 C   0  0  0  0  0  0  0  0  0  0  0  0
   -2.7230   -0.8541   -0.9304 C   0  0  0  0  0  0  0  0  0  0  0  0
   -3.7813   -0.2018   -0.1964 N   0  0  0  0  0  0  0  0  0  0  0  0
   -4.9761   -0.8146    0.0404 C   0  0  0  0  0  0  0  0  0  0  0  0
   -5.2203   -1.9874   -0.1876 O   0  0  0  0  0  0  0  0  0  0  0  0
   -5.8337    0.0978    0.5522 O   0  0  0  0  0  0  0  0  0  0  0  0
   -7.1906   -0.2778    0.9023 C   0  0  0  0  0  0  0  0  0  0  0  0
   -7.8209    1.0088    1.4613 C   0  0  0  0  0  0  0  0  0  0  0  0
   -7.2119   -1.3470    2.0019 C   0  0  0  0  0  0  0  0  0  0  0  0
   -7.9817   -0.7134   -0.3359 C   0  0  0  0  0  0  0  0  0  0  0  0
    4.0717   -0.5729    0.2462 O   0  0  0  0  0  0  0  0  0  0  0  0
   10.9836    0.9762   -0.8420 H   0  0  0  0  0  0  0  0  0  0  0  0
    9.4617    1.3688   -1.8190 H   0  0  0  0  0  0  0  0  0  0  0  0
   10.8868    0.6388    1.5213 H   0  0  0  0  0  0  0  0  0  0  0  0
    9.4088   -0.1973    2.0080 H   0  0  0  0  0  0  0  0  0  0  0  0
    9.5894    1.5461    2.3059 H   0  0  0  0  0  0  0  0  0  0  0  0
    7.4031    1.9150    1.1107 H   0  0  0  0  0  0  0  0  0  0  0  0
    7.3774    1.8155   -0.6548 H   0  0  0  0  0  0  0  0  0  0  0  0
    1.6668   -1.2985    0.5548 H   0  0  0  0  0  0  0  0  0  0  0  0
    1.0087    0.3090    0.8568 H   0  0  0  0  0  0  0  0  0  0  0  0
    1.8279   -0.7219   -1.9157 H   0  0  0  0  0  0  0  0  0  0  0  0
    1.0450    0.8158   -1.5869 H   0  0  0  0  0  0  0  0  0  0  0  0
   -0.4955   -0.9304   -2.4694 H   0  0  0  0  0  0  0  0  0  0  0  0
   -0.1724   -1.9532   -1.0746 H   0  0  0  0  0  0  0  0  0  0  0  0
   -1.4038    0.8538   -0.9146 H   0  0  0  0  0  0  0  0  0  0  0  0
   -1.1813   -0.2499    0.4395 H   0  0  0  0  0  0  0  0  0  0  0  0
   -2.7066   -1.9176   -0.6672 H   0  0  0  0  0  0  0  0  0  0  0  0
   -2.9696   -0.7772   -1.9954 H   0  0  0  0  0  0  0  0  0  0  0  0
   -3.8101    0.8068   -0.1321 H   0  0  0  0  0  0  0  0  0  0  0  0
   -7.7948    1.8122    0.7146 H   0  0  0  0  0  0  0  0  0  0  0  0
   -8.8615    0.8537    1.7663 H   0  0  0  0  0  0  0  0  0  0  0  0
   -7.2572    1.3739    2.3286 H   0  0  0  0  0  0  0  0  0  0  0  0
   -8.2281   -1.5146    2.3753 H   0  0  0  0  0  0  0  0  0  0  0  0
   -6.8325   -2.3092    1.6470 H   0  0  0  0  0  0  0  0  0  0  0  0
   -6.5771   -1.0498    2.8441 H   0  0  0  0  0  0  0  0  0  0  0  0
   -7.8814    0.0209   -1.1425 H   0  0  0  0  0  0  0  0  0  0  0  0
   -7.6221   -1.6671   -0.7344 H   0  0  0  0  0  0  0  0  0  0  0  0
   -9.0452   -0.8344   -0.1054 H   0  0  0  0  0  0  0  0  0  0  0  0
  1  2  2  0
  2  3  1  0
  2  4  1  0
  4  5  1  0
  5  6  1  0
  6  7  2  0
  7  8  1  0
  8  9  2  0
  9 10  1  0
 10 11  1  0
 11 12  1  0
 12 13  1  0
 13 14  1  0
 14 15  1  0
 15 16  1  0
 16 17  2  0
 16 18  1  0
 18 19  1  0
 19 20  1  0
 19 21  1  0
 19 22  1  0
  9 23  1  0
 23  6  1  0
  1 24  1  0
  1 25  1  0
  3 26  1  0
  3 27  1  0
  3 28  1  0
  4 29  1  0
  4 30  1  0
 10 31  1  0
 10 32  1  0
 11 33  1  0
 11 34  1  0
 12 35  1  0
 12 36  1  0
 13 37  1  0
 13 38  1  0
 14 39  1  0
 14 40  1  0
 15 41  1  0
 20 42  1  0
 20 43  1  0
 20 44  1  0
 21 45  1  0
 21 46  1  0
 21 47  1  0
 22 48  1  0
 22 49  1  0
 22 50  1  0
M  END
$$$$
