
     RDKit          3D

 73 78  0  0  0  0  0  0  0  0999 V2000
   -8.8882   -1.9502    1.5185 C   0  0  0  0  0  0  0  0  0  0  0  0
   -8.3144   -0.7613    0.8062 C   0  0  0  0  0  0  0  0  0  0  0  0
   -9.1396    0.2868    0.4047 C   0  0  0  0  0  0  0  0  0  0  0  0
   -8.5924    1.4021   -0.2244 C   0  0  0  0  0  0  0  0  0  0  0  0
   -7.2076    1.4992   -0.4508 C   0  0  0  0  0  0  0  0  0  0  0  0
   -6.6865    2.7535   -1.1006 C   0  0  0  0  0  0  0  0  0  0  0  0
   -6.3516    0.4415   -0.0669 C   0  0  0  0  0  0  0  0  0  0  0  0
   -4.9761    0.5012   -0.3267 N   0  0  0  0  0  0  0  0  0  0  0  0
   -4.6083    0.4341   -1.7625 C   0  0  0  0  0  0  0  0  0  0  0  0
   -3.4106   -0.5002   -2.0244 C   0  0  0  0  0  0  0  0  0  0  0  0
   -2.2605   -0.2113   -1.1548 N   0  0  0  0  0  0  0  0  0  0  0  0
   -0.9861   -0.1990   -1.7042 C   0  0  0  0  0  0  0  0  0  0  0  0
   -0.7967   -0.4712   -2.8915 O   0  0  0  0  0  0  0  0  0  0  0  0
    0.1925    0.1081   -0.7788 C   0  0  0  0  0  0  0  0  0  0  0  0
    1.3786    0.6931   -1.5744 C   0  0  0  0  0  0  0  0  0  0  0  0
    2.3116   -0.3417   -2.2174 C   0  0  0  0  0  0  0  0  0  0  0  0
    2.4299   -1.6528   -1.4391 C   0  0  0  0  0  0  0  0  0  0  0  0
    1.9718   -1.4829   -0.0604 N   0  0  0  0  0  0  0  0  0  0  0  0
    2.8116   -0.8342    0.8547 C   0  0  0  0  0  0  0  0  0  0  0  0
    2.2411   -0.2173    1.9387 N   0  0  0  0  0  0  0  0  0  0  0  0
    3.0179    0.4107    2.8440 C   0  0  0  0  0  0  0  0  0  0  0  0
    4.3529    0.5401    2.8448 N   0  0  0  0  0  0  0  0  0  0  0  0
    4.8913   -0.0748    1.7808 C   0  0  0  0  0  0  0  0  0  0  0  0
    4.2292   -0.7621    0.7734 C   0  0  0  0  0  0  0  0  0  0  0  0
    5.1492   -1.2454   -0.1419 N   0  0  0  0  0  0  0  0  0  0  0  0
    6.3348   -0.8711    0.2971 C   0  0  0  0  0  0  0  0  0  0  0  0
    6.2193   -0.1541    1.4622 N   0  0  0  0  0  0  0  0  0  0  0  0
    7.3109    0.4198    2.2173 C   0  0  0  0  0  0  0  0  0  0  0  0
    8.1150    1.4444    1.4207 C   0  0  0  0  0  0  0  0  0  0  0  0
    9.0697    0.8229    0.3994 C   0  0  0  0  0  0  0  0  0  0  0  0
    8.3895    0.1012   -0.7665 C   0  0  0  0  0  0  0  0  0  0  0  0
    7.6395   -1.1653   -0.3588 C   0  0  0  0  0  0  0  0  0  0  0  0
    0.5430   -1.1628    0.0166 C   0  0  0  0  0  0  0  0  0  0  0  0
   -2.5916    0.1848    0.2230 C   0  0  0  0  0  0  0  0  0  0  0  0
   -4.0445   -0.1495    0.6080 C   0  0  0  0  0  0  0  0  0  0  0  0
   -6.9324   -0.6669    0.5783 C   0  0  0  0  0  0  0  0  0  0  0  0
   -8.2841   -2.8456    1.3368 H   0  0  0  0  0  0  0  0  0  0  0  0
   -9.9016   -2.1661    1.1638 H   0  0  0  0  0  0  0  0  0  0  0  0
   -8.9222   -1.7595    2.5956 H   0  0  0  0  0  0  0  0  0  0  0  0
  -10.2118    0.2450    0.5806 H   0  0  0  0  0  0  0  0  0  0  0  0
   -9.2535    2.2111   -0.5275 H   0  0  0  0  0  0  0  0  0  0  0  0
   -5.7336    3.0615   -0.6585 H   0  0  0  0  0  0  0  0  0  0  0  0
   -7.3802    3.5894   -0.9566 H   0  0  0  0  0  0  0  0  0  0  0  0
   -6.5597    2.5973   -2.1759 H   0  0  0  0  0  0  0  0  0  0  0  0
   -5.4497    0.1000   -2.3828 H   0  0  0  0  0  0  0  0  0  0  0  0
   -4.3347    1.4446   -2.0876 H   0  0  0  0  0  0  0  0  0  0  0  0
   -3.1306   -0.4422   -3.0812 H   0  0  0  0  0  0  0  0  0  0  0  0
   -3.6992   -1.5392   -1.8227 H   0  0  0  0  0  0  0  0  0  0  0  0
   -0.1220    0.8959   -0.0845 H   0  0  0  0  0  0  0  0  0  0  0  0
    1.9789    1.2995   -0.8824 H   0  0  0  0  0  0  0  0  0  0  0  0
    1.0286    1.3947   -2.3417 H   0  0  0  0  0  0  0  0  0  0  0  0
    3.3059    0.1092   -2.3284 H   0  0  0  0  0  0  0  0  0  0  0  0
    1.9740   -0.5660   -3.2366 H   0  0  0  0  0  0  0  0  0  0  0  0
    1.7775   -2.3946   -1.9205 H   0  0  0  0  0  0  0  0  0  0  0  0
    3.4287   -2.0887   -1.5218 H   0  0  0  0  0  0  0  0  0  0  0  0
    2.4941    0.8702    3.6770 H   0  0  0  0  0  0  0  0  0  0  0  0
    7.9403   -0.4059    2.5671 H   0  0  0  0  0  0  0  0  0  0  0  0
    6.8912    0.9068    3.1038 H   0  0  0  0  0  0  0  0  0  0  0  0
    8.7195    2.0253    2.1281 H   0  0  0  0  0  0  0  0  0  0  0  0
    7.4450    2.1541    0.9202 H   0  0  0  0  0  0  0  0  0  0  0  0
    9.6896    1.6268   -0.0164 H   0  0  0  0  0  0  0  0  0  0  0  0
    9.7573    0.1360    0.9074 H   0  0  0  0  0  0  0  0  0  0  0  0
    9.1736   -0.1852   -1.4785 H   0  0  0  0  0  0  0  0  0  0  0  0
    7.7226    0.7927   -1.2956 H   0  0  0  0  0  0  0  0  0  0  0  0
    8.2577   -1.7904    0.2961 H   0  0  0  0  0  0  0  0  0  0  0  0
    7.4425   -1.7575   -1.2612 H   0  0  0  0  0  0  0  0  0  0  0  0
   -0.0108   -2.0271   -0.3755 H   0  0  0  0  0  0  0  0  0  0  0  0
    0.1991   -1.0796    1.0545 H   0  0  0  0  0  0  0  0  0  0  0  0
   -2.4245    1.2663    0.2934 H   0  0  0  0  0  0  0  0  0  0  0  0
   -1.9098   -0.3094    0.9182 H   0  0  0  0  0  0  0  0  0  0  0  0
   -4.1682   -1.2390    0.5885 H   0  0  0  0  0  0  0  0  0  0  0  0
   -4.2312    0.2005    1.6302 H   0  0  0  0  0  0  0  0  0  0  0  0
   -6.3109   -1.5003    0.8922 H   0  0  0  0  0  0  0  0  0  0  0  0
  1  2  1  0
  2  3  2  0
  3  4  1  0
  4  5  2  0
  5  6  1  0
  5  7  1  0
  7  8  1  0
  8  9  1  0
  9 10  1  0
 10 11  1  0
 11 12  1  0
 12 13  2  0
 12 14  1  0
 14 15  1  0
 15 16  1  0
 16 17  1  0
 17 18  1  0
 18 19  1  0
 19 20  2  0
 20 21  1  0
 21 22  2  0
 22 23  1  0
 23 24  2  0
 24 25  1  0
 25 26  2  0
 26 27  1  0
 27 28  1  0
 28 29  1  0
 29 30  1  0
 30 31  1  0
 31 32  1  0
 18 33  1  0
 11 34  1  0
 34 35  1  0
  7 36  2  0
 36  2  1  0
 35  8  1  0
 33 14  1  0
 24 19  1  0
 32 26  1  0
 27 23  1  0
  1 37  1  0
  1 38  1  0
  1 39  1  0
  3 40  1  0
  4 41  1  0
  6 42  1  0
  6 43  1  0
  6 44  1  0
  9 45  1  0
  9 46  1  0
 10 47  1  0
 10 48  1  0
 14 49  1  0
 15 50  1  0
 15 51  1  0
 16 52  1  0
 16 53  1  0
 17 54  1  0
 17 55  1  0
 21 56  1  0
 28 57  1  0
 28 58  1  0
 29 59  1  0
 29 60  1  0
 30 61  1  0
 30 62  1  0
 31 63  1  0
 31 64  1  0
 32 65  1  0
 32 66  1  0
 33 67  1  0
 33 68  1  0
 34 69  1  0
 34 70  1  0
 35 71  1  0
 35 72  1  0
 36 73  1  0
M  END
$$$$
