
     RDKit          3D

 41 44  0  0  0  0  0  0  0  0999 V2000
   -4.3730    0.5536   -2.9898 C   0  0  0  0  0  0  0  0  0  0  0  0
   -3.9741   -0.0551   -1.7684 O   0  0  0  0  0  0  0  0  0  0  0  0
   -4.5521    0.4114   -0.6142 C   0  0  0  0  0  0  0  0  0  0  0  0
   -5.5694    1.3700   -0.5639 C   0  0  0  0  0  0  0  0  0  0  0  0
   -6.1003    1.7752    0.6644 C   0  0  0  0  0  0  0  0  0  0  0  0
   -5.6231    1.2259    1.8516 C   0  0  0  0  0  0  0  0  0  0  0  0
   -4.6111    0.2684    1.8154 C   0  0  0  0  0  0  0  0  0  0  0  0
   -4.0704   -0.1421    0.5890 C   0  0  0  0  0  0  0  0  0  0  0  0
   -3.0013   -1.1497    0.6016 C   0  0  0  0  0  0  0  0  0  0  0  0
   -1.6958   -0.8842    0.4581 C   0  0  0  0  0  0  0  0  0  0  0  0
   -0.9527    0.6931    0.2578 S   0  0  0  0  0  0  0  0  0  0  0  0
    0.5850   -0.0567    0.1574 C   0  0  0  0  0  0  0  0  0  0  0  0
    1.8079    0.3525   -0.0078 N   0  0  0  0  0  0  0  0  0  0  0  0
    2.5242   -0.8411    0.0408 C   0  0  0  0  0  0  0  0  0  0  0  0
    3.9780   -0.9012   -0.1093 C   0  0  0  0  0  0  0  0  0  0  0  0
    4.5675   -2.0698   -0.6261 C   0  0  0  0  0  0  0  0  0  0  0  0
    5.9526   -2.1693   -0.7880 C   0  0  0  0  0  0  0  0  0  0  0  0
    6.7739   -1.1057   -0.4250 C   0  0  0  0  0  0  0  0  0  0  0  0
    6.2109    0.0571    0.0975 C   0  0  0  0  0  0  0  0  0  0  0  0
    4.8212    0.1660    0.2394 C   0  0  0  0  0  0  0  0  0  0  0  0
    4.3263    1.3030    0.8275 O   0  0  0  0  0  0  0  0  0  0  0  0
    4.2869    2.3760   -0.1142 C   0  0  0  0  0  0  0  0  0  0  0  0
    1.7533   -1.9455    0.1870 N   0  0  0  0  0  0  0  0  0  0  0  0
    0.5306   -1.3958    0.2749 N   0  0  0  0  0  0  0  0  0  0  0  0
   -0.6969   -1.9954    0.4536 C   0  0  0  0  0  0  0  0  0  0  0  0
   -0.8633   -3.1952    0.5785 O   0  0  0  0  0  0  0  0  0  0  0  0
   -5.4294    0.3582   -3.2001 H   0  0  0  0  0  0  0  0  0  0  0  0
   -4.1606    1.6277   -2.9849 H   0  0  0  0  0  0  0  0  0  0  0  0
   -3.7850    0.1025   -3.7949 H   0  0  0  0  0  0  0  0  0  0  0  0
   -5.9763    1.8212   -1.4628 H   0  0  0  0  0  0  0  0  0  0  0  0
   -6.8909    2.5214    0.6925 H   0  0  0  0  0  0  0  0  0  0  0  0
   -6.0388    1.5430    2.8047 H   0  0  0  0  0  0  0  0  0  0  0  0
   -4.2457   -0.1525    2.7495 H   0  0  0  0  0  0  0  0  0  0  0  0
   -3.3467   -2.1753    0.7179 H   0  0  0  0  0  0  0  0  0  0  0  0
    3.9448   -2.9185   -0.9057 H   0  0  0  0  0  0  0  0  0  0  0  0
    6.3867   -3.0827   -1.1873 H   0  0  0  0  0  0  0  0  0  0  0  0
    7.8522   -1.1869   -0.5347 H   0  0  0  0  0  0  0  0  0  0  0  0
    6.8551    0.8741    0.4110 H   0  0  0  0  0  0  0  0  0  0  0  0
    3.8132    2.0772   -1.0563 H   0  0  0  0  0  0  0  0  0  0  0  0
    3.6926    3.1838    0.3232 H   0  0  0  0  0  0  0  0  0  0  0  0
    5.2940    2.7615   -0.3040 H   0  0  0  0  0  0  0  0  0  0  0  0
  1  2  1  0
  2  3  1  0
  3  4  2  0
  4  5  1  0
  5  6  2  0
  6  7  1  0
  7  8  2  0
  8  9  1  0
  9 10  2  3
 10 11  1  0
 11 12  1  0
 12 13  2  0
 13 14  1  0
 14 15  1  0
 15 16  2  0
 16 17  1  0
 17 18  2  0
 18 19  1  0
 19 20  2  0
 20 21  1  0
 21 22  1  0
 14 23  2  0
 23 24  1  0
 24 25  1  0
 25 26  2  0
  8  3  1  0
 25 10  1  0
 24 12  1  0
 20 15  1  0
  1 27  1  0
  1 28  1  0
  1 29  1  0
  4 30  1  0
  5 31  1  0
  6 32  1  0
  7 33  1  0
  9 34  1  0
 16 35  1  0
 17 36  1  0
 18 37  1  0
 19 38  1  0
 22 39  1  0
 22 40  1  0
 22 41  1  0
M  END
$$$$
