
     RDKit          3D

 48 50  0  0  0  0  0  0  0  0999 V2000
    7.4046    1.3717   -0.6770 C   0  0  0  0  0  0  0  0  0  0  0  0
    7.5582    0.4476    0.5227 C   0  0  0  0  0  0  0  0  0  0  0  0
    6.7075   -0.8123    0.3972 C   0  0  0  0  0  0  0  0  0  0  0  0
    5.3234   -0.4400    0.3748 O   0  0  0  0  0  0  0  0  0  0  0  0
    4.4671   -1.4859    0.2610 C   0  0  0  0  0  0  0  0  0  0  0  0
    4.7832   -2.6625    0.1870 O   0  0  0  0  0  0  0  0  0  0  0  0
    3.0582   -1.0063    0.2406 C   0  0  0  0  0  0  0  0  0  0  0  0
    2.0339   -1.9563    0.1680 C   0  0  0  0  0  0  0  0  0  0  0  0
    0.6910   -1.5572    0.1463 C   0  0  0  0  0  0  0  0  0  0  0  0
    0.3524   -0.2043    0.1955 C   0  0  0  0  0  0  0  0  0  0  0  0
   -0.9711    0.2825    0.1799 N   0  0  0  0  0  0  0  0  0  0  0  0
   -2.1454   -0.4561    0.1146 C   0  0  0  0  0  0  0  0  0  0  0  0
   -2.2183   -1.6745    0.0232 O   0  0  0  0  0  0  0  0  0  0  0  0
   -3.3805    0.4536    0.0912 C   0  0  0  0  0  0  0  0  0  0  0  0
   -3.5855    0.9887   -1.3512 C   0  0  0  0  0  0  0  0  0  0  0  0
   -4.5433    2.1928   -1.3119 C   0  0  0  0  0  0  0  0  0  0  0  0
   -5.9045    1.5437   -1.0205 C   0  0  0  0  0  0  0  0  0  0  0  0
   -5.5545    0.0486   -0.8976 C   0  0  0  0  0  0  0  0  0  0  0  0
   -4.4744   -0.0926   -1.9684 C   0  0  0  0  0  0  0  0  0  0  0  0
   -4.7620   -0.1628    0.4177 C   0  0  0  0  0  0  0  0  0  0  0  0
   -4.7725   -1.5997    0.8780 C   0  0  0  0  0  0  0  0  0  0  0  0
   -5.2765   -2.5548    0.3132 O   0  0  0  0  0  0  0  0  0  0  0  0
   -4.1925   -1.7368    2.0888 O   0  0  0  0  0  0  0  0  0  0  0  0
    1.3800    0.7458    0.2670 C   0  0  0  0  0  0  0  0  0  0  0  0
    2.7233    0.3512    0.2896 C   0  0  0  0  0  0  0  0  0  0  0  0
    6.3738    1.7256   -0.7784 H   0  0  0  0  0  0  0  0  0  0  0  0
    7.6855    0.8605   -1.6033 H   0  0  0  0  0  0  0  0  0  0  0  0
    8.0514    2.2475   -0.5633 H   0  0  0  0  0  0  0  0  0  0  0  0
    8.6114    0.1657    0.6291 H   0  0  0  0  0  0  0  0  0  0  0  0
    7.2667    0.9985    1.4246 H   0  0  0  0  0  0  0  0  0  0  0  0
    6.8933   -1.4610    1.2611 H   0  0  0  0  0  0  0  0  0  0  0  0
    6.9624   -1.3510   -0.5231 H   0  0  0  0  0  0  0  0  0  0  0  0
    2.2708   -3.0185    0.1276 H   0  0  0  0  0  0  0  0  0  0  0  0
   -0.0636   -2.3359    0.0896 H   0  0  0  0  0  0  0  0  0  0  0  0
   -1.0692    1.2889    0.2247 H   0  0  0  0  0  0  0  0  0  0  0  0
   -3.1927    1.2820    0.7875 H   0  0  0  0  0  0  0  0  0  0  0  0
   -2.6633    1.1874   -1.9022 H   0  0  0  0  0  0  0  0  0  0  0  0
   -4.5704    2.7009   -2.2825 H   0  0  0  0  0  0  0  0  0  0  0  0
   -4.2642    2.9278   -0.5504 H   0  0  0  0  0  0  0  0  0  0  0  0
   -6.3690    1.9471   -0.1154 H   0  0  0  0  0  0  0  0  0  0  0  0
   -6.5898    1.7143   -1.8587 H   0  0  0  0  0  0  0  0  0  0  0  0
   -6.4186   -0.6073   -1.0248 H   0  0  0  0  0  0  0  0  0  0  0  0
   -4.8278    0.1645   -2.9729 H   0  0  0  0  0  0  0  0  0  0  0  0
   -4.0113   -1.0836   -1.9922 H   0  0  0  0  0  0  0  0  0  0  0  0
   -5.2529    0.4079    1.2179 H   0  0  0  0  0  0  0  0  0  0  0  0
   -4.1733   -2.7091    2.2168 H   0  0  0  0  0  0  0  0  0  0  0  0
    1.1544    1.8086    0.3061 H   0  0  0  0  0  0  0  0  0  0  0  0
    3.4947    1.1155    0.3453 H   0  0  0  0  0  0  0  0  0  0  0  0
  1  2  1  0
  2  3  1  0
  3  4  1  0
  4  5  1  0
  5  6  2  0
  5  7  1  0
  7  8  2  0
  8  9  1  0
  9 10  2  0
 10 11  1  0
 11 12  1  0
 12 13  2  0
 12 14  1  0
 14 15  1  0
 15 16  1  0
 16 17  1  0
 17 18  1  0
 18 19  1  0
 18 20  1  0
 20 21  1  0
 21 22  2  0
 21 23  1  0
 10 24  1  0
 24 25  2  0
 25  7  1  0
 20 14  1  0
 19 15  1  0
  1 26  1  0
  1 27  1  0
  1 28  1  0
  2 29  1  0
  2 30  1  0
  3 31  1  0
  3 32  1  0
  8 33  1  0
  9 34  1  0
 11 35  1  0
 14 36  1  0
 15 37  1  0
 16 38  1  0
 16 39  1  0
 17 40  1  0
 17 41  1  0
 18 42  1  0
 19 43  1  0
 19 44  1  0
 20 45  1  0
 23 46  1  0
 24 47  1  0
 25 48  1  0
M  END
$$$$
