
     RDKit          3D

 48 51  0  0  0  0  0  0  0  0999 V2000
    8.4135    1.9053   -1.4897 C   0  0  0  0  0  0  0  0  0  0  0  0
    7.9164    0.7000   -0.9228 O   0  0  0  0  0  0  0  0  0  0  0  0
    6.5638    0.6108   -0.7474 C   0  0  0  0  0  0  0  0  0  0  0  0
    6.1248   -0.5814   -0.1744 C   0  0  0  0  0  0  0  0  0  0  0  0
    4.7631   -0.8017    0.0603 C   0  0  0  0  0  0  0  0  0  0  0  0
    3.7964    0.1610   -0.2770 C   0  0  0  0  0  0  0  0  0  0  0  0
    2.3621   -0.0907   -0.0270 C   0  0  0  0  0  0  0  0  0  0  0  0
    1.3506    0.4095   -0.8398 C   0  0  0  0  0  0  0  0  0  0  0  0
    0.0218    0.1199   -0.5288 C   0  0  0  0  0  0  0  0  0  0  0  0
   -0.2939   -0.6683    0.5858 C   0  0  0  0  0  0  0  0  0  0  0  0
   -1.6929   -0.9548    0.8775 C   0  0  0  0  0  0  0  0  0  0  0  0
   -2.1391   -1.9305    1.6833 N   0  0  0  0  0  0  0  0  0  0  0  0
   -3.5229   -1.8179    1.6147 O   0  0  0  0  0  0  0  0  0  0  0  0
   -3.7984   -0.7853    0.7613 C   0  0  0  0  0  0  0  0  0  0  0  0
   -5.2141   -0.4862    0.5377 C   0  0  0  0  0  0  0  0  0  0  0  0
   -6.1727   -0.9150    1.4788 C   0  0  0  0  0  0  0  0  0  0  0  0
   -7.5294   -0.6391    1.3076 C   0  0  0  0  0  0  0  0  0  0  0  0
   -7.9524    0.0700    0.1910 C   0  0  0  0  0  0  0  0  0  0  0  0
   -7.0221    0.5035   -0.7556 C   0  0  0  0  0  0  0  0  0  0  0  0
   -5.6544    0.2347   -0.5941 C   0  0  0  0  0  0  0  0  0  0  0  0
   -4.6983    0.6132   -1.5023 O   0  0  0  0  0  0  0  0  0  0  0  0
   -5.0924    1.4522   -2.5789 C   0  0  0  0  0  0  0  0  0  0  0  0
   -2.7074   -0.2287    0.2842 N   0  0  0  0  0  0  0  0  0  0  0  0
    0.7792   -1.1283    1.3470 C   0  0  0  0  0  0  0  0  0  0  0  0
    0.5233   -1.8770    2.4772 O   0  0  0  0  0  0  0  0  0  0  0  0
    1.6912   -2.3080    3.1661 C   0  0  0  0  0  0  0  0  0  0  0  0
    2.0796   -0.8574    1.0546 N   0  0  0  0  0  0  0  0  0  0  0  0
    4.2600    1.3603   -0.8468 C   0  0  0  0  0  0  0  0  0  0  0  0
    5.6254    1.5841   -1.0813 C   0  0  0  0  0  0  0  0  0  0  0  0
    9.5021    1.8185   -1.5585 H   0  0  0  0  0  0  0  0  0  0  0  0
    8.1878    2.7651   -0.8502 H   0  0  0  0  0  0  0  0  0  0  0  0
    8.0267    2.0536   -2.5034 H   0  0  0  0  0  0  0  0  0  0  0  0
    6.8461   -1.3487    0.0962 H   0  0  0  0  0  0  0  0  0  0  0  0
    4.4558   -1.7440    0.5115 H   0  0  0  0  0  0  0  0  0  0  0  0
    1.5737    1.0038   -1.7195 H   0  0  0  0  0  0  0  0  0  0  0  0
   -0.7687    0.5089   -1.1689 H   0  0  0  0  0  0  0  0  0  0  0  0
   -5.8681   -1.4661    2.3675 H   0  0  0  0  0  0  0  0  0  0  0  0
   -8.2517   -0.9776    2.0466 H   0  0  0  0  0  0  0  0  0  0  0  0
   -9.0092    0.2854    0.0519 H   0  0  0  0  0  0  0  0  0  0  0  0
   -7.4001    1.0451   -1.6167 H   0  0  0  0  0  0  0  0  0  0  0  0
   -4.1937    1.7091   -3.1480 H   0  0  0  0  0  0  0  0  0  0  0  0
   -5.5330    2.3862   -2.2146 H   0  0  0  0  0  0  0  0  0  0  0  0
   -5.7748    0.9281   -3.2556 H   0  0  0  0  0  0  0  0  0  0  0  0
    1.3695   -2.9002    4.0282 H   0  0  0  0  0  0  0  0  0  0  0  0
    2.3113   -2.9527    2.5335 H   0  0  0  0  0  0  0  0  0  0  0  0
    2.2661   -1.4559    3.5450 H   0  0  0  0  0  0  0  0  0  0  0  0
    3.5625    2.1554   -1.1014 H   0  0  0  0  0  0  0  0  0  0  0  0
    5.9170    2.5322   -1.5206 H   0  0  0  0  0  0  0  0  0  0  0  0
  1  2  1  0
  2  3  1  0
  3  4  2  0
  4  5  1  0
  5  6  2  0
  6  7  1  0
  7  8  2  0
  8  9  1  0
  9 10  2  0
 10 11  1  0
 11 12  2  0
 12 13  1  0
 13 14  1  0
 14 15  1  0
 15 16  2  0
 16 17  1  0
 17 18  2  0
 18 19  1  0
 19 20  2  0
 20 21  1  0
 21 22  1  0
 14 23  2  0
 10 24  1  0
 24 25  1  0
 25 26  1  0
 24 27  2  0
  6 28  1  0
 28 29  2  0
 29  3  1  0
 27  7  1  0
 23 11  1  0
 20 15  1  0
  1 30  1  0
  1 31  1  0
  1 32  1  0
  4 33  1  0
  5 34  1  0
  8 35  1  0
  9 36  1  0
 16 37  1  0
 17 38  1  0
 18 39  1  0
 19 40  1  0
 22 41  1  0
 22 42  1  0
 22 43  1  0
 26 44  1  0
 26 45  1  0
 26 46  1  0
 28 47  1  0
 29 48  1  0
M  END
$$$$
