
     RDKit          3D

 52 55  0  0  0  0  0  0  0  0999 V2000
    7.3133   -1.5006   -0.3122 C   0  0  0  0  0  0  0  0  0  0  0  0
    5.9677   -1.1930   -0.9561 C   0  0  0  0  0  0  0  0  0  0  0  0
    5.3042    0.0816   -0.3957 C   0  0  0  0  0  0  0  0  0  0  0  0
    6.1246    1.3618   -0.6005 C   0  0  0  0  0  0  0  0  0  0  0  0
    3.8715    0.2041   -0.8198 N   0  0  0  0  0  0  0  0  0  0  0  0
    2.9456   -0.1464    0.1786 C   0  0  0  0  0  0  0  0  0  0  0  0
    3.2798   -0.5981    1.2759 O   0  0  0  0  0  0  0  0  0  0  0  0
    1.4997    0.0307   -0.1364 C   0  0  0  0  0  0  0  0  0  0  0  0
    0.6276   -0.2074    0.8657 C   0  0  0  0  0  0  0  0  0  0  0  0
   -0.8339   -0.1165    0.8219 C   0  0  0  0  0  0  0  0  0  0  0  0
   -1.4781    0.9906    1.3732 C   0  0  0  0  0  0  0  0  0  0  0  0
   -2.8812    1.0798    1.3700 C   0  0  0  0  0  0  0  0  0  0  0  0
   -3.6649    0.0361    0.8331 C   0  0  0  0  0  0  0  0  0  0  0  0
   -3.0013   -1.0691    0.2589 C   0  0  0  0  0  0  0  0  0  0  0  0
   -1.5973   -1.1450    0.2705 C   0  0  0  0  0  0  0  0  0  0  0  0
   -3.7773   -2.2191   -0.3324 C   0  0  0  0  0  0  0  0  0  0  0  0
   -5.2213   -1.8415   -0.6243 C   0  0  0  0  0  0  0  0  0  0  0  0
   -5.8035   -1.1144    0.5763 C   0  0  0  0  0  0  0  0  0  0  0  0
   -5.0654    0.1233    0.8162 N   0  0  0  0  0  0  0  0  0  0  0  0
   -5.6803    1.0916    1.7209 C   0  0  0  0  0  0  0  0  0  0  0  0
   -4.9832    2.4358    1.5932 C   0  0  0  0  0  0  0  0  0  0  0  0
   -3.5257    2.2880    2.0020 C   0  0  0  0  0  0  0  0  0  0  0  0
    1.0953    0.4484   -1.4873 C   0  0  0  0  0  0  0  0  0  0  0  0
   -0.0511    0.6563   -1.8600 O   0  0  0  0  0  0  0  0  0  0  0  0
    2.1337    0.6034   -2.3570 N   0  0  0  0  0  0  0  0  0  0  0  0
    3.4791    0.5202   -2.1194 C   0  0  0  0  0  0  0  0  0  0  0  0
    4.4345    0.8225   -3.4640 S   0  0  0  0  0  0  0  0  0  0  0  0
    8.0518   -0.7265   -0.5410 H   0  0  0  0  0  0  0  0  0  0  0  0
    7.7012   -2.4521   -0.6902 H   0  0  0  0  0  0  0  0  0  0  0  0
    7.2203   -1.5822    0.7753 H   0  0  0  0  0  0  0  0  0  0  0  0
    5.3006   -2.0476   -0.7867 H   0  0  0  0  0  0  0  0  0  0  0  0
    6.1126   -1.1242   -2.0378 H   0  0  0  0  0  0  0  0  0  0  0  0
    5.3108   -0.0427    0.6939 H   0  0  0  0  0  0  0  0  0  0  0  0
    6.5146    1.4604   -1.6156 H   0  0  0  0  0  0  0  0  0  0  0  0
    6.9944    1.3658    0.0663 H   0  0  0  0  0  0  0  0  0  0  0  0
    5.5300    2.2511   -0.3658 H   0  0  0  0  0  0  0  0  0  0  0  0
    0.9917   -0.5022    1.8501 H   0  0  0  0  0  0  0  0  0  0  0  0
   -0.8928    1.7964    1.8102 H   0  0  0  0  0  0  0  0  0  0  0  0
   -1.1060   -2.0142   -0.1601 H   0  0  0  0  0  0  0  0  0  0  0  0
   -3.7513   -3.0531    0.3800 H   0  0  0  0  0  0  0  0  0  0  0  0
   -3.3028   -2.5579   -1.2609 H   0  0  0  0  0  0  0  0  0  0  0  0
   -5.2653   -1.1923   -1.5084 H   0  0  0  0  0  0  0  0  0  0  0  0
   -5.8052   -2.7403   -0.8505 H   0  0  0  0  0  0  0  0  0  0  0  0
   -6.8551   -0.8822    0.3706 H   0  0  0  0  0  0  0  0  0  0  0  0
   -5.7797   -1.7507    1.4703 H   0  0  0  0  0  0  0  0  0  0  0  0
   -5.6402    0.7250    2.7546 H   0  0  0  0  0  0  0  0  0  0  0  0
   -6.7380    1.2182    1.4615 H   0  0  0  0  0  0  0  0  0  0  0  0
   -5.4745    3.1858    2.2225 H   0  0  0  0  0  0  0  0  0  0  0  0
   -5.0451    2.7888    0.5555 H   0  0  0  0  0  0  0  0  0  0  0  0
   -3.4578    2.1825    3.0919 H   0  0  0  0  0  0  0  0  0  0  0  0
   -2.9823    3.1975    1.7198 H   0  0  0  0  0  0  0  0  0  0  0  0
    1.8558    0.8739   -3.2925 H   0  0  0  0  0  0  0  0  0  0  0  0
  1  2  1  0
  2  3  1  0
  3  4  1  0
  3  5  1  0
  5  6  1  0
  6  7  2  0
  6  8  1  0
  8  9  2  3
  9 10  1  0
 10 11  2  0
 11 12  1  0
 12 13  2  0
 13 14  1  0
 14 15  2  0
 14 16  1  0
 16 17  1  0
 17 18  1  0
 18 19  1  0
 19 20  1  0
 20 21  1  0
 21 22  1  0
  8 23  1  0
 23 24  2  0
 23 25  1  0
 25 26  1  0
 26 27  2  0
 26  5  1  0
 15 10  1  0
 22 12  1  0
 19 13  1  0
  1 28  1  0
  1 29  1  0
  1 30  1  0
  2 31  1  0
  2 32  1  0
  3 33  1  0
  4 34  1  0
  4 35  1  0
  4 36  1  0
  9 37  1  0
 11 38  1  0
 15 39  1  0
 16 40  1  0
 16 41  1  0
 17 42  1  0
 17 43  1  0
 18 44  1  0
 18 45  1  0
 20 46  1  0
 20 47  1  0
 21 48  1  0
 21 49  1  0
 22 50  1  0
 22 51  1  0
 25 52  1  0
M  END
$$$$
