
     RDKit          3D

 63 67  0  0  0  0  0  0  0  0999 V2000
   -1.8653   -0.1401   -1.0233 O   0  0  0  0  0  0  0  0  0  0  0  0
   -2.2219   -0.3793    0.1240 C   0  0  0  0  0  0  0  0  0  0  0  0
   -3.5204   -0.6743    0.4777 N   0  0  0  0  0  0  0  0  0  0  0  0
   -4.5665   -0.8136   -0.5275 C   0  0  0  0  0  0  0  0  0  0  0  0
   -4.5082   -2.2345   -1.1256 C   0  0  0  0  0  0  0  0  0  0  0  0
   -5.7550   -2.6808   -1.8998 C   0  0  0  0  0  0  0  0  0  0  0  0
   -6.8268   -1.6065   -2.0459 C   0  0  0  0  0  0  0  0  0  0  0  0
   -7.0648   -0.9100   -0.7319 C   0  0  0  0  0  0  0  0  0  0  0  0
   -8.3612   -0.6087   -0.2984 C   0  0  0  0  0  0  0  0  0  0  0  0
   -8.5553    0.0958    0.8881 C   0  0  0  0  0  0  0  0  0  0  0  0
   -7.4579    0.5222    1.6322 C   0  0  0  0  0  0  0  0  0  0  0  0
   -6.1617    0.2350    1.1996 C   0  0  0  0  0  0  0  0  0  0  0  0
   -5.9482   -0.5045    0.0269 C   0  0  0  0  0  0  0  0  0  0  0  0
   -1.2197   -0.3843    1.2250 C   0  0  0  0  0  0  0  0  0  0  0  0
   -1.5762   -0.0939    2.5511 C   0  0  0  0  0  0  0  0  0  0  0  0
   -0.6061   -0.0886    3.5572 C   0  0  0  0  0  0  0  0  0  0  0  0
    0.7246   -0.3609    3.2428 C   0  0  0  0  0  0  0  0  0  0  0  0
    1.0799   -0.6302    1.9172 C   0  0  0  0  0  0  0  0  0  0  0  0
    2.7820   -0.9706    1.5409 S   0  0  0  0  0  6  0  0  0  0  0  0
    2.8879   -1.2766    0.1320 O   0  0  0  0  0  0  0  0  0  0  0  0
    3.2540   -1.9023    2.5425 O   0  0  0  0  0  0  0  0  0  0  0  0
    3.5245    0.5333    1.8211 N   0  0  0  0  0  0  0  0  0  0  0  0
    3.1692    1.6513    0.8838 C   0  0  0  0  0  0  0  0  0  0  0  0
    3.9591    1.6155   -0.4432 C   0  0  0  0  0  0  0  0  0  0  0  0
    5.4190    1.5122   -0.1906 N   0  0  0  0  0  0  0  0  0  0  0  0
    6.1912    1.7070   -1.3503 C   0  0  0  0  0  0  0  0  0  0  0  0
    7.0163    0.7210   -1.9101 C   0  0  0  0  0  0  0  0  0  0  0  0
    7.7723    0.9688   -3.0631 C   0  0  0  0  0  0  0  0  0  0  0  0
    7.7244    2.2157   -3.6781 C   0  0  0  0  0  0  0  0  0  0  0  0
    6.9197    3.2137   -3.1407 C   0  0  0  0  0  0  0  0  0  0  0  0
    6.1657    2.9592   -1.9906 C   0  0  0  0  0  0  0  0  0  0  0  0
    5.7654    0.3660    0.6771 C   0  0  0  0  0  0  0  0  0  0  0  0
    5.0115    0.4739    2.0146 C   0  0  0  0  0  0  0  0  0  0  0  0
    0.1172   -0.6486    0.9050 C   0  0  0  0  0  0  0  0  0  0  0  0
   -3.6926   -1.1213    1.3671 H   0  0  0  0  0  0  0  0  0  0  0  0
   -4.3684   -0.0839   -1.3248 H   0  0  0  0  0  0  0  0  0  0  0  0
   -3.6269   -2.3184   -1.7744 H   0  0  0  0  0  0  0  0  0  0  0  0
   -4.3388   -2.9646   -0.3209 H   0  0  0  0  0  0  0  0  0  0  0  0
   -6.1910   -3.5428   -1.3761 H   0  0  0  0  0  0  0  0  0  0  0  0
   -5.4655   -3.0494   -2.8911 H   0  0  0  0  0  0  0  0  0  0  0  0
   -6.5187   -0.8605   -2.7888 H   0  0  0  0  0  0  0  0  0  0  0  0
   -7.7502   -2.0677   -2.4151 H   0  0  0  0  0  0  0  0  0  0  0  0
   -9.2245   -0.9128   -0.8862 H   0  0  0  0  0  0  0  0  0  0  0  0
   -9.5625    0.3303    1.2225 H   0  0  0  0  0  0  0  0  0  0  0  0
   -7.6115    1.0940    2.5439 H   0  0  0  0  0  0  0  0  0  0  0  0
   -5.3247    0.6140    1.7795 H   0  0  0  0  0  0  0  0  0  0  0  0
   -2.6007    0.1566    2.8140 H   0  0  0  0  0  0  0  0  0  0  0  0
   -0.8853    0.1390    4.5830 H   0  0  0  0  0  0  0  0  0  0  0  0
    1.4813   -0.3562    4.0251 H   0  0  0  0  0  0  0  0  0  0  0  0
    2.0939    1.6610    0.6823 H   0  0  0  0  0  0  0  0  0  0  0  0
    3.3868    2.5902    1.4092 H   0  0  0  0  0  0  0  0  0  0  0  0
    3.7134    2.5338   -0.9888 H   0  0  0  0  0  0  0  0  0  0  0  0
    3.6326    0.7762   -1.0665 H   0  0  0  0  0  0  0  0  0  0  0  0
    7.0774   -0.2719   -1.4763 H   0  0  0  0  0  0  0  0  0  0  0  0
    8.3973    0.1817   -3.4771 H   0  0  0  0  0  0  0  0  0  0  0  0
    8.3121    2.4085   -4.5710 H   0  0  0  0  0  0  0  0  0  0  0  0
    6.8821    4.1947   -3.6053 H   0  0  0  0  0  0  0  0  0  0  0  0
    5.5698    3.7672   -1.5740 H   0  0  0  0  0  0  0  0  0  0  0  0
    5.5166   -0.5808    0.1842 H   0  0  0  0  0  0  0  0  0  0  0  0
    6.8400    0.3694    0.8956 H   0  0  0  0  0  0  0  0  0  0  0  0
    5.3138    1.3891    2.5401 H   0  0  0  0  0  0  0  0  0  0  0  0
    5.2793   -0.3577    2.6745 H   0  0  0  0  0  0  0  0  0  0  0  0
    0.3967   -0.8661   -0.1244 H   0  0  0  0  0  0  0  0  0  0  0  0
  1  2  2  0
  2  3  1  0
  3  4  1  0
  4  5  1  0
  5  6  1  0
  6  7  1  0
  7  8  1  0
  8  9  2  0
  9 10  1  0
 10 11  2  0
 11 12  1  0
 12 13  2  0
  2 14  1  0
 14 15  2  0
 15 16  1  0
 16 17  2  0
 17 18  1  0
 18 19  1  0
 19 20  2  0
 19 21  2  0
 19 22  1  0
 22 23  1  0
 23 24  1  0
 24 25  1  0
 25 26  1  0
 26 27  2  0
 27 28  1  0
 28 29  2  0
 29 30  1  0
 30 31  2  0
 25 32  1  0
 32 33  1  0
 18 34  2  0
 13  4  1  0
 34 14  1  0
 13  8  1  0
 33 22  1  0
 31 26  1  0
  3 35  1  0
  4 36  1  0
  5 37  1  0
  5 38  1  0
  6 39  1  0
  6 40  1  0
  7 41  1  0
  7 42  1  0
  9 43  1  0
 10 44  1  0
 11 45  1  0
 12 46  1  0
 15 47  1  0
 16 48  1  0
 17 49  1  0
 23 50  1  0
 23 51  1  0
 24 52  1  0
 24 53  1  0
 27 54  1  0
 28 55  1  0
 29 56  1  0
 30 57  1  0
 31 58  1  0
 32 59  1  0
 32 60  1  0
 33 61  1  0
 33 62  1  0
 34 63  1  0
M  END
$$$$
