
     RDKit          3D

 50 52  0  0  0  0  0  0  0  0999 V2000
    2.3435    1.2147    0.7374 O   0  0  0  0  0  0  0  0  0  0  0  0
    3.2100    0.3513    0.8060 C   0  0  0  0  0  0  0  0  0  0  0  0
    4.6065    0.5847    1.3275 C   0  0  0  0  0  0  0  0  0  0  0  0
    5.6322    0.6789    0.2250 C   0  0  0  0  0  0  0  0  0  0  0  0
    6.3689   -0.4524   -0.1580 C   0  0  0  0  0  0  0  0  0  0  0  0
    7.3007   -0.3677   -1.1932 C   0  0  0  0  0  0  0  0  0  0  0  0
    7.4927    0.8436   -1.8476 C   0  0  0  0  0  0  0  0  0  0  0  0
    8.3885    0.9217   -2.8420 F   0  0  0  0  0  0  0  0  0  0  0  0
    6.7693    1.9738   -1.4867 C   0  0  0  0  0  0  0  0  0  0  0  0
    5.8360    1.8925   -0.4524 C   0  0  0  0  0  0  0  0  0  0  0  0
    3.0552   -0.9413    0.4017 O   0  0  0  0  0  0  0  0  0  0  0  0
    1.7232   -1.2674    0.0012 C   0  0  0  0  0  0  0  0  0  0  0  0
    0.8106   -1.5406    1.2065 C   0  0  0  0  0  0  0  0  0  0  0  0
    1.2562   -1.5221    2.3570 O   0  0  0  0  0  0  0  0  0  0  0  0
   -0.5197   -1.8538    0.9445 N   0  0  0  0  0  0  0  0  0  0  0  0
   -1.2219   -1.5140   -0.2976 C   0  0  0  0  0  0  0  0  0  0  0  0
   -2.0600   -0.2339   -0.1059 C   0  0  0  0  0  0  0  0  0  0  0  0
   -3.0142   -0.4195    1.0431 N   0  0  0  0  0  0  0  0  0  0  0  0
   -4.1230    0.8618    1.2713 S   0  0  0  0  0  6  0  0  0  0  0  0
   -4.9799    0.5253    2.3871 O   0  0  0  0  0  0  0  0  0  0  0  0
   -3.3716    2.0974    1.2378 O   0  0  0  0  0  0  0  0  0  0  0  0
   -5.1211    0.7696   -0.1956 C   0  0  0  0  0  0  0  0  0  0  0  0
   -5.9153   -0.3643   -0.4026 C   0  0  0  0  0  0  0  0  0  0  0  0
   -6.6941   -0.4548   -1.5576 C   0  0  0  0  0  0  0  0  0  0  0  0
   -6.6814    0.5880   -2.4866 C   0  0  0  0  0  0  0  0  0  0  0  0
   -7.6361    0.4701   -3.9123 Cl  0  0  0  0  0  0  0  0  0  0  0  0
   -5.8967    1.7236   -2.2721 C   0  0  0  0  0  0  0  0  0  0  0  0
   -5.1128    1.8201   -1.1198 C   0  0  0  0  0  0  0  0  0  0  0  0
   -2.2658   -0.7644    2.3084 C   0  0  0  0  0  0  0  0  0  0  0  0
   -1.4264   -2.0331    2.0839 C   0  0  0  0  0  0  0  0  0  0  0  0
    4.6056    1.5103    1.9182 H   0  0  0  0  0  0  0  0  0  0  0  0
    4.8588   -0.2118    2.0376 H   0  0  0  0  0  0  0  0  0  0  0  0
    6.2187   -1.4051    0.3467 H   0  0  0  0  0  0  0  0  0  0  0  0
    7.8759   -1.2369   -1.4938 H   0  0  0  0  0  0  0  0  0  0  0  0
    6.9355    2.9089   -2.0136 H   0  0  0  0  0  0  0  0  0  0  0  0
    5.2682    2.7788   -0.1784 H   0  0  0  0  0  0  0  0  0  0  0  0
    1.3145   -0.4703   -0.6294 H   0  0  0  0  0  0  0  0  0  0  0  0
    1.7809   -2.1842   -0.5975 H   0  0  0  0  0  0  0  0  0  0  0  0
   -0.5307   -1.3920   -1.1332 H   0  0  0  0  0  0  0  0  0  0  0  0
   -1.8794   -2.3585   -0.5381 H   0  0  0  0  0  0  0  0  0  0  0  0
   -2.6134   -0.0425   -1.0298 H   0  0  0  0  0  0  0  0  0  0  0  0
   -1.3990    0.6168    0.0964 H   0  0  0  0  0  0  0  0  0  0  0  0
   -5.9264   -1.1710    0.3285 H   0  0  0  0  0  0  0  0  0  0  0  0
   -7.3086   -1.3349   -1.7258 H   0  0  0  0  0  0  0  0  0  0  0  0
   -5.8957    2.5365   -2.9956 H   0  0  0  0  0  0  0  0  0  0  0  0
   -4.5087    2.7092   -0.9518 H   0  0  0  0  0  0  0  0  0  0  0  0
   -1.6193    0.0752    2.5897 H   0  0  0  0  0  0  0  0  0  0  0  0
   -2.9747   -0.9578    3.1196 H   0  0  0  0  0  0  0  0  0  0  0  0
   -0.8755   -2.2865    2.9951 H   0  0  0  0  0  0  0  0  0  0  0  0
   -2.0803   -2.8811    1.8466 H   0  0  0  0  0  0  0  0  0  0  0  0
  1  2  2  0
  2  3  1  0
  3  4  1  0
  4  5  2  0
  5  6  1  0
  6  7  2  0
  7  8  1  0
  7  9  1  0
  9 10  2  0
  2 11  1  0
 11 12  1  0
 12 13  1  0
 13 14  2  0
 13 15  1  0
 15 16  1  0
 16 17  1  0
 17 18  1  0
 18 19  1  0
 19 20  2  0
 19 21  2  0
 19 22  1  0
 22 23  2  0
 23 24  1  0
 24 25  2  0
 25 26  1  0
 25 27  1  0
 27 28  2  0
 18 29  1  0
 29 30  1  0
 10  4  1  0
 30 15  1  0
 28 22  1  0
  3 31  1  0
  3 32  1  0
  5 33  1  0
  6 34  1  0
  9 35  1  0
 10 36  1  0
 12 37  1  0
 12 38  1  0
 16 39  1  0
 16 40  1  0
 17 41  1  0
 17 42  1  0
 23 43  1  0
 24 44  1  0
 27 45  1  0
 28 46  1  0
 29 47  1  0
 29 48  1  0
 30 49  1  0
 30 50  1  0
M  END
$$$$
