
     RDKit          3D

 47 50  0  0  0  0  0  0  0  0999 V2000
    2.3827    3.5981    0.3044 C   0  0  0  0  0  0  0  0  0  0  0  0
    2.9401    2.2946    0.2191 O   0  0  0  0  0  0  0  0  0  0  0  0
    2.1325    1.2884   -0.2508 C   0  0  0  0  0  0  0  0  0  0  0  0
    0.7814    1.4403   -0.5834 C   0  0  0  0  0  0  0  0  0  0  0  0
    0.0332    0.3476   -1.0429 C   0  0  0  0  0  0  0  0  0  0  0  0
   -1.3725    0.5437   -1.4037 C   0  0  0  0  0  0  0  0  0  0  0  0
   -2.4368   -0.0189   -0.8157 C   0  0  0  0  0  0  0  0  0  0  0  0
   -3.7265    0.2276   -1.2160 N   0  0  0  0  0  0  0  0  0  0  0  0
   -4.4273   -0.4842   -0.3921 C   0  0  0  0  0  0  0  0  0  0  0  0
   -5.8932   -0.6059   -0.3567 C   0  0  0  0  0  0  0  0  0  0  0  0
   -6.6518    0.0868   -1.3086 C   0  0  0  0  0  0  0  0  0  0  0  0
   -8.0444   -0.0117   -1.3011 C   0  0  0  0  0  0  0  0  0  0  0  0
   -8.6826   -0.8003   -0.3445 C   0  0  0  0  0  0  0  0  0  0  0  0
   -7.9315   -1.4920    0.6058 C   0  0  0  0  0  0  0  0  0  0  0  0
   -6.5380   -1.3970    0.6023 C   0  0  0  0  0  0  0  0  0  0  0  0
   -3.7618   -1.2014    0.5406 O   0  0  0  0  0  0  0  0  0  0  0  0
   -2.4352   -0.9597    0.3441 C   0  0  0  0  0  0  0  0  0  0  0  0
   -1.5157   -1.4248    0.9841 O   0  0  0  0  0  0  0  0  0  0  0  0
    0.6518   -0.8964   -1.1936 C   0  0  0  0  0  0  0  0  0  0  0  0
    1.9983   -1.0596   -0.8622 C   0  0  0  0  0  0  0  0  0  0  0  0
    2.7366    0.0236   -0.3767 C   0  0  0  0  0  0  0  0  0  0  0  0
    4.0673   -0.0576   -0.0501 O   0  0  0  0  0  0  0  0  0  0  0  0
    4.5028   -1.3054    0.4945 C   0  0  0  0  0  0  0  0  0  0  0  0
    5.7659   -1.1374    1.2243 C   0  0  0  0  0  0  0  0  0  0  0  0
    6.3814   -0.0450    1.8658 C   0  0  0  0  0  0  0  0  0  0  0  0
    5.9021    1.3532    1.9802 C   0  0  0  0  0  0  0  0  0  0  0  0
    7.5453   -0.4063    2.4177 N   0  0  0  0  0  0  0  0  0  0  0  0
    7.7020   -1.7649    2.1469 O   0  0  0  0  0  0  0  0  0  0  0  0
    6.5623   -2.1898    1.3907 N   0  0  0  0  0  4  0  0  0  0  0  0
    6.5117   -3.3967    1.0634 O   0  0  0  0  0  1  0  0  0  0  0  0
    2.0574    3.9554   -0.6778 H   0  0  0  0  0  0  0  0  0  0  0  0
    3.1669    4.2733    0.6601 H   0  0  0  0  0  0  0  0  0  0  0  0
    1.5631    3.6300    1.0295 H   0  0  0  0  0  0  0  0  0  0  0  0
    0.2853    2.4008   -0.4850 H   0  0  0  0  0  0  0  0  0  0  0  0
   -1.5405    1.2355   -2.2260 H   0  0  0  0  0  0  0  0  0  0  0  0
   -6.1655    0.7049   -2.0607 H   0  0  0  0  0  0  0  0  0  0  0  0
   -8.6311    0.5259   -2.0422 H   0  0  0  0  0  0  0  0  0  0  0  0
   -9.7675   -0.8766   -0.3400 H   0  0  0  0  0  0  0  0  0  0  0  0
   -8.4324   -2.1070    1.3500 H   0  0  0  0  0  0  0  0  0  0  0  0
   -5.9731   -1.9453    1.3522 H   0  0  0  0  0  0  0  0  0  0  0  0
    0.0926   -1.7522   -1.5665 H   0  0  0  0  0  0  0  0  0  0  0  0
    2.4466   -2.0371   -1.0073 H   0  0  0  0  0  0  0  0  0  0  0  0
    3.7527   -1.7053    1.1902 H   0  0  0  0  0  0  0  0  0  0  0  0
    4.6391   -2.0128   -0.3329 H   0  0  0  0  0  0  0  0  0  0  0  0
    4.8771    1.3792    2.3628 H   0  0  0  0  0  0  0  0  0  0  0  0
    6.5279    1.9375    2.6630 H   0  0  0  0  0  0  0  0  0  0  0  0
    5.9210    1.8448    1.0020 H   0  0  0  0  0  0  0  0  0  0  0  0
  1  2  1  0
  2  3  1  0
  3  4  2  0
  4  5  1  0
  5  6  1  0
  6  7  2  3
  7  8  1  0
  8  9  2  0
  9 10  1  0
 10 11  2  0
 11 12  1  0
 12 13  2  0
 13 14  1  0
 14 15  2  0
  9 16  1  0
 16 17  1  0
 17 18  2  0
  5 19  2  0
 19 20  1  0
 20 21  2  0
 21 22  1  0
 22 23  1  0
 23 24  1  0
 24 25  1  0
 25 26  1  0
 25 27  2  0
 27 28  1  0
 28 29  1  0
 29 30  1  0
 21  3  1  0
 29 24  2  0
 17  7  1  0
 15 10  1  0
  1 31  1  0
  1 32  1  0
  1 33  1  0
  4 34  1  0
  6 35  1  0
 11 36  1  0
 12 37  1  0
 13 38  1  0
 14 39  1  0
 15 40  1  0
 19 41  1  0
 20 42  1  0
 23 43  1  0
 23 44  1  0
 26 45  1  0
 26 46  1  0
 26 47  1  0
M  CHG  2  29   1  30  -1
M  END
$$$$
