
     RDKit          3D

 55 57  0  0  0  0  0  0  0  0999 V2000
    1.1834    0.9708    3.1741 O   0  0  0  0  0  0  0  0  0  0  0  0
    1.1848    0.7924    1.9627 C   0  0  0  0  0  0  0  0  0  0  0  0
    2.1458    1.1938    1.0541 N   0  0  0  0  0  0  0  0  0  0  0  0
    3.3696    1.8379    1.3272 C   0  0  0  0  0  0  0  0  0  0  0  0
    3.8242    2.1365    2.6124 C   0  0  0  0  0  0  0  0  0  0  0  0
    5.0564    2.7721    2.7987 C   0  0  0  0  0  0  0  0  0  0  0  0
    5.8459    3.1107    1.7026 C   0  0  0  0  0  0  0  0  0  0  0  0
    5.4030    2.8157    0.4162 C   0  0  0  0  0  0  0  0  0  0  0  0
    4.1704    2.1833    0.2300 C   0  0  0  0  0  0  0  0  0  0  0  0
    0.0183    0.1025    1.3110 C   0  0  0  0  0  0  0  0  0  0  0  0
    0.2390   -0.9281    0.4754 C   0  0  0  0  0  0  0  0  0  0  0  0
   -0.8891   -1.7188   -0.1310 C   0  0  0  0  0  0  0  0  0  0  0  0
   -0.6188   -3.2164   -0.1378 C   0  0  0  0  0  0  0  0  0  0  0  0
   -0.7217   -3.9373   -1.3364 C   0  0  0  0  0  0  0  0  0  0  0  0
   -0.4820   -5.3135   -1.3644 C   0  0  0  0  0  0  0  0  0  0  0  0
   -0.1412   -6.0025   -0.1921 C   0  0  0  0  0  0  0  0  0  0  0  0
    0.1409   -7.4841   -0.2246 C   0  0  0  0  0  0  0  0  0  0  0  0
   -0.5306   -8.1356   -1.2157 F   0  0  0  0  0  0  0  0  0  0  0  0
   -0.2002   -8.1188    0.9319 F   0  0  0  0  0  0  0  0  0  0  0  0
    1.4594   -7.7568   -0.4260 F   0  0  0  0  0  0  0  0  0  0  0  0
   -0.0334   -5.2830    1.0063 C   0  0  0  0  0  0  0  0  0  0  0  0
   -0.2755   -3.9074    1.0349 C   0  0  0  0  0  0  0  0  0  0  0  0
   -2.2160   -1.4042    0.5720 C   0  0  0  0  0  0  0  0  0  0  0  0
   -2.3101    0.0954    0.8347 C   0  0  0  0  0  0  0  0  0  0  0  0
   -2.3540    0.7842   -0.4202 O   0  0  0  0  0  0  0  0  0  0  0  0
   -2.6193    2.1773   -0.2602 C   0  0  0  0  0  0  0  0  0  0  0  0
   -2.7068    2.8014   -1.6474 C   0  0  0  0  0  0  0  0  0  0  0  0
   -3.0117    4.2979   -1.5782 C   0  0  0  0  0  0  0  0  0  0  0  0
   -3.1384    4.9162   -2.9646 C   0  0  0  0  0  0  0  0  0  0  0  0
   -1.8921    4.8342   -3.6412 O   0  0  0  0  0  0  0  0  0  0  0  0
   -1.2401    0.5419    1.6722 O   0  0  0  0  0  0  0  0  0  0  0  0
    1.9327    1.0448    0.0765 H   0  0  0  0  0  0  0  0  0  0  0  0
    3.2428    1.8887    3.4944 H   0  0  0  0  0  0  0  0  0  0  0  0
    5.3954    3.0004    3.8050 H   0  0  0  0  0  0  0  0  0  0  0  0
    6.8032    3.6027    1.8519 H   0  0  0  0  0  0  0  0  0  0  0  0
    6.0154    3.0777   -0.4423 H   0  0  0  0  0  0  0  0  0  0  0  0
    3.8483    1.9656   -0.7848 H   0  0  0  0  0  0  0  0  0  0  0  0
    1.2511   -1.2497    0.2425 H   0  0  0  0  0  0  0  0  0  0  0  0
   -0.9621   -1.3842   -1.1759 H   0  0  0  0  0  0  0  0  0  0  0  0
   -0.9901   -3.4310   -2.2622 H   0  0  0  0  0  0  0  0  0  0  0  0
   -0.5648   -5.8479   -2.3100 H   0  0  0  0  0  0  0  0  0  0  0  0
    0.2391   -5.7938    1.9292 H   0  0  0  0  0  0  0  0  0  0  0  0
   -0.1906   -3.3767    1.9828 H   0  0  0  0  0  0  0  0  0  0  0  0
   -3.0520   -1.7424   -0.0524 H   0  0  0  0  0  0  0  0  0  0  0  0
   -2.2823   -1.9358    1.5300 H   0  0  0  0  0  0  0  0  0  0  0  0
   -3.2470    0.2897    1.3706 H   0  0  0  0  0  0  0  0  0  0  0  0
   -1.8121    2.6472    0.3129 H   0  0  0  0  0  0  0  0  0  0  0  0
   -3.5653    2.3125    0.2752 H   0  0  0  0  0  0  0  0  0  0  0  0
   -1.7647    2.6235   -2.1809 H   0  0  0  0  0  0  0  0  0  0  0  0
   -3.4821    2.2851   -2.2267 H   0  0  0  0  0  0  0  0  0  0  0  0
   -3.9423    4.4628   -1.0233 H   0  0  0  0  0  0  0  0  0  0  0  0
   -2.2041    4.7990   -1.0317 H   0  0  0  0  0  0  0  0  0  0  0  0
   -3.4144    5.9713   -2.8832 H   0  0  0  0  0  0  0  0  0  0  0  0
   -3.8995    4.3979   -3.5557 H   0  0  0  0  0  0  0  0  0  0  0  0
   -2.0150    5.2349   -4.5185 H   0  0  0  0  0  0  0  0  0  0  0  0
  1  2  2  0
  2  3  1  0
  3  4  1  0
  4  5  2  0
  5  6  1  0
  6  7  2  0
  7  8  1  0
  8  9  2  0
  2 10  1  0
 10 11  2  0
 11 12  1  0
 12 13  1  0
 13 14  2  0
 14 15  1  0
 15 16  2  0
 16 17  1  0
 17 18  1  0
 17 19  1  0
 17 20  1  0
 16 21  1  0
 21 22  2  0
 12 23  1  0
 23 24  1  0
 24 25  1  0
 25 26  1  0
 26 27  1  0
 27 28  1  0
 28 29  1  0
 29 30  1  0
 24 31  1  0
  9  4  1  0
 31 10  1  0
 22 13  1  0
  3 32  1  0
  5 33  1  0
  6 34  1  0
  7 35  1  0
  8 36  1  0
  9 37  1  0
 11 38  1  0
 12 39  1  0
 14 40  1  0
 15 41  1  0
 21 42  1  0
 22 43  1  0
 23 44  1  0
 23 45  1  0
 24 46  1  0
 26 47  1  0
 26 48  1  0
 27 49  1  0
 27 50  1  0
 28 51  1  0
 28 52  1  0
 29 53  1  0
 29 54  1  0
 30 55  1  0
M  END
$$$$
