
     RDKit          3D

 53 56  0  0  0  0  0  0  0  0999 V2000
    1.1328    2.1277    0.9773 C   0  0  0  0  0  0  0  0  0  0  0  0
    0.4520    0.8646    1.4914 C   0  0  0  0  0  0  0  0  0  0  0  0
    0.2974   -0.1655    0.4446 N   0  0  0  0  0  0  0  0  0  0  0  0
    1.4466   -0.9232    0.1466 C   0  0  0  0  0  0  0  0  0  0  0  0
    2.4969   -0.7736    0.7809 O   0  0  0  0  0  0  0  0  0  0  0  0
    1.3174   -2.0178   -0.9170 C   0  0  0  0  0  0  0  0  0  0  0  0
    2.0602   -3.5700   -0.3100 S   0  0  0  0  0  0  0  0  0  0  0  0
    3.6983   -3.3011   -0.8019 C   0  0  0  0  0  0  0  0  0  0  0  0
    4.1103   -3.2088   -2.0468 N   0  0  0  0  0  0  0  0  0  0  0  0
    5.4737   -3.0080   -2.0245 N   0  0  0  0  0  0  0  0  0  0  0  0
    5.8538   -2.9779   -0.7645 C   0  0  0  0  0  0  0  0  0  0  0  0
    7.1238   -2.8050   -0.1480 C   0  0  0  0  0  0  0  0  0  0  0  0
    7.2188   -2.8229    1.1963 C   0  0  0  0  0  0  0  0  0  0  0  0
    6.0467   -3.0095    2.0395 C   0  0  0  0  0  0  0  0  0  0  0  0
    4.8445   -3.1734    1.4602 C   0  0  0  0  0  0  0  0  0  0  0  0
    4.7531   -3.1596    0.0668 N   0  0  0  0  0  0  0  0  0  0  0  0
   -0.7779   -0.0029   -0.4427 C   0  0  0  0  0  0  0  0  0  0  0  0
   -2.0752   -0.0878   -0.0508 C   0  0  0  0  0  0  0  0  0  0  0  0
   -2.3857   -0.5001    1.2451 N   0  0  0  0  0  0  0  0  0  0  0  0
   -3.0922    0.2002   -0.9607 N   0  0  0  0  0  0  0  0  0  0  0  0
   -4.4690    0.4280   -0.5044 C   0  0  0  0  0  0  0  0  0  0  0  0
   -4.7065    1.8596   -0.0694 C   0  0  0  0  0  0  0  0  0  0  0  0
   -4.4557    2.2609    1.2511 C   0  0  0  0  0  0  0  0  0  0  0  0
   -4.6598    3.5857    1.6425 C   0  0  0  0  0  0  0  0  0  0  0  0
   -5.1131    4.5247    0.7182 C   0  0  0  0  0  0  0  0  0  0  0  0
   -5.3603    4.1410   -0.5982 C   0  0  0  0  0  0  0  0  0  0  0  0
   -5.1564    2.8170   -0.9910 C   0  0  0  0  0  0  0  0  0  0  0  0
   -2.8472    0.4441   -2.3072 C   0  0  0  0  0  0  0  0  0  0  0  0
   -3.7078    0.7433   -3.1325 O   0  0  0  0  0  0  0  0  0  0  0  0
   -1.5511    0.3416   -2.7105 N   0  0  0  0  0  0  0  0  0  0  0  0
   -0.4892    0.3469   -1.8660 C   0  0  0  0  0  0  0  0  0  0  0  0
    0.6417    0.6175   -2.2567 O   0  0  0  0  0  0  0  0  0  0  0  0
    0.5376    2.6036    0.1915 H   0  0  0  0  0  0  0  0  0  0  0  0
    2.1221    1.9121    0.5628 H   0  0  0  0  0  0  0  0  0  0  0  0
    1.2549    2.8472    1.7926 H   0  0  0  0  0  0  0  0  0  0  0  0
   -0.5208    1.1308    1.9158 H   0  0  0  0  0  0  0  0  0  0  0  0
    1.0439    0.4425    2.3123 H   0  0  0  0  0  0  0  0  0  0  0  0
    1.7905   -1.6869   -1.8451 H   0  0  0  0  0  0  0  0  0  0  0  0
    0.2701   -2.2512   -1.1201 H   0  0  0  0  0  0  0  0  0  0  0  0
    7.9930   -2.6608   -0.7796 H   0  0  0  0  0  0  0  0  0  0  0  0
    8.1796   -2.6895    1.6853 H   0  0  0  0  0  0  0  0  0  0  0  0
    6.1673   -3.0023    3.1175 H   0  0  0  0  0  0  0  0  0  0  0  0
    3.9307   -3.3037    2.0255 H   0  0  0  0  0  0  0  0  0  0  0  0
   -1.5766   -0.9137    1.7085 H   0  0  0  0  0  0  0  0  0  0  0  0
   -3.1561   -1.1628    1.2525 H   0  0  0  0  0  0  0  0  0  0  0  0
   -5.1680    0.1819   -1.3142 H   0  0  0  0  0  0  0  0  0  0  0  0
   -4.7346   -0.2623    0.3035 H   0  0  0  0  0  0  0  0  0  0  0  0
   -4.0939    1.5440    1.9849 H   0  0  0  0  0  0  0  0  0  0  0  0
   -4.4623    3.8857    2.6685 H   0  0  0  0  0  0  0  0  0  0  0  0
   -5.2710    5.5562    1.0227 H   0  0  0  0  0  0  0  0  0  0  0  0
   -5.7102    4.8720   -1.3224 H   0  0  0  0  0  0  0  0  0  0  0  0
   -5.3476    2.5370   -2.0261 H   0  0  0  0  0  0  0  0  0  0  0  0
   -1.3695    0.6248   -3.6622 H   0  0  0  0  0  0  0  0  0  0  0  0
  1  2  1  0
  2  3  1  0
  3  4  1  0
  4  5  2  0
  4  6  1  0
  6  7  1  0
  7  8  1  0
  8  9  2  0
  9 10  1  0
 10 11  2  0
 11 12  1  0
 12 13  2  0
 13 14  1  0
 14 15  2  0
 15 16  1  0
  3 17  1  0
 17 18  2  0
 18 19  1  0
 18 20  1  0
 20 21  1  0
 21 22  1  0
 22 23  2  0
 23 24  1  0
 24 25  2  0
 25 26  1  0
 26 27  2  0
 20 28  1  0
 28 29  2  0
 28 30  1  0
 30 31  1  0
 31 32  2  0
 16  8  1  0
 31 17  1  0
 16 11  1  0
 27 22  1  0
  1 33  1  0
  1 34  1  0
  1 35  1  0
  2 36  1  0
  2 37  1  0
  6 38  1  0
  6 39  1  0
 12 40  1  0
 13 41  1  0
 14 42  1  0
 15 43  1  0
 19 44  1  0
 19 45  1  0
 21 46  1  0
 21 47  1  0
 23 48  1  0
 24 49  1  0
 25 50  1  0
 26 51  1  0
 27 52  1  0
 30 53  1  0
M  END
$$$$
