
     RDKit          3D

 39 41  0  0  0  0  0  0  0  0999 V2000
   -2.2383   -2.5625    0.8723 F   0  0  0  0  0  0  0  0  0  0  0  0
   -3.1614   -1.7394    0.3539 C   0  0  0  0  0  0  0  0  0  0  0  0
   -4.2351   -2.2938   -0.3384 C   0  0  0  0  0  0  0  0  0  0  0  0
   -5.2100   -1.4608   -0.8842 C   0  0  0  0  0  0  0  0  0  0  0  0
   -5.1051   -0.0783   -0.7325 C   0  0  0  0  0  0  0  0  0  0  0  0
   -4.0256    0.4712   -0.0361 C   0  0  0  0  0  0  0  0  0  0  0  0
   -3.0336   -0.3570    0.5119 C   0  0  0  0  0  0  0  0  0  0  0  0
   -1.8726    0.2256    1.2833 C   0  0  0  0  0  0  0  0  0  0  0  0
   -1.1200    1.2421    0.5263 N   0  0  0  0  0  0  0  0  0  0  0  0
   -0.1451    1.9470    1.3911 C   0  0  0  0  0  0  0  0  0  0  0  0
    1.2779    1.3412    1.4199 C   0  0  0  0  0  0  0  0  0  0  0  0
    1.8611    1.2368    0.0588 N   0  0  0  0  0  0  0  0  0  0  0  0
    2.9339    0.3433   -0.0265 C   0  0  0  0  0  0  0  0  0  0  0  0
    4.0641    0.5420    0.7876 C   0  0  0  0  0  0  0  0  0  0  0  0
    5.1661   -0.3192    0.7448 C   0  0  0  0  0  0  0  0  0  0  0  0
    5.1554   -1.4045   -0.1216 C   0  0  0  0  0  0  0  0  0  0  0  0
    6.5034   -2.4705   -0.1809 Cl  0  0  0  0  0  0  0  0  0  0  0  0
    4.0555   -1.6294   -0.9410 C   0  0  0  0  0  0  0  0  0  0  0  0
    2.9578   -0.7599   -0.8924 C   0  0  0  0  0  0  0  0  0  0  0  0
    0.8761    1.3368   -1.0380 C   0  0  0  0  0  0  0  0  0  0  0  0
   -0.4445    0.6376   -0.6527 C   0  0  0  0  0  0  0  0  0  0  0  0
   -4.3041   -3.3715   -0.4458 H   0  0  0  0  0  0  0  0  0  0  0  0
   -6.0504   -1.8873   -1.4258 H   0  0  0  0  0  0  0  0  0  0  0  0
   -5.8640    0.5748   -1.1566 H   0  0  0  0  0  0  0  0  0  0  0  0
   -3.9510    1.5516    0.0743 H   0  0  0  0  0  0  0  0  0  0  0  0
   -1.1990   -0.5653    1.6374 H   0  0  0  0  0  0  0  0  0  0  0  0
   -2.3058    0.6829    2.1831 H   0  0  0  0  0  0  0  0  0  0  0  0
   -0.5242    2.0440    2.4159 H   0  0  0  0  0  0  0  0  0  0  0  0
   -0.0698    2.9765    1.0161 H   0  0  0  0  0  0  0  0  0  0  0  0
    1.9131    1.9806    2.0437 H   0  0  0  0  0  0  0  0  0  0  0  0
    1.2256    0.3505    1.8912 H   0  0  0  0  0  0  0  0  0  0  0  0
    4.1059    1.4008    1.4534 H   0  0  0  0  0  0  0  0  0  0  0  0
    6.0235   -0.1285    1.3835 H   0  0  0  0  0  0  0  0  0  0  0  0
    4.0375   -2.4787   -1.6183 H   0  0  0  0  0  0  0  0  0  0  0  0
    2.1118   -0.9891   -1.5326 H   0  0  0  0  0  0  0  0  0  0  0  0
    1.2586    0.9481   -1.9880 H   0  0  0  0  0  0  0  0  0  0  0  0
    0.6815    2.4011   -1.2252 H   0  0  0  0  0  0  0  0  0  0  0  0
   -1.1305    0.6831   -1.5061 H   0  0  0  0  0  0  0  0  0  0  0  0
   -0.2189   -0.4217   -0.4709 H   0  0  0  0  0  0  0  0  0  0  0  0
  1  2  1  0
  2  3  2  0
  3  4  1  0
  4  5  2  0
  5  6  1  0
  6  7  2  0
  7  8  1  0
  8  9  1  0
  9 10  1  0
 10 11  1  0
 11 12  1  0
 12 13  1  0
 13 14  2  0
 14 15  1  0
 15 16  2  0
 16 17  1  0
 16 18  1  0
 18 19  2  0
 12 20  1  0
 20 21  1  0
  7  2  1  0
 21  9  1  0
 19 13  1  0
  3 22  1  0
  4 23  1  0
  5 24  1  0
  6 25  1  0
  8 26  1  0
  8 27  1  0
 10 28  1  0
 10 29  1  0
 11 30  1  0
 11 31  1  0
 14 32  1  0
 15 33  1  0
 18 34  1  0
 19 35  1  0
 20 36  1  0
 20 37  1  0
 21 38  1  0
 21 39  1  0
M  END
$$$$
