
     RDKit          3D

 61 65  0  0  0  0  0  0  0  0999 V2000
    3.2158   -0.0207    2.2883 C   0  0  0  0  0  0  0  0  0  0  0  0
    2.6610   -0.6760    1.0777 C   0  0  0  0  0  0  0  0  0  0  0  0
    1.8387   -1.7887    1.0090 C   0  0  0  0  0  0  0  0  0  0  0  0
    1.2317   -2.6119    2.1133 C   0  0  0  0  0  0  0  0  0  0  0  0
    0.1933   -1.8367    2.9338 C   0  0  0  0  0  0  0  0  0  0  0  0
   -0.9943   -1.5638    2.1697 O   0  0  0  0  0  0  0  0  0  0  0  0
   -1.0587   -0.3583    1.5357 C   0  0  0  0  0  0  0  0  0  0  0  0
   -0.1398    0.4539    1.5055 O   0  0  0  0  0  0  0  0  0  0  0  0
   -2.4099   -0.1702    0.8500 C   0  0  0  0  0  0  0  0  0  0  0  0
   -3.5435   -0.1639    1.8988 C   0  0  0  0  0  0  0  0  0  0  0  0
   -4.9057    0.0290    1.2122 C   0  0  0  0  0  0  0  0  0  0  0  0
   -5.1345   -1.1130    0.2085 C   0  0  0  0  0  0  0  0  0  0  0  0
   -4.0251   -1.1118   -0.8558 C   0  0  0  0  0  0  0  0  0  0  0  0
   -4.0345    0.2342   -1.5982 C   0  0  0  0  0  0  0  0  0  0  0  0
   -3.7980    1.3970   -0.6077 C   0  0  0  0  0  0  0  0  0  0  0  0
   -3.8066    2.7358   -1.3510 C   0  0  0  0  0  0  0  0  0  0  0  0
   -4.9119    1.3719    0.4637 C   0  0  0  0  0  0  0  0  0  0  0  0
   -2.4363    1.1803    0.0914 C   0  0  0  0  0  0  0  0  0  0  0  0
   -2.6633   -1.3040   -0.1686 C   0  0  0  0  0  0  0  0  0  0  0  0
    1.4946   -2.1635   -0.6337 S   0  0  0  0  0  0  0  0  0  0  0  0
    2.3525   -0.7959   -1.1851 C   0  0  0  0  0  0  0  0  0  0  0  0
    2.9005   -0.1310   -0.1806 N   0  0  0  0  0  4  0  0  0  0  0  0
    3.6302    1.1196   -0.4312 C   0  0  0  0  0  0  0  0  0  0  0  0
    4.8755    0.8435   -1.2408 C   0  0  0  0  0  0  0  0  0  0  0  0
    5.8937    0.0166   -0.7396 C   0  0  0  0  0  0  0  0  0  0  0  0
    7.0361   -0.2374   -1.4999 C   0  0  0  0  0  0  0  0  0  0  0  0
    7.1769    0.3334   -2.7625 C   0  0  0  0  0  0  0  0  0  0  0  0
    6.1789    1.1629   -3.2673 C   0  0  0  0  0  0  0  0  0  0  0  0
    5.0343    1.4202   -2.5119 C   0  0  0  0  0  0  0  0  0  0  0  0
    2.7347    0.9477    2.4572 H   0  0  0  0  0  0  0  0  0  0  0  0
    3.0566   -0.6319    3.1822 H   0  0  0  0  0  0  0  0  0  0  0  0
    4.2956    0.1278    2.1954 H   0  0  0  0  0  0  0  0  0  0  0  0
    0.7601   -3.5115    1.6992 H   0  0  0  0  0  0  0  0  0  0  0  0
    2.0363   -2.9486    2.7782 H   0  0  0  0  0  0  0  0  0  0  0  0
    0.6033   -0.9171    3.3666 H   0  0  0  0  0  0  0  0  0  0  0  0
   -0.1239   -2.4604    3.7769 H   0  0  0  0  0  0  0  0  0  0  0  0
   -3.3762    0.6347    2.6334 H   0  0  0  0  0  0  0  0  0  0  0  0
   -3.5515   -1.1037    2.4656 H   0  0  0  0  0  0  0  0  0  0  0  0
   -5.7018    0.0231    1.9652 H   0  0  0  0  0  0  0  0  0  0  0  0
   -5.1485   -2.0759    0.7338 H   0  0  0  0  0  0  0  0  0  0  0  0
   -6.1139   -0.9985   -0.2719 H   0  0  0  0  0  0  0  0  0  0  0  0
   -4.1964   -1.9267   -1.5681 H   0  0  0  0  0  0  0  0  0  0  0  0
   -4.9948    0.3637   -2.1138 H   0  0  0  0  0  0  0  0  0  0  0  0
   -3.2582    0.2327   -2.3743 H   0  0  0  0  0  0  0  0  0  0  0  0
   -4.7657    2.9019   -1.8545 H   0  0  0  0  0  0  0  0  0  0  0  0
   -3.6420    3.5720   -0.6619 H   0  0  0  0  0  0  0  0  0  0  0  0
   -3.0188    2.7704   -2.1117 H   0  0  0  0  0  0  0  0  0  0  0  0
   -5.8921    1.5284   -0.0048 H   0  0  0  0  0  0  0  0  0  0  0  0
   -4.7699    2.1925    1.1789 H   0  0  0  0  0  0  0  0  0  0  0  0
   -2.2387    2.0059    0.7888 H   0  0  0  0  0  0  0  0  0  0  0  0
   -1.6262    1.2089   -0.6506 H   0  0  0  0  0  0  0  0  0  0  0  0
   -1.8639   -1.3250   -0.9201 H   0  0  0  0  0  0  0  0  0  0  0  0
   -2.6436   -2.2830    0.3272 H   0  0  0  0  0  0  0  0  0  0  0  0
    2.4313   -0.5218   -2.2305 H   0  0  0  0  0  0  0  0  0  0  0  0
    3.9087    1.6274    0.4959 H   0  0  0  0  0  0  0  0  0  0  0  0
    2.9536    1.7992   -0.9656 H   0  0  0  0  0  0  0  0  0  0  0  0
    5.8208   -0.4398    0.2454 H   0  0  0  0  0  0  0  0  0  0  0  0
    7.8247   -0.8777   -1.1089 H   0  0  0  0  0  0  0  0  0  0  0  0
    8.0707    0.1378   -3.3519 H   0  0  0  0  0  0  0  0  0  0  0  0
    6.3001    1.6141   -4.2511 H   0  0  0  0  0  0  0  0  0  0  0  0
    4.2782    2.0813   -2.9329 H   0  0  0  0  0  0  0  0  0  0  0  0
  1  2  1  0
  2  3  2  0
  3  4  1  0
  4  5  1  0
  5  6  1  0
  6  7  1  0
  7  8  2  0
  7  9  1  0
  9 10  1  0
 10 11  1  0
 11 12  1  0
 12 13  1  0
 13 14  1  0
 14 15  1  0
 15 16  1  0
 15 17  1  0
 15 18  1  0
 13 19  1  0
  3 20  1  0
 20 21  1  0
 21 22  2  0
 22 23  1  0
 23 24  1  0
 24 25  2  0
 25 26  1  0
 26 27  2  0
 27 28  1  0
 28 29  2  0
 22  2  1  0
 29 24  1  0
 18  9  1  0
 19  9  1  0
 17 11  1  0
  1 30  1  0
  1 31  1  0
  1 32  1  0
  4 33  1  0
  4 34  1  0
  5 35  1  0
  5 36  1  0
 10 37  1  0
 10 38  1  0
 11 39  1  0
 12 40  1  0
 12 41  1  0
 13 42  1  0
 14 43  1  0
 14 44  1  0
 16 45  1  0
 16 46  1  0
 16 47  1  0
 17 48  1  0
 17 49  1  0
 18 50  1  0
 18 51  1  0
 19 52  1  0
 19 53  1  0
 21 54  1  0
 23 55  1  0
 23 56  1  0
 25 57  1  0
 26 58  1  0
 27 59  1  0
 28 60  1  0
 29 61  1  0
M  CHG  1  22   1
M  END
$$$$
