
     RDKit          3D

 52 56  0  0  0  0  0  0  0  0999 V2000
   -6.2098    3.1344    0.8168 C   0  0  0  0  0  0  0  0  0  0  0  0
   -5.1043    2.2648    0.2961 C   0  0  0  0  0  0  0  0  0  0  0  0
   -4.4628    2.5758   -0.9067 C   0  0  0  0  0  0  0  0  0  0  0  0
   -3.4095    1.7834   -1.3721 C   0  0  0  0  0  0  0  0  0  0  0  0
   -2.9763    0.6654   -0.6483 C   0  0  0  0  0  0  0  0  0  0  0  0
   -1.8895   -0.0912   -1.1689 N   0  0  0  0  0  0  0  0  0  0  0  0
   -1.5857   -1.3667   -0.7757 C   0  0  0  0  0  0  0  0  0  0  0  0
   -0.4109   -1.9405   -0.3145 C   0  0  0  0  0  0  0  0  0  0  0  0
    0.8618   -1.2694   -0.1347 C   0  0  0  0  0  0  0  0  0  0  0  0
    1.5634   -1.4254    1.0598 C   0  0  0  0  0  0  0  0  0  0  0  0
    2.7931   -0.7796    1.2532 C   0  0  0  0  0  0  0  0  0  0  0  0
    3.3754    0.0270    0.2629 C   0  0  0  0  0  0  0  0  0  0  0  0
    4.5856    0.6686    0.4562 N   0  0  0  0  0  0  0  0  0  0  0  0
    5.1795    0.8345    1.7919 C   0  0  0  0  0  0  0  0  0  0  0  0
    6.1800    2.0028    1.7778 C   0  0  0  0  0  0  0  0  0  0  0  0
    7.2599    1.8407    0.8471 O   0  0  0  0  0  0  0  0  0  0  0  0
    6.9230    1.0078   -0.2708 C   0  0  0  0  0  0  0  0  0  0  0  0
    5.4397    1.0698   -0.6744 C   0  0  0  0  0  0  0  0  0  0  0  0
    2.6576    0.1531   -0.9377 C   0  0  0  0  0  0  0  0  0  0  0  0
    1.4253   -0.4854   -1.1415 C   0  0  0  0  0  0  0  0  0  0  0  0
   -0.6019   -3.2535    0.0417 N   0  0  0  0  0  0  0  0  0  0  0  0
   -1.8459   -3.5395   -0.2781 C   0  0  0  0  0  0  0  0  0  0  0  0
   -2.5017   -4.7321   -0.1483 N   0  0  0  0  0  0  0  0  0  0  0  0
   -3.7142   -4.7709   -0.6069 C   0  0  0  0  0  0  0  0  0  0  0  0
   -4.4555   -3.6530   -1.2507 C   0  0  0  0  0  0  0  0  0  0  0  0
   -3.7804   -2.4993   -1.3289 C   0  0  0  0  0  0  0  0  0  0  0  0
   -2.4815   -2.4246   -0.8298 N   0  0  0  0  0  0  0  0  0  0  0  0
   -3.6019    0.3757    0.5699 C   0  0  0  0  0  0  0  0  0  0  0  0
   -4.6552    1.1678    1.0383 C   0  0  0  0  0  0  0  0  0  0  0  0
   -5.7959    3.9327    1.4404 H   0  0  0  0  0  0  0  0  0  0  0  0
   -6.7736    3.5846   -0.0070 H   0  0  0  0  0  0  0  0  0  0  0  0
   -6.9182    2.5498    1.4133 H   0  0  0  0  0  0  0  0  0  0  0  0
   -4.7774    3.4377   -1.4909 H   0  0  0  0  0  0  0  0  0  0  0  0
   -2.9326    2.0385   -2.3154 H   0  0  0  0  0  0  0  0  0  0  0  0
   -1.0923    0.5476   -1.2145 H   0  0  0  0  0  0  0  0  0  0  0  0
    1.1604   -2.0563    1.8497 H   0  0  0  0  0  0  0  0  0  0  0  0
    3.2992   -0.9502    2.1990 H   0  0  0  0  0  0  0  0  0  0  0  0
    4.4102    1.0583    2.5399 H   0  0  0  0  0  0  0  0  0  0  0  0
    5.6921   -0.0922    2.0758 H   0  0  0  0  0  0  0  0  0  0  0  0
    5.6656    2.9373    1.5237 H   0  0  0  0  0  0  0  0  0  0  0  0
    6.6202    2.1333    2.7715 H   0  0  0  0  0  0  0  0  0  0  0  0
    7.5536    1.3160   -1.1110 H   0  0  0  0  0  0  0  0  0  0  0  0
    7.2035   -0.0207   -0.0140 H   0  0  0  0  0  0  0  0  0  0  0  0
    5.1760    2.0924   -0.9680 H   0  0  0  0  0  0  0  0  0  0  0  0
    5.3014    0.4083   -1.5372 H   0  0  0  0  0  0  0  0  0  0  0  0
    3.0404    0.7717   -1.7448 H   0  0  0  0  0  0  0  0  0  0  0  0
    0.9285   -0.3741   -2.1018 H   0  0  0  0  0  0  0  0  0  0  0  0
   -4.2788   -5.7148   -0.5250 H   0  0  0  0  0  0  0  0  0  0  0  0
   -5.4619   -3.8050   -1.6113 H   0  0  0  0  0  0  0  0  0  0  0  0
   -4.1964   -1.6049   -1.7741 H   0  0  0  0  0  0  0  0  0  0  0  0
   -3.2654   -0.4548    1.1850 H   0  0  0  0  0  0  0  0  0  0  0  0
   -5.1160    0.9245    1.9932 H   0  0  0  0  0  0  0  0  0  0  0  0
  1  2  1  0
  2  3  2  0
  3  4  1  0
  4  5  2  0
  5  6  1  0
  6  7  1  0
  7  8  2  0
  8  9  1  0
  9 10  2  0
 10 11  1  0
 11 12  2  0
 12 13  1  0
 13 14  1  0
 14 15  1  0
 15 16  1  0
 16 17  1  0
 17 18  1  0
 12 19  1  0
 19 20  2  0
  8 21  1  0
 21 22  2  0
 22 23  1  0
 23 24  2  0
 24 25  1  0
 25 26  2  0
 26 27  1  0
  5 28  1  0
 28 29  2  0
 29  2  1  0
 27  7  1  0
 20  9  1  0
 27 22  1  0
 18 13  1  0
  1 30  1  0
  1 31  1  0
  1 32  1  0
  3 33  1  0
  4 34  1  0
  6 35  1  0
 10 36  1  0
 11 37  1  0
 14 38  1  0
 14 39  1  0
 15 40  1  0
 15 41  1  0
 17 42  1  0
 17 43  1  0
 18 44  1  0
 18 45  1  0
 19 46  1  0
 20 47  1  0
 24 48  1  0
 25 49  1  0
 26 50  1  0
 28 51  1  0
 29 52  1  0
M  END
$$$$
