
     RDKit          3D

 58 61  0  0  0  0  0  0  0  0999 V2000
    2.7206   -1.4182   -0.6426 O   0  0  0  0  0  0  0  0  0  0  0  0
    2.4523   -0.3497   -0.1056 C   0  0  0  0  0  0  0  0  0  0  0  0
    3.4031    0.6201    0.1395 N   0  0  0  0  0  0  0  0  0  0  0  0
    4.8018    0.4079   -0.1850 C   0  0  0  0  0  0  0  0  0  0  0  0
    5.5173   -0.4298    0.8774 C   0  0  0  0  0  0  0  0  0  0  0  0
    6.9738   -0.6355    0.5427 C   0  0  0  0  0  0  0  0  0  0  0  0
    7.9508    0.2421    1.0327 C   0  0  0  0  0  0  0  0  0  0  0  0
    9.2956    0.0547    0.7053 C   0  0  0  0  0  0  0  0  0  0  0  0
    9.6678   -1.0080   -0.1149 C   0  0  0  0  0  0  0  0  0  0  0  0
   11.3248   -1.2370   -0.5182 Cl  0  0  0  0  0  0  0  0  0  0  0  0
    8.7068   -1.8844   -0.6124 C   0  0  0  0  0  0  0  0  0  0  0  0
    7.3621   -1.6971   -0.2860 C   0  0  0  0  0  0  0  0  0  0  0  0
    1.0469    0.0351    0.3625 C   0  0  0  0  0  0  0  0  0  0  0  0
    0.0961   -1.1745    0.3259 C   0  0  0  0  0  0  0  0  0  0  0  0
   -1.3610   -0.7297    0.2992 C   0  0  0  0  0  0  0  0  0  0  0  0
   -1.6924    0.0530   -0.9877 C   0  0  0  0  0  0  0  0  0  0  0  0
   -2.8797    1.0100   -0.7618 C   0  0  0  0  0  0  0  0  0  0  0  0
   -4.0738    0.2603   -0.4009 N   0  0  0  0  0  0  0  0  0  0  0  0
   -5.2932    0.7882    0.0019 C   0  0  0  0  0  0  0  0  0  0  0  0
   -5.3594    2.1051    0.3740 N   0  0  0  0  0  0  0  0  0  0  0  0
   -6.4829    2.7676    0.7912 C   0  0  0  0  0  0  0  0  0  0  0  0
   -6.3232    4.3846    1.2074 S   0  0  0  0  0  0  0  0  0  0  0  0
   -7.6645    2.0853    0.8417 N   0  0  0  0  0  0  0  0  0  0  0  0
   -7.6459    0.8351    0.5078 C   0  0  0  0  0  0  0  0  0  0  0  0
   -8.9242    0.0700    0.5560 C   0  0  0  0  0  0  0  0  0  0  0  0
   -8.9610   -1.2279    0.2279 C   0  0  0  0  0  0  0  0  0  0  0  0
   -7.7786   -1.9512   -0.1698 C   0  0  0  0  0  0  0  0  0  0  0  0
   -6.5844   -1.3467   -0.2488 C   0  0  0  0  0  0  0  0  0  0  0  0
   -6.4351    0.0657    0.0620 C   0  0  0  0  0  0  0  0  0  0  0  0
   -0.4662    0.8088   -1.5361 C   0  0  0  0  0  0  0  0  0  0  0  0
    0.4995    1.2372   -0.4332 C   0  0  0  0  0  0  0  0  0  0  0  0
    3.1571    1.4168    0.7114 H   0  0  0  0  0  0  0  0  0  0  0  0
    5.2629    1.3981   -0.2745 H   0  0  0  0  0  0  0  0  0  0  0  0
    4.8636   -0.0781   -1.1661 H   0  0  0  0  0  0  0  0  0  0  0  0
    5.0292   -1.4064    0.9924 H   0  0  0  0  0  0  0  0  0  0  0  0
    5.4291    0.0566    1.8579 H   0  0  0  0  0  0  0  0  0  0  0  0
    7.6724    1.0752    1.6727 H   0  0  0  0  0  0  0  0  0  0  0  0
   10.0454    0.7388    1.0912 H   0  0  0  0  0  0  0  0  0  0  0  0
    8.9952   -2.7133   -1.2529 H   0  0  0  0  0  0  0  0  0  0  0  0
    6.6164   -2.3853   -0.6822 H   0  0  0  0  0  0  0  0  0  0  0  0
    1.1506    0.3490    1.4109 H   0  0  0  0  0  0  0  0  0  0  0  0
    0.2871   -1.8099   -0.5494 H   0  0  0  0  0  0  0  0  0  0  0  0
    0.2791   -1.8042    1.2058 H   0  0  0  0  0  0  0  0  0  0  0  0
   -1.5612   -0.1169    1.1876 H   0  0  0  0  0  0  0  0  0  0  0  0
   -2.0148   -1.6070    0.3723 H   0  0  0  0  0  0  0  0  0  0  0  0
   -1.9897   -0.6719   -1.7586 H   0  0  0  0  0  0  0  0  0  0  0  0
   -3.0818    1.5771   -1.6779 H   0  0  0  0  0  0  0  0  0  0  0  0
   -2.6235    1.7268    0.0271 H   0  0  0  0  0  0  0  0  0  0  0  0
   -4.1619   -0.6198   -0.8996 H   0  0  0  0  0  0  0  0  0  0  0  0
   -4.5152    2.6555    0.3671 H   0  0  0  0  0  0  0  0  0  0  0  0
   -9.8096    0.6145    0.8626 H   0  0  0  0  0  0  0  0  0  0  0  0
   -9.8988   -1.7739    0.2636 H   0  0  0  0  0  0  0  0  0  0  0  0
   -7.8821   -3.0091   -0.3941 H   0  0  0  0  0  0  0  0  0  0  0  0
   -5.7165   -1.9296   -0.5330 H   0  0  0  0  0  0  0  0  0  0  0  0
   -0.7767    1.6829   -2.1206 H   0  0  0  0  0  0  0  0  0  0  0  0
    0.0723    0.1541   -2.2343 H   0  0  0  0  0  0  0  0  0  0  0  0
    1.3068    1.8300   -0.8789 H   0  0  0  0  0  0  0  0  0  0  0  0
   -0.0292    1.9088    0.2560 H   0  0  0  0  0  0  0  0  0  0  0  0
  1  2  2  0
  2  3  1  0
  3  4  1  0
  4  5  1  0
  5  6  1  0
  6  7  2  0
  7  8  1  0
  8  9  2  0
  9 10  1  0
  9 11  1  0
 11 12  2  0
  2 13  1  0
 13 14  1  0
 14 15  1  0
 15 16  1  0
 16 17  1  0
 17 18  1  0
 18 19  1  0
 19 20  1  0
 20 21  1  0
 21 22  2  0
 21 23  1  0
 23 24  2  0
 24 25  1  0
 25 26  2  0
 26 27  1  0
 27 28  2  0
 28 29  1  0
 16 30  1  0
 30 31  1  0
 12  6  1  0
 31 13  1  0
 29 19  2  0
 29 24  1  0
  3 32  1  0
  4 33  1  0
  4 34  1  0
  5 35  1  0
  5 36  1  0
  7 37  1  0
  8 38  1  0
 11 39  1  0
 12 40  1  0
 13 41  1  0
 14 42  1  0
 14 43  1  0
 15 44  1  0
 15 45  1  0
 16 46  1  0
 17 47  1  0
 17 48  1  0
 18 49  1  0
 20 50  1  0
 25 51  1  0
 26 52  1  0
 27 53  1  0
 28 54  1  0
 30 55  1  0
 30 56  1  0
 31 57  1  0
 31 58  1  0
M  END
$$$$
