
     RDKit          3D

 55 57  0  0  0  0  0  0  0  0999 V2000
   -0.4223   -3.8814   -2.0724 C   0  0  0  0  0  0  0  0  0  0  0  0
   -0.1351   -2.4137   -1.8249 C   0  0  0  0  0  0  0  0  0  0  0  0
   -0.7453   -2.0414   -0.5922 O   0  0  0  0  0  0  0  0  0  0  0  0
   -0.5364   -0.6643   -0.2689 C   0  0  0  0  0  0  0  0  0  0  0  0
    0.8387   -0.5082    0.1100 O   0  0  0  0  0  0  0  0  0  0  0  0
    1.1677    0.6375    0.8022 C   0  0  0  0  0  0  0  0  0  0  0  0
    2.6361    0.9569    0.9626 C   0  0  0  0  0  0  0  0  0  0  0  0
    3.0100    1.9960    1.4912 O   0  0  0  0  0  0  0  0  0  0  0  0
    3.4225   -0.0528    0.4461 N   0  0  0  0  0  0  0  0  0  0  0  0
    4.8268   -0.1212    0.3977 C   0  0  0  0  0  0  0  0  0  0  0  0
    5.3920   -1.2722   -0.1668 C   0  0  0  0  0  0  0  0  0  0  0  0
    6.7792   -1.4166   -0.2540 C   0  0  0  0  0  0  0  0  0  0  0  0
    7.6143   -0.4101    0.2228 C   0  0  0  0  0  0  0  0  0  0  0  0
    7.0613    0.7378    0.7855 C   0  0  0  0  0  0  0  0  0  0  0  0
    5.6727    0.8822    0.8728 C   0  0  0  0  0  0  0  0  0  0  0  0
    0.2632    1.4663    1.3438 C   0  0  0  0  0  0  0  0  0  0  0  0
   -1.2141    1.2084    1.2886 C   0  0  0  0  0  0  0  0  0  0  0  0
   -1.9358    2.2803    0.4740 C   0  0  0  0  0  0  0  0  0  0  0  0
   -3.0892    2.8874    1.0032 C   0  0  0  0  0  0  0  0  0  0  0  0
   -3.7866    3.8591    0.2810 C   0  0  0  0  0  0  0  0  0  0  0  0
   -3.3347    4.2388   -0.9790 C   0  0  0  0  0  0  0  0  0  0  0  0
   -4.2760    5.5525   -1.9585 Br  0  0  0  0  0  0  0  0  0  0  0  0
   -2.1911    3.6589   -1.5201 C   0  0  0  0  0  0  0  0  0  0  0  0
   -1.4948    2.6862   -0.7967 C   0  0  0  0  0  0  0  0  0  0  0  0
   -1.5004   -0.2616    0.8648 C   0  0  0  0  0  0  0  0  0  0  0  0
   -3.0026   -0.5002    0.5702 C   0  0  0  0  0  0  0  0  0  0  0  0
   -3.4359   -1.9714    0.5253 C   0  0  0  0  0  0  0  0  0  0  0  0
   -4.9531   -2.1342    0.5874 C   0  0  0  0  0  0  0  0  0  0  0  0
   -5.5767   -1.5497   -0.5473 O   0  0  0  0  0  0  0  0  0  0  0  0
   -0.0276   -4.4945   -1.2555 H   0  0  0  0  0  0  0  0  0  0  0  0
    0.0268   -4.2139   -3.0125 H   0  0  0  0  0  0  0  0  0  0  0  0
   -1.5016   -4.0615   -2.1130 H   0  0  0  0  0  0  0  0  0  0  0  0
    0.9470   -2.2524   -1.7747 H   0  0  0  0  0  0  0  0  0  0  0  0
   -0.5513   -1.8132   -2.6411 H   0  0  0  0  0  0  0  0  0  0  0  0
   -0.7305   -0.0612   -1.1636 H   0  0  0  0  0  0  0  0  0  0  0  0
    2.9111   -0.8435    0.0691 H   0  0  0  0  0  0  0  0  0  0  0  0
    4.7617   -2.0727   -0.5447 H   0  0  0  0  0  0  0  0  0  0  0  0
    7.2061   -2.3145   -0.6929 H   0  0  0  0  0  0  0  0  0  0  0  0
    8.6937   -0.5185    0.1574 H   0  0  0  0  0  0  0  0  0  0  0  0
    7.7083    1.5271    1.1599 H   0  0  0  0  0  0  0  0  0  0  0  0
    5.2837    1.7925    1.3179 H   0  0  0  0  0  0  0  0  0  0  0  0
    0.5890    2.3600    1.8744 H   0  0  0  0  0  0  0  0  0  0  0  0
   -1.5683    1.3015    2.3261 H   0  0  0  0  0  0  0  0  0  0  0  0
   -3.4570    2.6071    1.9888 H   0  0  0  0  0  0  0  0  0  0  0  0
   -4.6750    4.3136    0.7116 H   0  0  0  0  0  0  0  0  0  0  0  0
   -1.8280    3.9602   -2.4995 H   0  0  0  0  0  0  0  0  0  0  0  0
   -0.5942    2.2663   -1.2383 H   0  0  0  0  0  0  0  0  0  0  0  0
   -1.2445   -0.8910    1.7317 H   0  0  0  0  0  0  0  0  0  0  0  0
   -3.2737   -0.0209   -0.3781 H   0  0  0  0  0  0  0  0  0  0  0  0
   -3.5864   -0.0097    1.3595 H   0  0  0  0  0  0  0  0  0  0  0  0
   -3.0894   -2.4255   -0.4078 H   0  0  0  0  0  0  0  0  0  0  0  0
   -2.9871   -2.5195    1.3610 H   0  0  0  0  0  0  0  0  0  0  0  0
   -5.3700   -1.6820    1.4933 H   0  0  0  0  0  0  0  0  0  0  0  0
   -5.2098   -3.1981    0.5950 H   0  0  0  0  0  0  0  0  0  0  0  0
   -5.4873   -0.5847   -0.4725 H   0  0  0  0  0  0  0  0  0  0  0  0
  1  2  1  0
  2  3  1  0
  3  4  1  0
  4  5  1  0
  5  6  1  0
  6  7  1  0
  7  8  2  0
  7  9  1  0
  9 10  1  0
 10 11  2  0
 11 12  1  0
 12 13  2  0
 13 14  1  0
 14 15  2  0
  6 16  2  0
 16 17  1  0
 17 18  1  0
 18 19  2  0
 19 20  1  0
 20 21  2  0
 21 22  1  0
 21 23  1  0
 23 24  2  0
 17 25  1  0
 25 26  1  0
 26 27  1  0
 27 28  1  0
 28 29  1  0
 25  4  1  0
 15 10  1  0
 24 18  1  0
  1 30  1  0
  1 31  1  0
  1 32  1  0
  2 33  1  0
  2 34  1  0
  4 35  1  0
  9 36  1  0
 11 37  1  0
 12 38  1  0
 13 39  1  0
 14 40  1  0
 15 41  1  0
 16 42  1  0
 17 43  1  0
 19 44  1  0
 20 45  1  0
 23 46  1  0
 24 47  1  0
 25 48  1  0
 26 49  1  0
 26 50  1  0
 27 51  1  0
 27 52  1  0
 28 53  1  0
 28 54  1  0
 29 55  1  0
M  END
$$$$
