
     RDKit          3D

 35 37  0  0  0  0  0  0  0  0999 V2000
   -0.3681    2.8697    0.8889 C   0  0  0  0  0  0  0  0  0  0  0  0
   -0.7787    1.4447    0.7127 C   0  0  0  0  0  0  0  0  0  0  0  0
   -2.1045    0.9724    0.4250 C   0  0  0  0  0  0  0  0  0  0  0  0
   -3.3297    1.7298    0.2359 C   0  0  0  0  0  0  0  0  0  0  0  0
   -3.3087    3.0234    0.2679 N   0  0  0  0  0  0  0  0  0  0  0  0
   -4.6061    3.5091    0.0572 O   0  0  0  0  0  0  0  0  0  0  0  0
   -2.0279   -0.4101    0.3588 C   0  0  0  0  0  0  0  0  0  0  0  0
   -2.9818   -1.4478    0.1139 C   0  0  0  0  0  0  0  0  0  0  0  0
   -2.6011   -2.7376    0.1678 C   0  0  0  0  0  0  0  0  0  0  0  0
   -1.2351   -3.1125    0.4753 C   0  0  0  0  0  0  0  0  0  0  0  0
   -0.3306   -2.1443    0.6899 C   0  0  0  0  0  0  0  0  0  0  0  0
   -0.7157   -0.7995    0.6171 N   0  0  0  0  0  0  0  0  0  0  0  0
    0.0598    0.3343    0.7773 C   0  0  0  0  0  0  0  0  0  0  0  0
    1.4897    0.3245    1.0165 C   0  0  0  0  0  0  0  0  0  0  0  0
    1.9870    0.7404    2.0594 O   0  0  0  0  0  0  0  0  0  0  0  0
    2.4021   -0.1947   -0.0509 C   0  0  0  0  0  0  0  0  0  0  0  0
    1.9933   -0.3107   -1.3893 C   0  0  0  0  0  0  0  0  0  0  0  0
    2.8797   -0.8016   -2.3516 C   0  0  0  0  0  0  0  0  0  0  0  0
    4.1686   -1.1669   -1.9788 C   0  0  0  0  0  0  0  0  0  0  0  0
    5.0140   -1.6368   -2.9046 F   0  0  0  0  0  0  0  0  0  0  0  0
    4.5934   -1.0473   -0.6610 C   0  0  0  0  0  0  0  0  0  0  0  0
    3.7114   -0.5576    0.3046 C   0  0  0  0  0  0  0  0  0  0  0  0
   -0.9078    3.3213    1.7272 H   0  0  0  0  0  0  0  0  0  0  0  0
    0.7020    2.9669    1.0941 H   0  0  0  0  0  0  0  0  0  0  0  0
   -0.5798    3.4429   -0.0194 H   0  0  0  0  0  0  0  0  0  0  0  0
   -4.2674    1.1749    0.0616 H   0  0  0  0  0  0  0  0  0  0  0  0
   -4.4791    4.4747    0.1189 H   0  0  0  0  0  0  0  0  0  0  0  0
   -4.0132   -1.1962   -0.1118 H   0  0  0  0  0  0  0  0  0  0  0  0
   -3.3164   -3.5346   -0.0125 H   0  0  0  0  0  0  0  0  0  0  0  0
   -0.9754   -4.1640    0.5300 H   0  0  0  0  0  0  0  0  0  0  0  0
    0.7003   -2.3680    0.9318 H   0  0  0  0  0  0  0  0  0  0  0  0
    0.9960   -0.0128   -1.7042 H   0  0  0  0  0  0  0  0  0  0  0  0
    2.5750   -0.8956   -3.3897 H   0  0  0  0  0  0  0  0  0  0  0  0
    5.6066   -1.3312   -0.3935 H   0  0  0  0  0  0  0  0  0  0  0  0
    4.0480   -0.4590    1.3355 H   0  0  0  0  0  0  0  0  0  0  0  0
  1  2  1  0
  2  3  1  0
  3  4  1  0
  4  5  2  3
  5  6  1  0
  3  7  2  0
  7  8  1  0
  8  9  2  0
  9 10  1  0
 10 11  2  0
 11 12  1  0
 12 13  1  0
 13 14  1  0
 14 15  2  0
 14 16  1  0
 16 17  2  0
 17 18  1  0
 18 19  2  0
 19 20  1  0
 19 21  1  0
 21 22  2  0
 13  2  2  0
 22 16  1  0
 12  7  1  0
  1 23  1  0
  1 24  1  0
  1 25  1  0
  4 26  1  0
  6 27  1  0
  8 28  1  0
  9 29  1  0
 10 30  1  0
 11 31  1  0
 17 32  1  0
 18 33  1  0
 21 34  1  0
 22 35  1  0
M  END
$$$$
