
     RDKit          3D

 42 46  0  0  0  0  0  0  0  0999 V2000
   -2.7054    0.6777    1.5052 O   0  0  0  0  0  0  0  0  0  0  0  0
   -2.3643    0.3359    0.3708 C   0  0  0  0  0  0  0  0  0  0  0  0
   -3.2199   -0.6525   -0.3554 C   0  0  0  0  0  0  0  0  0  0  0  0
   -4.5409   -0.8293    0.0816 C   0  0  0  0  0  0  0  0  0  0  0  0
   -5.3850   -1.7353   -0.5638 C   0  0  0  0  0  0  0  0  0  0  0  0
   -4.9140   -2.4762   -1.6458 C   0  0  0  0  0  0  0  0  0  0  0  0
   -3.5993   -2.3156   -2.0802 C   0  0  0  0  0  0  0  0  0  0  0  0
   -2.7509   -1.4093   -1.4371 C   0  0  0  0  0  0  0  0  0  0  0  0
   -1.0868    0.8563   -0.3283 C   0  0  0  0  0  0  0  0  0  0  0  0
   -0.7181    2.1827    0.0515 O   0  0  0  0  0  0  0  0  0  0  0  0
   -0.0048    2.3099    1.2111 C   0  0  0  0  0  0  0  0  0  0  0  0
    0.0538    3.5943    1.7536 C   0  0  0  0  0  0  0  0  0  0  0  0
    0.7492    3.8225    2.9401 C   0  0  0  0  0  0  0  0  0  0  0  0
    1.3866    2.7647    3.5849 C   0  0  0  0  0  0  0  0  0  0  0  0
    1.3372    1.4815    3.0375 C   0  0  0  0  0  0  0  0  0  0  0  0
    0.6584    1.2458    1.8306 C   0  0  0  0  0  0  0  0  0  0  0  0
    0.5970   -0.1294    1.2228 C   0  0  0  0  0  0  0  0  0  0  0  0
    1.9545   -0.7746    0.9745 C   0  0  0  0  0  0  0  0  0  0  0  0
    2.0501   -0.6312   -0.5203 C   0  0  0  0  0  0  0  0  0  0  0  0
    3.2468   -0.9160   -1.2778 C   0  0  0  0  0  0  0  0  0  0  0  0
    3.4333   -0.7759   -2.6417 C   0  0  0  0  0  0  0  0  0  0  0  0
    4.7457   -1.1421   -3.0572 C   0  0  0  0  0  0  0  0  0  0  0  0
    5.5200   -1.5597   -1.9990 C   0  0  0  0  0  0  0  0  0  0  0  0
    4.6633   -1.5094   -0.5213 S   0  0  0  0  0  0  0  0  0  0  0  0
    0.9519   -0.2441   -1.1023 N   0  0  0  0  0  0  0  0  0  0  0  0
    0.0114   -0.0776   -0.1095 N   0  0  0  0  0  0  0  0  0  0  0  0
   -4.9207   -0.2584    0.9279 H   0  0  0  0  0  0  0  0  0  0  0  0
   -6.4084   -1.8628   -0.2191 H   0  0  0  0  0  0  0  0  0  0  0  0
   -5.5705   -3.1823   -2.1489 H   0  0  0  0  0  0  0  0  0  0  0  0
   -3.2303   -2.9012   -2.9185 H   0  0  0  0  0  0  0  0  0  0  0  0
   -1.7266   -1.3290   -1.7925 H   0  0  0  0  0  0  0  0  0  0  0  0
   -1.2885    0.9055   -1.4036 H   0  0  0  0  0  0  0  0  0  0  0  0
   -0.4585    4.4148    1.2569 H   0  0  0  0  0  0  0  0  0  0  0  0
    0.7834    4.8222    3.3645 H   0  0  0  0  0  0  0  0  0  0  0  0
    1.9181    2.9385    4.5172 H   0  0  0  0  0  0  0  0  0  0  0  0
    1.8325    0.6677    3.5625 H   0  0  0  0  0  0  0  0  0  0  0  0
   -0.0364   -0.7656    1.8517 H   0  0  0  0  0  0  0  0  0  0  0  0
    1.9377   -1.8423    1.2216 H   0  0  0  0  0  0  0  0  0  0  0  0
    2.7910   -0.2909    1.4846 H   0  0  0  0  0  0  0  0  0  0  0  0
    2.6569   -0.4170   -3.3084 H   0  0  0  0  0  0  0  0  0  0  0  0
    5.1018   -1.0998   -4.0783 H   0  0  0  0  0  0  0  0  0  0  0  0
    6.5487   -1.8927   -2.0216 H   0  0  0  0  0  0  0  0  0  0  0  0
  1  2  2  0
  2  3  1  0
  3  4  2  0
  4  5  1  0
  5  6  2  0
  6  7  1  0
  7  8  2  0
  2  9  1  0
  9 10  1  0
 10 11  1  0
 11 12  2  0
 12 13  1  0
 13 14  2  0
 14 15  1  0
 15 16  2  0
 16 17  1  0
 17 18  1  0
 18 19  1  0
 19 20  1  0
 20 21  2  0
 21 22  1  0
 22 23  2  0
 23 24  1  0
 19 25  2  0
 25 26  1  0
  8  3  1  0
 26  9  1  0
 16 11  1  0
 26 17  1  0
 24 20  1  0
  4 27  1  0
  5 28  1  0
  6 29  1  0
  7 30  1  0
  8 31  1  0
  9 32  1  0
 12 33  1  0
 13 34  1  0
 14 35  1  0
 15 36  1  0
 17 37  1  0
 18 38  1  0
 18 39  1  0
 21 40  1  0
 22 41  1  0
 23 42  1  0
M  END
$$$$
