
     RDKit          3D

 46 49  0  0  0  0  0  0  0  0999 V2000
    0.1611    0.5997    2.3808 O   0  0  0  0  0  0  0  0  0  0  0  0
    0.5904    0.6059    1.2306 C   0  0  0  0  0  0  0  0  0  0  0  0
    2.0813    0.6355    0.9345 C   0  0  0  0  0  0  0  0  0  0  0  0
    2.5274   -0.7117   -0.2137 S   0  0  0  0  0  0  0  0  0  0  0  0
    4.3042   -0.5136   -0.2455 C   0  0  0  0  0  0  0  0  0  0  0  0
    4.7546    0.7410    0.0247 N   0  0  0  0  0  0  0  0  0  0  0  0
    6.0831    0.9751   -0.0722 C   0  0  0  0  0  0  0  0  0  0  0  0
    7.0076    0.0168   -0.4448 C   0  0  0  0  0  0  0  0  0  0  0  0
    6.5432   -1.2624   -0.7252 C   0  0  0  0  0  0  0  0  0  0  0  0
    5.1755   -1.5385   -0.6119 C   0  0  0  0  0  0  0  0  0  0  0  0
    4.7389   -2.9044   -0.9179 C   0  0  0  0  0  0  0  0  0  0  0  0
    5.0067   -3.5219   -1.9308 O   0  0  0  0  0  0  0  0  0  0  0  0
    4.0995   -3.4650    0.1209 O   0  0  0  0  0  0  0  0  0  0  0  0
   -0.2115    0.6541    0.1050 N   0  0  0  0  0  0  0  0  0  0  0  0
   -1.6744    0.5599    0.1153 C   0  0  0  0  0  0  0  0  0  0  0  0
   -2.1788    0.6713   -1.3492 C   0  0  0  0  0  0  0  0  0  0  0  0
   -3.7109    0.5698   -1.4149 C   0  0  0  0  0  0  0  0  0  0  0  0
   -4.3268    1.7089   -0.5883 C   0  0  0  0  0  0  0  0  0  0  0  0
   -3.8610    1.6069    0.8723 C   0  0  0  0  0  0  0  0  0  0  0  0
   -4.2983    0.2504    1.4513 C   0  0  0  0  0  0  0  0  0  0  0  0
   -3.6866   -0.8979    0.6307 C   0  0  0  0  0  0  0  0  0  0  0  0
   -4.1522   -0.7809   -0.8293 C   0  0  0  0  0  0  0  0  0  0  0  0
   -2.1518   -0.7985    0.6847 C   0  0  0  0  0  0  0  0  0  0  0  0
   -2.3261    1.7086    0.9261 C   0  0  0  0  0  0  0  0  0  0  0  0
    2.3237    1.6124    0.5043 H   0  0  0  0  0  0  0  0  0  0  0  0
    2.6244    0.5091    1.8767 H   0  0  0  0  0  0  0  0  0  0  0  0
    6.3922    1.9913    0.1588 H   0  0  0  0  0  0  0  0  0  0  0  0
    8.0623    0.2598   -0.5172 H   0  0  0  0  0  0  0  0  0  0  0  0
    7.2388   -2.0419   -1.0276 H   0  0  0  0  0  0  0  0  0  0  0  0
    3.8847   -4.3741   -0.1758 H   0  0  0  0  0  0  0  0  0  0  0  0
    0.2584    0.4066   -0.7596 H   0  0  0  0  0  0  0  0  0  0  0  0
   -1.7314   -0.1214   -1.9640 H   0  0  0  0  0  0  0  0  0  0  0  0
   -1.8502    1.6220   -1.7901 H   0  0  0  0  0  0  0  0  0  0  0  0
   -4.0428    0.6474   -2.4562 H   0  0  0  0  0  0  0  0  0  0  0  0
   -5.4214    1.6585   -0.6373 H   0  0  0  0  0  0  0  0  0  0  0  0
   -4.0335    2.6787   -1.0086 H   0  0  0  0  0  0  0  0  0  0  0  0
   -4.3051    2.4192    1.4585 H   0  0  0  0  0  0  0  0  0  0  0  0
   -5.3926    0.1752    1.4412 H   0  0  0  0  0  0  0  0  0  0  0  0
   -3.9836    0.1712    2.4992 H   0  0  0  0  0  0  0  0  0  0  0  0
   -4.0083   -1.8601    1.0447 H   0  0  0  0  0  0  0  0  0  0  0  0
   -3.7332   -1.6023   -1.4235 H   0  0  0  0  0  0  0  0  0  0  0  0
   -5.2439   -0.8739   -0.8831 H   0  0  0  0  0  0  0  0  0  0  0  0
   -1.8196   -0.9249    1.7221 H   0  0  0  0  0  0  0  0  0  0  0  0
   -1.7040   -1.6243    0.1164 H   0  0  0  0  0  0  0  0  0  0  0  0
   -2.0015    2.6803    0.5313 H   0  0  0  0  0  0  0  0  0  0  0  0
   -2.0085    1.6824    1.9745 H   0  0  0  0  0  0  0  0  0  0  0  0
  1  2  2  0
  2  3  1  0
  3  4  1  0
  4  5  1  0
  5  6  2  0
  6  7  1  0
  7  8  2  0
  8  9  1  0
  9 10  2  0
 10 11  1  0
 11 12  2  0
 11 13  1  0
  2 14  1  0
 14 15  1  0
 15 16  1  0
 16 17  1  0
 17 18  1  0
 18 19  1  0
 19 20  1  0
 20 21  1  0
 21 22  1  0
 21 23  1  0
 19 24  1  0
 10  5  1  0
 23 15  1  0
 24 15  1  0
 22 17  1  0
  3 25  1  0
  3 26  1  0
  7 27  1  0
  8 28  1  0
  9 29  1  0
 13 30  1  0
 14 31  1  0
 16 32  1  0
 16 33  1  0
 17 34  1  0
 18 35  1  0
 18 36  1  0
 19 37  1  0
 20 38  1  0
 20 39  1  0
 21 40  1  0
 22 41  1  0
 22 42  1  0
 23 43  1  0
 23 44  1  0
 24 45  1  0
 24 46  1  0
M  END
$$$$
