
     RDKit          3D

 39 41  0  0  0  0  0  0  0  0999 V2000
   -1.1570   -3.1427    1.8073 O   0  0  0  0  0  0  0  0  0  0  0  0
   -0.1705   -2.6559    1.2861 C   0  0  0  0  0  0  0  0  0  0  0  0
    1.1264   -3.1369    1.3362 N   0  0  0  0  0  0  0  0  0  0  0  0
    1.9750   -2.1383    0.8656 N   0  0  0  0  0  0  0  0  0  0  0  0
    1.1600   -1.1862    0.2719 C   0  0  0  0  0  0  0  0  0  0  0  0
    1.7797   -0.1187   -0.5113 C   0  0  0  0  0  0  0  0  0  0  0  0
    1.8525    1.1697    0.0369 C   0  0  0  0  0  0  0  0  0  0  0  0
    2.4787    2.2058   -0.6603 C   0  0  0  0  0  0  0  0  0  0  0  0
    3.0543    1.9602   -1.9055 C   0  0  0  0  0  0  0  0  0  0  0  0
    3.0035    0.6801   -2.4551 C   0  0  0  0  0  0  0  0  0  0  0  0
    2.3634   -0.3472   -1.7650 C   0  0  0  0  0  0  0  0  0  0  0  0
    2.3532   -1.5729   -2.3722 O   0  0  0  0  0  0  0  0  0  0  0  0
   -0.1516   -1.4050    0.4783 C   0  0  0  0  0  0  0  0  0  0  0  0
   -1.4338   -0.7665    0.0251 C   0  0  0  0  0  0  0  0  0  0  0  0
   -1.5049   -0.4745   -1.4799 C   0  0  0  0  0  0  0  0  0  0  0  0
   -1.4685   -1.7749   -2.2235 N   0  0  0  0  0  4  0  0  0  0  0  0
   -0.3503   -2.2420   -2.4871 O   0  0  0  0  0  0  0  0  0  0  0  0
   -2.5528   -2.2886   -2.5187 O   0  0  0  0  0  1  0  0  0  0  0  0
   -1.7737    0.4501    0.8878 C   0  0  0  0  0  0  0  0  0  0  0  0
   -1.5452    1.7720    0.4735 C   0  0  0  0  0  0  0  0  0  0  0  0
   -1.8638    2.8470    1.3077 C   0  0  0  0  0  0  0  0  0  0  0  0
   -2.4118    2.6191    2.5672 C   0  0  0  0  0  0  0  0  0  0  0  0
   -2.6404    1.3156    2.9970 C   0  0  0  0  0  0  0  0  0  0  0  0
   -2.3230    0.2402    2.1659 C   0  0  0  0  0  0  0  0  0  0  0  0
    1.4055   -3.7142    2.1224 H   0  0  0  0  0  0  0  0  0  0  0  0
    2.7199   -2.4552    0.2361 H   0  0  0  0  0  0  0  0  0  0  0  0
    1.4396    1.3705    1.0245 H   0  0  0  0  0  0  0  0  0  0  0  0
    2.5333    3.1994   -0.2218 H   0  0  0  0  0  0  0  0  0  0  0  0
    3.5541    2.7618   -2.4436 H   0  0  0  0  0  0  0  0  0  0  0  0
    3.4609    0.4817   -3.4209 H   0  0  0  0  0  0  0  0  0  0  0  0
    1.4833   -1.9981   -2.2182 H   0  0  0  0  0  0  0  0  0  0  0  0
   -2.2467   -1.4857    0.2109 H   0  0  0  0  0  0  0  0  0  0  0  0
   -0.6820    0.1359   -1.8621 H   0  0  0  0  0  0  0  0  0  0  0  0
   -2.4470    0.0137   -1.7568 H   0  0  0  0  0  0  0  0  0  0  0  0
   -1.1070    1.9977   -0.4953 H   0  0  0  0  0  0  0  0  0  0  0  0
   -1.6812    3.8658    0.9745 H   0  0  0  0  0  0  0  0  0  0  0  0
   -2.6586    3.4565    3.2147 H   0  0  0  0  0  0  0  0  0  0  0  0
   -3.0652    1.1326    3.9809 H   0  0  0  0  0  0  0  0  0  0  0  0
   -2.5083   -0.7717    2.5269 H   0  0  0  0  0  0  0  0  0  0  0  0
  1  2  2  0
  2  3  1  0
  3  4  1  0
  4  5  1  0
  5  6  1  0
  6  7  2  0
  7  8  1  0
  8  9  2  0
  9 10  1  0
 10 11  2  0
 11 12  1  0
  5 13  2  0
 13 14  1  0
 14 15  1  0
 15 16  1  0
 16 17  2  0
 16 18  1  0
 14 19  1  0
 19 20  2  0
 20 21  1  0
 21 22  2  0
 22 23  1  0
 23 24  2  0
 13  2  1  0
 24 19  1  0
 11  6  1  0
  3 25  1  0
  4 26  1  0
  7 27  1  0
  8 28  1  0
  9 29  1  0
 10 30  1  0
 12 31  1  0
 14 32  1  0
 15 33  1  0
 15 34  1  0
 20 35  1  0
 21 36  1  0
 22 37  1  0
 23 38  1  0
 24 39  1  0
M  CHG  2  16   1  18  -1
M  END
$$$$
