
     RDKit          3D

 61 61  0  0  0  0  0  0  0  0999 V2000
    9.5960   -1.5013   -0.7236 C   0  0  0  0  0  0  0  0  0  0  0  0
    8.5768   -0.6840    0.0541 C   0  0  0  0  0  0  0  0  0  0  0  0
    7.2758   -0.5178   -0.7308 C   0  0  0  0  0  0  0  0  0  0  0  0
    6.2538    0.3059    0.0543 C   0  0  0  0  0  0  0  0  0  0  0  0
    4.9513    0.4712   -0.7306 C   0  0  0  0  0  0  0  0  0  0  0  0
    3.9298    1.2977    0.0539 C   0  0  0  0  0  0  0  0  0  0  0  0
    2.6257    1.4553   -0.7306 C   0  0  0  0  0  0  0  0  0  0  0  0
    1.6056    2.3644   -0.0388 C   0  0  0  0  0  0  0  0  0  0  0  0
    1.1429    1.9101    1.3494 C   0  0  0  0  0  0  0  0  0  0  0  0
    0.5497    0.5001    1.4244 C   0  0  0  0  0  0  0  0  0  0  0  0
   -0.6931    0.3163    0.5499 C   0  0  0  0  0  0  0  0  0  0  0  0
   -1.3086   -1.0705    0.7519 C   0  0  0  0  0  0  0  0  0  0  0  0
   -2.4839   -1.3596   -0.1869 C   0  0  0  0  0  0  0  0  0  0  0  0
   -3.6717   -0.3965   -0.0908 C   0  0  0  0  0  0  0  0  0  0  0  0
   -4.3160   -0.3608    1.2974 C   0  0  0  0  0  0  0  0  0  0  0  0
   -5.5244    0.5707    1.3562 C   0  0  0  0  0  0  0  0  0  0  0  0
   -6.6373    0.0962    0.5277 N   0  0  0  0  0  0  0  0  0  0  0  0
   -7.5201   -0.9221    0.8538 C   0  0  0  0  0  0  0  0  0  0  0  0
   -8.3989   -1.0306   -0.1864 C   0  0  0  0  0  0  0  0  0  0  0  0
   -8.0335   -0.0743   -1.1194 N   0  0  0  0  0  4  0  0  0  0  0  0
   -8.7005    0.1738   -2.3909 C   0  0  0  0  0  0  0  0  0  0  0  0
   -6.9706    0.6072   -0.6678 C   0  0  0  0  0  0  0  0  0  0  0  0
   10.5180   -1.6086   -0.1436 H   0  0  0  0  0  0  0  0  0  0  0  0
    9.2123   -2.5035   -0.9402 H   0  0  0  0  0  0  0  0  0  0  0  0
    9.8461   -1.0163   -1.6725 H   0  0  0  0  0  0  0  0  0  0  0  0
    9.0031    0.3000    0.2815 H   0  0  0  0  0  0  0  0  0  0  0  0
    8.3739   -1.1788    1.0110 H   0  0  0  0  0  0  0  0  0  0  0  0
    6.8553   -1.5050   -0.9583 H   0  0  0  0  0  0  0  0  0  0  0  0
    7.4850   -0.0272   -1.6892 H   0  0  0  0  0  0  0  0  0  0  0  0
    6.6740    1.2934    0.2809 H   0  0  0  0  0  0  0  0  0  0  0  0
    6.0453   -0.1845    1.0130 H   0  0  0  0  0  0  0  0  0  0  0  0
    4.5298   -0.5162   -0.9551 H   0  0  0  0  0  0  0  0  0  0  0  0
    5.1606    0.9597   -1.6900 H   0  0  0  0  0  0  0  0  0  0  0  0
    4.3488    2.2871    0.2733 H   0  0  0  0  0  0  0  0  0  0  0  0
    3.7342    0.8068    1.0138 H   0  0  0  0  0  0  0  0  0  0  0  0
    2.8503    1.8865   -1.7144 H   0  0  0  0  0  0  0  0  0  0  0  0
    2.1844    0.4704   -0.9212 H   0  0  0  0  0  0  0  0  0  0  0  0
    0.7335    2.4726   -0.6946 H   0  0  0  0  0  0  0  0  0  0  0  0
    2.0352    3.3699    0.0552 H   0  0  0  0  0  0  0  0  0  0  0  0
    1.9834    1.9730    2.0507 H   0  0  0  0  0  0  0  0  0  0  0  0
    0.3961    2.6272    1.7135 H   0  0  0  0  0  0  0  0  0  0  0  0
    0.2832    0.3003    2.4701 H   0  0  0  0  0  0  0  0  0  0  0  0
    1.3089   -0.2427    1.1541 H   0  0  0  0  0  0  0  0  0  0  0  0
   -0.4313    0.4418   -0.5065 H   0  0  0  0  0  0  0  0  0  0  0  0
   -1.4250    1.0918    0.8015 H   0  0  0  0  0  0  0  0  0  0  0  0
   -1.6225   -1.1904    1.7951 H   0  0  0  0  0  0  0  0  0  0  0  0
   -0.5393   -1.8327    0.5745 H   0  0  0  0  0  0  0  0  0  0  0  0
   -2.1184   -1.3535   -1.2215 H   0  0  0  0  0  0  0  0  0  0  0  0
   -2.8387   -2.3796    0.0069 H   0  0  0  0  0  0  0  0  0  0  0  0
   -4.4164   -0.7162   -0.8295 H   0  0  0  0  0  0  0  0  0  0  0  0
   -3.3626    0.6131   -0.3843 H   0  0  0  0  0  0  0  0  0  0  0  0
   -4.6145   -1.3745    1.5889 H   0  0  0  0  0  0  0  0  0  0  0  0
   -3.5859   -0.0119    2.0358 H   0  0  0  0  0  0  0  0  0  0  0  0
   -5.8876    0.6465    2.3877 H   0  0  0  0  0  0  0  0  0  0  0  0
   -5.2523    1.5813    1.0311 H   0  0  0  0  0  0  0  0  0  0  0  0
   -7.4041   -1.4403    1.7903 H   0  0  0  0  0  0  0  0  0  0  0  0
   -9.2438   -1.6670   -0.3868 H   0  0  0  0  0  0  0  0  0  0  0  0
   -8.0488    0.7634   -3.0412 H   0  0  0  0  0  0  0  0  0  0  0  0
   -8.9252   -0.7798   -2.8764 H   0  0  0  0  0  0  0  0  0  0  0  0
   -9.6262    0.7239   -2.2026 H   0  0  0  0  0  0  0  0  0  0  0  0
   -6.4675    1.4210   -1.1778 H   0  0  0  0  0  0  0  0  0  0  0  0
  1  2  1  0
  2  3  1  0
  3  4  1  0
  4  5  1  0
  5  6  1  0
  6  7  1  0
  7  8  1  0
  8  9  1  0
  9 10  1  0
 10 11  1  0
 11 12  1  0
 12 13  1  0
 13 14  1  0
 14 15  1  0
 15 16  1  0
 16 17  1  0
 17 18  1  0
 18 19  2  0
 19 20  1  0
 20 21  1  0
 20 22  2  0
 22 17  1  0
  1 23  1  0
  1 24  1  0
  1 25  1  0
  2 26  1  0
  2 27  1  0
  3 28  1  0
  3 29  1  0
  4 30  1  0
  4 31  1  0
  5 32  1  0
  5 33  1  0
  6 34  1  0
  6 35  1  0
  7 36  1  0
  7 37  1  0
  8 38  1  0
  8 39  1  0
  9 40  1  0
  9 41  1  0
 10 42  1  0
 10 43  1  0
 11 44  1  0
 11 45  1  0
 12 46  1  0
 12 47  1  0
 13 48  1  0
 13 49  1  0
 14 50  1  0
 14 51  1  0
 15 52  1  0
 15 53  1  0
 16 54  1  0
 16 55  1  0
 18 56  1  0
 19 57  1  0
 21 58  1  0
 21 59  1  0
 21 60  1  0
 22 61  1  0
M  CHG  1  20   1
M  END
$$$$
