
     RDKit          3D

 90 95  0  0  0  0  0  0  0  0999 V2000
    2.4782    3.0594    0.9705 C   0  0  0  0  0  0  0  0  0  0  0  0
    1.3169    2.8265    0.0035 C   0  0  0  0  0  0  0  0  0  0  0  0
   -0.0001    3.5211    0.4610 C   0  0  0  0  0  0  0  0  0  0  0  0
   -0.3953    3.3618    1.8805 N   0  0  0  0  0  0  0  0  0  0  0  0
   -0.4080    4.5716    2.7609 C   0  0  0  0  0  0  0  0  0  0  0  0
   -1.6152    5.4621    2.4368 C   0  0  0  0  0  0  0  0  0  0  0  0
    0.8942    5.3968    2.8294 C   0  0  0  0  0  0  0  0  0  0  0  0
    1.1242    6.1761    1.6641 O   0  0  0  0  0  0  0  0  0  0  0  0
   -1.2389    2.3168    2.3230 C   0  0  0  0  0  0  0  0  0  0  0  0
   -1.7579    2.3084    3.4450 O   0  0  0  0  0  0  0  0  0  0  0  0
   -1.6690    1.2380    1.4072 C   0  0  0  0  0  0  0  0  0  0  0  0
   -3.0478    0.9537    1.3537 C   0  0  0  0  0  0  0  0  0  0  0  0
   -3.5424   -0.0190    0.4820 C   0  0  0  0  0  0  0  0  0  0  0  0
   -4.9208   -0.3054    0.5090 N   0  0  0  0  0  0  0  0  0  0  0  0
   -5.6409   -0.9047   -0.5126 C   0  0  0  0  0  0  0  0  0  0  0  0
   -5.2582   -1.0029   -1.6726 O   0  0  0  0  0  0  0  0  0  0  0  0
   -6.8438   -1.3933   -0.0231 N   0  0  0  0  0  0  0  0  0  0  0  0
   -7.8787   -1.9444   -0.8247 C   0  0  0  0  0  0  0  0  0  0  0  0
   -8.1182   -1.4131   -2.1004 C   0  0  0  0  0  0  0  0  0  0  0  0
   -9.1597   -1.8897   -2.8901 C   0  0  0  0  0  0  0  0  0  0  0  0
   -9.9730   -2.9122   -2.4167 C   0  0  0  0  0  0  0  0  0  0  0  0
   -9.7637   -3.4700   -1.1479 C   0  0  0  0  0  0  0  0  0  0  0  0
  -10.5975   -4.5114   -0.7035 C   0  0  0  0  0  0  0  0  0  0  0  0
  -10.4016   -5.1059    0.5398 C   0  0  0  0  0  0  0  0  0  0  0  0
   -9.3695   -4.6686    1.3558 C   0  0  0  0  0  0  0  0  0  0  0  0
   -8.5371   -3.6264    0.9344 C   0  0  0  0  0  0  0  0  0  0  0  0
   -8.7093   -2.9912   -0.3221 C   0  0  0  0  0  0  0  0  0  0  0  0
   -2.6506   -0.7209   -0.3258 C   0  0  0  0  0  0  0  0  0  0  0  0
   -1.2767   -0.4791   -0.2355 C   0  0  0  0  0  0  0  0  0  0  0  0
   -0.7854    0.4946    0.6362 C   0  0  0  0  0  0  0  0  0  0  0  0
    0.5642    0.6575    0.7787 O   0  0  0  0  0  0  0  0  0  0  0  0
    1.1174    1.3290   -0.3596 C   0  0  0  0  0  0  0  0  0  0  0  0
    2.4478    0.6314   -0.7771 C   0  0  0  0  0  0  0  0  0  0  0  0
    2.2667   -0.7075   -1.3796 N   0  0  0  0  0  0  0  0  0  0  0  0
    2.2513   -1.7640   -0.3656 C   0  0  0  0  0  0  0  0  0  0  0  0
    3.2421   -0.9934   -2.4476 C   0  0  0  0  0  0  0  0  0  0  0  0
    4.6974   -1.1079   -2.0459 C   0  0  0  0  0  0  0  0  0  0  0  0
    5.5443    0.0072   -2.0703 C   0  0  0  0  0  0  0  0  0  0  0  0
    6.8926   -0.1183   -1.7212 C   0  0  0  0  0  0  0  0  0  0  0  0
    7.4358   -1.3553   -1.3360 C   0  0  0  0  0  0  0  0  0  0  0  0
    8.8597   -1.4808   -0.9798 C   0  0  0  0  0  0  0  0  0  0  0  0
    9.6576   -2.4908   -1.5452 C   0  0  0  0  0  0  0  0  0  0  0  0
   11.0080   -2.6212   -1.2121 C   0  0  0  0  0  0  0  0  0  0  0  0
   11.5876   -1.7398   -0.3024 C   0  0  0  0  0  0  0  0  0  0  0  0
   10.8184   -0.7279    0.2704 C   0  0  0  0  0  0  0  0  0  0  0  0
    9.4672   -0.6001   -0.0680 C   0  0  0  0  0  0  0  0  0  0  0  0
    6.5784   -2.4674   -1.3086 C   0  0  0  0  0  0  0  0  0  0  0  0
    5.2306   -2.3470   -1.6597 C   0  0  0  0  0  0  0  0  0  0  0  0
    3.4159    2.6548    0.5857 H   0  0  0  0  0  0  0  0  0  0  0  0
    2.6584    4.1281    1.0957 H   0  0  0  0  0  0  0  0  0  0  0  0
    2.2953    2.6021    1.9452 H   0  0  0  0  0  0  0  0  0  0  0  0
    1.6036    3.3182   -0.9377 H   0  0  0  0  0  0  0  0  0  0  0  0
   -0.8301    3.1938   -0.1743 H   0  0  0  0  0  0  0  0  0  0  0  0
    0.0878    4.5897    0.2471 H   0  0  0  0  0  0  0  0  0  0  0  0
   -0.5450    4.2141    3.7902 H   0  0  0  0  0  0  0  0  0  0  0  0
   -1.5858    5.8424    1.4119 H   0  0  0  0  0  0  0  0  0  0  0  0
   -2.5540    4.9066    2.5581 H   0  0  0  0  0  0  0  0  0  0  0  0
   -1.6481    6.3243    3.1116 H   0  0  0  0  0  0  0  0  0  0  0  0
    0.8344    6.0969    3.6724 H   0  0  0  0  0  0  0  0  0  0  0  0
    1.7521    4.7480    3.0173 H   0  0  0  0  0  0  0  0  0  0  0  0
    2.0203    6.5475    1.7397 H   0  0  0  0  0  0  0  0  0  0  0  0
   -3.7241    1.5092    2.0030 H   0  0  0  0  0  0  0  0  0  0  0  0
   -5.4778    0.1792    1.1968 H   0  0  0  0  0  0  0  0  0  0  0  0
   -6.7900   -1.6957    0.9357 H   0  0  0  0  0  0  0  0  0  0  0  0
   -7.5084   -0.5999   -2.4892 H   0  0  0  0  0  0  0  0  0  0  0  0
   -9.3377   -1.4614   -3.8739 H   0  0  0  0  0  0  0  0  0  0  0  0
  -10.7798   -3.2782   -3.0491 H   0  0  0  0  0  0  0  0  0  0  0  0
  -11.4049   -4.8781   -1.3367 H   0  0  0  0  0  0  0  0  0  0  0  0
  -11.0488   -5.9162    0.8634 H   0  0  0  0  0  0  0  0  0  0  0  0
   -9.2006   -5.1455    2.3170 H   0  0  0  0  0  0  0  0  0  0  0  0
   -7.7282   -3.3444    1.6000 H   0  0  0  0  0  0  0  0  0  0  0  0
   -2.9928   -1.4985   -1.0047 H   0  0  0  0  0  0  0  0  0  0  0  0
   -0.5971   -1.0670   -0.8504 H   0  0  0  0  0  0  0  0  0  0  0  0
    0.4446    1.2940   -1.2316 H   0  0  0  0  0  0  0  0  0  0  0  0
    3.1284    0.5503    0.0799 H   0  0  0  0  0  0  0  0  0  0  0  0
    2.9254    1.2962   -1.5081 H   0  0  0  0  0  0  0  0  0  0  0  0
    3.1511   -1.7629    0.2598 H   0  0  0  0  0  0  0  0  0  0  0  0
    2.1547   -2.7507   -0.8335 H   0  0  0  0  0  0  0  0  0  0  0  0
    1.3971   -1.6608    0.3056 H   0  0  0  0  0  0  0  0  0  0  0  0
    2.9479   -1.9248   -2.9514 H   0  0  0  0  0  0  0  0  0  0  0  0
    3.1464   -0.2311   -3.2347 H   0  0  0  0  0  0  0  0  0  0  0  0
    5.1721    0.9827   -2.3791 H   0  0  0  0  0  0  0  0  0  0  0  0
    7.5267    0.7663   -1.7692 H   0  0  0  0  0  0  0  0  0  0  0  0
    9.2303   -3.1849   -2.2670 H   0  0  0  0  0  0  0  0  0  0  0  0
   11.6028   -3.4101   -1.6673 H   0  0  0  0  0  0  0  0  0  0  0  0
   12.6395   -1.8384   -0.0433 H   0  0  0  0  0  0  0  0  0  0  0  0
   11.2661   -0.0369    0.9809 H   0  0  0  0  0  0  0  0  0  0  0  0
    8.8803    0.1879    0.4006 H   0  0  0  0  0  0  0  0  0  0  0  0
    6.9529   -3.4444   -1.0062 H   0  0  0  0  0  0  0  0  0  0  0  0
    4.5977   -3.2344   -1.6344 H   0  0  0  0  0  0  0  0  0  0  0  0
  1  2  1  0
  2  3  1  0
  3  4  1  0
  4  5  1  0
  5  6  1  0
  5  7  1  0
  7  8  1  0
  4  9  1  0
  9 10  2  0
  9 11  1  0
 11 12  2  0
 12 13  1  0
 13 14  1  0
 14 15  1  0
 15 16  2  0
 15 17  1  0
 17 18  1  0
 18 19  2  0
 19 20  1  0
 20 21  2  0
 21 22  1  0
 22 23  2  0
 23 24  1  0
 24 25  2  0
 25 26  1  0
 26 27  2  0
 13 28  2  0
 28 29  1  0
 29 30  2  0
 30 31  1  0
 31 32  1  0
 32 33  1  0
 33 34  1  0
 34 35  1  0
 34 36  1  0
 36 37  1  0
 37 38  2  0
 38 39  1  0
 39 40  2  0
 40 41  1  0
 41 42  2  0
 42 43  1  0
 43 44  2  0
 44 45  1  0
 45 46  2  0
 40 47  1  0
 47 48  2  0
 32  2  1  0
 48 37  1  0
 30 11  1  0
 46 41  1  0
 27 18  1  0
 27 22  1  0
  1 49  1  0
  1 50  1  0
  1 51  1  0
  2 52  1  0
  3 53  1  0
  3 54  1  0
  5 55  1  0
  6 56  1  0
  6 57  1  0
  6 58  1  0
  7 59  1  0
  7 60  1  0
  8 61  1  0
 12 62  1  0
 14 63  1  0
 17 64  1  0
 19 65  1  0
 20 66  1  0
 21 67  1  0
 23 68  1  0
 24 69  1  0
 25 70  1  0
 26 71  1  0
 28 72  1  0
 29 73  1  0
 32 74  1  0
 33 75  1  0
 33 76  1  0
 35 77  1  0
 35 78  1  0
 35 79  1  0
 36 80  1  0
 36 81  1  0
 38 82  1  0
 39 83  1  0
 42 84  1  0
 43 85  1  0
 44 86  1  0
 45 87  1  0
 46 88  1  0
 47 89  1  0
 48 90  1  0
M  END
$$$$
