
     RDKit          3D

 46 46  0  0  0  0  0  0  0  0999 V2000
   -2.0488   -1.0566    1.1873 O   0  0  0  0  0  0  0  0  0  0  0  0
   -1.9760   -0.2318    0.2840 C   0  0  0  0  0  0  0  0  0  0  0  0
   -0.6673    0.2745   -0.2789 C   0  0  0  0  0  0  0  0  0  0  0  0
    0.5268   -0.4001    0.3838 C   0  0  0  0  0  0  0  0  0  0  0  0
    1.8222    0.1203   -0.1797 C   0  0  0  0  0  0  0  0  0  0  0  0
    1.9222    1.0118   -1.0108 O   0  0  0  0  0  0  0  0  0  0  0  0
    2.8682   -0.5472    0.3830 O   0  0  0  0  0  0  0  0  0  0  0  0
    4.1589   -0.1345   -0.0901 C   0  0  0  0  0  0  0  0  0  0  0  0
    5.2089   -0.9277    0.6823 C   0  0  0  0  0  0  0  0  0  0  0  0
    6.6538   -0.4814    0.4396 C   0  0  0  0  0  0  0  0  0  0  0  0
    7.1268   -0.6474   -1.0027 C   0  0  0  0  0  0  0  0  0  0  0  0
    6.4000    0.1792   -1.8046 F   0  0  0  0  0  0  0  0  0  0  0  0
    6.8501   -1.9166   -1.4125 F   0  0  0  0  0  0  0  0  0  0  0  0
    8.6212   -0.3482   -1.1530 C   0  0  0  0  0  0  0  0  0  0  0  0
    9.0456   -0.4879   -2.4303 F   0  0  0  0  0  0  0  0  0  0  0  0
    9.3746   -1.1749   -0.3861 F   0  0  0  0  0  0  0  0  0  0  0  0
    8.9143    0.9186   -0.7672 F   0  0  0  0  0  0  0  0  0  0  0  0
   -3.0752    0.3325   -0.3297 N   0  0  0  0  0  0  0  0  0  0  0  0
   -4.4291    0.0666    0.1346 C   0  0  0  0  0  0  0  0  0  0  0  0
   -5.4422    0.3297   -0.9798 C   0  0  0  0  0  0  0  0  0  0  0  0
   -6.8655   -0.0389   -0.5557 C   0  0  0  0  0  0  0  0  0  0  0  0
   -7.1134    0.1055    0.9468 C   0  0  0  0  0  0  0  0  0  0  0  0
   -6.2437    1.1929    1.5615 C   0  0  0  0  0  0  0  0  0  0  0  0
   -4.7514    0.8985    1.3886 C   0  0  0  0  0  0  0  0  0  0  0  0
   -0.6229    1.3595   -0.1247 H   0  0  0  0  0  0  0  0  0  0  0  0
   -0.6564    0.0863   -1.3593 H   0  0  0  0  0  0  0  0  0  0  0  0
    0.5186   -0.2091    1.4629 H   0  0  0  0  0  0  0  0  0  0  0  0
    0.4845   -1.4825    0.2167 H   0  0  0  0  0  0  0  0  0  0  0  0
    4.2238   -0.3473   -1.1620 H   0  0  0  0  0  0  0  0  0  0  0  0
    4.2896    0.9389    0.0882 H   0  0  0  0  0  0  0  0  0  0  0  0
    4.9945   -0.8449    1.7558 H   0  0  0  0  0  0  0  0  0  0  0  0
    5.1000   -1.9942    0.4481 H   0  0  0  0  0  0  0  0  0  0  0  0
    7.2960   -1.0777    1.0992 H   0  0  0  0  0  0  0  0  0  0  0  0
    6.7579    0.5676    0.7414 H   0  0  0  0  0  0  0  0  0  0  0  0
   -2.9264    1.1374   -0.9258 H   0  0  0  0  0  0  0  0  0  0  0  0
   -4.4790   -0.9974    0.4023 H   0  0  0  0  0  0  0  0  0  0  0  0
   -5.4107    1.3917   -1.2585 H   0  0  0  0  0  0  0  0  0  0  0  0
   -5.1759   -0.2271   -1.8867 H   0  0  0  0  0  0  0  0  0  0  0  0
   -7.5711    0.5913   -1.1107 H   0  0  0  0  0  0  0  0  0  0  0  0
   -7.0844   -1.0728   -0.8494 H   0  0  0  0  0  0  0  0  0  0  0  0
   -8.1733    0.3193    1.1255 H   0  0  0  0  0  0  0  0  0  0  0  0
   -6.8999   -0.8491    1.4441 H   0  0  0  0  0  0  0  0  0  0  0  0
   -6.4743    1.3074    2.6267 H   0  0  0  0  0  0  0  0  0  0  0  0
   -6.4809    2.1532    1.0863 H   0  0  0  0  0  0  0  0  0  0  0  0
   -4.3812    0.3600    2.2705 H   0  0  0  0  0  0  0  0  0  0  0  0
   -4.2094    1.8529    1.3751 H   0  0  0  0  0  0  0  0  0  0  0  0
  1  2  2  0
  2  3  1  0
  3  4  1  0
  4  5  1  0
  5  6  2  0
  5  7  1  0
  7  8  1  0
  8  9  1  0
  9 10  1  0
 10 11  1  0
 11 12  1  0
 11 13  1  0
 11 14  1  0
 14 15  1  0
 14 16  1  0
 14 17  1  0
  2 18  1  0
 18 19  1  0
 19 20  1  0
 20 21  1  0
 21 22  1  0
 22 23  1  0
 23 24  1  0
 24 19  1  0
  3 25  1  0
  3 26  1  0
  4 27  1  0
  4 28  1  0
  8 29  1  0
  8 30  1  0
  9 31  1  0
  9 32  1  0
 10 33  1  0
 10 34  1  0
 18 35  1  0
 19 36  1  0
 20 37  1  0
 20 38  1  0
 21 39  1  0
 21 40  1  0
 22 41  1  0
 22 42  1  0
 23 43  1  0
 23 44  1  0
 24 45  1  0
 24 46  1  0
M  END
$$$$
