
     RDKit          3D

 34 35  0  0  0  0  0  0  0  0999 V2000
    0.0146   -2.8119    0.9541 C   0  0  0  0  0  0  0  0  0  0  0  0
   -0.5509   -1.4728    0.8433 N   0  0  0  0  0  0  0  0  0  0  0  0
   -0.0135   -0.3528    1.4913 C   0  0  0  0  0  0  0  0  0  0  0  0
   -0.5311    0.7560    1.3378 O   0  0  0  0  0  0  0  0  0  0  0  0
    1.2050   -0.5766    2.3868 C   0  0  0  0  0  0  0  0  0  0  0  0
    2.1198    0.9542    2.7341 S   0  0  0  0  0  0  0  0  0  0  0  0
    2.5237    1.4424    1.0745 C   0  0  0  0  0  0  0  0  0  0  0  0
    2.7546    2.7503    0.8747 N   0  0  0  0  0  0  0  0  0  0  0  0
    3.0553    3.1213   -0.3823 C   0  0  0  0  0  0  0  0  0  0  0  0
    3.1545    2.2382   -1.4294 C   0  0  0  0  0  0  0  0  0  0  0  0
    2.9250    0.9206   -1.1146 C   0  0  0  0  0  0  0  0  0  0  0  0
    2.6106    0.4916    0.1230 N   0  0  0  0  0  0  0  0  0  0  0  0
   -1.5595   -1.2635   -0.2123 C   0  0  0  0  0  0  0  0  0  0  0  0
   -2.8652   -0.5972    0.2973 C   0  0  0  0  0  0  0  0  0  0  0  0
   -3.1139    0.6899   -0.4798 C   0  0  0  0  0  0  0  0  0  0  0  0
   -2.3737    0.4049   -2.0647 S   0  0  0  0  0  6  0  0  0  0  0  0
   -1.9073    1.6513   -2.6326 O   0  0  0  0  0  0  0  0  0  0  0  0
   -3.2131   -0.5121   -2.8110 O   0  0  0  0  0  0  0  0  0  0  0  0
   -1.0020   -0.5052   -1.4240 C   0  0  0  0  0  0  0  0  0  0  0  0
    0.7343   -2.9536    0.1430 H   0  0  0  0  0  0  0  0  0  0  0  0
    0.5113   -2.9615    1.9146 H   0  0  0  0  0  0  0  0  0  0  0  0
   -0.7854   -3.5539    0.8747 H   0  0  0  0  0  0  0  0  0  0  0  0
    0.8553   -0.9904    3.3376 H   0  0  0  0  0  0  0  0  0  0  0  0
    1.9022   -1.2847    1.9316 H   0  0  0  0  0  0  0  0  0  0  0  0
    3.2191    4.1856   -0.5247 H   0  0  0  0  0  0  0  0  0  0  0  0
    3.3970    2.5598   -2.4325 H   0  0  0  0  0  0  0  0  0  0  0  0
    2.9869    0.1467   -1.8742 H   0  0  0  0  0  0  0  0  0  0  0  0
   -1.8551   -2.2617   -0.5642 H   0  0  0  0  0  0  0  0  0  0  0  0
   -2.8761   -0.4207    1.3779 H   0  0  0  0  0  0  0  0  0  0  0  0
   -3.6969   -1.2861    0.0971 H   0  0  0  0  0  0  0  0  0  0  0  0
   -4.1760    0.9115   -0.6030 H   0  0  0  0  0  0  0  0  0  0  0  0
   -2.6092    1.5445   -0.0224 H   0  0  0  0  0  0  0  0  0  0  0  0
   -0.2225    0.2148   -1.1636 H   0  0  0  0  0  0  0  0  0  0  0  0
   -0.6177   -1.1788   -2.1942 H   0  0  0  0  0  0  0  0  0  0  0  0
  1  2  1  0
  2  3  1  0
  3  4  2  0
  3  5  1  0
  5  6  1  0
  6  7  1  0
  7  8  2  0
  8  9  1  0
  9 10  2  0
 10 11  1  0
 11 12  2  0
  2 13  1  0
 13 14  1  0
 14 15  1  0
 15 16  1  0
 16 17  2  0
 16 18  2  0
 16 19  1  0
 12  7  1  0
 19 13  1  0
  1 20  1  0
  1 21  1  0
  1 22  1  0
  5 23  1  0
  5 24  1  0
  9 25  1  0
 10 26  1  0
 11 27  1  0
 13 28  1  0
 14 29  1  0
 14 30  1  0
 15 31  1  0
 15 32  1  0
 19 33  1  0
 19 34  1  0
M  END
$$$$
