
     RDKit          3D

 43 44  0  0  0  0  0  0  0  0999 V2000
   -5.5216    2.4715    1.1505 C   0  0  0  0  0  0  0  0  0  0  0  0
   -5.6340    1.3223    0.1666 C   0  0  0  0  0  0  0  0  0  0  0  0
   -4.4446    0.5192    0.2044 O   0  0  0  0  0  0  0  0  0  0  0  0
   -3.4163    0.9360   -0.5949 C   0  0  0  0  0  0  0  0  0  0  0  0
   -3.4809    1.9178   -1.3265 O   0  0  0  0  0  0  0  0  0  0  0  0
   -2.2213    0.0877   -0.4493 C   0  0  0  0  0  0  0  0  0  0  0  0
   -1.0132    0.5567   -0.7960 N   0  0  0  0  0  0  0  0  0  0  0  0
   -0.1092   -0.3509   -0.3527 N   0  0  0  0  0  0  0  0  0  0  0  0
    1.2770    0.0004   -0.3738 C   0  0  0  0  0  0  0  0  0  0  0  0
    2.2426   -0.6923    0.3643 C   0  0  0  0  0  0  0  0  0  0  0  0
    3.5917   -0.3067    0.3176 C   0  0  0  0  0  0  0  0  0  0  0  0
    3.9914    0.7807   -0.4571 C   0  0  0  0  0  0  0  0  0  0  0  0
    5.2669    1.2536   -0.5874 O   0  0  0  0  0  0  0  0  0  0  0  0
    6.2926    0.5667    0.1268 C   0  0  0  0  0  0  0  0  0  0  0  0
    7.6128    1.2537   -0.1732 C   0  0  0  0  0  0  0  0  0  0  0  0
    3.0291    1.4885   -1.1757 C   0  0  0  0  0  0  0  0  0  0  0  0
    1.6835    1.1108   -1.1313 C   0  0  0  0  0  0  0  0  0  0  0  0
   -0.7468   -1.5155    0.0541 C   0  0  0  0  0  0  0  0  0  0  0  0
   -0.0748   -2.8071    0.3658 C   0  0  0  0  0  0  0  0  0  0  0  0
   -2.1124   -1.2425    0.0396 C   0  0  0  0  0  0  0  0  0  0  0  0
   -3.1518   -2.1892    0.4297 C   0  0  0  0  0  0  0  0  0  0  0  0
   -4.3775   -2.3415   -0.4360 C   0  0  0  0  0  0  0  0  0  0  0  0
   -3.0144   -2.9011    1.4248 O   0  0  0  0  0  0  0  0  0  0  0  0
   -5.3147    2.0959    2.1580 H   0  0  0  0  0  0  0  0  0  0  0  0
   -4.6958    3.1386    0.8838 H   0  0  0  0  0  0  0  0  0  0  0  0
   -6.4470    3.0538    1.1739 H   0  0  0  0  0  0  0  0  0  0  0  0
   -5.8440    1.6787   -0.8483 H   0  0  0  0  0  0  0  0  0  0  0  0
   -6.4661    0.6719    0.4556 H   0  0  0  0  0  0  0  0  0  0  0  0
    1.9897   -1.5099    1.0281 H   0  0  0  0  0  0  0  0  0  0  0  0
    4.3017   -0.8730    0.9117 H   0  0  0  0  0  0  0  0  0  0  0  0
    6.1019    0.6140    1.2052 H   0  0  0  0  0  0  0  0  0  0  0  0
    6.3505   -0.4778   -0.2003 H   0  0  0  0  0  0  0  0  0  0  0  0
    7.5771    2.3059    0.1281 H   0  0  0  0  0  0  0  0  0  0  0  0
    8.4362    0.7631    0.3533 H   0  0  0  0  0  0  0  0  0  0  0  0
    7.8205    1.2369   -1.2483 H   0  0  0  0  0  0  0  0  0  0  0  0
    3.3254    2.3455   -1.7761 H   0  0  0  0  0  0  0  0  0  0  0  0
    0.9654    1.6923   -1.7079 H   0  0  0  0  0  0  0  0  0  0  0  0
   -0.7502   -3.6516    0.1917 H   0  0  0  0  0  0  0  0  0  0  0  0
    0.7925   -2.9791   -0.2785 H   0  0  0  0  0  0  0  0  0  0  0  0
    0.2304   -2.8416    1.4158 H   0  0  0  0  0  0  0  0  0  0  0  0
   -4.2787   -1.7946   -1.3769 H   0  0  0  0  0  0  0  0  0  0  0  0
   -4.5062   -3.4007   -0.6786 H   0  0  0  0  0  0  0  0  0  0  0  0
   -5.2572   -1.9873    0.1067 H   0  0  0  0  0  0  0  0  0  0  0  0
  1  2  1  0
  2  3  1  0
  3  4  1  0
  4  5  2  0
  4  6  1  0
  6  7  2  0
  7  8  1  0
  8  9  1  0
  9 10  2  0
 10 11  1  0
 11 12  2  0
 12 13  1  0
 13 14  1  0
 14 15  1  0
 12 16  1  0
 16 17  2  0
  8 18  1  0
 18 19  1  0
 18 20  2  0
 20 21  1  0
 21 22  1  0
 21 23  2  0
 20  6  1  0
 17  9  1  0
  1 24  1  0
  1 25  1  0
  1 26  1  0
  2 27  1  0
  2 28  1  0
 10 29  1  0
 11 30  1  0
 14 31  1  0
 14 32  1  0
 15 33  1  0
 15 34  1  0
 15 35  1  0
 16 36  1  0
 17 37  1  0
 19 38  1  0
 19 39  1  0
 19 40  1  0
 22 41  1  0
 22 42  1  0
 22 43  1  0
M  END
$$$$
