
     RDKit          3D

 59 62  0  0  0  0  0  0  0  0999 V2000
    7.9208    2.9730    3.2172 C   0  0  0  0  0  0  0  0  0  0  0  0
    6.4099    3.0821    3.0874 C   0  0  0  0  0  0  0  0  0  0  0  0
    6.0083    3.0407    1.7190 O   0  0  0  0  0  0  0  0  0  0  0  0
    5.8115    1.8287    1.1219 C   0  0  0  0  0  0  0  0  0  0  0  0
    5.3810    1.9038   -0.2041 C   0  0  0  0  0  0  0  0  0  0  0  0
    5.1455    0.7445   -0.9468 C   0  0  0  0  0  0  0  0  0  0  0  0
    5.3394   -0.5153   -0.3701 C   0  0  0  0  0  0  0  0  0  0  0  0
    5.0712   -1.7748   -1.1610 C   0  0  0  0  0  0  0  0  0  0  0  0
    3.7035   -2.3915   -0.8599 C   0  0  0  0  0  0  0  0  0  0  0  0
    2.6130   -1.5244   -1.2733 N   0  0  0  0  0  0  0  0  0  0  0  0
    1.5864   -1.9580   -2.0850 C   0  0  0  0  0  0  0  0  0  0  0  0
    1.5302   -3.0884   -2.5621 O   0  0  0  0  0  0  0  0  0  0  0  0
    0.5191   -0.9121   -2.3516 C   0  0  0  0  0  0  0  0  0  0  0  0
   -0.7167   -1.1125   -1.5091 C   0  0  0  0  0  0  0  0  0  0  0  0
   -0.9389   -0.3372   -0.3637 C   0  0  0  0  0  0  0  0  0  0  0  0
   -2.0807   -0.5424    0.4157 C   0  0  0  0  0  0  0  0  0  0  0  0
   -3.0187   -1.5156    0.0619 C   0  0  0  0  0  0  0  0  0  0  0  0
   -4.1610   -1.7196    0.8456 N   0  0  0  0  0  0  0  0  0  0  0  0
   -5.1825   -0.9747    0.6305 C   0  0  0  0  0  0  0  0  0  0  0  0
   -5.4023    0.0244   -0.2980 N   0  0  0  0  0  0  0  0  0  0  0  0
   -6.8135    0.2770   -0.4876 C   0  0  0  0  0  0  0  0  0  0  0  0
   -7.2307    1.6150   -1.0464 C   0  0  0  0  0  0  0  0  0  0  0  0
   -8.9606    1.6832   -0.5413 S   0  0  0  0  0  6  0  0  0  0  0  0
   -9.2080    2.9649    0.0810 O   0  0  0  0  0  0  0  0  0  0  0  0
   -9.7686    1.1854   -1.6334 O   0  0  0  0  0  0  0  0  0  0  0  0
   -8.8879    0.4096    0.7409 C   0  0  0  0  0  0  0  0  0  0  0  0
   -7.3971    0.2589    0.9288 C   0  0  0  0  0  0  0  0  0  0  0  0
   -6.6459   -1.2318    1.6221 S   0  0  0  0  0  0  0  0  0  0  0  0
   -2.7863   -2.3080   -1.0638 C   0  0  0  0  0  0  0  0  0  0  0  0
   -1.6466   -2.1075   -1.8463 C   0  0  0  0  0  0  0  0  0  0  0  0
    5.7680   -0.5886    0.9605 C   0  0  0  0  0  0  0  0  0  0  0  0
    6.0040    0.5761    1.7017 C   0  0  0  0  0  0  0  0  0  0  0  0
    8.2880    2.0059    2.8580 H   0  0  0  0  0  0  0  0  0  0  0  0
    8.4152    3.7437    2.6136 H   0  0  0  0  0  0  0  0  0  0  0  0
    8.2268    3.0947    4.2603 H   0  0  0  0  0  0  0  0  0  0  0  0
    6.1020    4.0635    3.4681 H   0  0  0  0  0  0  0  0  0  0  0  0
    5.8814    2.3444    3.7024 H   0  0  0  0  0  0  0  0  0  0  0  0
    5.2329    2.8775   -0.6643 H   0  0  0  0  0  0  0  0  0  0  0  0
    4.8139    0.8345   -1.9780 H   0  0  0  0  0  0  0  0  0  0  0  0
    5.1564   -1.5599   -2.2347 H   0  0  0  0  0  0  0  0  0  0  0  0
    5.8568   -2.5076   -0.9348 H   0  0  0  0  0  0  0  0  0  0  0  0
    3.6258   -3.3590   -1.3679 H   0  0  0  0  0  0  0  0  0  0  0  0
    3.5786   -2.5704    0.2150 H   0  0  0  0  0  0  0  0  0  0  0  0
    2.5114   -0.6479   -0.7809 H   0  0  0  0  0  0  0  0  0  0  0  0
    0.9296    0.0906   -2.1963 H   0  0  0  0  0  0  0  0  0  0  0  0
    0.2568   -0.9592   -3.4152 H   0  0  0  0  0  0  0  0  0  0  0  0
   -0.2260    0.4268   -0.0614 H   0  0  0  0  0  0  0  0  0  0  0  0
   -2.2414    0.0534    1.3106 H   0  0  0  0  0  0  0  0  0  0  0  0
   -4.8048   -0.0267   -1.1150 H   0  0  0  0  0  0  0  0  0  0  0  0
   -7.2417   -0.5242   -1.1093 H   0  0  0  0  0  0  0  0  0  0  0  0
   -6.6979    2.4530   -0.5869 H   0  0  0  0  0  0  0  0  0  0  0  0
   -7.1595    1.6707   -2.1343 H   0  0  0  0  0  0  0  0  0  0  0  0
   -9.3659   -0.4933    0.3492 H   0  0  0  0  0  0  0  0  0  0  0  0
   -9.4002    0.7645    1.6378 H   0  0  0  0  0  0  0  0  0  0  0  0
   -7.0143    1.1063    1.5134 H   0  0  0  0  0  0  0  0  0  0  0  0
   -3.4895   -3.0956   -1.3243 H   0  0  0  0  0  0  0  0  0  0  0  0
   -1.4754   -2.7465   -2.7121 H   0  0  0  0  0  0  0  0  0  0  0  0
    5.9288   -1.5560    1.4322 H   0  0  0  0  0  0  0  0  0  0  0  0
    6.3464    0.4625    2.7239 H   0  0  0  0  0  0  0  0  0  0  0  0
  1  2  1  0
  2  3  1  0
  3  4  1  0
  4  5  2  0
  5  6  1  0
  6  7  2  0
  7  8  1  0
  8  9  1  0
  9 10  1  0
 10 11  1  0
 11 12  2  0
 11 13  1  0
 13 14  1  0
 14 15  2  0
 15 16  1  0
 16 17  2  0
 17 18  1  0
 18 19  2  3
 19 20  1  0
 20 21  1  0
 21 22  1  0
 22 23  1  0
 23 24  2  0
 23 25  2  0
 23 26  1  0
 26 27  1  0
 27 28  1  0
 17 29  1  0
 29 30  2  0
  7 31  1  0
 31 32  2  0
 32  4  1  0
 30 14  1  0
 28 19  1  0
 27 21  1  0
  1 33  1  0
  1 34  1  0
  1 35  1  0
  2 36  1  0
  2 37  1  0
  5 38  1  0
  6 39  1  0
  8 40  1  0
  8 41  1  0
  9 42  1  0
  9 43  1  0
 10 44  1  0
 13 45  1  0
 13 46  1  0
 15 47  1  0
 16 48  1  0
 20 49  1  0
 21 50  1  0
 22 51  1  0
 22 52  1  0
 26 53  1  0
 26 54  1  0
 27 55  1  0
 29 56  1  0
 30 57  1  0
 31 58  1  0
 32 59  1  0
M  END
$$$$
