
     RDKit          3D

 36 38  0  0  0  0  0  0  0  0999 V2000
   -0.7653   -2.3650    2.5915 C   0  0  0  0  0  0  0  0  0  0  0  0
   -1.7186   -1.4771    1.8744 C   0  0  0  0  0  0  0  0  0  0  0  0
   -3.0330   -1.1848    2.1815 C   0  0  0  0  0  0  0  0  0  0  0  0
   -3.5324   -0.2855    1.2039 C   0  0  0  0  0  0  0  0  0  0  0  0
   -4.7764    0.3459    1.0073 C   0  0  0  0  0  0  0  0  0  0  0  0
   -4.9489    1.2029   -0.0846 C   0  0  0  0  0  0  0  0  0  0  0  0
   -3.9036    1.4344   -0.9734 C   0  0  0  0  0  0  0  0  0  0  0  0
   -2.6606    0.8183   -0.7989 C   0  0  0  0  0  0  0  0  0  0  0  0
   -2.4970   -0.0423    0.3002 C   0  0  0  0  0  0  0  0  0  0  0  0
   -1.4053   -0.7782    0.7269 N   0  0  0  0  0  0  0  0  0  0  0  0
   -0.1163   -0.7896    0.0497 C   0  0  0  0  0  0  0  0  0  0  0  0
    0.7586    0.3861    0.4821 C   0  0  0  0  0  0  0  0  0  0  0  0
    2.0647    0.3760   -0.1472 N   0  0  0  0  0  0  0  0  0  0  0  0
    2.2470    0.7194   -1.4704 C   0  0  0  0  0  0  0  0  0  0  0  0
    1.3070    0.9996   -2.2090 O   0  0  0  0  0  0  0  0  0  0  0  0
    3.6295    0.7108   -1.8977 C   0  0  0  0  0  0  0  0  0  0  0  0
    4.2043    0.9933   -3.1223 C   0  0  0  0  0  0  0  0  0  0  0  0
    5.6015    0.8234   -2.9659 C   0  0  0  0  0  0  0  0  0  0  0  0
    5.7980    0.4475   -1.6574 C   0  0  0  0  0  0  0  0  0  0  0  0
    7.4850    0.0760   -0.8615 Br  0  0  0  0  0  0  0  0  0  0  0  0
    4.6101    0.3754   -0.9994 O   0  0  0  0  0  0  0  0  0  0  0  0
   -1.2014   -2.7305    3.5270 H   0  0  0  0  0  0  0  0  0  0  0  0
   -0.5128   -3.2351    1.9773 H   0  0  0  0  0  0  0  0  0  0  0  0
    0.1560   -1.8295    2.8409 H   0  0  0  0  0  0  0  0  0  0  0  0
   -3.5829   -1.5781    3.0268 H   0  0  0  0  0  0  0  0  0  0  0  0
   -5.5958    0.1697    1.6975 H   0  0  0  0  0  0  0  0  0  0  0  0
   -5.9079    1.6909   -0.2381 H   0  0  0  0  0  0  0  0  0  0  0  0
   -4.0528    2.1034   -1.8178 H   0  0  0  0  0  0  0  0  0  0  0  0
   -1.8529    1.0081   -1.5003 H   0  0  0  0  0  0  0  0  0  0  0  0
    0.3800   -1.7421    0.2647 H   0  0  0  0  0  0  0  0  0  0  0  0
   -0.3055   -0.7823   -1.0293 H   0  0  0  0  0  0  0  0  0  0  0  0
    0.9254    0.3651    1.5647 H   0  0  0  0  0  0  0  0  0  0  0  0
    0.2726    1.3390    0.2426 H   0  0  0  0  0  0  0  0  0  0  0  0
    2.8950    0.1892    0.4052 H   0  0  0  0  0  0  0  0  0  0  0  0
    3.6667    1.2866   -4.0145 H   0  0  0  0  0  0  0  0  0  0  0  0
    6.3680    0.9591   -3.7162 H   0  0  0  0  0  0  0  0  0  0  0  0
  1  2  1  0
  2  3  2  0
  3  4  1  0
  4  5  2  0
  5  6  1  0
  6  7  2  0
  7  8  1  0
  8  9  2  0
  9 10  1  0
 10 11  1  0
 11 12  1  0
 12 13  1  0
 13 14  1  0
 14 15  2  0
 14 16  1  0
 16 17  2  0
 17 18  1  0
 18 19  2  0
 19 20  1  0
 19 21  1  0
 10  2  1  0
 21 16  1  0
  9  4  1  0
  1 22  1  0
  1 23  1  0
  1 24  1  0
  3 25  1  0
  5 26  1  0
  6 27  1  0
  7 28  1  0
  8 29  1  0
 11 30  1  0
 11 31  1  0
 12 32  1  0
 12 33  1  0
 13 34  1  0
 17 35  1  0
 18 36  1  0
M  END
$$$$
