
     RDKit          3D

 56 59  0  0  0  0  0  0  0  0999 V2000
    6.2192    2.3831   -1.6475 C   0  0  0  0  0  0  0  0  0  0  0  0
    5.0235    1.8150   -0.9052 C   0  0  0  0  0  0  0  0  0  0  0  0
    4.9457    0.4228   -1.1980 O   0  0  0  0  0  0  0  0  0  0  0  0
    3.8903   -0.2856   -0.6773 C   0  0  0  0  0  0  0  0  0  0  0  0
    2.9364    0.2453    0.2001 C   0  0  0  0  0  0  0  0  0  0  0  0
    1.8886   -0.5507    0.6790 C   0  0  0  0  0  0  0  0  0  0  0  0
    0.9240    0.0211    1.6232 C   0  0  0  0  0  0  0  0  0  0  0  0
   -0.3841    0.2311    1.4104 C   0  0  0  0  0  0  0  0  0  0  0  0
   -1.4011    0.8990    2.6222 S   0  0  0  0  0  0  0  0  0  0  0  0
   -2.8477    0.7250    1.6424 C   0  0  0  0  0  0  0  0  0  0  0  0
   -4.0527    0.9664    2.0521 N   0  0  0  0  0  0  0  0  0  0  0  0
   -4.3007    1.4311    3.3493 C   0  0  0  0  0  0  0  0  0  0  0  0
   -4.3267    2.8027    3.6162 C   0  0  0  0  0  0  0  0  0  0  0  0
   -4.6000    3.2670    4.9045 C   0  0  0  0  0  0  0  0  0  0  0  0
   -4.8636    2.3599    5.9302 C   0  0  0  0  0  0  0  0  0  0  0  0
   -4.8616    0.9908    5.6666 C   0  0  0  0  0  0  0  0  0  0  0  0
   -4.5883    0.5296    4.3772 C   0  0  0  0  0  0  0  0  0  0  0  0
   -2.5264    0.2459    0.3797 N   0  0  0  0  0  0  0  0  0  0  0  0
   -3.4998    0.0495   -0.6662 C   0  0  0  0  0  0  0  0  0  0  0  0
   -4.6790    0.8108   -0.7365 C   0  0  0  0  0  0  0  0  0  0  0  0
   -5.6195    0.6156   -1.7560 C   0  0  0  0  0  0  0  0  0  0  0  0
   -5.4011   -0.3459   -2.7347 C   0  0  0  0  0  0  0  0  0  0  0  0
   -4.2416   -1.1096   -2.6941 C   0  0  0  0  0  0  0  0  0  0  0  0
   -3.3041   -0.9131   -1.6725 C   0  0  0  0  0  0  0  0  0  0  0  0
   -1.1744   -0.0282    0.1691 C   0  0  0  0  0  0  0  0  0  0  0  0
   -0.6384   -0.3818   -0.8737 O   0  0  0  0  0  0  0  0  0  0  0  0
    1.8087   -1.8892    0.2892 C   0  0  0  0  0  0  0  0  0  0  0  0
    2.7560   -2.4284   -0.5853 C   0  0  0  0  0  0  0  0  0  0  0  0
    3.7994   -1.6352   -1.0737 C   0  0  0  0  0  0  0  0  0  0  0  0
    4.7794   -2.0792   -1.9264 O   0  0  0  0  0  0  0  0  0  0  0  0
    4.6433   -3.3864   -2.4628 C   0  0  0  0  0  0  0  0  0  0  0  0
    5.7598   -3.6838   -3.4440 C   0  0  0  0  0  0  0  0  0  0  0  0
    5.6341   -4.2567   -4.5167 O   0  0  0  0  0  0  0  0  0  0  0  0
    6.9848   -3.3214   -3.0118 O   0  0  0  0  0  0  0  0  0  0  0  0
    7.1403    1.8749   -1.3431 H   0  0  0  0  0  0  0  0  0  0  0  0
    6.3256    3.4540   -1.4529 H   0  0  0  0  0  0  0  0  0  0  0  0
    6.1121    2.2291   -2.7261 H   0  0  0  0  0  0  0  0  0  0  0  0
    4.1166    2.3293   -1.2439 H   0  0  0  0  0  0  0  0  0  0  0  0
    5.1657    1.9683    0.1708 H   0  0  0  0  0  0  0  0  0  0  0  0
    2.9884    1.2797    0.5228 H   0  0  0  0  0  0  0  0  0  0  0  0
    1.3655    0.2909    2.5817 H   0  0  0  0  0  0  0  0  0  0  0  0
   -4.1330    3.5124    2.8171 H   0  0  0  0  0  0  0  0  0  0  0  0
   -4.6105    4.3350    5.1054 H   0  0  0  0  0  0  0  0  0  0  0  0
   -5.0793    2.7203    6.9328 H   0  0  0  0  0  0  0  0  0  0  0  0
   -5.0804    0.2826    6.4611 H   0  0  0  0  0  0  0  0  0  0  0  0
   -4.5997   -0.5374    4.1711 H   0  0  0  0  0  0  0  0  0  0  0  0
   -4.8888    1.6040   -0.0242 H   0  0  0  0  0  0  0  0  0  0  0  0
   -6.5193    1.2255   -1.7830 H   0  0  0  0  0  0  0  0  0  0  0  0
   -6.1291   -0.4964   -3.5270 H   0  0  0  0  0  0  0  0  0  0  0  0
   -4.0590   -1.8635   -3.4555 H   0  0  0  0  0  0  0  0  0  0  0  0
   -2.4299   -1.5594   -1.6779 H   0  0  0  0  0  0  0  0  0  0  0  0
    1.0061   -2.5254    0.6554 H   0  0  0  0  0  0  0  0  0  0  0  0
    2.6480   -3.4715   -0.8618 H   0  0  0  0  0  0  0  0  0  0  0  0
    3.6988   -3.4684   -3.0139 H   0  0  0  0  0  0  0  0  0  0  0  0
    4.6960   -4.1446   -1.6733 H   0  0  0  0  0  0  0  0  0  0  0  0
    7.5836   -3.5558   -3.7494 H   0  0  0  0  0  0  0  0  0  0  0  0
  1  2  1  0
  2  3  1  0
  3  4  1  0
  4  5  2  0
  5  6  1  0
  6  7  1  0
  7  8  2  3
  8  9  1  0
  9 10  1  0
 10 11  2  3
 11 12  1  0
 12 13  2  0
 13 14  1  0
 14 15  2  0
 15 16  1  0
 16 17  2  0
 10 18  1  0
 18 19  1  0
 19 20  2  0
 20 21  1  0
 21 22  2  0
 22 23  1  0
 23 24  2  0
 18 25  1  0
 25 26  2  0
  6 27  2  0
 27 28  1  0
 28 29  2  0
 29 30  1  0
 30 31  1  0
 31 32  1  0
 32 33  2  0
 32 34  1  0
 29  4  1  0
 25  8  1  0
 17 12  1  0
 24 19  1  0
  1 35  1  0
  1 36  1  0
  1 37  1  0
  2 38  1  0
  2 39  1  0
  5 40  1  0
  7 41  1  0
 13 42  1  0
 14 43  1  0
 15 44  1  0
 16 45  1  0
 17 46  1  0
 20 47  1  0
 21 48  1  0
 22 49  1  0
 23 50  1  0
 24 51  1  0
 27 52  1  0
 28 53  1  0
 31 54  1  0
 31 55  1  0
 34 56  1  0
M  END
$$$$
