
     RDKit          3D

 37 39  0  0  0  0  0  0  0  0999 V2000
   -2.0829    2.3505   -2.4911 O   0  0  0  0  0  0  0  0  0  0  0  0
   -2.3095    1.1875   -2.7816 C   0  0  0  0  0  0  0  0  0  0  0  0
   -3.3411    0.8830   -3.5997 O   0  0  0  0  0  0  0  0  0  0  0  0
   -1.5394   -0.0323   -2.3628 C   0  0  0  0  0  0  0  0  0  0  0  0
   -0.5101    0.2657   -1.2550 C   0  0  0  0  0  0  0  0  0  0  0  0
   -1.1422    0.2149    0.1375 C   0  0  0  0  0  0  0  0  0  0  0  0
   -1.9737    1.2624    0.5714 C   0  0  0  0  0  0  0  0  0  0  0  0
   -2.5748    1.2327    1.8310 C   0  0  0  0  0  0  0  0  0  0  0  0
   -2.3390    0.1635    2.6882 C   0  0  0  0  0  0  0  0  0  0  0  0
   -1.4926   -0.8695    2.2915 C   0  0  0  0  0  0  0  0  0  0  0  0
   -0.8968   -0.8568    1.0205 C   0  0  0  0  0  0  0  0  0  0  0  0
    0.0777   -1.9515    0.6690 C   0  0  0  0  0  0  0  0  0  0  0  0
    0.3415   -2.0467   -0.8263 C   0  0  0  0  0  0  0  0  0  0  0  0
    0.6015   -0.7191   -1.4151 N   0  0  0  0  0  0  0  0  0  0  0  0
    2.1868   -0.1518   -1.5105 S   0  0  0  0  0  6  0  0  0  0  0  0
    2.2003    1.0645   -2.2932 O   0  0  0  0  0  0  0  0  0  0  0  0
    3.0280   -1.2747   -1.8735 O   0  0  0  0  0  0  0  0  0  0  0  0
    2.7626    0.2971    0.1166 C   0  0  0  0  0  0  0  0  0  0  0  0
    3.6794   -0.3050    0.9603 C   0  0  0  0  0  0  0  0  0  0  0  0
    3.8249    0.3923    2.1936 C   0  0  0  0  0  0  0  0  0  0  0  0
    3.0152    1.5046    2.2503 C   0  0  0  0  0  0  0  0  0  0  0  0
    2.1002    1.7088    0.8186 S   0  0  0  0  0  0  0  0  0  0  0  0
   -3.7368    1.7560   -3.8091 H   0  0  0  0  0  0  0  0  0  0  0  0
   -2.2486   -0.8003   -2.0349 H   0  0  0  0  0  0  0  0  0  0  0  0
   -1.0285   -0.3938   -3.2639 H   0  0  0  0  0  0  0  0  0  0  0  0
   -0.1097    1.2760   -1.3946 H   0  0  0  0  0  0  0  0  0  0  0  0
   -2.1534    2.1303   -0.0598 H   0  0  0  0  0  0  0  0  0  0  0  0
   -3.2193    2.0506    2.1432 H   0  0  0  0  0  0  0  0  0  0  0  0
   -2.7965    0.1444    3.6728 H   0  0  0  0  0  0  0  0  0  0  0  0
   -1.2908   -1.6848    2.9847 H   0  0  0  0  0  0  0  0  0  0  0  0
   -0.3038   -2.9192    1.0199 H   0  0  0  0  0  0  0  0  0  0  0  0
    1.0143   -1.7545    1.2036 H   0  0  0  0  0  0  0  0  0  0  0  0
   -0.5289   -2.4823   -1.3346 H   0  0  0  0  0  0  0  0  0  0  0  0
    1.1672   -2.7383   -1.0199 H   0  0  0  0  0  0  0  0  0  0  0  0
    4.2150   -1.2102    0.6929 H   0  0  0  0  0  0  0  0  0  0  0  0
    4.4869    0.0928    2.9976 H   0  0  0  0  0  0  0  0  0  0  0  0
    2.9170    2.2131    3.0620 H   0  0  0  0  0  0  0  0  0  0  0  0
  1  2  2  0
  2  3  1  0
  2  4  1  0
  4  5  1  0
  5  6  1  0
  6  7  2  0
  7  8  1  0
  8  9  2  0
  9 10  1  0
 10 11  2  0
 11 12  1  0
 12 13  1  0
 13 14  1  0
 14 15  1  0
 15 16  2  0
 15 17  2  0
 15 18  1  0
 18 19  2  0
 19 20  1  0
 20 21  2  0
 21 22  1  0
 14  5  1  0
 22 18  1  0
 11  6  1  0
  3 23  1  0
  4 24  1  0
  4 25  1  0
  5 26  1  0
  7 27  1  0
  8 28  1  0
  9 29  1  0
 10 30  1  0
 12 31  1  0
 12 32  1  0
 13 33  1  0
 13 34  1  0
 19 35  1  0
 20 36  1  0
 21 37  1  0
M  END
$$$$
