
     RDKit          3D

 33 35  0  0  0  0  0  0  0  0999 V2000
    4.1610    1.7104   -0.7834 C   0  0  0  0  0  0  0  0  0  0  0  0
    3.3861    0.5962   -0.2040 C   0  0  0  0  0  0  0  0  0  0  0  0
    3.6774   -0.3877    0.7090 C   0  0  0  0  0  0  0  0  0  0  0  0
    2.4985   -1.1588    0.8409 C   0  0  0  0  0  0  0  0  0  0  0  0
    1.5369   -0.6201   -0.0092 C   0  0  0  0  0  0  0  0  0  0  0  0
    0.1744   -1.0219   -0.2423 C   0  0  0  0  0  0  0  0  0  0  0  0
   -0.9566   -0.1342    0.0916 C   0  0  0  0  0  0  0  0  0  0  0  0
   -2.2182   -0.5176   -0.1753 C   0  0  0  0  0  0  0  0  0  0  0  0
   -2.4503   -1.7438   -0.7424 N   0  0  0  0  0  0  0  0  0  0  0  0
   -1.4732   -2.6487   -1.0834 C   0  0  0  0  0  0  0  0  0  0  0  0
   -1.9947   -4.0996   -1.7529 S   0  0  0  0  0  0  0  0  0  0  0  0
   -0.0541   -2.2307   -0.8168 C   0  0  0  0  0  0  0  0  0  0  0  0
    1.0006   -3.1180   -1.1962 C   0  0  0  0  0  0  0  0  0  0  0  0
    1.8690   -3.8342   -1.4820 N   0  0  0  0  0  0  0  0  0  0  0  0
   -3.4305    0.3333    0.1036 C   0  0  0  0  0  0  0  0  0  0  0  0
   -3.0848    1.7916    0.4010 C   0  0  0  0  0  0  0  0  0  0  0  0
   -1.8953    1.8811    1.3465 C   0  0  0  0  0  0  0  0  0  0  0  0
   -0.6616    1.2007    0.7460 C   0  0  0  0  0  0  0  0  0  0  0  0
    2.1030    0.4706   -0.6320 O   0  0  0  0  0  0  0  0  0  0  0  0
    3.6793    2.6676   -0.5615 H   0  0  0  0  0  0  0  0  0  0  0  0
    4.2325    1.6025   -1.8700 H   0  0  0  0  0  0  0  0  0  0  0  0
    5.1762    1.7369   -0.3756 H   0  0  0  0  0  0  0  0  0  0  0  0
    4.6212   -0.5342    1.2157 H   0  0  0  0  0  0  0  0  0  0  0  0
    2.3616   -2.0200    1.4813 H   0  0  0  0  0  0  0  0  0  0  0  0
   -3.4075   -2.0271   -0.9346 H   0  0  0  0  0  0  0  0  0  0  0  0
   -3.9664   -0.0956    0.9599 H   0  0  0  0  0  0  0  0  0  0  0  0
   -4.1170    0.3057   -0.7514 H   0  0  0  0  0  0  0  0  0  0  0  0
   -3.9540    2.2957    0.8380 H   0  0  0  0  0  0  0  0  0  0  0  0
   -2.8491    2.3144   -0.5348 H   0  0  0  0  0  0  0  0  0  0  0  0
   -1.6664    2.9300    1.5662 H   0  0  0  0  0  0  0  0  0  0  0  0
   -2.1505    1.4041    2.3014 H   0  0  0  0  0  0  0  0  0  0  0  0
   -0.2207    1.8686   -0.0050 H   0  0  0  0  0  0  0  0  0  0  0  0
    0.0730    1.0830    1.5517 H   0  0  0  0  0  0  0  0  0  0  0  0
  1  2  1  0
  2  3  2  0
  3  4  1  0
  4  5  2  0
  5  6  1  0
  6  7  1  0
  7  8  2  0
  8  9  1  0
  9 10  1  0
 10 11  2  0
 10 12  1  0
 12 13  1  0
 13 14  3  0
  8 15  1  0
 15 16  1  0
 16 17  1  0
 17 18  1  0
  5 19  1  0
 19  2  1  0
 12  6  2  0
 18  7  1  0
  1 20  1  0
  1 21  1  0
  1 22  1  0
  3 23  1  0
  4 24  1  0
  9 25  1  0
 15 26  1  0
 15 27  1  0
 16 28  1  0
 16 29  1  0
 17 30  1  0
 17 31  1  0
 18 32  1  0
 18 33  1  0
M  END
$$$$
