
     RDKit          3D

 53 56  0  0  0  0  0  0  0  0999 V2000
   -0.6649   -3.9254   -2.4656 C   0  0  0  0  0  0  0  0  0  0  0  0
    0.0162   -2.5645   -2.3984 C   0  0  0  0  0  0  0  0  0  0  0  0
   -0.1835   -1.8874   -1.1081 N   0  0  0  0  0  0  0  0  0  0  0  0
    0.6333   -2.2986   -0.0415 C   0  0  0  0  0  0  0  0  0  0  0  0
    1.4920   -3.1802   -0.1709 O   0  0  0  0  0  0  0  0  0  0  0  0
    0.5036   -1.5775    1.2969 C   0  0  0  0  0  0  0  0  0  0  0  0
    1.0949    0.1426    1.2116 S   0  0  0  0  0  0  0  0  0  0  0  0
    2.6942   -0.0968    0.5874 C   0  0  0  0  0  0  0  0  0  0  0  0
    3.0177   -0.1354   -0.6877 N   0  0  0  0  0  0  0  0  0  0  0  0
    4.3827   -0.3377   -0.7675 N   0  0  0  0  0  0  0  0  0  0  0  0
    4.8514   -0.4089    0.4625 C   0  0  0  0  0  0  0  0  0  0  0  0
    6.1631   -0.5968    0.9846 C   0  0  0  0  0  0  0  0  0  0  0  0
    6.3499   -0.6126    2.3217 C   0  0  0  0  0  0  0  0  0  0  0  0
    5.2404   -0.4496    3.2511 C   0  0  0  0  0  0  0  0  0  0  0  0
    4.0003   -0.2730    2.7602 C   0  0  0  0  0  0  0  0  0  0  0  0
    3.8110   -0.2553    1.3746 N   0  0  0  0  0  0  0  0  0  0  0  0
   -1.4040   -1.2313   -0.9174 C   0  0  0  0  0  0  0  0  0  0  0  0
   -1.6634   -0.0064   -1.4391 C   0  0  0  0  0  0  0  0  0  0  0  0
   -0.6701    0.6818   -2.1280 N   0  0  0  0  0  0  0  0  0  0  0  0
   -2.9150    0.5763   -1.2340 N   0  0  0  0  0  0  0  0  0  0  0  0
   -3.1320    2.0014   -1.5227 C   0  0  0  0  0  0  0  0  0  0  0  0
   -2.7602    2.8894   -0.3513 C   0  0  0  0  0  0  0  0  0  0  0  0
   -1.4501    3.3692   -0.2011 C   0  0  0  0  0  0  0  0  0  0  0  0
   -1.1025    4.1502    0.9020 C   0  0  0  0  0  0  0  0  0  0  0  0
   -2.0589    4.4596    1.8695 C   0  0  0  0  0  0  0  0  0  0  0  0
   -3.3631    3.9926    1.7316 C   0  0  0  0  0  0  0  0  0  0  0  0
   -3.7114    3.2097    0.6299 C   0  0  0  0  0  0  0  0  0  0  0  0
   -3.9610   -0.0887   -0.6054 C   0  0  0  0  0  0  0  0  0  0  0  0
   -5.0719    0.3927   -0.3961 O   0  0  0  0  0  0  0  0  0  0  0  0
   -3.7064   -1.3610   -0.1886 N   0  0  0  0  0  0  0  0  0  0  0  0
   -2.4754   -1.9338   -0.1494 C   0  0  0  0  0  0  0  0  0  0  0  0
   -2.2708   -2.9716    0.4737 O   0  0  0  0  0  0  0  0  0  0  0  0
   -0.3944   -4.4387   -3.3965 H   0  0  0  0  0  0  0  0  0  0  0  0
   -0.3761   -4.5637   -1.6236 H   0  0  0  0  0  0  0  0  0  0  0  0
   -1.7543   -3.8179   -2.4487 H   0  0  0  0  0  0  0  0  0  0  0  0
    1.0953   -2.6863   -2.5673 H   0  0  0  0  0  0  0  0  0  0  0  0
   -0.3615   -1.9300   -3.2090 H   0  0  0  0  0  0  0  0  0  0  0  0
   -0.5222   -1.5836    1.6624 H   0  0  0  0  0  0  0  0  0  0  0  0
    1.0991   -2.1223    2.0406 H   0  0  0  0  0  0  0  0  0  0  0  0
    6.9906   -0.7194    0.2903 H   0  0  0  0  0  0  0  0  0  0  0  0
    7.3481   -0.7509    2.7383 H   0  0  0  0  0  0  0  0  0  0  0  0
    5.4402   -0.4724    4.3172 H   0  0  0  0  0  0  0  0  0  0  0  0
    3.1312   -0.1459    3.3953 H   0  0  0  0  0  0  0  0  0  0  0  0
    0.1981    0.1487   -2.2060 H   0  0  0  0  0  0  0  0  0  0  0  0
   -0.9771    1.0010   -3.0418 H   0  0  0  0  0  0  0  0  0  0  0  0
   -2.5893    2.3073   -2.4257 H   0  0  0  0  0  0  0  0  0  0  0  0
   -4.1918    2.1634   -1.7679 H   0  0  0  0  0  0  0  0  0  0  0  0
   -0.6835    3.1240   -0.9364 H   0  0  0  0  0  0  0  0  0  0  0  0
   -0.0793    4.5026    1.0131 H   0  0  0  0  0  0  0  0  0  0  0  0
   -1.7854    5.0572    2.7333 H   0  0  0  0  0  0  0  0  0  0  0  0
   -4.1059    4.2239    2.4907 H   0  0  0  0  0  0  0  0  0  0  0  0
   -4.7289    2.8380    0.5491 H   0  0  0  0  0  0  0  0  0  0  0  0
   -4.4391   -1.8079    0.3404 H   0  0  0  0  0  0  0  0  0  0  0  0
  1  2  1  0
  2  3  1  0
  3  4  1  0
  4  5  2  0
  4  6  1  0
  6  7  1  0
  7  8  1  0
  8  9  2  0
  9 10  1  0
 10 11  2  0
 11 12  1  0
 12 13  2  0
 13 14  1  0
 14 15  2  0
 15 16  1  0
  3 17  1  0
 17 18  2  0
 18 19  1  0
 18 20  1  0
 20 21  1  0
 21 22  1  0
 22 23  2  0
 23 24  1  0
 24 25  2  0
 25 26  1  0
 26 27  2  0
 20 28  1  0
 28 29  2  0
 28 30  1  0
 30 31  1  0
 31 32  2  0
 16  8  1  0
 31 17  1  0
 16 11  1  0
 27 22  1  0
  1 33  1  0
  1 34  1  0
  1 35  1  0
  2 36  1  0
  2 37  1  0
  6 38  1  0
  6 39  1  0
 12 40  1  0
 13 41  1  0
 14 42  1  0
 15 43  1  0
 19 44  1  0
 19 45  1  0
 21 46  1  0
 21 47  1  0
 23 48  1  0
 24 49  1  0
 25 50  1  0
 26 51  1  0
 27 52  1  0
 30 53  1  0
M  END
$$$$
