
     RDKit          3D

 53 56  0  0  0  0  0  0  0  0999 V2000
   -2.5810   -3.2989   -4.4418 C   0  0  0  0  0  0  0  0  0  0  0  0
   -2.2865   -2.2519   -3.5300 O   0  0  0  0  0  0  0  0  0  0  0  0
   -0.9579   -2.0120   -3.2742 C   0  0  0  0  0  0  0  0  0  0  0  0
    0.1263   -2.6457   -3.8749 C   0  0  0  0  0  0  0  0  0  0  0  0
    1.4395   -2.2918   -3.5221 C   0  0  0  0  0  0  0  0  0  0  0  0
    1.6829   -1.2941   -2.5727 C   0  0  0  0  0  0  0  0  0  0  0  0
    2.9302   -0.8922   -2.1581 O   0  0  0  0  0  0  0  0  0  0  0  0
    4.0538   -1.3897   -2.8728 C   0  0  0  0  0  0  0  0  0  0  0  0
    0.5957   -0.6411   -1.9725 C   0  0  0  0  0  0  0  0  0  0  0  0
    0.7953    0.4516   -0.9479 C   0  0  0  0  0  0  0  0  0  0  0  0
    0.8833   -0.1101    0.4094 N   0  0  0  0  0  0  0  0  0  0  0  0
    0.8916    0.9319    1.3892 N   0  0  0  0  0  0  0  0  0  0  0  0
   -0.3019    1.4154    1.9213 C   0  0  0  0  0  0  0  0  0  0  0  0
   -1.5717    0.7655    1.5162 C   0  0  0  0  0  0  0  0  0  0  0  0
   -2.5306    1.5105    0.8104 C   0  0  0  0  0  0  0  0  0  0  0  0
   -3.7341    0.9028    0.4427 C   0  0  0  0  0  0  0  0  0  0  0  0
   -3.9802   -0.4358    0.8001 C   0  0  0  0  0  0  0  0  0  0  0  0
   -3.0243   -1.1832    1.5175 C   0  0  0  0  0  0  0  0  0  0  0  0
   -3.3140   -2.5939    1.9589 C   0  0  0  0  0  0  0  0  0  0  0  0
   -1.8206   -0.5662    1.8827 C   0  0  0  0  0  0  0  0  0  0  0  0
   -0.3510    2.4088    2.7551 N   0  0  0  0  0  0  0  0  0  0  0  0
    0.8517    2.9939    3.1696 C   0  0  0  0  0  0  0  0  0  0  0  0
    0.7968    4.0445    4.0892 C   0  0  0  0  0  0  0  0  0  0  0  0
    1.9619    4.6577    4.5419 C   0  0  0  0  0  0  0  0  0  0  0  0
    3.2034    4.2260    4.0727 C   0  0  0  0  0  0  0  0  0  0  0  0
    3.2761    3.1735    3.1583 C   0  0  0  0  0  0  0  0  0  0  0  0
    2.0988    2.5661    2.7131 C   0  0  0  0  0  0  0  0  0  0  0  0
    2.1381    1.4386    1.7678 C   0  0  0  0  0  0  0  0  0  0  0  0
    3.2158    0.9917    1.3698 O   0  0  0  0  0  0  0  0  0  0  0  0
   -0.7143   -1.0190   -2.3243 C   0  0  0  0  0  0  0  0  0  0  0  0
   -3.6734   -3.3437   -4.5479 H   0  0  0  0  0  0  0  0  0  0  0  0
   -2.1611   -3.0896   -5.4324 H   0  0  0  0  0  0  0  0  0  0  0  0
   -2.2358   -4.2696   -4.0585 H   0  0  0  0  0  0  0  0  0  0  0  0
   -0.0096   -3.4208   -4.6226 H   0  0  0  0  0  0  0  0  0  0  0  0
    2.2582   -2.8234   -4.0085 H   0  0  0  0  0  0  0  0  0  0  0  0
    4.0039   -1.0868   -3.9322 H   0  0  0  0  0  0  0  0  0  0  0  0
    4.1318   -2.4782   -2.7640 H   0  0  0  0  0  0  0  0  0  0  0  0
    4.9689   -0.9473   -2.4331 H   0  0  0  0  0  0  0  0  0  0  0  0
    1.6831    1.0485   -1.1887 H   0  0  0  0  0  0  0  0  0  0  0  0
   -0.0517    1.1450   -1.0190 H   0  0  0  0  0  0  0  0  0  0  0  0
    1.7911   -0.5856    0.4706 H   0  0  0  0  0  0  0  0  0  0  0  0
   -2.3425    2.5526    0.5436 H   0  0  0  0  0  0  0  0  0  0  0  0
   -4.4879    1.4771   -0.1150 H   0  0  0  0  0  0  0  0  0  0  0  0
   -4.9317   -0.8902    0.5209 H   0  0  0  0  0  0  0  0  0  0  0  0
   -3.8210   -2.5827    2.9342 H   0  0  0  0  0  0  0  0  0  0  0  0
   -2.3910   -3.1745    2.0437 H   0  0  0  0  0  0  0  0  0  0  0  0
   -3.9496   -3.1090    1.2346 H   0  0  0  0  0  0  0  0  0  0  0  0
   -1.0786   -1.1105    2.4584 H   0  0  0  0  0  0  0  0  0  0  0  0
   -0.1689    4.3803    4.4628 H   0  0  0  0  0  0  0  0  0  0  0  0
    1.9018    5.4661    5.2685 H   0  0  0  0  0  0  0  0  0  0  0  0
    4.1093    4.6983    4.4304 H   0  0  0  0  0  0  0  0  0  0  0  0
    4.2431    2.8188    2.8109 H   0  0  0  0  0  0  0  0  0  0  0  0
   -1.5615   -0.5276   -1.8512 H   0  0  0  0  0  0  0  0  0  0  0  0
  1  2  1  0
  2  3  1  0
  3  4  2  0
  4  5  1  0
  5  6  2  0
  6  7  1  0
  7  8  1  0
  6  9  1  0
  9 10  1  0
 10 11  1  0
 11 12  1  0
 12 13  1  0
 13 14  1  0
 14 15  2  0
 15 16  1  0
 16 17  2  0
 17 18  1  0
 18 19  1  0
 18 20  2  0
 13 21  2  0
 21 22  1  0
 22 23  2  0
 23 24  1  0
 24 25  2  0
 25 26  1  0
 26 27  2  0
 27 28  1  0
 28 29  2  0
  9 30  2  0
 30  3  1  0
 28 12  1  0
 20 14  1  0
 27 22  1  0
  1 31  1  0
  1 32  1  0
  1 33  1  0
  4 34  1  0
  5 35  1  0
  8 36  1  0
  8 37  1  0
  8 38  1  0
 10 39  1  0
 10 40  1  0
 11 41  1  0
 15 42  1  0
 16 43  1  0
 17 44  1  0
 19 45  1  0
 19 46  1  0
 19 47  1  0
 20 48  1  0
 23 49  1  0
 24 50  1  0
 25 51  1  0
 26 52  1  0
 30 53  1  0
M  END
$$$$
