
     RDKit          3D

 44 46  0  0  0  0  0  0  0  0999 V2000
    2.7894   -0.3547   -2.2386 C   0  0  0  0  0  0  0  0  0  0  0  0
    3.3761    0.2810   -0.9648 C   0  0  0  0  0  0  0  0  0  0  0  0
    4.0067   -0.8336   -0.1221 C   0  0  0  0  0  0  0  0  0  0  0  0
    4.4487    1.3033   -1.3644 C   0  0  0  0  0  0  0  0  0  0  0  0
    2.2563    1.0312   -0.2139 C   0  0  0  0  0  0  0  0  0  0  0  0
    1.2126    1.3683   -0.7878 O   0  0  0  0  0  0  0  0  0  0  0  0
    2.4668    1.4369    1.2343 C   0  0  0  0  0  0  0  0  0  0  0  0
    1.8378    0.2091    2.4194 S   0  0  0  0  0  0  0  0  0  0  0  0
    0.2871   -0.2198    1.6397 C   0  0  0  0  0  0  0  0  0  0  0  0
    0.3544   -1.3918    0.9541 N   0  0  0  0  0  0  0  0  0  0  0  0
   -0.7603   -1.7610    0.3107 C   0  0  0  0  0  0  0  0  0  0  0  0
   -1.9458   -1.0415    0.3061 C   0  0  0  0  0  0  0  0  0  0  0  0
   -2.0164    0.1553    1.0076 C   0  0  0  0  0  0  0  0  0  0  0  0
   -3.2443    0.9481    0.9821 C   0  0  0  0  0  0  0  0  0  0  0  0
   -3.6069    1.9474    0.1018 C   0  0  0  0  0  0  0  0  0  0  0  0
   -4.8883    2.4930    0.4060 C   0  0  0  0  0  0  0  0  0  0  0  0
   -5.4579    1.8902    1.5055 C   0  0  0  0  0  0  0  0  0  0  0  0
   -4.4523    0.6731    2.1643 S   0  0  0  0  0  0  0  0  0  0  0  0
   -0.8665    0.5790    1.7010 C   0  0  0  0  0  0  0  0  0  0  0  0
   -0.8641    1.8097    2.4339 C   0  0  0  0  0  0  0  0  0  0  0  0
   -0.8426    2.8118    3.0206 N   0  0  0  0  0  0  0  0  0  0  0  0
   -2.9658   -1.7123   -0.5598 C   0  0  0  0  0  0  0  0  0  0  0  0
   -2.3819   -3.1285   -0.6747 C   0  0  0  0  0  0  0  0  0  0  0  0
   -0.8608   -2.9826   -0.5574 C   0  0  0  0  0  0  0  0  0  0  0  0
    2.3706    0.4037   -2.9102 H   0  0  0  0  0  0  0  0  0  0  0  0
    1.9830   -1.0557   -1.9931 H   0  0  0  0  0  0  0  0  0  0  0  0
    3.5543   -0.9042   -2.7987 H   0  0  0  0  0  0  0  0  0  0  0  0
    3.2543   -1.5596    0.2037 H   0  0  0  0  0  0  0  0  0  0  0  0
    4.7648   -1.3798   -0.6956 H   0  0  0  0  0  0  0  0  0  0  0  0
    4.5031   -0.4413    0.7714 H   0  0  0  0  0  0  0  0  0  0  0  0
    4.9246    1.7515   -0.4854 H   0  0  0  0  0  0  0  0  0  0  0  0
    4.0156    2.1221   -1.9505 H   0  0  0  0  0  0  0  0  0  0  0  0
    5.2363    0.8378   -1.9673 H   0  0  0  0  0  0  0  0  0  0  0  0
    1.9543    2.3910    1.3975 H   0  0  0  0  0  0  0  0  0  0  0  0
    3.5268    1.6212    1.4267 H   0  0  0  0  0  0  0  0  0  0  0  0
   -2.9813    2.2781   -0.7195 H   0  0  0  0  0  0  0  0  0  0  0  0
   -5.3651    3.2908   -0.1504 H   0  0  0  0  0  0  0  0  0  0  0  0
   -6.4158    2.1071    1.9583 H   0  0  0  0  0  0  0  0  0  0  0  0
   -3.0092   -1.2235   -1.5386 H   0  0  0  0  0  0  0  0  0  0  0  0
   -3.9613   -1.7370   -0.1085 H   0  0  0  0  0  0  0  0  0  0  0  0
   -2.7506   -3.7383    0.1620 H   0  0  0  0  0  0  0  0  0  0  0  0
   -2.6846   -3.6320   -1.5981 H   0  0  0  0  0  0  0  0  0  0  0  0
   -0.3989   -3.8592   -0.0959 H   0  0  0  0  0  0  0  0  0  0  0  0
   -0.4029   -2.7841   -1.5316 H   0  0  0  0  0  0  0  0  0  0  0  0
  1  2  1  0
  2  3  1  0
  2  4  1  0
  2  5  1  0
  5  6  2  0
  5  7  1  0
  7  8  1  0
  8  9  1  0
  9 10  2  0
 10 11  1  0
 11 12  2  0
 12 13  1  0
 13 14  1  0
 14 15  2  0
 15 16  1  0
 16 17  2  0
 17 18  1  0
 13 19  2  0
 19 20  1  0
 20 21  3  0
 12 22  1  0
 22 23  1  0
 23 24  1  0
 19  9  1  0
 24 11  1  0
 18 14  1  0
  1 25  1  0
  1 26  1  0
  1 27  1  0
  3 28  1  0
  3 29  1  0
  3 30  1  0
  4 31  1  0
  4 32  1  0
  4 33  1  0
  7 34  1  0
  7 35  1  0
 15 36  1  0
 16 37  1  0
 17 38  1  0
 22 39  1  0
 22 40  1  0
 23 41  1  0
 23 42  1  0
 24 43  1  0
 24 44  1  0
M  END
$$$$
