
     RDKit          3D

 46 47  0  0  0  0  0  0  0  0999 V2000
    0.6635   -2.1013   -0.2823 O   0  0  0  0  0  0  0  0  0  0  0  0
    0.6936   -1.0849    0.3976 C   0  0  0  0  0  0  0  0  0  0  0  0
   -0.4216   -0.4181    0.8361 N   0  0  0  0  0  0  0  0  0  0  0  0
   -1.7672   -0.8041    0.4116 C   0  0  0  0  0  0  0  0  0  0  0  0
   -2.7775   -0.4244    1.5039 C   0  0  0  0  0  0  0  0  0  0  0  0
   -3.1372    1.0619    1.5386 C   0  0  0  0  0  0  0  0  0  0  0  0
   -4.6040    1.3549    1.2300 C   0  0  0  0  0  0  0  0  0  0  0  0
   -5.2220    0.6445    0.0244 C   0  0  0  0  0  0  0  0  0  0  0  0
   -4.4285    0.7269   -1.2783 C   0  0  0  0  0  0  0  0  0  0  0  0
   -3.4651   -0.4422   -1.5252 C   0  0  0  0  0  0  0  0  0  0  0  0
   -2.0473   -0.2354   -0.9918 C   0  0  0  0  0  0  0  0  0  0  0  0
    1.8474   -0.4933    0.8479 N   0  0  0  0  0  0  0  0  0  0  0  0
    3.1578   -0.9868    0.4378 C   0  0  0  0  0  0  0  0  0  0  0  0
    4.2079   -0.5941    1.4909 C   0  0  0  0  0  0  0  0  0  0  0  0
    5.6028   -0.4897    0.8888 C   0  0  0  0  0  0  0  0  0  0  0  0
    5.6688    0.5855   -0.1973 C   0  0  0  0  0  0  0  0  0  0  0  0
    4.3466    0.7831   -0.9418 C   0  0  0  0  0  0  0  0  0  0  0  0
    3.5201   -0.4977   -0.9780 C   0  0  0  0  0  0  0  0  0  0  0  0
   -0.2942    0.5106    1.2035 H   0  0  0  0  0  0  0  0  0  0  0  0
   -1.7736   -1.8997    0.3359 H   0  0  0  0  0  0  0  0  0  0  0  0
   -2.3555   -0.7001    2.4802 H   0  0  0  0  0  0  0  0  0  0  0  0
   -3.6725   -1.0463    1.3997 H   0  0  0  0  0  0  0  0  0  0  0  0
   -2.4996    1.6526    0.8733 H   0  0  0  0  0  0  0  0  0  0  0  0
   -2.9290    1.4475    2.5453 H   0  0  0  0  0  0  0  0  0  0  0  0
   -4.7126    2.4389    1.0966 H   0  0  0  0  0  0  0  0  0  0  0  0
   -5.2057    1.1018    2.1125 H   0  0  0  0  0  0  0  0  0  0  0  0
   -6.1999    1.1146   -0.1472 H   0  0  0  0  0  0  0  0  0  0  0  0
   -5.4479   -0.3999    0.2678 H   0  0  0  0  0  0  0  0  0  0  0  0
   -3.9197    1.6930   -1.3721 H   0  0  0  0  0  0  0  0  0  0  0  0
   -5.1649    0.6967   -2.0931 H   0  0  0  0  0  0  0  0  0  0  0  0
   -3.3750   -0.5408   -2.6158 H   0  0  0  0  0  0  0  0  0  0  0  0
   -3.8865   -1.3913   -1.1754 H   0  0  0  0  0  0  0  0  0  0  0  0
   -1.7699    0.8243   -1.0502 H   0  0  0  0  0  0  0  0  0  0  0  0
   -1.3600   -0.7382   -1.6868 H   0  0  0  0  0  0  0  0  0  0  0  0
    1.7833    0.4764    1.1121 H   0  0  0  0  0  0  0  0  0  0  0  0
    3.0930   -2.0820    0.3999 H   0  0  0  0  0  0  0  0  0  0  0  0
    3.9516    0.3681    1.9542 H   0  0  0  0  0  0  0  0  0  0  0  0
    4.2019   -1.3315    2.3028 H   0  0  0  0  0  0  0  0  0  0  0  0
    6.3392   -0.2691    1.6697 H   0  0  0  0  0  0  0  0  0  0  0  0
    5.8840   -1.4599    0.4601 H   0  0  0  0  0  0  0  0  0  0  0  0
    5.9688    1.5432    0.2452 H   0  0  0  0  0  0  0  0  0  0  0  0
    6.4596    0.3176   -0.9085 H   0  0  0  0  0  0  0  0  0  0  0  0
    4.5491    1.1329   -1.9604 H   0  0  0  0  0  0  0  0  0  0  0  0
    3.7658    1.5740   -0.4506 H   0  0  0  0  0  0  0  0  0  0  0  0
    4.1091   -1.2748   -1.4827 H   0  0  0  0  0  0  0  0  0  0  0  0
    2.6227   -0.3438   -1.5883 H   0  0  0  0  0  0  0  0  0  0  0  0
  1  2  2  0
  2  3  1  0
  3  4  1  0
  4  5  1  0
  5  6  1  0
  6  7  1  0
  7  8  1  0
  8  9  1  0
  9 10  1  0
 10 11  1  0
  2 12  1  0
 12 13  1  0
 13 14  1  0
 14 15  1  0
 15 16  1  0
 16 17  1  0
 17 18  1  0
 11  4  1  0
 18 13  1  0
  3 19  1  0
  4 20  1  0
  5 21  1  0
  5 22  1  0
  6 23  1  0
  6 24  1  0
  7 25  1  0
  7 26  1  0
  8 27  1  0
  8 28  1  0
  9 29  1  0
  9 30  1  0
 10 31  1  0
 10 32  1  0
 11 33  1  0
 11 34  1  0
 12 35  1  0
 13 36  1  0
 14 37  1  0
 14 38  1  0
 15 39  1  0
 15 40  1  0
 16 41  1  0
 16 42  1  0
 17 43  1  0
 17 44  1  0
 18 45  1  0
 18 46  1  0
M  END
$$$$
