
     RDKit          3D

112123  0  0  0  0  0  0  0  0999 V2000
   -1.3634    2.9350    2.2602 O   0  0  0  0  0  0  0  0  0  0  0  0
   -1.8949    2.1973    1.4373 C   0  0  0  0  0  0  0  0  0  0  0  0
   -3.2179    2.3503    1.0693 N   0  0  0  0  0  0  0  0  0  0  0  0
   -3.7550    1.7679   -0.1830 C   0  0  0  0  0  0  0  0  0  0  0  0
   -3.4565    2.6714   -1.3875 C   0  0  0  0  0  0  0  0  0  0  0  0
   -4.4959    2.5693   -2.4776 C   0  0  0  0  0  0  0  0  0  0  0  0
   -4.2657    1.7726   -3.6065 C   0  0  0  0  0  0  0  0  0  0  0  0
   -5.2325    1.6711   -4.6087 C   0  0  0  0  0  0  0  0  0  0  0  0
   -6.4364    2.3609   -4.4929 C   0  0  0  0  0  0  0  0  0  0  0  0
   -6.6775    3.1548   -3.3729 C   0  0  0  0  0  0  0  0  0  0  0  0
   -5.7115    3.2600   -2.3700 C   0  0  0  0  0  0  0  0  0  0  0  0
   -3.2019    0.3261   -0.3929 C   0  0  0  0  0  0  0  0  0  0  0  0
   -3.6287   -0.4583   -1.2317 O   0  0  0  0  0  0  0  0  0  0  0  0
   -2.1017    0.0479    0.4011 N   0  0  0  0  0  0  0  0  0  0  0  0
   -1.1600    1.1179    0.6434 C   0  0  0  0  0  0  0  0  0  0  0  0
    0.0288    0.4577    1.3098 C   0  0  0  0  0  0  0  0  0  0  0  0
    0.0121   -1.0199    0.8000 C   0  0  0  0  0  0  0  0  0  0  0  0
    0.8689   -1.3501   -0.4932 C   0  0  0  0  0  0  0  0  0  0  0  0
    0.3176   -0.7667   -1.8511 C   0  0  0  0  0  0  0  0  0  0  0  0
    1.2981    0.3266   -2.3088 C   0  0  0  0  0  0  0  0  0  0  0  0
    0.6007    1.6537   -2.6434 C   0  0  0  0  0  0  0  0  0  0  0  0
   -0.4553    1.7298   -3.2591 O   0  0  0  0  0  0  0  0  0  0  0  0
    1.2737    2.7877   -2.2495 N   0  0  0  0  0  0  0  0  0  0  0  0
    2.7090    2.7304   -1.9445 C   0  0  0  0  0  0  0  0  0  0  0  0
    3.2526    4.0537   -1.3889 C   0  0  0  0  0  0  0  0  0  0  0  0
    3.0780    5.2177   -2.3358 C   0  0  0  0  0  0  0  0  0  0  0  0
    3.8369    5.3030   -3.5108 C   0  0  0  0  0  0  0  0  0  0  0  0
    3.6625    6.3748   -4.3873 C   0  0  0  0  0  0  0  0  0  0  0  0
    2.7336    7.3722   -4.0963 C   0  0  0  0  0  0  0  0  0  0  0  0
    1.9787    7.3000   -2.9273 C   0  0  0  0  0  0  0  0  0  0  0  0
    2.1486    6.2286   -2.0493 C   0  0  0  0  0  0  0  0  0  0  0  0
    2.9123    1.6104   -0.9082 C   0  0  0  0  0  0  0  0  0  0  0  0
    3.6387    1.7078    0.0755 O   0  0  0  0  0  0  0  0  0  0  0  0
    2.2039    0.4622   -1.1913 N   0  0  0  0  0  0  0  0  0  0  0  0
    2.3222   -0.7525   -0.4480 C   0  0  0  0  0  0  0  0  0  0  0  0
    3.1864   -1.7624   -1.1259 N   0  0  0  0  0  0  0  0  0  0  0  0
    4.8660   -1.6318   -0.9629 S   0  0  0  0  0  6  0  0  0  0  0  0
    5.2484   -0.2797   -1.3126 O   0  0  0  0  0  0  0  0  0  0  0  0
    5.5198   -2.7377   -1.6330 O   0  0  0  0  0  0  0  0  0  0  0  0
    5.1460   -1.8475    0.7821 C   0  0  0  0  0  0  0  0  0  0  0  0
    5.3818   -0.7295    1.5881 C   0  0  0  0  0  0  0  0  0  0  0  0
    5.6173   -0.8999    2.9525 C   0  0  0  0  0  0  0  0  0  0  0  0
    5.6418   -2.1818    3.5037 C   0  0  0  0  0  0  0  0  0  0  0  0
    5.4338   -3.2984    2.6921 C   0  0  0  0  0  0  0  0  0  0  0  0
    5.1926   -3.1350    1.3267 C   0  0  0  0  0  0  0  0  0  0  0  0
    2.5138   -3.0215   -1.0541 C   0  0  0  0  0  0  0  0  0  0  0  0
    2.9694   -4.2719   -1.4447 C   0  0  0  0  0  0  0  0  0  0  0  0
    2.1004   -5.3629   -1.3802 C   0  0  0  0  0  0  0  0  0  0  0  0
    0.7747   -5.1862   -0.9802 C   0  0  0  0  0  0  0  0  0  0  0  0
    0.2995   -3.9141   -0.6577 C   0  0  0  0  0  0  0  0  0  0  0  0
    1.1742   -2.8305   -0.7018 C   0  0  0  0  0  0  0  0  0  0  0  0
    0.2999   -1.9024    2.0046 C   0  0  0  0  0  0  0  0  0  0  0  0
    1.5249   -2.1739    2.6093 C   0  0  0  0  0  0  0  0  0  0  0  0
    1.5621   -2.9743    3.7509 C   0  0  0  0  0  0  0  0  0  0  0  0
    0.3807   -3.4733    4.2972 C   0  0  0  0  0  0  0  0  0  0  0  0
   -0.8497   -3.1724    3.7094 C   0  0  0  0  0  0  0  0  0  0  0  0
   -0.8816   -2.4076    2.5507 C   0  0  0  0  0  0  0  0  0  0  0  0
   -2.0273   -1.8990    1.8471 N   0  0  0  0  0  0  0  0  0  0  0  0
   -3.3860   -2.9085    1.6724 S   0  0  0  0  0  6  0  0  0  0  0  0
   -2.9088   -4.2309    1.3166 O   0  0  0  0  0  0  0  0  0  0  0  0
   -4.3857   -2.2349    0.8743 O   0  0  0  0  0  0  0  0  0  0  0  0
   -4.0927   -2.9810    3.3025 C   0  0  0  0  0  0  0  0  0  0  0  0
   -4.4829   -4.2113    3.8399 C   0  0  0  0  0  0  0  0  0  0  0  0
   -5.0241   -4.2526    5.1258 C   0  0  0  0  0  0  0  0  0  0  0  0
   -5.1710   -3.0742    5.8615 C   0  0  0  0  0  0  0  0  0  0  0  0
   -4.7852   -1.8480    5.3163 C   0  0  0  0  0  0  0  0  0  0  0  0
   -4.2484   -1.7952    4.0302 C   0  0  0  0  0  0  0  0  0  0  0  0
   -1.5355   -1.2689    0.5812 C   0  0  0  0  0  0  0  0  0  0  0  0
   -3.7057    3.1233    1.5051 H   0  0  0  0  0  0  0  0  0  0  0  0
   -4.8328    1.6739   -0.0053 H   0  0  0  0  0  0  0  0  0  0  0  0
   -3.4090    3.7221   -1.0727 H   0  0  0  0  0  0  0  0  0  0  0  0
   -2.4695    2.4514   -1.8036 H   0  0  0  0  0  0  0  0  0  0  0  0
   -3.3348    1.2179   -3.7097 H   0  0  0  0  0  0  0  0  0  0  0  0
   -5.0433    1.0473   -5.4777 H   0  0  0  0  0  0  0  0  0  0  0  0
   -7.1881    2.2753   -5.2728 H   0  0  0  0  0  0  0  0  0  0  0  0
   -7.6182    3.6917   -3.2819 H   0  0  0  0  0  0  0  0  0  0  0  0
   -5.9155    3.8859   -1.5040 H   0  0  0  0  0  0  0  0  0  0  0  0
   -0.8621    1.5566   -0.3133 H   0  0  0  0  0  0  0  0  0  0  0  0
    0.9587    0.9903    1.1035 H   0  0  0  0  0  0  0  0  0  0  0  0
   -0.0936    0.5079    2.4005 H   0  0  0  0  0  0  0  0  0  0  0  0
    0.2592   -1.5351   -2.6333 H   0  0  0  0  0  0  0  0  0  0  0  0
   -0.6975   -0.3784   -1.7621 H   0  0  0  0  0  0  0  0  0  0  0  0
    1.8734    0.0077   -3.1865 H   0  0  0  0  0  0  0  0  0  0  0  0
    0.9050    3.6369   -2.6654 H   0  0  0  0  0  0  0  0  0  0  0  0
    3.2343    2.4414   -2.8633 H   0  0  0  0  0  0  0  0  0  0  0  0
    2.7662    4.2848   -0.4326 H   0  0  0  0  0  0  0  0  0  0  0  0
    4.3215    3.9578   -1.1593 H   0  0  0  0  0  0  0  0  0  0  0  0
    4.5743    4.5397   -3.7501 H   0  0  0  0  0  0  0  0  0  0  0  0
    4.2557    6.4340   -5.2952 H   0  0  0  0  0  0  0  0  0  0  0  0
    2.6039    8.2101   -4.7762 H   0  0  0  0  0  0  0  0  0  0  0  0
    1.2599    8.0821   -2.6959 H   0  0  0  0  0  0  0  0  0  0  0  0
    1.5560    6.1927   -1.1370 H   0  0  0  0  0  0  0  0  0  0  0  0
    2.6729   -0.5524    0.5631 H   0  0  0  0  0  0  0  0  0  0  0  0
    5.3884    0.2747    1.1675 H   0  0  0  0  0  0  0  0  0  0  0  0
    5.7992   -0.0297    3.5821 H   0  0  0  0  0  0  0  0  0  0  0  0
    5.8396   -2.3074    4.5660 H   0  0  0  0  0  0  0  0  0  0  0  0
    5.4713   -4.2969    3.1225 H   0  0  0  0  0  0  0  0  0  0  0  0
    5.0555   -4.0117    0.6993 H   0  0  0  0  0  0  0  0  0  0  0  0
    3.9733   -4.4372   -1.8175 H   0  0  0  0  0  0  0  0  0  0  0  0
    2.4514   -6.3514   -1.6677 H   0  0  0  0  0  0  0  0  0  0  0  0
    0.0980   -6.0393   -0.9478 H   0  0  0  0  0  0  0  0  0  0  0  0
   -0.7480   -3.8151   -0.3958 H   0  0  0  0  0  0  0  0  0  0  0  0
    2.4595   -1.7726    2.2424 H   0  0  0  0  0  0  0  0  0  0  0  0
    2.5137   -3.1972    4.2282 H   0  0  0  0  0  0  0  0  0  0  0  0
    0.4147   -4.0855    5.1965 H   0  0  0  0  0  0  0  0  0  0  0  0
   -1.7410   -3.5520    4.1899 H   0  0  0  0  0  0  0  0  0  0  0  0
   -4.3741   -5.1294    3.2676 H   0  0  0  0  0  0  0  0  0  0  0  0
   -5.3349   -5.2017    5.5556 H   0  0  0  0  0  0  0  0  0  0  0  0
   -5.5966   -3.1095    6.8619 H   0  0  0  0  0  0  0  0  0  0  0  0
   -4.9078   -0.9344    5.8930 H   0  0  0  0  0  0  0  0  0  0  0  0
   -3.9569   -0.8388    3.6030 H   0  0  0  0  0  0  0  0  0  0  0  0
   -1.7530   -1.9017   -0.2834 H   0  0  0  0  0  0  0  0  0  0  0  0
  1  2  2  0
  2  3  1  0
  3  4  1  0
  4  5  1  0
  5  6  1  0
  6  7  2  0
  7  8  1  0
  8  9  2  0
  9 10  1  0
 10 11  2  0
  4 12  1  0
 12 13  2  0
 12 14  1  0
 14 15  1  0
 15 16  1  0
 16 17  1  0
 17 18  1  0
 18 19  1  0
 19 20  1  0
 20 21  1  0
 21 22  2  0
 21 23  1  0
 23 24  1  0
 24 25  1  0
 25 26  1  0
 26 27  2  0
 27 28  1  0
 28 29  2  0
 29 30  1  0
 30 31  2  0
 24 32  1  0
 32 33  2  0
 32 34  1  0
 34 35  1  0
 35 36  1  0
 36 37  1  0
 37 38  2  0
 37 39  2  0
 37 40  1  0
 40 41  2  0
 41 42  1  0
 42 43  2  0
 43 44  1  0
 44 45  2  0
 36 46  1  0
 46 47  2  0
 47 48  1  0
 48 49  2  0
 49 50  1  0
 50 51  2  0
 17 52  1  0
 52 53  2  0
 53 54  1  0
 54 55  2  0
 55 56  1  0
 56 57  2  0
 57 58  1  0
 58 59  1  0
 59 60  2  0
 59 61  2  0
 59 62  1  0
 62 63  2  0
 63 64  1  0
 64 65  2  0
 65 66  1  0
 66 67  2  0
 58 68  1  0
 15  2  1  0
 68 17  1  0
 11  6  1  0
 68 14  1  0
 35 18  1  0
 45 40  1  0
 51 46  1  0
 57 52  1  0
 67 62  1  0
 51 18  1  0
 34 20  1  0
 31 26  1  0
  3 69  1  0
  4 70  1  0
  5 71  1  0
  5 72  1  0
  7 73  1  0
  8 74  1  0
  9 75  1  0
 10 76  1  0
 11 77  1  0
 15 78  1  0
 16 79  1  0
 16 80  1  0
 19 81  1  0
 19 82  1  0
 20 83  1  0
 23 84  1  0
 24 85  1  0
 25 86  1  0
 25 87  1  0
 27 88  1  0
 28 89  1  0
 29 90  1  0
 30 91  1  0
 31 92  1  0
 35 93  1  0
 41 94  1  0
 42 95  1  0
 43 96  1  0
 44 97  1  0
 45 98  1  0
 47 99  1  0
 48100  1  0
 49101  1  0
 50102  1  0
 53103  1  0
 54104  1  0
 55105  1  0
 56106  1  0
 63107  1  0
 64108  1  0
 65109  1  0
 66110  1  0
 67111  1  0
 68112  1  0
M  END
$$$$
