
     RDKit          3D

 36 38  0  0  0  0  0  0  0  0999 V2000
   -0.9214    4.3063    0.9602 N   0  0  0  0  0  0  0  0  0  0  0  0
   -0.6534    3.1779    0.8877 C   0  0  0  0  0  0  0  0  0  0  0  0
   -0.3435    1.7879    0.8209 C   0  0  0  0  0  0  0  0  0  0  0  0
    0.9584    1.3501    0.9542 N   0  0  0  0  0  0  0  0  0  0  0  0
    0.8565    0.0465    0.7876 C   0  0  0  0  0  0  0  0  0  0  0  0
    1.9317   -0.9824    0.8031 C   0  0  0  0  0  0  0  0  0  0  0  0
    2.0301   -1.5839   -0.4900 O   0  0  0  0  0  0  0  0  0  0  0  0
    2.8558   -1.0286   -1.4311 C   0  0  0  0  0  0  0  0  0  0  0  0
    3.4348    0.2411   -1.3375 C   0  0  0  0  0  0  0  0  0  0  0  0
    4.2547    0.7219   -2.3649 C   0  0  0  0  0  0  0  0  0  0  0  0
    4.4963   -0.0606   -3.4913 C   0  0  0  0  0  0  0  0  0  0  0  0
    5.5061    0.5396   -4.7475 Cl  0  0  0  0  0  0  0  0  0  0  0  0
    3.9233   -1.3218   -3.6071 C   0  0  0  0  0  0  0  0  0  0  0  0
    3.1043   -1.8000   -2.5815 C   0  0  0  0  0  0  0  0  0  0  0  0
    2.4133   -3.3756   -2.7704 Cl  0  0  0  0  0  0  0  0  0  0  0  0
   -0.4189   -0.3994    0.5810 O   0  0  0  0  0  0  0  0  0  0  0  0
   -1.2048    0.7258    0.6049 C   0  0  0  0  0  0  0  0  0  0  0  0
   -2.5446    0.5559    0.4085 N   0  0  0  0  0  0  0  0  0  0  0  0
   -3.5075    1.3856    1.1622 C   0  0  0  0  0  0  0  0  0  0  0  0
   -3.8708    0.6926    2.4881 C   0  0  0  0  0  0  0  0  0  0  0  0
   -4.3911   -0.6300    2.2669 O   0  0  0  0  0  0  0  0  0  0  0  0
   -3.4408   -1.4432    1.5543 C   0  0  0  0  0  0  0  0  0  0  0  0
   -3.0718   -0.8121    0.2022 C   0  0  0  0  0  0  0  0  0  0  0  0
    2.8906   -0.5847    1.1526 H   0  0  0  0  0  0  0  0  0  0  0  0
    1.6505   -1.7757    1.5047 H   0  0  0  0  0  0  0  0  0  0  0  0
    3.2616    0.8979   -0.4903 H   0  0  0  0  0  0  0  0  0  0  0  0
    4.6957    1.7128   -2.2800 H   0  0  0  0  0  0  0  0  0  0  0  0
    4.1097   -1.9292   -4.4884 H   0  0  0  0  0  0  0  0  0  0  0  0
   -3.1397    2.3966    1.3518 H   0  0  0  0  0  0  0  0  0  0  0  0
   -4.4134    1.4873    0.5516 H   0  0  0  0  0  0  0  0  0  0  0  0
   -3.0004    0.6237    3.1512 H   0  0  0  0  0  0  0  0  0  0  0  0
   -4.6434    1.2679    3.0075 H   0  0  0  0  0  0  0  0  0  0  0  0
   -3.9014   -2.4229    1.3937 H   0  0  0  0  0  0  0  0  0  0  0  0
   -2.5557   -1.5871    2.1848 H   0  0  0  0  0  0  0  0  0  0  0  0
   -3.9771   -0.7314   -0.4127 H   0  0  0  0  0  0  0  0  0  0  0  0
   -2.3736   -1.4490   -0.3526 H   0  0  0  0  0  0  0  0  0  0  0  0
  1  2  3  0
  2  3  1  0
  3  4  1  0
  4  5  2  0
  5  6  1  0
  6  7  1  0
  7  8  1  0
  8  9  2  0
  9 10  1  0
 10 11  2  0
 11 12  1  0
 11 13  1  0
 13 14  2  0
 14 15  1  0
  5 16  1  0
 16 17  1  0
 17 18  1  0
 18 19  1  0
 19 20  1  0
 20 21  1  0
 21 22  1  0
 22 23  1  0
 17  3  2  0
 23 18  1  0
 14  8  1  0
  6 24  1  0
  6 25  1  0
  9 26  1  0
 10 27  1  0
 13 28  1  0
 19 29  1  0
 19 30  1  0
 20 31  1  0
 20 32  1  0
 22 33  1  0
 22 34  1  0
 23 35  1  0
 23 36  1  0
M  END
$$$$
