
     RDKit          3D

 43 44  0  0  0  0  0  0  0  0999 V2000
   -7.2081    3.1617    0.3528 C   0  0  0  0  0  0  0  0  0  0  0  0
   -7.1833    2.4627    1.7058 C   0  0  0  0  0  0  0  0  0  0  0  0
   -7.3093    0.9423    1.5983 C   0  0  0  0  0  0  0  0  0  0  0  0
   -6.1186    0.3132    0.9809 C   0  0  0  0  0  0  0  0  0  0  0  0
   -5.9746   -0.2190   -0.2130 N   0  0  0  0  0  0  0  0  0  0  0  0
   -4.6686   -0.6565   -0.2824 N   0  0  0  0  0  0  0  0  0  0  0  0
   -4.1079   -0.3658    0.8744 C   0  0  0  0  0  0  0  0  0  0  0  0
   -2.4551   -0.6912    1.2858 S   0  0  0  0  0  0  0  0  0  0  0  0
   -2.0150   -1.8164   -0.0683 C   0  0  0  0  0  0  0  0  0  0  0  0
   -0.5593   -2.2287    0.0697 C   0  0  0  0  0  0  0  0  0  0  0  0
   -0.2580   -3.3486    0.4717 O   0  0  0  0  0  0  0  0  0  0  0  0
    0.3218   -1.2274   -0.3143 N   0  0  0  0  0  0  0  0  0  0  0  0
    1.7301   -1.2798   -0.3313 C   0  0  0  0  0  0  0  0  0  0  0  0
    2.4065   -0.1189   -0.7285 C   0  0  0  0  0  0  0  0  0  0  0  0
    3.8054   -0.0833   -0.7752 C   0  0  0  0  0  0  0  0  0  0  0  0
    4.5498   -1.2148   -0.4243 C   0  0  0  0  0  0  0  0  0  0  0  0
    6.0378   -1.2349   -0.4513 C   0  0  0  0  0  0  0  0  0  0  0  0
    6.7079   -2.1857   -0.0819 O   0  0  0  0  0  0  0  0  0  0  0  0
    6.5214   -0.0663   -0.9428 O   0  0  0  0  0  0  0  0  0  0  0  0
    7.9516   -0.0039   -1.0050 C   0  0  0  0  0  0  0  0  0  0  0  0
    8.3399    1.3379   -1.5945 C   0  0  0  0  0  0  0  0  0  0  0  0
    3.8761   -2.3753   -0.0282 C   0  0  0  0  0  0  0  0  0  0  0  0
    2.4761   -2.4072    0.0165 C   0  0  0  0  0  0  0  0  0  0  0  0
   -4.9754    0.2597    1.7297 O   0  0  0  0  0  0  0  0  0  0  0  0
   -8.1306    2.9321   -0.1901 H   0  0  0  0  0  0  0  0  0  0  0  0
   -6.3595    2.8625   -0.2689 H   0  0  0  0  0  0  0  0  0  0  0  0
   -7.1570    4.2463    0.4886 H   0  0  0  0  0  0  0  0  0  0  0  0
   -6.2624    2.7347    2.2361 H   0  0  0  0  0  0  0  0  0  0  0  0
   -8.0196    2.8406    2.3055 H   0  0  0  0  0  0  0  0  0  0  0  0
   -7.4485    0.5220    2.6017 H   0  0  0  0  0  0  0  0  0  0  0  0
   -8.2035    0.6806    1.0207 H   0  0  0  0  0  0  0  0  0  0  0  0
   -2.6396   -2.7150   -0.0326 H   0  0  0  0  0  0  0  0  0  0  0  0
   -2.1595   -1.3347   -1.0413 H   0  0  0  0  0  0  0  0  0  0  0  0
   -0.0920   -0.3384   -0.5691 H   0  0  0  0  0  0  0  0  0  0  0  0
    1.8577    0.7776   -1.0094 H   0  0  0  0  0  0  0  0  0  0  0  0
    4.2975    0.8350   -1.0865 H   0  0  0  0  0  0  0  0  0  0  0  0
    8.3311   -0.8105   -1.6421 H   0  0  0  0  0  0  0  0  0  0  0  0
    8.3692   -0.1011    0.0032 H   0  0  0  0  0  0  0  0  0  0  0  0
    7.9176    1.4532   -2.5983 H   0  0  0  0  0  0  0  0  0  0  0  0
    7.9423    2.1571   -0.9861 H   0  0  0  0  0  0  0  0  0  0  0  0
    9.4271    1.4372   -1.6555 H   0  0  0  0  0  0  0  0  0  0  0  0
    4.4348   -3.2673    0.2490 H   0  0  0  0  0  0  0  0  0  0  0  0
    2.0036   -3.3334    0.3305 H   0  0  0  0  0  0  0  0  0  0  0  0
  1  2  1  0
  2  3  1  0
  3  4  1  0
  4  5  2  0
  5  6  1  0
  6  7  2  0
  7  8  1  0
  8  9  1  0
  9 10  1  0
 10 11  2  0
 10 12  1  0
 12 13  1  0
 13 14  2  0
 14 15  1  0
 15 16  2  0
 16 17  1  0
 17 18  2  0
 17 19  1  0
 19 20  1  0
 20 21  1  0
 16 22  1  0
 22 23  2  0
  7 24  1  0
 24  4  1  0
 23 13  1  0
  1 25  1  0
  1 26  1  0
  1 27  1  0
  2 28  1  0
  2 29  1  0
  3 30  1  0
  3 31  1  0
  9 32  1  0
  9 33  1  0
 12 34  1  0
 14 35  1  0
 15 36  1  0
 20 37  1  0
 20 38  1  0
 21 39  1  0
 21 40  1  0
 21 41  1  0
 22 42  1  0
 23 43  1  0
M  END
$$$$
