
     RDKit          3D

 47 49  0  0  0  0  0  0  0  0999 V2000
    6.1915   -1.5934   -0.7948 C   0  0  0  0  0  0  0  0  0  0  0  0
    6.5074   -0.2195   -0.9798 O   0  0  0  0  0  0  0  0  0  0  0  0
    5.4617    0.6410   -1.1736 C   0  0  0  0  0  0  0  0  0  0  0  0
    5.8324    1.9755   -1.3407 C   0  0  0  0  0  0  0  0  0  0  0  0
    4.8636    2.9579   -1.5321 C   0  0  0  0  0  0  0  0  0  0  0  0
    3.5128    2.6075   -1.5745 C   0  0  0  0  0  0  0  0  0  0  0  0
    3.1250    1.2723   -1.4437 C   0  0  0  0  0  0  0  0  0  0  0  0
    1.7778    0.8456   -1.4483 N   0  0  0  0  0  0  0  0  0  0  0  0
    0.6467    1.3980   -2.0429 C   0  0  0  0  0  0  0  0  0  0  0  0
    0.6593    2.4820   -3.3274 S   0  0  0  0  0  0  0  0  0  0  0  0
   -0.5373    0.8519   -1.4786 N   0  0  0  0  0  0  0  0  0  0  0  0
   -1.8418    1.0231   -2.1335 C   0  0  0  0  0  0  0  0  0  0  0  0
   -2.7784   -0.1402   -1.8123 C   0  0  0  0  0  0  0  0  0  0  0  0
   -2.8589   -0.4090   -0.3336 C   0  0  0  0  0  0  0  0  0  0  0  0
   -3.9503   -1.1187    0.1911 C   0  0  0  0  0  0  0  0  0  0  0  0
   -4.0309   -1.4011    1.5590 C   0  0  0  0  0  0  0  0  0  0  0  0
   -5.0642   -2.0838    2.1520 O   0  0  0  0  0  0  0  0  0  0  0  0
   -6.0999   -2.5722    1.3122 C   0  0  0  0  0  0  0  0  0  0  0  0
   -3.0036   -0.9671    2.4171 C   0  0  0  0  0  0  0  0  0  0  0  0
   -3.1551   -1.2800    3.7452 O   0  0  0  0  0  0  0  0  0  0  0  0
   -2.2173   -0.7361    4.6625 C   0  0  0  0  0  0  0  0  0  0  0  0
   -1.9074   -0.2757    1.8875 C   0  0  0  0  0  0  0  0  0  0  0  0
   -1.8182   -0.0028    0.5114 C   0  0  0  0  0  0  0  0  0  0  0  0
   -0.6157    0.7496   -0.0122 C   0  0  0  0  0  0  0  0  0  0  0  0
    4.1076    0.2957   -1.2155 C   0  0  0  0  0  0  0  0  0  0  0  0
    7.1314   -2.1374   -0.6571 H   0  0  0  0  0  0  0  0  0  0  0  0
    5.5850   -1.7413    0.1063 H   0  0  0  0  0  0  0  0  0  0  0  0
    5.6952   -2.0081   -1.6777 H   0  0  0  0  0  0  0  0  0  0  0  0
    6.8835    2.2528   -1.3111 H   0  0  0  0  0  0  0  0  0  0  0  0
    5.1585    3.9980   -1.6413 H   0  0  0  0  0  0  0  0  0  0  0  0
    2.7841    3.4038   -1.6794 H   0  0  0  0  0  0  0  0  0  0  0  0
    1.6332   -0.1231   -1.1929 H   0  0  0  0  0  0  0  0  0  0  0  0
   -2.2647    1.9782   -1.7959 H   0  0  0  0  0  0  0  0  0  0  0  0
   -1.7261    1.0702   -3.2208 H   0  0  0  0  0  0  0  0  0  0  0  0
   -3.7736    0.0839   -2.2129 H   0  0  0  0  0  0  0  0  0  0  0  0
   -2.4139   -1.0512   -2.3026 H   0  0  0  0  0  0  0  0  0  0  0  0
   -4.7284   -1.4403   -0.4935 H   0  0  0  0  0  0  0  0  0  0  0  0
   -6.8180   -3.1073    1.9415 H   0  0  0  0  0  0  0  0  0  0  0  0
   -5.7107   -3.2825    0.5753 H   0  0  0  0  0  0  0  0  0  0  0  0
   -6.6338   -1.7494    0.8272 H   0  0  0  0  0  0  0  0  0  0  0  0
   -2.2106    0.3586    4.6211 H   0  0  0  0  0  0  0  0  0  0  0  0
   -1.2170   -1.1459    4.4910 H   0  0  0  0  0  0  0  0  0  0  0  0
   -2.5269   -1.0292    5.6707 H   0  0  0  0  0  0  0  0  0  0  0  0
   -1.0982    0.0586    2.5289 H   0  0  0  0  0  0  0  0  0  0  0  0
   -0.6442    1.7764    0.3753 H   0  0  0  0  0  0  0  0  0  0  0  0
    0.2883    0.2719    0.3779 H   0  0  0  0  0  0  0  0  0  0  0  0
    3.8000   -0.7369   -1.0915 H   0  0  0  0  0  0  0  0  0  0  0  0
  1  2  1  0
  2  3  1  0
  3  4  2  0
  4  5  1  0
  5  6  2  0
  6  7  1  0
  7  8  1  0
  8  9  1  0
  9 10  2  0
  9 11  1  0
 11 12  1  0
 12 13  1  0
 13 14  1  0
 14 15  2  0
 15 16  1  0
 16 17  1  0
 17 18  1  0
 16 19  2  0
 19 20  1  0
 20 21  1  0
 19 22  1  0
 22 23  2  0
 23 24  1  0
  7 25  2  0
 25  3  1  0
 24 11  1  0
 23 14  1  0
  1 26  1  0
  1 27  1  0
  1 28  1  0
  4 29  1  0
  5 30  1  0
  6 31  1  0
  8 32  1  0
 12 33  1  0
 12 34  1  0
 13 35  1  0
 13 36  1  0
 15 37  1  0
 18 38  1  0
 18 39  1  0
 18 40  1  0
 21 41  1  0
 21 42  1  0
 21 43  1  0
 22 44  1  0
 24 45  1  0
 24 46  1  0
 25 47  1  0
M  END
$$$$
