
     RDKit          3D

 52 57  0  0  0  0  0  0  0  0999 V2000
    0.8532    1.9055   -3.0308 C   0  0  0  0  0  0  0  0  0  0  0  0
    1.3366    0.9518   -2.0034 C   0  0  0  0  0  0  0  0  0  0  0  0
    2.6485    0.7598   -1.8440 N   0  0  0  0  0  0  0  0  0  0  0  0
    2.7716   -0.1672   -0.8396 N   0  0  0  0  0  0  0  0  0  0  0  0
    4.0716   -0.5857   -0.4196 C   0  0  0  0  0  0  0  0  0  0  0  0
    5.2030   -0.0400   -1.0522 C   0  0  0  0  0  0  0  0  0  0  0  0
    6.4898   -0.4248   -0.6668 C   0  0  0  0  0  0  0  0  0  0  0  0
    6.6623   -1.3564    0.3530 C   0  0  0  0  0  0  0  0  0  0  0  0
    5.5491   -1.9027    0.9876 C   0  0  0  0  0  0  0  0  0  0  0  0
    4.2581   -1.5212    0.6059 C   0  0  0  0  0  0  0  0  0  0  0  0
    1.5128   -0.5604   -0.3887 C   0  0  0  0  0  0  0  0  0  0  0  0
    0.5926    0.1688   -1.1060 C   0  0  0  0  0  0  0  0  0  0  0  0
   -0.8583   -0.0312   -0.8493 C   0  0  0  0  0  0  0  0  0  0  0  0
   -1.3281    1.3013   -0.2539 C   0  0  0  0  0  0  0  0  0  0  0  0
   -0.9955    1.6838    1.0618 C   0  0  0  0  0  0  0  0  0  0  0  0
   -1.4322    2.9017    1.5906 C   0  0  0  0  0  0  0  0  0  0  0  0
   -2.2104    3.7556    0.8025 C   0  0  0  0  0  0  0  0  0  0  0  0
   -2.6761    5.0346    1.3531 N   0  0  0  0  0  4  0  0  0  0  0  0
   -3.3483    5.7679    0.6136 O   0  0  0  0  0  0  0  0  0  0  0  0
   -2.3741    5.3041    2.5241 O   0  0  0  0  0  1  0  0  0  0  0  0
   -2.5502    3.3998   -0.5083 C   0  0  0  0  0  0  0  0  0  0  0  0
   -2.1091    2.1799   -1.0298 C   0  0  0  0  0  0  0  0  0  0  0  0
   -1.1320   -1.1621    0.0634 N   0  0  0  0  0  0  0  0  0  0  0  0
   -0.0431   -1.7491    0.7376 C   0  0  0  0  0  0  0  0  0  0  0  0
    1.2281   -1.4849    0.5631 N   0  0  0  0  0  0  0  0  0  0  0  0
   -0.3276   -2.8269    1.8121 C   0  0  0  0  0  0  0  0  0  0  0  0
    0.5595   -3.3128    2.4996 O   0  0  0  0  0  0  0  0  0  0  0  0
   -1.6370   -3.2039    1.9471 N   0  0  0  0  0  0  0  0  0  0  0  0
   -2.6855   -2.6648    1.1976 C   0  0  0  0  0  0  0  0  0  0  0  0
   -3.9708   -3.1704    1.4271 C   0  0  0  0  0  0  0  0  0  0  0  0
   -5.0515   -2.6747    0.7068 C   0  0  0  0  0  0  0  0  0  0  0  0
   -4.8439   -1.6799   -0.2401 C   0  0  0  0  0  0  0  0  0  0  0  0
   -3.5567   -1.1754   -0.4650 C   0  0  0  0  0  0  0  0  0  0  0  0
   -2.4427   -1.6457    0.2512 C   0  0  0  0  0  0  0  0  0  0  0  0
    0.6532    2.8817   -2.5780 H   0  0  0  0  0  0  0  0  0  0  0  0
    1.5933    2.0434   -3.8260 H   0  0  0  0  0  0  0  0  0  0  0  0
   -0.0688    1.5427   -3.4958 H   0  0  0  0  0  0  0  0  0  0  0  0
    5.0987    0.6906   -1.8522 H   0  0  0  0  0  0  0  0  0  0  0  0
    7.3549    0.0051   -1.1646 H   0  0  0  0  0  0  0  0  0  0  0  0
    7.6623   -1.6565    0.6541 H   0  0  0  0  0  0  0  0  0  0  0  0
    5.6802   -2.6301    1.7853 H   0  0  0  0  0  0  0  0  0  0  0  0
    3.4277   -1.9770    1.1358 H   0  0  0  0  0  0  0  0  0  0  0  0
   -1.3383   -0.2175   -1.8187 H   0  0  0  0  0  0  0  0  0  0  0  0
   -0.3828    1.0344    1.6867 H   0  0  0  0  0  0  0  0  0  0  0  0
   -1.1547    3.1655    2.6096 H   0  0  0  0  0  0  0  0  0  0  0  0
   -3.1529    4.0573   -1.1323 H   0  0  0  0  0  0  0  0  0  0  0  0
   -2.3813    1.9218   -2.0521 H   0  0  0  0  0  0  0  0  0  0  0  0
   -1.8113   -3.9209    2.6379 H   0  0  0  0  0  0  0  0  0  0  0  0
   -4.1400   -3.9518    2.1634 H   0  0  0  0  0  0  0  0  0  0  0  0
   -6.0511   -3.0651    0.8812 H   0  0  0  0  0  0  0  0  0  0  0  0
   -5.6854   -1.2916   -0.8100 H   0  0  0  0  0  0  0  0  0  0  0  0
   -3.4675   -0.4065   -1.2244 H   0  0  0  0  0  0  0  0  0  0  0  0
  1  2  1  0
  2  3  2  0
  3  4  1  0
  4  5  1  0
  5  6  2  0
  6  7  1  0
  7  8  2  0
  8  9  1  0
  9 10  2  0
  4 11  1  0
 11 12  2  0
 12 13  1  0
 13 14  1  0
 14 15  2  0
 15 16  1  0
 16 17  2  0
 17 18  1  0
 18 19  2  0
 18 20  1  0
 17 21  1  0
 21 22  2  0
 13 23  1  0
 23 24  1  0
 24 25  2  0
 24 26  1  0
 26 27  2  0
 26 28  1  0
 28 29  1  0
 29 30  2  0
 30 31  1  0
 31 32  2  0
 32 33  1  0
 33 34  2  0
 12  2  1  0
 22 14  1  0
 34 23  1  0
 10  5  1  0
 25 11  1  0
 34 29  1  0
  1 35  1  0
  1 36  1  0
  1 37  1  0
  6 38  1  0
  7 39  1  0
  8 40  1  0
  9 41  1  0
 10 42  1  0
 13 43  1  0
 15 44  1  0
 16 45  1  0
 21 46  1  0
 22 47  1  0
 28 48  1  0
 30 49  1  0
 31 50  1  0
 32 51  1  0
 33 52  1  0
M  CHG  2  18   1  20  -1
M  END
$$$$
