
     RDKit          3D

 45 47  0  0  0  0  0  0  0  0999 V2000
    1.2509    1.3099   -3.3750 C   0  0  0  0  0  0  0  0  0  0  0  0
    1.4246    0.1742   -2.5248 O   0  0  0  0  0  0  0  0  0  0  0  0
    2.6556    0.2189   -1.9136 C   0  0  0  0  0  0  0  0  0  0  0  0
    3.7971   -0.1172   -2.6450 C   0  0  0  0  0  0  0  0  0  0  0  0
    5.0391   -0.1247   -2.0158 C   0  0  0  0  0  0  0  0  0  0  0  0
    5.1303    0.1861   -0.6598 C   0  0  0  0  0  0  0  0  0  0  0  0
    3.9810    0.4999    0.0758 C   0  0  0  0  0  0  0  0  0  0  0  0
    2.7293    0.5160   -0.5413 C   0  0  0  0  0  0  0  0  0  0  0  0
    1.5212    0.8102    0.1273 N   0  0  0  0  0  0  0  0  0  0  0  0
    1.3243    1.0703    1.4696 C   0  0  0  0  0  0  0  0  0  0  0  0
    2.2181    1.1812    2.3077 O   0  0  0  0  0  0  0  0  0  0  0  0
   -0.1497    1.2791    1.8533 C   0  0  0  0  0  0  0  0  0  0  0  0
   -0.3602    1.1218    3.3647 C   0  0  0  0  0  0  0  0  0  0  0  0
   -1.7750    0.5984    3.4752 C   0  0  0  0  0  0  0  0  0  0  0  0
   -1.8455   -0.3854    2.3233 C   0  0  0  0  0  0  0  0  0  0  0  0
   -1.0625    0.2505    1.2265 N   0  0  0  0  0  0  0  0  0  0  0  0
   -1.9663    0.8368   -0.0877 S   0  0  0  0  0  6  0  0  0  0  0  0
   -3.0692    1.6052    0.4461 O   0  0  0  0  0  0  0  0  0  0  0  0
   -1.0252    1.4183   -1.0208 O   0  0  0  0  0  0  0  0  0  0  0  0
   -2.5947   -0.6503   -0.8218 C   0  0  0  0  0  0  0  0  0  0  0  0
   -3.9724   -0.8830   -0.8680 C   0  0  0  0  0  0  0  0  0  0  0  0
   -4.4491   -2.0570   -1.4554 C   0  0  0  0  0  0  0  0  0  0  0  0
   -3.5505   -2.9809   -1.9928 C   0  0  0  0  0  0  0  0  0  0  0  0
   -4.1441   -4.4255   -2.7143 Cl  0  0  0  0  0  0  0  0  0  0  0  0
   -2.1760   -2.7425   -1.9514 C   0  0  0  0  0  0  0  0  0  0  0  0
   -1.6923   -1.5714   -1.3656 C   0  0  0  0  0  0  0  0  0  0  0  0
    1.4184    2.2459   -2.8302 H   0  0  0  0  0  0  0  0  0  0  0  0
    1.9085    1.2528   -4.2487 H   0  0  0  0  0  0  0  0  0  0  0  0
    0.2167    1.3049   -3.7320 H   0  0  0  0  0  0  0  0  0  0  0  0
    3.7189   -0.3840   -3.6944 H   0  0  0  0  0  0  0  0  0  0  0  0
    5.9339   -0.3812   -2.5768 H   0  0  0  0  0  0  0  0  0  0  0  0
    6.0983    0.1778   -0.1642 H   0  0  0  0  0  0  0  0  0  0  0  0
    4.1009    0.7270    1.1300 H   0  0  0  0  0  0  0  0  0  0  0  0
    0.6982    0.8172   -0.4755 H   0  0  0  0  0  0  0  0  0  0  0  0
   -0.4411    2.2932    1.5539 H   0  0  0  0  0  0  0  0  0  0  0  0
    0.3355    0.3923    3.7977 H   0  0  0  0  0  0  0  0  0  0  0  0
   -0.2236    2.0675    3.8984 H   0  0  0  0  0  0  0  0  0  0  0  0
   -2.4933    1.4137    3.3299 H   0  0  0  0  0  0  0  0  0  0  0  0
   -1.9783    0.1275    4.4408 H   0  0  0  0  0  0  0  0  0  0  0  0
   -2.8800   -0.6088    2.0510 H   0  0  0  0  0  0  0  0  0  0  0  0
   -1.3577   -1.3326    2.5812 H   0  0  0  0  0  0  0  0  0  0  0  0
   -4.6760   -0.1624   -0.4564 H   0  0  0  0  0  0  0  0  0  0  0  0
   -5.5193   -2.2449   -1.4950 H   0  0  0  0  0  0  0  0  0  0  0  0
   -1.4784   -3.4609   -2.3751 H   0  0  0  0  0  0  0  0  0  0  0  0
   -0.6203   -1.3841   -1.3387 H   0  0  0  0  0  0  0  0  0  0  0  0
  1  2  1  0
  2  3  1  0
  3  4  2  0
  4  5  1  0
  5  6  2  0
  6  7  1  0
  7  8  2  0
  8  9  1  0
  9 10  1  0
 10 11  2  0
 10 12  1  0
 12 13  1  0
 13 14  1  0
 14 15  1  0
 15 16  1  0
 16 17  1  0
 17 18  2  0
 17 19  2  0
 17 20  1  0
 20 21  2  0
 21 22  1  0
 22 23  2  0
 23 24  1  0
 23 25  1  0
 25 26  2  0
  8  3  1  0
 16 12  1  0
 26 20  1  0
  1 27  1  0
  1 28  1  0
  1 29  1  0
  4 30  1  0
  5 31  1  0
  6 32  1  0
  7 33  1  0
  9 34  1  0
 12 35  1  0
 13 36  1  0
 13 37  1  0
 14 38  1  0
 14 39  1  0
 15 40  1  0
 15 41  1  0
 21 42  1  0
 22 43  1  0
 25 44  1  0
 26 45  1  0
M  END
$$$$
