
     RDKit          3D

 45 47  0  0  0  0  0  0  0  0999 V2000
    8.0597   -0.5515    1.8055 C   0  0  0  0  0  0  0  0  0  0  0  0
    6.6070   -0.7753    1.4254 C   0  0  0  0  0  0  0  0  0  0  0  0
    6.0624    0.4773    1.0132 O   0  0  0  0  0  0  0  0  0  0  0  0
    4.7545    0.4844    0.6164 C   0  0  0  0  0  0  0  0  0  0  0  0
    3.8949   -0.6118    0.5944 C   0  0  0  0  0  0  0  0  0  0  0  0
    2.5688   -0.4647    0.1623 C   0  0  0  0  0  0  0  0  0  0  0  0
    2.0890    0.7768   -0.2561 C   0  0  0  0  0  0  0  0  0  0  0  0
    0.7689    1.0030   -0.6924 N   0  0  0  0  0  0  0  0  0  0  0  0
   -0.2105    0.0626   -0.9322 C   0  0  0  0  0  0  0  0  0  0  0  0
   -0.0811   -1.1528   -0.8976 O   0  0  0  0  0  0  0  0  0  0  0  0
   -1.4042    0.6804   -1.2465 N   0  0  0  0  0  0  0  0  0  0  0  0
   -2.6196   -0.0913   -1.4751 C   0  0  0  0  0  0  0  0  0  0  0  0
   -3.4066    0.5816   -2.6119 C   0  0  0  0  0  0  0  0  0  0  0  0
   -4.7795   -0.0384   -2.8942 C   0  0  0  0  0  0  0  0  0  0  0  0
   -5.2836   -1.0060   -1.8246 C   0  0  0  0  0  0  0  0  0  0  0  0
   -4.8432   -0.6128   -0.4394 C   0  0  0  0  0  0  0  0  0  0  0  0
   -5.7083   -0.7457    0.6530 C   0  0  0  0  0  0  0  0  0  0  0  0
   -5.2593   -0.4580    1.9401 C   0  0  0  0  0  0  0  0  0  0  0  0
   -3.9405   -0.0599    2.1443 C   0  0  0  0  0  0  0  0  0  0  0  0
   -3.0679    0.0641    1.0611 C   0  0  0  0  0  0  0  0  0  0  0  0
   -3.5110   -0.1906   -0.2447 C   0  0  0  0  0  0  0  0  0  0  0  0
    2.9531    1.8760   -0.2262 C   0  0  0  0  0  0  0  0  0  0  0  0
    4.2749    1.7282    0.2053 C   0  0  0  0  0  0  0  0  0  0  0  0
    8.6234   -0.1519    0.9559 H   0  0  0  0  0  0  0  0  0  0  0  0
    8.5260   -1.4857    2.1308 H   0  0  0  0  0  0  0  0  0  0  0  0
    8.1380    0.1831    2.6138 H   0  0  0  0  0  0  0  0  0  0  0  0
    6.0642   -1.1574    2.2976 H   0  0  0  0  0  0  0  0  0  0  0  0
    6.5599   -1.4999    0.6043 H   0  0  0  0  0  0  0  0  0  0  0  0
    4.2158   -1.6000    0.9068 H   0  0  0  0  0  0  0  0  0  0  0  0
    1.9334   -1.3454    0.1699 H   0  0  0  0  0  0  0  0  0  0  0  0
    0.5506    1.9395   -0.9956 H   0  0  0  0  0  0  0  0  0  0  0  0
   -1.5438    1.5999   -0.8582 H   0  0  0  0  0  0  0  0  0  0  0  0
   -2.3452   -1.1098   -1.7772 H   0  0  0  0  0  0  0  0  0  0  0  0
   -2.8096    0.5821   -3.5330 H   0  0  0  0  0  0  0  0  0  0  0  0
   -3.5596    1.6427   -2.3655 H   0  0  0  0  0  0  0  0  0  0  0  0
   -4.7627   -0.5561   -3.8611 H   0  0  0  0  0  0  0  0  0  0  0  0
   -5.5043    0.7783   -3.0097 H   0  0  0  0  0  0  0  0  0  0  0  0
   -6.3765   -1.0687   -1.8863 H   0  0  0  0  0  0  0  0  0  0  0  0
   -4.8974   -2.0132   -2.0274 H   0  0  0  0  0  0  0  0  0  0  0  0
   -6.7310   -1.0856    0.5091 H   0  0  0  0  0  0  0  0  0  0  0  0
   -5.9321   -0.5640    2.7869 H   0  0  0  0  0  0  0  0  0  0  0  0
   -3.5843    0.1405    3.1516 H   0  0  0  0  0  0  0  0  0  0  0  0
   -2.0371    0.3446    1.2595 H   0  0  0  0  0  0  0  0  0  0  0  0
    2.6175    2.8608   -0.5386 H   0  0  0  0  0  0  0  0  0  0  0  0
    4.9368    2.5906    0.2204 H   0  0  0  0  0  0  0  0  0  0  0  0
  1  2  1  0
  2  3  1  0
  3  4  1  0
  4  5  2  0
  5  6  1  0
  6  7  2  0
  7  8  1  0
  8  9  1  0
  9 10  2  0
  9 11  1  0
 11 12  1  0
 12 13  1  0
 13 14  1  0
 14 15  1  0
 15 16  1  0
 16 17  2  0
 17 18  1  0
 18 19  2  0
 19 20  1  0
 20 21  2  0
  7 22  1  0
 22 23  2  0
 23  4  1  0
 21 12  1  0
 21 16  1  0
  1 24  1  0
  1 25  1  0
  1 26  1  0
  2 27  1  0
  2 28  1  0
  5 29  1  0
  6 30  1  0
  8 31  1  0
 11 32  1  0
 12 33  1  0
 13 34  1  0
 13 35  1  0
 14 36  1  0
 14 37  1  0
 15 38  1  0
 15 39  1  0
 17 40  1  0
 18 41  1  0
 19 42  1  0
 20 43  1  0
 22 44  1  0
 23 45  1  0
M  END
$$$$
