
     RDKit          3D

 95 98  0  0  0  0  0  0  0  0999 V2000
   -5.5143   -5.9579    2.5839 C   0  0  0  0  0  0  0  0  0  0  0  0
   -6.1801   -5.1495    3.4196 C   0  0  0  0  0  0  0  0  0  0  0  0
   -5.8327   -3.7395    3.8165 C   0  0  0  0  0  0  0  0  0  0  0  0
   -4.7488   -3.0077    3.0128 C   0  0  0  0  0  0  0  0  0  0  0  0
   -5.1224   -2.6848    1.5493 C   0  0  0  0  0  0  0  0  0  0  0  0
   -5.8677   -1.3515    1.3542 C   0  0  0  0  0  0  0  0  0  0  0  0
   -7.2880   -1.3222    1.8655 C   0  0  0  0  0  0  0  0  0  0  0  0
   -7.6604   -0.4069    2.8638 C   0  0  0  0  0  0  0  0  0  0  0  0
   -8.9741   -0.3665    3.3314 C   0  0  0  0  0  0  0  0  0  0  0  0
   -9.9156   -1.2388    2.8004 C   0  0  0  0  0  0  0  0  0  0  0  0
  -11.1755   -1.2031    3.2537 F   0  0  0  0  0  0  0  0  0  0  0  0
   -9.5709   -2.1461    1.8056 C   0  0  0  0  0  0  0  0  0  0  0  0
   -8.2585   -2.1843    1.3322 C   0  0  0  0  0  0  0  0  0  0  0  0
   -3.8636   -2.6119    0.7044 C   0  0  0  0  0  0  0  0  0  0  0  0
   -3.7291   -3.1860   -0.3672 O   0  0  0  0  0  0  0  0  0  0  0  0
   -2.9411   -1.7893    1.2737 O   0  0  0  0  0  0  0  0  0  0  0  0
   -1.7531   -1.5741    0.4931 C   0  0  0  0  0  0  0  0  0  0  0  0
   -0.7331   -0.7932    1.3434 C   0  0  0  0  0  0  0  0  0  0  0  0
   -1.2912    0.5906    1.7483 C   0  0  0  0  0  0  0  0  0  0  0  0
   -0.3348    1.4083    2.5682 C   0  0  0  0  0  0  0  0  0  0  0  0
    0.0910    1.1409    3.8557 C   0  0  0  0  0  0  0  0  0  0  0  0
    0.9614    2.1284    4.2342 N   0  0  0  0  0  0  0  0  0  0  0  0
    1.1137    3.0449    3.2211 C   0  0  0  0  0  0  0  0  0  0  0  0
    1.8966    4.2050    3.1634 C   0  0  0  0  0  0  0  0  0  0  0  0
    1.8530    4.9585    1.9865 C   0  0  0  0  0  0  0  0  0  0  0  0
    1.0583    4.5663    0.9124 C   0  0  0  0  0  0  0  0  0  0  0  0
    0.2806    3.4052    0.9885 C   0  0  0  0  0  0  0  0  0  0  0  0
    0.3066    2.6250    2.1636 C   0  0  0  0  0  0  0  0  0  0  0  0
    0.5857   -0.7310    0.7086 N   0  0  0  0  0  0  0  0  0  0  0  0
    0.8228   -0.0765   -0.4811 C   0  0  0  0  0  0  0  0  0  0  0  0
   -0.0754    0.4203   -1.1536 O   0  0  0  0  0  0  0  0  0  0  0  0
    2.2988   -0.0245   -0.8740 C   0  0  0  0  0  0  0  0  0  0  0  0
    3.0321    0.9796    0.0407 C   0  0  0  0  0  0  0  0  0  0  0  0
    4.5306    0.9284   -0.0677 C   0  0  0  0  0  0  0  0  0  0  0  0
    5.3414    0.5163    0.9154 C   0  0  0  0  0  0  0  0  0  0  0  0
    2.4190    0.3450   -2.3643 C   0  0  0  0  0  0  0  0  0  0  0  0
    3.6389   -0.2574   -3.0470 C   0  0  0  0  0  0  0  0  0  0  0  0
    4.2180   -1.2285   -2.5533 O   0  0  0  0  0  0  0  0  0  0  0  0
    4.0164    0.2644   -4.2825 N   0  0  0  0  0  0  0  0  0  0  0  0
    3.4367    1.4781   -4.8834 C   0  0  0  0  0  0  0  0  0  0  0  0
    4.1467    2.7826   -4.4908 C   0  0  0  0  0  0  0  0  0  0  0  0
    4.0592    3.0281   -3.0930 O   0  0  0  0  0  0  0  0  0  0  0  0
    5.1259   -0.3796   -4.9903 C   0  0  0  0  0  0  0  0  0  0  0  0
    6.4423    0.3454   -4.8494 C   0  0  0  0  0  0  0  0  0  0  0  0
    7.0514    0.9453   -5.9626 C   0  0  0  0  0  0  0  0  0  0  0  0
    8.2658    1.6213   -5.8261 C   0  0  0  0  0  0  0  0  0  0  0  0
    8.8870    1.6996   -4.5801 C   0  0  0  0  0  0  0  0  0  0  0  0
    8.2965    1.0995   -3.4692 C   0  0  0  0  0  0  0  0  0  0  0  0
    7.0838    0.4233   -3.6037 C   0  0  0  0  0  0  0  0  0  0  0  0
   -5.8776   -6.9640    2.3912 H   0  0  0  0  0  0  0  0  0  0  0  0
   -4.5996   -5.6638    2.0790 H   0  0  0  0  0  0  0  0  0  0  0  0
   -7.0797   -5.5444    3.8946 H   0  0  0  0  0  0  0  0  0  0  0  0
   -6.7538   -3.1510    3.8119 H   0  0  0  0  0  0  0  0  0  0  0  0
   -5.5102   -3.7726    4.8650 H   0  0  0  0  0  0  0  0  0  0  0  0
   -3.8302   -3.6097    3.0453 H   0  0  0  0  0  0  0  0  0  0  0  0
   -4.5036   -2.0735    3.5367 H   0  0  0  0  0  0  0  0  0  0  0  0
   -5.7121   -3.5082    1.1307 H   0  0  0  0  0  0  0  0  0  0  0  0
   -5.2914   -0.5391    1.8176 H   0  0  0  0  0  0  0  0  0  0  0  0
   -5.9039   -1.0998    0.2843 H   0  0  0  0  0  0  0  0  0  0  0  0
   -6.9295    0.2806    3.2827 H   0  0  0  0  0  0  0  0  0  0  0  0
   -9.2678    0.3393    4.1024 H   0  0  0  0  0  0  0  0  0  0  0  0
  -10.3247   -2.8160    1.4044 H   0  0  0  0  0  0  0  0  0  0  0  0
   -7.9995   -2.8913    0.5459 H   0  0  0  0  0  0  0  0  0  0  0  0
   -1.3228   -2.5392    0.2001 H   0  0  0  0  0  0  0  0  0  0  0  0
   -2.0241   -1.0218   -0.4116 H   0  0  0  0  0  0  0  0  0  0  0  0
   -0.5742   -1.3643    2.2681 H   0  0  0  0  0  0  0  0  0  0  0  0
   -1.5866    1.1535    0.8549 H   0  0  0  0  0  0  0  0  0  0  0  0
   -2.2104    0.4581    2.3346 H   0  0  0  0  0  0  0  0  0  0  0  0
   -0.1506    0.3348    4.5353 H   0  0  0  0  0  0  0  0  0  0  0  0
    1.4257    2.1859    5.1298 H   0  0  0  0  0  0  0  0  0  0  0  0
    2.5160    4.5137    3.9993 H   0  0  0  0  0  0  0  0  0  0  0  0
    2.4494    5.8647    1.9093 H   0  0  0  0  0  0  0  0  0  0  0  0
    1.0418    5.1615    0.0034 H   0  0  0  0  0  0  0  0  0  0  0  0
   -0.3295    3.1046    0.1399 H   0  0  0  0  0  0  0  0  0  0  0  0
    1.3839   -0.9464    1.2928 H   0  0  0  0  0  0  0  0  0  0  0  0
    2.6966   -1.0331   -0.7002 H   0  0  0  0  0  0  0  0  0  0  0  0
    2.7096    2.0009   -0.1961 H   0  0  0  0  0  0  0  0  0  0  0  0
    2.7437    0.8194    1.0869 H   0  0  0  0  0  0  0  0  0  0  0  0
    4.9698    1.2677   -1.0037 H   0  0  0  0  0  0  0  0  0  0  0  0
    6.4181    0.5079    0.7759 H   0  0  0  0  0  0  0  0  0  0  0  0
    4.9555    0.1754    1.8704 H   0  0  0  0  0  0  0  0  0  0  0  0
    2.3919    1.4312   -2.4602 H   0  0  0  0  0  0  0  0  0  0  0  0
    1.5615   -0.0517   -2.9246 H   0  0  0  0  0  0  0  0  0  0  0  0
    3.4582    1.3622   -5.9737 H   0  0  0  0  0  0  0  0  0  0  0  0
    2.3817    1.5426   -4.6010 H   0  0  0  0  0  0  0  0  0  0  0  0
    5.1989    2.7715   -4.7748 H   0  0  0  0  0  0  0  0  0  0  0  0
    3.6708    3.6222   -5.0062 H   0  0  0  0  0  0  0  0  0  0  0  0
    4.7083    3.7223   -2.8838 H   0  0  0  0  0  0  0  0  0  0  0  0
    4.8414   -0.4606   -6.0461 H   0  0  0  0  0  0  0  0  0  0  0  0
    5.2615   -1.4112   -4.6446 H   0  0  0  0  0  0  0  0  0  0  0  0
    6.5829    0.8926   -6.9435 H   0  0  0  0  0  0  0  0  0  0  0  0
    8.7319    2.0846   -6.6925 H   0  0  0  0  0  0  0  0  0  0  0  0
    9.8344    2.2218   -4.4758 H   0  0  0  0  0  0  0  0  0  0  0  0
    8.7805    1.1526   -2.4961 H   0  0  0  0  0  0  0  0  0  0  0  0
    6.6379   -0.0496   -2.7290 H   0  0  0  0  0  0  0  0  0  0  0  0
  1  2  2  0
  2  3  1  0
  3  4  1  0
  4  5  1  0
  5  6  1  0
  6  7  1  0
  7  8  2  0
  8  9  1  0
  9 10  2  0
 10 11  1  0
 10 12  1  0
 12 13  2  0
  5 14  1  0
 14 15  2  0
 14 16  1  0
 16 17  1  0
 17 18  1  0
 18 19  1  0
 19 20  1  0
 20 21  2  0
 21 22  1  0
 22 23  1  0
 23 24  2  0
 24 25  1  0
 25 26  2  0
 26 27  1  0
 27 28  2  0
 18 29  1  0
 29 30  1  0
 30 31  2  0
 30 32  1  0
 32 33  1  0
 33 34  1  0
 34 35  2  0
 32 36  1  0
 36 37  1  0
 37 38  2  0
 37 39  1  0
 39 40  1  0
 40 41  1  0
 41 42  1  0
 39 43  1  0
 43 44  1  0
 44 45  2  0
 45 46  1  0
 46 47  2  0
 47 48  1  0
 48 49  2  0
 13  7  1  0
 28 20  1  0
 49 44  1  0
 28 23  1  0
  1 50  1  0
  1 51  1  0
  2 52  1  0
  3 53  1  0
  3 54  1  0
  4 55  1  0
  4 56  1  0
  5 57  1  0
  6 58  1  0
  6 59  1  0
  8 60  1  0
  9 61  1  0
 12 62  1  0
 13 63  1  0
 17 64  1  0
 17 65  1  0
 18 66  1  0
 19 67  1  0
 19 68  1  0
 21 69  1  0
 22 70  1  0
 24 71  1  0
 25 72  1  0
 26 73  1  0
 27 74  1  0
 29 75  1  0
 32 76  1  0
 33 77  1  0
 33 78  1  0
 34 79  1  0
 35 80  1  0
 35 81  1  0
 36 82  1  0
 36 83  1  0
 40 84  1  0
 40 85  1  0
 41 86  1  0
 41 87  1  0
 42 88  1  0
 43 89  1  0
 43 90  1  0
 45 91  1  0
 46 92  1  0
 47 93  1  0
 48 94  1  0
 49 95  1  0
M  END
$$$$
