
     RDKit          3D

 70 72  0  0  0  0  0  0  0  0999 V2000
    7.0944    1.4320   -2.6719 C   0  0  0  0  0  0  0  0  0  0  0  0
    6.4215    0.1523   -2.2002 C   0  0  0  0  0  0  0  0  0  0  0  0
    6.5475   -0.0902   -0.6936 C   0  0  0  0  0  0  0  0  0  0  0  0
    5.8116    0.9531    0.1507 C   0  0  0  0  0  0  0  0  0  0  0  0
    5.9136    0.6960    1.6584 C   0  0  0  0  0  0  0  0  0  0  0  0
    5.3104   -0.6230    2.1538 C   0  0  0  0  0  0  0  0  0  0  0  0
    3.8438   -0.8623    1.7799 C   0  0  0  0  0  0  0  0  0  0  0  0
    2.8969    0.2016    2.3418 C   0  0  0  0  0  0  0  0  0  0  0  0
    1.4140   -0.1190    2.1027 C   0  0  0  0  0  0  0  0  0  0  0  0
    1.0331   -0.0308    0.6218 C   0  0  0  0  0  0  0  0  0  0  0  0
   -0.4695   -0.2962    0.3156 N   0  0  0  0  0  4  0  0  0  0  0  0
   -0.8561   -1.7090    0.7403 C   0  0  0  0  0  0  0  0  0  0  0  0
   -1.3441    0.7091    1.0574 C   0  0  0  0  0  0  0  0  0  0  0  0
   -0.6156   -0.1195   -1.2287 C   0  0  0  0  0  0  0  0  0  0  0  0
   -1.9512   -0.5555   -1.8655 C   0  0  0  0  0  0  0  0  0  0  0  0
   -3.1086    0.3823   -1.6362 C   0  0  0  0  0  0  0  0  0  0  0  0
   -4.3264    0.1155   -1.1088 C   0  0  0  0  0  0  0  0  0  0  0  0
   -4.7153   -1.2326   -0.6230 C   0  0  0  0  0  0  0  0  0  0  0  0
   -4.6487   -2.3677   -1.4430 C   0  0  0  0  0  0  0  0  0  0  0  0
   -5.0262   -3.6184   -0.9512 C   0  0  0  0  0  0  0  0  0  0  0  0
   -5.4947   -3.7426    0.3549 C   0  0  0  0  0  0  0  0  0  0  0  0
   -5.6116   -2.6131    1.1658 C   0  0  0  0  0  0  0  0  0  0  0  0
   -5.2439   -1.3541    0.6775 C   0  0  0  0  0  0  0  0  0  0  0  0
   -5.4864    0.0790    1.7296 S   0  0  0  0  0  0  0  0  0  0  0  0
   -5.7851    1.3464    0.4920 C   0  0  0  0  0  0  0  0  0  0  0  0
   -6.6064    2.4293    0.8275 C   0  0  0  0  0  0  0  0  0  0  0  0
   -6.8687    3.4289   -0.1120 C   0  0  0  0  0  0  0  0  0  0  0  0
   -6.3157    3.3436   -1.3875 C   0  0  0  0  0  0  0  0  0  0  0  0
   -6.6468    4.5708   -2.5456 Cl  0  0  0  0  0  0  0  0  0  0  0  0
   -5.4910    2.2738   -1.7348 C   0  0  0  0  0  0  0  0  0  0  0  0
   -5.2043    1.2760   -0.7924 C   0  0  0  0  0  0  0  0  0  0  0  0
    7.0612    1.4922   -3.7646 H   0  0  0  0  0  0  0  0  0  0  0  0
    6.5907    2.3193   -2.2779 H   0  0  0  0  0  0  0  0  0  0  0  0
    8.1440    1.4622   -2.3625 H   0  0  0  0  0  0  0  0  0  0  0  0
    6.8790   -0.6942   -2.7262 H   0  0  0  0  0  0  0  0  0  0  0  0
    5.3638    0.1690   -2.4879 H   0  0  0  0  0  0  0  0  0  0  0  0
    6.1420   -1.0864   -0.4842 H   0  0  0  0  0  0  0  0  0  0  0  0
    7.6072   -0.1132   -0.4121 H   0  0  0  0  0  0  0  0  0  0  0  0
    4.7601    1.0054   -0.1532 H   0  0  0  0  0  0  0  0  0  0  0  0
    6.2374    1.9445   -0.0424 H   0  0  0  0  0  0  0  0  0  0  0  0
    5.4365    1.5307    2.1860 H   0  0  0  0  0  0  0  0  0  0  0  0
    6.9708    0.7222    1.9517 H   0  0  0  0  0  0  0  0  0  0  0  0
    5.9082   -1.4607    1.7758 H   0  0  0  0  0  0  0  0  0  0  0  0
    5.4080   -0.6566    3.2465 H   0  0  0  0  0  0  0  0  0  0  0  0
    3.7496   -0.9242    0.6911 H   0  0  0  0  0  0  0  0  0  0  0  0
    3.5494   -1.8443    2.1713 H   0  0  0  0  0  0  0  0  0  0  0  0
    3.0589    0.2839    3.4238 H   0  0  0  0  0  0  0  0  0  0  0  0
    3.1249    1.1830    1.9111 H   0  0  0  0  0  0  0  0  0  0  0  0
    0.8347    0.6017    2.6878 H   0  0  0  0  0  0  0  0  0  0  0  0
    1.2016   -1.1130    2.5079 H   0  0  0  0  0  0  0  0  0  0  0  0
    1.2572    0.9697    0.2326 H   0  0  0  0  0  0  0  0  0  0  0  0
    1.5955   -0.7670    0.0375 H   0  0  0  0  0  0  0  0  0  0  0  0
   -0.7005   -1.8133    1.8163 H   0  0  0  0  0  0  0  0  0  0  0  0
   -0.2358   -2.4186    0.1861 H   0  0  0  0  0  0  0  0  0  0  0  0
   -1.9154   -1.8679    0.5305 H   0  0  0  0  0  0  0  0  0  0  0  0
   -2.3885    0.4957    0.8459 H   0  0  0  0  0  0  0  0  0  0  0  0
   -1.0721    1.7164    0.7311 H   0  0  0  0  0  0  0  0  0  0  0  0
   -1.1913    0.5930    2.1324 H   0  0  0  0  0  0  0  0  0  0  0  0
    0.1811   -0.7275   -1.6754 H   0  0  0  0  0  0  0  0  0  0  0  0
   -0.4005    0.9337   -1.4479 H   0  0  0  0  0  0  0  0  0  0  0  0
   -2.1683   -1.5877   -1.5908 H   0  0  0  0  0  0  0  0  0  0  0  0
   -1.7931   -0.5775   -2.9524 H   0  0  0  0  0  0  0  0  0  0  0  0
   -2.8841    1.4128   -1.9190 H   0  0  0  0  0  0  0  0  0  0  0  0
   -4.3242   -2.2861   -2.4781 H   0  0  0  0  0  0  0  0  0  0  0  0
   -4.9767   -4.4948   -1.5944 H   0  0  0  0  0  0  0  0  0  0  0  0
   -5.8028   -4.7157    0.7323 H   0  0  0  0  0  0  0  0  0  0  0  0
   -6.0187   -2.7214    2.1692 H   0  0  0  0  0  0  0  0  0  0  0  0
   -7.0576    2.4995    1.8152 H   0  0  0  0  0  0  0  0  0  0  0  0
   -7.5140    4.2633    0.1543 H   0  0  0  0  0  0  0  0  0  0  0  0
   -5.0883    2.2160   -2.7429 H   0  0  0  0  0  0  0  0  0  0  0  0
  1  2  1  0
  2  3  1  0
  3  4  1  0
  4  5  1  0
  5  6  1  0
  6  7  1  0
  7  8  1  0
  8  9  1  0
  9 10  1  0
 10 11  1  0
 11 12  1  0
 11 13  1  0
 11 14  1  0
 14 15  1  0
 15 16  1  0
 16 17  2  3
 17 18  1  0
 18 19  2  0
 19 20  1  0
 20 21  2  0
 21 22  1  0
 22 23  2  0
 23 24  1  0
 24 25  1  0
 25 26  2  0
 26 27  1  0
 27 28  2  0
 28 29  1  0
 28 30  1  0
 30 31  2  0
 31 17  1  0
 23 18  1  0
 31 25  1  0
  1 32  1  0
  1 33  1  0
  1 34  1  0
  2 35  1  0
  2 36  1  0
  3 37  1  0
  3 38  1  0
  4 39  1  0
  4 40  1  0
  5 41  1  0
  5 42  1  0
  6 43  1  0
  6 44  1  0
  7 45  1  0
  7 46  1  0
  8 47  1  0
  8 48  1  0
  9 49  1  0
  9 50  1  0
 10 51  1  0
 10 52  1  0
 12 53  1  0
 12 54  1  0
 12 55  1  0
 13 56  1  0
 13 57  1  0
 13 58  1  0
 14 59  1  0
 14 60  1  0
 15 61  1  0
 15 62  1  0
 16 63  1  0
 19 64  1  0
 20 65  1  0
 21 66  1  0
 22 67  1  0
 26 68  1  0
 27 69  1  0
 30 70  1  0
M  CHG  1  11   1
M  END
$$$$
