
     RDKit          3D

 52 55  0  0  0  0  0  0  0  0999 V2000
    3.9136    2.5796   -0.0540 O   0  0  0  0  0  0  0  0  0  0  0  0
    3.5473    1.4415   -0.3351 C   0  0  0  0  0  0  0  0  0  0  0  0
    2.2261    1.0656   -0.5005 N   0  0  0  0  0  0  0  0  0  0  0  0
    1.2544    1.9580   -0.0079 N   0  0  0  0  0  0  0  0  0  0  0  0
   -0.0430    1.3945   -0.0056 C   0  0  0  0  0  0  0  0  0  0  0  0
   -1.1049    2.1965    0.3509 C   0  0  0  0  0  0  0  0  0  0  0  0
   -2.3448    1.6041    0.4571 C   0  0  0  0  0  0  0  0  0  0  0  0
   -3.4523    2.3330    0.8411 N   0  0  0  0  0  0  0  0  0  0  0  0
   -3.6325    3.7336    0.4725 C   0  0  0  0  0  0  0  0  0  0  0  0
   -5.1501    3.9001    0.3504 C   0  0  0  0  0  0  0  0  0  0  0  0
   -5.7090    2.7998    1.2397 C   0  0  0  0  0  0  0  0  0  0  0  0
   -4.7351    1.6496    0.9916 C   0  0  0  0  0  0  0  0  0  0  0  0
   -2.4846    0.2841    0.2470 N   0  0  0  0  0  0  0  0  0  0  0  0
   -1.4151   -0.4436   -0.1073 C   0  0  0  0  0  0  0  0  0  0  0  0
   -1.5940   -1.7806   -0.3768 N   0  0  0  0  0  0  0  0  0  0  0  0
   -2.8071   -2.4370    0.0859 C   0  0  0  0  0  0  0  0  0  0  0  0
   -2.5010   -3.9152   -0.1437 C   0  0  0  0  0  0  0  0  0  0  0  0
   -1.0143   -3.9957    0.1713 C   0  0  0  0  0  0  0  0  0  0  0  0
   -0.4553   -2.6855   -0.3879 C   0  0  0  0  0  0  0  0  0  0  0  0
   -0.1884    0.0774   -0.2442 N   0  0  0  0  0  0  0  0  0  0  0  0
    4.5491    0.3511   -0.4805 C   0  0  0  0  0  0  0  0  0  0  0  0
    5.7165    0.4153    0.2922 C   0  0  0  0  0  0  0  0  0  0  0  0
    6.6796   -0.5926    0.2004 C   0  0  0  0  0  0  0  0  0  0  0  0
    6.4737   -1.6631   -0.6778 C   0  0  0  0  0  0  0  0  0  0  0  0
    7.4938   -2.7140   -0.7941 N   0  0  0  0  0  4  0  0  0  0  0  0
    7.3555   -3.5515   -1.7000 O   0  0  0  0  0  0  0  0  0  0  0  0
    8.4335   -2.6975    0.0146 O   0  0  0  0  0  1  0  0  0  0  0  0
    5.3182   -1.7240   -1.4742 C   0  0  0  0  0  0  0  0  0  0  0  0
    4.3592   -0.7103   -1.3789 C   0  0  0  0  0  0  0  0  0  0  0  0
    1.9360    0.0879   -0.4480 H   0  0  0  0  0  0  0  0  0  0  0  0
    1.2984    2.8650   -0.4707 H   0  0  0  0  0  0  0  0  0  0  0  0
   -0.9561    3.2429    0.5779 H   0  0  0  0  0  0  0  0  0  0  0  0
   -3.1495    3.9959   -0.4788 H   0  0  0  0  0  0  0  0  0  0  0  0
   -3.2354    4.3770    1.2664 H   0  0  0  0  0  0  0  0  0  0  0  0
   -5.4935    4.9000    0.6360 H   0  0  0  0  0  0  0  0  0  0  0  0
   -5.4599    3.7212   -0.6897 H   0  0  0  0  0  0  0  0  0  0  0  0
   -5.6751    3.0948    2.2936 H   0  0  0  0  0  0  0  0  0  0  0  0
   -6.7414    2.5357    0.9910 H   0  0  0  0  0  0  0  0  0  0  0  0
   -5.0125    1.1112    0.0756 H   0  0  0  0  0  0  0  0  0  0  0  0
   -4.7286    0.9539    1.8399 H   0  0  0  0  0  0  0  0  0  0  0  0
   -3.6914   -2.1261   -0.4789 H   0  0  0  0  0  0  0  0  0  0  0  0
   -2.9763   -2.2562    1.1561 H   0  0  0  0  0  0  0  0  0  0  0  0
   -2.6791   -4.1805   -1.1916 H   0  0  0  0  0  0  0  0  0  0  0  0
   -3.1059   -4.5721    0.4905 H   0  0  0  0  0  0  0  0  0  0  0  0
   -0.5304   -4.8784   -0.2586 H   0  0  0  0  0  0  0  0  0  0  0  0
   -0.8666   -4.0242    1.2595 H   0  0  0  0  0  0  0  0  0  0  0  0
    0.3887   -2.3531    0.2276 H   0  0  0  0  0  0  0  0  0  0  0  0
   -0.1072   -2.8166   -1.4164 H   0  0  0  0  0  0  0  0  0  0  0  0
    5.8756    1.2557    0.9672 H   0  0  0  0  0  0  0  0  0  0  0  0
    7.5758   -0.5259    0.8105 H   0  0  0  0  0  0  0  0  0  0  0  0
    5.1631   -2.5345   -2.1816 H   0  0  0  0  0  0  0  0  0  0  0  0
    3.4825   -0.7465   -2.0239 H   0  0  0  0  0  0  0  0  0  0  0  0
  1  2  2  0
  2  3  1  0
  3  4  1  0
  4  5  1  0
  5  6  2  0
  6  7  1  0
  7  8  1  0
  8  9  1  0
  9 10  1  0
 10 11  1  0
 11 12  1  0
  7 13  2  0
 13 14  1  0
 14 15  1  0
 15 16  1  0
 16 17  1  0
 17 18  1  0
 18 19  1  0
 14 20  2  0
  2 21  1  0
 21 22  2  0
 22 23  1  0
 23 24  2  0
 24 25  1  0
 25 26  2  0
 25 27  1  0
 24 28  1  0
 28 29  2  0
 20  5  1  0
 29 21  1  0
 12  8  1  0
 19 15  1  0
  3 30  1  0
  4 31  1  0
  6 32  1  0
  9 33  1  0
  9 34  1  0
 10 35  1  0
 10 36  1  0
 11 37  1  0
 11 38  1  0
 12 39  1  0
 12 40  1  0
 16 41  1  0
 16 42  1  0
 17 43  1  0
 17 44  1  0
 18 45  1  0
 18 46  1  0
 19 47  1  0
 19 48  1  0
 22 49  1  0
 23 50  1  0
 28 51  1  0
 29 52  1  0
M  CHG  2  25   1  27  -1
M  END
$$$$
