
     RDKit          3D

 44 45  0  0  0  0  0  0  0  0999 V2000
    1.0142   -0.4522   -5.3317 C   0  0  0  0  0  0  0  0  0  0  0  0
    0.9278   -0.0702   -3.8614 C   0  0  0  0  0  0  0  0  0  0  0  0
    2.1276    0.7796   -3.4326 C   0  0  0  0  0  0  0  0  0  0  0  0
    2.0371    1.2298   -1.9698 C   0  0  0  0  0  0  0  0  0  0  0  0
    2.1471    0.0772   -1.0532 N   0  0  0  0  0  0  0  0  0  0  0  0
    3.5312   -0.3268   -0.7702 C   0  0  0  0  0  0  0  0  0  0  0  0
    1.1173   -0.2644   -0.1601 C   0  0  0  0  0  0  0  0  0  0  0  0
    0.3307    0.6392    0.4590 C   0  0  0  0  0  0  0  0  0  0  0  0
   -0.7835    0.3023    1.3320 C   0  0  0  0  0  0  0  0  0  0  0  0
   -1.4213    1.2540    2.0387 C   0  0  0  0  0  0  0  0  0  0  0  0
   -2.5580    0.9871    2.9285 C   0  0  0  0  0  0  0  0  0  0  0  0
   -3.0862    1.9248    3.7583 C   0  0  0  0  0  0  0  0  0  0  0  0
   -4.2073    1.6362    4.5915 C   0  0  0  0  0  0  0  0  0  0  0  0
   -5.1208    1.3908    5.2640 N   0  0  0  0  0  0  0  0  0  0  0  0
   -2.5700    3.2515    3.8358 C   0  0  0  0  0  0  0  0  0  0  0  0
   -2.1425    4.3294    3.8890 N   0  0  0  0  0  0  0  0  0  0  0  0
   -3.1000   -0.4348    2.8438 C   0  0  0  0  0  0  0  0  0  0  0  0
   -1.9863   -1.4635    2.6628 C   0  0  0  0  0  0  0  0  0  0  0  0
   -1.1727   -1.1573    1.3999 C   0  0  0  0  0  0  0  0  0  0  0  0
    0.0646   -2.0529    1.3299 C   0  0  0  0  0  0  0  0  0  0  0  0
    0.8895   -1.7499    0.0780 C   0  0  0  0  0  0  0  0  0  0  0  0
    1.9048   -1.0587   -5.5253 H   0  0  0  0  0  0  0  0  0  0  0  0
    0.1369   -1.0393   -5.6236 H   0  0  0  0  0  0  0  0  0  0  0  0
    1.0584    0.4372   -5.9676 H   0  0  0  0  0  0  0  0  0  0  0  0
   -0.0014    0.4850   -3.6882 H   0  0  0  0  0  0  0  0  0  0  0  0
    0.8766   -0.9854   -3.2616 H   0  0  0  0  0  0  0  0  0  0  0  0
    2.1772    1.6751   -4.0650 H   0  0  0  0  0  0  0  0  0  0  0  0
    3.0523    0.2180   -3.6066 H   0  0  0  0  0  0  0  0  0  0  0  0
    2.8374    1.9485   -1.7554 H   0  0  0  0  0  0  0  0  0  0  0  0
    1.0936    1.7694   -1.8370 H   0  0  0  0  0  0  0  0  0  0  0  0
    4.1819   -0.1607   -1.6352 H   0  0  0  0  0  0  0  0  0  0  0  0
    3.6076   -1.3875   -0.5106 H   0  0  0  0  0  0  0  0  0  0  0  0
    3.9273    0.2653    0.0638 H   0  0  0  0  0  0  0  0  0  0  0  0
    0.5335    1.6970    0.3190 H   0  0  0  0  0  0  0  0  0  0  0  0
   -1.0704    2.2807    1.9520 H   0  0  0  0  0  0  0  0  0  0  0  0
   -3.6653   -0.7136    3.7392 H   0  0  0  0  0  0  0  0  0  0  0  0
   -3.7954   -0.4963    1.9968 H   0  0  0  0  0  0  0  0  0  0  0  0
   -1.3389   -1.4615    3.5489 H   0  0  0  0  0  0  0  0  0  0  0  0
   -2.4240   -2.4663    2.5879 H   0  0  0  0  0  0  0  0  0  0  0  0
   -1.8030   -1.3705    0.5255 H   0  0  0  0  0  0  0  0  0  0  0  0
    0.6900   -1.9074    2.2210 H   0  0  0  0  0  0  0  0  0  0  0  0
   -0.2310   -3.1092    1.3222 H   0  0  0  0  0  0  0  0  0  0  0  0
    0.3782   -2.1584   -0.8027 H   0  0  0  0  0  0  0  0  0  0  0  0
    1.8349   -2.2914    0.1703 H   0  0  0  0  0  0  0  0  0  0  0  0
  1  2  1  0
  2  3  1  0
  3  4  1  0
  4  5  1  0
  5  6  1  0
  5  7  1  0
  7  8  2  0
  8  9  1  0
  9 10  2  0
 10 11  1  0
 11 12  2  3
 12 13  1  0
 13 14  3  0
 12 15  1  0
 15 16  3  0
 11 17  1  0
 17 18  1  0
 18 19  1  0
 19 20  1  0
 20 21  1  0
 21  7  1  0
 19  9  1  0
  1 22  1  0
  1 23  1  0
  1 24  1  0
  2 25  1  0
  2 26  1  0
  3 27  1  0
  3 28  1  0
  4 29  1  0
  4 30  1  0
  6 31  1  0
  6 32  1  0
  6 33  1  0
  8 34  1  0
 10 35  1  0
 17 36  1  0
 17 37  1  0
 18 38  1  0
 18 39  1  0
 19 40  1  0
 20 41  1  0
 20 42  1  0
 21 43  1  0
 21 44  1  0
M  END
$$$$
