
     RDKit          3D

 47 50  0  0  0  0  0  0  0  0999 V2000
    2.6942   -1.7605    1.5377 C   0  0  0  0  0  0  0  0  0  0  0  0
    2.0746   -1.4972    0.2588 N   0  0  0  0  0  0  0  0  0  0  0  0
    2.2037   -0.3435   -0.4918 C   0  0  0  0  0  0  0  0  0  0  0  0
    3.0140    0.8177   -0.1460 C   0  0  0  0  0  0  0  0  0  0  0  0
    2.6857    1.6134    0.9625 C   0  0  0  0  0  0  0  0  0  0  0  0
    3.4690    2.7242    1.2946 C   0  0  0  0  0  0  0  0  0  0  0  0
    4.5820    3.0488    0.5176 C   0  0  0  0  0  0  0  0  0  0  0  0
    4.9119    2.2639   -0.5927 C   0  0  0  0  0  0  0  0  0  0  0  0
    4.1284    1.1522   -0.9259 C   0  0  0  0  0  0  0  0  0  0  0  0
    1.3733   -0.5533   -1.5796 C   0  0  0  0  0  0  0  0  0  0  0  0
    0.7497   -1.7728   -1.5131 N   0  0  0  0  0  0  0  0  0  0  0  0
    1.1855   -2.3108   -0.3977 C   0  0  0  0  0  0  0  0  0  0  0  0
    0.6283   -3.8225    0.2398 S   0  0  0  0  0  0  0  0  0  0  0  0
   -1.1638   -3.5875   -0.0277 C   0  0  0  0  0  0  0  0  0  0  0  0
   -1.6454   -2.3454    0.7397 C   0  0  0  0  0  0  0  0  0  0  0  0
   -1.4439   -2.2791    1.9578 O   0  0  0  0  0  0  0  0  0  0  0  0
   -2.2863   -1.3404   -0.0047 N   0  0  0  0  0  0  0  0  0  0  0  0
   -2.9440   -1.6699   -1.2756 C   0  0  0  0  0  0  0  0  0  0  0  0
   -4.1659   -0.8110   -1.5521 C   0  0  0  0  0  0  0  0  0  0  0  0
   -3.7414    0.6432   -1.6124 C   0  0  0  0  0  0  0  0  0  0  0  0
   -2.9574    1.0194   -0.3813 C   0  0  0  0  0  0  0  0  0  0  0  0
   -2.8993    2.3865   -0.0372 C   0  0  0  0  0  0  0  0  0  0  0  0
   -2.1624    2.8136    1.0645 C   0  0  0  0  0  0  0  0  0  0  0  0
   -1.4693    1.8801    1.8229 C   0  0  0  0  0  0  0  0  0  0  0  0
   -1.5106    0.5217    1.4800 C   0  0  0  0  0  0  0  0  0  0  0  0
   -2.2580    0.0555    0.3818 C   0  0  0  0  0  0  0  0  0  0  0  0
    1.9408   -1.6026    2.3125 H   0  0  0  0  0  0  0  0  0  0  0  0
    3.5418   -1.0860    1.6960 H   0  0  0  0  0  0  0  0  0  0  0  0
    3.0677   -2.7881    1.5554 H   0  0  0  0  0  0  0  0  0  0  0  0
    1.8089    1.3816    1.5650 H   0  0  0  0  0  0  0  0  0  0  0  0
    3.2083    3.3394    2.1568 H   0  0  0  0  0  0  0  0  0  0  0  0
    5.1889    3.9146    0.7738 H   0  0  0  0  0  0  0  0  0  0  0  0
    5.7727    2.5227   -1.2073 H   0  0  0  0  0  0  0  0  0  0  0  0
    4.3981    0.5446   -1.7917 H   0  0  0  0  0  0  0  0  0  0  0  0
    1.1863    0.1209   -2.4058 H   0  0  0  0  0  0  0  0  0  0  0  0
   -1.7095   -4.4568    0.3568 H   0  0  0  0  0  0  0  0  0  0  0  0
   -1.3270   -3.5406   -1.1060 H   0  0  0  0  0  0  0  0  0  0  0  0
   -2.1999   -1.5663   -2.0759 H   0  0  0  0  0  0  0  0  0  0  0  0
   -3.2748   -2.7150   -1.2549 H   0  0  0  0  0  0  0  0  0  0  0  0
   -4.9092   -0.9527   -0.7561 H   0  0  0  0  0  0  0  0  0  0  0  0
   -4.6390   -1.1079   -2.4976 H   0  0  0  0  0  0  0  0  0  0  0  0
   -4.6349    1.2749   -1.6995 H   0  0  0  0  0  0  0  0  0  0  0  0
   -3.1161    0.8219   -2.4952 H   0  0  0  0  0  0  0  0  0  0  0  0
   -3.4297    3.1261   -0.6359 H   0  0  0  0  0  0  0  0  0  0  0  0
   -2.1205    3.8688    1.3259 H   0  0  0  0  0  0  0  0  0  0  0  0
   -0.8830    2.2019    2.6826 H   0  0  0  0  0  0  0  0  0  0  0  0
   -0.9222   -0.1477    2.0986 H   0  0  0  0  0  0  0  0  0  0  0  0
  1  2  1  0
  2  3  1  0
  3  4  1  0
  4  5  2  0
  5  6  1  0
  6  7  2  0
  7  8  1  0
  8  9  2  0
  3 10  2  0
 10 11  1  0
 11 12  2  0
 12 13  1  0
 13 14  1  0
 14 15  1  0
 15 16  2  0
 15 17  1  0
 17 18  1  0
 18 19  1  0
 19 20  1  0
 20 21  1  0
 21 22  2  0
 22 23  1  0
 23 24  2  0
 24 25  1  0
 25 26  2  0
 12  2  1  0
 26 17  1  0
  9  4  1  0
 26 21  1  0
  1 27  1  0
  1 28  1  0
  1 29  1  0
  5 30  1  0
  6 31  1  0
  7 32  1  0
  8 33  1  0
  9 34  1  0
 10 35  1  0
 14 36  1  0
 14 37  1  0
 18 38  1  0
 18 39  1  0
 19 40  1  0
 19 41  1  0
 20 42  1  0
 20 43  1  0
 22 44  1  0
 23 45  1  0
 24 46  1  0
 25 47  1  0
M  END
$$$$
