
     RDKit          3D

 45 47  0  0  0  0  0  0  0  0999 V2000
    1.6326    1.0106   -3.3777 C   0  0  0  0  0  0  0  0  0  0  0  0
    1.9260    1.5001   -2.0676 O   0  0  0  0  0  0  0  0  0  0  0  0
    3.0891    0.9652   -1.5612 C   0  0  0  0  0  0  0  0  0  0  0  0
    4.3001    1.0543   -2.2527 C   0  0  0  0  0  0  0  0  0  0  0  0
    5.4606    0.5344   -1.6828 C   0  0  0  0  0  0  0  0  0  0  0  0
    5.4100   -0.0576   -0.4220 C   0  0  0  0  0  0  0  0  0  0  0  0
    4.2016   -0.1286    0.2795 C   0  0  0  0  0  0  0  0  0  0  0  0
    3.0314    0.3837   -0.2810 C   0  0  0  0  0  0  0  0  0  0  0  0
    1.7701    0.3603    0.3548 N   0  0  0  0  0  0  0  0  0  0  0  0
    1.4399   -0.1861    1.5786 C   0  0  0  0  0  0  0  0  0  0  0  0
    2.2143   -0.7736    2.3324 O   0  0  0  0  0  0  0  0  0  0  0  0
    0.0115    0.1043    2.0351 C   0  0  0  0  0  0  0  0  0  0  0  0
   -0.0872    1.5743    2.4874 C   0  0  0  0  0  0  0  0  0  0  0  0
   -1.4934    2.0018    2.1078 C   0  0  0  0  0  0  0  0  0  0  0  0
   -1.7357    1.2461    0.8134 C   0  0  0  0  0  0  0  0  0  0  0  0
   -1.1254   -0.0657    1.0836 N   0  0  0  0  0  0  0  0  0  0  0  0
   -1.0212   -1.2030   -0.1444 S   0  0  0  0  0  6  0  0  0  0  0  0
   -0.4661   -0.5250   -1.2969 O   0  0  0  0  0  0  0  0  0  0  0  0
   -0.4331   -2.4090    0.3902 O   0  0  0  0  0  0  0  0  0  0  0  0
   -2.7310   -1.5528   -0.4790 C   0  0  0  0  0  0  0  0  0  0  0  0
   -3.4817   -2.2418    0.4800 C   0  0  0  0  0  0  0  0  0  0  0  0
   -4.8261   -2.5214    0.2282 C   0  0  0  0  0  0  0  0  0  0  0  0
   -5.4047   -2.1178   -0.9763 C   0  0  0  0  0  0  0  0  0  0  0  0
   -7.0627   -2.4594   -1.2824 Cl  0  0  0  0  0  0  0  0  0  0  0  0
   -4.6506   -1.4405   -1.9360 C   0  0  0  0  0  0  0  0  0  0  0  0
   -3.3055   -1.1561   -1.6906 C   0  0  0  0  0  0  0  0  0  0  0  0
    2.1931    1.5738   -4.1322 H   0  0  0  0  0  0  0  0  0  0  0  0
    0.5669    1.1731   -3.5624 H   0  0  0  0  0  0  0  0  0  0  0  0
    1.8310   -0.0644   -3.4707 H   0  0  0  0  0  0  0  0  0  0  0  0
    4.3553    1.5392   -3.2221 H   0  0  0  0  0  0  0  0  0  0  0  0
    6.4055    0.5967   -2.2163 H   0  0  0  0  0  0  0  0  0  0  0  0
    6.3138   -0.4634    0.0255 H   0  0  0  0  0  0  0  0  0  0  0  0
    4.2088   -0.5930    1.2603 H   0  0  0  0  0  0  0  0  0  0  0  0
    1.0195    0.7221   -0.2314 H   0  0  0  0  0  0  0  0  0  0  0  0
   -0.2033   -0.5527    2.8884 H   0  0  0  0  0  0  0  0  0  0  0  0
    0.0923    1.6771    3.5625 H   0  0  0  0  0  0  0  0  0  0  0  0
    0.6452    2.2113    1.9774 H   0  0  0  0  0  0  0  0  0  0  0  0
   -2.2036    1.6795    2.8797 H   0  0  0  0  0  0  0  0  0  0  0  0
   -1.5883    3.0842    1.9849 H   0  0  0  0  0  0  0  0  0  0  0  0
   -2.8049    1.1627    0.6052 H   0  0  0  0  0  0  0  0  0  0  0  0
   -1.2321    1.7434   -0.0221 H   0  0  0  0  0  0  0  0  0  0  0  0
   -3.0244   -2.5617    1.4142 H   0  0  0  0  0  0  0  0  0  0  0  0
   -5.4148   -3.0540    0.9707 H   0  0  0  0  0  0  0  0  0  0  0  0
   -5.1038   -1.1354   -2.8758 H   0  0  0  0  0  0  0  0  0  0  0  0
   -2.7191   -0.6350   -2.4434 H   0  0  0  0  0  0  0  0  0  0  0  0
  1  2  1  0
  2  3  1  0
  3  4  2  0
  4  5  1  0
  5  6  2  0
  6  7  1  0
  7  8  2  0
  8  9  1  0
  9 10  1  0
 10 11  2  0
 10 12  1  0
 12 13  1  0
 13 14  1  0
 14 15  1  0
 15 16  1  0
 16 17  1  0
 17 18  2  0
 17 19  2  0
 17 20  1  0
 20 21  2  0
 21 22  1  0
 22 23  2  0
 23 24  1  0
 23 25  1  0
 25 26  2  0
  8  3  1  0
 16 12  1  0
 26 20  1  0
  1 27  1  0
  1 28  1  0
  1 29  1  0
  4 30  1  0
  5 31  1  0
  6 32  1  0
  7 33  1  0
  9 34  1  0
 12 35  1  0
 13 36  1  0
 13 37  1  0
 14 38  1  0
 14 39  1  0
 15 40  1  0
 15 41  1  0
 21 42  1  0
 22 43  1  0
 25 44  1  0
 26 45  1  0
M  END
$$$$
