
     RDKit          3D

 40 43  0  0  0  0  0  0  0  0999 V2000
   -4.1662    0.7731    2.5466 C   0  0  0  0  0  0  0  0  0  0  0  0
   -2.8723    1.0084    3.2344 C   0  0  0  0  0  0  0  0  0  0  0  0
   -2.9067    1.2314    4.6088 N   0  0  0  0  0  0  0  0  0  0  0  0
   -1.7056    1.4783    5.1034 N   0  0  0  0  0  0  0  0  0  0  0  0
   -0.5074    1.4447    3.9398 S   0  0  0  0  0  0  0  0  0  0  0  0
   -1.6009    1.0452    2.6785 C   0  0  0  0  0  0  0  0  0  0  0  0
   -1.1599    0.8368    1.3428 C   0  0  0  0  0  0  0  0  0  0  0  0
   -0.4753    1.7252    0.6434 N   0  0  0  0  0  0  0  0  0  0  0  0
   -0.2866    1.2175   -0.6250 N   0  0  0  0  0  0  0  0  0  0  0  0
   -0.8451    0.0320   -0.6657 C   0  0  0  0  0  0  0  0  0  0  0  0
   -0.9088   -0.9794   -2.0642 S   0  0  0  0  0  0  0  0  0  0  0  0
    0.6443   -1.9041   -1.9410 C   0  0  0  0  0  0  0  0  0  0  0  0
    1.7707   -1.1250   -1.2982 C   0  0  0  0  0  0  0  0  0  0  0  0
    2.1119   -1.3752   -0.1397 O   0  0  0  0  0  0  0  0  0  0  0  0
    2.4791   -0.0479   -2.0570 C   0  0  0  0  0  0  0  0  0  0  0  0
    2.3246    0.1361   -3.4373 C   0  0  0  0  0  0  0  0  0  0  0  0
    3.0120    1.1678   -4.0899 C   0  0  0  0  0  0  0  0  0  0  0  0
    3.8557    2.0229   -3.3702 C   0  0  0  0  0  0  0  0  0  0  0  0
    4.5420    3.0898   -4.0398 C   0  0  0  0  0  0  0  0  0  0  0  0
    5.0901    3.9558   -4.5837 N   0  0  0  0  0  0  0  0  0  0  0  0
    4.0153    1.8398   -1.9949 C   0  0  0  0  0  0  0  0  0  0  0  0
    3.3294    0.8106   -1.3415 C   0  0  0  0  0  0  0  0  0  0  0  0
   -1.3742   -0.2697    0.5589 N   0  0  0  0  0  0  0  0  0  0  0  0
   -2.1043   -1.5058    0.9241 C   0  0  0  0  0  0  0  0  0  0  0  0
   -1.9640   -2.2064    2.2572 C   0  0  0  0  0  0  0  0  0  0  0  0
   -1.4078   -2.8441    1.0233 C   0  0  0  0  0  0  0  0  0  0  0  0
   -4.1355    1.1088    1.5057 H   0  0  0  0  0  0  0  0  0  0  0  0
   -4.9730    1.3161    3.0503 H   0  0  0  0  0  0  0  0  0  0  0  0
   -4.4189   -0.2924    2.5641 H   0  0  0  0  0  0  0  0  0  0  0  0
    0.9471   -2.2781   -2.9228 H   0  0  0  0  0  0  0  0  0  0  0  0
    0.4645   -2.7957   -1.3307 H   0  0  0  0  0  0  0  0  0  0  0  0
    1.6792   -0.4995   -4.0361 H   0  0  0  0  0  0  0  0  0  0  0  0
    2.8774    1.3067   -5.1626 H   0  0  0  0  0  0  0  0  0  0  0  0
    4.6547    2.5042   -1.4156 H   0  0  0  0  0  0  0  0  0  0  0  0
    3.4506    0.6927   -0.2626 H   0  0  0  0  0  0  0  0  0  0  0  0
   -3.0968   -1.5201    0.4786 H   0  0  0  0  0  0  0  0  0  0  0  0
   -1.2446   -1.8530    2.9877 H   0  0  0  0  0  0  0  0  0  0  0  0
   -2.8525   -2.6436    2.7001 H   0  0  0  0  0  0  0  0  0  0  0  0
   -0.3264   -2.8902    0.9454 H   0  0  0  0  0  0  0  0  0  0  0  0
   -1.9157   -3.7137    0.6223 H   0  0  0  0  0  0  0  0  0  0  0  0
  1  2  1  0
  2  3  1  0
  3  4  2  0
  4  5  1  0
  5  6  1  0
  6  7  1  0
  7  8  2  0
  8  9  1  0
  9 10  2  0
 10 11  1  0
 11 12  1  0
 12 13  1  0
 13 14  2  0
 13 15  1  0
 15 16  2  0
 16 17  1  0
 17 18  2  0
 18 19  1  0
 19 20  3  0
 18 21  1  0
 21 22  2  0
 10 23  1  0
 23 24  1  0
 24 25  1  0
 25 26  1  0
  6  2  2  0
 23  7  1  0
 26 24  1  0
 22 15  1  0
  1 27  1  0
  1 28  1  0
  1 29  1  0
 12 30  1  0
 12 31  1  0
 16 32  1  0
 17 33  1  0
 21 34  1  0
 22 35  1  0
 24 36  1  0
 25 37  1  0
 25 38  1  0
 26 39  1  0
 26 40  1  0
M  END
$$$$
