
     RDKit          3D

 67 69  0  0  0  0  0  0  0  0999 V2000
   -1.0322    2.4090    2.7850 C   0  0  0  0  0  0  0  0  0  0  0  0
   -0.8798    1.2942    1.7545 C   0  0  0  0  0  0  0  0  0  0  0  0
   -2.1263    1.1101    1.0153 N   0  0  0  0  0  0  0  0  0  0  0  0
   -3.1799    0.3886    1.5229 C   0  0  0  0  0  0  0  0  0  0  0  0
   -3.1527   -0.1355    2.6311 O   0  0  0  0  0  0  0  0  0  0  0  0
   -4.3767    0.2387    0.6470 C   0  0  0  0  0  0  0  0  0  0  0  0
   -4.6798    1.1406   -0.3748 C   0  0  0  0  0  0  0  0  0  0  0  0
   -5.8175    0.9464   -1.1686 C   0  0  0  0  0  0  0  0  0  0  0  0
   -6.6867   -0.1442   -0.9641 C   0  0  0  0  0  0  0  0  0  0  0  0
   -7.9202   -0.3294   -1.8665 C   0  0  0  0  0  0  0  0  0  0  0  0
   -8.7756   -1.5661   -1.5101 C   0  0  0  0  0  0  0  0  0  0  0  0
   -7.4648   -0.4966   -3.3323 C   0  0  0  0  0  0  0  0  0  0  0  0
   -8.8389    0.9066   -1.7584 C   0  0  0  0  0  0  0  0  0  0  0  0
   -6.3726   -1.0285    0.0809 C   0  0  0  0  0  0  0  0  0  0  0  0
   -5.2366   -0.8384    0.8774 C   0  0  0  0  0  0  0  0  0  0  0  0
    0.2181    1.6611    0.7314 C   0  0  0  0  0  0  0  0  0  0  0  0
   -0.0994    2.1729   -0.3501 O   0  0  0  0  0  0  0  0  0  0  0  0
    1.5428    1.4397    1.0773 N   0  0  0  0  0  0  0  0  0  0  0  0
    2.6009    1.7977    0.1287 C   0  0  0  0  0  0  0  0  0  0  0  0
    3.7241    0.7432    0.0736 C   0  0  0  0  0  0  0  0  0  0  0  0
    4.3087    0.3580    1.3794 N   0  0  0  0  0  0  0  0  0  0  0  0
    5.6984    0.8007    1.5315 C   0  0  0  0  0  0  0  0  0  0  0  0
    6.7279    0.0265    0.7472 C   0  0  0  0  0  0  0  0  0  0  0  0
    6.5317   -1.0994    0.0392 C   0  0  0  0  0  0  0  0  0  0  0  0
    7.5761   -1.8329   -0.6942 C   0  0  0  0  0  0  0  0  0  0  0  0
    8.7072   -1.2074   -1.2381 C   0  0  0  0  0  0  0  0  0  0  0  0
    9.6600   -1.9459   -1.9462 C   0  0  0  0  0  0  0  0  0  0  0  0
    9.4861   -3.3162   -2.1307 C   0  0  0  0  0  0  0  0  0  0  0  0
    8.3579   -3.9481   -1.6125 C   0  0  0  0  0  0  0  0  0  0  0  0
    7.4072   -3.2096   -0.9027 C   0  0  0  0  0  0  0  0  0  0  0  0
    3.4877    0.8237    2.5129 C   0  0  0  0  0  0  0  0  0  0  0  0
    1.9784    0.6802    2.2542 C   0  0  0  0  0  0  0  0  0  0  0  0
   -1.3449    3.3454    2.3078 H   0  0  0  0  0  0  0  0  0  0  0  0
   -0.0947    2.6129    3.3109 H   0  0  0  0  0  0  0  0  0  0  0  0
   -1.7866    2.1496    3.5337 H   0  0  0  0  0  0  0  0  0  0  0  0
   -0.6383    0.3438    2.2403 H   0  0  0  0  0  0  0  0  0  0  0  0
   -2.1163    1.4264    0.0519 H   0  0  0  0  0  0  0  0  0  0  0  0
   -4.0616    2.0137   -0.5605 H   0  0  0  0  0  0  0  0  0  0  0  0
   -6.0180    1.6708   -1.9559 H   0  0  0  0  0  0  0  0  0  0  0  0
   -9.1643   -1.5051   -0.4870 H   0  0  0  0  0  0  0  0  0  0  0  0
   -9.6406   -1.6543   -2.1786 H   0  0  0  0  0  0  0  0  0  0  0  0
   -8.2014   -2.4953   -1.6036 H   0  0  0  0  0  0  0  0  0  0  0  0
   -8.3191   -0.6781   -3.9943 H   0  0  0  0  0  0  0  0  0  0  0  0
   -6.9509    0.3945   -3.7093 H   0  0  0  0  0  0  0  0  0  0  0  0
   -6.7759   -1.3430   -3.4389 H   0  0  0  0  0  0  0  0  0  0  0  0
   -8.3408    1.8257   -2.0834 H   0  0  0  0  0  0  0  0  0  0  0  0
   -9.1719    1.0607   -0.7260 H   0  0  0  0  0  0  0  0  0  0  0  0
   -9.7314    0.7897   -2.3835 H   0  0  0  0  0  0  0  0  0  0  0  0
   -6.9975   -1.8890    0.3052 H   0  0  0  0  0  0  0  0  0  0  0  0
   -5.0241   -1.5438    1.6787 H   0  0  0  0  0  0  0  0  0  0  0  0
    2.1899    1.9440   -0.8753 H   0  0  0  0  0  0  0  0  0  0  0  0
    3.0093    2.7607    0.4573 H   0  0  0  0  0  0  0  0  0  0  0  0
    4.4889    1.0824   -0.6355 H   0  0  0  0  0  0  0  0  0  0  0  0
    3.2995   -0.1727   -0.3581 H   0  0  0  0  0  0  0  0  0  0  0  0
    5.7872    1.8658    1.2823 H   0  0  0  0  0  0  0  0  0  0  0  0
    5.9976    0.7036    2.5835 H   0  0  0  0  0  0  0  0  0  0  0  0
    7.7292    0.4447    0.8167 H   0  0  0  0  0  0  0  0  0  0  0  0
    5.5408   -1.5466    0.0085 H   0  0  0  0  0  0  0  0  0  0  0  0
    8.8587   -0.1365   -1.1279 H   0  0  0  0  0  0  0  0  0  0  0  0
   10.5352   -1.4487   -2.3577 H   0  0  0  0  0  0  0  0  0  0  0  0
   10.2260   -3.8895   -2.6829 H   0  0  0  0  0  0  0  0  0  0  0  0
    8.2141   -5.0156   -1.7614 H   0  0  0  0  0  0  0  0  0  0  0  0
    6.5321   -3.7227   -0.5081 H   0  0  0  0  0  0  0  0  0  0  0  0
    3.7493    0.2457    3.4073 H   0  0  0  0  0  0  0  0  0  0  0  0
    3.7027    1.8792    2.7317 H   0  0  0  0  0  0  0  0  0  0  0  0
    1.7193   -0.3712    2.0800 H   0  0  0  0  0  0  0  0  0  0  0  0
    1.4252    1.0132    3.1349 H   0  0  0  0  0  0  0  0  0  0  0  0
  1  2  1  0
  2  3  1  0
  3  4  1  0
  4  5  2  0
  4  6  1  0
  6  7  2  0
  7  8  1  0
  8  9  2  0
  9 10  1  0
 10 11  1  0
 10 12  1  0
 10 13  1  0
  9 14  1  0
 14 15  2  0
  2 16  1  0
 16 17  2  0
 16 18  1  0
 18 19  1  0
 19 20  1  0
 20 21  1  0
 21 22  1  0
 22 23  1  0
 23 24  2  3
 24 25  1  0
 25 26  2  0
 26 27  1  0
 27 28  2  0
 28 29  1  0
 29 30  2  0
 21 31  1  0
 31 32  1  0
 15  6  1  0
 32 18  1  0
 30 25  1  0
  1 33  1  0
  1 34  1  0
  1 35  1  0
  2 36  1  0
  3 37  1  0
  7 38  1  0
  8 39  1  0
 11 40  1  0
 11 41  1  0
 11 42  1  0
 12 43  1  0
 12 44  1  0
 12 45  1  0
 13 46  1  0
 13 47  1  0
 13 48  1  0
 14 49  1  0
 15 50  1  0
 19 51  1  0
 19 52  1  0
 20 53  1  0
 20 54  1  0
 22 55  1  0
 22 56  1  0
 23 57  1  0
 24 58  1  0
 26 59  1  0
 27 60  1  0
 28 61  1  0
 29 62  1  0
 30 63  1  0
 31 64  1  0
 31 65  1  0
 32 66  1  0
 32 67  1  0
M  END
$$$$
