
     RDKit          3D

 45 47  0  0  0  0  0  0  0  0999 V2000
   -3.7339    0.5012   -2.2744 O   0  0  0  0  0  0  0  0  0  0  0  0
   -2.7153    0.6137   -1.5979 C   0  0  0  0  0  0  0  0  0  0  0  0
   -1.3295    0.7781   -2.2253 C   0  0  0  0  0  0  0  0  0  0  0  0
   -0.6500   -0.4617   -2.4253 O   0  0  0  0  0  0  0  0  0  0  0  0
   -0.1028   -1.0148   -1.3091 C   0  0  0  0  0  0  0  0  0  0  0  0
   -0.2181   -0.5538   -0.1776 O   0  0  0  0  0  0  0  0  0  0  0  0
    0.6278   -2.2983   -1.6235 C   0  0  0  0  0  0  0  0  0  0  0  0
    2.0190   -2.0406   -2.7729 S   0  0  0  0  0  0  0  0  0  0  0  0
    2.9562   -0.8018   -1.8942 C   0  0  0  0  0  0  0  0  0  0  0  0
    3.2653    0.3926   -2.5472 C   0  0  0  0  0  0  0  0  0  0  0  0
    3.9941    1.3878   -1.8917 C   0  0  0  0  0  0  0  0  0  0  0  0
    4.4334    1.2017   -0.5729 C   0  0  0  0  0  0  0  0  0  0  0  0
    5.1654    2.1924    0.1010 C   0  0  0  0  0  0  0  0  0  0  0  0
    5.5993    1.9903    1.4120 C   0  0  0  0  0  0  0  0  0  0  0  0
    5.3080    0.7964    2.0645 C   0  0  0  0  0  0  0  0  0  0  0  0
    4.5820   -0.1987    1.4079 C   0  0  0  0  0  0  0  0  0  0  0  0
    4.1365   -0.0112    0.0892 C   0  0  0  0  0  0  0  0  0  0  0  0
    3.4040   -1.0038   -0.5849 C   0  0  0  0  0  0  0  0  0  0  0  0
   -2.7091    0.5972   -0.2175 N   0  0  0  0  0  0  0  0  0  0  0  0
   -3.9076    0.2982    0.5321 C   0  0  0  0  0  0  0  0  0  0  0  0
   -4.2194   -1.1957    0.5806 C   0  0  0  0  0  0  0  0  0  0  0  0
   -5.1095   -1.3678    1.8092 C   0  0  0  0  0  0  0  0  0  0  0  0
   -4.9148   -0.1136    2.6618 C   0  0  0  0  0  0  0  0  0  0  0  0
   -3.7795    0.6602    2.0062 C   0  0  0  0  0  0  0  0  0  0  0  0
   -1.4598    1.2472   -3.2067 H   0  0  0  0  0  0  0  0  0  0  0  0
   -0.7179    1.4686   -1.6315 H   0  0  0  0  0  0  0  0  0  0  0  0
    0.9916   -2.7415   -0.6915 H   0  0  0  0  0  0  0  0  0  0  0  0
   -0.0829   -3.0058   -2.0623 H   0  0  0  0  0  0  0  0  0  0  0  0
    2.9411    0.5627   -3.5716 H   0  0  0  0  0  0  0  0  0  0  0  0
    4.2189    2.3105   -2.4220 H   0  0  0  0  0  0  0  0  0  0  0  0
    5.4048    3.1316   -0.3926 H   0  0  0  0  0  0  0  0  0  0  0  0
    6.1652    2.7655    1.9222 H   0  0  0  0  0  0  0  0  0  0  0  0
    5.6455    0.6379    3.0855 H   0  0  0  0  0  0  0  0  0  0  0  0
    4.3650   -1.1243    1.9363 H   0  0  0  0  0  0  0  0  0  0  0  0
    3.1937   -1.9429   -0.0790 H   0  0  0  0  0  0  0  0  0  0  0  0
   -1.8114    0.3805    0.2190 H   0  0  0  0  0  0  0  0  0  0  0  0
   -4.7519    0.8374    0.0835 H   0  0  0  0  0  0  0  0  0  0  0  0
   -3.2994   -1.7809    0.7066 H   0  0  0  0  0  0  0  0  0  0  0  0
   -4.7064   -1.5497   -0.3336 H   0  0  0  0  0  0  0  0  0  0  0  0
   -6.1612   -1.4648    1.5177 H   0  0  0  0  0  0  0  0  0  0  0  0
   -4.8382   -2.2740    2.3610 H   0  0  0  0  0  0  0  0  0  0  0  0
   -5.8331    0.4854    2.6500 H   0  0  0  0  0  0  0  0  0  0  0  0
   -4.6929   -0.3558    3.7057 H   0  0  0  0  0  0  0  0  0  0  0  0
   -2.8158    0.3262    2.4110 H   0  0  0  0  0  0  0  0  0  0  0  0
   -3.8562    1.7380    2.1803 H   0  0  0  0  0  0  0  0  0  0  0  0
  1  2  2  0
  2  3  1  0
  3  4  1  0
  4  5  1  0
  5  6  2  0
  5  7  1  0
  7  8  1  0
  8  9  1  0
  9 10  2  0
 10 11  1  0
 11 12  2  0
 12 13  1  0
 13 14  2  0
 14 15  1  0
 15 16  2  0
 16 17  1  0
 17 18  2  0
  2 19  1  0
 19 20  1  0
 20 21  1  0
 21 22  1  0
 22 23  1  0
 23 24  1  0
 18  9  1  0
 24 20  1  0
 17 12  1  0
  3 25  1  0
  3 26  1  0
  7 27  1  0
  7 28  1  0
 10 29  1  0
 11 30  1  0
 13 31  1  0
 14 32  1  0
 15 33  1  0
 16 34  1  0
 18 35  1  0
 19 36  1  0
 20 37  1  0
 21 38  1  0
 21 39  1  0
 22 40  1  0
 22 41  1  0
 23 42  1  0
 23 43  1  0
 24 44  1  0
 24 45  1  0
M  END
$$$$
