
     RDKit          3D

 53 56  0  0  0  0  0  0  0  0999 V2000
    6.0690    2.2047   -1.0781 C   0  0  0  0  0  0  0  0  0  0  0  0
    5.4148    0.9869   -0.4980 C   0  0  0  0  0  0  0  0  0  0  0  0
    4.0388    0.9129   -0.3985 C   0  0  0  0  0  0  0  0  0  0  0  0
    3.4863   -0.2402    0.1602 C   0  0  0  0  0  0  0  0  0  0  0  0
    2.0107   -0.3192    0.2467 C   0  0  0  0  0  0  0  0  0  0  0  0
    1.4895   -0.3530    1.3516 O   0  0  0  0  0  0  0  0  0  0  0  0
    1.3864   -0.3327   -0.9861 N   0  0  0  0  0  0  0  0  0  0  0  0
    0.0029   -0.4214   -1.2425 C   0  0  0  0  0  0  0  0  0  0  0  0
   -0.4014   -0.3447   -2.5783 C   0  0  0  0  0  0  0  0  0  0  0  0
   -1.7546   -0.4116   -2.9225 C   0  0  0  0  0  0  0  0  0  0  0  0
   -2.7435   -0.5559   -1.9391 C   0  0  0  0  0  0  0  0  0  0  0  0
   -4.1795   -0.6396   -2.3762 C   0  0  0  0  0  0  0  0  0  0  0  0
   -2.3303   -0.6548   -0.5968 C   0  0  0  0  0  0  0  0  0  0  0  0
   -3.5059   -0.9016    0.7271 S   0  0  0  0  0  6  0  0  0  0  0  0
   -2.7877   -1.1004    1.9679 O   0  0  0  0  0  0  0  0  0  0  0  0
   -4.4811   -1.8741    0.2814 O   0  0  0  0  0  0  0  0  0  0  0  0
   -4.2787    0.6203    0.8319 N   0  0  0  0  0  0  0  0  0  0  0  0
   -3.3932    1.7450    1.2809 C   0  0  0  0  0  0  0  0  0  0  0  0
   -4.1789    3.0611    1.2347 C   0  0  0  0  0  0  0  0  0  0  0  0
   -5.3483    3.0014    2.0642 O   0  0  0  0  0  0  0  0  0  0  0  0
   -6.2146    1.9411    1.6330 C   0  0  0  0  0  0  0  0  0  0  0  0
   -5.5070    0.5830    1.6923 C   0  0  0  0  0  0  0  0  0  0  0  0
   -0.9668   -0.5871   -0.2545 C   0  0  0  0  0  0  0  0  0  0  0  0
    4.3008   -1.2930    0.6270 C   0  0  0  0  0  0  0  0  0  0  0  0
    3.8195   -2.4892    1.2163 C   0  0  0  0  0  0  0  0  0  0  0  0
    4.6979   -3.4846    1.6390 C   0  0  0  0  0  0  0  0  0  0  0  0
    6.0639   -3.3021    1.4786 C   0  0  0  0  0  0  0  0  0  0  0  0
    6.5412   -2.1245    0.8982 C   0  0  0  0  0  0  0  0  0  0  0  0
    5.6878   -1.1161    0.4698 C   0  0  0  0  0  0  0  0  0  0  0  0
    6.2246   -0.0129   -0.0835 N   0  0  0  0  0  0  0  0  0  0  0  0
    5.7325    2.3605   -2.1078 H   0  0  0  0  0  0  0  0  0  0  0  0
    7.1582    2.0947   -1.0887 H   0  0  0  0  0  0  0  0  0  0  0  0
    5.8213    3.0877   -0.4808 H   0  0  0  0  0  0  0  0  0  0  0  0
    3.4116    1.7351   -0.7269 H   0  0  0  0  0  0  0  0  0  0  0  0
    1.9870   -0.2926   -1.8010 H   0  0  0  0  0  0  0  0  0  0  0  0
    0.3283   -0.2289   -3.3761 H   0  0  0  0  0  0  0  0  0  0  0  0
   -2.0308   -0.3519   -3.9741 H   0  0  0  0  0  0  0  0  0  0  0  0
   -4.2969   -0.2993   -3.4113 H   0  0  0  0  0  0  0  0  0  0  0  0
   -4.8206    0.0039   -1.7680 H   0  0  0  0  0  0  0  0  0  0  0  0
   -4.5325   -1.6739   -2.3276 H   0  0  0  0  0  0  0  0  0  0  0  0
   -2.5240    1.8334    0.6241 H   0  0  0  0  0  0  0  0  0  0  0  0
   -3.0553    1.5559    2.3064 H   0  0  0  0  0  0  0  0  0  0  0  0
   -3.5535    3.8803    1.6031 H   0  0  0  0  0  0  0  0  0  0  0  0
   -4.4811    3.3050    0.2092 H   0  0  0  0  0  0  0  0  0  0  0  0
   -7.0859    1.9358    2.2953 H   0  0  0  0  0  0  0  0  0  0  0  0
   -6.5664    2.1596    0.6177 H   0  0  0  0  0  0  0  0  0  0  0  0
   -6.1950   -0.1892    1.3343 H   0  0  0  0  0  0  0  0  0  0  0  0
   -5.2174    0.3592    2.7258 H   0  0  0  0  0  0  0  0  0  0  0  0
   -0.6840   -0.6764    0.7907 H   0  0  0  0  0  0  0  0  0  0  0  0
    2.7516   -2.6473    1.3613 H   0  0  0  0  0  0  0  0  0  0  0  0
    4.3142   -4.3934    2.0958 H   0  0  0  0  0  0  0  0  0  0  0  0
    6.7619   -4.0682    1.8059 H   0  0  0  0  0  0  0  0  0  0  0  0
    7.6139   -1.9880    0.7784 H   0  0  0  0  0  0  0  0  0  0  0  0
  1  2  1  0
  2  3  2  0
  3  4  1  0
  4  5  1  0
  5  6  2  0
  5  7  1  0
  7  8  1  0
  8  9  2  0
  9 10  1  0
 10 11  2  0
 11 12  1  0
 11 13  1  0
 13 14  1  0
 14 15  2  0
 14 16  2  0
 14 17  1  0
 17 18  1  0
 18 19  1  0
 19 20  1  0
 20 21  1  0
 21 22  1  0
 13 23  2  0
  4 24  2  0
 24 25  1  0
 25 26  2  0
 26 27  1  0
 27 28  2  0
 28 29  1  0
 29 30  2  0
 30  2  1  0
 23  8  1  0
 29 24  1  0
 22 17  1  0
  1 31  1  0
  1 32  1  0
  1 33  1  0
  3 34  1  0
  7 35  1  0
  9 36  1  0
 10 37  1  0
 12 38  1  0
 12 39  1  0
 12 40  1  0
 18 41  1  0
 18 42  1  0
 19 43  1  0
 19 44  1  0
 21 45  1  0
 21 46  1  0
 22 47  1  0
 22 48  1  0
 23 49  1  0
 25 50  1  0
 26 51  1  0
 27 52  1  0
 28 53  1  0
M  END
$$$$
