
     RDKit          3D

 46 49  0  0  0  0  0  0  0  0999 V2000
    1.6328    2.3701    3.0681 C   0  0  0  0  0  0  0  0  0  0  0  0
    0.7955    1.6092    2.1975 O   0  0  0  0  0  0  0  0  0  0  0  0
   -0.1233    2.3548    1.5115 C   0  0  0  0  0  0  0  0  0  0  0  0
   -0.2665    3.5634    1.6664 O   0  0  0  0  0  0  0  0  0  0  0  0
   -0.9528    1.5438    0.6233 C   0  0  0  0  0  0  0  0  0  0  0  0
   -2.2240    1.8792    0.3224 N   0  0  0  0  0  0  0  0  0  0  0  0
   -2.6278    0.8643   -0.4808 N   0  0  0  0  0  0  0  0  0  0  0  0
   -3.9384    0.8083   -1.0222 C   0  0  0  0  0  0  0  0  0  0  0  0
   -4.3168   -0.2662   -1.8408 C   0  0  0  0  0  0  0  0  0  0  0  0
   -5.6084   -0.3178   -2.3690 C   0  0  0  0  0  0  0  0  0  0  0  0
   -6.5222    0.6968   -2.0843 C   0  0  0  0  0  0  0  0  0  0  0  0
   -6.1494    1.7672   -1.2717 C   0  0  0  0  0  0  0  0  0  0  0  0
   -4.8599    1.8271   -0.7392 C   0  0  0  0  0  0  0  0  0  0  0  0
   -1.7086   -0.1043   -0.7251 N   0  0  0  0  0  0  0  0  0  0  0  0
   -0.6483    0.3341   -0.0367 C   0  0  0  0  0  0  0  0  0  0  0  0
    0.6475   -0.3360   -0.0682 C   0  0  0  0  0  0  0  0  0  0  0  0
    1.7967    0.3170   -0.2767 N   0  0  0  0  0  0  0  0  0  0  0  0
    2.6969   -0.6978   -0.3251 N   0  0  0  0  0  0  0  0  0  0  0  0
    4.0816   -0.4631   -0.5289 C   0  0  0  0  0  0  0  0  0  0  0  0
    4.9794   -1.5400   -0.5647 C   0  0  0  0  0  0  0  0  0  0  0  0
    6.3414   -1.3048   -0.7628 C   0  0  0  0  0  0  0  0  0  0  0  0
    6.8103   -0.0013   -0.9253 C   0  0  0  0  0  0  0  0  0  0  0  0
    5.9207    1.0723   -0.8914 C   0  0  0  0  0  0  0  0  0  0  0  0
    4.5570    0.8464   -0.6938 C   0  0  0  0  0  0  0  0  0  0  0  0
    2.1967   -1.9460   -0.1524 N   0  0  0  0  0  0  0  0  0  0  0  0
    0.8779   -1.7253    0.0241 C   0  0  0  0  0  0  0  0  0  0  0  0
   -0.0650   -2.8110    0.2832 C   0  0  0  0  0  0  0  0  0  0  0  0
    0.1021   -3.9663   -0.0943 O   0  0  0  0  0  0  0  0  0  0  0  0
   -1.1291   -2.4117    1.0441 O   0  0  0  0  0  0  0  0  0  0  0  0
   -2.0788   -3.4442    1.3083 C   0  0  0  0  0  0  0  0  0  0  0  0
    1.0375    2.8421    3.8558 H   0  0  0  0  0  0  0  0  0  0  0  0
    2.1960    3.1193    2.5029 H   0  0  0  0  0  0  0  0  0  0  0  0
    2.3448    1.6847    3.5362 H   0  0  0  0  0  0  0  0  0  0  0  0
   -3.6198   -1.0673   -2.0784 H   0  0  0  0  0  0  0  0  0  0  0  0
   -5.9018   -1.1495   -3.0051 H   0  0  0  0  0  0  0  0  0  0  0  0
   -7.5267    0.6544   -2.4984 H   0  0  0  0  0  0  0  0  0  0  0  0
   -6.8631    2.5579   -1.0532 H   0  0  0  0  0  0  0  0  0  0  0  0
   -4.5893    2.6726   -0.1090 H   0  0  0  0  0  0  0  0  0  0  0  0
    4.6346   -2.5654   -0.4421 H   0  0  0  0  0  0  0  0  0  0  0  0
    7.0369   -2.1401   -0.7919 H   0  0  0  0  0  0  0  0  0  0  0  0
    7.8715    0.1778   -1.0808 H   0  0  0  0  0  0  0  0  0  0  0  0
    6.2895    2.0870   -1.0211 H   0  0  0  0  0  0  0  0  0  0  0  0
    3.8809    1.6989   -0.6735 H   0  0  0  0  0  0  0  0  0  0  0  0
   -2.4875   -3.8402    0.3733 H   0  0  0  0  0  0  0  0  0  0  0  0
   -1.6216   -4.2414    1.9025 H   0  0  0  0  0  0  0  0  0  0  0  0
   -2.8992   -3.0089    1.8857 H   0  0  0  0  0  0  0  0  0  0  0  0
  1  2  1  0
  2  3  1  0
  3  4  2  0
  3  5  1  0
  5  6  2  0
  6  7  1  0
  7  8  1  0
  8  9  2  0
  9 10  1  0
 10 11  2  0
 11 12  1  0
 12 13  2  0
  7 14  1  0
 14 15  2  0
 15 16  1  0
 16 17  2  0
 17 18  1  0
 18 19  1  0
 19 20  2  0
 20 21  1  0
 21 22  2  0
 22 23  1  0
 23 24  2  0
 18 25  1  0
 25 26  2  0
 26 27  1  0
 27 28  2  0
 27 29  1  0
 29 30  1  0
 15  5  1  0
 26 16  1  0
 13  8  1  0
 24 19  1  0
  1 31  1  0
  1 32  1  0
  1 33  1  0
  9 34  1  0
 10 35  1  0
 11 36  1  0
 12 37  1  0
 13 38  1  0
 20 39  1  0
 21 40  1  0
 22 41  1  0
 23 42  1  0
 24 43  1  0
 30 44  1  0
 30 45  1  0
 30 46  1  0
M  END
$$$$
