
     RDKit          3D

 39 41  0  0  0  0  0  0  0  0999 V2000
   -2.8461   -1.7324    1.7144 C   0  0  0  0  0  0  0  0  0  0  0  0
   -2.8555   -0.9687    0.4348 C   0  0  0  0  0  0  0  0  0  0  0  0
   -3.9320   -1.0374   -0.4059 N   0  0  0  0  0  0  0  0  0  0  0  0
   -3.7271   -0.2636   -1.5183 C   0  0  0  0  0  0  0  0  0  0  0  0
   -4.5752   -0.0559   -2.6146 C   0  0  0  0  0  0  0  0  0  0  0  0
   -4.1310    0.7818   -3.6360 C   0  0  0  0  0  0  0  0  0  0  0  0
   -2.8839    1.3861   -3.5591 C   0  0  0  0  0  0  0  0  0  0  0  0
   -2.0492    1.1664   -2.4541 C   0  0  0  0  0  0  0  0  0  0  0  0
   -2.4639    0.3234   -1.3947 C   0  0  0  0  0  0  0  0  0  0  0  0
   -1.9023   -0.1258   -0.1383 C   0  0  0  0  0  0  0  0  0  0  0  0
   -0.6076    0.1705    0.5094 C   0  0  0  0  0  0  0  0  0  0  0  0
   -0.3173   -0.3325    1.6017 O   0  0  0  0  0  0  0  0  0  0  0  0
    0.3995    1.1255   -0.1480 C   0  0  0  0  0  0  0  0  0  0  0  0
    0.0009    2.5669    0.1456 C   0  0  0  0  0  0  0  0  0  0  0  0
    1.7171    0.9549    0.4113 O   0  0  0  0  0  0  0  0  0  0  0  0
    2.3301   -0.2135    0.0572 C   0  0  0  0  0  0  0  0  0  0  0  0
    1.8819   -0.9996   -0.7676 O   0  0  0  0  0  0  0  0  0  0  0  0
    3.5725   -0.3489    0.7820 C   0  0  0  0  0  0  0  0  0  0  0  0
    4.1686    0.4215    1.7714 C   0  0  0  0  0  0  0  0  0  0  0  0
    5.3922   -0.2080    2.1147 C   0  0  0  0  0  0  0  0  0  0  0  0
    5.4646   -1.3201    1.3116 C   0  0  0  0  0  0  0  0  0  0  0  0
    6.4559   -2.3432    1.1947 N   0  0  0  0  0  4  0  0  0  0  0  0
    6.2722   -3.2388    0.3617 O   0  0  0  0  0  0  0  0  0  0  0  0
    7.4349   -2.2418    1.9471 O   0  0  0  0  0  1  0  0  0  0  0  0
    4.3806   -1.4245    0.4994 O   0  0  0  0  0  0  0  0  0  0  0  0
   -3.7721   -2.3011    1.8502 H   0  0  0  0  0  0  0  0  0  0  0  0
   -2.0141   -2.4435    1.7303 H   0  0  0  0  0  0  0  0  0  0  0  0
   -2.7461   -1.0522    2.5660 H   0  0  0  0  0  0  0  0  0  0  0  0
   -4.7660   -1.5840   -0.2394 H   0  0  0  0  0  0  0  0  0  0  0  0
   -5.5489   -0.5323   -2.6747 H   0  0  0  0  0  0  0  0  0  0  0  0
   -4.7664    0.9598   -4.5003 H   0  0  0  0  0  0  0  0  0  0  0  0
   -2.5487    2.0348   -4.3650 H   0  0  0  0  0  0  0  0  0  0  0  0
   -1.0873    1.6647   -2.4515 H   0  0  0  0  0  0  0  0  0  0  0  0
    0.4601    0.9504   -1.2243 H   0  0  0  0  0  0  0  0  0  0  0  0
    0.7099    3.2604   -0.3193 H   0  0  0  0  0  0  0  0  0  0  0  0
    0.0273    2.7652    1.2235 H   0  0  0  0  0  0  0  0  0  0  0  0
   -1.0044    2.8032   -0.2127 H   0  0  0  0  0  0  0  0  0  0  0  0
    3.7555    1.3276    2.1961 H   0  0  0  0  0  0  0  0  0  0  0  0
    6.1214    0.1048    2.8500 H   0  0  0  0  0  0  0  0  0  0  0  0
  1  2  1  0
  2  3  1  0
  3  4  1  0
  4  5  2  0
  5  6  1  0
  6  7  2  0
  7  8  1  0
  8  9  2  0
  9 10  1  0
 10 11  1  0
 11 12  2  0
 11 13  1  0
 13 14  1  0
 13 15  1  0
 15 16  1  0
 16 17  2  0
 16 18  1  0
 18 19  2  0
 19 20  1  0
 20 21  2  0
 21 22  1  0
 22 23  2  0
 22 24  1  0
 21 25  1  0
 10  2  2  0
 25 18  1  0
  9  4  1  0
  1 26  1  0
  1 27  1  0
  1 28  1  0
  3 29  1  0
  5 30  1  0
  6 31  1  0
  7 32  1  0
  8 33  1  0
 13 34  1  0
 14 35  1  0
 14 36  1  0
 14 37  1  0
 19 38  1  0
 20 39  1  0
M  CHG  2  22   1  24  -1
M  END
$$$$
