
     RDKit          3D

 33 34  0  0  0  0  0  0  0  0999 V2000
    4.1383   -0.4421   -2.3368 C   0  0  0  0  0  0  0  0  0  0  0  0
    2.6290   -0.3338   -2.4549 C   0  0  0  0  0  0  0  0  0  0  0  0
    1.9026   -1.1397   -1.3874 C   0  0  0  0  0  0  0  0  0  0  0  0
    2.4699   -1.4813   -0.3471 O   0  0  0  0  0  0  0  0  0  0  0  0
    0.4293   -1.4077   -1.6356 C   0  0  0  0  0  0  0  0  0  0  0  0
   -0.0493   -2.6163   -0.9552 C   0  0  0  0  0  0  0  0  0  0  0  0
   -0.4557   -3.5568   -0.4061 N   0  0  0  0  0  0  0  0  0  0  0  0
   -0.3391   -0.1923   -1.2364 C   0  0  0  0  0  0  0  0  0  0  0  0
   -0.8771    0.6448   -2.1027 N   0  0  0  0  0  0  0  0  0  0  0  0
   -1.4891    1.6522   -1.4092 N   0  0  0  0  0  0  0  0  0  0  0  0
   -1.3208    1.4276   -0.1241 C   0  0  0  0  0  0  0  0  0  0  0  0
   -0.5830    0.2810    0.0354 N   0  0  0  0  0  0  0  0  0  0  0  0
   -0.1863   -0.2616    1.3185 C   0  0  0  0  0  0  0  0  0  0  0  0
   -1.3790   -0.6738    2.1784 C   0  0  0  0  0  0  0  0  0  0  0  0
   -2.0870    0.5009    2.8563 C   0  0  0  0  0  0  0  0  0  0  0  0
   -2.7885    1.4741    1.9067 C   0  0  0  0  0  0  0  0  0  0  0  0
   -1.8374    2.2536    0.9987 C   0  0  0  0  0  0  0  0  0  0  0  0
    4.4853   -0.1048   -1.3541 H   0  0  0  0  0  0  0  0  0  0  0  0
    4.4683   -1.4779   -2.4752 H   0  0  0  0  0  0  0  0  0  0  0  0
    4.6234    0.1756   -3.0992 H   0  0  0  0  0  0  0  0  0  0  0  0
    2.3209   -0.6881   -3.4447 H   0  0  0  0  0  0  0  0  0  0  0  0
    2.3241    0.7141   -2.3495 H   0  0  0  0  0  0  0  0  0  0  0  0
    0.3032   -1.5699   -2.7134 H   0  0  0  0  0  0  0  0  0  0  0  0
    0.4304    0.4960    1.8188 H   0  0  0  0  0  0  0  0  0  0  0  0
    0.4519   -1.1288    1.1548 H   0  0  0  0  0  0  0  0  0  0  0  0
   -1.0125   -1.3421    2.9689 H   0  0  0  0  0  0  0  0  0  0  0  0
   -2.1002   -1.2516    1.5871 H   0  0  0  0  0  0  0  0  0  0  0  0
   -1.3715    1.0470    3.4820 H   0  0  0  0  0  0  0  0  0  0  0  0
   -2.8414    0.0898    3.5384 H   0  0  0  0  0  0  0  0  0  0  0  0
   -3.3388    2.1976    2.5226 H   0  0  0  0  0  0  0  0  0  0  0  0
   -3.5370    0.9372    1.3106 H   0  0  0  0  0  0  0  0  0  0  0  0
   -2.3802    3.1087    0.5770 H   0  0  0  0  0  0  0  0  0  0  0  0
   -1.0024    2.6683    1.5775 H   0  0  0  0  0  0  0  0  0  0  0  0
  1  2  1  0
  2  3  1  0
  3  4  2  0
  3  5  1  0
  5  6  1  0
  6  7  3  0
  5  8  1  0
  8  9  2  0
  9 10  1  0
 10 11  2  0
 11 12  1  0
 12 13  1  0
 13 14  1  0
 14 15  1  0
 15 16  1  0
 16 17  1  0
 12  8  1  0
 17 11  1  0
  1 18  1  0
  1 19  1  0
  1 20  1  0
  2 21  1  0
  2 22  1  0
  5 23  1  0
 13 24  1  0
 13 25  1  0
 14 26  1  0
 14 27  1  0
 15 28  1  0
 15 29  1  0
 16 30  1  0
 16 31  1  0
 17 32  1  0
 17 33  1  0
M  END
$$$$
