
     RDKit          3D

 62 65  0  0  0  0  0  0  0  0999 V2000
    6.3190   -1.8418   -3.8196 C   0  0  0  0  0  0  0  0  0  0  0  0
    5.5606   -0.5927   -3.4102 C   0  0  0  0  0  0  0  0  0  0  0  0
    5.2339   -0.6479   -2.0143 O   0  0  0  0  0  0  0  0  0  0  0  0
    4.0741   -1.2828   -1.6951 C   0  0  0  0  0  0  0  0  0  0  0  0
    3.3272   -1.7968   -2.5195 O   0  0  0  0  0  0  0  0  0  0  0  0
    3.8379   -1.2964   -0.3305 N   0  0  0  0  0  0  0  0  0  0  0  0
    2.5214   -1.7484    0.1345 C   0  0  0  0  0  0  0  0  0  0  0  0
    2.5769   -2.3057    1.5650 C   0  0  0  0  0  0  0  0  0  0  0  0
    3.2516   -1.3555    2.4560 N   0  0  0  0  0  0  0  0  0  0  0  0
    2.5985   -0.4590    3.2931 C   0  0  0  0  0  0  0  0  0  0  0  0
    3.1873    0.4901    3.8190 O   0  0  0  0  0  0  0  0  0  0  0  0
    1.1143   -0.6987    3.5989 C   0  0  0  0  0  0  0  0  0  0  0  0
    0.2399   -0.5925    2.4862 O   0  0  0  0  0  0  0  0  0  0  0  0
   -0.1309    0.6496    2.0453 C   0  0  0  0  0  0  0  0  0  0  0  0
    0.3425    1.8592    2.5614 C   0  0  0  0  0  0  0  0  0  0  0  0
   -0.0862    3.0770    2.0266 C   0  0  0  0  0  0  0  0  0  0  0  0
   -0.9908    3.0969    0.9697 C   0  0  0  0  0  0  0  0  0  0  0  0
   -1.4774    1.8950    0.4450 C   0  0  0  0  0  0  0  0  0  0  0  0
   -1.0556    0.6648    0.9838 C   0  0  0  0  0  0  0  0  0  0  0  0
   -1.5598   -0.6096    0.3570 C   0  0  0  0  0  0  0  0  0  0  0  0
   -2.9670   -0.4103   -0.1898 C   0  0  0  0  0  0  0  0  0  0  0  0
   -3.0479    0.7497   -1.0660 N   0  0  0  0  0  0  0  0  0  0  0  0
   -4.1005    0.7721   -2.0774 C   0  0  0  0  0  0  0  0  0  0  0  0
   -5.4802    0.9019   -1.4846 C   0  0  0  0  0  0  0  0  0  0  0  0
   -5.9554    2.1414   -1.0306 C   0  0  0  0  0  0  0  0  0  0  0  0
   -7.2296    2.2496   -0.4667 C   0  0  0  0  0  0  0  0  0  0  0  0
   -8.0412    1.1216   -0.3472 C   0  0  0  0  0  0  0  0  0  0  0  0
   -7.5776   -0.1156   -0.7900 C   0  0  0  0  0  0  0  0  0  0  0  0
   -6.3070   -0.2158   -1.3505 C   0  0  0  0  0  0  0  0  0  0  0  0
   -5.8762   -1.4189   -1.7564 F   0  0  0  0  0  0  0  0  0  0  0  0
   -2.4341    1.9455   -0.7009 C   0  0  0  0  0  0  0  0  0  0  0  0
   -2.6417    3.0131   -1.2699 O   0  0  0  0  0  0  0  0  0  0  0  0
    4.6157   -1.0411    2.0246 C   0  0  0  0  0  0  0  0  0  0  0  0
    4.6076   -0.4568    0.6031 C   0  0  0  0  0  0  0  0  0  0  0  0
    7.2102   -1.9720   -3.1971 H   0  0  0  0  0  0  0  0  0  0  0  0
    6.6261   -1.7830   -4.8673 H   0  0  0  0  0  0  0  0  0  0  0  0
    5.7041   -2.7370   -3.6857 H   0  0  0  0  0  0  0  0  0  0  0  0
    6.1969    0.2863   -3.5544 H   0  0  0  0  0  0  0  0  0  0  0  0
    4.6658   -0.4451   -4.0254 H   0  0  0  0  0  0  0  0  0  0  0  0
    2.1186   -2.5089   -0.5430 H   0  0  0  0  0  0  0  0  0  0  0  0
    1.8569   -0.8777    0.0886 H   0  0  0  0  0  0  0  0  0  0  0  0
    1.5773   -2.5623    1.9192 H   0  0  0  0  0  0  0  0  0  0  0  0
    3.1685   -3.2292    1.5782 H   0  0  0  0  0  0  0  0  0  0  0  0
    0.7917   -0.0540    4.4261 H   0  0  0  0  0  0  0  0  0  0  0  0
    1.0267   -1.7200    3.9891 H   0  0  0  0  0  0  0  0  0  0  0  0
    1.0571    1.9029    3.3772 H   0  0  0  0  0  0  0  0  0  0  0  0
    0.2946    4.0119    2.4330 H   0  0  0  0  0  0  0  0  0  0  0  0
   -1.3130    4.0496    0.5526 H   0  0  0  0  0  0  0  0  0  0  0  0
   -0.8741   -0.8891   -0.4518 H   0  0  0  0  0  0  0  0  0  0  0  0
   -1.5840   -1.4316    1.0800 H   0  0  0  0  0  0  0  0  0  0  0  0
   -3.2660   -1.3050   -0.7475 H   0  0  0  0  0  0  0  0  0  0  0  0
   -3.6800   -0.2581    0.6305 H   0  0  0  0  0  0  0  0  0  0  0  0
   -4.0132   -0.1433   -2.6747 H   0  0  0  0  0  0  0  0  0  0  0  0
   -3.9318    1.6017   -2.7744 H   0  0  0  0  0  0  0  0  0  0  0  0
   -5.3292    3.0289   -1.1134 H   0  0  0  0  0  0  0  0  0  0  0  0
   -7.5859    3.2173   -0.1178 H   0  0  0  0  0  0  0  0  0  0  0  0
   -9.0313    1.2074    0.0929 H   0  0  0  0  0  0  0  0  0  0  0  0
   -8.1952   -1.0028   -0.6978 H   0  0  0  0  0  0  0  0  0  0  0  0
    5.1848   -1.9785    2.0404 H   0  0  0  0  0  0  0  0  0  0  0  0
    5.1042   -0.3474    2.7161 H   0  0  0  0  0  0  0  0  0  0  0  0
    4.1336    0.5319    0.6013 H   0  0  0  0  0  0  0  0  0  0  0  0
    5.6375   -0.3342    0.2553 H   0  0  0  0  0  0  0  0  0  0  0  0
  1  2  1  0
  2  3  1  0
  3  4  1  0
  4  5  2  0
  4  6  1  0
  6  7  1  0
  7  8  1  0
  8  9  1  0
  9 10  1  0
 10 11  2  0
 10 12  1  0
 12 13  1  0
 13 14  1  0
 14 15  2  0
 15 16  1  0
 16 17  2  0
 17 18  1  0
 18 19  2  0
 19 20  1  0
 20 21  1  0
 21 22  1  0
 22 23  1  0
 23 24  1  0
 24 25  2  0
 25 26  1  0
 26 27  2  0
 27 28  1  0
 28 29  2  0
 29 30  1  0
 22 31  1  0
 31 32  2  0
  9 33  1  0
 33 34  1  0
 34  6  1  0
 19 14  1  0
 29 24  1  0
 31 18  1  0
  1 35  1  0
  1 36  1  0
  1 37  1  0
  2 38  1  0
  2 39  1  0
  7 40  1  0
  7 41  1  0
  8 42  1  0
  8 43  1  0
 12 44  1  0
 12 45  1  0
 15 46  1  0
 16 47  1  0
 17 48  1  0
 20 49  1  0
 20 50  1  0
 21 51  1  0
 21 52  1  0
 23 53  1  0
 23 54  1  0
 25 55  1  0
 26 56  1  0
 27 57  1  0
 28 58  1  0
 33 59  1  0
 33 60  1  0
 34 61  1  0
 34 62  1  0
M  END
$$$$
