
     RDKit          3D

 67 69  0  0  0  0  0  0  0  0999 V2000
   -3.6799    3.2400   -2.5702 C   0  0  0  0  0  0  0  0  0  0  0  0
   -3.0477    1.8857   -2.9296 C   0  0  0  0  0  0  0  0  0  0  0  0
   -4.1392    0.8860   -3.3361 C   0  0  0  0  0  0  0  0  0  0  0  0
   -2.1071    2.1026   -4.1295 C   0  0  0  0  0  0  0  0  0  0  0  0
   -2.2418    1.3594   -1.8186 N   0  0  0  0  0  0  0  0  0  0  0  0
   -2.7091    1.0736   -0.5424 C   0  0  0  0  0  0  0  0  0  0  0  0
   -3.8499    1.3482   -0.1815 O   0  0  0  0  0  0  0  0  0  0  0  0
   -1.5962    0.5480    0.4170 C   0  0  0  0  0  0  0  0  0  0  0  0
   -2.0040   -0.2377    1.6637 C   0  0  0  0  0  0  0  0  0  0  0  0
   -3.2904   -0.7645    1.8708 C   0  0  0  0  0  0  0  0  0  0  0  0
   -3.5982   -1.4773    3.0340 C   0  0  0  0  0  0  0  0  0  0  0  0
   -2.6275   -1.6622    4.0068 C   0  0  0  0  0  0  0  0  0  0  0  0
   -2.9261   -2.3515    5.1161 F   0  0  0  0  0  0  0  0  0  0  0  0
   -1.3520   -1.1448    3.8408 C   0  0  0  0  0  0  0  0  0  0  0  0
   -1.0425   -0.4353    2.6787 C   0  0  0  0  0  0  0  0  0  0  0  0
   -0.4742   -0.0934   -0.3399 N   0  0  0  0  0  0  0  0  0  0  0  0
    0.7969    0.4793   -0.4555 C   0  0  0  0  0  0  0  0  0  0  0  0
    1.6870   -0.0651   -1.1133 O   0  0  0  0  0  0  0  0  0  0  0  0
    1.0516    1.8342    0.1898 C   0  0  0  0  0  0  0  0  0  0  0  0
    2.5351    2.1975    0.1417 C   0  0  0  0  0  0  0  0  0  0  0  0
    3.3357    1.3407    1.1118 C   0  0  0  0  0  0  0  0  0  0  0  0
    2.8029    0.8002    2.0769 O   0  0  0  0  0  0  0  0  0  0  0  0
    4.6728    1.3101    0.7958 N   0  0  0  0  0  0  0  0  0  0  0  0
    5.7056    0.6477    1.4565 C   0  0  0  0  0  0  0  0  0  0  0  0
    5.5424   -0.0970    2.6186 C   0  0  0  0  0  0  0  0  0  0  0  0
    6.6567   -0.7246    3.1753 C   0  0  0  0  0  0  0  0  0  0  0  0
    7.8960   -0.5769    2.5692 C   0  0  0  0  0  0  0  0  0  0  0  0
    7.9680    0.1860    1.4176 C   0  0  0  0  0  0  0  0  0  0  0  0
    6.9053    0.7995    0.8525 N   0  0  0  0  0  0  0  0  0  0  0  0
   -0.6304   -1.4353   -0.9417 C   0  0  0  0  0  0  0  0  0  0  0  0
   -2.0275   -1.9475   -1.2918 C   0  0  0  0  0  0  0  0  0  0  0  0
   -1.8023   -3.4392   -1.4903 C   0  0  0  0  0  0  0  0  0  0  0  0
   -0.8458   -3.8136   -0.3665 C   0  0  0  0  0  0  0  0  0  0  0  0
   -0.0004   -2.5637   -0.1074 C   0  0  0  0  0  0  0  0  0  0  0  0
   -4.1741    3.6882   -3.4409 H   0  0  0  0  0  0  0  0  0  0  0  0
   -4.4362    3.1502   -1.7835 H   0  0  0  0  0  0  0  0  0  0  0  0
   -2.9206    3.9473   -2.2152 H   0  0  0  0  0  0  0  0  0  0  0  0
   -3.7032   -0.0732   -3.6319 H   0  0  0  0  0  0  0  0  0  0  0  0
   -4.8366    0.6906   -2.5169 H   0  0  0  0  0  0  0  0  0  0  0  0
   -4.7238    1.2594   -4.1840 H   0  0  0  0  0  0  0  0  0  0  0  0
   -1.3166    2.8208   -3.8845 H   0  0  0  0  0  0  0  0  0  0  0  0
   -1.6160    1.1670   -4.4204 H   0  0  0  0  0  0  0  0  0  0  0  0
   -2.6491    2.4856   -5.0008 H   0  0  0  0  0  0  0  0  0  0  0  0
   -1.3442    0.9442   -2.0502 H   0  0  0  0  0  0  0  0  0  0  0  0
   -1.2414    1.4976    0.8315 H   0  0  0  0  0  0  0  0  0  0  0  0
   -4.0814   -0.6335    1.1356 H   0  0  0  0  0  0  0  0  0  0  0  0
   -4.5915   -1.8892    3.1854 H   0  0  0  0  0  0  0  0  0  0  0  0
   -0.6019   -1.2987    4.6096 H   0  0  0  0  0  0  0  0  0  0  0  0
   -0.0300   -0.0481    2.5676 H   0  0  0  0  0  0  0  0  0  0  0  0
    0.4798    2.5829   -0.3691 H   0  0  0  0  0  0  0  0  0  0  0  0
    0.7157    1.8340    1.2300 H   0  0  0  0  0  0  0  0  0  0  0  0
    2.6635    3.2417    0.4509 H   0  0  0  0  0  0  0  0  0  0  0  0
    2.9338    2.0970   -0.8740 H   0  0  0  0  0  0  0  0  0  0  0  0
    4.9985    1.7736   -0.0436 H   0  0  0  0  0  0  0  0  0  0  0  0
    4.5783   -0.2260    3.0916 H   0  0  0  0  0  0  0  0  0  0  0  0
    6.5456   -1.3277    4.0713 H   0  0  0  0  0  0  0  0  0  0  0  0
    8.7814   -1.0564    2.9722 H   0  0  0  0  0  0  0  0  0  0  0  0
    8.9110    0.3131    0.8888 H   0  0  0  0  0  0  0  0  0  0  0  0
   -0.0801   -1.4061   -1.8932 H   0  0  0  0  0  0  0  0  0  0  0  0
   -2.7557   -1.8054   -0.4941 H   0  0  0  0  0  0  0  0  0  0  0  0
   -2.4225   -1.4797   -2.1976 H   0  0  0  0  0  0  0  0  0  0  0  0
   -2.7342   -4.0128   -1.4495 H   0  0  0  0  0  0  0  0  0  0  0  0
   -1.3330   -3.6231   -2.4661 H   0  0  0  0  0  0  0  0  0  0  0  0
   -0.2285   -4.6811   -0.6340 H   0  0  0  0  0  0  0  0  0  0  0  0
   -1.4110   -4.0745    0.5401 H   0  0  0  0  0  0  0  0  0  0  0  0
    0.0165   -2.3390    0.9641 H   0  0  0  0  0  0  0  0  0  0  0  0
    1.0434   -2.7279   -0.4084 H   0  0  0  0  0  0  0  0  0  0  0  0
  1  2  1  0
  2  3  1  0
  2  4  1  0
  2  5  1  0
  5  6  1  0
  6  7  2  0
  6  8  1  0
  8  9  1  0
  9 10  2  0
 10 11  1  0
 11 12  2  0
 12 13  1  0
 12 14  1  0
 14 15  2  0
  8 16  1  0
 16 17  1  0
 17 18  2  0
 17 19  1  0
 19 20  1  0
 20 21  1  0
 21 22  2  0
 21 23  1  0
 23 24  1  0
 24 25  2  0
 25 26  1  0
 26 27  2  0
 27 28  1  0
 28 29  2  0
 16 30  1  0
 30 31  1  0
 31 32  1  0
 32 33  1  0
 33 34  1  0
 15  9  1  0
 29 24  1  0
 34 30  1  0
  1 35  1  0
  1 36  1  0
  1 37  1  0
  3 38  1  0
  3 39  1  0
  3 40  1  0
  4 41  1  0
  4 42  1  0
  4 43  1  0
  5 44  1  0
  8 45  1  0
 10 46  1  0
 11 47  1  0
 14 48  1  0
 15 49  1  0
 19 50  1  0
 19 51  1  0
 20 52  1  0
 20 53  1  0
 23 54  1  0
 25 55  1  0
 26 56  1  0
 27 57  1  0
 28 58  1  0
 30 59  1  0
 31 60  1  0
 31 61  1  0
 32 62  1  0
 32 63  1  0
 33 64  1  0
 33 65  1  0
 34 66  1  0
 34 67  1  0
M  END
$$$$
