
     RDKit          3D

 45 47  0  0  0  0  0  0  0  0999 V2000
    6.4814   -0.2537    2.4770 C   0  0  0  0  0  0  0  0  0  0  0  0
    5.2455    0.0700    1.6905 C   0  0  0  0  0  0  0  0  0  0  0  0
    4.0548   -0.6169    1.9293 C   0  0  0  0  0  0  0  0  0  0  0  0
    2.8985   -0.2828    1.2235 C   0  0  0  0  0  0  0  0  0  0  0  0
    2.9082    0.7475    0.2720 C   0  0  0  0  0  0  0  0  0  0  0  0
    1.6649    1.0329   -0.4260 C   0  0  0  0  0  0  0  0  0  0  0  0
    1.5239    0.9557   -1.7968 C   0  0  0  0  0  0  0  0  0  0  0  0
   -0.0794    1.3576   -2.2391 S   0  0  0  0  0  0  0  0  0  0  0  0
   -0.4868    1.5518   -0.5727 C   0  0  0  0  0  0  0  0  0  0  0  0
   -1.8832    1.9348   -0.1922 C   0  0  0  0  0  0  0  0  0  0  0  0
   -1.8890    2.7859    1.0016 C   0  0  0  0  0  0  0  0  0  0  0  0
   -1.9748    3.4663    1.9396 N   0  0  0  0  0  0  0  0  0  0  0  0
   -2.7385    0.7187    0.0697 C   0  0  0  0  0  0  0  0  0  0  0  0
   -2.4887   -0.4508   -0.4386 N   0  0  0  0  0  0  0  0  0  0  0  0
   -3.4133   -1.4827   -0.1940 C   0  0  0  0  0  0  0  0  0  0  0  0
   -3.6008   -1.9611    1.1091 C   0  0  0  0  0  0  0  0  0  0  0  0
   -4.4745   -3.0213    1.3635 C   0  0  0  0  0  0  0  0  0  0  0  0
   -5.1595   -3.6261    0.3143 C   0  0  0  0  0  0  0  0  0  0  0  0
   -4.9681   -3.1755   -0.9906 C   0  0  0  0  0  0  0  0  0  0  0  0
   -4.1014   -2.1043   -1.2552 C   0  0  0  0  0  0  0  0  0  0  0  0
   -3.8722   -1.6215   -2.9641 S   0  0  0  0  0  0  0  0  0  0  0  0
   -4.8181   -0.1023   -2.9547 C   0  0  0  0  0  0  0  0  0  0  0  0
   -6.0449   -0.2728   -2.4120 F   0  0  0  0  0  0  0  0  0  0  0  0
   -4.2125    0.8984   -2.2731 F   0  0  0  0  0  0  0  0  0  0  0  0
   -5.0085    0.3545   -4.2151 F   0  0  0  0  0  0  0  0  0  0  0  0
    0.5111    1.3541    0.2666 N   0  0  0  0  0  0  0  0  0  0  0  0
    4.0928    1.4754    0.0491 C   0  0  0  0  0  0  0  0  0  0  0  0
    4.1675    2.6303   -0.9153 C   0  0  0  0  0  0  0  0  0  0  0  0
    5.2532    1.1149    0.7581 C   0  0  0  0  0  0  0  0  0  0  0  0
    7.3813   -0.1171    1.8648 H   0  0  0  0  0  0  0  0  0  0  0  0
    6.4709   -1.2967    2.8143 H   0  0  0  0  0  0  0  0  0  0  0  0
    6.5444    0.3954    3.3573 H   0  0  0  0  0  0  0  0  0  0  0  0
    4.0165   -1.4176    2.6640 H   0  0  0  0  0  0  0  0  0  0  0  0
    1.9792   -0.8307    1.4250 H   0  0  0  0  0  0  0  0  0  0  0  0
    2.2642    0.6909   -2.5386 H   0  0  0  0  0  0  0  0  0  0  0  0
   -2.3678    2.4869   -1.0021 H   0  0  0  0  0  0  0  0  0  0  0  0
   -3.6616    0.8917    0.6573 H   0  0  0  0  0  0  0  0  0  0  0  0
   -3.0433   -1.5220    1.9325 H   0  0  0  0  0  0  0  0  0  0  0  0
   -4.6024   -3.3861    2.3783 H   0  0  0  0  0  0  0  0  0  0  0  0
   -5.8286   -4.4621    0.5067 H   0  0  0  0  0  0  0  0  0  0  0  0
   -5.4967   -3.6764   -1.7994 H   0  0  0  0  0  0  0  0  0  0  0  0
    3.3085    3.3015   -0.7890 H   0  0  0  0  0  0  0  0  0  0  0  0
    4.2033    2.2642   -1.9491 H   0  0  0  0  0  0  0  0  0  0  0  0
    5.0701    3.2298   -0.7388 H   0  0  0  0  0  0  0  0  0  0  0  0
    6.1745    1.6703    0.5921 H   0  0  0  0  0  0  0  0  0  0  0  0
  1  2  1  0
  2  3  2  0
  3  4  1  0
  4  5  2  0
  5  6  1  0
  6  7  2  0
  7  8  1  0
  8  9  1  0
  9 10  1  0
 10 11  1  0
 11 12  3  0
 10 13  1  0
 13 14  2  3
 14 15  1  0
 15 16  2  0
 16 17  1  0
 17 18  2  0
 18 19  1  0
 19 20  2  0
 20 21  1  0
 21 22  1  0
 22 23  1  0
 22 24  1  0
 22 25  1  0
  9 26  2  0
  5 27  1  0
 27 28  1  0
 27 29  2  0
 29  2  1  0
 26  6  1  0
 20 15  1  0
  1 30  1  0
  1 31  1  0
  1 32  1  0
  3 33  1  0
  4 34  1  0
  7 35  1  0
 10 36  1  0
 13 37  1  0
 16 38  1  0
 17 39  1  0
 18 40  1  0
 19 41  1  0
 28 42  1  0
 28 43  1  0
 28 44  1  0
 29 45  1  0
M  END
$$$$
