
     RDKit          3D

 51 54  0  0  0  0  0  0  0  0999 V2000
    1.4585    3.1174    0.8034 C   0  0  0  0  0  0  0  0  0  0  0  0
    1.9632    1.9940    1.7161 C   0  0  0  0  0  0  0  0  0  0  0  0
    0.8313    1.4562    2.6086 C   0  0  0  0  0  0  0  0  0  0  0  0
    0.4842    0.1791    1.9083 C   0  0  0  0  0  0  0  0  0  0  0  0
   -0.6165   -0.6273    2.1609 C   0  0  0  0  0  0  0  0  0  0  0  0
   -0.7427   -1.8045    1.4219 C   0  0  0  0  0  0  0  0  0  0  0  0
   -2.1530   -2.8463    1.6988 S   0  0  0  0  0  6  0  0  0  0  0  0
   -2.3473   -2.9426    3.1278 O   0  0  0  0  0  0  0  0  0  0  0  0
   -2.0446   -4.0176    0.8583 O   0  0  0  0  0  0  0  0  0  0  0  0
   -3.3901   -1.8989    1.1075 N   0  0  0  0  0  0  0  0  0  0  0  0
   -3.6327   -1.8720   -0.3277 C   0  0  0  0  0  0  0  0  0  0  0  0
   -4.3175   -0.5882   -0.7238 C   0  0  0  0  0  0  0  0  0  0  0  0
   -5.6914   -0.5616   -1.0000 C   0  0  0  0  0  0  0  0  0  0  0  0
   -6.3185    0.6362   -1.3480 C   0  0  0  0  0  0  0  0  0  0  0  0
   -5.5813    1.8172   -1.4167 C   0  0  0  0  0  0  0  0  0  0  0  0
   -4.2166    1.8044   -1.1348 C   0  0  0  0  0  0  0  0  0  0  0  0
   -3.5872    0.6086   -0.7869 C   0  0  0  0  0  0  0  0  0  0  0  0
    0.2231   -2.1671    0.4713 C   0  0  0  0  0  0  0  0  0  0  0  0
    1.3327   -1.3416    0.2405 C   0  0  0  0  0  0  0  0  0  0  0  0
    1.4638   -0.1698    0.9679 C   0  0  0  0  0  0  0  0  0  0  0  0
    2.4494    0.8361    0.9259 N   0  0  0  0  0  0  0  0  0  0  0  0
    3.6932    0.8950    0.2997 C   0  0  0  0  0  0  0  0  0  0  0  0
    4.3447    1.9522    0.3410 O   0  0  0  0  0  0  0  0  0  0  0  0
    4.2749   -0.3684   -0.3864 C   0  0  0  0  0  0  0  0  0  0  0  0
    5.7908   -0.3542   -0.7471 C   0  0  0  0  0  0  0  0  0  0  0  0
    5.3983    0.0912   -2.1656 C   0  0  0  0  0  0  0  0  0  0  0  0
    4.0160   -0.5330   -1.9113 C   0  0  0  0  0  0  0  0  0  0  0  0
    0.6514    2.7700    0.1488 H   0  0  0  0  0  0  0  0  0  0  0  0
    2.2579    3.4992    0.1608 H   0  0  0  0  0  0  0  0  0  0  0  0
    1.0789    3.9550    1.3977 H   0  0  0  0  0  0  0  0  0  0  0  0
    2.7818    2.3842    2.3332 H   0  0  0  0  0  0  0  0  0  0  0  0
    1.2069    1.2261    3.6118 H   0  0  0  0  0  0  0  0  0  0  0  0
   -0.0198    2.1394    2.6838 H   0  0  0  0  0  0  0  0  0  0  0  0
   -1.3550   -0.3516    2.9084 H   0  0  0  0  0  0  0  0  0  0  0  0
   -4.1768   -1.7693    1.7397 H   0  0  0  0  0  0  0  0  0  0  0  0
   -4.2573   -2.7299   -0.6016 H   0  0  0  0  0  0  0  0  0  0  0  0
   -2.6992   -1.9563   -0.8955 H   0  0  0  0  0  0  0  0  0  0  0  0
   -6.2835   -1.4726   -0.9472 H   0  0  0  0  0  0  0  0  0  0  0  0
   -7.3838    0.6488   -1.5647 H   0  0  0  0  0  0  0  0  0  0  0  0
   -6.0715    2.7488   -1.6876 H   0  0  0  0  0  0  0  0  0  0  0  0
   -3.6429    2.7263   -1.1842 H   0  0  0  0  0  0  0  0  0  0  0  0
   -2.5227    0.6133   -0.5612 H   0  0  0  0  0  0  0  0  0  0  0  0
    0.1166   -3.0879   -0.0998 H   0  0  0  0  0  0  0  0  0  0  0  0
    2.0337   -1.6439   -0.5234 H   0  0  0  0  0  0  0  0  0  0  0  0
    4.0618   -1.2686    0.2035 H   0  0  0  0  0  0  0  0  0  0  0  0
    6.2570   -1.3463   -0.7107 H   0  0  0  0  0  0  0  0  0  0  0  0
    6.4222    0.3448   -0.1921 H   0  0  0  0  0  0  0  0  0  0  0  0
    5.3741    1.1789   -2.2970 H   0  0  0  0  0  0  0  0  0  0  0  0
    5.9771   -0.3517   -2.9799 H   0  0  0  0  0  0  0  0  0  0  0  0
    3.9369   -1.5781   -2.2326 H   0  0  0  0  0  0  0  0  0  0  0  0
    3.1714    0.0271   -2.3221 H   0  0  0  0  0  0  0  0  0  0  0  0
  1  2  1  0
  2  3  1  0
  3  4  1  0
  4  5  2  0
  5  6  1  0
  6  7  1  0
  7  8  2  0
  7  9  2  0
  7 10  1  0
 10 11  1  0
 11 12  1  0
 12 13  2  0
 13 14  1  0
 14 15  2  0
 15 16  1  0
 16 17  2  0
  6 18  2  0
 18 19  1  0
 19 20  2  0
 20 21  1  0
 21 22  1  0
 22 23  2  0
 22 24  1  0
 24 25  1  0
 25 26  1  0
 26 27  1  0
 21  2  1  0
 27 24  1  0
 20  4  1  0
 17 12  1  0
  1 28  1  0
  1 29  1  0
  1 30  1  0
  2 31  1  0
  3 32  1  0
  3 33  1  0
  5 34  1  0
 10 35  1  0
 11 36  1  0
 11 37  1  0
 13 38  1  0
 14 39  1  0
 15 40  1  0
 16 41  1  0
 17 42  1  0
 18 43  1  0
 19 44  1  0
 24 45  1  0
 25 46  1  0
 25 47  1  0
 26 48  1  0
 26 49  1  0
 27 50  1  0
 27 51  1  0
M  END
$$$$
