
     RDKit          3D

 43 45  0  0  0  0  0  0  0  0999 V2000
    4.1051    1.2921    1.7734 C   0  0  0  0  0  0  0  0  0  0  0  0
    3.7719   -0.1121    1.2819 C   0  0  0  0  0  0  0  0  0  0  0  0
    5.0000   -1.0164    1.3716 C   0  0  0  0  0  0  0  0  0  0  0  0
    2.4380   -0.8438    2.3073 S   0  0  0  0  0  0  0  0  0  0  0  0
    1.0061   -0.4454    1.3178 C   0  0  0  0  0  0  0  0  0  0  0  0
   -0.0323   -1.3456    1.2614 C   0  0  0  0  0  0  0  0  0  0  0  0
   -1.1147   -1.0246    0.4673 C   0  0  0  0  0  0  0  0  0  0  0  0
   -2.2045   -1.8839    0.3604 N   0  0  0  0  0  0  0  0  0  0  0  0
   -3.3669   -1.3718   -0.3867 C   0  0  0  0  0  0  0  0  0  0  0  0
   -4.4920   -2.4192   -0.3635 C   0  0  0  0  0  0  0  0  0  0  0  0
   -4.1300   -3.6842   -0.9419 O   0  0  0  0  0  0  0  0  0  0  0  0
   -2.7125   -3.8962   -1.0026 C   0  0  0  0  0  0  0  0  0  0  0  0
   -1.9583   -3.3331    0.2133 C   0  0  0  0  0  0  0  0  0  0  0  0
   -1.1506    0.1490   -0.1826 N   0  0  0  0  0  0  0  0  0  0  0  0
   -0.1067    0.9913   -0.0489 C   0  0  0  0  0  0  0  0  0  0  0  0
   -0.1803    2.2928   -0.7417 C   0  0  0  0  0  0  0  0  0  0  0  0
    0.6382    3.3757   -0.3606 C   0  0  0  0  0  0  0  0  0  0  0  0
    0.5623    4.6153   -1.0067 C   0  0  0  0  0  0  0  0  0  0  0  0
   -0.3324    4.7989   -2.0565 C   0  0  0  0  0  0  0  0  0  0  0  0
   -1.1516    3.7472   -2.4590 C   0  0  0  0  0  0  0  0  0  0  0  0
   -1.0776    2.5103   -1.8054 C   0  0  0  0  0  0  0  0  0  0  0  0
    0.9896    0.7316    0.6781 N   0  0  0  0  0  0  0  0  0  0  0  0
    4.4468    1.2903    2.8173 H   0  0  0  0  0  0  0  0  0  0  0  0
    3.2469    1.9691    1.6968 H   0  0  0  0  0  0  0  0  0  0  0  0
    4.9122    1.7155    1.1642 H   0  0  0  0  0  0  0  0  0  0  0  0
    3.4603   -0.0700    0.2306 H   0  0  0  0  0  0  0  0  0  0  0  0
    5.3987   -1.0646    2.3917 H   0  0  0  0  0  0  0  0  0  0  0  0
    4.7724   -2.0367    1.0426 H   0  0  0  0  0  0  0  0  0  0  0  0
    5.7966   -0.6339    0.7261 H   0  0  0  0  0  0  0  0  0  0  0  0
   -0.0038   -2.2629    1.8347 H   0  0  0  0  0  0  0  0  0  0  0  0
   -3.0867   -1.1652   -1.4268 H   0  0  0  0  0  0  0  0  0  0  0  0
   -3.7372   -0.4461    0.0698 H   0  0  0  0  0  0  0  0  0  0  0  0
   -5.3661   -2.0486   -0.9069 H   0  0  0  0  0  0  0  0  0  0  0  0
   -4.8062   -2.6108    0.6683 H   0  0  0  0  0  0  0  0  0  0  0  0
   -2.3414   -3.4407   -1.9284 H   0  0  0  0  0  0  0  0  0  0  0  0
   -2.5437   -4.9757   -1.0820 H   0  0  0  0  0  0  0  0  0  0  0  0
   -0.8942   -3.5686    0.0914 H   0  0  0  0  0  0  0  0  0  0  0  0
   -2.3163   -3.8283    1.1235 H   0  0  0  0  0  0  0  0  0  0  0  0
    1.3404    3.2607    0.4628 H   0  0  0  0  0  0  0  0  0  0  0  0
    1.1988    5.4361   -0.6813 H   0  0  0  0  0  0  0  0  0  0  0  0
   -0.3946    5.7621   -2.5567 H   0  0  0  0  0  0  0  0  0  0  0  0
   -1.8519    3.8860   -3.2794 H   0  0  0  0  0  0  0  0  0  0  0  0
   -1.7318    1.7043   -2.1348 H   0  0  0  0  0  0  0  0  0  0  0  0
  1  2  1  0
  2  3  1  0
  2  4  1  0
  4  5  1  0
  5  6  2  0
  6  7  1  0
  7  8  1  0
  8  9  1  0
  9 10  1  0
 10 11  1  0
 11 12  1  0
 12 13  1  0
  7 14  2  0
 14 15  1  0
 15 16  1  0
 16 17  2  0
 17 18  1  0
 18 19  2  0
 19 20  1  0
 20 21  2  0
 15 22  2  0
 22  5  1  0
 13  8  1  0
 21 16  1  0
  1 23  1  0
  1 24  1  0
  1 25  1  0
  2 26  1  0
  3 27  1  0
  3 28  1  0
  3 29  1  0
  6 30  1  0
  9 31  1  0
  9 32  1  0
 10 33  1  0
 10 34  1  0
 12 35  1  0
 12 36  1  0
 13 37  1  0
 13 38  1  0
 17 39  1  0
 18 40  1  0
 19 41  1  0
 20 42  1  0
 21 43  1  0
M  END
$$$$
