
     RDKit          3D

 31 32  0  0  0  0  0  0  0  0999 V2000
    0.4103    1.1942    2.1202 S   0  0  0  0  0  0  0  0  0  0  0  0
   -0.0471    0.0585    0.9670 C   0  0  0  0  0  0  0  0  0  0  0  0
    0.8428   -0.7098    0.2291 N   0  0  0  0  0  0  0  0  0  0  0  0
    2.2119   -0.5250   -0.0833 C   0  0  0  0  0  0  0  0  0  0  0  0
    2.8147    0.7341   -0.1535 C   0  0  0  0  0  0  0  0  0  0  0  0
    4.1651    0.8585   -0.4995 C   0  0  0  0  0  0  0  0  0  0  0  0
    4.9165   -0.2753   -0.7974 C   0  0  0  0  0  0  0  0  0  0  0  0
    6.5744   -0.1135   -1.2259 Cl  0  0  0  0  0  0  0  0  0  0  0  0
    4.3305   -1.5359   -0.7665 C   0  0  0  0  0  0  0  0  0  0  0  0
    2.9827   -1.6554   -0.4208 C   0  0  0  0  0  0  0  0  0  0  0  0
    2.2848   -3.2414   -0.4132 Cl  0  0  0  0  0  0  0  0  0  0  0  0
   -1.3908   -0.2907    0.6933 N   0  0  0  0  0  0  0  0  0  0  0  0
   -2.5225    0.2078    1.4918 C   0  0  0  0  0  0  0  0  0  0  0  0
   -3.2217    1.3597    0.7721 C   0  0  0  0  0  0  0  0  0  0  0  0
   -3.6569    0.9378   -0.6325 C   0  0  0  0  0  0  0  0  0  0  0  0
   -2.4933    0.3296   -1.4172 C   0  0  0  0  0  0  0  0  0  0  0  0
   -1.8127   -0.7894   -0.6263 C   0  0  0  0  0  0  0  0  0  0  0  0
    0.5240   -1.6669    0.1131 H   0  0  0  0  0  0  0  0  0  0  0  0
    2.2509    1.6446    0.0244 H   0  0  0  0  0  0  0  0  0  0  0  0
    4.6173    1.8467   -0.5422 H   0  0  0  0  0  0  0  0  0  0  0  0
    4.9158   -2.4175   -1.0119 H   0  0  0  0  0  0  0  0  0  0  0  0
   -3.2188   -0.6299    1.6235 H   0  0  0  0  0  0  0  0  0  0  0  0
   -2.2135    0.5113    2.4947 H   0  0  0  0  0  0  0  0  0  0  0  0
   -2.5435    2.2180    0.6954 H   0  0  0  0  0  0  0  0  0  0  0  0
   -4.0946    1.6851    1.3484 H   0  0  0  0  0  0  0  0  0  0  0  0
   -4.0600    1.8015   -1.1728 H   0  0  0  0  0  0  0  0  0  0  0  0
   -4.4659    0.2009   -0.5553 H   0  0  0  0  0  0  0  0  0  0  0  0
   -2.8555   -0.0588   -2.3755 H   0  0  0  0  0  0  0  0  0  0  0  0
   -1.7612    1.1158   -1.6401 H   0  0  0  0  0  0  0  0  0  0  0  0
   -0.9769   -1.1729   -1.2159 H   0  0  0  0  0  0  0  0  0  0  0  0
   -2.5067   -1.6217   -0.4607 H   0  0  0  0  0  0  0  0  0  0  0  0
  1  2  2  0
  2  3  1  0
  3  4  1  0
  4  5  2  0
  5  6  1  0
  6  7  2  0
  7  8  1  0
  7  9  1  0
  9 10  2  0
 10 11  1  0
  2 12  1  0
 12 13  1  0
 13 14  1  0
 14 15  1  0
 15 16  1  0
 16 17  1  0
 10  4  1  0
 17 12  1  0
  3 18  1  0
  5 19  1  0
  6 20  1  0
  9 21  1  0
 13 22  1  0
 13 23  1  0
 14 24  1  0
 14 25  1  0
 15 26  1  0
 15 27  1  0
 16 28  1  0
 16 29  1  0
 17 30  1  0
 17 31  1  0
M  END
$$$$
