
     RDKit          3D

 47 48  0  0  0  0  0  0  0  0999 V2000
    4.9107   -3.0496    0.8927 C   0  0  0  0  0  0  0  0  0  0  0  0
    4.5671   -1.5965    0.7400 C   0  0  0  0  0  0  0  0  0  0  0  0
    4.1164   -1.0972   -0.4887 C   0  0  0  0  0  0  0  0  0  0  0  0
    3.8223    0.2615   -0.6402 C   0  0  0  0  0  0  0  0  0  0  0  0
    3.9846    1.1506    0.4315 C   0  0  0  0  0  0  0  0  0  0  0  0
    3.6690    2.6184    0.2716 C   0  0  0  0  0  0  0  0  0  0  0  0
    1.9832    3.0336    0.7875 S   0  0  0  0  0  0  0  0  0  0  0  0
    1.0967    2.7585   -0.6772 C   0  0  0  0  0  0  0  0  0  0  0  0
    1.6223    2.5534   -1.8669 N   0  0  0  0  0  0  0  0  0  0  0  0
    0.5746    2.3867   -2.7478 N   0  0  0  0  0  0  0  0  0  0  0  0
   -0.5248    2.5105   -2.0337 C   0  0  0  0  0  0  0  0  0  0  0  0
   -1.9390    2.4139   -2.4592 C   0  0  0  0  0  0  0  0  0  0  0  0
   -2.2837    1.0039   -2.9431 C   0  0  0  0  0  0  0  0  0  0  0  0
   -2.2546    0.0069   -1.8906 N   0  0  0  0  0  0  0  0  0  0  0  0
   -3.2161   -0.0781   -0.9325 C   0  0  0  0  0  0  0  0  0  0  0  0
   -4.2152    0.6211   -0.8880 O   0  0  0  0  0  0  0  0  0  0  0  0
   -2.8601   -1.0352   -0.0509 O   0  0  0  0  0  0  0  0  0  0  0  0
   -3.6796   -1.3146    1.1117 C   0  0  0  0  0  0  0  0  0  0  0  0
   -2.9127   -2.4075    1.8714 C   0  0  0  0  0  0  0  0  0  0  0  0
   -3.8058   -0.0840    2.0180 C   0  0  0  0  0  0  0  0  0  0  0  0
   -5.0492   -1.8667    0.7029 C   0  0  0  0  0  0  0  0  0  0  0  0
   -0.2774    2.7560   -0.7124 O   0  0  0  0  0  0  0  0  0  0  0  0
    4.4421    0.6470    1.6599 C   0  0  0  0  0  0  0  0  0  0  0  0
    4.7409   -0.7117    1.8086 C   0  0  0  0  0  0  0  0  0  0  0  0
    5.9567   -3.2200    0.6195 H   0  0  0  0  0  0  0  0  0  0  0  0
    4.7567   -3.3813    1.9252 H   0  0  0  0  0  0  0  0  0  0  0  0
    4.2732   -3.6727    0.2549 H   0  0  0  0  0  0  0  0  0  0  0  0
    3.9885   -1.7644   -1.3386 H   0  0  0  0  0  0  0  0  0  0  0  0
    3.4691    0.6205   -1.6066 H   0  0  0  0  0  0  0  0  0  0  0  0
    4.3552    3.1946    0.9050 H   0  0  0  0  0  0  0  0  0  0  0  0
    3.8777    2.9503   -0.7496 H   0  0  0  0  0  0  0  0  0  0  0  0
   -2.6005    2.7144   -1.6390 H   0  0  0  0  0  0  0  0  0  0  0  0
   -2.1036    3.1227   -3.2803 H   0  0  0  0  0  0  0  0  0  0  0  0
   -1.5893    0.6717   -3.7235 H   0  0  0  0  0  0  0  0  0  0  0  0
   -3.2950    1.0089   -3.3721 H   0  0  0  0  0  0  0  0  0  0  0  0
   -1.4436   -0.5865   -1.7607 H   0  0  0  0  0  0  0  0  0  0  0  0
   -1.9128   -2.0577    2.1526 H   0  0  0  0  0  0  0  0  0  0  0  0
   -3.4389   -2.7178    2.7804 H   0  0  0  0  0  0  0  0  0  0  0  0
   -2.7635   -3.2900    1.2379 H   0  0  0  0  0  0  0  0  0  0  0  0
   -4.2369   -0.3455    2.9901 H   0  0  0  0  0  0  0  0  0  0  0  0
   -2.8270    0.3808    2.1835 H   0  0  0  0  0  0  0  0  0  0  0  0
   -4.4473    0.6838    1.5749 H   0  0  0  0  0  0  0  0  0  0  0  0
   -5.6143   -2.2179    1.5753 H   0  0  0  0  0  0  0  0  0  0  0  0
   -4.9362   -2.7001    0.0022 H   0  0  0  0  0  0  0  0  0  0  0  0
   -5.6617   -1.1132    0.1963 H   0  0  0  0  0  0  0  0  0  0  0  0
    4.5748    1.3133    2.5107 H   0  0  0  0  0  0  0  0  0  0  0  0
    5.1068   -1.0748    2.7676 H   0  0  0  0  0  0  0  0  0  0  0  0
  1  2  1  0
  2  3  2  0
  3  4  1  0
  4  5  2  0
  5  6  1  0
  6  7  1  0
  7  8  1  0
  8  9  2  0
  9 10  1  0
 10 11  2  0
 11 12  1  0
 12 13  1  0
 13 14  1  0
 14 15  1  0
 15 16  2  0
 15 17  1  0
 17 18  1  0
 18 19  1  0
 18 20  1  0
 18 21  1  0
 11 22  1  0
  5 23  1  0
 23 24  2  0
 24  2  1  0
 22  8  1  0
  1 25  1  0
  1 26  1  0
  1 27  1  0
  3 28  1  0
  4 29  1  0
  6 30  1  0
  6 31  1  0
 12 32  1  0
 12 33  1  0
 13 34  1  0
 13 35  1  0
 14 36  1  0
 19 37  1  0
 19 38  1  0
 19 39  1  0
 20 40  1  0
 20 41  1  0
 20 42  1  0
 21 43  1  0
 21 44  1  0
 21 45  1  0
 23 46  1  0
 24 47  1  0
M  END
$$$$
