
     RDKit          3D

 42 44  0  0  0  0  0  0  0  0999 V2000
   -2.1790    1.7833   -2.1827 C   0  0  0  0  0  0  0  0  0  0  0  0
   -3.0721    1.3245   -1.0468 C   0  0  0  0  0  0  0  0  0  0  0  0
   -2.3628    0.3301   -0.3063 O   0  0  0  0  0  0  0  0  0  0  0  0
   -2.8603    0.1003    0.9589 C   0  0  0  0  0  0  0  0  0  0  0  0
   -4.2278    0.0435    1.2388 C   0  0  0  0  0  0  0  0  0  0  0  0
   -4.6564   -0.2183    2.5382 C   0  0  0  0  0  0  0  0  0  0  0  0
   -3.7216   -0.4419    3.5473 C   0  0  0  0  0  0  0  0  0  0  0  0
   -2.3533   -0.4037    3.2661 C   0  0  0  0  0  0  0  0  0  0  0  0
   -1.9078   -0.1233    1.9760 C   0  0  0  0  0  0  0  0  0  0  0  0
   -0.5516   -0.0874    1.5792 N   0  0  0  0  0  0  0  0  0  0  0  0
    0.6215    0.0448    2.2709 C   0  0  0  0  0  0  0  0  0  0  0  0
    0.8623    0.4703    3.8668 S   0  0  0  0  0  0  0  0  0  0  0  0
    1.7561   -0.1826    1.5339 N   0  0  0  0  0  0  0  0  0  0  0  0
    1.8713   -0.6836    0.1674 C   0  0  0  0  0  0  0  0  0  0  0  0
    1.6329    0.4248   -0.8835 C   0  0  0  0  0  0  0  0  0  0  0  0
    2.9389    0.4222   -1.6955 C   0  0  0  0  0  0  0  0  0  0  0  0
    3.0115   -0.8730   -2.5217 C   0  0  0  0  0  0  0  0  0  0  0  0
    3.2911   -1.9490   -1.4610 C   0  0  0  0  0  0  0  0  0  0  0  0
    3.3143   -1.1392   -0.1524 C   0  0  0  0  0  0  0  0  0  0  0  0
    3.9798    0.1615   -0.6101 C   0  0  0  0  0  0  0  0  0  0  0  0
   -1.2568    2.2210   -1.7911 H   0  0  0  0  0  0  0  0  0  0  0  0
   -2.6851    2.5301   -2.8002 H   0  0  0  0  0  0  0  0  0  0  0  0
   -1.8827    0.9371   -2.8124 H   0  0  0  0  0  0  0  0  0  0  0  0
   -3.3124    2.1893   -0.4163 H   0  0  0  0  0  0  0  0  0  0  0  0
   -3.9932    0.8951   -1.4570 H   0  0  0  0  0  0  0  0  0  0  0  0
   -4.9703    0.1750    0.4598 H   0  0  0  0  0  0  0  0  0  0  0  0
   -5.7183   -0.2672    2.7612 H   0  0  0  0  0  0  0  0  0  0  0  0
   -4.0562   -0.6644    4.5567 H   0  0  0  0  0  0  0  0  0  0  0  0
   -1.6667   -0.6321    4.0726 H   0  0  0  0  0  0  0  0  0  0  0  0
   -0.4667    0.0111    0.5758 H   0  0  0  0  0  0  0  0  0  0  0  0
    2.6118   -0.0666    2.0672 H   0  0  0  0  0  0  0  0  0  0  0  0
    1.1543   -1.5063    0.0493 H   0  0  0  0  0  0  0  0  0  0  0  0
    0.7639    0.2056   -1.5107 H   0  0  0  0  0  0  0  0  0  0  0  0
    1.4768    1.4030   -0.4154 H   0  0  0  0  0  0  0  0  0  0  0  0
    3.0863    1.3273   -2.2887 H   0  0  0  0  0  0  0  0  0  0  0  0
    2.0885   -1.0694   -3.0723 H   0  0  0  0  0  0  0  0  0  0  0  0
    3.8354   -0.8321   -3.2400 H   0  0  0  0  0  0  0  0  0  0  0  0
    2.5295   -2.7363   -1.4597 H   0  0  0  0  0  0  0  0  0  0  0  0
    4.2657   -2.4172   -1.6467 H   0  0  0  0  0  0  0  0  0  0  0  0
    3.8184   -1.6551    0.6680 H   0  0  0  0  0  0  0  0  0  0  0  0
    4.0020    0.9366    0.1615 H   0  0  0  0  0  0  0  0  0  0  0  0
    4.9889    0.0120   -1.0073 H   0  0  0  0  0  0  0  0  0  0  0  0
  1  2  1  0
  2  3  1  0
  3  4  1  0
  4  5  2  0
  5  6  1  0
  6  7  2  0
  7  8  1  0
  8  9  2  0
  9 10  1  0
 10 11  1  0
 11 12  2  0
 11 13  1  0
 13 14  1  0
 14 15  1  0
 15 16  1  0
 16 17  1  0
 17 18  1  0
 18 19  1  0
 19 20  1  0
  9  4  1  0
 19 14  1  0
 20 16  1  0
  1 21  1  0
  1 22  1  0
  1 23  1  0
  2 24  1  0
  2 25  1  0
  5 26  1  0
  6 27  1  0
  7 28  1  0
  8 29  1  0
 10 30  1  0
 13 31  1  0
 14 32  1  0
 15 33  1  0
 15 34  1  0
 16 35  1  0
 17 36  1  0
 17 37  1  0
 18 38  1  0
 18 39  1  0
 19 40  1  0
 20 41  1  0
 20 42  1  0
M  END
$$$$
