
     RDKit          3D

 49 52  0  0  0  0  0  0  0  0999 V2000
    6.2845   -3.9047   -2.4542 C   0  0  0  0  0  0  0  0  0  0  0  0
    5.3623   -2.8351   -1.9483 C   0  0  0  0  0  0  0  0  0  0  0  0
    4.6584   -2.0223   -2.8447 C   0  0  0  0  0  0  0  0  0  0  0  0
    3.8244   -1.0049   -2.3735 C   0  0  0  0  0  0  0  0  0  0  0  0
    3.6899   -0.7812   -0.9997 C   0  0  0  0  0  0  0  0  0  0  0  0
    2.8260    0.2845   -0.4885 C   0  0  0  0  0  0  0  0  0  0  0  0
    1.4870    0.2596   -0.5623 C   0  0  0  0  0  0  0  0  0  0  0  0
    0.6100   -0.8233   -1.1528 C   0  0  0  0  0  0  0  0  0  0  0  0
   -0.8401   -0.3572   -0.9206 C   0  0  0  0  0  0  0  0  0  0  0  0
   -0.6841    0.9590   -0.2293 C   0  0  0  0  0  0  0  0  0  0  0  0
    0.5969    1.2696   -0.0583 C   0  0  0  0  0  0  0  0  0  0  0  0
    1.0813    2.4672    0.4395 O   0  0  0  0  0  0  0  0  0  0  0  0
    0.1843    3.3986    0.8597 C   0  0  0  0  0  0  0  0  0  0  0  0
    0.6545    4.5847    1.0756 N   0  0  0  0  0  0  0  0  0  0  0  0
   -1.2406    2.9477    1.1617 C   0  0  0  0  0  0  0  0  0  0  0  0
   -2.1567    4.0994    1.1806 C   0  0  0  0  0  0  0  0  0  0  0  0
   -2.8594    5.0230    1.2016 N   0  0  0  0  0  0  0  0  0  0  0  0
   -1.7785    1.8841    0.1758 C   0  0  0  0  0  0  0  0  0  0  0  0
   -2.9823    1.1545    0.7646 C   0  0  0  0  0  0  0  0  0  0  0  0
   -4.2544    1.3457    0.2059 C   0  0  0  0  0  0  0  0  0  0  0  0
   -5.3730    0.7007    0.7400 C   0  0  0  0  0  0  0  0  0  0  0  0
   -5.2426   -0.1569    1.8366 C   0  0  0  0  0  0  0  0  0  0  0  0
   -6.4487   -0.8213    2.4311 C   0  0  0  0  0  0  0  0  0  0  0  0
   -3.9791   -0.3421    2.4062 C   0  0  0  0  0  0  0  0  0  0  0  0
   -2.8595    0.3034    1.8751 C   0  0  0  0  0  0  0  0  0  0  0  0
    4.4091   -1.5763   -0.1031 C   0  0  0  0  0  0  0  0  0  0  0  0
    5.2416   -2.5952   -0.5744 C   0  0  0  0  0  0  0  0  0  0  0  0
    6.3361   -4.7411   -1.7490 H   0  0  0  0  0  0  0  0  0  0  0  0
    7.2900   -3.4967   -2.5935 H   0  0  0  0  0  0  0  0  0  0  0  0
    5.9300   -4.3071   -3.4088 H   0  0  0  0  0  0  0  0  0  0  0  0
    4.7569   -2.1732   -3.9172 H   0  0  0  0  0  0  0  0  0  0  0  0
    3.2887   -0.3824   -3.0865 H   0  0  0  0  0  0  0  0  0  0  0  0
    3.3439    1.1134   -0.0111 H   0  0  0  0  0  0  0  0  0  0  0  0
    0.7948   -0.9442   -2.2259 H   0  0  0  0  0  0  0  0  0  0  0  0
    0.7830   -1.7853   -0.6562 H   0  0  0  0  0  0  0  0  0  0  0  0
   -1.3790   -1.0840   -0.3048 H   0  0  0  0  0  0  0  0  0  0  0  0
   -1.3699   -0.2435   -1.8721 H   0  0  0  0  0  0  0  0  0  0  0  0
   -0.0458    5.2423    1.4340 H   0  0  0  0  0  0  0  0  0  0  0  0
   -1.1921    2.5369    2.1803 H   0  0  0  0  0  0  0  0  0  0  0  0
   -2.1027    2.3845   -0.7495 H   0  0  0  0  0  0  0  0  0  0  0  0
   -4.3940    2.0056   -0.6485 H   0  0  0  0  0  0  0  0  0  0  0  0
   -6.3499    0.8759    0.2937 H   0  0  0  0  0  0  0  0  0  0  0  0
   -6.1872   -1.7959    2.8564 H   0  0  0  0  0  0  0  0  0  0  0  0
   -7.2153   -0.9956    1.6690 H   0  0  0  0  0  0  0  0  0  0  0  0
   -6.8718   -0.1917    3.2199 H   0  0  0  0  0  0  0  0  0  0  0  0
   -3.8582   -0.9939    3.2691 H   0  0  0  0  0  0  0  0  0  0  0  0
   -1.8899    0.1248    2.3364 H   0  0  0  0  0  0  0  0  0  0  0  0
    4.3261   -1.4095    0.9685 H   0  0  0  0  0  0  0  0  0  0  0  0
    5.7953   -3.2004    0.1397 H   0  0  0  0  0  0  0  0  0  0  0  0
  1  2  1  0
  2  3  2  0
  3  4  1  0
  4  5  2  0
  5  6  1  0
  6  7  2  3
  7  8  1  0
  8  9  1  0
  9 10  1  0
 10 11  2  0
 11 12  1  0
 12 13  1  0
 13 14  2  3
 13 15  1  0
 15 16  1  0
 16 17  3  0
 15 18  1  0
 18 19  1  0
 19 20  2  0
 20 21  1  0
 21 22  2  0
 22 23  1  0
 22 24  1  0
 24 25  2  0
  5 26  1  0
 26 27  2  0
 27  2  1  0
 11  7  1  0
 25 19  1  0
 18 10  1  0
  1 28  1  0
  1 29  1  0
  1 30  1  0
  3 31  1  0
  4 32  1  0
  6 33  1  0
  8 34  1  0
  8 35  1  0
  9 36  1  0
  9 37  1  0
 14 38  1  0
 15 39  1  0
 18 40  1  0
 20 41  1  0
 21 42  1  0
 23 43  1  0
 23 44  1  0
 23 45  1  0
 24 46  1  0
 25 47  1  0
 26 48  1  0
 27 49  1  0
M  END
$$$$
