
     RDKit          3D

 44 46  0  0  0  0  0  0  0  0999 V2000
    1.2071   -0.2531   -1.1935 N   0  0  0  0  0  0  0  0  0  0  0  0
    0.5173    0.1418   -0.3466 C   0  0  0  0  0  0  0  0  0  0  0  0
   -0.4120    0.5547    0.6459 C   0  0  0  0  0  0  0  0  0  0  0  0
   -0.1240    1.3897    1.6633 C   0  0  0  0  0  0  0  0  0  0  0  0
    1.1505    1.9810    1.8956 C   0  0  0  0  0  0  0  0  0  0  0  0
    1.5185    2.8491    2.9161 C   0  0  0  0  0  0  0  0  0  0  0  0
    2.8859    3.1739    2.7425 C   0  0  0  0  0  0  0  0  0  0  0  0
    3.3088    2.4937    1.6221 C   0  0  0  0  0  0  0  0  0  0  0  0
    4.5763    2.3857    0.9023 C   0  0  0  0  0  0  0  0  0  0  0  0
    5.7118    3.0813    1.3473 C   0  0  0  0  0  0  0  0  0  0  0  0
    6.9296    2.9838    0.6644 C   0  0  0  0  0  0  0  0  0  0  0  0
    7.0227    2.1872   -0.4734 C   0  0  0  0  0  0  0  0  0  0  0  0
    8.6664    2.0548   -1.3962 Br  0  0  0  0  0  0  0  0  0  0  0  0
    5.9112    1.4884   -0.9337 C   0  0  0  0  0  0  0  0  0  0  0  0
    4.6960    1.5887   -0.2480 C   0  0  0  0  0  0  0  0  0  0  0  0
    2.2637    1.7787    1.1169 O   0  0  0  0  0  0  0  0  0  0  0  0
   -1.8236    0.0440    0.5893 C   0  0  0  0  0  0  0  0  0  0  0  0
   -2.6564    0.3693    1.4327 O   0  0  0  0  0  0  0  0  0  0  0  0
   -2.1264   -0.8075   -0.4525 N   0  0  0  0  0  0  0  0  0  0  0  0
   -3.4306   -1.4517   -0.5614 C   0  0  0  0  0  0  0  0  0  0  0  0
   -3.7269   -1.8044   -2.0236 C   0  0  0  0  0  0  0  0  0  0  0  0
   -5.0585   -2.5359   -2.1686 C   0  0  0  0  0  0  0  0  0  0  0  0
   -5.1185   -3.7743   -1.2793 C   0  0  0  0  0  0  0  0  0  0  0  0
   -4.8229   -3.4342    0.1783 C   0  0  0  0  0  0  0  0  0  0  0  0
   -3.4925   -2.7007    0.3281 C   0  0  0  0  0  0  0  0  0  0  0  0
   -0.9030    1.6510    2.3776 H   0  0  0  0  0  0  0  0  0  0  0  0
    0.8661    3.2081    3.7010 H   0  0  0  0  0  0  0  0  0  0  0  0
    3.4829    3.8258    3.3638 H   0  0  0  0  0  0  0  0  0  0  0  0
    5.6660    3.7101    2.2329 H   0  0  0  0  0  0  0  0  0  0  0  0
    7.7939    3.5323    1.0293 H   0  0  0  0  0  0  0  0  0  0  0  0
    5.9724    0.8635   -1.8209 H   0  0  0  0  0  0  0  0  0  0  0  0
    3.8396    1.0329   -0.6268 H   0  0  0  0  0  0  0  0  0  0  0  0
   -1.3992   -1.1433   -1.0743 H   0  0  0  0  0  0  0  0  0  0  0  0
   -4.1884   -0.7375   -0.2134 H   0  0  0  0  0  0  0  0  0  0  0  0
   -3.7417   -0.8919   -2.6320 H   0  0  0  0  0  0  0  0  0  0  0  0
   -2.9224   -2.4329   -2.4277 H   0  0  0  0  0  0  0  0  0  0  0  0
   -5.2078   -2.8259   -3.2147 H   0  0  0  0  0  0  0  0  0  0  0  0
   -5.8786   -1.8567   -1.9049 H   0  0  0  0  0  0  0  0  0  0  0  0
   -4.3915   -4.5145   -1.6356 H   0  0  0  0  0  0  0  0  0  0  0  0
   -6.1090   -4.2364   -1.3567 H   0  0  0  0  0  0  0  0  0  0  0  0
   -5.6304   -2.8086    0.5780 H   0  0  0  0  0  0  0  0  0  0  0  0
   -4.8060   -4.3532    0.7748 H   0  0  0  0  0  0  0  0  0  0  0  0
   -3.3461   -2.4257    1.3795 H   0  0  0  0  0  0  0  0  0  0  0  0
   -2.6705   -3.3813    0.0698 H   0  0  0  0  0  0  0  0  0  0  0  0
  1  2  3  0
  2  3  1  0
  3  4  2  3
  4  5  1  0
  5  6  2  0
  6  7  1  0
  7  8  2  0
  8  9  1  0
  9 10  2  0
 10 11  1  0
 11 12  2  0
 12 13  1  0
 12 14  1  0
 14 15  2  0
  8 16  1  0
  3 17  1  0
 17 18  2  0
 17 19  1  0
 19 20  1  0
 20 21  1  0
 21 22  1  0
 22 23  1  0
 23 24  1  0
 24 25  1  0
 16  5  1  0
 25 20  1  0
 15  9  1  0
  4 26  1  0
  6 27  1  0
  7 28  1  0
 10 29  1  0
 11 30  1  0
 14 31  1  0
 15 32  1  0
 19 33  1  0
 20 34  1  0
 21 35  1  0
 21 36  1  0
 22 37  1  0
 22 38  1  0
 23 39  1  0
 23 40  1  0
 24 41  1  0
 24 42  1  0
 25 43  1  0
 25 44  1  0
M  END
$$$$
