
     RDKit          3D

 58 61  0  0  0  0  0  0  0  0999 V2000
    2.1939   -2.0738   -1.6166 O   0  0  0  0  0  0  0  0  0  0  0  0
    2.3136   -1.4426   -0.5723 C   0  0  0  0  0  0  0  0  0  0  0  0
    3.3366   -1.6645    0.3244 N   0  0  0  0  0  0  0  0  0  0  0  0
    4.3932   -2.6214    0.0487 C   0  0  0  0  0  0  0  0  0  0  0  0
    5.4511   -2.0852   -0.9225 C   0  0  0  0  0  0  0  0  0  0  0  0
    6.2045   -0.8968   -0.3670 C   0  0  0  0  0  0  0  0  0  0  0  0
    7.2219   -1.0795    0.5813 C   0  0  0  0  0  0  0  0  0  0  0  0
    7.9051    0.0205    1.1060 C   0  0  0  0  0  0  0  0  0  0  0  0
    7.5734    1.3069    0.6855 C   0  0  0  0  0  0  0  0  0  0  0  0
    8.4139    2.6619    1.3325 Cl  0  0  0  0  0  0  0  0  0  0  0  0
    6.5641    1.5040   -0.2549 C   0  0  0  0  0  0  0  0  0  0  0  0
    5.8807    0.4042   -0.7801 C   0  0  0  0  0  0  0  0  0  0  0  0
    1.3590   -0.3272   -0.1488 C   0  0  0  0  0  0  0  0  0  0  0  0
    0.6735   -0.6732    1.1855 C   0  0  0  0  0  0  0  0  0  0  0  0
   -0.7801   -0.2029    1.2763 C   0  0  0  0  0  0  0  0  0  0  0  0
   -0.9741    1.1638    0.6078 C   0  0  0  0  0  0  0  0  0  0  0  0
   -2.3838    1.7385    0.8367 C   0  0  0  0  0  0  0  0  0  0  0  0
   -3.4236    0.8335    0.3674 N   0  0  0  0  0  0  0  0  0  0  0  0
   -4.7938    1.0412    0.4558 C   0  0  0  0  0  0  0  0  0  0  0  0
   -5.2659    1.9856    1.3296 N   0  0  0  0  0  0  0  0  0  0  0  0
   -6.5815    2.3057    1.5343 C   0  0  0  0  0  0  0  0  0  0  0  0
   -6.9280    3.4827    2.6778 S   0  0  0  0  0  0  0  0  0  0  0  0
   -7.5341    1.6587    0.8004 N   0  0  0  0  0  0  0  0  0  0  0  0
   -7.1323    0.7529   -0.0326 C   0  0  0  0  0  0  0  0  0  0  0  0
   -8.1552    0.0344   -0.8442 C   0  0  0  0  0  0  0  0  0  0  0  0
   -7.7972   -0.9219   -1.7116 C   0  0  0  0  0  0  0  0  0  0  0  0
   -6.4208   -1.3092   -1.8995 C   0  0  0  0  0  0  0  0  0  0  0  0
   -5.4295   -0.7136   -1.2223 C   0  0  0  0  0  0  0  0  0  0  0  0
   -5.7041    0.3502   -0.2688 C   0  0  0  0  0  0  0  0  0  0  0  0
   -0.5889    1.1290   -0.8843 C   0  0  0  0  0  0  0  0  0  0  0  0
    0.3353   -0.0335   -1.2495 C   0  0  0  0  0  0  0  0  0  0  0  0
    3.5071   -0.9758    1.0467 H   0  0  0  0  0  0  0  0  0  0  0  0
    3.9391   -3.5256   -0.3730 H   0  0  0  0  0  0  0  0  0  0  0  0
    4.8415   -2.8878    1.0121 H   0  0  0  0  0  0  0  0  0  0  0  0
    6.1711   -2.8813   -1.1503 H   0  0  0  0  0  0  0  0  0  0  0  0
    4.9885   -1.8133   -1.8801 H   0  0  0  0  0  0  0  0  0  0  0  0
    7.4917   -2.0802    0.9141 H   0  0  0  0  0  0  0  0  0  0  0  0
    8.6948   -0.1330    1.8372 H   0  0  0  0  0  0  0  0  0  0  0  0
    6.3082    2.5078   -0.5853 H   0  0  0  0  0  0  0  0  0  0  0  0
    5.0961    0.5675   -1.5170 H   0  0  0  0  0  0  0  0  0  0  0  0
    1.9697    0.5766   -0.0106 H   0  0  0  0  0  0  0  0  0  0  0  0
    0.7006   -1.7527    1.3812 H   0  0  0  0  0  0  0  0  0  0  0  0
    1.2479   -0.2088    1.9980 H   0  0  0  0  0  0  0  0  0  0  0  0
   -1.0777   -0.1601    2.3313 H   0  0  0  0  0  0  0  0  0  0  0  0
   -1.4254   -0.9524    0.8003 H   0  0  0  0  0  0  0  0  0  0  0  0
   -0.2775    1.8610    1.0972 H   0  0  0  0  0  0  0  0  0  0  0  0
   -2.5129    1.9190    1.9105 H   0  0  0  0  0  0  0  0  0  0  0  0
   -2.4758    2.7036    0.3243 H   0  0  0  0  0  0  0  0  0  0  0  0
   -3.1528    0.2739   -0.4342 H   0  0  0  0  0  0  0  0  0  0  0  0
   -4.6079    2.4792    1.9112 H   0  0  0  0  0  0  0  0  0  0  0  0
   -9.1893    0.3233   -0.6960 H   0  0  0  0  0  0  0  0  0  0  0  0
   -8.5519   -1.4392   -2.2971 H   0  0  0  0  0  0  0  0  0  0  0  0
   -6.2098   -2.1084   -2.6053 H   0  0  0  0  0  0  0  0  0  0  0  0
   -4.4106   -1.0455   -1.3817 H   0  0  0  0  0  0  0  0  0  0  0  0
   -0.0900    2.0758   -1.1315 H   0  0  0  0  0  0  0  0  0  0  0  0
   -1.4707    1.0849   -1.5337 H   0  0  0  0  0  0  0  0  0  0  0  0
    0.8404    0.1929   -2.1967 H   0  0  0  0  0  0  0  0  0  0  0  0
   -0.2713   -0.9297   -1.4376 H   0  0  0  0  0  0  0  0  0  0  0  0
  1  2  2  0
  2  3  1  0
  3  4  1  0
  4  5  1  0
  5  6  1  0
  6  7  2  0
  7  8  1  0
  8  9  2  0
  9 10  1  0
  9 11  1  0
 11 12  2  0
  2 13  1  0
 13 14  1  0
 14 15  1  0
 15 16  1  0
 16 17  1  0
 17 18  1  0
 18 19  1  0
 19 20  1  0
 20 21  1  0
 21 22  2  0
 21 23  1  0
 23 24  2  0
 24 25  1  0
 25 26  2  0
 26 27  1  0
 27 28  2  0
 28 29  1  0
 16 30  1  0
 30 31  1  0
 12  6  1  0
 31 13  1  0
 29 19  2  0
 29 24  1  0
  3 32  1  0
  4 33  1  0
  4 34  1  0
  5 35  1  0
  5 36  1  0
  7 37  1  0
  8 38  1  0
 11 39  1  0
 12 40  1  0
 13 41  1  0
 14 42  1  0
 14 43  1  0
 15 44  1  0
 15 45  1  0
 16 46  1  0
 17 47  1  0
 17 48  1  0
 18 49  1  0
 20 50  1  0
 25 51  1  0
 26 52  1  0
 27 53  1  0
 28 54  1  0
 30 55  1  0
 30 56  1  0
 31 57  1  0
 31 58  1  0
M  END
$$$$
