
     RDKit          3D

 42 44  0  0  0  0  0  0  0  0999 V2000
   -6.4091    1.4138    1.3802 C   0  0  0  0  0  0  0  0  0  0  0  0
   -5.1524    0.8737    0.7634 C   0  0  0  0  0  0  0  0  0  0  0  0
   -4.5075    1.5779   -0.2587 C   0  0  0  0  0  0  0  0  0  0  0  0
   -3.3150    1.1019   -0.8274 C   0  0  0  0  0  0  0  0  0  0  0  0
   -2.6618    1.8974   -1.9271 C   0  0  0  0  0  0  0  0  0  0  0  0
   -2.7575   -0.1055   -0.3519 C   0  0  0  0  0  0  0  0  0  0  0  0
   -1.5337   -0.6200   -0.9465 C   0  0  0  0  0  0  0  0  0  0  0  0
   -1.5285   -1.5816   -1.9368 C   0  0  0  0  0  0  0  0  0  0  0  0
    0.0900   -1.9262   -2.3806 S   0  0  0  0  0  0  0  0  0  0  0  0
    0.6386   -0.7781   -1.2482 C   0  0  0  0  0  0  0  0  0  0  0  0
    1.9643   -0.5040   -1.0352 N   0  0  0  0  0  0  0  0  0  0  0  0
    3.0347   -1.0278   -1.7096 C   0  0  0  0  0  0  0  0  0  0  0  0
    3.0303   -1.7852   -2.6705 O   0  0  0  0  0  0  0  0  0  0  0  0
    4.3462   -0.5276   -1.2161 C   0  0  0  0  0  0  0  0  0  0  0  0
    4.6364   -0.4396    0.0915 C   0  0  0  0  0  0  0  0  0  0  0  0
    5.8970   -0.0028    0.6049 C   0  0  0  0  0  0  0  0  0  0  0  0
    6.3357   -0.1095    1.9172 C   0  0  0  0  0  0  0  0  0  0  0  0
    7.6379    0.4295    2.1269 C   0  0  0  0  0  0  0  0  0  0  0  0
    8.1675    0.9474    0.9695 C   0  0  0  0  0  0  0  0  0  0  0  0
    7.0997    0.7826   -0.3505 S   0  0  0  0  0  0  0  0  0  0  0  0
   -0.2897   -0.1622   -0.5544 N   0  0  0  0  0  0  0  0  0  0  0  0
   -3.3822   -0.8067    0.7032 C   0  0  0  0  0  0  0  0  0  0  0  0
   -2.8082   -2.0830    1.2598 C   0  0  0  0  0  0  0  0  0  0  0  0
   -4.5773   -0.3066    1.2457 C   0  0  0  0  0  0  0  0  0  0  0  0
   -7.0001    1.9661    0.6421 H   0  0  0  0  0  0  0  0  0  0  0  0
   -6.1609    2.0841    2.2088 H   0  0  0  0  0  0  0  0  0  0  0  0
   -7.0396    0.6020    1.7583 H   0  0  0  0  0  0  0  0  0  0  0  0
   -4.9402    2.5106   -0.6171 H   0  0  0  0  0  0  0  0  0  0  0  0
   -2.6056    1.3056   -2.8463 H   0  0  0  0  0  0  0  0  0  0  0  0
   -1.6562    2.2104   -1.6280 H   0  0  0  0  0  0  0  0  0  0  0  0
   -3.2303    2.8048   -2.1574 H   0  0  0  0  0  0  0  0  0  0  0  0
   -2.3657   -2.0808   -2.4032 H   0  0  0  0  0  0  0  0  0  0  0  0
    2.1051    0.2045   -0.3299 H   0  0  0  0  0  0  0  0  0  0  0  0
    5.0621   -0.3271   -2.0053 H   0  0  0  0  0  0  0  0  0  0  0  0
    3.8990   -0.7485    0.8295 H   0  0  0  0  0  0  0  0  0  0  0  0
    5.7443   -0.5652    2.7031 H   0  0  0  0  0  0  0  0  0  0  0  0
    8.1566    0.4367    3.0779 H   0  0  0  0  0  0  0  0  0  0  0  0
    9.1321    1.4173    0.8341 H   0  0  0  0  0  0  0  0  0  0  0  0
   -2.8822   -2.8869    0.5209 H   0  0  0  0  0  0  0  0  0  0  0  0
   -3.3471   -2.4061    2.1571 H   0  0  0  0  0  0  0  0  0  0  0  0
   -1.7614   -1.9431    1.5485 H   0  0  0  0  0  0  0  0  0  0  0  0
   -5.0652   -0.8423    2.0582 H   0  0  0  0  0  0  0  0  0  0  0  0
  1  2  1  0
  2  3  2  0
  3  4  1  0
  4  5  1  0
  4  6  2  0
  6  7  1  0
  7  8  2  0
  8  9  1  0
  9 10  1  0
 10 11  1  0
 11 12  1  0
 12 13  2  0
 12 14  1  0
 14 15  2  3
 15 16  1  0
 16 17  2  0
 17 18  1  0
 18 19  2  0
 19 20  1  0
 10 21  2  0
  6 22  1  0
 22 23  1  0
 22 24  2  0
 24  2  1  0
 21  7  1  0
 20 16  1  0
  1 25  1  0
  1 26  1  0
  1 27  1  0
  3 28  1  0
  5 29  1  0
  5 30  1  0
  5 31  1  0
  8 32  1  0
 11 33  1  0
 14 34  1  0
 15 35  1  0
 17 36  1  0
 18 37  1  0
 19 38  1  0
 23 39  1  0
 23 40  1  0
 23 41  1  0
 24 42  1  0
M  END
$$$$
