
     RDKit          3D

 52 55  0  0  0  0  0  0  0  0999 V2000
   -6.8598    0.3827   -1.2064 C   0  0  0  0  0  0  0  0  0  0  0  0
   -6.3240    1.0838    0.0134 C   0  0  0  0  0  0  0  0  0  0  0  0
   -7.1425    2.0370    0.6474 C   0  0  0  0  0  0  0  0  0  0  0  0
   -6.7090    2.7049    1.7899 C   0  0  0  0  0  0  0  0  0  0  0  0
   -5.4578    2.4199    2.3195 C   0  0  0  0  0  0  0  0  0  0  0  0
   -4.6344    1.4790    1.6967 C   0  0  0  0  0  0  0  0  0  0  0  0
   -5.0284    0.8231    0.5188 C   0  0  0  0  0  0  0  0  0  0  0  0
   -4.2151   -0.1756   -0.0737 N   0  0  0  0  0  0  0  0  0  0  0  0
   -2.7962   -0.2885   -0.0489 C   0  0  0  0  0  0  0  0  0  0  0  0
   -2.0358    0.7573    0.3367 N   0  0  0  0  0  0  0  0  0  0  0  0
   -0.6707    0.6845    0.3176 N   0  0  0  0  0  0  0  0  0  0  0  0
   -0.0541   -0.4442   -0.0951 C   0  0  0  0  0  0  0  0  0  0  0  0
    1.4135   -0.3468   -0.0928 C   0  0  0  0  0  0  0  0  0  0  0  0
    2.1524   -0.4124   -1.2864 C   0  0  0  0  0  0  0  0  0  0  0  0
    3.5470   -0.3106   -1.2740 C   0  0  0  0  0  0  0  0  0  0  0  0
    4.2276   -0.1187   -0.0673 C   0  0  0  0  0  0  0  0  0  0  0  0
    5.7104   -0.0116   -0.1005 C   0  0  0  0  0  0  0  0  0  0  0  0
    6.3542   -0.5636   -0.9864 O   0  0  0  0  0  0  0  0  0  0  0  0
    6.2939    0.7726    0.8698 N   0  0  0  0  0  0  0  0  0  0  0  0
    7.7346    0.9780    0.9409 C   0  0  0  0  0  0  0  0  0  0  0  0
    8.2819    1.8261   -0.2129 C   0  0  0  0  0  0  0  0  0  0  0  0
    8.4856    1.0558   -1.3933 O   0  0  0  0  0  0  0  0  0  0  0  0
    3.5075   -0.0519    1.1300 C   0  0  0  0  0  0  0  0  0  0  0  0
    2.1125   -0.1589    1.1123 C   0  0  0  0  0  0  0  0  0  0  0  0
   -0.7824   -1.5857   -0.4807 C   0  0  0  0  0  0  0  0  0  0  0  0
   -0.1796   -2.8096   -0.8705 C   0  0  0  0  0  0  0  0  0  0  0  0
   -0.9406   -3.9186   -1.2388 C   0  0  0  0  0  0  0  0  0  0  0  0
   -2.3238   -3.8400   -1.2158 C   0  0  0  0  0  0  0  0  0  0  0  0
   -2.9421   -2.6518   -0.8255 C   0  0  0  0  0  0  0  0  0  0  0  0
   -2.1953   -1.5036   -0.4564 C   0  0  0  0  0  0  0  0  0  0  0  0
   -6.2727    0.6580   -2.0885 H   0  0  0  0  0  0  0  0  0  0  0  0
   -6.8283   -0.7031   -1.0678 H   0  0  0  0  0  0  0  0  0  0  0  0
   -7.9026    0.6539   -1.4035 H   0  0  0  0  0  0  0  0  0  0  0  0
   -8.1320    2.2608    0.2545 H   0  0  0  0  0  0  0  0  0  0  0  0
   -7.3513    3.4373    2.2713 H   0  0  0  0  0  0  0  0  0  0  0  0
   -5.1171    2.9223    3.2208 H   0  0  0  0  0  0  0  0  0  0  0  0
   -3.6729    1.2620    2.1548 H   0  0  0  0  0  0  0  0  0  0  0  0
   -4.5255   -0.4008   -1.0116 H   0  0  0  0  0  0  0  0  0  0  0  0
    1.6425   -0.5372   -2.2406 H   0  0  0  0  0  0  0  0  0  0  0  0
    4.0991   -0.3697   -2.2104 H   0  0  0  0  0  0  0  0  0  0  0  0
    5.7060    1.3649    1.4416 H   0  0  0  0  0  0  0  0  0  0  0  0
    7.9234    1.4812    1.8942 H   0  0  0  0  0  0  0  0  0  0  0  0
    8.2138   -0.0069    0.9537 H   0  0  0  0  0  0  0  0  0  0  0  0
    9.2556    2.2402    0.0655 H   0  0  0  0  0  0  0  0  0  0  0  0
    7.6105    2.6572   -0.4515 H   0  0  0  0  0  0  0  0  0  0  0  0
    7.7485    0.4074   -1.4512 H   0  0  0  0  0  0  0  0  0  0  0  0
    4.0115    0.0599    2.0858 H   0  0  0  0  0  0  0  0  0  0  0  0
    1.5625   -0.0974    2.0510 H   0  0  0  0  0  0  0  0  0  0  0  0
    0.9039   -2.9173   -0.8793 H   0  0  0  0  0  0  0  0  0  0  0  0
   -0.4496   -4.8437   -1.5310 H   0  0  0  0  0  0  0  0  0  0  0  0
   -2.9251   -4.7041   -1.4878 H   0  0  0  0  0  0  0  0  0  0  0  0
   -4.0302   -2.6376   -0.7890 H   0  0  0  0  0  0  0  0  0  0  0  0
  1  2  1  0
  2  3  2  0
  3  4  1  0
  4  5  2  0
  5  6  1  0
  6  7  2  0
  7  8  1  0
  8  9  1  0
  9 10  2  0
 10 11  1  0
 11 12  2  0
 12 13  1  0
 13 14  2  0
 14 15  1  0
 15 16  2  0
 16 17  1  0
 17 18  2  0
 17 19  1  0
 19 20  1  0
 20 21  1  0
 21 22  1  0
 16 23  1  0
 23 24  2  0
 12 25  1  0
 25 26  2  0
 26 27  1  0
 27 28  2  0
 28 29  1  0
 29 30  2  0
  7  2  1  0
 30  9  1  0
 24 13  1  0
 30 25  1  0
  1 31  1  0
  1 32  1  0
  1 33  1  0
  3 34  1  0
  4 35  1  0
  5 36  1  0
  6 37  1  0
  8 38  1  0
 14 39  1  0
 15 40  1  0
 19 41  1  0
 20 42  1  0
 20 43  1  0
 21 44  1  0
 21 45  1  0
 22 46  1  0
 23 47  1  0
 24 48  1  0
 26 49  1  0
 27 50  1  0
 28 51  1  0
 29 52  1  0
M  END
$$$$
