
     RDKit          3D

 54 55  0  0  0  0  0  0  0  0999 V2000
    0.0552   -3.0707   -2.1063 C   0  0  0  0  0  0  0  0  0  0  0  0
   -0.8877   -2.1259   -1.6159 O   0  0  0  0  0  0  0  0  0  0  0  0
   -0.4216   -0.8855   -1.2631 C   0  0  0  0  0  0  0  0  0  0  0  0
    0.9218   -0.4981   -1.3225 C   0  0  0  0  0  0  0  0  0  0  0  0
    1.3209    0.8051   -0.9670 C   0  0  0  0  0  0  0  0  0  0  0  0
    2.7814    1.1962   -1.0426 C   0  0  0  0  0  0  0  0  0  0  0  0
    3.5485    0.3535   -0.1348 N   0  0  0  0  0  0  0  0  0  0  0  0
    4.9268    0.5396   -0.0013 C   0  0  0  0  0  0  0  0  0  0  0  0
    5.5748   -0.0559    1.0922 C   0  0  0  0  0  0  0  0  0  0  0  0
    6.9630    0.0218    1.2529 C   0  0  0  0  0  0  0  0  0  0  0  0
    7.7387    0.6816    0.2980 C   0  0  0  0  0  0  0  0  0  0  0  0
    9.2122    0.7916    0.4137 C   0  0  0  0  0  0  0  0  0  0  0  0
    9.9494    1.3490   -0.3798 O   0  0  0  0  0  0  0  0  0  0  0  0
    9.6965    0.1973    1.5210 O   0  0  0  0  0  0  0  0  0  0  0  0
    7.1145    1.2482   -0.8162 C   0  0  0  0  0  0  0  0  0  0  0  0
    5.7246    1.1637   -0.9676 C   0  0  0  0  0  0  0  0  0  0  0  0
    0.3497    1.7301   -0.5588 C   0  0  0  0  0  0  0  0  0  0  0  0
   -0.9934    1.3534   -0.4961 C   0  0  0  0  0  0  0  0  0  0  0  0
   -2.2635    2.6527    0.0641 Br  0  0  0  0  0  0  0  0  0  0  0  0
   -1.3804    0.0465   -0.8245 C   0  0  0  0  0  0  0  0  0  0  0  0
   -2.7184   -0.2650   -0.7680 O   0  0  0  0  0  0  0  0  0  0  0  0
   -2.9959   -1.2937    0.1889 C   0  0  0  0  0  0  0  0  0  0  0  0
   -4.3147   -1.0132    0.9158 C   0  0  0  0  0  0  0  0  0  0  0  0
   -4.6424   -1.6380    1.9211 O   0  0  0  0  0  0  0  0  0  0  0  0
   -5.0816   -0.0296    0.3248 N   0  0  0  0  0  0  0  0  0  0  0  0
   -6.3247    0.5270    0.8722 C   0  0  0  0  0  0  0  0  0  0  0  0
   -6.0609    1.2232    2.2162 C   0  0  0  0  0  0  0  0  0  0  0  0
   -7.3964   -0.5623    1.0442 C   0  0  0  0  0  0  0  0  0  0  0  0
   -6.8580    1.5701   -0.1273 C   0  0  0  0  0  0  0  0  0  0  0  0
    0.5363   -2.7100   -3.0213 H   0  0  0  0  0  0  0  0  0  0  0  0
    0.7957   -3.3215   -1.3402 H   0  0  0  0  0  0  0  0  0  0  0  0
   -0.4890   -3.9878   -2.3547 H   0  0  0  0  0  0  0  0  0  0  0  0
    1.6966   -1.1924   -1.6425 H   0  0  0  0  0  0  0  0  0  0  0  0
    2.9055    2.2521   -0.7730 H   0  0  0  0  0  0  0  0  0  0  0  0
    3.1093    1.0678   -2.0818 H   0  0  0  0  0  0  0  0  0  0  0  0
    3.0916    0.2418    0.7689 H   0  0  0  0  0  0  0  0  0  0  0  0
    4.9963   -0.5972    1.8379 H   0  0  0  0  0  0  0  0  0  0  0  0
    7.4234   -0.4450    2.1199 H   0  0  0  0  0  0  0  0  0  0  0  0
   10.6631    0.3454    1.4616 H   0  0  0  0  0  0  0  0  0  0  0  0
    7.7058    1.7489   -1.5805 H   0  0  0  0  0  0  0  0  0  0  0  0
    5.2899    1.5958   -1.8638 H   0  0  0  0  0  0  0  0  0  0  0  0
    0.6406    2.7444   -0.2896 H   0  0  0  0  0  0  0  0  0  0  0  0
   -3.1081   -2.2488   -0.3325 H   0  0  0  0  0  0  0  0  0  0  0  0
   -2.2145   -1.3662    0.9557 H   0  0  0  0  0  0  0  0  0  0  0  0
   -4.5949    0.5065   -0.3901 H   0  0  0  0  0  0  0  0  0  0  0  0
   -5.7148    0.5183    2.9800 H   0  0  0  0  0  0  0  0  0  0  0  0
   -5.2936    1.9965    2.1146 H   0  0  0  0  0  0  0  0  0  0  0  0
   -6.9693    1.6995    2.5981 H   0  0  0  0  0  0  0  0  0  0  0  0
   -8.3552   -0.1266    1.3548 H   0  0  0  0  0  0  0  0  0  0  0  0
   -7.5614   -1.1057    0.1047 H   0  0  0  0  0  0  0  0  0  0  0  0
   -7.1164   -1.2993    1.8039 H   0  0  0  0  0  0  0  0  0  0  0  0
   -7.7808    2.0332    0.2328 H   0  0  0  0  0  0  0  0  0  0  0  0
   -7.0686    1.1136   -1.1007 H   0  0  0  0  0  0  0  0  0  0  0  0
   -6.1259    2.3674   -0.2959 H   0  0  0  0  0  0  0  0  0  0  0  0
  1  2  1  0
  2  3  1  0
  3  4  2  0
  4  5  1  0
  5  6  1  0
  6  7  1  0
  7  8  1  0
  8  9  2  0
  9 10  1  0
 10 11  2  0
 11 12  1  0
 12 13  2  0
 12 14  1  0
 11 15  1  0
 15 16  2  0
  5 17  2  0
 17 18  1  0
 18 19  1  0
 18 20  2  0
 20 21  1  0
 21 22  1  0
 22 23  1  0
 23 24  2  0
 23 25  1  0
 25 26  1  0
 26 27  1  0
 26 28  1  0
 26 29  1  0
 20  3  1  0
 16  8  1  0
  1 30  1  0
  1 31  1  0
  1 32  1  0
  4 33  1  0
  6 34  1  0
  6 35  1  0
  7 36  1  0
  9 37  1  0
 10 38  1  0
 14 39  1  0
 15 40  1  0
 16 41  1  0
 17 42  1  0
 22 43  1  0
 22 44  1  0
 25 45  1  0
 27 46  1  0
 27 47  1  0
 27 48  1  0
 28 49  1  0
 28 50  1  0
 28 51  1  0
 29 52  1  0
 29 53  1  0
 29 54  1  0
M  END
$$$$
