
     RDKit          3D

 37 40  0  0  0  0  0  0  0  0999 V2000
    6.0220    0.0733   -0.1363 C   0  0  0  0  0  0  0  0  0  0  0  0
    4.7640   -0.5483    0.0926 O   0  0  0  0  0  0  0  0  0  0  0  0
    3.6454    0.1997   -0.1639 C   0  0  0  0  0  0  0  0  0  0  0  0
    3.6306    1.5125   -0.6247 C   0  0  0  0  0  0  0  0  0  0  0  0
    2.4223    2.1838   -0.8401 C   0  0  0  0  0  0  0  0  0  0  0  0
    1.2332    1.4911   -0.5848 C   0  0  0  0  0  0  0  0  0  0  0  0
   -0.0650    1.9114   -0.6929 N   0  0  0  0  0  0  0  0  0  0  0  0
   -0.9537    0.9262   -0.3192 C   0  0  0  0  0  0  0  0  0  0  0  0
   -2.3608    0.9795   -0.2514 C   0  0  0  0  0  0  0  0  0  0  0  0
   -3.1269    2.2271   -0.6146 C   0  0  0  0  0  0  0  0  0  0  0  0
   -3.0328   -0.1891    0.2029 C   0  0  0  0  0  0  0  0  0  0  0  0
   -4.4356   -0.2240    0.3532 C   0  0  0  0  0  0  0  0  0  0  0  0
   -5.0641   -1.3699    0.8086 C   0  0  0  0  0  0  0  0  0  0  0  0
   -4.4069   -2.4899    1.1321 N   0  0  0  0  0  0  0  0  0  0  0  0
   -3.0613   -2.4512    0.9820 C   0  0  0  0  0  0  0  0  0  0  0  0
   -2.3018   -1.3577    0.5191 C   0  0  0  0  0  0  0  0  0  0  0  0
   -0.8752   -1.3968    0.3709 C   0  0  0  0  0  0  0  0  0  0  0  0
   -0.1264   -2.6804    0.6413 C   0  0  0  0  0  0  0  0  0  0  0  0
   -0.1964   -0.2022   -0.0031 C   0  0  0  0  0  0  0  0  0  0  0  0
    1.1952    0.1729   -0.1409 C   0  0  0  0  0  0  0  0  0  0  0  0
    2.4360   -0.4684    0.0810 C   0  0  0  0  0  0  0  0  0  0  0  0
    6.1431    0.3432   -1.1906 H   0  0  0  0  0  0  0  0  0  0  0  0
    6.8031   -0.6512    0.1132 H   0  0  0  0  0  0  0  0  0  0  0  0
    6.1562    0.9442    0.5138 H   0  0  0  0  0  0  0  0  0  0  0  0
    4.5488    2.0557   -0.8235 H   0  0  0  0  0  0  0  0  0  0  0  0
    2.4159    3.2113   -1.1899 H   0  0  0  0  0  0  0  0  0  0  0  0
   -0.3309    2.8389   -0.9856 H   0  0  0  0  0  0  0  0  0  0  0  0
   -2.4743    3.0242   -0.9807 H   0  0  0  0  0  0  0  0  0  0  0  0
   -3.6551    2.6158    0.2622 H   0  0  0  0  0  0  0  0  0  0  0  0
   -3.8466    2.0127   -1.4115 H   0  0  0  0  0  0  0  0  0  0  0  0
   -5.0568    0.6353    0.1247 H   0  0  0  0  0  0  0  0  0  0  0  0
   -6.1424   -1.4080    0.9294 H   0  0  0  0  0  0  0  0  0  0  0  0
   -2.5889   -3.3842    1.2766 H   0  0  0  0  0  0  0  0  0  0  0  0
   -0.6880   -3.5562    0.3028 H   0  0  0  0  0  0  0  0  0  0  0  0
    0.8079   -2.7227    0.0794 H   0  0  0  0  0  0  0  0  0  0  0  0
    0.0886   -2.7743    1.7097 H   0  0  0  0  0  0  0  0  0  0  0  0
    2.4774   -1.4843    0.4582 H   0  0  0  0  0  0  0  0  0  0  0  0
  1  2  1  0
  2  3  1  0
  3  4  2  0
  4  5  1  0
  5  6  2  0
  6  7  1  0
  7  8  1  0
  8  9  2  0
  9 10  1  0
  9 11  1  0
 11 12  2  0
 12 13  1  0
 13 14  2  0
 14 15  1  0
 15 16  2  0
 16 17  1  0
 17 18  1  0
 17 19  2  0
 19 20  1  0
 20 21  2  0
 21  3  1  0
 20  6  1  0
 19  8  1  0
 16 11  1  0
  1 22  1  0
  1 23  1  0
  1 24  1  0
  4 25  1  0
  5 26  1  0
  7 27  1  0
 10 28  1  0
 10 29  1  0
 10 30  1  0
 12 31  1  0
 13 32  1  0
 15 33  1  0
 18 34  1  0
 18 35  1  0
 18 36  1  0
 21 37  1  0
M  END
$$$$
