
     RDKit          3D

 44 46  0  0  0  0  0  0  0  0999 V2000
    7.5254    1.4288   -1.6481 C   0  0  0  0  0  0  0  0  0  0  0  0
    6.1680    0.8761   -1.3258 C   0  0  0  0  0  0  0  0  0  0  0  0
    6.0093   -0.0542   -0.2916 C   0  0  0  0  0  0  0  0  0  0  0  0
    4.7512   -0.5947   -0.0088 C   0  0  0  0  0  0  0  0  0  0  0  0
    3.6364   -0.2171   -0.7676 C   0  0  0  0  0  0  0  0  0  0  0  0
    2.2752   -0.7590   -0.5107 C   0  0  0  0  0  0  0  0  0  0  0  0
    1.2798   -0.4174   -1.1324 O   0  0  0  0  0  0  0  0  0  0  0  0
    2.2957   -1.6593    0.5008 O   0  0  0  0  0  0  0  0  0  0  0  0
    1.0418   -2.2718    0.8052 C   0  0  0  0  0  0  0  0  0  0  0  0
    0.1363   -1.4347    1.7124 C   0  0  0  0  0  0  0  0  0  0  0  0
   -0.2050   -1.8114    2.8314 O   0  0  0  0  0  0  0  0  0  0  0  0
   -0.2900   -0.2456    1.1652 N   0  0  0  0  0  0  0  0  0  0  0  0
   -1.2621    0.6002    1.8352 C   0  0  0  0  0  0  0  0  0  0  0  0
   -2.6992    0.0952    1.6548 C   0  0  0  0  0  0  0  0  0  0  0  0
   -3.6589    0.8974    2.5297 C   0  0  0  0  0  0  0  0  0  0  0  0
   -4.9965    0.3962    2.4149 O   0  0  0  0  0  0  0  0  0  0  0  0
   -5.3367    0.1679    1.1068 C   0  0  0  0  0  0  0  0  0  0  0  0
   -6.6905   -0.0212    0.8353 C   0  0  0  0  0  0  0  0  0  0  0  0
   -7.1135   -0.2358   -0.4776 C   0  0  0  0  0  0  0  0  0  0  0  0
   -6.1817   -0.2631   -1.5166 C   0  0  0  0  0  0  0  0  0  0  0  0
   -4.8243   -0.0871   -1.2430 C   0  0  0  0  0  0  0  0  0  0  0  0
   -4.4011    0.1129    0.0697 C   0  0  0  0  0  0  0  0  0  0  0  0
   -3.0526    0.2581    0.2667 O   0  0  0  0  0  0  0  0  0  0  0  0
    3.7960    0.7029   -1.8114 C   0  0  0  0  0  0  0  0  0  0  0  0
    5.0547    1.2411   -2.0916 C   0  0  0  0  0  0  0  0  0  0  0  0
    8.1436    1.4960   -0.7467 H   0  0  0  0  0  0  0  0  0  0  0  0
    8.0285    0.7844   -2.3755 H   0  0  0  0  0  0  0  0  0  0  0  0
    7.4472    2.4389   -2.0638 H   0  0  0  0  0  0  0  0  0  0  0  0
    6.8662   -0.3638    0.3038 H   0  0  0  0  0  0  0  0  0  0  0  0
    4.6599   -1.3090    0.8057 H   0  0  0  0  0  0  0  0  0  0  0  0
    1.2639   -3.2079    1.3293 H   0  0  0  0  0  0  0  0  0  0  0  0
    0.4963   -2.5456   -0.1063 H   0  0  0  0  0  0  0  0  0  0  0  0
   -0.1181   -0.0889    0.1707 H   0  0  0  0  0  0  0  0  0  0  0  0
   -1.1465    1.6010    1.4050 H   0  0  0  0  0  0  0  0  0  0  0  0
   -1.0011    0.6428    2.8985 H   0  0  0  0  0  0  0  0  0  0  0  0
   -2.7649   -0.9747    1.8944 H   0  0  0  0  0  0  0  0  0  0  0  0
   -3.3742    0.8222    3.5845 H   0  0  0  0  0  0  0  0  0  0  0  0
   -3.6654    1.9605    2.2561 H   0  0  0  0  0  0  0  0  0  0  0  0
   -7.4153    0.0083    1.6440 H   0  0  0  0  0  0  0  0  0  0  0  0
   -8.1700   -0.3777   -0.6903 H   0  0  0  0  0  0  0  0  0  0  0  0
   -6.5120   -0.4264   -2.5393 H   0  0  0  0  0  0  0  0  0  0  0  0
   -4.0971   -0.1172   -2.0494 H   0  0  0  0  0  0  0  0  0  0  0  0
    2.9419    1.0039   -2.4153 H   0  0  0  0  0  0  0  0  0  0  0  0
    5.1596    1.9486   -2.9118 H   0  0  0  0  0  0  0  0  0  0  0  0
  1  2  1  0
  2  3  2  0
  3  4  1  0
  4  5  2  0
  5  6  1  0
  6  7  2  0
  6  8  1  0
  8  9  1  0
  9 10  1  0
 10 11  2  0
 10 12  1  0
 12 13  1  0
 13 14  1  0
 14 15  1  0
 15 16  1  0
 16 17  1  0
 17 18  2  0
 18 19  1  0
 19 20  2  0
 20 21  1  0
 21 22  2  0
 22 23  1  0
  5 24  1  0
 24 25  2  0
 25  2  1  0
 23 14  1  0
 22 17  1  0
  1 26  1  0
  1 27  1  0
  1 28  1  0
  3 29  1  0
  4 30  1  0
  9 31  1  0
  9 32  1  0
 12 33  1  0
 13 34  1  0
 13 35  1  0
 14 36  1  0
 15 37  1  0
 15 38  1  0
 18 39  1  0
 19 40  1  0
 20 41  1  0
 21 42  1  0
 24 43  1  0
 25 44  1  0
M  END
$$$$
