
     RDKit          3D

 43 45  0  0  0  0  0  0  0  0999 V2000
   -4.8534   -2.3630   -1.5333 C   0  0  0  0  0  0  0  0  0  0  0  0
   -4.5179   -1.7593   -0.2472 N   0  0  0  0  0  0  0  0  0  0  0  0
   -3.1981   -2.2287    0.2260 C   0  0  0  0  0  0  0  0  0  0  0  0
   -2.5399   -1.2890    1.2611 C   0  0  0  0  0  0  0  0  0  0  0  0
   -2.3378    0.0783    0.7225 N   0  0  0  0  0  0  0  0  0  0  0  0
   -1.0201    0.5184    0.5527 C   0  0  0  0  0  0  0  0  0  0  0  0
   -0.0673   -0.2580   -0.1269 C   0  0  0  0  0  0  0  0  0  0  0  0
    1.2505    0.1881   -0.3041 C   0  0  0  0  0  0  0  0  0  0  0  0
    1.6511    1.4277    0.2070 C   0  0  0  0  0  0  0  0  0  0  0  0
    3.0305    1.9398    0.0207 C   0  0  0  0  0  0  0  0  0  0  0  0
    3.1938    3.1416   -0.1689 O   0  0  0  0  0  0  0  0  0  0  0  0
    4.2102    1.0394    0.0536 C   0  0  0  0  0  0  0  0  0  0  0  0
    5.3041    1.3451   -0.7660 C   0  0  0  0  0  0  0  0  0  0  0  0
    6.4379    0.5295   -0.7558 C   0  0  0  0  0  0  0  0  0  0  0  0
    6.4805   -0.5825    0.0839 C   0  0  0  0  0  0  0  0  0  0  0  0
    8.0139   -1.6873    0.0997 Br  0  0  0  0  0  0  0  0  0  0  0  0
    5.4042   -0.8822    0.9193 C   0  0  0  0  0  0  0  0  0  0  0  0
    4.2685   -0.0674    0.9101 C   0  0  0  0  0  0  0  0  0  0  0  0
    0.7250    2.2373    0.8639 C   0  0  0  0  0  0  0  0  0  0  0  0
   -0.5855    1.7702    1.0256 C   0  0  0  0  0  0  0  0  0  0  0  0
   -1.4999    2.6219    1.7532 N   0  0  0  0  0  4  0  0  0  0  0  0
   -1.4446    2.5753    2.9905 O   0  0  0  0  0  0  0  0  0  0  0  0
   -2.2172    3.3810    1.0858 O   0  0  0  0  0  1  0  0  0  0  0  0
   -3.2213    0.4280   -0.4189 C   0  0  0  0  0  0  0  0  0  0  0  0
   -4.5884   -0.2815   -0.2933 C   0  0  0  0  0  0  0  0  0  0  0  0
   -4.8195   -3.4561   -1.4661 H   0  0  0  0  0  0  0  0  0  0  0  0
   -5.8752   -2.0985   -1.8267 H   0  0  0  0  0  0  0  0  0  0  0  0
   -4.1719   -2.0436   -2.3299 H   0  0  0  0  0  0  0  0  0  0  0  0
   -3.3204   -3.2218    0.6735 H   0  0  0  0  0  0  0  0  0  0  0  0
   -2.5075   -2.3398   -0.6204 H   0  0  0  0  0  0  0  0  0  0  0  0
   -1.6027   -1.7304    1.6220 H   0  0  0  0  0  0  0  0  0  0  0  0
   -3.1942   -1.2069    2.1382 H   0  0  0  0  0  0  0  0  0  0  0  0
   -0.3468   -1.2205   -0.5489 H   0  0  0  0  0  0  0  0  0  0  0  0
    1.9432   -0.4373   -0.8635 H   0  0  0  0  0  0  0  0  0  0  0  0
    5.2760    2.2209   -1.4123 H   0  0  0  0  0  0  0  0  0  0  0  0
    7.2799    0.7743   -1.3985 H   0  0  0  0  0  0  0  0  0  0  0  0
    5.4452   -1.7394    1.5873 H   0  0  0  0  0  0  0  0  0  0  0  0
    3.4521   -0.2974    1.5901 H   0  0  0  0  0  0  0  0  0  0  0  0
    1.0191    3.2130    1.2465 H   0  0  0  0  0  0  0  0  0  0  0  0
   -2.7555    0.1443   -1.3722 H   0  0  0  0  0  0  0  0  0  0  0  0
   -3.3876    1.5104   -0.4404 H   0  0  0  0  0  0  0  0  0  0  0  0
   -5.2551    0.0601   -1.0947 H   0  0  0  0  0  0  0  0  0  0  0  0
   -5.0581    0.0459    0.6435 H   0  0  0  0  0  0  0  0  0  0  0  0
  1  2  1  0
  2  3  1  0
  3  4  1  0
  4  5  1  0
  5  6  1  0
  6  7  2  0
  7  8  1  0
  8  9  2  0
  9 10  1  0
 10 11  2  0
 10 12  1  0
 12 13  2  0
 13 14  1  0
 14 15  2  0
 15 16  1  0
 15 17  1  0
 17 18  2  0
  9 19  1  0
 19 20  2  0
 20 21  1  0
 21 22  2  0
 21 23  1  0
  5 24  1  0
 24 25  1  0
 25  2  1  0
 20  6  1  0
 18 12  1  0
  1 26  1  0
  1 27  1  0
  1 28  1  0
  3 29  1  0
  3 30  1  0
  4 31  1  0
  4 32  1  0
  7 33  1  0
  8 34  1  0
 13 35  1  0
 14 36  1  0
 17 37  1  0
 18 38  1  0
 19 39  1  0
 24 40  1  0
 24 41  1  0
 25 42  1  0
 25 43  1  0
M  CHG  2  21   1  23  -1
M  END
$$$$
