
     RDKit          3D

 48 50  0  0  0  0  0  0  0  0999 V2000
   -0.4657    0.0045    2.2072 C   0  0  0  0  0  0  0  0  0  0  0  0
   -0.1455    0.0376    0.9052 C   0  0  0  0  0  0  0  0  0  0  0  0
    1.2245    0.1528    0.3479 C   0  0  0  0  0  0  0  0  0  0  0  0
    2.3628    0.2703    1.0549 C   0  0  0  0  0  0  0  0  0  0  0  0
    3.6597    0.3851    0.4795 C   0  0  0  0  0  0  0  0  0  0  0  0
    4.9189   -0.6769    0.9978 S   0  0  0  0  0  0  0  0  0  0  0  0
    6.0087    0.0844   -0.0619 C   0  0  0  0  0  0  0  0  0  0  0  0
    7.3203   -0.2950   -0.1931 N   0  0  0  0  0  0  0  0  0  0  0  0
    7.9708   -1.2962    0.4903 C   0  0  0  0  0  0  0  0  0  0  0  0
    9.4203   -1.4081    0.0853 C   0  0  0  0  0  0  0  0  0  0  0  0
    7.5110   -2.0339    1.3537 O   0  0  0  0  0  0  0  0  0  0  0  0
    5.5303    1.0823   -0.7662 N   0  0  0  0  0  0  0  0  0  0  0  0
    4.2088    1.2583   -0.4451 C   0  0  0  0  0  0  0  0  0  0  0  0
    3.5053    2.2532   -1.0048 O   0  0  0  0  0  0  0  0  0  0  0  0
    1.1003    0.0922   -1.1056 C   0  0  0  0  0  0  0  0  0  0  0  0
   -0.2104   -0.0342   -1.3949 C   0  0  0  0  0  0  0  0  0  0  0  0
   -0.7762   -0.0517   -2.7747 C   0  0  0  0  0  0  0  0  0  0  0  0
   -0.9861   -0.0736   -0.2170 N   0  0  0  0  0  0  0  0  0  0  0  0
   -2.4028   -0.0814   -0.1856 C   0  0  0  0  0  0  0  0  0  0  0  0
   -3.1311   -1.1119   -0.7920 C   0  0  0  0  0  0  0  0  0  0  0  0
   -4.5308   -1.1178   -0.7648 C   0  0  0  0  0  0  0  0  0  0  0  0
   -5.2377   -0.0907   -0.1296 C   0  0  0  0  0  0  0  0  0  0  0  0
   -6.6454   -0.1699   -0.1488 N   0  0  0  0  0  0  0  0  0  0  0  0
   -7.5465    0.7191    0.4089 C   0  0  0  0  0  0  0  0  0  0  0  0
   -8.9772    0.3009    0.1748 C   0  0  0  0  0  0  0  0  0  0  0  0
   -7.2887    1.7544    1.0119 O   0  0  0  0  0  0  0  0  0  0  0  0
   -4.5207    0.9387    0.4785 C   0  0  0  0  0  0  0  0  0  0  0  0
   -3.1196    0.9411    0.4502 C   0  0  0  0  0  0  0  0  0  0  0  0
    0.2721    0.0839    2.9950 H   0  0  0  0  0  0  0  0  0  0  0  0
   -1.4936   -0.1215    2.5275 H   0  0  0  0  0  0  0  0  0  0  0  0
    2.3274    0.2532    2.1398 H   0  0  0  0  0  0  0  0  0  0  0  0
    7.8271    0.2643   -0.8643 H   0  0  0  0  0  0  0  0  0  0  0  0
    9.5574   -1.1529   -0.9697 H   0  0  0  0  0  0  0  0  0  0  0  0
    9.7578   -2.4387    0.2303 H   0  0  0  0  0  0  0  0  0  0  0  0
   10.0208   -0.7370    0.7053 H   0  0  0  0  0  0  0  0  0  0  0  0
    4.1193    2.7242   -1.5931 H   0  0  0  0  0  0  0  0  0  0  0  0
    1.9057    0.1634   -1.8168 H   0  0  0  0  0  0  0  0  0  0  0  0
   -0.0034    0.1552   -3.5232 H   0  0  0  0  0  0  0  0  0  0  0  0
   -1.5520    0.7118   -2.8896 H   0  0  0  0  0  0  0  0  0  0  0  0
   -1.2031   -1.0308   -3.0098 H   0  0  0  0  0  0  0  0  0  0  0  0
   -2.6060   -1.9339   -1.2723 H   0  0  0  0  0  0  0  0  0  0  0  0
   -5.0520   -1.9420   -1.2442 H   0  0  0  0  0  0  0  0  0  0  0  0
   -7.0353   -0.9702   -0.6306 H   0  0  0  0  0  0  0  0  0  0  0  0
   -9.0849   -0.7849    0.2510 H   0  0  0  0  0  0  0  0  0  0  0  0
   -9.2942    0.6341   -0.8168 H   0  0  0  0  0  0  0  0  0  0  0  0
   -9.6182    0.7585    0.9341 H   0  0  0  0  0  0  0  0  0  0  0  0
   -5.0161    1.7627    0.9822 H   0  0  0  0  0  0  0  0  0  0  0  0
   -2.5865    1.7669    0.9164 H   0  0  0  0  0  0  0  0  0  0  0  0
  1  2  2  0
  2  3  1  0
  3  4  2  3
  4  5  1  0
  5  6  1  0
  6  7  1  0
  7  8  1  0
  8  9  1  0
  9 10  1  0
  9 11  2  0
  7 12  2  0
 12 13  1  0
 13 14  1  0
  3 15  1  0
 15 16  2  0
 16 17  1  0
 16 18  1  0
 18 19  1  0
 19 20  2  0
 20 21  1  0
 21 22  2  0
 22 23  1  0
 23 24  1  0
 24 25  1  0
 24 26  2  0
 22 27  1  0
 27 28  2  0
 18  2  1  0
 28 19  1  0
 13  5  2  0
  1 29  1  0
  1 30  1  0
  4 31  1  0
  8 32  1  0
 10 33  1  0
 10 34  1  0
 10 35  1  0
 14 36  1  0
 15 37  1  0
 17 38  1  0
 17 39  1  0
 17 40  1  0
 20 41  1  0
 21 42  1  0
 23 43  1  0
 25 44  1  0
 25 45  1  0
 25 46  1  0
 27 47  1  0
 28 48  1  0
M  END
$$$$
