
     RDKit          3D

 57 61  0  0  0  0  0  0  0  0999 V2000
    6.2182    1.9796    0.6034 C   0  0  0  0  0  0  0  0  0  0  0  0
    6.1813    0.6401    0.2178 C   0  0  0  0  0  0  0  0  0  0  0  0
    4.9886   -0.0810    0.3041 C   0  0  0  0  0  0  0  0  0  0  0  0
    3.8191    0.5347    0.7738 C   0  0  0  0  0  0  0  0  0  0  0  0
    2.5189   -0.2433    0.8716 C   0  0  0  0  0  0  0  0  0  0  0  0
    1.3954    0.3784    0.1402 N   0  0  0  0  0  0  0  0  0  0  0  0
    1.7167    0.4067   -1.3126 C   0  0  0  0  0  0  0  0  0  0  0  0
    0.7225    1.1299   -2.1583 C   0  0  0  0  0  0  0  0  0  0  0  0
    0.4199    2.4658   -2.3300 C   0  0  0  0  0  0  0  0  0  0  0  0
   -0.6222    2.5199   -3.2863 C   0  0  0  0  0  0  0  0  0  0  0  0
   -0.8851    1.2169   -3.6426 C   0  0  0  0  0  0  0  0  0  0  0  0
   -0.0836    0.3617   -2.9534 O   0  0  0  0  0  0  0  0  0  0  0  0
    0.0716   -0.2762    0.3771 C   0  0  0  0  0  0  0  0  0  0  0  0
   -0.0602   -1.0859    1.6741 C   0  0  0  0  0  0  0  0  0  0  0  0
   -0.0053   -2.4880    1.6386 C   0  0  0  0  0  0  0  0  0  0  0  0
   -0.1406   -3.1935    2.8241 C   0  0  0  0  0  0  0  0  0  0  0  0
   -0.3235   -2.6105    4.0264 N   0  0  0  0  0  0  0  0  0  0  0  0
   -0.3646   -1.2603    4.0495 C   0  0  0  0  0  0  0  0  0  0  0  0
   -0.2365   -0.4671    2.9212 C   0  0  0  0  0  0  0  0  0  0  0  0
   -1.0534    0.7355    0.3081 C   0  0  0  0  0  0  0  0  0  0  0  0
   -1.0598    1.9654    0.7976 N   0  0  0  0  0  0  0  0  0  0  0  0
   -2.3165    2.4656    0.5828 N   0  0  0  0  0  0  0  0  0  0  0  0
   -3.0881    1.5696   -0.0101 N   0  0  0  0  0  0  0  0  0  0  0  0
   -2.3001    0.4983   -0.2206 N   0  0  0  0  0  0  0  0  0  0  0  0
   -2.8378   -0.7136   -0.8053 C   0  0  0  0  0  0  0  0  0  0  0  0
   -3.5731   -1.5717    0.2358 C   0  0  0  0  0  0  0  0  0  0  0  0
   -5.0492   -1.4008   -0.0883 C   0  0  0  0  0  0  0  0  0  0  0  0
   -5.0630   -1.3385   -1.6050 C   0  0  0  0  0  0  0  0  0  0  0  0
   -3.8453   -0.4894   -1.9532 C   0  0  0  0  0  0  0  0  0  0  0  0
    3.8705    1.8819    1.1672 C   0  0  0  0  0  0  0  0  0  0  0  0
    5.0636    2.6001    1.0798 C   0  0  0  0  0  0  0  0  0  0  0  0
    7.1470    2.5402    0.5349 H   0  0  0  0  0  0  0  0  0  0  0  0
    7.0831    0.1575   -0.1495 H   0  0  0  0  0  0  0  0  0  0  0  0
    4.9803   -1.1254    0.0043 H   0  0  0  0  0  0  0  0  0  0  0  0
    2.6718   -1.2756    0.5299 H   0  0  0  0  0  0  0  0  0  0  0  0
    2.3175   -0.2869    1.9472 H   0  0  0  0  0  0  0  0  0  0  0  0
    1.8403   -0.6176   -1.6919 H   0  0  0  0  0  0  0  0  0  0  0  0
    2.6734    0.9147   -1.4844 H   0  0  0  0  0  0  0  0  0  0  0  0
    0.8874    3.2918   -1.8097 H   0  0  0  0  0  0  0  0  0  0  0  0
   -1.1229    3.4007   -3.6656 H   0  0  0  0  0  0  0  0  0  0  0  0
   -1.5815    0.7576   -4.3312 H   0  0  0  0  0  0  0  0  0  0  0  0
   -0.0714   -1.0095   -0.4263 H   0  0  0  0  0  0  0  0  0  0  0  0
    0.1420   -3.0298    0.7104 H   0  0  0  0  0  0  0  0  0  0  0  0
   -0.1046   -4.2800    2.8386 H   0  0  0  0  0  0  0  0  0  0  0  0
   -0.5069   -0.8156    5.0302 H   0  0  0  0  0  0  0  0  0  0  0  0
   -0.2711    0.6161    3.0174 H   0  0  0  0  0  0  0  0  0  0  0  0
   -1.9901   -1.2784   -1.2058 H   0  0  0  0  0  0  0  0  0  0  0  0
   -3.2930   -2.6239    0.0996 H   0  0  0  0  0  0  0  0  0  0  0  0
   -3.3518   -1.3019    1.2733 H   0  0  0  0  0  0  0  0  0  0  0  0
   -5.4277   -0.4646    0.3375 H   0  0  0  0  0  0  0  0  0  0  0  0
   -5.6560   -2.2237    0.2990 H   0  0  0  0  0  0  0  0  0  0  0  0
   -4.9482   -2.3453   -2.0255 H   0  0  0  0  0  0  0  0  0  0  0  0
   -5.9919   -0.9124   -1.9977 H   0  0  0  0  0  0  0  0  0  0  0  0
   -3.4235   -0.7974   -2.9153 H   0  0  0  0  0  0  0  0  0  0  0  0
   -4.1419    0.5594   -2.0602 H   0  0  0  0  0  0  0  0  0  0  0  0
    2.9708    2.3758    1.5329 H   0  0  0  0  0  0  0  0  0  0  0  0
    5.0906    3.6438    1.3807 H   0  0  0  0  0  0  0  0  0  0  0  0
  1  2  2  0
  2  3  1  0
  3  4  2  0
  4  5  1  0
  5  6  1  0
  6  7  1  0
  7  8  1  0
  8  9  2  0
  9 10  1  0
 10 11  2  0
 11 12  1  0
  6 13  1  0
 13 14  1  0
 14 15  2  0
 15 16  1  0
 16 17  2  0
 17 18  1  0
 18 19  2  0
 13 20  1  0
 20 21  2  0
 21 22  1  0
 22 23  2  0
 23 24  1  0
 24 25  1  0
 25 26  1  0
 26 27  1  0
 27 28  1  0
 28 29  1  0
  4 30  1  0
 30 31  2  0
 31  1  1  0
 12  8  1  0
 19 14  1  0
 24 20  1  0
 29 25  1  0
  1 32  1  0
  2 33  1  0
  3 34  1  0
  5 35  1  0
  5 36  1  0
  7 37  1  0
  7 38  1  0
  9 39  1  0
 10 40  1  0
 11 41  1  0
 13 42  1  0
 15 43  1  0
 16 44  1  0
 18 45  1  0
 19 46  1  0
 25 47  1  0
 26 48  1  0
 26 49  1  0
 27 50  1  0
 27 51  1  0
 28 52  1  0
 28 53  1  0
 29 54  1  0
 29 55  1  0
 30 56  1  0
 31 57  1  0
M  END
$$$$
