
     RDKit          3D

 45 47  0  0  0  0  0  0  0  0999 V2000
    0.6868   -1.6456    2.6358 O   0  0  0  0  0  0  0  0  0  0  0  0
    1.0875   -1.0055    1.6766 C   0  0  0  0  0  0  0  0  0  0  0  0
    2.3953   -0.8679    1.2762 N   0  0  0  0  0  0  0  0  0  0  0  0
    3.4574   -1.2145    2.1875 C   0  0  0  0  0  0  0  0  0  0  0  0
    4.7453   -1.1925    1.4519 C   0  0  0  0  0  0  0  0  0  0  0  0
    5.8022   -2.0757    1.3677 C   0  0  0  0  0  0  0  0  0  0  0  0
    6.7561   -1.4782    0.5089 C   0  0  0  0  0  0  0  0  0  0  0  0
    6.2218   -0.2725    0.1211 C   0  0  0  0  0  0  0  0  0  0  0  0
    5.0010   -0.0883    0.6859 O   0  0  0  0  0  0  0  0  0  0  0  0
    0.0825   -0.3358    0.7408 C   0  0  0  0  0  0  0  0  0  0  0  0
   -0.7087   -1.3204   -0.0577 C   0  0  0  0  0  0  0  0  0  0  0  0
   -1.5253   -0.9299   -1.0486 C   0  0  0  0  0  0  0  0  0  0  0  0
   -2.3549   -1.8758   -1.8697 C   0  0  0  0  0  0  0  0  0  0  0  0
   -3.8300   -1.5680   -1.7748 C   0  0  0  0  0  0  0  0  0  0  0  0
   -4.4656   -0.8062   -2.7661 C   0  0  0  0  0  0  0  0  0  0  0  0
   -5.8253   -0.5061   -2.6647 C   0  0  0  0  0  0  0  0  0  0  0  0
   -6.5612   -0.9594   -1.5708 C   0  0  0  0  0  0  0  0  0  0  0  0
   -5.9385   -1.7114   -0.5760 C   0  0  0  0  0  0  0  0  0  0  0  0
   -4.5794   -2.0133   -0.6752 C   0  0  0  0  0  0  0  0  0  0  0  0
   -0.0835    0.9464    0.6085 N   0  0  0  0  0  0  0  0  0  0  0  0
    0.6114    1.8332    1.3946 C   0  0  0  0  0  0  0  0  0  0  0  0
    1.2347    1.5552    2.4112 O   0  0  0  0  0  0  0  0  0  0  0  0
    0.5056    3.1738    0.8471 C   0  0  0  0  0  0  0  0  0  0  0  0
   -0.1741    3.6936   -0.2439 C   0  0  0  0  0  0  0  0  0  0  0  0
    0.1092    5.0811   -0.2855 C   0  0  0  0  0  0  0  0  0  0  0  0
    0.9400    5.3322    0.7809 C   0  0  0  0  0  0  0  0  0  0  0  0
    1.6555    7.0348    1.2381 Br  0  0  0  0  0  0  0  0  0  0  0  0
    1.1893    4.1873    1.4693 O   0  0  0  0  0  0  0  0  0  0  0  0
    2.6122   -0.1454    0.6007 H   0  0  0  0  0  0  0  0  0  0  0  0
    3.4675   -0.4810    3.0007 H   0  0  0  0  0  0  0  0  0  0  0  0
    3.2604   -2.2025    2.6152 H   0  0  0  0  0  0  0  0  0  0  0  0
    5.8759   -3.0302    1.8698 H   0  0  0  0  0  0  0  0  0  0  0  0
    7.7162   -1.8748    0.2108 H   0  0  0  0  0  0  0  0  0  0  0  0
    6.5682    0.5298   -0.5160 H   0  0  0  0  0  0  0  0  0  0  0  0
   -0.5959   -2.3661    0.2135 H   0  0  0  0  0  0  0  0  0  0  0  0
   -1.6208    0.1261   -1.2949 H   0  0  0  0  0  0  0  0  0  0  0  0
   -2.0298   -1.8111   -2.9155 H   0  0  0  0  0  0  0  0  0  0  0  0
   -2.1869   -2.9186   -1.5700 H   0  0  0  0  0  0  0  0  0  0  0  0
   -3.9050   -0.4396   -3.6232 H   0  0  0  0  0  0  0  0  0  0  0  0
   -6.3105    0.0841   -3.4378 H   0  0  0  0  0  0  0  0  0  0  0  0
   -7.6192   -0.7230   -1.4913 H   0  0  0  0  0  0  0  0  0  0  0  0
   -6.5106   -2.0601    0.2805 H   0  0  0  0  0  0  0  0  0  0  0  0
   -4.1056   -2.5938    0.1140 H   0  0  0  0  0  0  0  0  0  0  0  0
   -0.8000    3.1294   -0.9225 H   0  0  0  0  0  0  0  0  0  0  0  0
   -0.2512    5.8065   -1.0028 H   0  0  0  0  0  0  0  0  0  0  0  0
  1  2  2  0
  2  3  1  0
  3  4  1  0
  4  5  1  0
  5  6  2  0
  6  7  1  0
  7  8  2  0
  8  9  1  0
  2 10  1  0
 10 11  1  0
 11 12  2  3
 12 13  1  0
 13 14  1  0
 14 15  2  0
 15 16  1  0
 16 17  2  0
 17 18  1  0
 18 19  2  0
 10 20  2  3
 20 21  1  0
 21 22  2  0
 21 23  1  0
 23 24  2  0
 24 25  1  0
 25 26  2  0
 26 27  1  0
 26 28  1  0
  9  5  1  0
 19 14  1  0
 28 23  1  0
  3 29  1  0
  4 30  1  0
  4 31  1  0
  6 32  1  0
  7 33  1  0
  8 34  1  0
 11 35  1  0
 12 36  1  0
 13 37  1  0
 13 38  1  0
 15 39  1  0
 16 40  1  0
 17 41  1  0
 18 42  1  0
 19 43  1  0
 24 44  1  0
 25 45  1  0
M  END
$$$$
