
     RDKit          3D

 46 48  0  0  0  0  0  0  0  0999 V2000
   -2.0632    0.2791   -2.9410 C   0  0  0  0  0  0  0  0  0  0  0  0
   -2.1406   -0.2290   -1.5004 C   0  0  0  0  0  0  0  0  0  0  0  0
   -1.4402    0.6630   -0.4542 C   0  0  0  0  0  0  0  0  0  0  0  0
   -2.1672    2.3371   -0.3413 S   0  0  0  0  0  0  0  0  0  0  0  0
   -3.4260    2.0755    0.8071 C   0  0  0  0  0  0  0  0  0  0  0  0
   -3.8743    0.9348    1.2673 N   0  0  0  0  0  0  0  0  0  0  0  0
   -4.8689    1.2864    2.1540 C   0  0  0  0  0  0  0  0  0  0  0  0
   -5.7243    0.4721    2.9191 C   0  0  0  0  0  0  0  0  0  0  0  0
   -6.6614    1.0861    3.7619 C   0  0  0  0  0  0  0  0  0  0  0  0
   -6.7459    2.4801    3.8467 C   0  0  0  0  0  0  0  0  0  0  0  0
   -5.9116    3.3082    3.0844 C   0  0  0  0  0  0  0  0  0  0  0  0
   -4.9932    2.6712    2.2454 C   0  0  0  0  0  0  0  0  0  0  0  0
   -4.0591    3.1471    1.3627 N   0  0  0  0  0  0  0  0  0  0  0  0
    0.0765    0.7302   -0.7317 C   0  0  0  0  0  0  0  0  0  0  0  0
    0.6256    1.7070   -1.2412 O   0  0  0  0  0  0  0  0  0  0  0  0
    0.7180   -0.4546   -0.3817 N   0  0  0  0  0  0  0  0  0  0  0  0
    2.0772   -0.7869   -0.5409 C   0  0  0  0  0  0  0  0  0  0  0  0
    2.4730   -2.0618   -0.1283 C   0  0  0  0  0  0  0  0  0  0  0  0
    3.8019   -2.4800   -0.2685 C   0  0  0  0  0  0  0  0  0  0  0  0
    4.7605   -1.6324   -0.8278 C   0  0  0  0  0  0  0  0  0  0  0  0
    6.0670   -2.1369   -0.9604 N   0  0  0  0  0  0  0  0  0  0  0  0
    7.1804   -1.4813   -1.4550 C   0  0  0  0  0  0  0  0  0  0  0  0
    8.3925   -2.3782   -1.5142 C   0  0  0  0  0  0  0  0  0  0  0  0
    7.2447   -0.3157   -1.8320 O   0  0  0  0  0  0  0  0  0  0  0  0
    4.3671   -0.3598   -1.2338 C   0  0  0  0  0  0  0  0  0  0  0  0
    3.0375    0.0623   -1.0866 C   0  0  0  0  0  0  0  0  0  0  0  0
   -1.0237    0.4303   -3.2553 H   0  0  0  0  0  0  0  0  0  0  0  0
   -2.6082    1.2208   -3.0750 H   0  0  0  0  0  0  0  0  0  0  0  0
   -2.5141   -0.4451   -3.6330 H   0  0  0  0  0  0  0  0  0  0  0  0
   -1.6853   -1.2315   -1.4743 H   0  0  0  0  0  0  0  0  0  0  0  0
   -3.1950   -0.3724   -1.2334 H   0  0  0  0  0  0  0  0  0  0  0  0
   -1.5409    0.1807    0.5261 H   0  0  0  0  0  0  0  0  0  0  0  0
   -5.6633   -0.6108    2.8396 H   0  0  0  0  0  0  0  0  0  0  0  0
   -7.3312    0.4738    4.3558 H   0  0  0  0  0  0  0  0  0  0  0  0
   -7.4770    2.9299    4.5159 H   0  0  0  0  0  0  0  0  0  0  0  0
   -5.9766    4.3910    3.1481 H   0  0  0  0  0  0  0  0  0  0  0  0
   -3.8617    4.1114    1.1495 H   0  0  0  0  0  0  0  0  0  0  0  0
    0.1437   -1.1739    0.0412 H   0  0  0  0  0  0  0  0  0  0  0  0
    1.7588   -2.7554    0.3064 H   0  0  0  0  0  0  0  0  0  0  0  0
    4.0648   -3.4807    0.0647 H   0  0  0  0  0  0  0  0  0  0  0  0
    6.2128   -3.0717   -0.6088 H   0  0  0  0  0  0  0  0  0  0  0  0
    8.4591   -3.0081   -0.6227 H   0  0  0  0  0  0  0  0  0  0  0  0
    8.3295   -3.0036   -2.4043 H   0  0  0  0  0  0  0  0  0  0  0  0
    9.3001   -1.7680   -1.5632 H   0  0  0  0  0  0  0  0  0  0  0  0
    5.0719    0.3414   -1.6719 H   0  0  0  0  0  0  0  0  0  0  0  0
    2.7903    1.0654   -1.4153 H   0  0  0  0  0  0  0  0  0  0  0  0
  1  2  1  0
  2  3  1  0
  3  4  1  0
  4  5  1  0
  5  6  2  0
  6  7  1  0
  7  8  2  0
  8  9  1  0
  9 10  2  0
 10 11  1  0
 11 12  2  0
 12 13  1  0
  3 14  1  0
 14 15  2  0
 14 16  1  0
 16 17  1  0
 17 18  2  0
 18 19  1  0
 19 20  2  0
 20 21  1  0
 21 22  1  0
 22 23  1  0
 22 24  2  0
 20 25  1  0
 25 26  2  0
 13  5  1  0
 26 17  1  0
 12  7  1  0
  1 27  1  0
  1 28  1  0
  1 29  1  0
  2 30  1  0
  2 31  1  0
  3 32  1  0
  8 33  1  0
  9 34  1  0
 10 35  1  0
 11 36  1  0
 13 37  1  0
 16 38  1  0
 18 39  1  0
 19 40  1  0
 21 41  1  0
 23 42  1  0
 23 43  1  0
 23 44  1  0
 25 45  1  0
 26 46  1  0
M  END
$$$$
