
     RDKit          3D

 58 61  0  0  0  0  0  0  0  0999 V2000
    2.8366   -1.8219   -1.3669 O   0  0  0  0  0  0  0  0  0  0  0  0
    2.3945   -1.0244   -0.5442 C   0  0  0  0  0  0  0  0  0  0  0  0
    3.1564   -0.5042    0.4769 N   0  0  0  0  0  0  0  0  0  0  0  0
    4.5548   -0.8578    0.6368 C   0  0  0  0  0  0  0  0  0  0  0  0
    5.4581   -0.0945   -0.3347 C   0  0  0  0  0  0  0  0  0  0  0  0
    6.9119   -0.4491   -0.1424 C   0  0  0  0  0  0  0  0  0  0  0  0
    7.4472   -1.5864   -0.7643 C   0  0  0  0  0  0  0  0  0  0  0  0
    8.7874   -1.9305   -0.5763 C   0  0  0  0  0  0  0  0  0  0  0  0
    9.5966   -1.1406    0.2368 C   0  0  0  0  0  0  0  0  0  0  0  0
   11.2480   -1.5640    0.4701 Cl  0  0  0  0  0  0  0  0  0  0  0  0
    9.0769   -0.0103    0.8644 C   0  0  0  0  0  0  0  0  0  0  0  0
    7.7363    0.3342    0.6770 C   0  0  0  0  0  0  0  0  0  0  0  0
    0.9537   -0.5306   -0.6068 C   0  0  0  0  0  0  0  0  0  0  0  0
    0.1902   -0.8413    0.6819 C   0  0  0  0  0  0  0  0  0  0  0  0
   -1.2943   -0.4837    0.5648 C   0  0  0  0  0  0  0  0  0  0  0  0
   -1.5729    0.7107   -0.3718 C   0  0  0  0  0  0  0  0  0  0  0  0
   -2.8497    1.4663    0.0349 C   0  0  0  0  0  0  0  0  0  0  0  0
   -4.0112    0.5944   -0.0626 N   0  0  0  0  0  0  0  0  0  0  0  0
   -5.3155    0.9226    0.2850 C   0  0  0  0  0  0  0  0  0  0  0  0
   -5.5406    2.0386    1.0468 N   0  0  0  0  0  0  0  0  0  0  0  0
   -6.7625    2.4944    1.4644 C   0  0  0  0  0  0  0  0  0  0  0  0
   -6.7951    3.8815    2.4069 S   0  0  0  0  0  0  0  0  0  0  0  0
   -7.8805    1.8052    1.0915 N   0  0  0  0  0  0  0  0  0  0  0  0
   -7.7133    0.7383    0.3782 C   0  0  0  0  0  0  0  0  0  0  0  0
   -8.9198   -0.0297   -0.0408 C   0  0  0  0  0  0  0  0  0  0  0  0
   -8.8041   -1.1484   -0.7679 C   0  0  0  0  0  0  0  0  0  0  0  0
   -7.5221   -1.6702   -1.1716 C   0  0  0  0  0  0  0  0  0  0  0  0
   -6.3813   -1.0432   -0.8512 C   0  0  0  0  0  0  0  0  0  0  0  0
   -6.3927    0.1911   -0.0826 C   0  0  0  0  0  0  0  0  0  0  0  0
   -0.3684    1.6588   -0.4139 C   0  0  0  0  0  0  0  0  0  0  0  0
    0.8813    0.9627   -0.9626 C   0  0  0  0  0  0  0  0  0  0  0  0
    2.7718    0.2153    1.0740 H   0  0  0  0  0  0  0  0  0  0  0  0
    4.6590   -1.9397    0.4926 H   0  0  0  0  0  0  0  0  0  0  0  0
    4.8246   -0.6332    1.6748 H   0  0  0  0  0  0  0  0  0  0  0  0
    5.3194    0.9864   -0.2024 H   0  0  0  0  0  0  0  0  0  0  0  0
    5.1703   -0.2997   -1.3736 H   0  0  0  0  0  0  0  0  0  0  0  0
    6.8208   -2.2104   -1.4001 H   0  0  0  0  0  0  0  0  0  0  0  0
    9.1907   -2.8130   -1.0655 H   0  0  0  0  0  0  0  0  0  0  0  0
    9.7087    0.6052    1.4991 H   0  0  0  0  0  0  0  0  0  0  0  0
    7.3423    1.2186    1.1727 H   0  0  0  0  0  0  0  0  0  0  0  0
    0.4737   -1.0968   -1.4179 H   0  0  0  0  0  0  0  0  0  0  0  0
    0.2934   -1.9002    0.9487 H   0  0  0  0  0  0  0  0  0  0  0  0
    0.6206   -0.2774    1.5194 H   0  0  0  0  0  0  0  0  0  0  0  0
   -1.8461   -1.3557    0.1907 H   0  0  0  0  0  0  0  0  0  0  0  0
   -1.6808   -0.2902    1.5733 H   0  0  0  0  0  0  0  0  0  0  0  0
   -1.7209    0.3155   -1.3872 H   0  0  0  0  0  0  0  0  0  0  0  0
   -2.7404    1.8431    1.0588 H   0  0  0  0  0  0  0  0  0  0  0  0
   -2.9950    2.3286   -0.6265 H   0  0  0  0  0  0  0  0  0  0  0  0
   -3.9575   -0.0665   -0.8317 H   0  0  0  0  0  0  0  0  0  0  0  0
   -4.7512    2.5811    1.3598 H   0  0  0  0  0  0  0  0  0  0  0  0
   -9.8814    0.3610    0.2703 H   0  0  0  0  0  0  0  0  0  0  0  0
   -9.6907   -1.7000   -1.0670 H   0  0  0  0  0  0  0  0  0  0  0  0
   -7.5072   -2.5968   -1.7386 H   0  0  0  0  0  0  0  0  0  0  0  0
   -5.4372   -1.4775   -1.1570 H   0  0  0  0  0  0  0  0  0  0  0  0
   -0.5874    2.5377   -1.0319 H   0  0  0  0  0  0  0  0  0  0  0  0
   -0.1607    2.0329    0.5971 H   0  0  0  0  0  0  0  0  0  0  0  0
    0.8885    1.0516   -2.0570 H   0  0  0  0  0  0  0  0  0  0  0  0
    1.7670    1.5120   -0.6222 H   0  0  0  0  0  0  0  0  0  0  0  0
  1  2  2  0
  2  3  1  0
  3  4  1  0
  4  5  1  0
  5  6  1  0
  6  7  2  0
  7  8  1  0
  8  9  2  0
  9 10  1  0
  9 11  1  0
 11 12  2  0
  2 13  1  0
 13 14  1  0
 14 15  1  0
 15 16  1  0
 16 17  1  0
 17 18  1  0
 18 19  1  0
 19 20  1  0
 20 21  1  0
 21 22  2  0
 21 23  1  0
 23 24  2  0
 24 25  1  0
 25 26  2  0
 26 27  1  0
 27 28  2  0
 28 29  1  0
 16 30  1  0
 30 31  1  0
 12  6  1  0
 31 13  1  0
 29 19  2  0
 29 24  1  0
  3 32  1  0
  4 33  1  0
  4 34  1  0
  5 35  1  0
  5 36  1  0
  7 37  1  0
  8 38  1  0
 11 39  1  0
 12 40  1  0
 13 41  1  0
 14 42  1  0
 14 43  1  0
 15 44  1  0
 15 45  1  0
 16 46  1  0
 17 47  1  0
 17 48  1  0
 18 49  1  0
 20 50  1  0
 25 51  1  0
 26 52  1  0
 27 53  1  0
 28 54  1  0
 30 55  1  0
 30 56  1  0
 31 57  1  0
 31 58  1  0
M  END
$$$$
