
     RDKit          3D

 48 50  0  0  0  0  0  0  0  0999 V2000
   -1.0272    0.3520   -1.7250 O   0  0  0  0  0  0  0  0  0  0  0  0
   -1.1861   -0.0299   -0.5615 C   0  0  0  0  0  0  0  0  0  0  0  0
   -0.2441    0.4287    0.5548 C   0  0  0  0  0  0  0  0  0  0  0  0
    1.0794    0.8078   -0.0161 N   0  0  0  0  0  0  0  0  0  0  0  0
    1.4510    2.1824    0.1506 C   0  0  0  0  0  0  0  0  0  0  0  0
    1.0393    3.0857   -0.8275 C   0  0  0  0  0  0  0  0  0  0  0  0
    1.3052    4.4467   -0.6782 C   0  0  0  0  0  0  0  0  0  0  0  0
    1.9626    4.9146    0.4639 C   0  0  0  0  0  0  0  0  0  0  0  0
    2.2504    6.6127    0.5758 Cl  0  0  0  0  0  0  0  0  0  0  0  0
    2.3520    4.0256    1.4740 C   0  0  0  0  0  0  0  0  0  0  0  0
    3.0418    4.5073    2.7214 C   0  0  0  0  0  0  0  0  0  0  0  0
    2.2850    5.3842    3.4378 F   0  0  0  0  0  0  0  0  0  0  0  0
    4.2261    5.1298    2.4751 F   0  0  0  0  0  0  0  0  0  0  0  0
    3.3366    3.4986    3.5922 F   0  0  0  0  0  0  0  0  0  0  0  0
    2.0758    2.6529    1.3091 C   0  0  0  0  0  0  0  0  0  0  0  0
    2.3300   -0.3345    0.1690 S   0  0  0  0  0  6  0  0  0  0  0  0
    3.5012    0.1141   -0.5534 O   0  0  0  0  0  0  0  0  0  0  0  0
    2.4060   -0.6603    1.5808 O   0  0  0  0  0  0  0  0  0  0  0  0
    1.6991   -1.7598   -0.6837 C   0  0  0  0  0  0  0  0  0  0  0  0
    1.5098   -1.6933   -2.0667 C   0  0  0  0  0  0  0  0  0  0  0  0
    0.9988   -2.8008   -2.7420 C   0  0  0  0  0  0  0  0  0  0  0  0
    0.6906   -3.9669   -2.0391 C   0  0  0  0  0  0  0  0  0  0  0  0
    0.8948   -4.0325   -0.6595 C   0  0  0  0  0  0  0  0  0  0  0  0
    1.4035   -2.9285    0.0245 C   0  0  0  0  0  0  0  0  0  0  0  0
   -2.2507   -0.8619   -0.2159 N   0  0  0  0  0  0  0  0  0  0  0  0
   -2.9465   -1.5438   -1.3138 C   0  0  0  0  0  0  0  0  0  0  0  0
   -4.3658   -1.9641   -0.9298 C   0  0  0  0  0  0  0  0  0  0  0  0
   -4.3648   -2.7264    0.2853 O   0  0  0  0  0  0  0  0  0  0  0  0
   -3.8507   -1.9352    1.3621 C   0  0  0  0  0  0  0  0  0  0  0  0
   -2.4048   -1.5034    1.0950 C   0  0  0  0  0  0  0  0  0  0  0  0
   -0.1078   -0.3609    1.2968 H   0  0  0  0  0  0  0  0  0  0  0  0
   -0.7189    1.2753    1.0642 H   0  0  0  0  0  0  0  0  0  0  0  0
    0.5224    2.7294   -1.7168 H   0  0  0  0  0  0  0  0  0  0  0  0
    0.9946    5.1378   -1.4589 H   0  0  0  0  0  0  0  0  0  0  0  0
    2.3591    1.9536    2.0951 H   0  0  0  0  0  0  0  0  0  0  0  0
    1.7421   -0.7822   -2.6148 H   0  0  0  0  0  0  0  0  0  0  0  0
    0.8404   -2.7539   -3.8169 H   0  0  0  0  0  0  0  0  0  0  0  0
    0.2964   -4.8301   -2.5707 H   0  0  0  0  0  0  0  0  0  0  0  0
    0.6636   -4.9486   -0.1208 H   0  0  0  0  0  0  0  0  0  0  0  0
    1.5707   -2.9915    1.0972 H   0  0  0  0  0  0  0  0  0  0  0  0
   -2.9758   -0.9129   -2.2080 H   0  0  0  0  0  0  0  0  0  0  0  0
   -2.3487   -2.4328   -1.5492 H   0  0  0  0  0  0  0  0  0  0  0  0
   -4.7972   -2.5893   -1.7177 H   0  0  0  0  0  0  0  0  0  0  0  0
   -5.0151   -1.0896   -0.8033 H   0  0  0  0  0  0  0  0  0  0  0  0
   -3.8971   -2.5372    2.2750 H   0  0  0  0  0  0  0  0  0  0  0  0
   -4.4992   -1.0626    1.5055 H   0  0  0  0  0  0  0  0  0  0  0  0
   -2.0824   -0.8275    1.8913 H   0  0  0  0  0  0  0  0  0  0  0  0
   -1.7453   -2.3789    1.0928 H   0  0  0  0  0  0  0  0  0  0  0  0
  1  2  2  0
  2  3  1  0
  3  4  1  0
  4  5  1  0
  5  6  2  0
  6  7  1  0
  7  8  2  0
  8  9  1  0
  8 10  1  0
 10 11  1  0
 11 12  1  0
 11 13  1  0
 11 14  1  0
 10 15  2  0
  4 16  1  0
 16 17  2  0
 16 18  2  0
 16 19  1  0
 19 20  2  0
 20 21  1  0
 21 22  2  0
 22 23  1  0
 23 24  2  0
  2 25  1  0
 25 26  1  0
 26 27  1  0
 27 28  1  0
 28 29  1  0
 29 30  1  0
 15  5  1  0
 24 19  1  0
 30 25  1  0
  3 31  1  0
  3 32  1  0
  6 33  1  0
  7 34  1  0
 15 35  1  0
 20 36  1  0
 21 37  1  0
 22 38  1  0
 23 39  1  0
 24 40  1  0
 26 41  1  0
 26 42  1  0
 27 43  1  0
 27 44  1  0
 29 45  1  0
 29 46  1  0
 30 47  1  0
 30 48  1  0
M  END
$$$$
