
     RDKit          3D

 47 50  0  0  0  0  0  0  0  0999 V2000
    5.9383    2.2490   -3.0013 C   0  0  0  0  0  0  0  0  0  0  0  0
    4.8031    1.6338   -2.2220 C   0  0  0  0  0  0  0  0  0  0  0  0
    3.6865    2.1397   -2.2274 O   0  0  0  0  0  0  0  0  0  0  0  0
    5.1999    0.4973   -1.5397 N   0  0  0  0  0  0  0  0  0  0  0  0
    4.4121   -0.3227   -0.7041 C   0  0  0  0  0  0  0  0  0  0  0  0
    5.0300   -1.4443   -0.1427 C   0  0  0  0  0  0  0  0  0  0  0  0
    4.3123   -2.3036    0.6897 C   0  0  0  0  0  0  0  0  0  0  0  0
    2.9691   -2.0499    0.9720 C   0  0  0  0  0  0  0  0  0  0  0  0
    2.3370   -0.9337    0.4268 C   0  0  0  0  0  0  0  0  0  0  0  0
    0.9851   -0.6016    0.6592 N   0  0  0  0  0  0  0  0  0  0  0  0
    0.0816   -1.2761    1.4567 C   0  0  0  0  0  0  0  0  0  0  0  0
    0.2762   -2.2735    2.1365 O   0  0  0  0  0  0  0  0  0  0  0  0
   -1.2746   -0.6777    1.4558 C   0  0  0  0  0  0  0  0  0  0  0  0
   -1.9383   -0.5899    0.2287 C   0  0  0  0  0  0  0  0  0  0  0  0
   -3.2087   -0.0403    0.2003 C   0  0  0  0  0  0  0  0  0  0  0  0
   -4.0029    0.1055   -1.0331 C   0  0  0  0  0  0  0  0  0  0  0  0
   -3.4325    0.2160   -2.3111 C   0  0  0  0  0  0  0  0  0  0  0  0
   -4.2388    0.3487   -3.4431 C   0  0  0  0  0  0  0  0  0  0  0  0
   -5.6110    0.3710   -3.2752 C   0  0  0  0  0  0  0  0  0  0  0  0
   -6.2128    0.2752   -2.0746 N   0  0  0  0  0  0  0  0  0  0  0  0
   -5.3996    0.1515   -0.9932 C   0  0  0  0  0  0  0  0  0  0  0  0
   -3.8057    0.3969    1.3363 N   0  0  0  0  0  0  0  0  0  0  0  0
   -3.1725    0.3021    2.5174 C   0  0  0  0  0  0  0  0  0  0  0  0
   -3.8267    0.7635    3.6525 C   0  0  0  0  0  0  0  0  0  0  0  0
   -3.2381    0.7096    4.9188 C   0  0  0  0  0  0  0  0  0  0  0  0
   -1.9633    0.1813    5.0553 C   0  0  0  0  0  0  0  0  0  0  0  0
   -1.2243    0.1123    6.6055 Cl  0  0  0  0  0  0  0  0  0  0  0  0
   -1.2829   -0.2890    3.9357 C   0  0  0  0  0  0  0  0  0  0  0  0
   -1.8808   -0.2366    2.6501 C   0  0  0  0  0  0  0  0  0  0  0  0
    3.0674   -0.0761   -0.4114 C   0  0  0  0  0  0  0  0  0  0  0  0
    5.5472    3.0192   -3.6722 H   0  0  0  0  0  0  0  0  0  0  0  0
    6.4404    1.4883   -3.6059 H   0  0  0  0  0  0  0  0  0  0  0  0
    6.6521    2.7055   -2.3103 H   0  0  0  0  0  0  0  0  0  0  0  0
    6.1648    0.2127   -1.6554 H   0  0  0  0  0  0  0  0  0  0  0  0
    6.0739   -1.6695   -0.3439 H   0  0  0  0  0  0  0  0  0  0  0  0
    4.7968   -3.1757    1.1221 H   0  0  0  0  0  0  0  0  0  0  0  0
    2.4456   -2.7436    1.6226 H   0  0  0  0  0  0  0  0  0  0  0  0
    0.6650    0.2508    0.2135 H   0  0  0  0  0  0  0  0  0  0  0  0
   -1.4730   -0.9812   -0.6701 H   0  0  0  0  0  0  0  0  0  0  0  0
   -2.3546    0.2187   -2.4484 H   0  0  0  0  0  0  0  0  0  0  0  0
   -3.8031    0.4378   -4.4322 H   0  0  0  0  0  0  0  0  0  0  0  0
   -6.2805    0.4727   -4.1243 H   0  0  0  0  0  0  0  0  0  0  0  0
   -5.9327    0.0809   -0.0467 H   0  0  0  0  0  0  0  0  0  0  0  0
   -4.8270    1.1800    3.5496 H   0  0  0  0  0  0  0  0  0  0  0  0
   -3.7821    1.0805    5.7833 H   0  0  0  0  0  0  0  0  0  0  0  0
   -0.2854   -0.7058    4.0647 H   0  0  0  0  0  0  0  0  0  0  0  0
    2.5678    0.7906   -0.8300 H   0  0  0  0  0  0  0  0  0  0  0  0
  1  2  1  0
  2  3  2  0
  2  4  1  0
  4  5  1  0
  5  6  2  0
  6  7  1  0
  7  8  2  0
  8  9  1  0
  9 10  1  0
 10 11  1  0
 11 12  2  0
 11 13  1  0
 13 14  2  0
 14 15  1  0
 15 16  1  0
 16 17  2  0
 17 18  1  0
 18 19  2  0
 19 20  1  0
 20 21  2  0
 15 22  2  0
 22 23  1  0
 23 24  2  0
 24 25  1  0
 25 26  2  0
 26 27  1  0
 26 28  1  0
 28 29  2  0
  9 30  2  0
 30  5  1  0
 29 13  1  0
 21 16  1  0
 29 23  1  0
  1 31  1  0
  1 32  1  0
  1 33  1  0
  4 34  1  0
  6 35  1  0
  7 36  1  0
  8 37  1  0
 10 38  1  0
 14 39  1  0
 17 40  1  0
 18 41  1  0
 19 42  1  0
 21 43  1  0
 24 44  1  0
 25 45  1  0
 28 46  1  0
 30 47  1  0
M  END
$$$$
