
     RDKit          3D

 58 60  0  0  0  0  0  0  0  0999 V2000
   -4.1724    3.5459   -0.7198 C   0  0  0  0  0  0  0  0  0  0  0  0
   -3.4758    2.5617   -1.4724 O   0  0  0  0  0  0  0  0  0  0  0  0
   -3.5479    1.2606   -1.0472 C   0  0  0  0  0  0  0  0  0  0  0  0
   -4.3163    0.8236    0.0394 C   0  0  0  0  0  0  0  0  0  0  0  0
   -4.3205   -0.5288    0.3967 C   0  0  0  0  0  0  0  0  0  0  0  0
   -5.0783   -1.0226    1.4301 O   0  0  0  0  0  0  0  0  0  0  0  0
   -4.9272   -0.2814    2.6418 C   0  0  0  0  0  0  0  0  0  0  0  0
   -3.5868   -1.4572   -0.3537 C   0  0  0  0  0  0  0  0  0  0  0  0
   -3.5573   -2.8327    0.0433 N   0  0  0  0  0  0  0  0  0  0  0  0
   -2.3502   -3.2693    1.1573 S   0  0  0  0  0  6  0  0  0  0  0  0
   -2.7163   -4.5759    1.6619 O   0  0  0  0  0  0  0  0  0  0  0  0
   -2.0870   -2.1674    2.0555 O   0  0  0  0  0  0  0  0  0  0  0  0
   -0.9345   -3.4958    0.1072 C   0  0  0  0  0  0  0  0  0  0  0  0
   -0.8047   -4.6783   -0.6268 C   0  0  0  0  0  0  0  0  0  0  0  0
    0.3077   -4.8581   -1.4534 C   0  0  0  0  0  0  0  0  0  0  0  0
    1.2902   -3.8647   -1.5444 C   0  0  0  0  0  0  0  0  0  0  0  0
    2.6058   -4.1352   -2.6281 Cl  0  0  0  0  0  0  0  0  0  0  0  0
    1.1564   -2.6903   -0.7966 C   0  0  0  0  0  0  0  0  0  0  0  0
    2.1728   -1.6278   -0.8499 C   0  0  0  0  0  0  0  0  0  0  0  0
    3.3509   -1.7744   -0.5805 O   0  0  0  0  0  0  0  0  0  0  0  0
    1.5574   -0.4840   -1.2380 O   0  0  0  0  0  0  0  0  0  0  0  0
    2.3929    0.6789   -1.1516 C   0  0  0  0  0  0  0  0  0  0  0  0
    1.6724    1.8117   -1.8713 C   0  0  0  0  0  0  0  0  0  0  0  0
    2.6162    1.0786    0.3213 C   0  0  0  0  0  0  0  0  0  0  0  0
    1.7974    0.7707    1.1930 O   0  0  0  0  0  0  0  0  0  0  0  0
    3.7460    1.8127    0.6179 N   0  0  0  0  0  0  0  0  0  0  0  0
    4.8605    2.1043   -0.2695 C   0  0  0  0  0  0  0  0  0  0  0  0
    5.7461    3.0412    0.5387 C   0  0  0  0  0  0  0  0  0  0  0  0
    5.5265    2.5618    1.9676 C   0  0  0  0  0  0  0  0  0  0  0  0
    4.0473    2.2006    1.9857 C   0  0  0  0  0  0  0  0  0  0  0  0
    0.0482   -2.5049    0.0434 C   0  0  0  0  0  0  0  0  0  0  0  0
   -2.8184   -1.0358   -1.4332 C   0  0  0  0  0  0  0  0  0  0  0  0
   -2.8013    0.3174   -1.7774 C   0  0  0  0  0  0  0  0  0  0  0  0
   -1.8408    0.7854   -3.1383 Cl  0  0  0  0  0  0  0  0  0  0  0  0
   -3.9760    4.5196   -1.1794 H   0  0  0  0  0  0  0  0  0  0  0  0
   -5.2533    3.3744   -0.7542 H   0  0  0  0  0  0  0  0  0  0  0  0
   -3.8095    3.5853    0.3127 H   0  0  0  0  0  0  0  0  0  0  0  0
   -4.9292    1.5156    0.6045 H   0  0  0  0  0  0  0  0  0  0  0  0
   -3.8848    0.0023    2.8223 H   0  0  0  0  0  0  0  0  0  0  0  0
   -5.2488   -0.9240    3.4669 H   0  0  0  0  0  0  0  0  0  0  0  0
   -5.5741    0.6018    2.6315 H   0  0  0  0  0  0  0  0  0  0  0  0
   -4.4521   -3.1688    0.4099 H   0  0  0  0  0  0  0  0  0  0  0  0
   -1.5624   -5.4575   -0.5622 H   0  0  0  0  0  0  0  0  0  0  0  0
    0.4014   -5.7767   -2.0296 H   0  0  0  0  0  0  0  0  0  0  0  0
    3.3431    0.4774   -1.6580 H   0  0  0  0  0  0  0  0  0  0  0  0
    0.6993    2.0106   -1.4076 H   0  0  0  0  0  0  0  0  0  0  0  0
    2.2489    2.7408   -1.8522 H   0  0  0  0  0  0  0  0  0  0  0  0
    1.4793    1.5408   -2.9143 H   0  0  0  0  0  0  0  0  0  0  0  0
    5.3738    1.1615   -0.4876 H   0  0  0  0  0  0  0  0  0  0  0  0
    4.5194    2.5515   -1.2057 H   0  0  0  0  0  0  0  0  0  0  0  0
    5.3937    4.0747    0.4362 H   0  0  0  0  0  0  0  0  0  0  0  0
    6.7944    3.0023    0.2297 H   0  0  0  0  0  0  0  0  0  0  0  0
    5.7865    3.3137    2.7176 H   0  0  0  0  0  0  0  0  0  0  0  0
    6.1329    1.6669    2.1540 H   0  0  0  0  0  0  0  0  0  0  0  0
    3.4260    3.0692    2.2289 H   0  0  0  0  0  0  0  0  0  0  0  0
    3.8210    1.3932    2.6885 H   0  0  0  0  0  0  0  0  0  0  0  0
   -0.0399   -1.5929    0.6346 H   0  0  0  0  0  0  0  0  0  0  0  0
   -2.2487   -1.7524   -2.0172 H   0  0  0  0  0  0  0  0  0  0  0  0
  1  2  1  0
  2  3  1  0
  3  4  2  0
  4  5  1  0
  5  6  1  0
  6  7  1  0
  5  8  2  0
  8  9  1  0
  9 10  1  0
 10 11  2  0
 10 12  2  0
 10 13  1  0
 13 14  2  0
 14 15  1  0
 15 16  2  0
 16 17  1  0
 16 18  1  0
 18 19  1  0
 19 20  2  0
 19 21  1  0
 21 22  1  0
 22 23  1  0
 22 24  1  0
 24 25  2  0
 24 26  1  0
 26 27  1  0
 27 28  1  0
 28 29  1  0
 29 30  1  0
 18 31  2  0
  8 32  1  0
 32 33  2  0
 33 34  1  0
 33  3  1  0
 31 13  1  0
 30 26  1  0
  1 35  1  0
  1 36  1  0
  1 37  1  0
  4 38  1  0
  7 39  1  0
  7 40  1  0
  7 41  1  0
  9 42  1  0
 14 43  1  0
 15 44  1  0
 22 45  1  0
 23 46  1  0
 23 47  1  0
 23 48  1  0
 27 49  1  0
 27 50  1  0
 28 51  1  0
 28 52  1  0
 29 53  1  0
 29 54  1  0
 30 55  1  0
 30 56  1  0
 31 57  1  0
 32 58  1  0
M  END
$$$$
