
     RDKit          3D

 38 40  0  0  0  0  0  0  0  0999 V2000
   -7.2390   -0.7665    1.1694 C   0  0  0  0  0  0  0  0  0  0  0  0
   -6.7183   -0.3499   -0.0867 O   0  0  0  0  0  0  0  0  0  0  0  0
   -5.3642   -0.1826   -0.1663 C   0  0  0  0  0  0  0  0  0  0  0  0
   -4.4480   -0.3829    0.8620 C   0  0  0  0  0  0  0  0  0  0  0  0
   -3.0776   -0.1732    0.6423 C   0  0  0  0  0  0  0  0  0  0  0  0
   -2.5904    0.2362   -0.6030 C   0  0  0  0  0  0  0  0  0  0  0  0
   -1.2326    0.4714   -0.8857 N   0  0  0  0  0  0  0  0  0  0  0  0
   -0.1562    0.4050   -0.0664 C   0  0  0  0  0  0  0  0  0  0  0  0
   -0.1352    0.1488    1.2223 N   0  0  0  0  0  0  0  0  0  0  0  0
    1.1451    0.1759    1.6942 C   0  0  0  0  0  0  0  0  0  0  0  0
    1.3288   -0.0534    3.0033 N   0  0  0  0  0  0  0  0  0  0  0  0
    2.1382    0.4317    0.7769 C   0  0  0  0  0  0  0  0  0  0  0  0
    3.5609    0.5568    1.0090 C   0  0  0  0  0  0  0  0  0  0  0  0
    4.0339    0.9220    2.0866 O   0  0  0  0  0  0  0  0  0  0  0  0
    4.5364    0.2320   -0.0665 C   0  0  0  0  0  0  0  0  0  0  0  0
    4.4065   -0.9293   -0.8429 C   0  0  0  0  0  0  0  0  0  0  0  0
    5.3530   -1.2124   -1.8301 C   0  0  0  0  0  0  0  0  0  0  0  0
    6.4248   -0.3466   -2.0249 C   0  0  0  0  0  0  0  0  0  0  0  0
    7.3300   -0.6230   -2.9720 F   0  0  0  0  0  0  0  0  0  0  0  0
    6.5760    0.7960   -1.2462 C   0  0  0  0  0  0  0  0  0  0  0  0
    5.6336    1.0847   -0.2578 C   0  0  0  0  0  0  0  0  0  0  0  0
    1.4089    0.7003   -0.7499 S   0  0  0  0  0  0  0  0  0  0  0  0
   -3.5292    0.4363   -1.6274 C   0  0  0  0  0  0  0  0  0  0  0  0
   -4.8963    0.2287   -1.4123 C   0  0  0  0  0  0  0  0  0  0  0  0
   -8.3253   -0.8523    1.0689 H   0  0  0  0  0  0  0  0  0  0  0  0
   -6.8520   -1.7517    1.4502 H   0  0  0  0  0  0  0  0  0  0  0  0
   -7.0345   -0.0239    1.9478 H   0  0  0  0  0  0  0  0  0  0  0  0
   -4.7562   -0.7024    1.8517 H   0  0  0  0  0  0  0  0  0  0  0  0
   -2.4037   -0.3457    1.4764 H   0  0  0  0  0  0  0  0  0  0  0  0
   -1.0484    0.7081   -1.8518 H   0  0  0  0  0  0  0  0  0  0  0  0
    0.5144    0.0415    3.6013 H   0  0  0  0  0  0  0  0  0  0  0  0
    2.1861    0.2808    3.4429 H   0  0  0  0  0  0  0  0  0  0  0  0
    3.5879   -1.6262   -0.6784 H   0  0  0  0  0  0  0  0  0  0  0  0
    5.2679   -2.1056   -2.4417 H   0  0  0  0  0  0  0  0  0  0  0  0
    7.4280    1.4490   -1.4088 H   0  0  0  0  0  0  0  0  0  0  0  0
    5.7558    1.9704    0.3629 H   0  0  0  0  0  0  0  0  0  0  0  0
   -3.2089    0.7607   -2.6142 H   0  0  0  0  0  0  0  0  0  0  0  0
   -5.6001    0.3912   -2.2247 H   0  0  0  0  0  0  0  0  0  0  0  0
  1  2  1  0
  2  3  1  0
  3  4  2  0
  4  5  1  0
  5  6  2  0
  6  7  1  0
  7  8  1  0
  8  9  2  0
  9 10  1  0
 10 11  1  0
 10 12  2  0
 12 13  1  0
 13 14  2  0
 13 15  1  0
 15 16  2  0
 16 17  1  0
 17 18  2  0
 18 19  1  0
 18 20  1  0
 20 21  2  0
 12 22  1  0
  6 23  1  0
 23 24  2  0
 24  3  1  0
 22  8  1  0
 21 15  1  0
  1 25  1  0
  1 26  1  0
  1 27  1  0
  4 28  1  0
  5 29  1  0
  7 30  1  0
 11 31  1  0
 11 32  1  0
 16 33  1  0
 17 34  1  0
 20 35  1  0
 21 36  1  0
 23 37  1  0
 24 38  1  0
M  END
$$$$
