
     RDKit          3D

 44 46  0  0  0  0  0  0  0  0999 V2000
    0.9778   -2.0661    0.4161 C   0  0  0  0  0  0  0  0  0  0  0  0
    1.1581   -0.6440   -0.0775 C   0  0  0  0  0  0  0  0  0  0  0  0
    2.3169   -0.1094   -0.3174 N   0  0  0  0  0  0  0  0  0  0  0  0
    3.5309   -0.8803   -0.0518 C   0  0  0  0  0  0  0  0  0  0  0  0
    4.7460   -0.0209   -0.2586 C   0  0  0  0  0  0  0  0  0  0  0  0
    5.2705    0.2060   -1.5341 C   0  0  0  0  0  0  0  0  0  0  0  0
    6.3865    1.0238   -1.6860 C   0  0  0  0  0  0  0  0  0  0  0  0
    6.9400    1.5954   -0.5525 C   0  0  0  0  0  0  0  0  0  0  0  0
    6.4567    1.4096    0.6941 N   0  0  0  0  0  0  0  0  0  0  0  0
    5.3678    0.6153    0.8107 C   0  0  0  0  0  0  0  0  0  0  0  0
   -0.0717    0.1790   -0.3185 C   0  0  0  0  0  0  0  0  0  0  0  0
   -0.0391    1.1716   -1.2179 C   0  0  0  0  0  0  0  0  0  0  0  0
    1.0629    1.5676   -1.9305 O   0  0  0  0  0  0  0  0  0  0  0  0
   -1.1403    1.8989   -1.5071 N   0  0  0  0  0  0  0  0  0  0  0  0
   -2.3890    1.6725   -0.9975 C   0  0  0  0  0  0  0  0  0  0  0  0
   -3.3142    2.3796   -1.3953 O   0  0  0  0  0  0  0  0  0  0  0  0
   -2.4840    0.6220   -0.0811 N   0  0  0  0  0  0  0  0  0  0  0  0
   -3.7553    0.3432    0.5339 C   0  0  0  0  0  0  0  0  0  0  0  0
   -4.5351    1.4104    1.0188 C   0  0  0  0  0  0  0  0  0  0  0  0
   -5.7518    1.1856    1.6653 C   0  0  0  0  0  0  0  0  0  0  0  0
   -6.2142   -0.1120    1.8384 C   0  0  0  0  0  0  0  0  0  0  0  0
   -5.4699   -1.1826    1.3476 C   0  0  0  0  0  0  0  0  0  0  0  0
   -4.2507   -0.9743    0.6737 C   0  0  0  0  0  0  0  0  0  0  0  0
   -3.5607   -2.1900    0.1142 C   0  0  0  0  0  0  0  0  0  0  0  0
   -1.3510   -0.0298    0.4143 C   0  0  0  0  0  0  0  0  0  0  0  0
   -1.3254   -0.7122    1.4405 O   0  0  0  0  0  0  0  0  0  0  0  0
    1.1547   -2.1004    1.4945 H   0  0  0  0  0  0  0  0  0  0  0  0
    1.6759   -2.7409   -0.0856 H   0  0  0  0  0  0  0  0  0  0  0  0
   -0.0257   -2.4402    0.1981 H   0  0  0  0  0  0  0  0  0  0  0  0
    3.5336   -1.2700    0.9738 H   0  0  0  0  0  0  0  0  0  0  0  0
    3.5977   -1.7389   -0.7314 H   0  0  0  0  0  0  0  0  0  0  0  0
    4.8112   -0.2475   -2.4085 H   0  0  0  0  0  0  0  0  0  0  0  0
    6.8121    1.2140   -2.6647 H   0  0  0  0  0  0  0  0  0  0  0  0
    7.8111    2.2406   -0.6195 H   0  0  0  0  0  0  0  0  0  0  0  0
    4.9970    0.5040    1.8263 H   0  0  0  0  0  0  0  0  0  0  0  0
    1.8470    1.1313   -1.5208 H   0  0  0  0  0  0  0  0  0  0  0  0
   -1.0586    2.6398   -2.1930 H   0  0  0  0  0  0  0  0  0  0  0  0
   -4.1914    2.4387    0.9266 H   0  0  0  0  0  0  0  0  0  0  0  0
   -6.3302    2.0264    2.0393 H   0  0  0  0  0  0  0  0  0  0  0  0
   -7.1573   -0.2918    2.3478 H   0  0  0  0  0  0  0  0  0  0  0  0
   -5.8555   -2.1920    1.4791 H   0  0  0  0  0  0  0  0  0  0  0  0
   -2.9274   -2.6556    0.8747 H   0  0  0  0  0  0  0  0  0  0  0  0
   -4.2975   -2.9307   -0.2175 H   0  0  0  0  0  0  0  0  0  0  0  0
   -2.9587   -1.9459   -0.7661 H   0  0  0  0  0  0  0  0  0  0  0  0
  1  2  1  0
  2  3  2  3
  3  4  1  0
  4  5  1  0
  5  6  2  0
  6  7  1  0
  7  8  2  0
  8  9  1  0
  9 10  2  0
  2 11  1  0
 11 12  2  0
 12 13  1  0
 12 14  1  0
 14 15  1  0
 15 16  2  0
 15 17  1  0
 17 18  1  0
 18 19  2  0
 19 20  1  0
 20 21  2  0
 21 22  1  0
 22 23  2  0
 23 24  1  0
 17 25  1  0
 25 26  2  0
 10  5  1  0
 25 11  1  0
 23 18  1  0
  1 27  1  0
  1 28  1  0
  1 29  1  0
  4 30  1  0
  4 31  1  0
  6 32  1  0
  7 33  1  0
  8 34  1  0
 10 35  1  0
 13 36  1  0
 14 37  1  0
 19 38  1  0
 20 39  1  0
 21 40  1  0
 22 41  1  0
 24 42  1  0
 24 43  1  0
 24 44  1  0
M  END
$$$$
