
     RDKit          3D

 60 64  0  0  0  0  0  0  0  0999 V2000
   -6.9236   -2.4230    3.5985 C   0  0  0  0  0  0  0  0  0  0  0  0
   -5.6972   -2.0475    2.8229 C   0  0  0  0  0  0  0  0  0  0  0  0
   -5.6486   -0.8650    2.0795 C   0  0  0  0  0  0  0  0  0  0  0  0
   -4.4917   -0.5156    1.3704 C   0  0  0  0  0  0  0  0  0  0  0  0
   -3.3534   -1.3261    1.3922 C   0  0  0  0  0  0  0  0  0  0  0  0
   -2.1609   -1.0176    0.7290 N   0  0  0  0  0  0  0  0  0  0  0  0
   -1.7129    0.0795   -0.0044 C   0  0  0  0  0  0  0  0  0  0  0  0
   -0.5152   -0.0727   -0.5481 N   0  0  0  0  0  0  0  0  0  0  0  0
   -0.0721    0.9786   -1.2281 C   0  0  0  0  0  0  0  0  0  0  0  0
    1.1496    0.9099   -1.8840 O   0  0  0  0  0  0  0  0  0  0  0  0
    1.9251   -0.1699   -1.5449 C   0  0  0  0  0  0  0  0  0  0  0  0
    1.9310   -1.2900   -2.3569 C   0  0  0  0  0  0  0  0  0  0  0  0
    2.7592   -2.3474   -2.0008 C   0  0  0  0  0  0  0  0  0  0  0  0
    3.5517   -2.2109   -0.8750 C   0  0  0  0  0  0  0  0  0  0  0  0
    4.3339   -3.2942   -0.5358 O   0  0  0  0  0  0  0  0  0  0  0  0
    5.3154   -3.0273    0.4679 C   0  0  0  0  0  0  0  0  0  0  0  0
    6.5921   -2.5109   -0.1505 C   0  0  0  0  0  0  0  0  0  0  0  0
    6.9766   -1.1732    0.0169 C   0  0  0  0  0  0  0  0  0  0  0  0
    8.1556   -0.6995   -0.5607 C   0  0  0  0  0  0  0  0  0  0  0  0
    8.9564   -1.5544   -1.3159 C   0  0  0  0  0  0  0  0  0  0  0  0
    8.5785   -2.8837   -1.4979 C   0  0  0  0  0  0  0  0  0  0  0  0
    7.3995   -3.3599   -0.9205 C   0  0  0  0  0  0  0  0  0  0  0  0
    3.5361   -1.0938   -0.1142 N   0  0  0  0  0  0  0  0  0  0  0  0
    2.7209   -0.0517   -0.4586 N   0  0  0  0  0  0  0  0  0  0  0  0
   -0.7328    2.1118   -1.4205 N   0  0  0  0  0  0  0  0  0  0  0  0
   -1.9213    2.1861   -0.8369 C   0  0  0  0  0  0  0  0  0  0  0  0
   -2.6665    3.3323   -1.0042 N   0  0  0  0  0  0  0  0  0  0  0  0
   -2.0488    4.4877   -1.6548 C   0  0  0  0  0  0  0  0  0  0  0  0
   -3.1112    5.5754   -1.8782 C   0  0  0  0  0  0  0  0  0  0  0  0
   -3.7469    6.0318   -0.6722 O   0  0  0  0  0  0  0  0  0  0  0  0
   -3.7363    5.0618    0.3854 C   0  0  0  0  0  0  0  0  0  0  0  0
   -3.7928    3.6051   -0.1048 C   0  0  0  0  0  0  0  0  0  0  0  0
   -2.4368    1.1859   -0.1288 N   0  0  0  0  0  0  0  0  0  0  0  0
   -3.4121   -2.5070    2.1515 C   0  0  0  0  0  0  0  0  0  0  0  0
   -4.5666   -2.8674    2.8552 C   0  0  0  0  0  0  0  0  0  0  0  0
   -7.7603   -1.7516    3.3735 H   0  0  0  0  0  0  0  0  0  0  0  0
   -7.2371   -3.4415    3.3442 H   0  0  0  0  0  0  0  0  0  0  0  0
   -6.7198   -2.3653    4.6745 H   0  0  0  0  0  0  0  0  0  0  0  0
   -6.5096   -0.1973    2.0428 H   0  0  0  0  0  0  0  0  0  0  0  0
   -4.5112    0.4077    0.7951 H   0  0  0  0  0  0  0  0  0  0  0  0
   -1.4435   -1.7293    0.7355 H   0  0  0  0  0  0  0  0  0  0  0  0
    1.2959   -1.3458   -3.2336 H   0  0  0  0  0  0  0  0  0  0  0  0
    2.7893   -3.2584   -2.5882 H   0  0  0  0  0  0  0  0  0  0  0  0
    5.5385   -3.9855    0.9545 H   0  0  0  0  0  0  0  0  0  0  0  0
    4.9470   -2.3830    1.2771 H   0  0  0  0  0  0  0  0  0  0  0  0
    6.3548   -0.4898    0.5922 H   0  0  0  0  0  0  0  0  0  0  0  0
    8.4464    0.3391   -0.4245 H   0  0  0  0  0  0  0  0  0  0  0  0
    9.8724   -1.1830   -1.7675 H   0  0  0  0  0  0  0  0  0  0  0  0
    9.1989   -3.5492   -2.0919 H   0  0  0  0  0  0  0  0  0  0  0  0
    7.1104   -4.3980   -1.0761 H   0  0  0  0  0  0  0  0  0  0  0  0
   -1.6241    4.2113   -2.6271 H   0  0  0  0  0  0  0  0  0  0  0  0
   -1.2456    4.8842   -1.0200 H   0  0  0  0  0  0  0  0  0  0  0  0
   -2.6604    6.4481   -2.3626 H   0  0  0  0  0  0  0  0  0  0  0  0
   -3.9013    5.2025   -2.5442 H   0  0  0  0  0  0  0  0  0  0  0  0
   -2.8306    5.2284    0.9802 H   0  0  0  0  0  0  0  0  0  0  0  0
   -4.5943    5.2740    1.0324 H   0  0  0  0  0  0  0  0  0  0  0  0
   -3.8092    2.9538    0.7766 H   0  0  0  0  0  0  0  0  0  0  0  0
   -4.7218    3.4412   -0.6645 H   0  0  0  0  0  0  0  0  0  0  0  0
   -2.5459   -3.1594    2.2159 H   0  0  0  0  0  0  0  0  0  0  0  0
   -4.5725   -3.7886    3.4330 H   0  0  0  0  0  0  0  0  0  0  0  0
  1  2  1  0
  2  3  2  0
  3  4  1  0
  4  5  2  0
  5  6  1  0
  6  7  1  0
  7  8  2  0
  8  9  1  0
  9 10  1  0
 10 11  1  0
 11 12  2  0
 12 13  1  0
 13 14  2  0
 14 15  1  0
 15 16  1  0
 16 17  1  0
 17 18  2  0
 18 19  1  0
 19 20  2  0
 20 21  1  0
 21 22  2  0
 14 23  1  0
 23 24  2  0
  9 25  2  0
 25 26  1  0
 26 27  1  0
 27 28  1  0
 28 29  1  0
 29 30  1  0
 30 31  1  0
 31 32  1  0
 26 33  2  0
  5 34  1  0
 34 35  2  0
 35  2  1  0
 33  7  1  0
 24 11  1  0
 32 27  1  0
 22 17  1  0
  1 36  1  0
  1 37  1  0
  1 38  1  0
  3 39  1  0
  4 40  1  0
  6 41  1  0
 12 42  1  0
 13 43  1  0
 16 44  1  0
 16 45  1  0
 18 46  1  0
 19 47  1  0
 20 48  1  0
 21 49  1  0
 22 50  1  0
 28 51  1  0
 28 52  1  0
 29 53  1  0
 29 54  1  0
 31 55  1  0
 31 56  1  0
 32 57  1  0
 32 58  1  0
 34 59  1  0
 35 60  1  0
M  END
$$$$
