
     RDKit          3D

 44 46  0  0  0  0  0  0  0  0999 V2000
    2.7030    3.8660   -3.5612 C   0  0  0  0  0  0  0  0  0  0  0  0
    2.9544    3.2712   -2.2516 N   0  0  0  0  0  0  0  0  0  0  0  0
    3.2274    1.8243   -2.3823 C   0  0  0  0  0  0  0  0  0  0  0  0
    2.9232    1.0130   -1.1034 C   0  0  0  0  0  0  0  0  0  0  0  0
    1.4866    1.0935   -0.7442 N   0  0  0  0  0  0  0  0  0  0  0  0
    0.8113    0.0677   -0.0595 C   0  0  0  0  0  0  0  0  0  0  0  0
   -0.5341   -0.0226    0.0139 C   0  0  0  0  0  0  0  0  0  0  0  0
   -1.2591   -1.0848    0.6966 C   0  0  0  0  0  0  0  0  0  0  0  0
   -2.5967   -1.0256    0.8424 C   0  0  0  0  0  0  0  0  0  0  0  0
   -3.3937   -2.0626    1.5090 C   0  0  0  0  0  0  0  0  0  0  0  0
   -4.7210   -1.9266    1.7613 C   0  0  0  0  0  0  0  0  0  0  0  0
   -5.4472   -0.7496    1.4118 C   0  0  0  0  0  0  0  0  0  0  0  0
   -6.0276    0.2124    1.1201 N   0  0  0  0  0  0  0  0  0  0  0  0
   -5.4706   -2.9673    2.3853 C   0  0  0  0  0  0  0  0  0  0  0  0
   -6.0691   -3.8228    2.8922 N   0  0  0  0  0  0  0  0  0  0  0  0
   -2.6110   -3.3152    1.8853 C   0  0  0  0  0  0  0  0  0  0  0  0
   -1.1867   -2.9921    2.3344 C   0  0  0  0  0  0  0  0  0  0  0  0
   -0.4356   -2.2346    1.2338 C   0  0  0  0  0  0  0  0  0  0  0  0
    0.9156   -1.7370    1.7490 C   0  0  0  0  0  0  0  0  0  0  0  0
    1.6635   -0.9760    0.6529 C   0  0  0  0  0  0  0  0  0  0  0  0
    0.8301    2.3567   -1.1599 C   0  0  0  0  0  0  0  0  0  0  0  0
    1.8412    3.5162   -1.3121 C   0  0  0  0  0  0  0  0  0  0  0  0
    2.5999    4.9534   -3.4748 H   0  0  0  0  0  0  0  0  0  0  0  0
    3.5477    3.6839   -4.2350 H   0  0  0  0  0  0  0  0  0  0  0  0
    1.7946    3.4702   -4.0293 H   0  0  0  0  0  0  0  0  0  0  0  0
    2.6308    1.3929   -3.1983 H   0  0  0  0  0  0  0  0  0  0  0  0
    4.2823    1.6915   -2.6490 H   0  0  0  0  0  0  0  0  0  0  0  0
    3.5292    1.3785   -0.2657 H   0  0  0  0  0  0  0  0  0  0  0  0
    3.2107   -0.0266   -1.2971 H   0  0  0  0  0  0  0  0  0  0  0  0
   -1.1456    0.7270   -0.4801 H   0  0  0  0  0  0  0  0  0  0  0  0
   -3.1189   -0.1551    0.4466 H   0  0  0  0  0  0  0  0  0  0  0  0
   -3.0945   -3.8727    2.6945 H   0  0  0  0  0  0  0  0  0  0  0  0
   -2.5764   -3.9821    1.0137 H   0  0  0  0  0  0  0  0  0  0  0  0
   -0.6565   -3.9219    2.5737 H   0  0  0  0  0  0  0  0  0  0  0  0
   -1.2197   -2.3986    3.2581 H   0  0  0  0  0  0  0  0  0  0  0  0
   -0.2531   -2.9292    0.4008 H   0  0  0  0  0  0  0  0  0  0  0  0
    1.5287   -2.5799    2.0899 H   0  0  0  0  0  0  0  0  0  0  0  0
    0.7729   -1.0779    2.6163 H   0  0  0  0  0  0  0  0  0  0  0  0
    2.0397   -1.6896   -0.0908 H   0  0  0  0  0  0  0  0  0  0  0  0
    2.5335   -0.4988    1.1198 H   0  0  0  0  0  0  0  0  0  0  0  0
    0.0924    2.6623   -0.4085 H   0  0  0  0  0  0  0  0  0  0  0  0
    0.3012    2.1925   -2.1064 H   0  0  0  0  0  0  0  0  0  0  0  0
    1.3055    4.4398   -1.5647 H   0  0  0  0  0  0  0  0  0  0  0  0
    2.2919    3.7005   -0.3277 H   0  0  0  0  0  0  0  0  0  0  0  0
  1  2  1  0
  2  3  1  0
  3  4  1  0
  4  5  1  0
  5  6  1  0
  6  7  2  0
  7  8  1  0
  8  9  2  0
  9 10  1  0
 10 11  2  3
 11 12  1  0
 12 13  3  0
 11 14  1  0
 14 15  3  0
 10 16  1  0
 16 17  1  0
 17 18  1  0
 18 19  1  0
 19 20  1  0
  5 21  1  0
 21 22  1  0
 22  2  1  0
 20  6  1  0
 18  8  1  0
  1 23  1  0
  1 24  1  0
  1 25  1  0
  3 26  1  0
  3 27  1  0
  4 28  1  0
  4 29  1  0
  7 30  1  0
  9 31  1  0
 16 32  1  0
 16 33  1  0
 17 34  1  0
 17 35  1  0
 18 36  1  0
 19 37  1  0
 19 38  1  0
 20 39  1  0
 20 40  1  0
 21 41  1  0
 21 42  1  0
 22 43  1  0
 22 44  1  0
M  END
$$$$
