
     RDKit          3D

 40 42  0  0  0  0  0  0  0  0999 V2000
    3.1925   -2.9157   -4.0369 N   0  0  0  0  0  0  0  0  0  0  0  0
    3.6166   -2.0588   -3.3787 C   0  0  0  0  0  0  0  0  0  0  0  0
    4.1224   -1.0021   -2.5648 C   0  0  0  0  0  0  0  0  0  0  0  0
    5.5132   -0.7151   -2.6973 C   0  0  0  0  0  0  0  0  0  0  0  0
    6.6433   -0.4701   -2.7960 N   0  0  0  0  0  0  0  0  0  0  0  0
    3.3311   -0.2975   -1.7155 C   0  0  0  0  0  0  0  0  0  0  0  0
    1.8910   -0.5447   -1.5744 C   0  0  0  0  0  0  0  0  0  0  0  0
    1.1147    0.0499   -0.6483 C   0  0  0  0  0  0  0  0  0  0  0  0
   -0.3111   -0.2343   -0.5745 C   0  0  0  0  0  0  0  0  0  0  0  0
   -1.1330    0.2010    0.4041 C   0  0  0  0  0  0  0  0  0  0  0  0
   -2.5162   -0.0670    0.4185 N   0  0  0  0  0  0  0  0  0  0  0  0
   -3.4452    0.6372    1.3393 C   0  0  0  0  0  0  0  0  0  0  0  0
   -4.8725    0.6451    0.7721 C   0  0  0  0  0  0  0  0  0  0  0  0
   -5.3447   -0.6836    0.5082 O   0  0  0  0  0  0  0  0  0  0  0  0
   -4.4841   -1.3216   -0.4467 C   0  0  0  0  0  0  0  0  0  0  0  0
   -3.0410   -1.4152    0.0685 C   0  0  0  0  0  0  0  0  0  0  0  0
   -0.5548    1.0265    1.5467 C   0  0  0  0  0  0  0  0  0  0  0  0
    0.9587    0.8735    1.7099 C   0  0  0  0  0  0  0  0  0  0  0  0
    1.6663    1.0304    0.3632 C   0  0  0  0  0  0  0  0  0  0  0  0
    3.1816    0.8691    0.5278 C   0  0  0  0  0  0  0  0  0  0  0  0
    3.8667    0.8275   -0.8375 C   0  0  0  0  0  0  0  0  0  0  0  0
    1.4248   -1.2545   -2.2572 H   0  0  0  0  0  0  0  0  0  0  0  0
   -0.7237   -0.8135   -1.3955 H   0  0  0  0  0  0  0  0  0  0  0  0
   -3.4342    0.1256    2.3092 H   0  0  0  0  0  0  0  0  0  0  0  0
   -3.1351    1.6768    1.4895 H   0  0  0  0  0  0  0  0  0  0  0  0
   -4.9247    1.2329   -0.1523 H   0  0  0  0  0  0  0  0  0  0  0  0
   -5.5555    1.1015    1.4955 H   0  0  0  0  0  0  0  0  0  0  0  0
   -4.5289   -0.7703   -1.3936 H   0  0  0  0  0  0  0  0  0  0  0  0
   -4.8788   -2.3265   -0.6269 H   0  0  0  0  0  0  0  0  0  0  0  0
   -3.0115   -2.0373    0.9717 H   0  0  0  0  0  0  0  0  0  0  0  0
   -2.4338   -1.9098   -0.6951 H   0  0  0  0  0  0  0  0  0  0  0  0
   -0.7964    2.0829    1.3750 H   0  0  0  0  0  0  0  0  0  0  0  0
   -1.0168    0.7335    2.4969 H   0  0  0  0  0  0  0  0  0  0  0  0
    1.1793   -0.1118    2.1428 H   0  0  0  0  0  0  0  0  0  0  0  0
    1.3250    1.6215    2.4234 H   0  0  0  0  0  0  0  0  0  0  0  0
    1.4672    2.0438   -0.0151 H   0  0  0  0  0  0  0  0  0  0  0  0
    3.4140   -0.0502    1.0823 H   0  0  0  0  0  0  0  0  0  0  0  0
    3.5825    1.7039    1.1153 H   0  0  0  0  0  0  0  0  0  0  0  0
    3.7073    1.7826   -1.3552 H   0  0  0  0  0  0  0  0  0  0  0  0
    4.9441    0.7345   -0.6642 H   0  0  0  0  0  0  0  0  0  0  0  0
  1  2  3  0
  2  3  1  0
  3  4  1  0
  4  5  3  0
  3  6  2  3
  6  7  1  0
  7  8  2  0
  8  9  1  0
  9 10  2  0
 10 11  1  0
 11 12  1  0
 12 13  1  0
 13 14  1  0
 14 15  1  0
 15 16  1  0
 10 17  1  0
 17 18  1  0
 18 19  1  0
 19 20  1  0
 20 21  1  0
 21  6  1  0
 19  8  1  0
 16 11  1  0
  7 22  1  0
  9 23  1  0
 12 24  1  0
 12 25  1  0
 13 26  1  0
 13 27  1  0
 15 28  1  0
 15 29  1  0
 16 30  1  0
 16 31  1  0
 17 32  1  0
 17 33  1  0
 18 34  1  0
 18 35  1  0
 19 36  1  0
 20 37  1  0
 20 38  1  0
 21 39  1  0
 21 40  1  0
M  END
$$$$
