
     RDKit          3D

 55 58  0  0  0  0  0  0  0  0999 V2000
   -8.9753   -1.7074    1.1593 C   0  0  0  0  0  0  0  0  0  0  0  0
   -7.6090   -2.3299    1.4210 C   0  0  0  0  0  0  0  0  0  0  0  0
   -7.5762   -2.9991    2.7896 C   0  0  0  0  0  0  0  0  0  0  0  0
   -6.6015   -1.3010    1.4256 O   0  0  0  0  0  0  0  0  0  0  0  0
   -6.1163   -0.9377    0.2116 C   0  0  0  0  0  0  0  0  0  0  0  0
   -6.4614   -1.3983   -0.8652 O   0  0  0  0  0  0  0  0  0  0  0  0
   -5.0773    0.1181    0.3575 C   0  0  0  0  0  0  0  0  0  0  0  0
   -4.7168    0.6540    1.6008 C   0  0  0  0  0  0  0  0  0  0  0  0
   -3.7287    1.6402    1.6822 C   0  0  0  0  0  0  0  0  0  0  0  0
   -3.0944    2.1106    0.5242 C   0  0  0  0  0  0  0  0  0  0  0  0
   -2.0081    3.1520    0.6134 C   0  0  0  0  0  0  0  0  0  0  0  0
   -0.7642    2.5091    0.9172 O   0  0  0  0  0  0  0  0  0  0  0  0
    0.0448    2.2670   -0.1418 C   0  0  0  0  0  0  0  0  0  0  0  0
   -0.1731    2.5783   -1.3014 O   0  0  0  0  0  0  0  0  0  0  0  0
    1.2753    1.5519    0.2956 C   0  0  0  0  0  0  0  0  0  0  0  0
    1.4731    1.1411    1.6198 C   0  0  0  0  0  0  0  0  0  0  0  0
    2.6420    0.4687    1.9761 C   0  0  0  0  0  0  0  0  0  0  0  0
    3.6182    0.2016    1.0129 C   0  0  0  0  0  0  0  0  0  0  0  0
    3.4412    0.6014   -0.3205 C   0  0  0  0  0  0  0  0  0  0  0  0
    4.4448    0.3325   -1.3430 C   0  0  0  0  0  0  0  0  0  0  0  0
    4.4807    0.6923   -2.6100 N   0  0  0  0  0  0  0  0  0  0  0  0
    5.6485    0.1739   -3.1318 N   0  0  0  0  0  0  0  0  0  0  0  0
    6.2444   -0.4732   -2.1502 C   0  0  0  0  0  0  0  0  0  0  0  0
    7.4979   -1.2167   -2.1426 C   0  0  0  0  0  0  0  0  0  0  0  0
    7.9800   -1.8481   -0.9856 C   0  0  0  0  0  0  0  0  0  0  0  0
    9.1837   -2.5588   -1.0089 C   0  0  0  0  0  0  0  0  0  0  0  0
    9.9206   -2.6467   -2.1881 C   0  0  0  0  0  0  0  0  0  0  0  0
    9.4566   -2.0255   -3.3451 C   0  0  0  0  0  0  0  0  0  0  0  0
    8.2529   -1.3160   -3.3219 C   0  0  0  0  0  0  0  0  0  0  0  0
    5.5364   -0.4127   -0.9768 O   0  0  0  0  0  0  0  0  0  0  0  0
    2.2610    1.2791   -0.6660 C   0  0  0  0  0  0  0  0  0  0  0  0
   -3.4507    1.5655   -0.7163 C   0  0  0  0  0  0  0  0  0  0  0  0
   -4.4376    0.5801   -0.7999 C   0  0  0  0  0  0  0  0  0  0  0  0
   -9.7656   -2.4642    1.1879 H   0  0  0  0  0  0  0  0  0  0  0  0
   -9.0019   -1.2170    0.1802 H   0  0  0  0  0  0  0  0  0  0  0  0
   -9.2018   -0.9343    1.9026 H   0  0  0  0  0  0  0  0  0  0  0  0
   -7.3801   -3.0856    0.6597 H   0  0  0  0  0  0  0  0  0  0  0  0
   -8.3129   -3.8056    2.8561 H   0  0  0  0  0  0  0  0  0  0  0  0
   -7.7762   -2.2744    3.5862 H   0  0  0  0  0  0  0  0  0  0  0  0
   -6.5829   -3.4168    2.9867 H   0  0  0  0  0  0  0  0  0  0  0  0
   -5.1930    0.3110    2.5162 H   0  0  0  0  0  0  0  0  0  0  0  0
   -3.4530    2.0368    2.6572 H   0  0  0  0  0  0  0  0  0  0  0  0
   -1.9615    3.7641   -0.2955 H   0  0  0  0  0  0  0  0  0  0  0  0
   -2.2277    3.8466    1.4325 H   0  0  0  0  0  0  0  0  0  0  0  0
    0.7238    1.3335    2.3843 H   0  0  0  0  0  0  0  0  0  0  0  0
    2.7931    0.1505    3.0055 H   0  0  0  0  0  0  0  0  0  0  0  0
    4.5213   -0.3245    1.3176 H   0  0  0  0  0  0  0  0  0  0  0  0
    7.4232   -1.7955   -0.0523 H   0  0  0  0  0  0  0  0  0  0  0  0
    9.5443   -3.0455   -0.1065 H   0  0  0  0  0  0  0  0  0  0  0  0
   10.8564   -3.2000   -2.2065 H   0  0  0  0  0  0  0  0  0  0  0  0
   10.0287   -2.0936   -4.2676 H   0  0  0  0  0  0  0  0  0  0  0  0
    7.9035   -0.8391   -4.2372 H   0  0  0  0  0  0  0  0  0  0  0  0
    2.1046    1.5960   -1.6981 H   0  0  0  0  0  0  0  0  0  0  0  0
   -2.9542    1.9004   -1.6266 H   0  0  0  0  0  0  0  0  0  0  0  0
   -4.6998    0.1700   -1.7739 H   0  0  0  0  0  0  0  0  0  0  0  0
  1  2  1  0
  2  3  1  0
  2  4  1  0
  4  5  1  0
  5  6  2  0
  5  7  1  0
  7  8  2  0
  8  9  1  0
  9 10  2  0
 10 11  1  0
 11 12  1  0
 12 13  1  0
 13 14  2  0
 13 15  1  0
 15 16  2  0
 16 17  1  0
 17 18  2  0
 18 19  1  0
 19 20  1  0
 20 21  2  0
 21 22  1  0
 22 23  2  0
 23 24  1  0
 24 25  2  0
 25 26  1  0
 26 27  2  0
 27 28  1  0
 28 29  2  0
 23 30  1  0
 19 31  2  0
 10 32  1  0
 32 33  2  0
 33  7  1  0
 31 15  1  0
 30 20  1  0
 29 24  1  0
  1 34  1  0
  1 35  1  0
  1 36  1  0
  2 37  1  0
  3 38  1  0
  3 39  1  0
  3 40  1  0
  8 41  1  0
  9 42  1  0
 11 43  1  0
 11 44  1  0
 16 45  1  0
 17 46  1  0
 18 47  1  0
 25 48  1  0
 26 49  1  0
 27 50  1  0
 28 51  1  0
 29 52  1  0
 31 53  1  0
 32 54  1  0
 33 55  1  0
M  END
$$$$
