
     RDKit          3D

 46 49  0  0  0  0  0  0  0  0999 V2000
    5.7339   -1.3763   -2.5639 N   0  0  0  0  0  0  0  0  0  0  0  0
    5.8084    0.0765   -1.7135 S   0  0  0  0  0  6  0  0  0  0  0  0
    6.6885   -0.1761   -0.5952 O   0  0  0  0  0  0  0  0  0  0  0  0
    6.0423    1.1386   -2.6620 O   0  0  0  0  0  0  0  0  0  0  0  0
    4.1501    0.2150   -1.1081 C   0  0  0  0  0  0  0  0  0  0  0  0
    3.8460   -0.1722    0.1950 C   0  0  0  0  0  0  0  0  0  0  0  0
    2.5284   -0.0636    0.6578 C   0  0  0  0  0  0  0  0  0  0  0  0
    1.4959    0.4324   -0.1568 C   0  0  0  0  0  0  0  0  0  0  0  0
    0.1784    0.5377    0.2855 N   0  0  0  0  0  0  0  0  0  0  0  0
   -0.7903    1.0594   -0.5237 N   0  0  0  0  0  0  0  0  0  0  0  0
   -1.8502    1.2350    0.2060 C   0  0  0  0  0  0  0  0  0  0  0  0
   -3.1241    1.7687   -0.3305 C   0  0  0  0  0  0  0  0  0  0  0  0
   -4.2192    2.0251    0.5023 C   0  0  0  0  0  0  0  0  0  0  0  0
   -5.4063    2.5275   -0.0379 C   0  0  0  0  0  0  0  0  0  0  0  0
   -5.5037    2.7758   -1.4065 C   0  0  0  0  0  0  0  0  0  0  0  0
   -4.4153    2.5242   -2.2397 C   0  0  0  0  0  0  0  0  0  0  0  0
   -3.2278    2.0223   -1.7041 C   0  0  0  0  0  0  0  0  0  0  0  0
   -1.6865    0.8868    1.6598 C   0  0  0  0  0  0  0  0  0  0  0  0
   -0.3056    0.2290    1.6327 C   0  0  0  0  0  0  0  0  0  0  0  0
   -0.4064   -1.2667    1.9050 C   0  0  0  0  0  0  0  0  0  0  0  0
   -0.7791   -2.1817    0.9031 C   0  0  0  0  0  0  0  0  0  0  0  0
   -0.8848   -3.5442    1.1866 C   0  0  0  0  0  0  0  0  0  0  0  0
   -0.6254   -3.9980    2.4729 C   0  0  0  0  0  0  0  0  0  0  0  0
   -0.7271   -5.3053    2.7455 F   0  0  0  0  0  0  0  0  0  0  0  0
   -0.2640   -3.1151    3.4828 C   0  0  0  0  0  0  0  0  0  0  0  0
   -0.1573   -1.7515    3.2021 C   0  0  0  0  0  0  0  0  0  0  0  0
    1.8477    0.8249   -1.4627 C   0  0  0  0  0  0  0  0  0  0  0  0
    3.1583    0.7264   -1.9407 C   0  0  0  0  0  0  0  0  0  0  0  0
    6.3420   -2.0568   -2.1054 H   0  0  0  0  0  0  0  0  0  0  0  0
    4.7828   -1.7277   -2.6717 H   0  0  0  0  0  0  0  0  0  0  0  0
    4.6166   -0.5577    0.8589 H   0  0  0  0  0  0  0  0  0  0  0  0
    2.3284   -0.3821    1.6766 H   0  0  0  0  0  0  0  0  0  0  0  0
   -4.1747    1.8471    1.5722 H   0  0  0  0  0  0  0  0  0  0  0  0
   -6.2569    2.7271    0.6096 H   0  0  0  0  0  0  0  0  0  0  0  0
   -6.4281    3.1674   -1.8244 H   0  0  0  0  0  0  0  0  0  0  0  0
   -4.4887    2.7190   -3.3068 H   0  0  0  0  0  0  0  0  0  0  0  0
   -2.3851    1.8311   -2.3654 H   0  0  0  0  0  0  0  0  0  0  0  0
   -1.6681    1.8137    2.2431 H   0  0  0  0  0  0  0  0  0  0  0  0
   -2.4866    0.2344    2.0199 H   0  0  0  0  0  0  0  0  0  0  0  0
    0.3351    0.7036    2.3870 H   0  0  0  0  0  0  0  0  0  0  0  0
   -0.9808   -1.8352   -0.1100 H   0  0  0  0  0  0  0  0  0  0  0  0
   -1.1660   -4.2503    0.4120 H   0  0  0  0  0  0  0  0  0  0  0  0
   -0.0687   -3.4944    4.4809 H   0  0  0  0  0  0  0  0  0  0  0  0
    0.1238   -1.0706    4.0030 H   0  0  0  0  0  0  0  0  0  0  0  0
    1.0821    1.2242   -2.1260 H   0  0  0  0  0  0  0  0  0  0  0  0
    3.3884    1.0525   -2.9528 H   0  0  0  0  0  0  0  0  0  0  0  0
  1  2  1  0
  2  3  2  0
  2  4  2  0
  2  5  1  0
  5  6  2  0
  6  7  1  0
  7  8  2  0
  8  9  1  0
  9 10  1  0
 10 11  2  0
 11 12  1  0
 12 13  2  0
 13 14  1  0
 14 15  2  0
 15 16  1  0
 16 17  2  0
 11 18  1  0
 18 19  1  0
 19 20  1  0
 20 21  2  0
 21 22  1  0
 22 23  2  0
 23 24  1  0
 23 25  1  0
 25 26  2  0
  8 27  1  0
 27 28  2  0
 28  5  1  0
 19  9  1  0
 26 20  1  0
 17 12  1  0
  1 29  1  0
  1 30  1  0
  6 31  1  0
  7 32  1  0
 13 33  1  0
 14 34  1  0
 15 35  1  0
 16 36  1  0
 17 37  1  0
 18 38  1  0
 18 39  1  0
 19 40  1  0
 21 41  1  0
 22 42  1  0
 25 43  1  0
 26 44  1  0
 27 45  1  0
 28 46  1  0
M  END
$$$$
