
     RDKit          3D

 38 40  0  0  0  0  0  0  0  0999 V2000
   -0.2104    1.6085   -1.1080 O   0  0  0  0  0  0  0  0  0  0  0  0
   -0.6333    0.6730   -1.7712 C   0  0  0  0  0  0  0  0  0  0  0  0
   -2.0598    0.1669   -1.7966 C   0  0  0  0  0  0  0  0  0  0  0  0
   -2.9178    0.7037   -0.6745 C   0  0  0  0  0  0  0  0  0  0  0  0
   -3.7274    1.8297   -0.8723 C   0  0  0  0  0  0  0  0  0  0  0  0
   -4.5079    2.3312    0.1696 C   0  0  0  0  0  0  0  0  0  0  0  0
   -4.4802    1.7191    1.4230 C   0  0  0  0  0  0  0  0  0  0  0  0
   -3.6625    0.6023    1.6513 C   0  0  0  0  0  0  0  0  0  0  0  0
   -3.6348   -0.0644    3.0043 C   0  0  0  0  0  0  0  0  0  0  0  0
   -4.5849   -1.0328    3.1245 F   0  0  0  0  0  0  0  0  0  0  0  0
   -3.8523    0.8014    4.0345 F   0  0  0  0  0  0  0  0  0  0  0  0
   -2.4465   -0.6735    3.2772 F   0  0  0  0  0  0  0  0  0  0  0  0
   -2.8908    0.0971    0.5913 C   0  0  0  0  0  0  0  0  0  0  0  0
    0.1203   -0.0745   -2.6239 O   0  0  0  0  0  0  0  0  0  0  0  0
    1.5105    0.2613   -2.6640 C   0  0  0  0  0  0  0  0  0  0  0  0
    2.1932   -0.1940   -1.4813 N   0  0  0  0  0  0  0  0  0  0  0  0
    3.1931    0.5236   -0.8861 C   0  0  0  0  0  0  0  0  0  0  0  0
    3.6492    1.6092   -1.1899 O   0  0  0  0  0  0  0  0  0  0  0  0
    3.7162   -0.3108    0.1934 C   0  0  0  0  0  0  0  0  0  0  0  0
    4.6931   -0.0517    1.1344 C   0  0  0  0  0  0  0  0  0  0  0  0
    4.9989   -1.0771    2.0352 C   0  0  0  0  0  0  0  0  0  0  0  0
    4.3341   -2.3202    1.9704 C   0  0  0  0  0  0  0  0  0  0  0  0
    3.3522   -2.5593    1.0032 C   0  0  0  0  0  0  0  0  0  0  0  0
    3.0652   -1.5293    0.1287 C   0  0  0  0  0  0  0  0  0  0  0  0
    2.1232   -1.4658   -0.9874 C   0  0  0  0  0  0  0  0  0  0  0  0
    1.4561   -2.4096   -1.3665 O   0  0  0  0  0  0  0  0  0  0  0  0
   -2.5005    0.4344   -2.7643 H   0  0  0  0  0  0  0  0  0  0  0  0
   -2.0470   -0.9282   -1.7330 H   0  0  0  0  0  0  0  0  0  0  0  0
   -3.7531    2.3291   -1.8391 H   0  0  0  0  0  0  0  0  0  0  0  0
   -5.1346    3.2050    0.0052 H   0  0  0  0  0  0  0  0  0  0  0  0
   -5.0928    2.1234    2.2276 H   0  0  0  0  0  0  0  0  0  0  0  0
   -2.2563   -0.7735    0.7603 H   0  0  0  0  0  0  0  0  0  0  0  0
    1.9435   -0.2657   -3.5210 H   0  0  0  0  0  0  0  0  0  0  0  0
    1.6521    1.3367   -2.8254 H   0  0  0  0  0  0  0  0  0  0  0  0
    5.2004    0.9072    1.1688 H   0  0  0  0  0  0  0  0  0  0  0  0
    5.7618   -0.9169    2.7959 H   0  0  0  0  0  0  0  0  0  0  0  0
    4.5926   -3.1031    2.6817 H   0  0  0  0  0  0  0  0  0  0  0  0
    2.8374   -3.5126    0.9384 H   0  0  0  0  0  0  0  0  0  0  0  0
  1  2  2  0
  2  3  1  0
  3  4  1  0
  4  5  2  0
  5  6  1  0
  6  7  2  0
  7  8  1  0
  8  9  1  0
  9 10  1  0
  9 11  1  0
  9 12  1  0
  8 13  2  0
  2 14  1  0
 14 15  1  0
 15 16  1  0
 16 17  1  0
 17 18  2  0
 17 19  1  0
 19 20  2  0
 20 21  1  0
 21 22  2  0
 22 23  1  0
 23 24  2  0
 24 25  1  0
 25 26  2  0
 13  4  1  0
 25 16  1  0
 24 19  1  0
  3 27  1  0
  3 28  1  0
  5 29  1  0
  6 30  1  0
  7 31  1  0
 13 32  1  0
 15 33  1  0
 15 34  1  0
 20 35  1  0
 21 36  1  0
 22 37  1  0
 23 38  1  0
M  END
$$$$
