
     RDKit          3D

 44 46  0  0  0  0  0  0  0  0999 V2000
   -2.7126   -2.2362    2.3903 C   0  0  0  0  0  0  0  0  0  0  0  0
   -3.1628   -1.2881    1.3176 C   0  0  0  0  0  0  0  0  0  0  0  0
   -4.0452   -0.2481    1.6180 C   0  0  0  0  0  0  0  0  0  0  0  0
   -4.4322    0.6539    0.6274 C   0  0  0  0  0  0  0  0  0  0  0  0
   -3.9367    0.5355   -0.6787 C   0  0  0  0  0  0  0  0  0  0  0  0
   -4.3641    1.5235   -1.7292 C   0  0  0  0  0  0  0  0  0  0  0  0
   -3.0396   -0.5028   -0.9874 C   0  0  0  0  0  0  0  0  0  0  0  0
   -2.5878   -0.5228   -2.2823 O   0  0  0  0  0  0  0  0  0  0  0  0
   -1.7859   -1.6218   -2.7243 C   0  0  0  0  0  0  0  0  0  0  0  0
   -0.3739   -1.3728   -2.3571 C   0  0  0  0  0  0  0  0  0  0  0  0
    0.3768   -0.2504   -2.1077 C   0  0  0  0  0  0  0  0  0  0  0  0
    1.6605   -0.7446   -1.7570 C   0  0  0  0  0  0  0  0  0  0  0  0
    2.8553    0.0167   -1.3794 C   0  0  0  0  0  0  0  0  0  0  0  0
    3.9298   -0.1736   -1.9487 O   0  0  0  0  0  0  0  0  0  0  0  0
    2.7200    0.9967   -0.3892 N   0  0  0  0  0  0  0  0  0  0  0  0
    1.5673    1.1366    0.4947 C   0  0  0  0  0  0  0  0  0  0  0  0
    3.8608    1.8786   -0.1381 C   0  0  0  0  0  0  0  0  0  0  0  0
    4.6573    1.4116    1.0500 C   0  0  0  0  0  0  0  0  0  0  0  0
    4.4050    1.7648    2.2973 N   0  0  0  0  0  0  0  0  0  0  0  0
    5.3164    1.1670    3.1451 C   0  0  0  0  0  0  0  0  0  0  0  0
    6.2613    0.3706    2.5378 C   0  0  0  0  0  0  0  0  0  0  0  0
    6.0103    0.3660    0.8442 S   0  0  0  0  0  0  0  0  0  0  0  0
    1.6864   -2.0852   -1.8467 N   0  0  0  0  0  0  0  0  0  0  0  0
    0.4107   -2.4719   -2.2091 O   0  0  0  0  0  0  0  0  0  0  0  0
   -2.6538   -1.4008    0.0148 C   0  0  0  0  0  0  0  0  0  0  0  0
   -3.4756   -2.3383    3.1693 H   0  0  0  0  0  0  0  0  0  0  0  0
   -2.5350   -3.2350    1.9776 H   0  0  0  0  0  0  0  0  0  0  0  0
   -1.7879   -1.8710    2.8476 H   0  0  0  0  0  0  0  0  0  0  0  0
   -4.4380   -0.1322    2.6259 H   0  0  0  0  0  0  0  0  0  0  0  0
   -5.1236    1.4539    0.8831 H   0  0  0  0  0  0  0  0  0  0  0  0
   -3.4985    2.0873   -2.0924 H   0  0  0  0  0  0  0  0  0  0  0  0
   -4.8395    1.0043   -2.5676 H   0  0  0  0  0  0  0  0  0  0  0  0
   -5.0886    2.2432   -1.3334 H   0  0  0  0  0  0  0  0  0  0  0  0
   -2.1682   -2.5812   -2.3586 H   0  0  0  0  0  0  0  0  0  0  0  0
   -1.8635   -1.6513   -3.8168 H   0  0  0  0  0  0  0  0  0  0  0  0
    0.0425    0.7755   -2.1507 H   0  0  0  0  0  0  0  0  0  0  0  0
    0.9803    1.9963    0.1590 H   0  0  0  0  0  0  0  0  0  0  0  0
    0.9416    0.2421    0.4985 H   0  0  0  0  0  0  0  0  0  0  0  0
    1.8979    1.3094    1.5218 H   0  0  0  0  0  0  0  0  0  0  0  0
    4.4965    1.9512   -1.0277 H   0  0  0  0  0  0  0  0  0  0  0  0
    3.4711    2.8860    0.0515 H   0  0  0  0  0  0  0  0  0  0  0  0
    5.2468    1.3484    4.2107 H   0  0  0  0  0  0  0  0  0  0  0  0
    7.0640   -0.1907    2.9930 H   0  0  0  0  0  0  0  0  0  0  0  0
   -1.9457   -2.2001   -0.1814 H   0  0  0  0  0  0  0  0  0  0  0  0
  1  2  1  0
  2  3  2  0
  3  4  1  0
  4  5  2  0
  5  6  1  0
  5  7  1  0
  7  8  1  0
  8  9  1  0
  9 10  1  0
 10 11  2  0
 11 12  1  0
 12 13  1  0
 13 14  2  0
 13 15  1  0
 15 16  1  0
 15 17  1  0
 17 18  1  0
 18 19  2  0
 19 20  1  0
 20 21  2  0
 21 22  1  0
 12 23  2  0
 23 24  1  0
  7 25  2  0
 25  2  1  0
 24 10  1  0
 22 18  1  0
  1 26  1  0
  1 27  1  0
  1 28  1  0
  3 29  1  0
  4 30  1  0
  6 31  1  0
  6 32  1  0
  6 33  1  0
  9 34  1  0
  9 35  1  0
 11 36  1  0
 16 37  1  0
 16 38  1  0
 16 39  1  0
 17 40  1  0
 17 41  1  0
 20 42  1  0
 21 43  1  0
 25 44  1  0
M  END
$$$$
