
     RDKit          3D

 52 54  0  0  0  0  0  0  0  0999 V2000
    2.3926    0.2107    0.5756 O   0  0  0  0  0  0  0  0  0  0  0  0
    2.8618    0.4774   -0.5275 C   0  0  0  0  0  0  0  0  0  0  0  0
    4.3338    0.3837   -0.8666 C   0  0  0  0  0  0  0  0  0  0  0  0
    5.1626   -0.0646    0.3337 C   0  0  0  0  0  0  0  0  0  0  0  0
    6.6268   -0.1525   -0.0166 C   0  0  0  0  0  0  0  0  0  0  0  0
    7.4611    0.9633    0.1334 C   0  0  0  0  0  0  0  0  0  0  0  0
    8.8109    0.8879   -0.2136 C   0  0  0  0  0  0  0  0  0  0  0  0
    9.3374   -0.3004   -0.7162 C   0  0  0  0  0  0  0  0  0  0  0  0
    8.5151   -1.4146   -0.8727 C   0  0  0  0  0  0  0  0  0  0  0  0
    7.1651   -1.3417   -0.5264 C   0  0  0  0  0  0  0  0  0  0  0  0
    2.0897    0.8922   -1.6064 N   0  0  0  0  0  0  0  0  0  0  0  0
    0.7192    1.1129   -1.6769 C   0  0  0  0  0  0  0  0  0  0  0  0
    0.1486    1.5815   -3.1735 S   0  0  0  0  0  0  0  0  0  0  0  0
    0.0474    0.8988   -0.4961 N   0  0  0  0  0  0  0  0  0  0  0  0
   -1.3003    1.0289   -0.0969 C   0  0  0  0  0  0  0  0  0  0  0  0
   -1.5917    0.6178    1.2154 C   0  0  0  0  0  0  0  0  0  0  0  0
   -2.8897    0.6918    1.7294 C   0  0  0  0  0  0  0  0  0  0  0  0
   -3.9194    1.1709    0.9216 C   0  0  0  0  0  0  0  0  0  0  0  0
   -5.5735    1.2943    1.5701 S   0  0  0  0  0  6  0  0  0  0  0  0
   -5.4691    1.3445    3.0132 O   0  0  0  0  0  0  0  0  0  0  0  0
   -6.2538    2.3361    0.8305 O   0  0  0  0  0  0  0  0  0  0  0  0
   -6.2728   -0.1860    1.1490 N   0  0  0  0  0  0  0  0  0  0  0  0
   -5.8004   -1.4183    1.8383 C   0  0  0  0  0  0  0  0  0  0  0  0
   -5.2104   -2.4113    0.8314 C   0  0  0  0  0  0  0  0  0  0  0  0
   -6.1392   -2.8201   -0.1825 O   0  0  0  0  0  0  0  0  0  0  0  0
   -7.1347   -1.8302   -0.4814 C   0  0  0  0  0  0  0  0  0  0  0  0
   -6.6327   -0.3967   -0.2793 C   0  0  0  0  0  0  0  0  0  0  0  0
   -3.6430    1.6208   -0.3697 C   0  0  0  0  0  0  0  0  0  0  0  0
   -2.3385    1.5407   -0.8758 C   0  0  0  0  0  0  0  0  0  0  0  0
    4.4507   -0.3247   -1.6959 H   0  0  0  0  0  0  0  0  0  0  0  0
    4.6696    1.3683   -1.2144 H   0  0  0  0  0  0  0  0  0  0  0  0
    5.0275    0.6294    1.1734 H   0  0  0  0  0  0  0  0  0  0  0  0
    4.8137   -1.0397    0.6977 H   0  0  0  0  0  0  0  0  0  0  0  0
    7.0663    1.8980    0.5252 H   0  0  0  0  0  0  0  0  0  0  0  0
    9.4527    1.7563   -0.0899 H   0  0  0  0  0  0  0  0  0  0  0  0
   10.3891   -0.3588   -0.9842 H   0  0  0  0  0  0  0  0  0  0  0  0
    8.9264   -2.3419   -1.2631 H   0  0  0  0  0  0  0  0  0  0  0  0
    6.5372   -2.2207   -0.6538 H   0  0  0  0  0  0  0  0  0  0  0  0
    2.5647    1.0653   -2.4837 H   0  0  0  0  0  0  0  0  0  0  0  0
    0.6634    0.5583    0.2452 H   0  0  0  0  0  0  0  0  0  0  0  0
   -0.8025    0.2362    1.8616 H   0  0  0  0  0  0  0  0  0  0  0  0
   -3.0795    0.3841    2.7551 H   0  0  0  0  0  0  0  0  0  0  0  0
   -5.0610   -1.1936    2.6115 H   0  0  0  0  0  0  0  0  0  0  0  0
   -6.6686   -1.8629    2.3390 H   0  0  0  0  0  0  0  0  0  0  0  0
   -4.8714   -3.3150    1.3477 H   0  0  0  0  0  0  0  0  0  0  0  0
   -4.3389   -1.9777    0.3278 H   0  0  0  0  0  0  0  0  0  0  0  0
   -8.0066   -2.0288    0.1528 H   0  0  0  0  0  0  0  0  0  0  0  0
   -7.4438   -1.9802   -1.5206 H   0  0  0  0  0  0  0  0  0  0  0  0
   -7.4220    0.3069   -0.5618 H   0  0  0  0  0  0  0  0  0  0  0  0
   -5.7569   -0.2317   -0.9138 H   0  0  0  0  0  0  0  0  0  0  0  0
   -4.4299    2.0426   -0.9921 H   0  0  0  0  0  0  0  0  0  0  0  0
   -2.1834    1.9125   -1.8799 H   0  0  0  0  0  0  0  0  0  0  0  0
  1  2  2  0
  2  3  1  0
  3  4  1  0
  4  5  1  0
  5  6  2  0
  6  7  1  0
  7  8  2  0
  8  9  1  0
  9 10  2  0
  2 11  1  0
 11 12  1  0
 12 13  2  0
 12 14  1  0
 14 15  1  0
 15 16  2  0
 16 17  1  0
 17 18  2  0
 18 19  1  0
 19 20  2  0
 19 21  2  0
 19 22  1  0
 22 23  1  0
 23 24  1  0
 24 25  1  0
 25 26  1  0
 26 27  1  0
 18 28  1  0
 28 29  2  0
 10  5  1  0
 29 15  1  0
 27 22  1  0
  3 30  1  0
  3 31  1  0
  4 32  1  0
  4 33  1  0
  6 34  1  0
  7 35  1  0
  8 36  1  0
  9 37  1  0
 10 38  1  0
 11 39  1  0
 14 40  1  0
 16 41  1  0
 17 42  1  0
 23 43  1  0
 23 44  1  0
 24 45  1  0
 24 46  1  0
 26 47  1  0
 26 48  1  0
 27 49  1  0
 27 50  1  0
 28 51  1  0
 29 52  1  0
M  END
$$$$
