
     RDKit          3D

 42 45  0  0  0  0  0  0  0  0999 V2000
    1.5502    0.2777    2.4893 O   0  0  0  0  0  0  0  0  0  0  0  0
    0.5933    0.2528    1.7270 C   0  0  0  0  0  0  0  0  0  0  0  0
   -0.5080   -0.4917    2.0291 N   0  0  0  0  0  0  0  0  0  0  0  0
   -1.7776   -0.2456    1.6038 C   0  0  0  0  0  0  0  0  0  0  0  0
   -2.7175   -0.7757    2.1932 O   0  0  0  0  0  0  0  0  0  0  0  0
   -1.9231    0.6083    0.5292 N   0  0  0  0  0  0  0  0  0  0  0  0
   -3.2745    0.8585    0.0272 C   0  0  0  0  0  0  0  0  0  0  0  0
   -3.6342    0.0617   -1.2422 C   0  0  0  0  0  0  0  0  0  0  0  0
   -3.6593   -1.4508   -1.0653 C   0  0  0  0  0  0  0  0  0  0  0  0
   -5.0780   -1.7100   -0.6263 C   0  0  0  0  0  0  0  0  0  0  0  0
   -5.8443   -0.6965   -1.4457 C   0  0  0  0  0  0  0  0  0  0  0  0
   -4.9763    0.4310   -1.6317 O   0  0  0  0  0  0  0  0  0  0  0  0
   -0.8694    1.2272   -0.1274 C   0  0  0  0  0  0  0  0  0  0  0  0
   -1.0223    1.8952   -1.1486 O   0  0  0  0  0  0  0  0  0  0  0  0
    0.4755    1.0297    0.4763 C   0  0  0  0  0  0  0  0  0  0  0  0
    1.5238    1.5860   -0.1629 C   0  0  0  0  0  0  0  0  0  0  0  0
    2.9043    1.4810    0.1709 C   0  0  0  0  0  0  0  0  0  0  0  0
    3.6802    2.5513    0.5525 C   0  0  0  0  0  0  0  0  0  0  0  0
    4.9471    2.0822    0.7830 N   0  0  0  0  0  0  0  0  0  0  0  0
    5.0164    0.7339    0.5104 C   0  0  0  0  0  0  0  0  0  0  0  0
    6.1044   -0.1445    0.5812 C   0  0  0  0  0  0  0  0  0  0  0  0
    5.8829   -1.4803    0.2341 C   0  0  0  0  0  0  0  0  0  0  0  0
    4.6236   -1.9179   -0.1684 C   0  0  0  0  0  0  0  0  0  0  0  0
    3.5454   -1.0274   -0.2321 C   0  0  0  0  0  0  0  0  0  0  0  0
    3.7395    0.3255    0.1185 C   0  0  0  0  0  0  0  0  0  0  0  0
   -0.4466   -1.0090    2.8955 H   0  0  0  0  0  0  0  0  0  0  0  0
   -4.0159    0.6691    0.8127 H   0  0  0  0  0  0  0  0  0  0  0  0
   -3.3659    1.9297   -0.1974 H   0  0  0  0  0  0  0  0  0  0  0  0
   -2.9570    0.3355   -2.0580 H   0  0  0  0  0  0  0  0  0  0  0  0
   -2.9085   -1.8469   -0.3792 H   0  0  0  0  0  0  0  0  0  0  0  0
   -3.4961   -1.9302   -2.0391 H   0  0  0  0  0  0  0  0  0  0  0  0
   -5.4108   -2.7364   -0.8010 H   0  0  0  0  0  0  0  0  0  0  0  0
   -5.1868   -1.4925    0.4423 H   0  0  0  0  0  0  0  0  0  0  0  0
   -6.7684   -0.3736   -0.9582 H   0  0  0  0  0  0  0  0  0  0  0  0
   -6.0919   -1.0930   -2.4361 H   0  0  0  0  0  0  0  0  0  0  0  0
    1.3332    2.1832   -1.0549 H   0  0  0  0  0  0  0  0  0  0  0  0
    3.4451    3.5969    0.6993 H   0  0  0  0  0  0  0  0  0  0  0  0
    5.7277    2.6422    1.0954 H   0  0  0  0  0  0  0  0  0  0  0  0
    7.0873    0.1929    0.8931 H   0  0  0  0  0  0  0  0  0  0  0  0
    6.7079   -2.1876    0.2795 H   0  0  0  0  0  0  0  0  0  0  0  0
    4.4746   -2.9611   -0.4352 H   0  0  0  0  0  0  0  0  0  0  0  0
    2.5700   -1.3807   -0.5494 H   0  0  0  0  0  0  0  0  0  0  0  0
  1  2  2  0
  2  3  1  0
  3  4  1  0
  4  5  2  0
  4  6  1  0
  6  7  1  0
  7  8  1  0
  8  9  1  0
  9 10  1  0
 10 11  1  0
 11 12  1  0
  6 13  1  0
 13 14  2  0
 13 15  1  0
 15 16  2  3
 16 17  1  0
 17 18  2  0
 18 19  1  0
 19 20  1  0
 20 21  2  0
 21 22  1  0
 22 23  2  0
 23 24  1  0
 24 25  2  0
 15  2  1  0
 25 17  1  0
 12  8  1  0
 25 20  1  0
  3 26  1  0
  7 27  1  0
  7 28  1  0
  8 29  1  0
  9 30  1  0
  9 31  1  0
 10 32  1  0
 10 33  1  0
 11 34  1  0
 11 35  1  0
 16 36  1  0
 18 37  1  0
 19 38  1  0
 21 39  1  0
 22 40  1  0
 23 41  1  0
 24 42  1  0
M  END
$$$$
