
     RDKit          3D

 53 54  0  0  0  0  0  0  0  0999 V2000
    5.9917    0.5281    1.8287 C   0  0  0  0  0  0  0  0  0  0  0  0
    5.0180   -0.0854    2.8306 C   0  0  0  0  0  0  0  0  0  0  0  0
    3.6581   -0.3524    2.3557 N   0  0  0  0  0  0  0  0  0  0  0  0
    2.9085    0.8611    2.0027 C   0  0  0  0  0  0  0  0  0  0  0  0
    1.4543    0.5408    1.5733 C   0  0  0  0  0  0  0  0  0  0  0  0
    1.3079   -0.4902    0.5115 N   0  0  0  0  0  0  0  0  0  0  0  0
    1.7201    0.0326   -0.8189 C   0  0  0  0  0  0  0  0  0  0  0  0
    0.6352    0.9333   -1.4341 C   0  0  0  0  0  0  0  0  0  0  0  0
    0.9113    1.7479   -2.3100 O   0  0  0  0  0  0  0  0  0  0  0  0
   -0.6205    0.6643   -0.9319 N   0  0  0  0  0  0  0  0  0  0  0  0
   -1.8569    1.2413   -1.2665 C   0  0  0  0  0  0  0  0  0  0  0  0
   -2.0228    2.1776   -2.2882 C   0  0  0  0  0  0  0  0  0  0  0  0
   -3.2905    2.7223   -2.5648 C   0  0  0  0  0  0  0  0  0  0  0  0
   -3.4441    3.7503   -3.6597 C   0  0  0  0  0  0  0  0  0  0  0  0
   -4.7382    3.9267   -4.0511 F   0  0  0  0  0  0  0  0  0  0  0  0
   -2.7583    3.4301   -4.7913 F   0  0  0  0  0  0  0  0  0  0  0  0
   -3.0000    4.9808   -3.2833 F   0  0  0  0  0  0  0  0  0  0  0  0
   -4.3893    2.3294   -1.7855 C   0  0  0  0  0  0  0  0  0  0  0  0
   -4.2342    1.3898   -0.7662 C   0  0  0  0  0  0  0  0  0  0  0  0
   -2.9791    0.8299   -0.5273 C   0  0  0  0  0  0  0  0  0  0  0  0
   -2.7855   -0.0708    0.4930 O   0  0  0  0  0  0  0  0  0  0  0  0
   -3.5265   -1.2868    0.3277 C   0  0  0  0  0  0  0  0  0  0  0  0
   -2.7745   -2.2751   -0.5663 C   0  0  0  0  0  0  0  0  0  0  0  0
   -3.4616   -3.5220   -0.6687 O   0  0  0  0  0  0  0  0  0  0  0  0
   -3.1340   -4.4197    0.3848 C   0  0  0  0  0  0  0  0  0  0  0  0
    2.1295   -1.6636    0.8892 C   0  0  0  0  0  0  0  0  0  0  0  0
    3.5936   -1.3438    1.2742 C   0  0  0  0  0  0  0  0  0  0  0  0
    6.1521   -0.1243    0.9651 H   0  0  0  0  0  0  0  0  0  0  0  0
    6.9647    0.6795    2.3085 H   0  0  0  0  0  0  0  0  0  0  0  0
    5.6490    1.5034    1.4711 H   0  0  0  0  0  0  0  0  0  0  0  0
    4.9605    0.5712    3.7080 H   0  0  0  0  0  0  0  0  0  0  0  0
    5.4483   -1.0235    3.2031 H   0  0  0  0  0  0  0  0  0  0  0  0
    3.4054    1.4118    1.1961 H   0  0  0  0  0  0  0  0  0  0  0  0
    2.8647    1.5298    2.8709 H   0  0  0  0  0  0  0  0  0  0  0  0
    0.9529    1.4706    1.2796 H   0  0  0  0  0  0  0  0  0  0  0  0
    0.9057    0.1811    2.4544 H   0  0  0  0  0  0  0  0  0  0  0  0
    1.8407   -0.7975   -1.5263 H   0  0  0  0  0  0  0  0  0  0  0  0
    2.6623    0.5879   -0.7796 H   0  0  0  0  0  0  0  0  0  0  0  0
   -0.6248    0.0107   -0.1481 H   0  0  0  0  0  0  0  0  0  0  0  0
   -1.1768    2.5059   -2.8881 H   0  0  0  0  0  0  0  0  0  0  0  0
   -5.3731    2.7607   -1.9675 H   0  0  0  0  0  0  0  0  0  0  0  0
   -5.0893    1.1167   -0.1546 H   0  0  0  0  0  0  0  0  0  0  0  0
   -3.6463   -1.7152    1.3288 H   0  0  0  0  0  0  0  0  0  0  0  0
   -4.5468   -1.1256   -0.0412 H   0  0  0  0  0  0  0  0  0  0  0  0
   -2.7052   -1.8639   -1.5795 H   0  0  0  0  0  0  0  0  0  0  0  0
   -1.7422   -2.4176   -0.2236 H   0  0  0  0  0  0  0  0  0  0  0  0
   -3.4118   -4.0033    1.3570 H   0  0  0  0  0  0  0  0  0  0  0  0
   -2.0653   -4.6552    0.3666 H   0  0  0  0  0  0  0  0  0  0  0  0
   -3.6949   -5.3460    0.2319 H   0  0  0  0  0  0  0  0  0  0  0  0
    2.1157   -2.4073    0.0828 H   0  0  0  0  0  0  0  0  0  0  0  0
    1.6415   -2.1534    1.7428 H   0  0  0  0  0  0  0  0  0  0  0  0
    4.1309   -0.9969    0.3838 H   0  0  0  0  0  0  0  0  0  0  0  0
    4.0698   -2.2761    1.6008 H   0  0  0  0  0  0  0  0  0  0  0  0
  1  2  1  0
  2  3  1  0
  3  4  1  0
  4  5  1  0
  5  6  1  0
  6  7  1  0
  7  8  1  0
  8  9  2  0
  8 10  1  0
 10 11  1  0
 11 12  2  0
 12 13  1  0
 13 14  1  0
 14 15  1  0
 14 16  1  0
 14 17  1  0
 13 18  2  0
 18 19  1  0
 19 20  2  0
 20 21  1  0
 21 22  1  0
 22 23  1  0
 23 24  1  0
 24 25  1  0
  6 26  1  0
 26 27  1  0
 27  3  1  0
 20 11  1  0
  1 28  1  0
  1 29  1  0
  1 30  1  0
  2 31  1  0
  2 32  1  0
  4 33  1  0
  4 34  1  0
  5 35  1  0
  5 36  1  0
  7 37  1  0
  7 38  1  0
 10 39  1  0
 12 40  1  0
 18 41  1  0
 19 42  1  0
 22 43  1  0
 22 44  1  0
 23 45  1  0
 23 46  1  0
 25 47  1  0
 25 48  1  0
 25 49  1  0
 26 50  1  0
 26 51  1  0
 27 52  1  0
 27 53  1  0
M  END
$$$$
