
     RDKit          3D

 50 52  0  0  0  0  0  0  0  0999 V2000
    6.8764   -1.8361   -2.9337 C   0  0  0  0  0  0  0  0  0  0  0  0
    5.6733   -1.9440   -2.0445 C   0  0  0  0  0  0  0  0  0  0  0  0
    4.3857   -1.9504   -2.5925 C   0  0  0  0  0  0  0  0  0  0  0  0
    3.2626   -2.0224   -1.7637 C   0  0  0  0  0  0  0  0  0  0  0  0
    3.4114   -2.0700   -0.3771 C   0  0  0  0  0  0  0  0  0  0  0  0
    1.9861   -2.1589    0.6892 S   0  0  0  0  0  0  0  0  0  0  0  0
    1.6337   -0.3751    0.8621 C   0  0  0  0  0  0  0  0  0  0  0  0
    0.6890    0.1638   -0.2080 C   0  0  0  0  0  0  0  0  0  0  0  0
    0.4397   -0.4783   -1.2332 O   0  0  0  0  0  0  0  0  0  0  0  0
    0.1554    1.4494   -0.0421 N   0  0  0  0  0  0  0  0  0  0  0  0
   -0.7193    1.9165   -1.1339 C   0  0  0  0  0  0  0  0  0  0  0  0
   -2.1540    1.6321   -0.8599 C   0  0  0  0  0  0  0  0  0  0  0  0
   -2.7275    0.6596   -0.1865 N   0  0  0  0  0  0  0  0  0  0  0  0
   -4.0681    0.9651   -0.2930 C   0  0  0  0  0  0  0  0  0  0  0  0
   -5.1046    0.1338    0.3106 C   0  0  0  0  0  0  0  0  0  0  0  0
   -4.7607   -1.0626    0.9596 C   0  0  0  0  0  0  0  0  0  0  0  0
   -5.7447   -1.8650    1.5433 C   0  0  0  0  0  0  0  0  0  0  0  0
   -7.0833   -1.4811    1.4833 C   0  0  0  0  0  0  0  0  0  0  0  0
   -7.4401   -0.2978    0.8391 C   0  0  0  0  0  0  0  0  0  0  0  0
   -6.4565    0.5059    0.2560 C   0  0  0  0  0  0  0  0  0  0  0  0
   -4.3125    2.0895   -0.9876 N   0  0  0  0  0  0  0  0  0  0  0  0
   -3.0478    2.5275   -1.3687 O   0  0  0  0  0  0  0  0  0  0  0  0
    0.2138    2.3157    1.1612 C   0  0  0  0  0  0  0  0  0  0  0  0
   -0.6333    1.8117    2.3308 C   0  0  0  0  0  0  0  0  0  0  0  0
    1.6342    2.6757    1.5987 C   0  0  0  0  0  0  0  0  0  0  0  0
    4.6949   -2.0593    0.1747 C   0  0  0  0  0  0  0  0  0  0  0  0
    5.8189   -1.9891   -0.6536 C   0  0  0  0  0  0  0  0  0  0  0  0
    7.1111   -0.7833   -3.1193 H   0  0  0  0  0  0  0  0  0  0  0  0
    6.6982   -2.3341   -3.8927 H   0  0  0  0  0  0  0  0  0  0  0  0
    7.7467   -2.3173   -2.4750 H   0  0  0  0  0  0  0  0  0  0  0  0
    4.2447   -1.9050   -3.6702 H   0  0  0  0  0  0  0  0  0  0  0  0
    2.2713   -2.0391   -2.2118 H   0  0  0  0  0  0  0  0  0  0  0  0
    1.1871   -0.2644    1.8474 H   0  0  0  0  0  0  0  0  0  0  0  0
    2.5724    0.1838    0.8245 H   0  0  0  0  0  0  0  0  0  0  0  0
   -0.4422    1.4474   -2.0840 H   0  0  0  0  0  0  0  0  0  0  0  0
   -0.5542    2.9919   -1.2676 H   0  0  0  0  0  0  0  0  0  0  0  0
   -3.7200   -1.3798    1.0117 H   0  0  0  0  0  0  0  0  0  0  0  0
   -5.4641   -2.7883    2.0428 H   0  0  0  0  0  0  0  0  0  0  0  0
   -7.8492   -2.1067    1.9348 H   0  0  0  0  0  0  0  0  0  0  0  0
   -8.4843    0.0014    0.7886 H   0  0  0  0  0  0  0  0  0  0  0  0
   -6.7568    1.4260   -0.2419 H   0  0  0  0  0  0  0  0  0  0  0  0
   -0.2330    3.2734    0.8606 H   0  0  0  0  0  0  0  0  0  0  0  0
   -0.3102    0.8393    2.7064 H   0  0  0  0  0  0  0  0  0  0  0  0
   -1.6842    1.7144    2.0427 H   0  0  0  0  0  0  0  0  0  0  0  0
   -0.5897    2.5195    3.1665 H   0  0  0  0  0  0  0  0  0  0  0  0
    2.1120    1.8790    2.1733 H   0  0  0  0  0  0  0  0  0  0  0  0
    2.2656    2.9102    0.7357 H   0  0  0  0  0  0  0  0  0  0  0  0
    1.6144    3.5574    2.2493 H   0  0  0  0  0  0  0  0  0  0  0  0
    4.8322   -2.1065    1.2525 H   0  0  0  0  0  0  0  0  0  0  0  0
    6.8093   -1.9753   -0.2046 H   0  0  0  0  0  0  0  0  0  0  0  0
  1  2  1  0
  2  3  2  0
  3  4  1  0
  4  5  2  0
  5  6  1  0
  6  7  1  0
  7  8  1  0
  8  9  2  0
  8 10  1  0
 10 11  1  0
 11 12  1  0
 12 13  2  0
 13 14  1  0
 14 15  1  0
 15 16  2  0
 16 17  1  0
 17 18  2  0
 18 19  1  0
 19 20  2  0
 14 21  2  0
 21 22  1  0
 10 23  1  0
 23 24  1  0
 23 25  1  0
  5 26  1  0
 26 27  2  0
 27  2  1  0
 22 12  1  0
 20 15  1  0
  1 28  1  0
  1 29  1  0
  1 30  1  0
  3 31  1  0
  4 32  1  0
  7 33  1  0
  7 34  1  0
 11 35  1  0
 11 36  1  0
 16 37  1  0
 17 38  1  0
 18 39  1  0
 19 40  1  0
 20 41  1  0
 23 42  1  0
 24 43  1  0
 24 44  1  0
 24 45  1  0
 25 46  1  0
 25 47  1  0
 25 48  1  0
 26 49  1  0
 27 50  1  0
M  END
$$$$
