
     RDKit          3D

 46 50  0  0  0  0  0  0  0  0999 V2000
    6.3091    2.9226   -0.8041 C   0  0  0  0  0  0  0  0  0  0  0  0
    5.7374    1.7602   -1.3902 O   0  0  0  0  0  0  0  0  0  0  0  0
    4.4650    1.4361   -1.0093 C   0  0  0  0  0  0  0  0  0  0  0  0
    3.9600    0.2716   -1.5910 C   0  0  0  0  0  0  0  0  0  0  0  0
    2.6714   -0.1768   -1.2886 C   0  0  0  0  0  0  0  0  0  0  0  0
    1.8670    0.5374   -0.3961 C   0  0  0  0  0  0  0  0  0  0  0  0
    0.5193    0.0792   -0.0845 C   0  0  0  0  0  0  0  0  0  0  0  0
   -0.5835    0.8866   -0.2573 N   0  0  0  0  0  0  0  0  0  0  0  0
   -1.7232    0.1757    0.0310 C   0  0  0  0  0  0  0  0  0  0  0  0
   -3.0885    0.7086   -0.0526 C   0  0  0  0  0  0  0  0  0  0  0  0
   -3.3781    1.9614   -0.6446 C   0  0  0  0  0  0  0  0  0  0  0  0
   -4.6910    2.4473   -0.7101 C   0  0  0  0  0  0  0  0  0  0  0  0
   -5.6927    1.6651   -0.1814 C   0  0  0  0  0  0  0  0  0  0  0  0
   -5.4283    0.4458    0.3922 C   0  0  0  0  0  0  0  0  0  0  0  0
   -4.1462   -0.0569    0.4699 C   0  0  0  0  0  0  0  0  0  0  0  0
   -6.5531   -0.1661    0.8501 O   0  0  0  0  0  0  0  0  0  0  0  0
   -7.5560    0.8075    0.4954 C   0  0  0  0  0  0  0  0  0  0  0  0
   -7.0158    1.9755   -0.1582 O   0  0  0  0  0  0  0  0  0  0  0  0
   -1.3940   -1.0477    0.3983 N   0  0  0  0  0  0  0  0  0  0  0  0
   -0.0179   -1.1245    0.3439 C   0  0  0  0  0  0  0  0  0  0  0  0
    0.6920   -2.3475    0.6855 C   0  0  0  0  0  0  0  0  0  0  0  0
    1.9278   -2.3325    1.3454 C   0  0  0  0  0  0  0  0  0  0  0  0
    2.5804   -3.5283    1.6591 C   0  0  0  0  0  0  0  0  0  0  0  0
    1.9989   -4.7503    1.3265 C   0  0  0  0  0  0  0  0  0  0  0  0
    0.7620   -4.7794    0.6861 C   0  0  0  0  0  0  0  0  0  0  0  0
    0.1109   -3.5842    0.3716 C   0  0  0  0  0  0  0  0  0  0  0  0
    2.3740    1.7061    0.1848 C   0  0  0  0  0  0  0  0  0  0  0  0
    3.6663    2.1529   -0.1186 C   0  0  0  0  0  0  0  0  0  0  0  0
    7.3226    3.0336   -1.2017 H   0  0  0  0  0  0  0  0  0  0  0  0
    6.3874    2.8192    0.2832 H   0  0  0  0  0  0  0  0  0  0  0  0
    5.7444    3.8202   -1.0768 H   0  0  0  0  0  0  0  0  0  0  0  0
    4.5756   -0.2953   -2.2855 H   0  0  0  0  0  0  0  0  0  0  0  0
    2.3039   -1.0876   -1.7570 H   0  0  0  0  0  0  0  0  0  0  0  0
   -0.5525    1.8412   -0.5786 H   0  0  0  0  0  0  0  0  0  0  0  0
   -2.5918    2.5749   -1.0745 H   0  0  0  0  0  0  0  0  0  0  0  0
   -4.9153    3.4055   -1.1654 H   0  0  0  0  0  0  0  0  0  0  0  0
   -3.9634   -1.0250    0.9278 H   0  0  0  0  0  0  0  0  0  0  0  0
   -8.0749    1.1249    1.4072 H   0  0  0  0  0  0  0  0  0  0  0  0
   -8.2822    0.3348   -0.1760 H   0  0  0  0  0  0  0  0  0  0  0  0
    2.3921   -1.3934    1.6344 H   0  0  0  0  0  0  0  0  0  0  0  0
    3.5399   -3.5031    2.1688 H   0  0  0  0  0  0  0  0  0  0  0  0
    2.5054   -5.6795    1.5736 H   0  0  0  0  0  0  0  0  0  0  0  0
    0.2994   -5.7298    0.4339 H   0  0  0  0  0  0  0  0  0  0  0  0
   -0.8588   -3.6173   -0.1219 H   0  0  0  0  0  0  0  0  0  0  0  0
    1.7768    2.2716    0.8965 H   0  0  0  0  0  0  0  0  0  0  0  0
    4.0181    3.0597    0.3619 H   0  0  0  0  0  0  0  0  0  0  0  0
  1  2  1  0
  2  3  1  0
  3  4  2  0
  4  5  1  0
  5  6  2  0
  6  7  1  0
  7  8  1  0
  8  9  1  0
  9 10  1  0
 10 11  2  0
 11 12  1  0
 12 13  2  0
 13 14  1  0
 14 15  2  0
 14 16  1  0
 16 17  1  0
 17 18  1  0
  9 19  2  0
 19 20  1  0
 20 21  1  0
 21 22  2  0
 22 23  1  0
 23 24  2  0
 24 25  1  0
 25 26  2  0
  6 27  1  0
 27 28  2  0
 28  3  1  0
 20  7  2  0
 26 21  1  0
 15 10  1  0
 18 13  1  0
  1 29  1  0
  1 30  1  0
  1 31  1  0
  4 32  1  0
  5 33  1  0
  8 34  1  0
 11 35  1  0
 12 36  1  0
 15 37  1  0
 17 38  1  0
 17 39  1  0
 22 40  1  0
 23 41  1  0
 24 42  1  0
 25 43  1  0
 26 44  1  0
 27 45  1  0
 28 46  1  0
M  END
$$$$
