
     RDKit          3D

 53 56  0  0  0  0  0  0  0  0999 V2000
   -2.1509    1.8590   -4.0583 C   0  0  0  0  0  0  0  0  0  0  0  0
   -1.7114    2.3324   -2.6958 C   0  0  0  0  0  0  0  0  0  0  0  0
   -0.8456    3.1975   -2.5694 O   0  0  0  0  0  0  0  0  0  0  0  0
   -2.3551    1.7033   -1.5133 C   0  0  0  0  0  0  0  0  0  0  0  0
   -1.6388    0.9096   -0.6783 C   0  0  0  0  0  0  0  0  0  0  0  0
   -0.3030    0.5184   -0.8264 N   0  0  0  0  0  0  0  0  0  0  0  0
    0.3395    0.1933   -2.1181 C   0  0  0  0  0  0  0  0  0  0  0  0
    1.4821   -0.8253   -1.9083 C   0  0  0  0  0  0  0  0  0  0  0  0
    2.5849   -0.3209   -1.0617 N   0  0  0  0  0  0  0  0  0  0  0  0
    3.2638   -1.4363   -0.3852 C   0  0  0  0  0  0  0  0  0  0  0  0
    4.5932   -1.0560    0.2334 C   0  0  0  0  0  0  0  0  0  0  0  0
    4.8954   -1.4262    1.5523 C   0  0  0  0  0  0  0  0  0  0  0  0
    6.1296   -1.0966    2.1163 C   0  0  0  0  0  0  0  0  0  0  0  0
    7.0769   -0.4009    1.3675 C   0  0  0  0  0  0  0  0  0  0  0  0
    6.7935   -0.0363    0.0531 C   0  0  0  0  0  0  0  0  0  0  0  0
    5.5609   -0.3656   -0.5124 C   0  0  0  0  0  0  0  0  0  0  0  0
    2.1069    0.7228   -0.1285 C   0  0  0  0  0  0  0  0  0  0  0  0
    0.6371    0.5752    0.3212 C   0  0  0  0  0  0  0  0  0  0  0  0
   -2.2994    0.4120    0.4257 N   0  0  0  0  0  0  0  0  0  0  0  0
   -3.6518    0.5219    0.6024 C   0  0  0  0  0  0  0  0  0  0  0  0
   -4.3171   -0.2380    1.7070 C   0  0  0  0  0  0  0  0  0  0  0  0
   -5.6798   -0.5463    1.6081 C   0  0  0  0  0  0  0  0  0  0  0  0
   -6.3139   -1.2625    2.6249 C   0  0  0  0  0  0  0  0  0  0  0  0
   -5.5924   -1.6673    3.7469 C   0  0  0  0  0  0  0  0  0  0  0  0
   -4.2385   -1.3517    3.8582 C   0  0  0  0  0  0  0  0  0  0  0  0
   -3.5994   -0.6361    2.8424 C   0  0  0  0  0  0  0  0  0  0  0  0
   -4.3902    1.2549   -0.1727 N   0  0  0  0  0  0  0  0  0  0  0  0
   -3.7983    1.9980   -1.1770 C   0  0  0  0  0  0  0  0  0  0  0  0
   -4.7289    3.1658   -1.9828 S   0  0  0  0  0  0  0  0  0  0  0  0
   -2.6346    2.6803   -4.5927 H   0  0  0  0  0  0  0  0  0  0  0  0
   -1.2745    1.5192   -4.6172 H   0  0  0  0  0  0  0  0  0  0  0  0
   -2.8495    1.0212   -3.9801 H   0  0  0  0  0  0  0  0  0  0  0  0
    0.7365    1.0993   -2.5890 H   0  0  0  0  0  0  0  0  0  0  0  0
   -0.3955   -0.2542   -2.7971 H   0  0  0  0  0  0  0  0  0  0  0  0
    1.0404   -1.7291   -1.4655 H   0  0  0  0  0  0  0  0  0  0  0  0
    1.8944   -1.1104   -2.8829 H   0  0  0  0  0  0  0  0  0  0  0  0
    3.4815   -2.2315   -1.1112 H   0  0  0  0  0  0  0  0  0  0  0  0
    2.6035   -1.8763    0.3739 H   0  0  0  0  0  0  0  0  0  0  0  0
    4.1719   -1.9743    2.1508 H   0  0  0  0  0  0  0  0  0  0  0  0
    6.3536   -1.3844    3.1402 H   0  0  0  0  0  0  0  0  0  0  0  0
    8.0370   -0.1441    1.8073 H   0  0  0  0  0  0  0  0  0  0  0  0
    7.5309    0.5051   -0.5335 H   0  0  0  0  0  0  0  0  0  0  0  0
    5.3487   -0.0746   -1.5394 H   0  0  0  0  0  0  0  0  0  0  0  0
    2.7480    0.8065    0.7563 H   0  0  0  0  0  0  0  0  0  0  0  0
    2.2078    1.6853   -0.6478 H   0  0  0  0  0  0  0  0  0  0  0  0
    0.3842    1.4276    0.9636 H   0  0  0  0  0  0  0  0  0  0  0  0
    0.5256   -0.3376    0.9187 H   0  0  0  0  0  0  0  0  0  0  0  0
   -1.8052   -0.3487    0.8706 H   0  0  0  0  0  0  0  0  0  0  0  0
   -6.2543   -0.2310    0.7394 H   0  0  0  0  0  0  0  0  0  0  0  0
   -7.3719   -1.4989    2.5421 H   0  0  0  0  0  0  0  0  0  0  0  0
   -6.0895   -2.2201    4.5406 H   0  0  0  0  0  0  0  0  0  0  0  0
   -3.6842   -1.6540    4.7435 H   0  0  0  0  0  0  0  0  0  0  0  0
   -2.5541   -0.3732    2.9702 H   0  0  0  0  0  0  0  0  0  0  0  0
  1  2  1  0
  2  3  2  0
  2  4  1  0
  4  5  2  0
  5  6  1  0
  6  7  1  0
  7  8  1  0
  8  9  1  0
  9 10  1  0
 10 11  1  0
 11 12  2  0
 12 13  1  0
 13 14  2  0
 14 15  1  0
 15 16  2  0
  9 17  1  0
 17 18  1  0
  5 19  1  0
 19 20  1  0
 20 21  1  0
 21 22  2  0
 22 23  1  0
 23 24  2  0
 24 25  1  0
 25 26  2  0
 20 27  2  0
 27 28  1  0
 28 29  2  0
 28  4  1  0
 18  6  1  0
 26 21  1  0
 16 11  1  0
  1 30  1  0
  1 31  1  0
  1 32  1  0
  7 33  1  0
  7 34  1  0
  8 35  1  0
  8 36  1  0
 10 37  1  0
 10 38  1  0
 12 39  1  0
 13 40  1  0
 14 41  1  0
 15 42  1  0
 16 43  1  0
 17 44  1  0
 17 45  1  0
 18 46  1  0
 18 47  1  0
 19 48  1  0
 22 49  1  0
 23 50  1  0
 24 51  1  0
 25 52  1  0
 26 53  1  0
M  END
$$$$
