
     RDKit          3D

 66 68  0  0  0  0  0  0  0  0999 V2000
   -5.8926   -4.2104    2.2146 C   0  0  0  0  0  0  0  0  0  0  0  0
   -5.4547   -3.3687    1.0272 C   0  0  0  0  0  0  0  0  0  0  0  0
   -4.6586   -2.2653    1.4553 O   0  0  0  0  0  0  0  0  0  0  0  0
   -5.2688   -1.0855    1.8017 C   0  0  0  0  0  0  0  0  0  0  0  0
   -6.6530   -0.8895    1.8685 C   0  0  0  0  0  0  0  0  0  0  0  0
   -7.1792    0.3456    2.2575 C   0  0  0  0  0  0  0  0  0  0  0  0
   -6.3296    1.3957    2.5892 C   0  0  0  0  0  0  0  0  0  0  0  0
   -4.9497    1.2138    2.5304 C   0  0  0  0  0  0  0  0  0  0  0  0
   -4.4077   -0.0155    2.1232 C   0  0  0  0  0  0  0  0  0  0  0  0
   -2.9443   -0.1919    2.1097 C   0  0  0  0  0  0  0  0  0  0  0  0
   -2.0162    0.4989    1.4272 C   0  0  0  0  0  0  0  0  0  0  0  0
   -2.2897    1.5440    0.4963 C   0  0  0  0  0  0  0  0  0  0  0  0
   -3.4910    1.6912   -0.1640 O   0  0  0  0  0  0  0  0  0  0  0  0
   -3.4724    2.7881   -0.9960 N   0  0  0  0  0  0  0  0  0  0  0  0
   -2.2605    3.3322   -0.8609 C   0  0  0  0  0  0  0  0  0  0  0  0
   -1.9279    4.5630   -1.6161 C   0  0  0  0  0  0  0  0  0  0  0  0
   -1.4786    2.5693    0.0316 C   0  0  0  0  0  0  0  0  0  0  0  0
    0.1399    2.8588    0.4898 S   0  0  0  0  0  6  0  0  0  0  0  0
    0.0668    3.0789    1.9174 O   0  0  0  0  0  0  0  0  0  0  0  0
    0.6312    3.8816   -0.4089 O   0  0  0  0  0  0  0  0  0  0  0  0
    1.0593    1.4491    0.2039 N   0  0  0  0  0  0  0  0  0  0  0  0
    1.0528    0.9662   -1.2024 C   0  0  0  0  0  0  0  0  0  0  0  0
    2.0937   -0.1278   -1.4017 C   0  0  0  0  0  0  0  0  0  0  0  0
    3.5178    0.3983   -1.1612 C   0  0  0  0  0  0  0  0  0  0  0  0
    4.3954   -0.7415   -0.6344 C   0  0  0  0  0  0  0  0  0  0  0  0
    4.5736   -0.8693    0.5804 O   0  0  0  0  0  0  0  0  0  0  0  0
    4.9178   -1.6568   -1.5473 N   0  0  0  0  0  0  0  0  0  0  0  0
    4.9197   -1.4787   -3.0026 C   0  0  0  0  0  0  0  0  0  0  0  0
    6.0587   -0.6027   -3.5008 C   0  0  0  0  0  0  0  0  0  0  0  0
    5.6981   -2.7739   -1.0040 C   0  0  0  0  0  0  0  0  0  0  0  0
    7.1319   -2.4028   -0.6558 C   0  0  0  0  0  0  0  0  0  0  0  0
    3.5166    1.5793   -0.1730 C   0  0  0  0  0  0  0  0  0  0  0  0
    2.4021    1.4503    0.8574 C   0  0  0  0  0  0  0  0  0  0  0  0
   -6.4464   -5.0934    1.8811 H   0  0  0  0  0  0  0  0  0  0  0  0
   -6.5281   -3.6398    2.8992 H   0  0  0  0  0  0  0  0  0  0  0  0
   -5.0219   -4.5382    2.7923 H   0  0  0  0  0  0  0  0  0  0  0  0
   -6.2946   -3.0622    0.3948 H   0  0  0  0  0  0  0  0  0  0  0  0
   -4.8111   -3.9832    0.3878 H   0  0  0  0  0  0  0  0  0  0  0  0
   -7.3569   -1.6804    1.6369 H   0  0  0  0  0  0  0  0  0  0  0  0
   -8.2558    0.4857    2.3060 H   0  0  0  0  0  0  0  0  0  0  0  0
   -6.7374    2.3550    2.8959 H   0  0  0  0  0  0  0  0  0  0  0  0
   -4.2968    2.0403    2.8022 H   0  0  0  0  0  0  0  0  0  0  0  0
   -2.6061   -0.9985    2.7593 H   0  0  0  0  0  0  0  0  0  0  0  0
   -0.9755    0.2340    1.5996 H   0  0  0  0  0  0  0  0  0  0  0  0
   -1.5242    5.3313   -0.9498 H   0  0  0  0  0  0  0  0  0  0  0  0
   -2.8141    4.9862   -2.1012 H   0  0  0  0  0  0  0  0  0  0  0  0
   -1.1927    4.3464   -2.3969 H   0  0  0  0  0  0  0  0  0  0  0  0
    1.2445    1.7903   -1.8989 H   0  0  0  0  0  0  0  0  0  0  0  0
    0.0634    0.5535   -1.4275 H   0  0  0  0  0  0  0  0  0  0  0  0
    2.0071   -0.5259   -2.4180 H   0  0  0  0  0  0  0  0  0  0  0  0
    1.8728   -0.9648   -0.7264 H   0  0  0  0  0  0  0  0  0  0  0  0
    3.9425    0.7814   -2.0938 H   0  0  0  0  0  0  0  0  0  0  0  0
    4.9646   -2.4640   -3.4795 H   0  0  0  0  0  0  0  0  0  0  0  0
    3.9726   -1.0347   -3.3148 H   0  0  0  0  0  0  0  0  0  0  0  0
    5.9420   -0.4088   -4.5721 H   0  0  0  0  0  0  0  0  0  0  0  0
    6.0883    0.3593   -2.9802 H   0  0  0  0  0  0  0  0  0  0  0  0
    7.0264   -1.0898   -3.3592 H   0  0  0  0  0  0  0  0  0  0  0  0
    5.1991   -3.1336   -0.0958 H   0  0  0  0  0  0  0  0  0  0  0  0
    5.6810   -3.6042   -1.7189 H   0  0  0  0  0  0  0  0  0  0  0  0
    7.6311   -3.2451   -0.1670 H   0  0  0  0  0  0  0  0  0  0  0  0
    7.1737   -1.5443    0.0212 H   0  0  0  0  0  0  0  0  0  0  0  0
    7.7080   -2.1520   -1.5497 H   0  0  0  0  0  0  0  0  0  0  0  0
    4.4848    1.6718    0.3325 H   0  0  0  0  0  0  0  0  0  0  0  0
    3.3751    2.5119   -0.7347 H   0  0  0  0  0  0  0  0  0  0  0  0
    2.4949    0.5234    1.4338 H   0  0  0  0  0  0  0  0  0  0  0  0
    2.4891    2.2687    1.5796 H   0  0  0  0  0  0  0  0  0  0  0  0
  1  2  1  0
  2  3  1  0
  3  4  1  0
  4  5  2  0
  5  6  1  0
  6  7  2  0
  7  8  1  0
  8  9  2  0
  9 10  1  0
 10 11  2  3
 11 12  1  0
 12 13  1  0
 13 14  1  0
 14 15  2  0
 15 16  1  0
 15 17  1  0
 17 18  1  0
 18 19  2  0
 18 20  2  0
 18 21  1  0
 21 22  1  0
 22 23  1  0
 23 24  1  0
 24 25  1  0
 25 26  2  0
 25 27  1  0
 27 28  1  0
 28 29  1  0
 27 30  1  0
 30 31  1  0
 24 32  1  0
 32 33  1  0
  9  4  1  0
 17 12  2  0
 33 21  1  0
  1 34  1  0
  1 35  1  0
  1 36  1  0
  2 37  1  0
  2 38  1  0
  5 39  1  0
  6 40  1  0
  7 41  1  0
  8 42  1  0
 10 43  1  0
 11 44  1  0
 16 45  1  0
 16 46  1  0
 16 47  1  0
 22 48  1  0
 22 49  1  0
 23 50  1  0
 23 51  1  0
 24 52  1  0
 28 53  1  0
 28 54  1  0
 29 55  1  0
 29 56  1  0
 29 57  1  0
 30 58  1  0
 30 59  1  0
 31 60  1  0
 31 61  1  0
 31 62  1  0
 32 63  1  0
 32 64  1  0
 33 65  1  0
 33 66  1  0
M  END
$$$$
