
     RDKit          3D

 40 42  0  0  0  0  0  0  0  0999 V2000
    2.6924    2.7520    2.7577 C   0  0  0  0  0  0  0  0  0  0  0  0
    1.9360    3.6392    1.7835 C   0  0  0  0  0  0  0  0  0  0  0  0
    0.1364    3.3457    1.8550 S   0  0  0  0  0  0  0  0  0  0  0  0
   -0.0155    1.8009    0.9666 C   0  0  0  0  0  0  0  0  0  0  0  0
   -1.2146    1.1241    1.0302 C   0  0  0  0  0  0  0  0  0  0  0  0
   -1.3192   -0.0583    0.3259 C   0  0  0  0  0  0  0  0  0  0  0  0
   -2.4869   -0.8119    0.3562 N   0  0  0  0  0  0  0  0  0  0  0  0
   -3.7952   -0.1334    0.3130 C   0  0  0  0  0  0  0  0  0  0  0  0
   -4.6915   -0.7417   -0.7798 C   0  0  0  0  0  0  0  0  0  0  0  0
   -4.9135   -2.1499   -0.6273 O   0  0  0  0  0  0  0  0  0  0  0  0
   -3.7793   -2.8507   -0.0920 C   0  0  0  0  0  0  0  0  0  0  0  0
   -2.4411   -2.1266   -0.3057 C   0  0  0  0  0  0  0  0  0  0  0  0
   -0.2674   -0.5273   -0.3660 N   0  0  0  0  0  0  0  0  0  0  0  0
    0.8666    0.1972   -0.3838 C   0  0  0  0  0  0  0  0  0  0  0  0
    2.0086   -0.3302   -1.1607 C   0  0  0  0  0  0  0  0  0  0  0  0
    3.2360    0.3604   -1.2272 C   0  0  0  0  0  0  0  0  0  0  0  0
    4.3194   -0.1373   -1.9612 C   0  0  0  0  0  0  0  0  0  0  0  0
    4.1949   -1.3412   -2.6463 C   0  0  0  0  0  0  0  0  0  0  0  0
    5.5235   -1.9556   -3.5489 Cl  0  0  0  0  0  0  0  0  0  0  0  0
    2.9988   -2.0494   -2.6033 C   0  0  0  0  0  0  0  0  0  0  0  0
    1.9190   -1.5467   -1.8675 C   0  0  0  0  0  0  0  0  0  0  0  0
    1.0314    1.3633    0.2561 N   0  0  0  0  0  0  0  0  0  0  0  0
    3.7610    2.9884    2.7204 H   0  0  0  0  0  0  0  0  0  0  0  0
    2.5834    1.6896    2.5193 H   0  0  0  0  0  0  0  0  0  0  0  0
    2.3554    2.9118    3.7875 H   0  0  0  0  0  0  0  0  0  0  0  0
    2.1015    4.6862    2.0587 H   0  0  0  0  0  0  0  0  0  0  0  0
    2.3114    3.5190    0.7625 H   0  0  0  0  0  0  0  0  0  0  0  0
   -2.0306    1.4982    1.6336 H   0  0  0  0  0  0  0  0  0  0  0  0
   -4.2726   -0.2637    1.2910 H   0  0  0  0  0  0  0  0  0  0  0  0
   -3.7054    0.9411    0.1178 H   0  0  0  0  0  0  0  0  0  0  0  0
   -5.6712   -0.2531   -0.7748 H   0  0  0  0  0  0  0  0  0  0  0  0
   -4.2519   -0.5762   -1.7707 H   0  0  0  0  0  0  0  0  0  0  0  0
   -3.9632   -2.9995    0.9785 H   0  0  0  0  0  0  0  0  0  0  0  0
   -3.7535   -3.8396   -0.5606 H   0  0  0  0  0  0  0  0  0  0  0  0
   -1.6369   -2.7408    0.1167 H   0  0  0  0  0  0  0  0  0  0  0  0
   -2.2625   -2.0009   -1.3812 H   0  0  0  0  0  0  0  0  0  0  0  0
    3.3579    1.3054   -0.6994 H   0  0  0  0  0  0  0  0  0  0  0  0
    5.2511    0.4211   -1.9907 H   0  0  0  0  0  0  0  0  0  0  0  0
    2.8948   -2.9907   -3.1362 H   0  0  0  0  0  0  0  0  0  0  0  0
    0.9923   -2.1191   -1.8484 H   0  0  0  0  0  0  0  0  0  0  0  0
  1  2  1  0
  2  3  1  0
  3  4  1  0
  4  5  2  0
  5  6  1  0
  6  7  1  0
  7  8  1  0
  8  9  1  0
  9 10  1  0
 10 11  1  0
 11 12  1  0
  6 13  2  0
 13 14  1  0
 14 15  1  0
 15 16  2  0
 16 17  1  0
 17 18  2  0
 18 19  1  0
 18 20  1  0
 20 21  2  0
 14 22  2  0
 22  4  1  0
 12  7  1  0
 21 15  1  0
  1 23  1  0
  1 24  1  0
  1 25  1  0
  2 26  1  0
  2 27  1  0
  5 28  1  0
  8 29  1  0
  8 30  1  0
  9 31  1  0
  9 32  1  0
 11 33  1  0
 11 34  1  0
 12 35  1  0
 12 36  1  0
 16 37  1  0
 17 38  1  0
 20 39  1  0
 21 40  1  0
M  END
$$$$
