
     RDKit          3D

 43 44  0  0  0  0  0  0  0  0999 V2000
    6.3131   -2.3543   -1.0082 C   0  0  0  0  0  0  0  0  0  0  0  0
    6.0213   -1.6414   -2.2058 O   0  0  0  0  0  0  0  0  0  0  0  0
    4.7089   -1.3235   -2.4321 C   0  0  0  0  0  0  0  0  0  0  0  0
    4.4847   -0.5933   -3.5998 C   0  0  0  0  0  0  0  0  0  0  0  0
    3.1945   -0.2044   -3.9520 C   0  0  0  0  0  0  0  0  0  0  0  0
    2.1195   -0.5463   -3.1325 C   0  0  0  0  0  0  0  0  0  0  0  0
    2.3262   -1.2773   -1.9570 C   0  0  0  0  0  0  0  0  0  0  0  0
    1.1842   -1.5800   -1.1876 N   0  0  0  0  0  0  0  0  0  0  0  0
    1.1275   -2.2386    0.0297 C   0  0  0  0  0  0  0  0  0  0  0  0
    2.0740   -2.6649    0.6839 O   0  0  0  0  0  0  0  0  0  0  0  0
   -0.2887   -2.3957    0.5286 C   0  0  0  0  0  0  0  0  0  0  0  0
   -0.8582   -1.0838    1.0121 C   0  0  0  0  0  0  0  0  0  0  0  0
   -0.7093   -0.7794    2.4853 C   0  0  0  0  0  0  0  0  0  0  0  0
   -1.3889   -0.3027    0.1114 N   0  0  0  0  0  0  0  0  0  0  0  0
   -2.0317    0.8332    0.5283 N   0  0  0  0  0  0  0  0  0  0  0  0
   -3.1978    0.7405    1.2906 C   0  0  0  0  0  0  0  0  0  0  0  0
   -3.6016   -0.2570    1.8783 O   0  0  0  0  0  0  0  0  0  0  0  0
   -3.9609    2.0048    1.3662 C   0  0  0  0  0  0  0  0  0  0  0  0
   -3.3205    3.1368    1.8975 C   0  0  0  0  0  0  0  0  0  0  0  0
   -4.0100    4.3454    1.9939 C   0  0  0  0  0  0  0  0  0  0  0  0
   -5.3346    4.4263    1.5637 C   0  0  0  0  0  0  0  0  0  0  0  0
   -5.9718    3.3014    1.0340 C   0  0  0  0  0  0  0  0  0  0  0  0
   -5.2888    2.0855    0.9341 C   0  0  0  0  0  0  0  0  0  0  0  0
   -6.1212    0.7590    0.2134 Cl  0  0  0  0  0  0  0  0  0  0  0  0
    3.6265   -1.6658   -1.6143 C   0  0  0  0  0  0  0  0  0  0  0  0
    5.8210   -3.3331   -1.0008 H   0  0  0  0  0  0  0  0  0  0  0  0
    7.3931   -2.5285   -0.9777 H   0  0  0  0  0  0  0  0  0  0  0  0
    6.0458   -1.7656   -0.1232 H   0  0  0  0  0  0  0  0  0  0  0  0
    5.3242   -0.3268   -4.2375 H   0  0  0  0  0  0  0  0  0  0  0  0
    3.0279    0.3638   -4.8615 H   0  0  0  0  0  0  0  0  0  0  0  0
    1.1204   -0.2342   -3.4264 H   0  0  0  0  0  0  0  0  0  0  0  0
    0.3024   -1.2064   -1.5286 H   0  0  0  0  0  0  0  0  0  0  0  0
   -0.9160   -2.7982   -0.2740 H   0  0  0  0  0  0  0  0  0  0  0  0
   -0.3035   -3.1247    1.3445 H   0  0  0  0  0  0  0  0  0  0  0  0
   -0.8069    0.2875    2.6990 H   0  0  0  0  0  0  0  0  0  0  0  0
   -1.4596   -1.3416    3.0485 H   0  0  0  0  0  0  0  0  0  0  0  0
    0.2836   -1.0962    2.8190 H   0  0  0  0  0  0  0  0  0  0  0  0
   -2.0339    1.5705   -0.1718 H   0  0  0  0  0  0  0  0  0  0  0  0
   -2.2942    3.0768    2.2558 H   0  0  0  0  0  0  0  0  0  0  0  0
   -3.5186    5.2225    2.4127 H   0  0  0  0  0  0  0  0  0  0  0  0
   -5.8749    5.3656    1.6438 H   0  0  0  0  0  0  0  0  0  0  0  0
   -7.0040    3.3795    0.6980 H   0  0  0  0  0  0  0  0  0  0  0  0
    3.7966   -2.2359   -0.7113 H   0  0  0  0  0  0  0  0  0  0  0  0
  1  2  1  0
  2  3  1  0
  3  4  2  0
  4  5  1  0
  5  6  2  0
  6  7  1  0
  7  8  1  0
  8  9  1  0
  9 10  2  0
  9 11  1  0
 11 12  1  0
 12 13  1  0
 12 14  2  3
 14 15  1  0
 15 16  1  0
 16 17  2  0
 16 18  1  0
 18 19  2  0
 19 20  1  0
 20 21  2  0
 21 22  1  0
 22 23  2  0
 23 24  1  0
  7 25  2  0
 25  3  1  0
 23 18  1  0
  1 26  1  0
  1 27  1  0
  1 28  1  0
  4 29  1  0
  5 30  1  0
  6 31  1  0
  8 32  1  0
 11 33  1  0
 11 34  1  0
 13 35  1  0
 13 36  1  0
 13 37  1  0
 15 38  1  0
 19 39  1  0
 20 40  1  0
 21 41  1  0
 22 42  1  0
 25 43  1  0
M  END
$$$$
