
     RDKit          3D

 48 50  0  0  0  0  0  0  0  0999 V2000
    5.1087    1.0823   -0.1941 C   0  0  0  0  0  0  0  0  0  0  0  0
    4.4950   -0.2382   -0.4901 C   0  0  0  0  0  0  0  0  0  0  0  0
    5.0800   -1.4841   -0.2870 C   0  0  0  0  0  0  0  0  0  0  0  0
    6.3731   -1.8428    0.2396 C   0  0  0  0  0  0  0  0  0  0  0  0
    7.2523   -1.0895    0.6345 O   0  0  0  0  0  0  0  0  0  0  0  0
    6.5645   -3.1808    0.2721 O   0  0  0  0  0  0  0  0  0  0  0  0
    4.2154   -2.4707   -0.6796 O   0  0  0  0  0  0  0  0  0  0  0  0
    3.0856   -1.8714   -1.1324 C   0  0  0  0  0  0  0  0  0  0  0  0
    1.9665   -2.5398   -1.6272 C   0  0  0  0  0  0  0  0  0  0  0  0
    0.8954   -1.7448   -2.0464 C   0  0  0  0  0  0  0  0  0  0  0  0
    0.9692   -0.3502   -1.9542 C   0  0  0  0  0  0  0  0  0  0  0  0
   -0.4027    0.6423   -2.4943 S   0  0  0  0  0  6  0  0  0  0  0  0
    0.1376    1.8214   -3.1336 O   0  0  0  0  0  0  0  0  0  0  0  0
   -1.3669   -0.2101   -3.1523 O   0  0  0  0  0  0  0  0  0  0  0  0
   -1.0500    1.1487   -1.0393 N   0  0  0  0  0  0  0  0  0  0  0  0
   -1.8726    0.2460   -0.2195 C   0  0  0  0  0  0  0  0  0  0  0  0
   -3.3526    0.5753   -0.4537 C   0  0  0  0  0  0  0  0  0  0  0  0
   -3.8494    1.8259    0.2737 C   0  0  0  0  0  0  0  0  0  0  0  0
   -4.8958    1.5465    1.3508 C   0  0  0  0  0  0  0  0  0  0  0  0
   -4.6194    0.3927    2.3160 C   0  0  0  0  0  0  0  0  0  0  0  0
   -3.2496    0.4025    2.9912 C   0  0  0  0  0  0  0  0  0  0  0  0
   -2.1685   -0.4147    2.2721 C   0  0  0  0  0  0  0  0  0  0  0  0
   -1.3649    0.3575    1.2266 C   0  0  0  0  0  0  0  0  0  0  0  0
    2.1149    0.3000   -1.4624 C   0  0  0  0  0  0  0  0  0  0  0  0
    3.1989   -0.4904   -1.0370 C   0  0  0  0  0  0  0  0  0  0  0  0
    4.4352    1.9062   -0.4487 H   0  0  0  0  0  0  0  0  0  0  0  0
    5.3485    1.1628    0.8710 H   0  0  0  0  0  0  0  0  0  0  0  0
    6.0307    1.2135   -0.7696 H   0  0  0  0  0  0  0  0  0  0  0  0
    7.4648   -3.2763    0.6409 H   0  0  0  0  0  0  0  0  0  0  0  0
    1.9380   -3.6217   -1.6848 H   0  0  0  0  0  0  0  0  0  0  0  0
    0.0040   -2.2260   -2.4457 H   0  0  0  0  0  0  0  0  0  0  0  0
   -1.1285    2.1576   -0.9263 H   0  0  0  0  0  0  0  0  0  0  0  0
   -1.7074   -0.7884   -0.5457 H   0  0  0  0  0  0  0  0  0  0  0  0
   -3.9598   -0.2981   -0.1935 H   0  0  0  0  0  0  0  0  0  0  0  0
   -3.5174    0.7187   -1.5302 H   0  0  0  0  0  0  0  0  0  0  0  0
   -4.3096    2.4969   -0.4637 H   0  0  0  0  0  0  0  0  0  0  0  0
   -3.0259    2.4043    0.7039 H   0  0  0  0  0  0  0  0  0  0  0  0
   -5.8579    1.3486    0.8606 H   0  0  0  0  0  0  0  0  0  0  0  0
   -5.0411    2.4672    1.9303 H   0  0  0  0  0  0  0  0  0  0  0  0
   -4.7968   -0.5711    1.8256 H   0  0  0  0  0  0  0  0  0  0  0  0
   -5.3825    0.4561    3.1038 H   0  0  0  0  0  0  0  0  0  0  0  0
   -2.9124    1.4262    3.1894 H   0  0  0  0  0  0  0  0  0  0  0  0
   -3.3845   -0.0641    3.9767 H   0  0  0  0  0  0  0  0  0  0  0  0
   -2.5785   -1.3406    1.8530 H   0  0  0  0  0  0  0  0  0  0  0  0
   -1.4537   -0.7282    3.0454 H   0  0  0  0  0  0  0  0  0  0  0  0
   -1.2485    1.4043    1.5330 H   0  0  0  0  0  0  0  0  0  0  0  0
   -0.3416   -0.0458    1.2339 H   0  0  0  0  0  0  0  0  0  0  0  0
    2.1604    1.3843   -1.4127 H   0  0  0  0  0  0  0  0  0  0  0  0
  1  2  1  0
  2  3  2  0
  3  4  1  0
  4  5  2  0
  4  6  1  0
  3  7  1  0
  7  8  1  0
  8  9  2  0
  9 10  1  0
 10 11  2  0
 11 12  1  0
 12 13  2  0
 12 14  2  0
 12 15  1  0
 15 16  1  0
 16 17  1  0
 17 18  1  0
 18 19  1  0
 19 20  1  0
 20 21  1  0
 21 22  1  0
 22 23  1  0
 11 24  1  0
 24 25  2  0
 25  2  1  0
 25  8  1  0
 23 16  1  0
  1 26  1  0
  1 27  1  0
  1 28  1  0
  6 29  1  0
  9 30  1  0
 10 31  1  0
 15 32  1  0
 16 33  1  0
 17 34  1  0
 17 35  1  0
 18 36  1  0
 18 37  1  0
 19 38  1  0
 19 39  1  0
 20 40  1  0
 20 41  1  0
 21 42  1  0
 21 43  1  0
 22 44  1  0
 22 45  1  0
 23 46  1  0
 23 47  1  0
 24 48  1  0
M  END
$$$$
