
     RDKit          3D

 64 68  0  0  0  0  0  0  0  0999 V2000
   -5.3435   -1.6695   -2.1033 C   0  0  0  0  0  0  0  0  0  0  0  0
   -4.1559   -2.0147   -3.0292 C   0  0  0  0  0  0  0  0  0  0  0  0
   -3.9557   -3.5367   -2.9856 C   0  0  0  0  0  0  0  0  0  0  0  0
   -4.5280   -1.5726   -4.4545 C   0  0  0  0  0  0  0  0  0  0  0  0
   -2.9212   -1.2009   -2.5548 C   0  0  0  0  0  0  0  0  0  0  0  0
   -3.0581   -0.0604   -2.0988 O   0  0  0  0  0  0  0  0  0  0  0  0
   -1.5269   -1.7109   -2.7580 C   0  0  0  0  0  0  0  0  0  0  0  0
   -1.2118   -2.1423   -4.0795 C   0  0  0  0  0  0  0  0  0  0  0  0
   -0.9692   -2.5086   -5.1533 N   0  0  0  0  0  0  0  0  0  0  0  0
   -0.5652   -1.5592   -1.8159 C   0  0  0  0  0  0  0  0  0  0  0  0
    1.1407   -1.7265   -2.2269 S   0  0  0  0  0  0  0  0  0  0  0  0
    1.5985   -0.7707   -0.8640 C   0  0  0  0  0  0  0  0  0  0  0  0
    2.7957   -0.1703   -0.7658 C   0  0  0  0  0  0  0  0  0  0  0  0
    3.2258    0.7257    0.2569 C   0  0  0  0  0  0  0  0  0  0  0  0
    4.3987    0.5926    0.9596 C   0  0  0  0  0  0  0  0  0  0  0  0
    4.4214    1.6054    1.8941 N   0  0  0  0  0  0  0  0  0  0  0  0
    5.3940    1.8378    2.9085 C   0  0  0  0  0  0  0  0  0  0  0  0
    6.4900    0.9789    3.0785 C   0  0  0  0  0  0  0  0  0  0  0  0
    7.4197    1.2210    4.0952 C   0  0  0  0  0  0  0  0  0  0  0  0
    7.2640    2.3165    4.9432 C   0  0  0  0  0  0  0  0  0  0  0  0
    6.1791    3.1761    4.7782 C   0  0  0  0  0  0  0  0  0  0  0  0
    5.2463    2.9400    3.7649 C   0  0  0  0  0  0  0  0  0  0  0  0
    3.3520    2.4288    1.7557 N   0  0  0  0  0  0  0  0  0  0  0  0
    2.6161    1.9053    0.7659 C   0  0  0  0  0  0  0  0  0  0  0  0
    1.3738    2.5413    0.3451 C   0  0  0  0  0  0  0  0  0  0  0  0
    1.0818    2.7735   -1.0017 C   0  0  0  0  0  0  0  0  0  0  0  0
   -0.1484    3.3299   -1.3552 C   0  0  0  0  0  0  0  0  0  0  0  0
   -1.0479    3.6385   -0.3468 C   0  0  0  0  0  0  0  0  0  0  0  0
   -0.7991    3.4398    0.9652 N   0  0  0  0  0  0  0  0  0  0  0  0
    0.4097    2.9023    1.2809 C   0  0  0  0  0  0  0  0  0  0  0  0
    0.4898   -0.7246    0.1302 C   0  0  0  0  0  0  0  0  0  0  0  0
    0.6542   -0.4316    1.3057 O   0  0  0  0  0  0  0  0  0  0  0  0
   -0.6997   -1.1550   -0.4863 N   0  0  0  0  0  0  0  0  0  0  0  0
   -1.8351   -1.3519    0.3535 C   0  0  0  0  0  0  0  0  0  0  0  0
   -2.4817   -2.5965    0.3922 C   0  0  0  0  0  0  0  0  0  0  0  0
   -3.5478   -2.8087    1.2717 C   0  0  0  0  0  0  0  0  0  0  0  0
   -3.9701   -1.7778    2.1024 C   0  0  0  0  0  0  0  0  0  0  0  0
   -4.9929   -1.9866    2.9415 F   0  0  0  0  0  0  0  0  0  0  0  0
   -3.3444   -0.5374    2.0759 C   0  0  0  0  0  0  0  0  0  0  0  0
   -2.2674   -0.3299    1.2121 C   0  0  0  0  0  0  0  0  0  0  0  0
   -5.1318   -1.9450   -1.0693 H   0  0  0  0  0  0  0  0  0  0  0  0
   -6.2566   -2.1909   -2.4080 H   0  0  0  0  0  0  0  0  0  0  0  0
   -5.5631   -0.5967   -2.1142 H   0  0  0  0  0  0  0  0  0  0  0  0
   -3.2345   -3.8875   -3.7285 H   0  0  0  0  0  0  0  0  0  0  0  0
   -3.6072   -3.8671   -2.0037 H   0  0  0  0  0  0  0  0  0  0  0  0
   -4.8975   -4.0599   -3.1908 H   0  0  0  0  0  0  0  0  0  0  0  0
   -3.7385   -1.8039   -5.1761 H   0  0  0  0  0  0  0  0  0  0  0  0
   -5.4412   -2.0740   -4.7973 H   0  0  0  0  0  0  0  0  0  0  0  0
   -4.7006   -0.4906   -4.5044 H   0  0  0  0  0  0  0  0  0  0  0  0
    3.5260   -0.3517   -1.5540 H   0  0  0  0  0  0  0  0  0  0  0  0
    5.1797   -0.1479    0.8995 H   0  0  0  0  0  0  0  0  0  0  0  0
    6.6500    0.1148    2.4450 H   0  0  0  0  0  0  0  0  0  0  0  0
    8.2671    0.5515    4.2281 H   0  0  0  0  0  0  0  0  0  0  0  0
    7.9885    2.5010    5.7331 H   0  0  0  0  0  0  0  0  0  0  0  0
    6.0527    4.0304    5.4392 H   0  0  0  0  0  0  0  0  0  0  0  0
    4.4061    3.6258    3.6583 H   0  0  0  0  0  0  0  0  0  0  0  0
    1.8059    2.5391   -1.7752 H   0  0  0  0  0  0  0  0  0  0  0  0
   -0.4008    3.5204   -2.3937 H   0  0  0  0  0  0  0  0  0  0  0  0
   -2.0202    4.0732   -0.5755 H   0  0  0  0  0  0  0  0  0  0  0  0
    0.5760    2.7431    2.3436 H   0  0  0  0  0  0  0  0  0  0  0  0
   -2.1289   -3.4254   -0.2113 H   0  0  0  0  0  0  0  0  0  0  0  0
   -4.0411   -3.7754    1.3308 H   0  0  0  0  0  0  0  0  0  0  0  0
   -3.6874    0.2595    2.7290 H   0  0  0  0  0  0  0  0  0  0  0  0
   -1.7841    0.6473    1.1979 H   0  0  0  0  0  0  0  0  0  0  0  0
  1  2  1  0
  2  3  1  0
  2  4  1  0
  2  5  1  0
  5  6  2  0
  5  7  1  0
  7  8  1  0
  8  9  3  0
  7 10  2  3
 10 11  1  0
 11 12  1  0
 12 13  2  3
 13 14  1  0
 14 15  2  0
 15 16  1  0
 16 17  1  0
 17 18  2  0
 18 19  1  0
 19 20  2  0
 20 21  1  0
 21 22  2  0
 16 23  1  0
 23 24  2  0
 24 25  1  0
 25 26  2  0
 26 27  1  0
 27 28  2  0
 28 29  1  0
 29 30  2  0
 12 31  1  0
 31 32  2  0
 31 33  1  0
 33 34  1  0
 34 35  2  0
 35 36  1  0
 36 37  2  0
 37 38  1  0
 37 39  1  0
 39 40  2  0
 33 10  1  0
 40 34  1  0
 24 14  1  0
 30 25  1  0
 22 17  1  0
  1 41  1  0
  1 42  1  0
  1 43  1  0
  3 44  1  0
  3 45  1  0
  3 46  1  0
  4 47  1  0
  4 48  1  0
  4 49  1  0
 13 50  1  0
 15 51  1  0
 18 52  1  0
 19 53  1  0
 20 54  1  0
 21 55  1  0
 22 56  1  0
 26 57  1  0
 27 58  1  0
 28 59  1  0
 30 60  1  0
 35 61  1  0
 36 62  1  0
 39 63  1  0
 40 64  1  0
M  END
$$$$
