
     RDKit          3D

 83 87  0  0  0  0  0  0  0  0999 V2000
    5.0635   -5.2227   -1.7362 C   0  0  0  0  0  0  0  0  0  0  0  0
    3.9384   -4.2293   -1.7678 C   0  0  0  0  0  0  0  0  0  0  0  0
    2.6221   -4.6599   -1.5461 C   0  0  0  0  0  0  0  0  0  0  0  0
    1.5654   -3.7487   -1.5683 C   0  0  0  0  0  0  0  0  0  0  0  0
    1.8302   -2.3952   -1.7932 C   0  0  0  0  0  0  0  0  0  0  0  0
    0.4902   -1.2330   -1.8393 S   0  0  0  0  0  6  0  0  0  0  0  0
    0.8880   -0.1213   -2.6719 O   0  0  0  0  0  0  0  0  0  0  0  0
   -0.7376   -1.9504   -2.1115 O   0  0  0  0  0  0  0  0  0  0  0  0
    0.3745   -0.6890   -0.2260 N   0  0  0  0  0  0  0  0  0  0  0  0
    0.0749   -1.7124    0.8035 C   0  0  0  0  0  0  0  0  0  0  0  0
    1.3920    0.3067    0.2232 C   0  0  0  0  0  0  0  0  0  0  0  0
    0.6960    1.6195    0.6715 C   0  0  0  0  0  0  0  0  0  0  0  0
    0.1013    2.1772   -0.5201 O   0  0  0  0  0  0  0  0  0  0  0  0
   -1.0767    2.8386   -0.2704 C   0  0  0  0  0  0  0  0  0  0  0  0
   -2.2851    2.1412   -0.0755 C   0  0  0  0  0  0  0  0  0  0  0  0
   -2.3036    0.7315   -0.2043 N   0  0  0  0  0  0  0  0  0  0  0  0
   -3.2665   -0.1220    0.3071 C   0  0  0  0  0  0  0  0  0  0  0  0
   -4.1288    0.2203    1.1087 O   0  0  0  0  0  0  0  0  0  0  0  0
   -3.1092   -1.4080   -0.1850 N   0  0  0  0  0  0  0  0  0  0  0  0
   -3.7500   -2.5834    0.2985 C   0  0  0  0  0  0  0  0  0  0  0  0
   -4.2759   -2.6161    1.5988 C   0  0  0  0  0  0  0  0  0  0  0  0
   -4.8277   -3.7814    2.1235 C   0  0  0  0  0  0  0  0  0  0  0  0
   -4.8537   -4.9410    1.3600 C   0  0  0  0  0  0  0  0  0  0  0  0
   -4.3441   -4.9505    0.0561 C   0  0  0  0  0  0  0  0  0  0  0  0
   -4.3909   -6.1406   -0.6899 C   0  0  0  0  0  0  0  0  0  0  0  0
   -3.9174   -6.1885   -1.9980 C   0  0  0  0  0  0  0  0  0  0  0  0
   -3.4015   -5.0410   -2.5799 C   0  0  0  0  0  0  0  0  0  0  0  0
   -3.3489   -3.8498   -1.8488 C   0  0  0  0  0  0  0  0  0  0  0  0
   -3.7942   -3.7659   -0.5055 C   0  0  0  0  0  0  0  0  0  0  0  0
   -3.4568    2.8701    0.1687 C   0  0  0  0  0  0  0  0  0  0  0  0
   -3.4464    4.2669    0.1801 C   0  0  0  0  0  0  0  0  0  0  0  0
   -2.2637    4.9523   -0.0681 C   0  0  0  0  0  0  0  0  0  0  0  0
   -1.0788    4.2395   -0.2870 C   0  0  0  0  0  0  0  0  0  0  0  0
    0.1383    5.0250   -0.5767 C   0  0  0  0  0  0  0  0  0  0  0  0
    0.0558    5.8870   -1.4516 O   0  0  0  0  0  0  0  0  0  0  0  0
    1.3019    4.7953    0.1703 N   0  0  0  0  0  0  0  0  0  0  0  0
    2.4732    5.6501   -0.1448 C   0  0  0  0  0  0  0  0  0  0  0  0
    2.4814    6.9165    0.7158 C   0  0  0  0  0  0  0  0  0  0  0  0
    3.8336    4.9251   -0.1184 C   0  0  0  0  0  0  0  0  0  0  0  0
    4.2710    4.6159    1.2035 O   0  0  0  0  0  0  0  0  0  0  0  0
    1.2808    4.0384    1.4290 C   0  0  0  0  0  0  0  0  0  0  0  0
    1.7500    2.5779    1.2927 C   0  0  0  0  0  0  0  0  0  0  0  0
    2.1724    2.0843    2.6865 C   0  0  0  0  0  0  0  0  0  0  0  0
    3.1339   -1.9558   -2.0357 C   0  0  0  0  0  0  0  0  0  0  0  0
    4.1860   -2.8726   -2.0137 C   0  0  0  0  0  0  0  0  0  0  0  0
    5.1853   -5.6191   -0.7230 H   0  0  0  0  0  0  0  0  0  0  0  0
    4.8593   -6.0488   -2.4250 H   0  0  0  0  0  0  0  0  0  0  0  0
    6.0113   -4.7653   -2.0398 H   0  0  0  0  0  0  0  0  0  0  0  0
    2.4144   -5.7130   -1.3656 H   0  0  0  0  0  0  0  0  0  0  0  0
    0.5475   -4.1015   -1.4154 H   0  0  0  0  0  0  0  0  0  0  0  0
   -0.6288   -2.4620    0.4365 H   0  0  0  0  0  0  0  0  0  0  0  0
   -0.3833   -1.2271    1.6711 H   0  0  0  0  0  0  0  0  0  0  0  0
    0.9879   -2.2199    1.1281 H   0  0  0  0  0  0  0  0  0  0  0  0
    1.9889   -0.1319    1.0273 H   0  0  0  0  0  0  0  0  0  0  0  0
    2.0899    0.5357   -0.5887 H   0  0  0  0  0  0  0  0  0  0  0  0
   -0.0715    1.3792    1.4201 H   0  0  0  0  0  0  0  0  0  0  0  0
   -1.4272    0.3044   -0.4861 H   0  0  0  0  0  0  0  0  0  0  0  0
   -2.6048   -1.4773   -1.0618 H   0  0  0  0  0  0  0  0  0  0  0  0
   -4.2463   -1.7444    2.2457 H   0  0  0  0  0  0  0  0  0  0  0  0
   -5.2293   -3.7833    3.1340 H   0  0  0  0  0  0  0  0  0  0  0  0
   -5.2851   -5.8412    1.7935 H   0  0  0  0  0  0  0  0  0  0  0  0
   -4.8087   -7.0467   -0.2551 H   0  0  0  0  0  0  0  0  0  0  0  0
   -3.9670   -7.1150   -2.5629 H   0  0  0  0  0  0  0  0  0  0  0  0
   -3.0472   -5.0600   -3.6075 H   0  0  0  0  0  0  0  0  0  0  0  0
   -2.9702   -2.9755   -2.3689 H   0  0  0  0  0  0  0  0  0  0  0  0
   -4.4122    2.3710    0.3100 H   0  0  0  0  0  0  0  0  0  0  0  0
   -4.3709    4.8127    0.3511 H   0  0  0  0  0  0  0  0  0  0  0  0
   -2.2591    6.0398   -0.0982 H   0  0  0  0  0  0  0  0  0  0  0  0
    2.3537    5.9800   -1.1841 H   0  0  0  0  0  0  0  0  0  0  0  0
    2.6390    6.6921    1.7759 H   0  0  0  0  0  0  0  0  0  0  0  0
    3.2795    7.5939    0.3944 H   0  0  0  0  0  0  0  0  0  0  0  0
    1.5298    7.4525    0.6310 H   0  0  0  0  0  0  0  0  0  0  0  0
    3.7902    3.9983   -0.6980 H   0  0  0  0  0  0  0  0  0  0  0  0
    4.5957    5.5688   -0.5709 H   0  0  0  0  0  0  0  0  0  0  0  0
    5.1638    4.2390    1.1233 H   0  0  0  0  0  0  0  0  0  0  0  0
    1.9108    4.5765    2.1447 H   0  0  0  0  0  0  0  0  0  0  0  0
    0.2781    4.0692    1.8702 H   0  0  0  0  0  0  0  0  0  0  0  0
    2.6368    2.5588    0.6503 H   0  0  0  0  0  0  0  0  0  0  0  0
    2.5865    1.0742    2.6626 H   0  0  0  0  0  0  0  0  0  0  0  0
    1.3209    2.0851    3.3743 H   0  0  0  0  0  0  0  0  0  0  0  0
    2.9467    2.7330    3.1104 H   0  0  0  0  0  0  0  0  0  0  0  0
    3.3385   -0.9102   -2.2525 H   0  0  0  0  0  0  0  0  0  0  0  0
    5.1994   -2.5224   -2.2013 H   0  0  0  0  0  0  0  0  0  0  0  0
  1  2  1  0
  2  3  2  0
  3  4  1  0
  4  5  2  0
  5  6  1  0
  6  7  2  0
  6  8  2  0
  6  9  1  0
  9 10  1  0
  9 11  1  0
 11 12  1  0
 12 13  1  0
 13 14  1  0
 14 15  2  0
 15 16  1  0
 16 17  1  0
 17 18  2  0
 17 19  1  0
 19 20  1  0
 20 21  2  0
 21 22  1  0
 22 23  2  0
 23 24  1  0
 24 25  2  0
 25 26  1  0
 26 27  2  0
 27 28  1  0
 28 29  2  0
 15 30  1  0
 30 31  2  0
 31 32  1  0
 32 33  2  0
 33 34  1  0
 34 35  2  0
 34 36  1  0
 36 37  1  0
 37 38  1  0
 37 39  1  0
 39 40  1  0
 36 41  1  0
 41 42  1  0
 42 43  1  0
  5 44  1  0
 44 45  2  0
 45  2  1  0
 42 12  1  0
 33 14  1  0
 29 20  1  0
 29 24  1  0
  1 46  1  0
  1 47  1  0
  1 48  1  0
  3 49  1  0
  4 50  1  0
 10 51  1  0
 10 52  1  0
 10 53  1  0
 11 54  1  0
 11 55  1  0
 12 56  1  0
 16 57  1  0
 19 58  1  0
 21 59  1  0
 22 60  1  0
 23 61  1  0
 25 62  1  0
 26 63  1  0
 27 64  1  0
 28 65  1  0
 30 66  1  0
 31 67  1  0
 32 68  1  0
 37 69  1  0
 38 70  1  0
 38 71  1  0
 38 72  1  0
 39 73  1  0
 39 74  1  0
 40 75  1  0
 41 76  1  0
 41 77  1  0
 42 78  1  0
 43 79  1  0
 43 80  1  0
 43 81  1  0
 44 82  1  0
 45 83  1  0
M  END
$$$$
