
     RDKit          3D

 37 38  0  0  0  0  0  0  0  0999 V2000
   -3.3211    2.2832   -1.6080 C   0  0  0  0  0  0  0  0  0  0  0  0
   -3.4844    0.9860   -0.8752 C   0  0  0  0  0  0  0  0  0  0  0  0
   -4.6554    0.2501   -1.0111 C   0  0  0  0  0  0  0  0  0  0  0  0
   -4.7864   -0.9538   -0.3133 C   0  0  0  0  0  0  0  0  0  0  0  0
   -6.0316   -1.7880   -0.4382 C   0  0  0  0  0  0  0  0  0  0  0  0
   -6.3658   -2.4212    0.7188 F   0  0  0  0  0  0  0  0  0  0  0  0
   -7.1257   -1.0603   -0.7942 F   0  0  0  0  0  0  0  0  0  0  0  0
   -5.9071   -2.7628   -1.3792 F   0  0  0  0  0  0  0  0  0  0  0  0
   -3.7179   -1.3831    0.4806 C   0  0  0  0  0  0  0  0  0  0  0  0
   -2.5656   -0.6092    0.5501 C   0  0  0  0  0  0  0  0  0  0  0  0
   -1.4990   -1.0483    1.3785 N   0  0  0  0  0  0  0  0  0  0  0  0
   -0.3285   -0.2491    1.1595 N   0  0  0  0  0  0  0  0  0  0  0  0
    0.7370   -0.9403    0.5876 C   0  0  0  0  0  0  0  0  0  0  0  0
    0.7297   -2.1604    0.4596 O   0  0  0  0  0  0  0  0  0  0  0  0
    1.7730   -0.0903    0.2809 N   0  0  0  0  0  0  0  0  0  0  0  0
    2.9077   -0.5345   -0.3609 C   0  0  0  0  0  0  0  0  0  0  0  0
    2.9129   -1.2409   -1.3622 O   0  0  0  0  0  0  0  0  0  0  0  0
    4.1861    0.0606    0.1174 C   0  0  0  0  0  0  0  0  0  0  0  0
    5.1963    0.3229   -0.8180 C   0  0  0  0  0  0  0  0  0  0  0  0
    6.4120    0.8723   -0.4023 C   0  0  0  0  0  0  0  0  0  0  0  0
    6.6219    1.1460    0.9489 C   0  0  0  0  0  0  0  0  0  0  0  0
    8.1183    1.8201    1.4633 Cl  0  0  0  0  0  0  0  0  0  0  0  0
    5.6281    0.8709    1.8893 C   0  0  0  0  0  0  0  0  0  0  0  0
    4.4088    0.3239    1.4765 C   0  0  0  0  0  0  0  0  0  0  0  0
   -2.4504    0.5729   -0.1067 N   0  0  0  0  0  0  0  0  0  0  0  0
   -4.1513    2.9582   -1.3754 H   0  0  0  0  0  0  0  0  0  0  0  0
   -3.2948    2.1016   -2.6877 H   0  0  0  0  0  0  0  0  0  0  0  0
   -2.3882    2.7805   -1.3220 H   0  0  0  0  0  0  0  0  0  0  0  0
   -5.4601    0.6124   -1.6469 H   0  0  0  0  0  0  0  0  0  0  0  0
   -3.7847   -2.3125    1.0413 H   0  0  0  0  0  0  0  0  0  0  0  0
   -1.2849   -2.0299    1.1553 H   0  0  0  0  0  0  0  0  0  0  0  0
   -0.5774    0.6247    0.6872 H   0  0  0  0  0  0  0  0  0  0  0  0
    1.8518    0.6837    0.9195 H   0  0  0  0  0  0  0  0  0  0  0  0
    5.0395    0.0958   -1.8723 H   0  0  0  0  0  0  0  0  0  0  0  0
    7.1903    1.0722   -1.1342 H   0  0  0  0  0  0  0  0  0  0  0  0
    5.8034    1.0669    2.9451 H   0  0  0  0  0  0  0  0  0  0  0  0
    3.6635    0.0801    2.2288 H   0  0  0  0  0  0  0  0  0  0  0  0
  1  2  1  0
  2  3  2  0
  3  4  1  0
  4  5  1  0
  5  6  1  0
  5  7  1  0
  5  8  1  0
  4  9  2  0
  9 10  1  0
 10 11  1  0
 11 12  1  0
 12 13  1  0
 13 14  2  0
 13 15  1  0
 15 16  1  0
 16 17  2  0
 16 18  1  0
 18 19  2  0
 19 20  1  0
 20 21  2  0
 21 22  1  0
 21 23  1  0
 23 24  2  0
 10 25  2  0
 25  2  1  0
 24 18  1  0
  1 26  1  0
  1 27  1  0
  1 28  1  0
  3 29  1  0
  9 30  1  0
 11 31  1  0
 12 32  1  0
 15 33  1  0
 19 34  1  0
 20 35  1  0
 23 36  1  0
 24 37  1  0
M  END
$$$$
