
     RDKit          3D

 50 52  0  0  0  0  0  0  0  0999 V2000
    3.2889   -2.1591    0.9373 O   0  0  0  0  0  0  0  0  0  0  0  0
    3.3058   -0.9546    0.7269 C   0  0  0  0  0  0  0  0  0  0  0  0
    3.9920    0.0549    1.6155 C   0  0  0  0  0  0  0  0  0  0  0  0
    5.4706    0.1553    1.3443 C   0  0  0  0  0  0  0  0  0  0  0  0
    6.3521   -0.8038    1.8689 C   0  0  0  0  0  0  0  0  0  0  0  0
    7.7199   -0.7223    1.6064 C   0  0  0  0  0  0  0  0  0  0  0  0
    8.2055    0.3118    0.8163 C   0  0  0  0  0  0  0  0  0  0  0  0
    9.5186    0.3904    0.5641 F   0  0  0  0  0  0  0  0  0  0  0  0
    7.3485    1.2659    0.2809 C   0  0  0  0  0  0  0  0  0  0  0  0
    5.9797    1.1869    0.5412 C   0  0  0  0  0  0  0  0  0  0  0  0
    2.7286   -0.3352   -0.3406 O   0  0  0  0  0  0  0  0  0  0  0  0
    2.0590   -1.2084   -1.2468 C   0  0  0  0  0  0  0  0  0  0  0  0
    0.7525   -1.8414   -0.7408 C   0  0  0  0  0  0  0  0  0  0  0  0
    0.5876   -3.0611   -0.8093 O   0  0  0  0  0  0  0  0  0  0  0  0
   -0.2420   -0.9941   -0.2649 N   0  0  0  0  0  0  0  0  0  0  0  0
   -1.5123   -1.5704    0.1883 C   0  0  0  0  0  0  0  0  0  0  0  0
   -2.7092   -0.8629   -0.4569 C   0  0  0  0  0  0  0  0  0  0  0  0
   -2.7196    0.6183   -0.1889 N   0  0  0  0  0  0  0  0  0  0  0  0
   -4.0328    1.1823    0.7481 S   0  0  0  0  0  6  0  0  0  0  0  0
   -4.1119    0.3337    1.9180 O   0  0  0  0  0  0  0  0  0  0  0  0
   -3.9142    2.6199    0.8645 O   0  0  0  0  0  0  0  0  0  0  0  0
   -5.4286    0.8491   -0.2979 C   0  0  0  0  0  0  0  0  0  0  0  0
   -6.4034   -0.0709    0.1006 C   0  0  0  0  0  0  0  0  0  0  0  0
   -7.4950   -0.3175   -0.7352 C   0  0  0  0  0  0  0  0  0  0  0  0
   -7.6063    0.3585   -1.9518 C   0  0  0  0  0  0  0  0  0  0  0  0
   -8.9511    0.0490   -2.9785 Cl  0  0  0  0  0  0  0  0  0  0  0  0
   -6.6365    1.2837   -2.3426 C   0  0  0  0  0  0  0  0  0  0  0  0
   -5.5421    1.5341   -1.5126 C   0  0  0  0  0  0  0  0  0  0  0  0
   -1.4052    1.1512    0.2968 C   0  0  0  0  0  0  0  0  0  0  0  0
   -0.2203    0.4670   -0.3980 C   0  0  0  0  0  0  0  0  0  0  0  0
    3.8138   -0.2300    2.6594 H   0  0  0  0  0  0  0  0  0  0  0  0
    3.5078    1.0325    1.5001 H   0  0  0  0  0  0  0  0  0  0  0  0
    5.9762   -1.6236    2.4792 H   0  0  0  0  0  0  0  0  0  0  0  0
    8.4067   -1.4598    2.0082 H   0  0  0  0  0  0  0  0  0  0  0  0
    7.7522    2.0616   -0.3366 H   0  0  0  0  0  0  0  0  0  0  0  0
    5.3162    1.9350    0.1128 H   0  0  0  0  0  0  0  0  0  0  0  0
    2.7428   -2.0056   -1.5653 H   0  0  0  0  0  0  0  0  0  0  0  0
    1.8213   -0.6318   -2.1480 H   0  0  0  0  0  0  0  0  0  0  0  0
   -1.5442   -1.4555    1.2782 H   0  0  0  0  0  0  0  0  0  0  0  0
   -1.5619   -2.6420   -0.0266 H   0  0  0  0  0  0  0  0  0  0  0  0
   -2.6747   -0.9886   -1.5463 H   0  0  0  0  0  0  0  0  0  0  0  0
   -3.6323   -1.3398   -0.1128 H   0  0  0  0  0  0  0  0  0  0  0  0
   -6.3237   -0.5938    1.0516 H   0  0  0  0  0  0  0  0  0  0  0  0
   -8.2562   -1.0325   -0.4322 H   0  0  0  0  0  0  0  0  0  0  0  0
   -6.7310    1.8137   -3.2871 H   0  0  0  0  0  0  0  0  0  0  0  0
   -4.7878    2.2601   -1.8098 H   0  0  0  0  0  0  0  0  0  0  0  0
   -1.3250    1.0023    1.3808 H   0  0  0  0  0  0  0  0  0  0  0  0
   -1.3597    2.2266    0.0914 H   0  0  0  0  0  0  0  0  0  0  0  0
    0.7096    0.8579    0.0218 H   0  0  0  0  0  0  0  0  0  0  0  0
   -0.2289    0.6943   -1.4717 H   0  0  0  0  0  0  0  0  0  0  0  0
  1  2  2  0
  2  3  1  0
  3  4  1  0
  4  5  2  0
  5  6  1  0
  6  7  2  0
  7  8  1  0
  7  9  1  0
  9 10  2  0
  2 11  1  0
 11 12  1  0
 12 13  1  0
 13 14  2  0
 13 15  1  0
 15 16  1  0
 16 17  1  0
 17 18  1  0
 18 19  1  0
 19 20  2  0
 19 21  2  0
 19 22  1  0
 22 23  2  0
 23 24  1  0
 24 25  2  0
 25 26  1  0
 25 27  1  0
 27 28  2  0
 18 29  1  0
 29 30  1  0
 10  4  1  0
 30 15  1  0
 28 22  1  0
  3 31  1  0
  3 32  1  0
  5 33  1  0
  6 34  1  0
  9 35  1  0
 10 36  1  0
 12 37  1  0
 12 38  1  0
 16 39  1  0
 16 40  1  0
 17 41  1  0
 17 42  1  0
 23 43  1  0
 24 44  1  0
 27 45  1  0
 28 46  1  0
 29 47  1  0
 29 48  1  0
 30 49  1  0
 30 50  1  0
M  END
$$$$
