
     RDKit          3D

 43 46  0  0  0  0  0  0  0  0999 V2000
    2.6263    2.2308    1.3709 O   0  0  0  0  0  0  0  0  0  0  0  0
    2.5379    1.0174    1.1843 C   0  0  0  0  0  0  0  0  0  0  0  0
    3.5849    0.3487    0.3926 C   0  0  0  0  0  0  0  0  0  0  0  0
    4.6295    1.0747   -0.1902 C   0  0  0  0  0  0  0  0  0  0  0  0
    5.6043    0.4088   -0.9347 C   0  0  0  0  0  0  0  0  0  0  0  0
    5.5342   -0.9761   -1.0940 C   0  0  0  0  0  0  0  0  0  0  0  0
    4.4908   -1.6978   -0.5095 C   0  0  0  0  0  0  0  0  0  0  0  0
    3.5184   -1.0269    0.2329 C   0  0  0  0  0  0  0  0  0  0  0  0
    2.4812   -1.7388    0.8262 N   0  0  0  0  0  0  0  0  0  0  0  0
    1.4755   -1.1685    1.5607 C   0  0  0  0  0  0  0  0  0  0  0  0
    0.3697   -2.2442    2.2227 S   0  0  0  0  0  0  0  0  0  0  0  0
    1.5011    0.2185    1.6945 N   0  0  0  0  0  0  0  0  0  0  0  0
    0.4320    0.9663    2.3832 C   0  0  0  0  0  0  0  0  0  0  0  0
   -0.4533    1.7891    1.4131 C   0  0  0  0  0  0  0  0  0  0  0  0
   -1.1611    0.9726    0.4080 N   0  0  0  0  0  0  0  0  0  0  0  0
   -1.5619    1.7921   -0.7478 C   0  0  0  0  0  0  0  0  0  0  0  0
   -2.1040    0.9070   -1.8791 C   0  0  0  0  0  0  0  0  0  0  0  0
   -3.1143   -0.1028   -1.3987 C   0  0  0  0  0  0  0  0  0  0  0  0
   -3.9228   -0.7841   -2.3180 C   0  0  0  0  0  0  0  0  0  0  0  0
   -4.8284   -1.7493   -1.8790 C   0  0  0  0  0  0  0  0  0  0  0  0
   -4.9275   -2.0455   -0.5215 C   0  0  0  0  0  0  0  0  0  0  0  0
   -4.1197   -1.3779    0.3996 C   0  0  0  0  0  0  0  0  0  0  0  0
   -3.1993   -0.4106   -0.0298 C   0  0  0  0  0  0  0  0  0  0  0  0
   -2.3656    0.3413    0.9868 C   0  0  0  0  0  0  0  0  0  0  0  0
    4.6843    2.1540   -0.0662 H   0  0  0  0  0  0  0  0  0  0  0  0
    6.4173    0.9698   -1.3898 H   0  0  0  0  0  0  0  0  0  0  0  0
    6.2943   -1.4940   -1.6746 H   0  0  0  0  0  0  0  0  0  0  0  0
    4.4493   -2.7755   -0.6411 H   0  0  0  0  0  0  0  0  0  0  0  0
    2.4396   -2.7461    0.7210 H   0  0  0  0  0  0  0  0  0  0  0  0
    0.9108    1.6633    3.0832 H   0  0  0  0  0  0  0  0  0  0  0  0
   -0.1918    0.3118    2.9956 H   0  0  0  0  0  0  0  0  0  0  0  0
    0.1947    2.5076    0.8977 H   0  0  0  0  0  0  0  0  0  0  0  0
   -1.1619    2.3937    1.9940 H   0  0  0  0  0  0  0  0  0  0  0  0
   -0.7013    2.3444   -1.1452 H   0  0  0  0  0  0  0  0  0  0  0  0
   -2.3146    2.5362   -0.4534 H   0  0  0  0  0  0  0  0  0  0  0  0
   -1.2728    0.3616   -2.3439 H   0  0  0  0  0  0  0  0  0  0  0  0
   -2.5549    1.5490   -2.6451 H   0  0  0  0  0  0  0  0  0  0  0  0
   -3.8458   -0.5680   -3.3808 H   0  0  0  0  0  0  0  0  0  0  0  0
   -5.4531   -2.2740   -2.5966 H   0  0  0  0  0  0  0  0  0  0  0  0
   -5.6321   -2.7987   -0.1795 H   0  0  0  0  0  0  0  0  0  0  0  0
   -4.2070   -1.6193    1.4565 H   0  0  0  0  0  0  0  0  0  0  0  0
   -2.0685   -0.3591    1.7725 H   0  0  0  0  0  0  0  0  0  0  0  0
   -3.0144    1.0984    1.4480 H   0  0  0  0  0  0  0  0  0  0  0  0
  1  2  2  0
  2  3  1  0
  3  4  2  0
  4  5  1  0
  5  6  2  0
  6  7  1  0
  7  8  2  0
  8  9  1  0
  9 10  1  0
 10 11  2  0
 10 12  1  0
 12 13  1  0
 13 14  1  0
 14 15  1  0
 15 16  1  0
 16 17  1  0
 17 18  1  0
 18 19  2  0
 19 20  1  0
 20 21  2  0
 21 22  1  0
 22 23  2  0
 23 24  1  0
 12  2  1  0
 24 15  1  0
  8  3  1  0
 23 18  1  0
  4 25  1  0
  5 26  1  0
  6 27  1  0
  7 28  1  0
  9 29  1  0
 13 30  1  0
 13 31  1  0
 14 32  1  0
 14 33  1  0
 16 34  1  0
 16 35  1  0
 17 36  1  0
 17 37  1  0
 19 38  1  0
 20 39  1  0
 21 40  1  0
 22 41  1  0
 24 42  1  0
 24 43  1  0
M  END
$$$$
