
     RDKit          3D

 57 60  0  0  0  0  0  0  0  0999 V2000
    2.9031   -3.1971    1.0996 C   0  0  0  0  0  0  0  0  0  0  0  0
    3.6186   -1.9282    1.5405 C   0  0  0  0  0  0  0  0  0  0  0  0
    4.6624   -1.4856    0.5351 C   0  0  0  0  0  0  0  0  0  0  0  0
    5.9871   -1.9000    0.7663 C   0  0  0  0  0  0  0  0  0  0  0  0
    7.0122   -1.5213   -0.0903 C   0  0  0  0  0  0  0  0  0  0  0  0
    6.7214   -0.7524   -1.2105 C   0  0  0  0  0  0  0  0  0  0  0  0
    5.4034   -0.3472   -1.4964 C   0  0  0  0  0  0  0  0  0  0  0  0
    5.1978    0.3765   -2.8010 C   0  0  0  0  0  0  0  0  0  0  0  0
    4.3689   -0.6721   -0.5905 C   0  0  0  0  0  0  0  0  0  0  0  0
    3.0209   -0.2791   -0.7844 N   0  0  0  0  0  0  0  0  0  0  0  0
    2.5851    0.9596   -1.2215 C   0  0  0  0  0  0  0  0  0  0  0  0
    3.2783    1.9463   -1.4345 O   0  0  0  0  0  0  0  0  0  0  0  0
    1.1039    1.0866   -1.3449 C   0  0  0  0  0  0  0  0  0  0  0  0
    0.5142    2.3328   -1.1099 C   0  0  0  0  0  0  0  0  0  0  0  0
   -0.8707    2.4848   -1.2108 C   0  0  0  0  0  0  0  0  0  0  0  0
   -1.6863    1.3965   -1.5548 C   0  0  0  0  0  0  0  0  0  0  0  0
   -3.1891    1.5626   -1.6628 C   0  0  0  0  0  0  0  0  0  0  0  0
   -3.9710    1.3630   -0.4380 N   0  0  0  0  0  0  0  0  0  0  0  0
   -3.6773    2.3271    0.6252 C   0  0  0  0  0  0  0  0  0  0  0  0
   -4.7713    2.2831    1.7023 C   0  0  0  0  0  0  0  0  0  0  0  0
   -5.1069    0.8787    2.1381 C   0  0  0  0  0  0  0  0  0  0  0  0
   -5.8417    0.6624    3.3114 C   0  0  0  0  0  0  0  0  0  0  0  0
   -6.1866   -0.6325    3.6974 C   0  0  0  0  0  0  0  0  0  0  0  0
   -5.8064   -1.7187    2.9124 C   0  0  0  0  0  0  0  0  0  0  0  0
   -5.0831   -1.5119    1.7374 C   0  0  0  0  0  0  0  0  0  0  0  0
   -4.7379   -0.2138    1.3327 C   0  0  0  0  0  0  0  0  0  0  0  0
   -3.9105   -0.0100    0.0790 C   0  0  0  0  0  0  0  0  0  0  0  0
   -1.0838    0.1557   -1.8145 C   0  0  0  0  0  0  0  0  0  0  0  0
    0.3016   -0.0007   -1.7124 C   0  0  0  0  0  0  0  0  0  0  0  0
    2.3822   -3.0587    0.1467 H   0  0  0  0  0  0  0  0  0  0  0  0
    3.6091   -4.0255    0.9765 H   0  0  0  0  0  0  0  0  0  0  0  0
    2.1628   -3.4926    1.8497 H   0  0  0  0  0  0  0  0  0  0  0  0
    4.0958   -2.1078    2.5127 H   0  0  0  0  0  0  0  0  0  0  0  0
    2.8983   -1.1235    1.7266 H   0  0  0  0  0  0  0  0  0  0  0  0
    6.2282   -2.5150    1.6311 H   0  0  0  0  0  0  0  0  0  0  0  0
    8.0338   -1.8349    0.1058 H   0  0  0  0  0  0  0  0  0  0  0  0
    7.5315   -0.4841   -1.8865 H   0  0  0  0  0  0  0  0  0  0  0  0
    5.9079    0.0158   -3.5547 H   0  0  0  0  0  0  0  0  0  0  0  0
    4.2051    0.1894   -3.2199 H   0  0  0  0  0  0  0  0  0  0  0  0
    5.3621    1.4502   -2.6753 H   0  0  0  0  0  0  0  0  0  0  0  0
    2.3296   -0.8010   -0.2656 H   0  0  0  0  0  0  0  0  0  0  0  0
    1.1329    3.1886   -0.8455 H   0  0  0  0  0  0  0  0  0  0  0  0
   -1.3096    3.4626   -1.0230 H   0  0  0  0  0  0  0  0  0  0  0  0
   -3.4027    2.5632   -2.0628 H   0  0  0  0  0  0  0  0  0  0  0  0
   -3.5646    0.8832   -2.4402 H   0  0  0  0  0  0  0  0  0  0  0  0
   -2.7013    2.1220    1.0844 H   0  0  0  0  0  0  0  0  0  0  0  0
   -3.6427    3.3478    0.2252 H   0  0  0  0  0  0  0  0  0  0  0  0
   -4.4400    2.8714    2.5664 H   0  0  0  0  0  0  0  0  0  0  0  0
   -5.6865    2.7457    1.3114 H   0  0  0  0  0  0  0  0  0  0  0  0
   -6.1509    1.5035    3.9273 H   0  0  0  0  0  0  0  0  0  0  0  0
   -6.7551   -0.7933    4.6095 H   0  0  0  0  0  0  0  0  0  0  0  0
   -6.0746   -2.7273    3.2151 H   0  0  0  0  0  0  0  0  0  0  0  0
   -4.7904   -2.3694    1.1362 H   0  0  0  0  0  0  0  0  0  0  0  0
   -2.8818   -0.2983    0.3268 H   0  0  0  0  0  0  0  0  0  0  0  0
   -4.2824   -0.6942   -0.6938 H   0  0  0  0  0  0  0  0  0  0  0  0
   -1.6939   -0.6966   -2.1077 H   0  0  0  0  0  0  0  0  0  0  0  0
    0.7408   -0.9664   -1.9493 H   0  0  0  0  0  0  0  0  0  0  0  0
  1  2  1  0
  2  3  1  0
  3  4  2  0
  4  5  1  0
  5  6  2  0
  6  7  1  0
  7  8  1  0
  7  9  2  0
  9 10  1  0
 10 11  1  0
 11 12  2  0
 11 13  1  0
 13 14  2  0
 14 15  1  0
 15 16  2  0
 16 17  1  0
 17 18  1  0
 18 19  1  0
 19 20  1  0
 20 21  1  0
 21 22  2  0
 22 23  1  0
 23 24  2  0
 24 25  1  0
 25 26  2  0
 26 27  1  0
 16 28  1  0
 28 29  2  0
  9  3  1  0
 29 13  1  0
 27 18  1  0
 26 21  1  0
  1 30  1  0
  1 31  1  0
  1 32  1  0
  2 33  1  0
  2 34  1  0
  4 35  1  0
  5 36  1  0
  6 37  1  0
  8 38  1  0
  8 39  1  0
  8 40  1  0
 10 41  1  0
 14 42  1  0
 15 43  1  0
 17 44  1  0
 17 45  1  0
 19 46  1  0
 19 47  1  0
 20 48  1  0
 20 49  1  0
 22 50  1  0
 23 51  1  0
 24 52  1  0
 25 53  1  0
 27 54  1  0
 27 55  1  0
 28 56  1  0
 29 57  1  0
M  END
$$$$
