
     RDKit          3D

 40 40  0  0  0  0  0  0  0  0999 V2000
   -3.0565    2.5768    3.6933 C   0  0  0  0  0  0  0  0  0  0  0  0
   -2.2228    1.5156    2.9925 C   0  0  0  0  0  0  0  0  0  0  0  0
   -1.1104    2.1459    2.1519 C   0  0  0  0  0  0  0  0  0  0  0  0
   -0.2299    1.0988    1.4649 C   0  0  0  0  0  0  0  0  0  0  0  0
   -1.0153    0.4093    0.4602 N   0  0  0  0  0  0  0  0  0  0  0  0
   -0.5682   -0.6369   -0.1417 C   0  0  0  0  0  0  0  0  0  0  0  0
    0.6521   -1.3092   -0.0387 N   0  0  0  0  0  0  0  0  0  0  0  0
    1.8419   -0.7644    0.3598 N   0  0  0  0  0  0  0  0  0  0  0  0
    2.6658    0.0250   -0.4706 C   0  0  0  0  0  0  0  0  0  0  0  0
    3.8080    0.6264    0.0787 C   0  0  0  0  0  0  0  0  0  0  0  0
    4.6824    1.3728   -0.7169 C   0  0  0  0  0  0  0  0  0  0  0  0
    4.4279    1.5086   -2.0785 C   0  0  0  0  0  0  0  0  0  0  0  0
    5.6043    2.5173   -3.1598 Br  0  0  0  0  0  0  0  0  0  0  0  0
    3.3120    0.9028   -2.6483 C   0  0  0  0  0  0  0  0  0  0  0  0
    2.4437    0.1536   -1.8474 C   0  0  0  0  0  0  0  0  0  0  0  0
   -1.5818   -1.2675   -1.1638 C   0  0  0  0  0  0  0  0  0  0  0  0
   -2.6756   -0.8092   -1.4350 O   0  0  0  0  0  0  0  0  0  0  0  0
   -1.0180   -2.3881   -1.6906 O   0  0  0  0  0  0  0  0  0  0  0  0
   -1.8284   -3.0851   -2.6491 C   0  0  0  0  0  0  0  0  0  0  0  0
   -2.7694   -4.0444   -1.9418 C   0  0  0  0  0  0  0  0  0  0  0  0
   -3.8536    2.1074    4.2782 H   0  0  0  0  0  0  0  0  0  0  0  0
   -3.5194    3.2556    2.9697 H   0  0  0  0  0  0  0  0  0  0  0  0
   -2.4396    3.1703    4.3761 H   0  0  0  0  0  0  0  0  0  0  0  0
   -2.8800    0.9093    2.3584 H   0  0  0  0  0  0  0  0  0  0  0  0
   -1.7871    0.8476    3.7441 H   0  0  0  0  0  0  0  0  0  0  0  0
   -1.5486    2.8121    1.3995 H   0  0  0  0  0  0  0  0  0  0  0  0
   -0.4770    2.7652    2.7997 H   0  0  0  0  0  0  0  0  0  0  0  0
    0.1567    0.4083    2.2207 H   0  0  0  0  0  0  0  0  0  0  0  0
    0.6083    1.6206    0.9932 H   0  0  0  0  0  0  0  0  0  0  0  0
    0.7422   -2.0810   -0.7054 H   0  0  0  0  0  0  0  0  0  0  0  0
    1.9088   -0.5188    1.3473 H   0  0  0  0  0  0  0  0  0  0  0  0
    4.0275    0.5221    1.1389 H   0  0  0  0  0  0  0  0  0  0  0  0
    5.5536    1.8401   -0.2654 H   0  0  0  0  0  0  0  0  0  0  0  0
    3.1059    1.0076   -3.7094 H   0  0  0  0  0  0  0  0  0  0  0  0
    1.5833   -0.3137   -2.3163 H   0  0  0  0  0  0  0  0  0  0  0  0
   -1.1459   -3.6493   -3.2936 H   0  0  0  0  0  0  0  0  0  0  0  0
   -2.3759   -2.3866   -3.2943 H   0  0  0  0  0  0  0  0  0  0  0  0
   -3.4718   -3.5043   -1.2991 H   0  0  0  0  0  0  0  0  0  0  0  0
   -3.3408   -4.6312   -2.6660 H   0  0  0  0  0  0  0  0  0  0  0  0
   -2.2084   -4.7291   -1.2956 H   0  0  0  0  0  0  0  0  0  0  0  0
  1  2  1  0
  2  3  1  0
  3  4  1  0
  4  5  1  0
  5  6  2  3
  6  7  1  0
  7  8  1  0
  8  9  1  0
  9 10  2  0
 10 11  1  0
 11 12  2  0
 12 13  1  0
 12 14  1  0
 14 15  2  0
  6 16  1  0
 16 17  2  0
 16 18  1  0
 18 19  1  0
 19 20  1  0
 15  9  1  0
  1 21  1  0
  1 22  1  0
  1 23  1  0
  2 24  1  0
  2 25  1  0
  3 26  1  0
  3 27  1  0
  4 28  1  0
  4 29  1  0
  7 30  1  0
  8 31  1  0
 10 32  1  0
 11 33  1  0
 14 34  1  0
 15 35  1  0
 19 36  1  0
 19 37  1  0
 20 38  1  0
 20 39  1  0
 20 40  1  0
M  END
$$$$
