
     RDKit          3D

 46 51  0  0  0  0  0  0  0  0999 V2000
    2.6076    2.7965    1.2249 O   0  0  0  0  0  0  0  0  0  0  0  0
    1.4455    2.4046    1.1978 C   0  0  0  0  0  0  0  0  0  0  0  0
    0.5359    2.8111    2.1581 O   0  0  0  0  0  0  0  0  0  0  0  0
   -0.8322    2.6904    1.8862 C   0  0  0  0  0  0  0  0  0  0  0  0
   -1.6901    3.4753    2.6588 C   0  0  0  0  0  0  0  0  0  0  0  0
   -3.0479    3.4997    2.3578 C   0  0  0  0  0  0  0  0  0  0  0  0
   -3.5263    2.7611    1.2779 C   0  0  0  0  0  0  0  0  0  0  0  0
   -2.6517    1.9729    0.5203 C   0  0  0  0  0  0  0  0  0  0  0  0
   -1.2911    1.8864    0.8464 C   0  0  0  0  0  0  0  0  0  0  0  0
   -0.3253    1.0529    0.1000 C   0  0  0  0  0  0  0  0  0  0  0  0
    0.9691    1.4251    0.1951 C   0  0  0  0  0  0  0  0  0  0  0  0
    2.0364    0.9615   -0.7572 C   0  0  0  0  0  0  0  0  0  0  0  0
    2.9916   -0.0944   -0.2038 C   0  0  0  0  0  0  0  0  0  0  0  0
    2.5542   -1.3537    0.2425 C   0  0  0  0  0  0  0  0  0  0  0  0
    3.4617   -2.2946    0.7391 C   0  0  0  0  0  0  0  0  0  0  0  0
    4.8175   -1.9871    0.7990 C   0  0  0  0  0  0  0  0  0  0  0  0
    5.9323   -3.1458    1.4100 Cl  0  0  0  0  0  0  0  0  0  0  0  0
    5.2745   -0.7458    0.3678 C   0  0  0  0  0  0  0  0  0  0  0  0
    4.3673    0.1937   -0.1303 C   0  0  0  0  0  0  0  0  0  0  0  0
    1.4472    0.5298   -2.0388 N   0  0  0  0  0  0  0  0  0  0  0  0
    0.2624   -0.2215   -1.9456 C   0  0  0  0  0  0  0  0  0  0  0  0
   -0.0755   -1.0760   -2.9949 C   0  0  0  0  0  0  0  0  0  0  0  0
   -1.1922   -1.8991   -2.9002 C   0  0  0  0  0  0  0  0  0  0  0  0
   -1.9659   -1.9184   -1.7360 C   0  0  0  0  0  0  0  0  0  0  0  0
   -3.0236   -2.8370   -1.6259 C   0  0  0  0  0  0  0  0  0  0  0  0
   -3.7737   -2.9331   -0.4570 C   0  0  0  0  0  0  0  0  0  0  0  0
   -3.4631   -2.1216    0.6228 C   0  0  0  0  0  0  0  0  0  0  0  0
   -2.4224   -1.1946    0.5193 C   0  0  0  0  0  0  0  0  0  0  0  0
   -1.6680   -1.0297   -0.6706 C   0  0  0  0  0  0  0  0  0  0  0  0
   -0.6134   -0.0776   -0.8448 C   0  0  0  0  0  0  0  0  0  0  0  0
   -1.2965    4.0834    3.4685 H   0  0  0  0  0  0  0  0  0  0  0  0
   -3.7267    4.1141    2.9436 H   0  0  0  0  0  0  0  0  0  0  0  0
   -4.5812    2.8012    1.0160 H   0  0  0  0  0  0  0  0  0  0  0  0
   -3.0564    1.4337   -0.3336 H   0  0  0  0  0  0  0  0  0  0  0  0
    2.6356    1.8381   -1.0383 H   0  0  0  0  0  0  0  0  0  0  0  0
    1.5020   -1.6241    0.2106 H   0  0  0  0  0  0  0  0  0  0  0  0
    3.1010   -3.2626    1.0771 H   0  0  0  0  0  0  0  0  0  0  0  0
    6.3315   -0.4985    0.4206 H   0  0  0  0  0  0  0  0  0  0  0  0
    4.7441    1.1649   -0.4492 H   0  0  0  0  0  0  0  0  0  0  0  0
    2.1387    0.0885   -2.6393 H   0  0  0  0  0  0  0  0  0  0  0  0
    0.5446   -1.1257   -3.8860 H   0  0  0  0  0  0  0  0  0  0  0  0
   -1.4203   -2.5660   -3.7292 H   0  0  0  0  0  0  0  0  0  0  0  0
   -3.2621   -3.5041   -2.4522 H   0  0  0  0  0  0  0  0  0  0  0  0
   -4.5825   -3.6553   -0.3849 H   0  0  0  0  0  0  0  0  0  0  0  0
   -4.0217   -2.2086    1.5512 H   0  0  0  0  0  0  0  0  0  0  0  0
   -2.1909   -0.6102    1.4067 H   0  0  0  0  0  0  0  0  0  0  0  0
  1  2  2  0
  2  3  1  0
  3  4  1  0
  4  5  2  0
  5  6  1  0
  6  7  2  0
  7  8  1  0
  8  9  2  0
  9 10  1  0
 10 11  2  0
 11 12  1  0
 12 13  1  0
 13 14  2  0
 14 15  1  0
 15 16  2  0
 16 17  1  0
 16 18  1  0
 18 19  2  0
 12 20  1  0
 20 21  1  0
 21 22  2  0
 22 23  1  0
 23 24  2  0
 24 25  1  0
 25 26  2  0
 26 27  1  0
 27 28  2  0
 28 29  1  0
 29 30  2  0
 11  2  1  0
 19 13  1  0
 30 21  1  0
  9  4  1  0
 30 10  1  0
 29 24  1  0
  5 31  1  0
  6 32  1  0
  7 33  1  0
  8 34  1  0
 12 35  1  0
 14 36  1  0
 15 37  1  0
 18 38  1  0
 19 39  1  0
 20 40  1  0
 22 41  1  0
 23 42  1  0
 25 43  1  0
 26 44  1  0
 27 45  1  0
 28 46  1  0
M  END
$$$$
