
     RDKit          3D

 67 71  0  0  0  0  0  0  0  0999 V2000
    0.4567   -0.1192    1.8023 C   0  0  0  0  0  0  0  0  0  0  0  0
    0.1669   -0.6988    0.4928 N   0  0  0  0  0  0  0  0  0  0  0  0
    1.1339   -0.3109   -0.5329 C   0  0  0  0  0  0  0  0  0  0  0  0
    1.0422    1.1194   -0.9754 C   0  0  0  0  0  0  0  0  0  0  0  0
    2.0810    1.8885   -1.3585 C   0  0  0  0  0  0  0  0  0  0  0  0
    3.4715    1.4387   -1.4544 C   0  0  0  0  0  0  0  0  0  0  0  0
    4.4439    2.0090   -0.6351 C   0  0  0  0  0  0  0  0  0  0  0  0
    5.7798    1.6001   -0.7375 C   0  0  0  0  0  0  0  0  0  0  0  0
    6.1876    0.6140   -1.6527 C   0  0  0  0  0  0  0  0  0  0  0  0
    7.5425    0.2586   -1.7306 N   0  0  0  0  0  0  0  0  0  0  0  0
    7.9956   -0.5266   -2.8993 C   0  0  0  0  0  0  0  0  0  0  0  0
    9.5307   -0.6029   -2.9159 C   0  0  0  0  0  0  0  0  0  0  0  0
   10.0408   -1.1704   -1.6982 O   0  0  0  0  0  0  0  0  0  0  0  0
    9.6428   -0.3638   -0.5781 C   0  0  0  0  0  0  0  0  0  0  0  0
    8.1123   -0.2623   -0.4634 C   0  0  0  0  0  0  0  0  0  0  0  0
    5.1951    0.0705   -2.4814 C   0  0  0  0  0  0  0  0  0  0  0  0
    3.8555    0.4734   -2.3860 C   0  0  0  0  0  0  0  0  0  0  0  0
   -0.3064    1.7676   -0.9809 C   0  0  0  0  0  0  0  0  0  0  0  0
   -0.4776    2.8850   -1.4662 O   0  0  0  0  0  0  0  0  0  0  0  0
   -1.4396    1.0018   -0.3750 C   0  0  0  0  0  0  0  0  0  0  0  0
   -2.6075    1.6603   -0.2373 C   0  0  0  0  0  0  0  0  0  0  0  0
   -3.8306    1.0629    0.2970 C   0  0  0  0  0  0  0  0  0  0  0  0
   -4.6590    0.2992   -0.5219 C   0  0  0  0  0  0  0  0  0  0  0  0
   -5.8250   -0.2795   -0.0027 C   0  0  0  0  0  0  0  0  0  0  0  0
   -6.2063   -0.1122    1.3382 C   0  0  0  0  0  0  0  0  0  0  0  0
   -7.3582   -0.6823    1.8494 N   0  0  0  0  0  0  0  0  0  0  0  0
   -8.0723   -1.7659    1.1556 C   0  0  0  0  0  0  0  0  0  0  0  0
   -8.9529   -2.5356    2.1541 C   0  0  0  0  0  0  0  0  0  0  0  0
   -9.9389   -1.7258    2.8101 O   0  0  0  0  0  0  0  0  0  0  0  0
   -9.5614   -0.3455    2.9151 C   0  0  0  0  0  0  0  0  0  0  0  0
   -8.0434   -0.1180    3.0247 C   0  0  0  0  0  0  0  0  0  0  0  0
   -5.3479    0.6590    2.1394 C   0  0  0  0  0  0  0  0  0  0  0  0
   -4.1773    1.2410    1.6331 C   0  0  0  0  0  0  0  0  0  0  0  0
   -1.1924   -0.4208    0.0304 C   0  0  0  0  0  0  0  0  0  0  0  0
   -0.2359   -0.5151    2.5549 H   0  0  0  0  0  0  0  0  0  0  0  0
    1.4627   -0.4056    2.1298 H   0  0  0  0  0  0  0  0  0  0  0  0
    0.3924    0.9741    1.8187 H   0  0  0  0  0  0  0  0  0  0  0  0
    2.1389   -0.5550   -0.1687 H   0  0  0  0  0  0  0  0  0  0  0  0
    0.9826   -0.9517   -1.4117 H   0  0  0  0  0  0  0  0  0  0  0  0
    1.9304    2.9321   -1.6354 H   0  0  0  0  0  0  0  0  0  0  0  0
    4.1807    2.7827    0.0828 H   0  0  0  0  0  0  0  0  0  0  0  0
    6.5170    2.0940   -0.1091 H   0  0  0  0  0  0  0  0  0  0  0  0
    7.5894   -1.5445   -2.8401 H   0  0  0  0  0  0  0  0  0  0  0  0
    7.6624   -0.0607   -3.8344 H   0  0  0  0  0  0  0  0  0  0  0  0
    9.9740    0.3905   -3.0617 H   0  0  0  0  0  0  0  0  0  0  0  0
    9.8618   -1.2395   -3.7431 H   0  0  0  0  0  0  0  0  0  0  0  0
   10.0949    0.6300   -0.6783 H   0  0  0  0  0  0  0  0  0  0  0  0
   10.0527   -0.8269    0.3253 H   0  0  0  0  0  0  0  0  0  0  0  0
    7.8777    0.3783    0.3928 H   0  0  0  0  0  0  0  0  0  0  0  0
    7.6939   -1.2592   -0.2673 H   0  0  0  0  0  0  0  0  0  0  0  0
    5.4347   -0.6885   -3.2201 H   0  0  0  0  0  0  0  0  0  0  0  0
    3.1231    0.0308   -3.0574 H   0  0  0  0  0  0  0  0  0  0  0  0
   -2.7102    2.6989   -0.5465 H   0  0  0  0  0  0  0  0  0  0  0  0
   -4.4158    0.1520   -1.5714 H   0  0  0  0  0  0  0  0  0  0  0  0
   -6.4481   -0.8473   -0.6877 H   0  0  0  0  0  0  0  0  0  0  0  0
   -8.6974   -1.3373    0.3634 H   0  0  0  0  0  0  0  0  0  0  0  0
   -7.3675   -2.4759    0.7073 H   0  0  0  0  0  0  0  0  0  0  0  0
   -8.3317   -2.9941    2.9329 H   0  0  0  0  0  0  0  0  0  0  0  0
   -9.4823   -3.3446    1.6411 H   0  0  0  0  0  0  0  0  0  0  0  0
   -9.9611    0.1745    2.0358 H   0  0  0  0  0  0  0  0  0  0  0  0
  -10.0678    0.0671    3.7934 H   0  0  0  0  0  0  0  0  0  0  0  0
   -7.6562   -0.6084    3.9250 H   0  0  0  0  0  0  0  0  0  0  0  0
   -7.8721    0.9611    3.1106 H   0  0  0  0  0  0  0  0  0  0  0  0
   -5.5639    0.8048    3.1940 H   0  0  0  0  0  0  0  0  0  0  0  0
   -3.5439    1.8259    2.2955 H   0  0  0  0  0  0  0  0  0  0  0  0
   -1.4023   -1.0632   -0.8350 H   0  0  0  0  0  0  0  0  0  0  0  0
   -1.8951   -0.7463    0.8065 H   0  0  0  0  0  0  0  0  0  0  0  0
  1  2  1  0
  2  3  1  0
  3  4  1  0
  4  5  2  3
  5  6  1  0
  6  7  2  0
  7  8  1  0
  8  9  2  0
  9 10  1  0
 10 11  1  0
 11 12  1  0
 12 13  1  0
 13 14  1  0
 14 15  1  0
  9 16  1  0
 16 17  2  0
  4 18  1  0
 18 19  2  0
 18 20  1  0
 20 21  2  3
 21 22  1  0
 22 23  2  0
 23 24  1  0
 24 25  2  0
 25 26  1  0
 26 27  1  0
 27 28  1  0
 28 29  1  0
 29 30  1  0
 30 31  1  0
 25 32  1  0
 32 33  2  0
 20 34  1  0
 34  2  1  0
 17  6  1  0
 33 22  1  0
 15 10  1  0
 31 26  1  0
  1 35  1  0
  1 36  1  0
  1 37  1  0
  3 38  1  0
  3 39  1  0
  5 40  1  0
  7 41  1  0
  8 42  1  0
 11 43  1  0
 11 44  1  0
 12 45  1  0
 12 46  1  0
 14 47  1  0
 14 48  1  0
 15 49  1  0
 15 50  1  0
 16 51  1  0
 17 52  1  0
 21 53  1  0
 23 54  1  0
 24 55  1  0
 27 56  1  0
 27 57  1  0
 28 58  1  0
 28 59  1  0
 30 60  1  0
 30 61  1  0
 31 62  1  0
 31 63  1  0
 32 64  1  0
 33 65  1  0
 34 66  1  0
 34 67  1  0
M  END
$$$$
