
     RDKit          3D

 48 50  0  0  0  0  0  0  0  0999 V2000
   -1.7278    4.0391   -1.0507 C   0  0  0  0  0  0  0  0  0  0  0  0
   -2.7339    3.0463   -1.6010 C   0  0  0  0  0  0  0  0  0  0  0  0
   -2.6853    1.8299   -0.8414 O   0  0  0  0  0  0  0  0  0  0  0  0
   -3.4771    1.7712    0.2511 C   0  0  0  0  0  0  0  0  0  0  0  0
   -4.2215    2.6501    0.6557 O   0  0  0  0  0  0  0  0  0  0  0  0
   -3.2723    0.5166    0.9820 C   0  0  0  0  0  0  0  0  0  0  0  0
   -3.4925    0.4976    2.3406 C   0  0  0  0  0  0  0  0  0  0  0  0
   -3.3238   -0.5966    3.1168 N   0  0  0  0  0  0  0  0  0  0  0  0
   -2.9274   -1.7195    2.4948 C   0  0  0  0  0  0  0  0  0  0  0  0
   -2.6840   -3.2002    3.4433 S   0  0  0  0  0  0  0  0  0  0  0  0
   -3.0840   -2.5962    5.1008 C   0  0  0  0  0  0  0  0  0  0  0  0
   -2.7065   -1.8153    1.1770 N   0  0  0  0  0  0  0  0  0  0  0  0
   -2.8722   -0.6870    0.4454 C   0  0  0  0  0  0  0  0  0  0  0  0
   -2.7384   -0.8114   -0.9282 O   0  0  0  0  0  0  0  0  0  0  0  0
   -1.5949   -1.4552   -1.3416 C   0  0  0  0  0  0  0  0  0  0  0  0
   -1.7254   -2.6682   -2.0121 C   0  0  0  0  0  0  0  0  0  0  0  0
   -0.5845   -3.3211   -2.4692 C   0  0  0  0  0  0  0  0  0  0  0  0
    0.6754   -2.7484   -2.2681 C   0  0  0  0  0  0  0  0  0  0  0  0
    0.8083   -1.5130   -1.6174 C   0  0  0  0  0  0  0  0  0  0  0  0
    2.1153   -1.0039   -1.4585 N   0  0  0  0  0  0  0  0  0  0  0  0
    2.4776    0.2196   -0.9243 C   0  0  0  0  0  0  0  0  0  0  0  0
    1.7286    1.1187   -0.5623 O   0  0  0  0  0  0  0  0  0  0  0  0
    3.9469    0.4506   -0.8300 C   0  0  0  0  0  0  0  0  0  0  0  0
    4.4363    1.7441   -1.0563 C   0  0  0  0  0  0  0  0  0  0  0  0
    5.8071    2.0009   -0.9721 C   0  0  0  0  0  0  0  0  0  0  0  0
    6.6857    0.9677   -0.6504 C   0  0  0  0  0  0  0  0  0  0  0  0
    8.3733    1.2825   -0.5453 Cl  0  0  0  0  0  0  0  0  0  0  0  0
    6.2057   -0.3191   -0.4049 C   0  0  0  0  0  0  0  0  0  0  0  0
    4.8345   -0.5800   -0.4899 C   0  0  0  0  0  0  0  0  0  0  0  0
   -0.3388   -0.8658   -1.1589 C   0  0  0  0  0  0  0  0  0  0  0  0
   -1.7123    4.9512   -1.6539 H   0  0  0  0  0  0  0  0  0  0  0  0
   -0.7230    3.6036   -1.0419 H   0  0  0  0  0  0  0  0  0  0  0  0
   -1.9676    4.3071   -0.0168 H   0  0  0  0  0  0  0  0  0  0  0  0
   -2.4744    2.7905   -2.6335 H   0  0  0  0  0  0  0  0  0  0  0  0
   -3.7458    3.4673   -1.6158 H   0  0  0  0  0  0  0  0  0  0  0  0
   -3.8180    1.3886    2.8738 H   0  0  0  0  0  0  0  0  0  0  0  0
   -2.9717   -3.4176    5.8139 H   0  0  0  0  0  0  0  0  0  0  0  0
   -2.4048   -1.7921    5.3976 H   0  0  0  0  0  0  0  0  0  0  0  0
   -4.1181   -2.2432    5.1477 H   0  0  0  0  0  0  0  0  0  0  0  0
   -2.7075   -3.1072   -2.1612 H   0  0  0  0  0  0  0  0  0  0  0  0
   -0.6743   -4.2763   -2.9799 H   0  0  0  0  0  0  0  0  0  0  0  0
    1.5488   -3.2820   -2.6339 H   0  0  0  0  0  0  0  0  0  0  0  0
    2.8556   -1.5809   -1.8353 H   0  0  0  0  0  0  0  0  0  0  0  0
    3.7494    2.5532   -1.2993 H   0  0  0  0  0  0  0  0  0  0  0  0
    6.1790    3.0062   -1.1533 H   0  0  0  0  0  0  0  0  0  0  0  0
    6.8923   -1.1182   -0.1357 H   0  0  0  0  0  0  0  0  0  0  0  0
    4.4739   -1.5785   -0.2569 H   0  0  0  0  0  0  0  0  0  0  0  0
   -0.2857    0.0946   -0.6593 H   0  0  0  0  0  0  0  0  0  0  0  0
  1  2  1  0
  2  3  1  0
  3  4  1  0
  4  5  2  0
  4  6  1  0
  6  7  2  0
  7  8  1  0
  8  9  2  0
  9 10  1  0
 10 11  1  0
  9 12  1  0
 12 13  2  0
 13 14  1  0
 14 15  1  0
 15 16  2  0
 16 17  1  0
 17 18  2  0
 18 19  1  0
 19 20  1  0
 20 21  1  0
 21 22  2  0
 21 23  1  0
 23 24  2  0
 24 25  1  0
 25 26  2  0
 26 27  1  0
 26 28  1  0
 28 29  2  0
 19 30  2  0
 13  6  1  0
 30 15  1  0
 29 23  1  0
  1 31  1  0
  1 32  1  0
  1 33  1  0
  2 34  1  0
  2 35  1  0
  7 36  1  0
 11 37  1  0
 11 38  1  0
 11 39  1  0
 16 40  1  0
 17 41  1  0
 18 42  1  0
 20 43  1  0
 24 44  1  0
 25 45  1  0
 28 46  1  0
 29 47  1  0
 30 48  1  0
M  END
$$$$
