
     RDKit          3D

 37 39  0  0  0  0  0  0  0  0999 V2000
   -0.3242   -3.0570   -1.9730 C   0  0  0  0  0  0  0  0  0  0  0  0
   -0.8320   -2.1975   -2.9899 O   0  0  0  0  0  0  0  0  0  0  0  0
   -1.2849   -0.9607   -2.5419 C   0  0  0  0  0  0  0  0  0  0  0  0
   -2.1914   -0.3418   -3.4143 C   0  0  0  0  0  0  0  0  0  0  0  0
   -2.7416    0.8991   -3.1116 C   0  0  0  0  0  0  0  0  0  0  0  0
   -2.4043    1.5586   -1.9252 C   0  0  0  0  0  0  0  0  0  0  0  0
   -2.9165    2.7865   -1.5885 O   0  0  0  0  0  0  0  0  0  0  0  0
   -4.3167    2.9167   -1.8232 C   0  0  0  0  0  0  0  0  0  0  0  0
   -1.4448    0.9604   -1.0813 C   0  0  0  0  0  0  0  0  0  0  0  0
   -0.7876    1.5541    0.3948 S   0  0  0  0  0  0  0  0  0  0  0  0
    0.2426    0.1743    0.5319 C   0  0  0  0  0  0  0  0  0  0  0  0
    1.1479    0.0029    1.5553 N   0  0  0  0  0  0  0  0  0  0  0  0
    1.8790    1.1943    2.0200 C   0  0  0  0  0  0  0  0  0  0  0  0
    2.6107    0.9162    3.3331 C   0  0  0  0  0  0  0  0  0  0  0  0
    3.5098   -0.3067    3.2231 C   0  0  0  0  0  0  0  0  0  0  0  0
    2.6954   -1.5076    2.7606 C   0  0  0  0  0  0  0  0  0  0  0  0
    1.9711   -1.2152    1.4475 C   0  0  0  0  0  0  0  0  0  0  0  0
    0.0463   -0.7169   -0.4159 N   0  0  0  0  0  0  0  0  0  0  0  0
   -0.8785   -0.2850   -1.3594 C   0  0  0  0  0  0  0  0  0  0  0  0
   -0.2723   -4.0667   -2.3923 H   0  0  0  0  0  0  0  0  0  0  0  0
   -0.9965   -3.0997   -1.1086 H   0  0  0  0  0  0  0  0  0  0  0  0
    0.6954   -2.7718   -1.6953 H   0  0  0  0  0  0  0  0  0  0  0  0
   -2.4663   -0.8428   -4.3406 H   0  0  0  0  0  0  0  0  0  0  0  0
   -3.4290    1.3505   -3.8224 H   0  0  0  0  0  0  0  0  0  0  0  0
   -4.5037    3.1983   -2.8650 H   0  0  0  0  0  0  0  0  0  0  0  0
   -4.8648    2.0038   -1.5640 H   0  0  0  0  0  0  0  0  0  0  0  0
   -4.6907    3.7216   -1.1845 H   0  0  0  0  0  0  0  0  0  0  0  0
    1.2055    2.0376    2.2066 H   0  0  0  0  0  0  0  0  0  0  0  0
    2.5972    1.5078    1.2515 H   0  0  0  0  0  0  0  0  0  0  0  0
    1.8773    0.7557    4.1349 H   0  0  0  0  0  0  0  0  0  0  0  0
    3.2095    1.7926    3.6124 H   0  0  0  0  0  0  0  0  0  0  0  0
    4.3207   -0.1088    2.5106 H   0  0  0  0  0  0  0  0  0  0  0  0
    3.9743   -0.5185    4.1932 H   0  0  0  0  0  0  0  0  0  0  0  0
    3.3522   -2.3755    2.6357 H   0  0  0  0  0  0  0  0  0  0  0  0
    1.9609   -1.7689    3.5332 H   0  0  0  0  0  0  0  0  0  0  0  0
    1.3481   -2.0894    1.2164 H   0  0  0  0  0  0  0  0  0  0  0  0
    2.7018   -1.1006    0.6360 H   0  0  0  0  0  0  0  0  0  0  0  0
  1  2  1  0
  2  3  1  0
  3  4  2  0
  4  5  1  0
  5  6  2  0
  6  7  1  0
  7  8  1  0
  6  9  1  0
  9 10  1  0
 10 11  1  0
 11 12  1  0
 12 13  1  0
 13 14  1  0
 14 15  1  0
 15 16  1  0
 16 17  1  0
 11 18  2  0
 18 19  1  0
 19  3  1  0
 19  9  2  0
 17 12  1  0
  1 20  1  0
  1 21  1  0
  1 22  1  0
  4 23  1  0
  5 24  1  0
  8 25  1  0
  8 26  1  0
  8 27  1  0
 13 28  1  0
 13 29  1  0
 14 30  1  0
 14 31  1  0
 15 32  1  0
 15 33  1  0
 16 34  1  0
 16 35  1  0
 17 36  1  0
 17 37  1  0
M  END
$$$$
