
     RDKit          3D

 45 47  0  0  0  0  0  0  0  0999 V2000
    4.2000   -1.2611   -4.2735 C   0  0  0  0  0  0  0  0  0  0  0  0
    3.8546   -1.8986   -2.9467 C   0  0  0  0  0  0  0  0  0  0  0  0
    4.2455   -3.1223   -2.7434 N   0  0  0  0  0  0  0  0  0  0  0  0
    3.0885   -1.1062   -1.8998 C   0  0  0  0  0  0  0  0  0  0  0  0
    1.7387   -0.8307   -2.3957 C   0  0  0  0  0  0  0  0  0  0  0  0
    0.6571   -0.6057   -2.7510 N   0  0  0  0  0  0  0  0  0  0  0  0
    3.7598    0.1832   -1.4749 C   0  0  0  0  0  0  0  0  0  0  0  0
    4.7410    0.6412   -2.0800 O   0  0  0  0  0  0  0  0  0  0  0  0
    3.2800    0.8696   -0.1901 C   0  0  0  0  0  0  0  0  0  0  0  0
    1.8854    0.8433    0.0964 O   0  0  0  0  0  0  0  0  0  0  0  0
    1.4832   -0.1673    0.9102 C   0  0  0  0  0  0  0  0  0  0  0  0
    2.1813   -1.1110    1.2426 O   0  0  0  0  0  0  0  0  0  0  0  0
    0.0802    0.0477    1.3372 C   0  0  0  0  0  0  0  0  0  0  0  0
   -0.8449    0.4720    0.3776 C   0  0  0  0  0  0  0  0  0  0  0  0
   -2.1689    0.6320    0.7491 C   0  0  0  0  0  0  0  0  0  0  0  0
   -3.2317    1.0560   -0.1889 C   0  0  0  0  0  0  0  0  0  0  0  0
   -4.3541    1.7693    0.2784 C   0  0  0  0  0  0  0  0  0  0  0  0
   -5.3769    2.1797   -0.5830 C   0  0  0  0  0  0  0  0  0  0  0  0
   -5.3059    1.8767   -1.9390 C   0  0  0  0  0  0  0  0  0  0  0  0
   -4.2098    1.1686   -2.4240 C   0  0  0  0  0  0  0  0  0  0  0  0
   -4.1168    0.7364   -4.2621 Br  0  0  0  0  0  0  0  0  0  0  0  0
   -3.1827    0.7630   -1.5654 C   0  0  0  0  0  0  0  0  0  0  0  0
   -2.5694    0.4063    2.0241 N   0  0  0  0  0  0  0  0  0  0  0  0
   -1.6851    0.0050    2.9508 C   0  0  0  0  0  0  0  0  0  0  0  0
   -2.1505   -0.2108    4.2417 C   0  0  0  0  0  0  0  0  0  0  0  0
   -1.3059   -0.6178    5.2753 C   0  0  0  0  0  0  0  0  0  0  0  0
    0.0420   -0.8165    5.0184 C   0  0  0  0  0  0  0  0  0  0  0  0
    0.5328   -0.6097    3.7298 C   0  0  0  0  0  0  0  0  0  0  0  0
   -0.3213   -0.1992    2.6713 C   0  0  0  0  0  0  0  0  0  0  0  0
    5.2277   -0.8928   -4.2353 H   0  0  0  0  0  0  0  0  0  0  0  0
    3.5275   -0.4325   -4.5005 H   0  0  0  0  0  0  0  0  0  0  0  0
    4.1244   -2.0056   -5.0719 H   0  0  0  0  0  0  0  0  0  0  0  0
    3.9818   -3.4880   -1.8208 H   0  0  0  0  0  0  0  0  0  0  0  0
    3.0341   -1.7436   -1.0124 H   0  0  0  0  0  0  0  0  0  0  0  0
    3.5463    1.9327   -0.2791 H   0  0  0  0  0  0  0  0  0  0  0  0
    3.8733    0.4777    0.6475 H   0  0  0  0  0  0  0  0  0  0  0  0
   -0.5315    0.6742   -0.6408 H   0  0  0  0  0  0  0  0  0  0  0  0
   -4.4370    2.0107    1.3381 H   0  0  0  0  0  0  0  0  0  0  0  0
   -6.2289    2.7266   -0.1895 H   0  0  0  0  0  0  0  0  0  0  0  0
   -6.1063    2.1898   -2.6043 H   0  0  0  0  0  0  0  0  0  0  0  0
   -2.3517    0.1952   -1.9809 H   0  0  0  0  0  0  0  0  0  0  0  0
   -3.2075   -0.0561    4.4508 H   0  0  0  0  0  0  0  0  0  0  0  0
   -1.7057   -0.7755    6.2739 H   0  0  0  0  0  0  0  0  0  0  0  0
    0.7112   -1.1327    5.8144 H   0  0  0  0  0  0  0  0  0  0  0  0
    1.5960   -0.7732    3.5629 H   0  0  0  0  0  0  0  0  0  0  0  0
  1  2  1  0
  2  3  2  3
  2  4  1  0
  4  5  1  0
  5  6  3  0
  4  7  1  0
  7  8  2  0
  7  9  1  0
  9 10  1  0
 10 11  1  0
 11 12  2  0
 11 13  1  0
 13 14  2  0
 14 15  1  0
 15 16  1  0
 16 17  2  0
 17 18  1  0
 18 19  2  0
 19 20  1  0
 20 21  1  0
 20 22  2  0
 15 23  2  0
 23 24  1  0
 24 25  2  0
 25 26  1  0
 26 27  2  0
 27 28  1  0
 28 29  2  0
 29 13  1  0
 22 16  1  0
 29 24  1  0
  1 30  1  0
  1 31  1  0
  1 32  1  0
  3 33  1  0
  4 34  1  0
  9 35  1  0
  9 36  1  0
 14 37  1  0
 17 38  1  0
 18 39  1  0
 19 40  1  0
 22 41  1  0
 25 42  1  0
 26 43  1  0
 27 44  1  0
 28 45  1  0
M  END
$$$$
