
     RDKit          3D

 43 45  0  0  0  0  0  0  0  0999 V2000
    4.3682   -2.9964   -0.8132 C   0  0  0  0  0  0  0  0  0  0  0  0
    4.6836   -1.6361   -0.5488 O   0  0  0  0  0  0  0  0  0  0  0  0
    3.6727   -0.8152   -0.1149 C   0  0  0  0  0  0  0  0  0  0  0  0
    2.3145   -1.1681   -0.1233 C   0  0  0  0  0  0  0  0  0  0  0  0
    1.3280   -0.2739    0.3297 C   0  0  0  0  0  0  0  0  0  0  0  0
   -0.0870   -0.7013    0.2542 C   0  0  0  0  0  0  0  0  0  0  0  0
   -0.5384   -1.7294    1.1427 C   0  0  0  0  0  0  0  0  0  0  0  0
   -0.8563   -2.5935    1.8489 N   0  0  0  0  0  0  0  0  0  0  0  0
   -0.8783   -0.1473   -0.6862 C   0  0  0  0  0  0  0  0  0  0  0  0
   -2.2905   -0.5054   -0.9130 C   0  0  0  0  0  0  0  0  0  0  0  0
   -2.5558   -1.7032   -1.5951 C   0  0  0  0  0  0  0  0  0  0  0  0
   -3.8659   -2.0967   -1.8453 C   0  0  0  0  0  0  0  0  0  0  0  0
   -4.9232   -1.2958   -1.4211 C   0  0  0  0  0  0  0  0  0  0  0  0
   -4.6890   -0.0907   -0.7418 C   0  0  0  0  0  0  0  0  0  0  0  0
   -5.7691    0.7041   -0.3229 C   0  0  0  0  0  0  0  0  0  0  0  0
   -5.5579    1.9036    0.3548 C   0  0  0  0  0  0  0  0  0  0  0  0
   -4.2626    2.3245    0.6233 C   0  0  0  0  0  0  0  0  0  0  0  0
   -3.1780    1.5462    0.2130 C   0  0  0  0  0  0  0  0  0  0  0  0
   -3.3593    0.3242   -0.4767 C   0  0  0  0  0  0  0  0  0  0  0  0
    1.7540    0.9801    0.7939 C   0  0  0  0  0  0  0  0  0  0  0  0
    0.7949    1.9452    1.2995 N   0  0  0  0  0  4  0  0  0  0  0  0
    0.7769    3.0555    0.7529 O   0  0  0  0  0  0  0  0  0  0  0  0
    0.0734    1.5912    2.2389 O   0  0  0  0  0  1  0  0  0  0  0  0
    3.1041    1.3597    0.7967 C   0  0  0  0  0  0  0  0  0  0  0  0
    4.0681    0.4615    0.3386 C   0  0  0  0  0  0  0  0  0  0  0  0
    5.4138    0.7238    0.2983 O   0  0  0  0  0  0  0  0  0  0  0  0
    5.8579    2.0066    0.7189 C   0  0  0  0  0  0  0  0  0  0  0  0
    5.3033   -3.5194   -1.0354 H   0  0  0  0  0  0  0  0  0  0  0  0
    3.7218   -3.0836   -1.6924 H   0  0  0  0  0  0  0  0  0  0  0  0
    3.9165   -3.4779    0.0604 H   0  0  0  0  0  0  0  0  0  0  0  0
    2.0032   -2.1410   -0.4959 H   0  0  0  0  0  0  0  0  0  0  0  0
   -0.5086    0.6217   -1.3625 H   0  0  0  0  0  0  0  0  0  0  0  0
   -1.7431   -2.3408   -1.9363 H   0  0  0  0  0  0  0  0  0  0  0  0
   -4.0659   -3.0282   -2.3684 H   0  0  0  0  0  0  0  0  0  0  0  0
   -5.9410   -1.6230   -1.6247 H   0  0  0  0  0  0  0  0  0  0  0  0
   -6.7920    0.3905   -0.5210 H   0  0  0  0  0  0  0  0  0  0  0  0
   -6.4046    2.5049    0.6748 H   0  0  0  0  0  0  0  0  0  0  0  0
   -4.0898    3.2563    1.1558 H   0  0  0  0  0  0  0  0  0  0  0  0
   -2.1814    1.9108    0.4477 H   0  0  0  0  0  0  0  0  0  0  0  0
    3.3745    2.3464    1.1607 H   0  0  0  0  0  0  0  0  0  0  0  0
    5.6311    2.1741    1.7768 H   0  0  0  0  0  0  0  0  0  0  0  0
    5.4319    2.7969    0.0922 H   0  0  0  0  0  0  0  0  0  0  0  0
    6.9454    2.0391    0.6025 H   0  0  0  0  0  0  0  0  0  0  0  0
  1  2  1  0
  2  3  1  0
  3  4  2  0
  4  5  1  0
  5  6  1  0
  6  7  1  0
  7  8  3  0
  6  9  2  3
  9 10  1  0
 10 11  2  0
 11 12  1  0
 12 13  2  0
 13 14  1  0
 14 15  2  0
 15 16  1  0
 16 17  2  0
 17 18  1  0
 18 19  2  0
  5 20  2  0
 20 21  1  0
 21 22  2  0
 21 23  1  0
 20 24  1  0
 24 25  2  0
 25 26  1  0
 26 27  1  0
 25  3  1  0
 19 10  1  0
 19 14  1  0
  1 28  1  0
  1 29  1  0
  1 30  1  0
  4 31  1  0
  9 32  1  0
 11 33  1  0
 12 34  1  0
 13 35  1  0
 15 36  1  0
 16 37  1  0
 17 38  1  0
 18 39  1  0
 24 40  1  0
 27 41  1  0
 27 42  1  0
 27 43  1  0
M  CHG  2  21   1  23  -1
M  END
$$$$
