
     RDKit          3D

 58 61  0  0  0  0  0  0  0  0999 V2000
    8.7657    0.1773    0.9111 C   0  0  0  0  0  0  0  0  0  0  0  0
    7.8329    0.5663   -0.0897 O   0  0  0  0  0  0  0  0  0  0  0  0
    6.5077    0.5160    0.2475 C   0  0  0  0  0  0  0  0  0  0  0  0
    5.9922    0.1304    1.4787 C   0  0  0  0  0  0  0  0  0  0  0  0
    4.6089    0.1219    1.6806 C   0  0  0  0  0  0  0  0  0  0  0  0
    3.7052    0.4926    0.6636 C   0  0  0  0  0  0  0  0  0  0  0  0
    2.2559    0.4423    0.9468 C   0  0  0  0  0  0  0  0  0  0  0  0
    1.3355   -0.1158    0.0783 C   0  0  0  0  0  0  0  0  0  0  0  0
   -0.0118   -0.1170    0.4406 C   0  0  0  0  0  0  0  0  0  0  0  0
   -0.9444   -0.6641   -0.5713 C   0  0  0  0  0  0  0  0  0  0  0  0
   -0.7498   -1.7764   -1.0452 O   0  0  0  0  0  0  0  0  0  0  0  0
   -1.9415    0.1932   -0.9911 N   0  0  0  0  0  0  0  0  0  0  0  0
   -2.6763   -0.0811   -2.2159 C   0  0  0  0  0  0  0  0  0  0  0  0
   -3.7134   -1.2212   -2.1229 C   0  0  0  0  0  0  0  0  0  0  0  0
   -5.0279   -0.8047   -1.5895 N   0  0  0  0  0  0  0  0  0  0  0  0
   -4.9453   -0.4051   -0.1697 C   0  0  0  0  0  0  0  0  0  0  0  0
   -6.3062   -0.5121    0.5359 C   0  0  0  0  0  0  0  0  0  0  0  0
   -6.7892   -1.8609    0.6009 O   0  0  0  0  0  0  0  0  0  0  0  0
   -6.3224   -2.6746   -0.4849 C   0  0  0  0  0  0  0  0  0  0  0  0
   -6.0447   -1.8687   -1.7642 C   0  0  0  0  0  0  0  0  0  0  0  0
   -0.4287    0.3903    1.6892 C   0  0  0  0  0  0  0  0  0  0  0  0
   -1.7596    0.3710    2.1763 C   0  0  0  0  0  0  0  0  0  0  0  0
   -2.0806    0.9008    3.4245 C   0  0  0  0  0  0  0  0  0  0  0  0
   -1.0777    1.4498    4.2089 C   0  0  0  0  0  0  0  0  0  0  0  0
    0.2387    1.4531    3.7434 C   0  0  0  0  0  0  0  0  0  0  0  0
    0.5838    0.9279    2.5051 C   0  0  0  0  0  0  0  0  0  0  0  0
    1.8774    0.9536    2.1460 N   0  0  0  0  0  0  0  0  0  0  0  0
    4.2415    0.9022   -0.5780 C   0  0  0  0  0  0  0  0  0  0  0  0
    3.3406    1.2981   -1.5378 O   0  0  0  0  0  0  0  0  0  0  0  0
    3.8565    1.8438   -2.7449 C   0  0  0  0  0  0  0  0  0  0  0  0
    5.6314    0.9008   -0.7724 C   0  0  0  0  0  0  0  0  0  0  0  0
    9.7695    0.2648    0.4843 H   0  0  0  0  0  0  0  0  0  0  0  0
    8.6184   -0.8677    1.2041 H   0  0  0  0  0  0  0  0  0  0  0  0
    8.7135    0.8434    1.7788 H   0  0  0  0  0  0  0  0  0  0  0  0
    6.6291   -0.1694    2.3039 H   0  0  0  0  0  0  0  0  0  0  0  0
    4.2236   -0.1841    2.6530 H   0  0  0  0  0  0  0  0  0  0  0  0
    1.6491   -0.5402   -0.8709 H   0  0  0  0  0  0  0  0  0  0  0  0
   -1.8986    1.1569   -0.6831 H   0  0  0  0  0  0  0  0  0  0  0  0
   -3.1578    0.8526   -2.5278 H   0  0  0  0  0  0  0  0  0  0  0  0
   -1.9377   -0.3367   -2.9857 H   0  0  0  0  0  0  0  0  0  0  0  0
   -3.8712   -1.5614   -3.1546 H   0  0  0  0  0  0  0  0  0  0  0  0
   -3.3176   -2.0769   -1.5632 H   0  0  0  0  0  0  0  0  0  0  0  0
   -4.5863    0.6270   -0.1023 H   0  0  0  0  0  0  0  0  0  0  0  0
   -4.2421   -1.0554    0.3650 H   0  0  0  0  0  0  0  0  0  0  0  0
   -7.0608    0.1006    0.0287 H   0  0  0  0  0  0  0  0  0  0  0  0
   -6.2264   -0.1443    1.5639 H   0  0  0  0  0  0  0  0  0  0  0  0
   -7.0892   -3.4319   -0.6770 H   0  0  0  0  0  0  0  0  0  0  0  0
   -5.4200   -3.2024   -0.1541 H   0  0  0  0  0  0  0  0  0  0  0  0
   -5.7887   -2.5474   -2.5864 H   0  0  0  0  0  0  0  0  0  0  0  0
   -6.9751   -1.3680   -2.0611 H   0  0  0  0  0  0  0  0  0  0  0  0
   -2.5551   -0.0798    1.5914 H   0  0  0  0  0  0  0  0  0  0  0  0
   -3.1061    0.8749    3.7844 H   0  0  0  0  0  0  0  0  0  0  0  0
   -1.3088    1.8654    5.1864 H   0  0  0  0  0  0  0  0  0  0  0  0
    1.0229    1.8739    4.3696 H   0  0  0  0  0  0  0  0  0  0  0  0
    3.0062    2.1574   -3.3584 H   0  0  0  0  0  0  0  0  0  0  0  0
    4.4697    2.7296   -2.5499 H   0  0  0  0  0  0  0  0  0  0  0  0
    4.4130    1.0903   -3.3110 H   0  0  0  0  0  0  0  0  0  0  0  0
    6.0723    1.1994   -1.7180 H   0  0  0  0  0  0  0  0  0  0  0  0
  1  2  1  0
  2  3  1  0
  3  4  2  0
  4  5  1  0
  5  6  2  0
  6  7  1  0
  7  8  2  0
  8  9  1  0
  9 10  1  0
 10 11  2  0
 10 12  1  0
 12 13  1  0
 13 14  1  0
 14 15  1  0
 15 16  1  0
 16 17  1  0
 17 18  1  0
 18 19  1  0
 19 20  1  0
  9 21  2  0
 21 22  1  0
 22 23  2  0
 23 24  1  0
 24 25  2  0
 25 26  1  0
 26 27  2  0
  6 28  1  0
 28 29  1  0
 29 30  1  0
 28 31  2  0
 31  3  1  0
 27  7  1  0
 20 15  1  0
 26 21  1  0
  1 32  1  0
  1 33  1  0
  1 34  1  0
  4 35  1  0
  5 36  1  0
  8 37  1  0
 12 38  1  0
 13 39  1  0
 13 40  1  0
 14 41  1  0
 14 42  1  0
 16 43  1  0
 16 44  1  0
 17 45  1  0
 17 46  1  0
 19 47  1  0
 19 48  1  0
 20 49  1  0
 20 50  1  0
 22 51  1  0
 23 52  1  0
 24 53  1  0
 25 54  1  0
 30 55  1  0
 30 56  1  0
 30 57  1  0
 31 58  1  0
M  END
$$$$
