
     RDKit          3D

 50 51  0  0  0  0  0  0  0  0999 V2000
    7.4766    0.8061    3.1040 C   0  0  0  0  0  0  0  0  0  0  0  0
    7.1474   -0.3666    2.1925 C   0  0  0  0  0  0  0  0  0  0  0  0
    7.2077    0.0392    0.7192 C   0  0  0  0  0  0  0  0  0  0  0  0
    7.0152   -1.1353   -0.2481 C   0  0  0  0  0  0  0  0  0  0  0  0
    5.6449   -1.8103   -0.1782 C   0  0  0  0  0  0  0  0  0  0  0  0
    4.5033   -0.9465   -0.6996 C   0  0  0  0  0  0  0  0  0  0  0  0
    4.6981    0.1016   -1.3024 O   0  0  0  0  0  0  0  0  0  0  0  0
    3.2708   -1.5195   -0.4224 N   0  0  0  0  0  0  0  0  0  0  0  0
    1.9960   -1.0237   -0.7649 C   0  0  0  0  0  0  0  0  0  0  0  0
    0.8866   -1.7752   -0.3514 C   0  0  0  0  0  0  0  0  0  0  0  0
   -0.4160   -1.3557   -0.6466 C   0  0  0  0  0  0  0  0  0  0  0  0
   -0.6213   -0.1706   -1.3600 C   0  0  0  0  0  0  0  0  0  0  0  0
   -1.9857    0.3137   -1.7020 C   0  0  0  0  0  0  0  0  0  0  0  0
   -2.1685    0.8838   -2.7724 O   0  0  0  0  0  0  0  0  0  0  0  0
   -2.9476    0.0936   -0.7263 N   0  0  0  0  0  0  0  0  0  0  0  0
   -4.2260    0.5151   -0.9373 N   0  0  0  0  0  0  0  0  0  0  0  0
   -5.0461    0.3533    0.0493 C   0  0  0  0  0  0  0  0  0  0  0  0
   -6.4597    0.7705   -0.0510 C   0  0  0  0  0  0  0  0  0  0  0  0
   -6.9489    1.3593   -1.2237 C   0  0  0  0  0  0  0  0  0  0  0  0
   -8.2887    1.7492   -1.3053 C   0  0  0  0  0  0  0  0  0  0  0  0
   -9.1339    1.5459   -0.2062 C   0  0  0  0  0  0  0  0  0  0  0  0
  -10.5434    1.9525   -0.2851 N   0  0  0  0  0  4  0  0  0  0  0  0
  -11.2546    1.7541    0.7103 O   0  0  0  0  0  0  0  0  0  0  0  0
  -10.9378    2.4681   -1.3401 O   0  0  0  0  0  1  0  0  0  0  0  0
   -8.6462    0.9565    0.9704 C   0  0  0  0  0  0  0  0  0  0  0  0
   -7.3046    0.5686    1.0457 C   0  0  0  0  0  0  0  0  0  0  0  0
    0.4811    0.5710   -1.7932 C   0  0  0  0  0  0  0  0  0  0  0  0
    1.7817    0.1499   -1.4900 C   0  0  0  0  0  0  0  0  0  0  0  0
    6.7693    1.6283    2.9559 H   0  0  0  0  0  0  0  0  0  0  0  0
    8.4866    1.1819    2.9114 H   0  0  0  0  0  0  0  0  0  0  0  0
    7.4239    0.4971    4.1527 H   0  0  0  0  0  0  0  0  0  0  0  0
    6.1477   -0.7344    2.4462 H   0  0  0  0  0  0  0  0  0  0  0  0
    7.8553   -1.1809    2.3851 H   0  0  0  0  0  0  0  0  0  0  0  0
    8.1883    0.4871    0.5137 H   0  0  0  0  0  0  0  0  0  0  0  0
    6.4639    0.8194    0.5222 H   0  0  0  0  0  0  0  0  0  0  0  0
    7.1940   -0.7771   -1.2695 H   0  0  0  0  0  0  0  0  0  0  0  0
    7.7862   -1.8888   -0.0447 H   0  0  0  0  0  0  0  0  0  0  0  0
    5.4230   -2.1324    0.8442 H   0  0  0  0  0  0  0  0  0  0  0  0
    5.6706   -2.7109   -0.8046 H   0  0  0  0  0  0  0  0  0  0  0  0
    3.2856   -2.3943    0.0862 H   0  0  0  0  0  0  0  0  0  0  0  0
    1.0201   -2.7042    0.1977 H   0  0  0  0  0  0  0  0  0  0  0  0
   -1.2516   -1.9807   -0.3446 H   0  0  0  0  0  0  0  0  0  0  0  0
   -2.6859   -0.2569    0.1867 H   0  0  0  0  0  0  0  0  0  0  0  0
   -4.7267   -0.1014    1.0042 H   0  0  0  0  0  0  0  0  0  0  0  0
   -6.2900    1.5174   -2.0773 H   0  0  0  0  0  0  0  0  0  0  0  0
   -8.6510    2.2054   -2.2249 H   0  0  0  0  0  0  0  0  0  0  0  0
   -9.2944    0.7947    1.8299 H   0  0  0  0  0  0  0  0  0  0  0  0
   -6.9337    0.1130    1.9607 H   0  0  0  0  0  0  0  0  0  0  0  0
    0.3342    1.4831   -2.3697 H   0  0  0  0  0  0  0  0  0  0  0  0
    2.6044    0.7624   -1.8467 H   0  0  0  0  0  0  0  0  0  0  0  0
  1  2  1  0
  2  3  1  0
  3  4  1  0
  4  5  1  0
  5  6  1  0
  6  7  2  0
  6  8  1  0
  8  9  1  0
  9 10  2  0
 10 11  1  0
 11 12  2  0
 12 13  1  0
 13 14  2  0
 13 15  1  0
 15 16  1  0
 16 17  2  3
 17 18  1  0
 18 19  2  0
 19 20  1  0
 20 21  2  0
 21 22  1  0
 22 23  2  0
 22 24  1  0
 21 25  1  0
 25 26  2  0
 12 27  1  0
 27 28  2  0
 28  9  1  0
 26 18  1  0
  1 29  1  0
  1 30  1  0
  1 31  1  0
  2 32  1  0
  2 33  1  0
  3 34  1  0
  3 35  1  0
  4 36  1  0
  4 37  1  0
  5 38  1  0
  5 39  1  0
  8 40  1  0
 10 41  1  0
 11 42  1  0
 15 43  1  0
 17 44  1  0
 19 45  1  0
 20 46  1  0
 25 47  1  0
 26 48  1  0
 27 49  1  0
 28 50  1  0
M  CHG  2  22   1  24  -1
M  END
$$$$
