
     RDKit          3D

 35 37  0  0  0  0  0  0  0  0999 V2000
    0.1066   -1.8885    0.0520 O   0  0  0  0  0  0  0  0  0  0  0  0
    0.1060   -0.8423    0.6949 C   0  0  0  0  0  0  0  0  0  0  0  0
    1.1563   -0.4408    1.4909 N   0  0  0  0  0  0  0  0  0  0  0  0
    2.4146   -1.1385    1.5257 C   0  0  0  0  0  0  0  0  0  0  0  0
    3.4015   -0.5157    0.5713 C   0  0  0  0  0  0  0  0  0  0  0  0
    3.4238   -0.9076   -0.7774 C   0  0  0  0  0  0  0  0  0  0  0  0
    4.3192   -0.3173   -1.6701 C   0  0  0  0  0  0  0  0  0  0  0  0
    5.1869    0.6688   -1.2176 C   0  0  0  0  0  0  0  0  0  0  0  0
    6.0459    1.2362   -2.0747 F   0  0  0  0  0  0  0  0  0  0  0  0
    5.1745    1.0788    0.1103 C   0  0  0  0  0  0  0  0  0  0  0  0
    4.2796    0.4902    1.0055 C   0  0  0  0  0  0  0  0  0  0  0  0
   -1.0174    0.0999    0.6742 C   0  0  0  0  0  0  0  0  0  0  0  0
   -0.9818    1.2561    1.3741 N   0  0  0  0  0  0  0  0  0  0  0  0
   -2.1858    1.9013    1.1185 O   0  0  0  0  0  0  0  0  0  0  0  0
   -2.9134    1.1372    0.2796 C   0  0  0  0  0  0  0  0  0  0  0  0
   -2.2402   -0.0138   -0.0317 C   0  0  0  0  0  0  0  0  0  0  0  0
   -2.7966   -1.0399   -0.9466 C   0  0  0  0  0  0  0  0  0  0  0  0
   -4.3137   -0.8169   -1.1522 C   0  0  0  0  0  0  0  0  0  0  0  0
   -4.6788    0.6716   -1.3572 C   0  0  0  0  0  0  0  0  0  0  0  0
   -4.2562    1.5571   -0.1646 C   0  0  0  0  0  0  0  0  0  0  0  0
    1.0919    0.4936    1.8811 H   0  0  0  0  0  0  0  0  0  0  0  0
    2.2731   -2.1991    1.2883 H   0  0  0  0  0  0  0  0  0  0  0  0
    2.7927   -1.0844    2.5526 H   0  0  0  0  0  0  0  0  0  0  0  0
    2.7365   -1.6726   -1.1363 H   0  0  0  0  0  0  0  0  0  0  0  0
    4.3413   -0.6173   -2.7127 H   0  0  0  0  0  0  0  0  0  0  0  0
    5.8584    1.8550    0.4382 H   0  0  0  0  0  0  0  0  0  0  0  0
    4.2704    0.8210    2.0417 H   0  0  0  0  0  0  0  0  0  0  0  0
   -2.2860   -0.9688   -1.9144 H   0  0  0  0  0  0  0  0  0  0  0  0
   -2.6269   -2.0482   -0.5544 H   0  0  0  0  0  0  0  0  0  0  0  0
   -4.8556   -1.1921   -0.2742 H   0  0  0  0  0  0  0  0  0  0  0  0
   -4.6536   -1.4054   -2.0119 H   0  0  0  0  0  0  0  0  0  0  0  0
   -5.7575    0.7727   -1.5218 H   0  0  0  0  0  0  0  0  0  0  0  0
   -4.1821    1.0305   -2.2682 H   0  0  0  0  0  0  0  0  0  0  0  0
   -4.9669    1.4273    0.6594 H   0  0  0  0  0  0  0  0  0  0  0  0
   -4.2668    2.6119   -0.4570 H   0  0  0  0  0  0  0  0  0  0  0  0
  1  2  2  0
  2  3  1  0
  3  4  1  0
  4  5  1  0
  5  6  2  0
  6  7  1  0
  7  8  2  0
  8  9  1  0
  8 10  1  0
 10 11  2  0
  2 12  1  0
 12 13  2  0
 13 14  1  0
 14 15  1  0
 15 16  2  0
 16 17  1  0
 17 18  1  0
 18 19  1  0
 19 20  1  0
 11  5  1  0
 16 12  1  0
 20 15  1  0
  3 21  1  0
  4 22  1  0
  4 23  1  0
  6 24  1  0
  7 25  1  0
 10 26  1  0
 11 27  1  0
 17 28  1  0
 17 29  1  0
 18 30  1  0
 18 31  1  0
 19 32  1  0
 19 33  1  0
 20 34  1  0
 20 35  1  0
M  END
$$$$
