
     RDKit          3D

 47 49  0  0  0  0  0  0  0  0999 V2000
    0.6962    2.0696   -2.0949 C   0  0  0  0  0  0  0  0  0  0  0  0
   -0.2432    2.2088   -0.9799 N   0  0  0  0  0  0  0  0  0  0  0  0
   -1.0274    3.4443   -1.0032 C   0  0  0  0  0  0  0  0  0  0  0  0
   -0.2144    1.3503    0.1592 C   0  0  0  0  0  0  0  0  0  0  0  0
   -1.5323    1.2129    0.9436 C   0  0  0  0  0  0  0  0  0  0  0  0
   -2.2351   -0.0380    0.6298 N   0  0  0  0  0  0  0  0  0  0  0  0
   -2.7384   -0.1034   -0.7542 C   0  0  0  0  0  0  0  0  0  0  0  0
   -4.1384   -0.7312   -0.9345 C   0  0  0  0  0  0  0  0  0  0  0  0
   -4.3902   -1.8475   -0.0365 N   0  0  0  0  0  0  0  0  0  0  0  0
   -5.1677   -2.9206   -0.4011 C   0  0  0  0  0  0  0  0  0  0  0  0
   -5.4907   -3.8487    0.3287 O   0  0  0  0  0  0  0  0  0  0  0  0
   -3.9029   -1.7320    1.3343 C   0  0  0  0  0  0  0  0  0  0  0  0
   -3.2584   -0.3661    1.6288 C   0  0  0  0  0  0  0  0  0  0  0  0
    0.8711    0.6407    0.5651 C   0  0  0  0  0  0  0  0  0  0  0  0
    2.1037    0.6474   -0.0575 N   0  0  0  0  0  0  0  0  0  0  0  0
    2.7985   -0.1883    0.6409 C   0  0  0  0  0  0  0  0  0  0  0  0
    4.1982   -0.5788    0.4098 C   0  0  0  0  0  0  0  0  0  0  0  0
    4.8957    0.0061   -0.6545 C   0  0  0  0  0  0  0  0  0  0  0  0
    6.2247   -0.3450   -0.8986 C   0  0  0  0  0  0  0  0  0  0  0  0
    6.8600   -1.2799   -0.0821 C   0  0  0  0  0  0  0  0  0  0  0  0
    6.1697   -1.8656    0.9790 C   0  0  0  0  0  0  0  0  0  0  0  0
    4.8400   -1.5174    1.2272 C   0  0  0  0  0  0  0  0  0  0  0  0
    2.2022   -0.7693    1.7014 O   0  0  0  0  0  0  0  0  0  0  0  0
    0.9352   -0.2684    1.7602 C   0  0  0  0  0  0  0  0  0  0  0  0
    0.1279   -0.5099    2.6344 O   0  0  0  0  0  0  0  0  0  0  0  0
    0.8847    1.0164   -2.3287 H   0  0  0  0  0  0  0  0  0  0  0  0
    1.6408    2.5753   -1.8705 H   0  0  0  0  0  0  0  0  0  0  0  0
    0.2831    2.5146   -3.0076 H   0  0  0  0  0  0  0  0  0  0  0  0
   -2.0573    3.2347   -1.3076 H   0  0  0  0  0  0  0  0  0  0  0  0
   -1.0344    3.9234   -0.0181 H   0  0  0  0  0  0  0  0  0  0  0  0
   -0.6118    4.1747   -1.7066 H   0  0  0  0  0  0  0  0  0  0  0  0
   -1.3103    1.2838    2.0154 H   0  0  0  0  0  0  0  0  0  0  0  0
   -2.2029    2.0610    0.7645 H   0  0  0  0  0  0  0  0  0  0  0  0
   -2.7726    0.8847   -1.2271 H   0  0  0  0  0  0  0  0  0  0  0  0
   -2.0189   -0.7010   -1.3274 H   0  0  0  0  0  0  0  0  0  0  0  0
   -4.9070    0.0205   -0.7151 H   0  0  0  0  0  0  0  0  0  0  0  0
   -4.2830   -1.0465   -1.9738 H   0  0  0  0  0  0  0  0  0  0  0  0
   -5.4900   -2.8782   -1.4546 H   0  0  0  0  0  0  0  0  0  0  0  0
   -4.7386   -1.9110    2.0206 H   0  0  0  0  0  0  0  0  0  0  0  0
   -3.1752   -2.5384    1.4875 H   0  0  0  0  0  0  0  0  0  0  0  0
   -4.0329    0.4117    1.6472 H   0  0  0  0  0  0  0  0  0  0  0  0
   -2.8148   -0.4085    2.6305 H   0  0  0  0  0  0  0  0  0  0  0  0
    4.4096    0.7371   -1.2974 H   0  0  0  0  0  0  0  0  0  0  0  0
    6.7639    0.1108   -1.7254 H   0  0  0  0  0  0  0  0  0  0  0  0
    7.8952   -1.5531   -0.2731 H   0  0  0  0  0  0  0  0  0  0  0  0
    6.6676   -2.5950    1.6137 H   0  0  0  0  0  0  0  0  0  0  0  0
    4.3205   -1.9871    2.0590 H   0  0  0  0  0  0  0  0  0  0  0  0
  1  2  1  0
  2  3  1  0
  2  4  1  0
  4  5  1  0
  5  6  1  0
  6  7  1  0
  7  8  1  0
  8  9  1  0
  9 10  1  0
 10 11  2  0
  9 12  1  0
 12 13  1  0
  4 14  2  3
 14 15  1  0
 15 16  2  0
 16 17  1  0
 17 18  2  0
 18 19  1  0
 19 20  2  0
 20 21  1  0
 21 22  2  0
 16 23  1  0
 23 24  1  0
 24 25  2  0
 13  6  1  0
 24 14  1  0
 22 17  1  0
  1 26  1  0
  1 27  1  0
  1 28  1  0
  3 29  1  0
  3 30  1  0
  3 31  1  0
  5 32  1  0
  5 33  1  0
  7 34  1  0
  7 35  1  0
  8 36  1  0
  8 37  1  0
 10 38  1  0
 12 39  1  0
 12 40  1  0
 13 41  1  0
 13 42  1  0
 18 43  1  0
 19 44  1  0
 20 45  1  0
 21 46  1  0
 22 47  1  0
M  END
$$$$
