
     RDKit          3D

 42 44  0  0  0  0  0  0  0  0999 V2000
   -6.4733    1.6407    1.0466 C   0  0  0  0  0  0  0  0  0  0  0  0
   -5.2059    0.9938    0.5705 C   0  0  0  0  0  0  0  0  0  0  0  0
   -4.4340    1.5990   -0.4266 C   0  0  0  0  0  0  0  0  0  0  0  0
   -3.2297    1.0229   -0.8620 C   0  0  0  0  0  0  0  0  0  0  0  0
   -2.4365    1.7146   -1.9394 C   0  0  0  0  0  0  0  0  0  0  0  0
   -2.7923   -0.1858   -0.2773 C   0  0  0  0  0  0  0  0  0  0  0  0
   -1.5573   -0.8051   -0.7321 C   0  0  0  0  0  0  0  0  0  0  0  0
   -1.5246   -1.7848   -1.7038 C   0  0  0  0  0  0  0  0  0  0  0  0
    0.0995   -2.2594   -1.9724 S   0  0  0  0  0  0  0  0  0  0  0  0
    0.6142   -1.1451   -0.7911 C   0  0  0  0  0  0  0  0  0  0  0  0
    1.9292   -0.9595   -0.4523 N   0  0  0  0  0  0  0  0  0  0  0  0
    3.0090   -1.6555   -0.9246 C   0  0  0  0  0  0  0  0  0  0  0  0
    3.0195   -2.6174   -1.6816 O   0  0  0  0  0  0  0  0  0  0  0  0
    4.3100   -1.1986   -0.3640 C   0  0  0  0  0  0  0  0  0  0  0  0
    4.6164    0.0948   -0.1801 C   0  0  0  0  0  0  0  0  0  0  0  0
    5.8835    0.5128    0.3264 C   0  0  0  0  0  0  0  0  0  0  0  0
    7.0080   -0.2084    0.6973 C   0  0  0  0  0  0  0  0  0  0  0  0
    8.0776    0.6134    1.1608 C   0  0  0  0  0  0  0  0  0  0  0  0
    7.7483    1.9471    1.1350 C   0  0  0  0  0  0  0  0  0  0  0  0
    6.1638    2.2029    0.5567 S   0  0  0  0  0  0  0  0  0  0  0  0
   -0.3290   -0.4367   -0.2160 N   0  0  0  0  0  0  0  0  0  0  0  0
   -3.5472   -0.7881    0.7532 C   0  0  0  0  0  0  0  0  0  0  0  0
   -3.1016   -2.0603    1.4248 C   0  0  0  0  0  0  0  0  0  0  0  0
   -4.7492   -0.1883    1.1626 C   0  0  0  0  0  0  0  0  0  0  0  0
   -7.1879    0.8888    1.3974 H   0  0  0  0  0  0  0  0  0  0  0  0
   -6.2553    2.3319    1.8665 H   0  0  0  0  0  0  0  0  0  0  0  0
   -6.9579    2.1944    0.2355 H   0  0  0  0  0  0  0  0  0  0  0  0
   -4.7750    2.5334   -0.8693 H   0  0  0  0  0  0  0  0  0  0  0  0
   -2.3548    1.0756   -2.8243 H   0  0  0  0  0  0  0  0  0  0  0  0
   -1.4361    1.9692   -1.5750 H   0  0  0  0  0  0  0  0  0  0  0  0
   -2.9156    2.6483   -2.2533 H   0  0  0  0  0  0  0  0  0  0  0  0
   -2.3454   -2.2274   -2.2497 H   0  0  0  0  0  0  0  0  0  0  0  0
    2.0474   -0.2583    0.2642 H   0  0  0  0  0  0  0  0  0  0  0  0
    5.0141   -2.0051   -0.1929 H   0  0  0  0  0  0  0  0  0  0  0  0
    3.8971    0.8692   -0.4386 H   0  0  0  0  0  0  0  0  0  0  0  0
    7.0769   -1.2879    0.6414 H   0  0  0  0  0  0  0  0  0  0  0  0
    9.0389    0.2417    1.4943 H   0  0  0  0  0  0  0  0  0  0  0  0
    8.3632    2.7872    1.4277 H   0  0  0  0  0  0  0  0  0  0  0  0
   -3.7520   -2.3171    2.2679 H   0  0  0  0  0  0  0  0  0  0  0  0
   -2.0875   -1.9516    1.8229 H   0  0  0  0  0  0  0  0  0  0  0  0
   -3.1322   -2.8951    0.7176 H   0  0  0  0  0  0  0  0  0  0  0  0
   -5.3363   -0.6462    1.9570 H   0  0  0  0  0  0  0  0  0  0  0  0
  1  2  1  0
  2  3  2  0
  3  4  1  0
  4  5  1  0
  4  6  2  0
  6  7  1  0
  7  8  2  0
  8  9  1  0
  9 10  1  0
 10 11  1  0
 11 12  1  0
 12 13  2  0
 12 14  1  0
 14 15  2  3
 15 16  1  0
 16 17  2  0
 17 18  1  0
 18 19  2  0
 19 20  1  0
 10 21  2  0
  6 22  1  0
 22 23  1  0
 22 24  2  0
 24  2  1  0
 21  7  1  0
 20 16  1  0
  1 25  1  0
  1 26  1  0
  1 27  1  0
  3 28  1  0
  5 29  1  0
  5 30  1  0
  5 31  1  0
  8 32  1  0
 11 33  1  0
 14 34  1  0
 15 35  1  0
 17 36  1  0
 18 37  1  0
 19 38  1  0
 23 39  1  0
 23 40  1  0
 23 41  1  0
 24 42  1  0
M  END
$$$$
