
     RDKit          3D

 46 49  0  0  0  0  0  0  0  0999 V2000
    6.1459    0.1407    2.1190 N   0  0  0  0  0  0  0  0  0  0  0  0
    5.8978   -1.2063    1.1376 S   0  0  0  0  0  6  0  0  0  0  0  0
    6.6982   -1.0347   -0.0518 O   0  0  0  0  0  0  0  0  0  0  0  0
    6.0261   -2.3570    2.0024 O   0  0  0  0  0  0  0  0  0  0  0  0
    4.1899   -1.0190    0.7067 C   0  0  0  0  0  0  0  0  0  0  0  0
    3.2061   -1.4425    1.5971 C   0  0  0  0  0  0  0  0  0  0  0  0
    1.8594   -1.2795    1.2558 C   0  0  0  0  0  0  0  0  0  0  0  0
    1.4612   -0.7158    0.0283 C   0  0  0  0  0  0  0  0  0  0  0  0
    0.1099   -0.5654   -0.2778 N   0  0  0  0  0  0  0  0  0  0  0  0
   -0.8558   -0.9019    0.6275 N   0  0  0  0  0  0  0  0  0  0  0  0
   -1.9959   -0.8589    0.0057 C   0  0  0  0  0  0  0  0  0  0  0  0
   -3.2908   -1.1261    0.6740 C   0  0  0  0  0  0  0  0  0  0  0  0
   -4.4872   -1.2014   -0.0495 C   0  0  0  0  0  0  0  0  0  0  0  0
   -5.6930   -1.4466    0.6159 C   0  0  0  0  0  0  0  0  0  0  0  0
   -5.7019   -1.6163    1.9997 C   0  0  0  0  0  0  0  0  0  0  0  0
   -7.3345   -1.9441    2.8942 Br  0  0  0  0  0  0  0  0  0  0  0  0
   -4.5169   -1.5432    2.7282 C   0  0  0  0  0  0  0  0  0  0  0  0
   -3.3117   -1.2991    2.0647 C   0  0  0  0  0  0  0  0  0  0  0  0
   -1.9061   -0.5511   -1.4637 C   0  0  0  0  0  0  0  0  0  0  0  0
   -0.4387   -0.1257   -1.5628 C   0  0  0  0  0  0  0  0  0  0  0  0
   -0.3265    1.3775   -1.7883 C   0  0  0  0  0  0  0  0  0  0  0  0
   -0.4060    2.2986   -0.7275 C   0  0  0  0  0  0  0  0  0  0  0  0
   -0.3408    3.6712   -0.9693 C   0  0  0  0  0  0  0  0  0  0  0  0
   -0.2044    4.1313   -2.2715 C   0  0  0  0  0  0  0  0  0  0  0  0
   -0.1533    5.4485   -2.5034 F   0  0  0  0  0  0  0  0  0  0  0  0
   -0.1248    3.2440   -3.3379 C   0  0  0  0  0  0  0  0  0  0  0  0
   -0.1878    1.8697   -3.0993 C   0  0  0  0  0  0  0  0  0  0  0  0
    2.4834   -0.3223   -0.8522 C   0  0  0  0  0  0  0  0  0  0  0  0
    3.8372   -0.4674   -0.5230 C   0  0  0  0  0  0  0  0  0  0  0  0
    5.3653    0.7969    2.1001 H   0  0  0  0  0  0  0  0  0  0  0  0
    6.3556   -0.1758    3.0662 H   0  0  0  0  0  0  0  0  0  0  0  0
    3.4664   -1.8960    2.5502 H   0  0  0  0  0  0  0  0  0  0  0  0
    1.1005   -1.6095    1.9634 H   0  0  0  0  0  0  0  0  0  0  0  0
   -4.5095   -1.0715   -1.1275 H   0  0  0  0  0  0  0  0  0  0  0  0
   -6.6202   -1.4963    0.0483 H   0  0  0  0  0  0  0  0  0  0  0  0
   -4.5180   -1.6679    3.8073 H   0  0  0  0  0  0  0  0  0  0  0  0
   -2.3910   -1.2395    2.6415 H   0  0  0  0  0  0  0  0  0  0  0  0
   -2.0864   -1.4737   -2.0249 H   0  0  0  0  0  0  0  0  0  0  0  0
   -2.6186    0.2180   -1.7727 H   0  0  0  0  0  0  0  0  0  0  0  0
    0.0412   -0.6657   -2.3888 H   0  0  0  0  0  0  0  0  0  0  0  0
   -0.5144    1.9480    0.2986 H   0  0  0  0  0  0  0  0  0  0  0  0
   -0.4031    4.3833   -0.1509 H   0  0  0  0  0  0  0  0  0  0  0  0
   -0.0219    3.6293   -4.3464 H   0  0  0  0  0  0  0  0  0  0  0  0
   -0.1323    1.1873   -3.9453 H   0  0  0  0  0  0  0  0  0  0  0  0
    2.2478    0.1197   -1.8165 H   0  0  0  0  0  0  0  0  0  0  0  0
    4.5996   -0.1439   -1.2290 H   0  0  0  0  0  0  0  0  0  0  0  0
  1  2  1  0
  2  3  2  0
  2  4  2  0
  2  5  1  0
  5  6  2  0
  6  7  1  0
  7  8  2  0
  8  9  1  0
  9 10  1  0
 10 11  2  0
 11 12  1  0
 12 13  2  0
 13 14  1  0
 14 15  2  0
 15 16  1  0
 15 17  1  0
 17 18  2  0
 11 19  1  0
 19 20  1  0
 20 21  1  0
 21 22  2  0
 22 23  1  0
 23 24  2  0
 24 25  1  0
 24 26  1  0
 26 27  2  0
  8 28  1  0
 28 29  2  0
 29  5  1  0
 20  9  1  0
 27 21  1  0
 18 12  1  0
  1 30  1  0
  1 31  1  0
  6 32  1  0
  7 33  1  0
 13 34  1  0
 14 35  1  0
 17 36  1  0
 18 37  1  0
 19 38  1  0
 19 39  1  0
 20 40  1  0
 22 41  1  0
 23 42  1  0
 26 43  1  0
 27 44  1  0
 28 45  1  0
 29 46  1  0
M  END
$$$$
