
     RDKit          3D

 48 50  0  0  0  0  0  0  0  0999 V2000
    5.3807   -0.6320    2.8577 C   0  0  0  0  0  0  0  0  0  0  0  0
    4.4984   -0.2097    1.7111 C   0  0  0  0  0  0  0  0  0  0  0  0
    5.0974    0.2203    0.5207 C   0  0  0  0  0  0  0  0  0  0  0  0
    4.3343    0.6213   -0.5767 C   0  0  0  0  0  0  0  0  0  0  0  0
    2.9399    0.5854   -0.4566 C   0  0  0  0  0  0  0  0  0  0  0  0
    1.7501    1.0033   -1.6247 S   0  0  0  0  0  0  0  0  0  0  0  0
    0.5067    0.6579   -0.5021 C   0  0  0  0  0  0  0  0  0  0  0  0
   -0.8418    0.7351   -0.8555 N   0  0  0  0  0  0  0  0  0  0  0  0
   -1.8034   -0.1321   -0.1668 C   0  0  0  0  0  0  0  0  0  0  0  0
   -1.7587   -1.5752   -0.6772 C   0  0  0  0  0  0  0  0  0  0  0  0
   -2.6825   -2.5080    0.1155 C   0  0  0  0  0  0  0  0  0  0  0  0
   -4.0891   -2.0779    0.1681 N   0  0  0  0  0  0  0  0  0  0  0  0
   -4.8412   -2.9326    1.0911 C   0  0  0  0  0  0  0  0  0  0  0  0
   -4.7213   -2.1052   -1.1544 C   0  0  0  0  0  0  0  0  0  0  0  0
   -1.2956    1.4062   -2.0002 C   0  0  0  0  0  0  0  0  0  0  0  0
   -2.1820    0.9133   -2.7022 O   0  0  0  0  0  0  0  0  0  0  0  0
   -0.8032    2.7654   -2.2308 C   0  0  0  0  0  0  0  0  0  0  0  0
   -0.3838    3.7215   -1.3179 C   0  0  0  0  0  0  0  0  0  0  0  0
    0.0137    4.9397   -1.9471 C   0  0  0  0  0  0  0  0  0  0  0  0
   -0.1408    4.8659   -3.3073 C   0  0  0  0  0  0  0  0  0  0  0  0
    0.2835    6.3020   -4.4946 Br  0  0  0  0  0  0  0  0  0  0  0  0
   -0.7554    3.3802   -3.8348 S   0  0  0  0  0  0  0  0  0  0  0  0
    0.9177    0.1909    0.6540 N   0  0  0  0  0  0  0  0  0  0  0  0
    2.3051    0.1656    0.7110 C   0  0  0  0  0  0  0  0  0  0  0  0
    3.0838   -0.2462    1.8257 C   0  0  0  0  0  0  0  0  0  0  0  0
    2.4331   -0.7103    3.1025 C   0  0  0  0  0  0  0  0  0  0  0  0
    5.1937   -0.0028    3.7335 H   0  0  0  0  0  0  0  0  0  0  0  0
    6.4422   -0.5361    2.6056 H   0  0  0  0  0  0  0  0  0  0  0  0
    5.1970   -1.6805    3.1124 H   0  0  0  0  0  0  0  0  0  0  0  0
    6.1829    0.2460    0.4333 H   0  0  0  0  0  0  0  0  0  0  0  0
    4.8111    0.9493   -1.4953 H   0  0  0  0  0  0  0  0  0  0  0  0
   -1.6023   -0.0942    0.9107 H   0  0  0  0  0  0  0  0  0  0  0  0
   -2.8057    0.2892   -0.3113 H   0  0  0  0  0  0  0  0  0  0  0  0
   -2.0018   -1.6091   -1.7452 H   0  0  0  0  0  0  0  0  0  0  0  0
   -0.7353   -1.9627   -0.5953 H   0  0  0  0  0  0  0  0  0  0  0  0
   -2.6040   -3.5220   -0.2981 H   0  0  0  0  0  0  0  0  0  0  0  0
   -2.2887   -2.5577    1.1395 H   0  0  0  0  0  0  0  0  0  0  0  0
   -5.8789   -2.5904    1.1746 H   0  0  0  0  0  0  0  0  0  0  0  0
   -4.4149   -2.8802    2.0992 H   0  0  0  0  0  0  0  0  0  0  0  0
   -4.8473   -3.9812    0.7720 H   0  0  0  0  0  0  0  0  0  0  0  0
   -5.7745   -1.8098   -1.0820 H   0  0  0  0  0  0  0  0  0  0  0  0
   -4.6754   -3.0994   -1.6133 H   0  0  0  0  0  0  0  0  0  0  0  0
   -4.2538   -1.3856   -1.8335 H   0  0  0  0  0  0  0  0  0  0  0  0
   -0.3629    3.5592   -0.2459 H   0  0  0  0  0  0  0  0  0  0  0  0
    0.3817    5.8123   -1.4216 H   0  0  0  0  0  0  0  0  0  0  0  0
    2.7240   -0.0613    3.9345 H   0  0  0  0  0  0  0  0  0  0  0  0
    1.3412   -0.6866    3.0324 H   0  0  0  0  0  0  0  0  0  0  0  0
    2.7261   -1.7410    3.3254 H   0  0  0  0  0  0  0  0  0  0  0  0
  1  2  1  0
  2  3  2  0
  3  4  1  0
  4  5  2  0
  5  6  1  0
  6  7  1  0
  7  8  1  0
  8  9  1  0
  9 10  1  0
 10 11  1  0
 11 12  1  0
 12 13  1  0
 12 14  1  0
  8 15  1  0
 15 16  2  0
 15 17  1  0
 17 18  2  0
 18 19  1  0
 19 20  2  0
 20 21  1  0
 20 22  1  0
  7 23  2  0
 23 24  1  0
 24 25  2  0
 25 26  1  0
 25  2  1  0
 24  5  1  0
 22 17  1  0
  1 27  1  0
  1 28  1  0
  1 29  1  0
  3 30  1  0
  4 31  1  0
  9 32  1  0
  9 33  1  0
 10 34  1  0
 10 35  1  0
 11 36  1  0
 11 37  1  0
 13 38  1  0
 13 39  1  0
 13 40  1  0
 14 41  1  0
 14 42  1  0
 14 43  1  0
 18 44  1  0
 19 45  1  0
 26 46  1  0
 26 47  1  0
 26 48  1  0
M  END
$$$$
