
     RDKit          3D

 40 42  0  0  0  0  0  0  0  0999 V2000
    4.3656   -3.1592   -1.6949 C   0  0  0  0  0  0  0  0  0  0  0  0
    3.8963   -1.8402   -1.1631 C   0  0  0  0  0  0  0  0  0  0  0  0
    4.4313   -0.7674   -1.3969 O   0  0  0  0  0  0  0  0  0  0  0  0
    2.7805   -2.0112   -0.4038 O   0  0  0  0  0  0  0  0  0  0  0  0
    2.2658   -0.8193    0.2214 C   0  0  0  0  0  0  0  0  0  0  0  0
    1.5912    0.1140   -0.7917 C   0  0  0  0  0  0  0  0  0  0  0  0
    0.5029    0.8832   -0.1735 N   0  0  0  0  0  0  0  0  0  0  0  0
    0.7755    2.0842    0.4700 C   0  0  0  0  0  0  0  0  0  0  0  0
    1.9751    2.5555    0.6256 N   0  0  0  0  0  0  0  0  0  0  0  0
    2.1982    3.7415    1.2682 C   0  0  0  0  0  0  0  0  0  0  0  0
    3.2787    4.0160    1.7787 O   0  0  0  0  0  0  0  0  0  0  0  0
    1.1839    4.6486    1.3615 N   0  0  0  0  0  0  0  0  0  0  0  0
   -0.0942    4.2391    1.5863 C   0  0  0  0  0  0  0  0  0  0  0  0
   -0.9074    4.8758    2.2346 O   0  0  0  0  0  0  0  0  0  0  0  0
   -0.3873    2.8762    1.0191 C   0  0  0  0  0  0  0  0  0  0  0  0
   -1.6032    2.4225    1.0057 N   0  0  0  0  0  0  0  0  0  0  0  0
   -1.8320    1.1437    0.4638 C   0  0  0  0  0  0  0  0  0  0  0  0
   -3.1435    0.6593    0.5290 C   0  0  0  0  0  0  0  0  0  0  0  0
   -3.4860   -0.6028    0.0288 C   0  0  0  0  0  0  0  0  0  0  0  0
   -4.9107   -1.0734    0.1276 C   0  0  0  0  0  0  0  0  0  0  0  0
   -2.4822   -1.3983   -0.5456 C   0  0  0  0  0  0  0  0  0  0  0  0
   -2.7886   -2.7678   -1.0913 C   0  0  0  0  0  0  0  0  0  0  0  0
   -1.1629   -0.9079   -0.6131 C   0  0  0  0  0  0  0  0  0  0  0  0
   -0.8094    0.3619   -0.1228 C   0  0  0  0  0  0  0  0  0  0  0  0
    5.2878   -3.0127   -2.2644 H   0  0  0  0  0  0  0  0  0  0  0  0
    4.5755   -3.8400   -0.8661 H   0  0  0  0  0  0  0  0  0  0  0  0
    3.6069   -3.5819   -2.3581 H   0  0  0  0  0  0  0  0  0  0  0  0
    1.5461   -1.1644    0.9719 H   0  0  0  0  0  0  0  0  0  0  0  0
    3.0644   -0.3056    0.7708 H   0  0  0  0  0  0  0  0  0  0  0  0
    2.3423    0.8012   -1.2021 H   0  0  0  0  0  0  0  0  0  0  0  0
    1.2458   -0.4371   -1.6740 H   0  0  0  0  0  0  0  0  0  0  0  0
    1.4420    5.4724    1.8855 H   0  0  0  0  0  0  0  0  0  0  0  0
   -3.9037    1.2917    0.9848 H   0  0  0  0  0  0  0  0  0  0  0  0
   -5.3106   -1.2892   -0.8682 H   0  0  0  0  0  0  0  0  0  0  0  0
   -5.5552   -0.3135    0.5822 H   0  0  0  0  0  0  0  0  0  0  0  0
   -4.9714   -1.9725    0.7489 H   0  0  0  0  0  0  0  0  0  0  0  0
   -1.8915   -3.2539   -1.4891 H   0  0  0  0  0  0  0  0  0  0  0  0
   -3.5143   -2.6974   -1.9077 H   0  0  0  0  0  0  0  0  0  0  0  0
   -3.1876   -3.4115   -0.3011 H   0  0  0  0  0  0  0  0  0  0  0  0
   -0.4142   -1.5598   -1.0534 H   0  0  0  0  0  0  0  0  0  0  0  0
  1  2  1  0
  2  3  2  0
  2  4  1  0
  4  5  1  0
  5  6  1  0
  6  7  1  0
  7  8  1  0
  8  9  2  0
  9 10  1  0
 10 11  2  0
 10 12  1  0
 12 13  1  0
 13 14  2  0
 13 15  1  0
 15 16  2  0
 16 17  1  0
 17 18  2  0
 18 19  1  0
 19 20  1  0
 19 21  2  0
 21 22  1  0
 21 23  1  0
 23 24  2  0
 24  7  1  0
 15  8  1  0
 24 17  1  0
  1 25  1  0
  1 26  1  0
  1 27  1  0
  5 28  1  0
  5 29  1  0
  6 30  1  0
  6 31  1  0
 12 32  1  0
 18 33  1  0
 20 34  1  0
 20 35  1  0
 20 36  1  0
 22 37  1  0
 22 38  1  0
 22 39  1  0
 23 40  1  0
M  END
$$$$
