
     RDKit          3D

 57 59  0  0  0  0  0  0  0  0999 V2000
    5.8445    1.0754   -1.1464 C   0  0  0  0  0  0  0  0  0  0  0  0
    4.6014    1.9315   -0.8909 C   0  0  0  0  0  0  0  0  0  0  0  0
    4.7059    3.2353   -1.6870 C   0  0  0  0  0  0  0  0  0  0  0  0
    3.3017    1.1917   -1.2630 C   0  0  0  0  0  0  0  0  0  0  0  0
    3.0201    0.0123   -0.3933 C   0  0  0  0  0  0  0  0  0  0  0  0
    2.5505    0.0040    0.9398 C   0  0  0  0  0  0  0  0  0  0  0  0
    2.4749   -1.3270    1.2643 C   0  0  0  0  0  0  0  0  0  0  0  0
    2.0268   -2.0707    2.4611 C   0  0  0  0  0  0  0  0  0  0  0  0
    0.6255   -2.3856    2.2751 N   0  0  0  0  0  0  0  0  0  0  0  0
   -0.3518   -1.4906    2.6422 C   0  0  0  0  0  0  0  0  0  0  0  0
   -0.1195   -0.4997    3.3307 O   0  0  0  0  0  0  0  0  0  0  0  0
   -1.7358   -1.7433    2.0681 C   0  0  0  0  0  0  0  0  0  0  0  0
   -2.2379   -3.1667    2.2642 C   0  0  0  0  0  0  0  0  0  0  0  0
   -3.6549   -3.2643    1.7260 C   0  0  0  0  0  0  0  0  0  0  0  0
   -3.7959   -2.7868    0.2926 C   0  0  0  0  0  0  0  0  0  0  0  0
   -4.6644   -3.2742   -0.4315 O   0  0  0  0  0  0  0  0  0  0  0  0
   -2.9817   -1.7333   -0.1050 N   0  0  0  0  0  0  0  0  0  0  0  0
   -3.1226   -1.2392   -1.4765 C   0  0  0  0  0  0  0  0  0  0  0  0
   -3.2097    0.2688   -1.5384 C   0  0  0  0  0  0  0  0  0  0  0  0
   -4.3555    0.9213   -1.0614 C   0  0  0  0  0  0  0  0  0  0  0  0
   -4.4433    2.3114   -1.0949 C   0  0  0  0  0  0  0  0  0  0  0  0
   -3.3837    3.0660   -1.6039 C   0  0  0  0  0  0  0  0  0  0  0  0
   -2.2284    2.4363   -2.0925 C   0  0  0  0  0  0  0  0  0  0  0  0
   -1.0690    3.2446   -2.6180 C   0  0  0  0  0  0  0  0  0  0  0  0
   -0.4550    2.6618   -3.6856 F   0  0  0  0  0  0  0  0  0  0  0  0
   -1.4220    4.4933   -3.0274 F   0  0  0  0  0  0  0  0  0  0  0  0
   -0.0927    3.4175   -1.6844 F   0  0  0  0  0  0  0  0  0  0  0  0
   -2.1477    1.0354   -2.0476 C   0  0  0  0  0  0  0  0  0  0  0  0
   -1.7313   -1.4128    0.5819 C   0  0  0  0  0  0  0  0  0  0  0  0
    2.8668   -2.0701    0.1951 O   0  0  0  0  0  0  0  0  0  0  0  0
    3.1996   -1.2325   -0.8516 N   0  0  0  0  0  0  0  0  0  0  0  0
    5.9293    0.8071   -2.2061 H   0  0  0  0  0  0  0  0  0  0  0  0
    5.8167    0.1474   -0.5640 H   0  0  0  0  0  0  0  0  0  0  0  0
    6.7545    1.6179   -0.8619 H   0  0  0  0  0  0  0  0  0  0  0  0
    4.5780    2.1891    0.1755 H   0  0  0  0  0  0  0  0  0  0  0  0
    5.6156    3.7838   -1.4170 H   0  0  0  0  0  0  0  0  0  0  0  0
    3.8470    3.8863   -1.4836 H   0  0  0  0  0  0  0  0  0  0  0  0
    4.7374    3.0348   -2.7632 H   0  0  0  0  0  0  0  0  0  0  0  0
    2.4517    1.8834   -1.1774 H   0  0  0  0  0  0  0  0  0  0  0  0
    3.3376    0.8817   -2.3165 H   0  0  0  0  0  0  0  0  0  0  0  0
    2.2917    0.8434    1.5686 H   0  0  0  0  0  0  0  0  0  0  0  0
    2.5697   -3.0146    2.5630 H   0  0  0  0  0  0  0  0  0  0  0  0
    2.1704   -1.4816    3.3718 H   0  0  0  0  0  0  0  0  0  0  0  0
    0.4212   -3.0933    1.5821 H   0  0  0  0  0  0  0  0  0  0  0  0
   -2.4243   -1.0606    2.5854 H   0  0  0  0  0  0  0  0  0  0  0  0
   -2.2209   -3.4409    3.3253 H   0  0  0  0  0  0  0  0  0  0  0  0
   -1.6010   -3.8900    1.7395 H   0  0  0  0  0  0  0  0  0  0  0  0
   -4.3425   -2.6687    2.3399 H   0  0  0  0  0  0  0  0  0  0  0  0
   -3.9837   -4.3083    1.7723 H   0  0  0  0  0  0  0  0  0  0  0  0
   -4.0162   -1.6508   -1.9592 H   0  0  0  0  0  0  0  0  0  0  0  0
   -2.2647   -1.6085   -2.0524 H   0  0  0  0  0  0  0  0  0  0  0  0
   -5.1837    0.3413   -0.6558 H   0  0  0  0  0  0  0  0  0  0  0  0
   -5.3343    2.8077   -0.7165 H   0  0  0  0  0  0  0  0  0  0  0  0
   -3.4613    4.1519   -1.6117 H   0  0  0  0  0  0  0  0  0  0  0  0
   -1.2474    0.5398   -2.4120 H   0  0  0  0  0  0  0  0  0  0  0  0
   -1.5167   -0.3457    0.4587 H   0  0  0  0  0  0  0  0  0  0  0  0
   -0.9390   -1.9621    0.0564 H   0  0  0  0  0  0  0  0  0  0  0  0
  1  2  1  0
  2  3  1  0
  2  4  1  0
  4  5  1  0
  5  6  1  0
  6  7  2  0
  7  8  1  0
  8  9  1  0
  9 10  1  0
 10 11  2  0
 10 12  1  0
 12 13  1  0
 13 14  1  0
 14 15  1  0
 15 16  2  0
 15 17  1  0
 17 18  1  0
 18 19  1  0
 19 20  2  0
 20 21  1  0
 21 22  2  0
 22 23  1  0
 23 24  1  0
 24 25  1  0
 24 26  1  0
 24 27  1  0
 23 28  2  0
 17 29  1  0
  7 30  1  0
 30 31  1  0
 31  5  2  0
 29 12  1  0
 28 19  1  0
  1 32  1  0
  1 33  1  0
  1 34  1  0
  2 35  1  0
  3 36  1  0
  3 37  1  0
  3 38  1  0
  4 39  1  0
  4 40  1  0
  6 41  1  0
  8 42  1  0
  8 43  1  0
  9 44  1  0
 12 45  1  0
 13 46  1  0
 13 47  1  0
 14 48  1  0
 14 49  1  0
 18 50  1  0
 18 51  1  0
 20 52  1  0
 21 53  1  0
 22 54  1  0
 28 55  1  0
 29 56  1  0
 29 57  1  0
M  END
$$$$
