
     RDKit          3D

 36 38  0  0  0  0  0  0  0  0999 V2000
   -4.6662    2.3085    0.6213 C   0  0  0  0  0  0  0  0  0  0  0  0
   -3.5533    1.4296    0.3333 N   0  0  0  0  0  0  0  0  0  0  0  0
   -2.2464    1.8301    0.2398 C   0  0  0  0  0  0  0  0  0  0  0  0
   -1.4780    0.7183   -0.0282 C   0  0  0  0  0  0  0  0  0  0  0  0
   -0.0582    0.7827   -0.1738 C   0  0  0  0  0  0  0  0  0  0  0  0
    0.8019   -0.1770    0.2069 C   0  0  0  0  0  0  0  0  0  0  0  0
    2.2581   -0.0950    0.0483 C   0  0  0  0  0  0  0  0  0  0  0  0
    2.9663   -1.2463   -0.2930 C   0  0  0  0  0  0  0  0  0  0  0  0
    4.3497   -1.1942   -0.4227 C   0  0  0  0  0  0  0  0  0  0  0  0
    5.0171   -0.0378   -0.2134 N   0  0  0  0  0  4  0  0  0  0  0  0
    6.4837   -0.0094   -0.3456 C   0  0  0  0  0  0  0  0  0  0  0  0
    4.3555    1.0855    0.1433 C   0  0  0  0  0  0  0  0  0  0  0  0
    2.9717    1.0794    0.2820 C   0  0  0  0  0  0  0  0  0  0  0  0
   -2.3614   -0.4005   -0.1428 C   0  0  0  0  0  0  0  0  0  0  0  0
   -2.1977   -1.7699   -0.4484 C   0  0  0  0  0  0  0  0  0  0  0  0
   -3.3138   -2.6108   -0.4710 C   0  0  0  0  0  0  0  0  0  0  0  0
   -3.0996   -4.2807   -0.8361 Cl  0  0  0  0  0  0  0  0  0  0  0  0
   -4.5871   -2.1219   -0.2064 C   0  0  0  0  0  0  0  0  0  0  0  0
   -4.7818   -0.7685    0.0815 C   0  0  0  0  0  0  0  0  0  0  0  0
   -3.6568    0.0733    0.1024 C   0  0  0  0  0  0  0  0  0  0  0  0
   -5.3585    2.2775   -0.2239 H   0  0  0  0  0  0  0  0  0  0  0  0
   -4.3003    3.3287    0.7626 H   0  0  0  0  0  0  0  0  0  0  0  0
   -5.1532    1.9606    1.5357 H   0  0  0  0  0  0  0  0  0  0  0  0
   -1.9725    2.8671    0.3867 H   0  0  0  0  0  0  0  0  0  0  0  0
    0.3228    1.7018   -0.6140 H   0  0  0  0  0  0  0  0  0  0  0  0
    0.4271   -1.0894    0.6666 H   0  0  0  0  0  0  0  0  0  0  0  0
    2.4474   -2.1875   -0.4678 H   0  0  0  0  0  0  0  0  0  0  0  0
    4.9305   -2.0726   -0.6903 H   0  0  0  0  0  0  0  0  0  0  0  0
    6.7960    0.9897   -0.6602 H   0  0  0  0  0  0  0  0  0  0  0  0
    6.9051   -0.2602    0.6309 H   0  0  0  0  0  0  0  0  0  0  0  0
    6.7891   -0.7379   -1.1012 H   0  0  0  0  0  0  0  0  0  0  0  0
    4.9419    1.9825    0.3219 H   0  0  0  0  0  0  0  0  0  0  0  0
    2.4632    1.9923    0.5861 H   0  0  0  0  0  0  0  0  0  0  0  0
   -1.2166   -2.1707   -0.6761 H   0  0  0  0  0  0  0  0  0  0  0  0
   -5.4454   -2.7894   -0.2290 H   0  0  0  0  0  0  0  0  0  0  0  0
   -5.7800   -0.3879    0.2769 H   0  0  0  0  0  0  0  0  0  0  0  0
  1  2  1  0
  2  3  1  0
  3  4  2  0
  4  5  1  0
  5  6  2  3
  6  7  1  0
  7  8  2  0
  8  9  1  0
  9 10  2  0
 10 11  1  0
 10 12  1  0
 12 13  2  0
  4 14  1  0
 14 15  2  0
 15 16  1  0
 16 17  1  0
 16 18  2  0
 18 19  1  0
 19 20  2  0
 20  2  1  0
 13  7  1  0
 20 14  1  0
  1 21  1  0
  1 22  1  0
  1 23  1  0
  3 24  1  0
  5 25  1  0
  6 26  1  0
  8 27  1  0
  9 28  1  0
 11 29  1  0
 11 30  1  0
 11 31  1  0
 12 32  1  0
 13 33  1  0
 15 34  1  0
 18 35  1  0
 19 36  1  0
M  CHG  1  10   1
M  END
$$$$
