
     RDKit          3D

 36 38  0  0  0  0  0  0  0  0999 V2000
    2.4887    1.9968    2.8861 N   0  0  0  0  0  0  0  0  0  0  0  0
    1.8156    1.3886    2.1569 C   0  0  0  0  0  0  0  0  0  0  0  0
    1.0039    0.6430    1.2350 C   0  0  0  0  0  0  0  0  0  0  0  0
   -0.1595    1.2086    0.6812 C   0  0  0  0  0  0  0  0  0  0  0  0
   -0.6183    2.5667    1.0189 C   0  0  0  0  0  0  0  0  0  0  0  0
   -0.3826    3.6405    0.1395 C   0  0  0  0  0  0  0  0  0  0  0  0
   -0.8136    4.9355    0.4565 C   0  0  0  0  0  0  0  0  0  0  0  0
   -1.4989    5.1690    1.6532 C   0  0  0  0  0  0  0  0  0  0  0  0
   -1.7529    4.1110    2.5306 C   0  0  0  0  0  0  0  0  0  0  0  0
   -1.3160    2.8171    2.2156 C   0  0  0  0  0  0  0  0  0  0  0  0
   -0.9058    0.4475   -0.2346 C   0  0  0  0  0  0  0  0  0  0  0  0
   -0.4752   -0.8262   -0.5797 C   0  0  0  0  0  0  0  0  0  0  0  0
   -1.1918   -1.7175   -1.5008 C   0  0  0  0  0  0  0  0  0  0  0  0
   -1.1606   -3.1045   -1.5397 C   0  0  0  0  0  0  0  0  0  0  0  0
   -1.9630   -3.6526   -2.5831 C   0  0  0  0  0  0  0  0  0  0  0  0
   -2.5657   -2.6662   -3.3321 C   0  0  0  0  0  0  0  0  0  0  0  0
   -2.1941   -1.1020   -2.7566 S   0  0  0  0  0  0  0  0  0  0  0  0
    0.6550   -1.3602   -0.0649 N   0  0  0  0  0  0  0  0  0  0  0  0
    1.3714   -0.6408    0.8334 C   0  0  0  0  0  0  0  0  0  0  0  0
    2.8100   -1.4791    1.4935 S   0  0  0  0  0  0  0  0  0  0  0  0
    3.3639   -2.3803    0.0136 C   0  0  0  0  0  0  0  0  0  0  0  0
    2.5901   -3.6557   -0.2386 C   0  0  0  0  0  0  0  0  0  0  0  0
    1.9077   -4.3142    0.5370 O   0  0  0  0  0  0  0  0  0  0  0  0
    2.7886   -4.0981   -1.5111 O   0  0  0  0  0  0  0  0  0  0  0  0
    0.1497    3.4714   -0.8001 H   0  0  0  0  0  0  0  0  0  0  0  0
   -0.6060    5.7567   -0.2318 H   0  0  0  0  0  0  0  0  0  0  0  0
   -1.8278    6.1786    1.9028 H   0  0  0  0  0  0  0  0  0  0  0  0
   -2.2860    4.2954    3.4659 H   0  0  0  0  0  0  0  0  0  0  0  0
   -1.5213    2.0079    2.9160 H   0  0  0  0  0  0  0  0  0  0  0  0
   -1.8199    0.8607   -0.6579 H   0  0  0  0  0  0  0  0  0  0  0  0
   -0.5858   -3.6980   -0.8352 H   0  0  0  0  0  0  0  0  0  0  0  0
   -2.0641   -4.7099   -2.7890 H   0  0  0  0  0  0  0  0  0  0  0  0
   -3.2009   -2.7937   -4.1942 H   0  0  0  0  0  0  0  0  0  0  0  0
    3.2927   -1.7265   -0.8640 H   0  0  0  0  0  0  0  0  0  0  0  0
    4.4139   -2.6476    0.1564 H   0  0  0  0  0  0  0  0  0  0  0  0
    2.2585   -4.9219   -1.5787 H   0  0  0  0  0  0  0  0  0  0  0  0
  1  2  3  0
  2  3  1  0
  3  4  2  0
  4  5  1  0
  5  6  2  0
  6  7  1  0
  7  8  2  0
  8  9  1  0
  9 10  2  0
  4 11  1  0
 11 12  2  0
 12 13  1  0
 13 14  2  0
 14 15  1  0
 15 16  2  0
 16 17  1  0
 12 18  1  0
 18 19  2  0
 19 20  1  0
 20 21  1  0
 21 22  1  0
 22 23  2  0
 22 24  1  0
 19  3  1  0
 10  5  1  0
 17 13  1  0
  6 25  1  0
  7 26  1  0
  8 27  1  0
  9 28  1  0
 10 29  1  0
 11 30  1  0
 14 31  1  0
 15 32  1  0
 16 33  1  0
 21 34  1  0
 21 35  1  0
 24 36  1  0
M  END
$$$$
