
     RDKit          3D

 45 48  0  0  0  0  0  0  0  0999 V2000
   -3.9481    1.2844    3.9240 C   0  0  0  0  0  0  0  0  0  0  0  0
   -4.1550    0.0777    3.0281 C   0  0  0  0  0  0  0  0  0  0  0  0
   -3.1403    0.0375    2.0141 O   0  0  0  0  0  0  0  0  0  0  0  0
   -1.9880   -0.5952    2.3561 C   0  0  0  0  0  0  0  0  0  0  0  0
   -1.7336   -1.0846    3.4465 O   0  0  0  0  0  0  0  0  0  0  0  0
   -1.0471   -0.5531    1.2120 C   0  0  0  0  0  0  0  0  0  0  0  0
   -1.6528   -0.9704   -0.0727 C   0  0  0  0  0  0  0  0  0  0  0  0
   -2.3026   -1.9958   -0.2176 O   0  0  0  0  0  0  0  0  0  0  0  0
   -1.4856    0.0138   -0.9977 O   0  0  0  0  0  0  0  0  0  0  0  0
   -2.0730   -0.2382   -2.2809 C   0  0  0  0  0  0  0  0  0  0  0  0
   -3.5131    0.2379   -2.2962 C   0  0  0  0  0  0  0  0  0  0  0  0
    0.2269   -0.0958    1.3610 C   0  0  0  0  0  0  0  0  0  0  0  0
    0.6129    0.6546    2.6161 C   0  0  0  0  0  0  0  0  0  0  0  0
    1.6861    1.4830    2.6842 C   0  0  0  0  0  0  0  0  0  0  0  0
    2.0804    2.4454    4.2359 Br  0  0  0  0  0  0  0  0  0  0  0  0
    2.5574    1.6100    1.5532 C   0  0  0  0  0  0  0  0  0  0  0  0
    3.6588    2.3403    1.3438 N   0  0  0  0  0  0  0  0  0  0  0  0
    4.1413    1.9250    0.0946 O   0  0  0  0  0  0  0  0  0  0  0  0
    3.3307    0.9437   -0.4068 C   0  0  0  0  0  0  0  0  0  0  0  0
    3.4740    0.1871   -1.5761 C   0  0  0  0  0  0  0  0  0  0  0  0
    4.5429    0.4147   -2.4625 C   0  0  0  0  0  0  0  0  0  0  0  0
    4.6618   -0.3731   -3.6025 C   0  0  0  0  0  0  0  0  0  0  0  0
    3.7265   -1.3748   -3.8553 C   0  0  0  0  0  0  0  0  0  0  0  0
    2.6672   -1.6030   -2.9661 C   0  0  0  0  0  0  0  0  0  0  0  0
    2.5094   -0.8348   -1.7908 C   0  0  0  0  0  0  0  0  0  0  0  0
    1.4586   -1.0193   -0.8367 C   0  0  0  0  0  0  0  0  0  0  0  0
    0.6344   -2.1121   -0.9341 O   0  0  0  0  0  0  0  0  0  0  0  0
    1.2600   -0.1579    0.2597 C   0  0  0  0  0  0  0  0  0  0  0  0
    2.2858    0.7695    0.4612 C   0  0  0  0  0  0  0  0  0  0  0  0
   -3.9299    2.2047    3.3309 H   0  0  0  0  0  0  0  0  0  0  0  0
   -4.7479    1.3583    4.6661 H   0  0  0  0  0  0  0  0  0  0  0  0
   -2.9890    1.2251    4.4482 H   0  0  0  0  0  0  0  0  0  0  0  0
   -5.1181    0.1606    2.5141 H   0  0  0  0  0  0  0  0  0  0  0  0
   -4.1772   -0.8530    3.6067 H   0  0  0  0  0  0  0  0  0  0  0  0
   -1.9974   -1.2969   -2.5546 H   0  0  0  0  0  0  0  0  0  0  0  0
   -1.4899    0.3259   -3.0162 H   0  0  0  0  0  0  0  0  0  0  0  0
   -3.5706    1.2971   -2.0243 H   0  0  0  0  0  0  0  0  0  0  0  0
   -4.1162   -0.3109   -1.5659 H   0  0  0  0  0  0  0  0  0  0  0  0
   -3.9559    0.1032   -3.2870 H   0  0  0  0  0  0  0  0  0  0  0  0
   -0.0258    0.5775    3.4917 H   0  0  0  0  0  0  0  0  0  0  0  0
    5.2742    1.1961   -2.2682 H   0  0  0  0  0  0  0  0  0  0  0  0
    5.4810   -0.2046   -4.2974 H   0  0  0  0  0  0  0  0  0  0  0  0
    3.8165   -1.9808   -4.7544 H   0  0  0  0  0  0  0  0  0  0  0  0
    1.9504   -2.3775   -3.2284 H   0  0  0  0  0  0  0  0  0  0  0  0
    1.1197   -2.8410   -1.3558 H   0  0  0  0  0  0  0  0  0  0  0  0
  1  2  1  0
  2  3  1  0
  3  4  1  0
  4  5  2  0
  4  6  1  0
  6  7  1  0
  7  8  2  0
  7  9  1  0
  9 10  1  0
 10 11  1  0
  6 12  2  3
 12 13  1  0
 13 14  2  0
 14 15  1  0
 14 16  1  0
 16 17  2  0
 17 18  1  0
 18 19  1  0
 19 20  1  0
 20 21  2  0
 21 22  1  0
 22 23  2  0
 23 24  1  0
 24 25  2  0
 25 26  1  0
 26 27  1  0
 26 28  2  0
 28 29  1  0
 28 12  1  0
 29 16  1  0
 29 19  2  0
 25 20  1  0
  1 30  1  0
  1 31  1  0
  1 32  1  0
  2 33  1  0
  2 34  1  0
 10 35  1  0
 10 36  1  0
 11 37  1  0
 11 38  1  0
 11 39  1  0
 13 40  1  0
 21 41  1  0
 22 42  1  0
 23 43  1  0
 24 44  1  0
 27 45  1  0
M  END
$$$$
