
     RDKit          3D

 71 75  0  0  0  0  0  0  0  0999 V2000
   -1.3409   -0.0796    5.4285 C   0  0  0  0  0  0  0  0  0  0  0  0
   -0.2403    0.7905    4.8351 C   0  0  0  0  0  0  0  0  0  0  0  0
   -0.0874    0.5378    3.3904 N   0  0  0  0  0  0  0  0  0  0  0  0
    0.9006   -0.3230    2.9285 C   0  0  0  0  0  0  0  0  0  0  0  0
    1.1336   -0.6714    1.6556 C   0  0  0  0  0  0  0  0  0  0  0  0
    2.2796   -1.5790    1.3638 C   0  0  0  0  0  0  0  0  0  0  0  0
    3.0643   -1.9322    2.2414 O   0  0  0  0  0  0  0  0  0  0  0  0
    2.3980   -1.9668    0.0519 N   0  0  0  0  0  0  0  0  0  0  0  0
    3.5644   -2.6569   -0.4531 C   0  0  0  0  0  0  0  0  0  0  0  0
    4.6905   -1.6958   -0.8333 C   0  0  0  0  0  0  0  0  0  0  0  0
    4.3337   -0.8453   -2.0591 C   0  0  0  0  0  0  0  0  0  0  0  0
    5.3759    0.1331   -2.3755 N   0  0  0  0  0  0  0  0  0  0  0  0
    6.6317   -0.4606   -2.8399 C   0  0  0  0  0  0  0  0  0  0  0  0
    7.3544    0.6988   -3.5164 C   0  0  0  0  0  0  0  0  0  0  0  0
    6.2763    1.7425   -3.7879 C   0  0  0  0  0  0  0  0  0  0  0  0
    4.9703    1.0454   -3.4461 C   0  0  0  0  0  0  0  0  0  0  0  0
    0.2304   -0.0945    0.6332 C   0  0  0  0  0  0  0  0  0  0  0  0
    0.3319   -0.3922   -0.5555 O   0  0  0  0  0  0  0  0  0  0  0  0
   -0.8111    0.8641    1.0826 C   0  0  0  0  0  0  0  0  0  0  0  0
   -1.6367    1.4520    0.1116 C   0  0  0  0  0  0  0  0  0  0  0  0
   -2.6295    2.3426    0.5084 C   0  0  0  0  0  0  0  0  0  0  0  0
   -3.6686    3.1098   -0.7147 S   0  0  0  0  0  6  0  0  0  0  0  0
   -4.3169    4.2378   -0.0763 O   0  0  0  0  0  0  0  0  0  0  0  0
   -2.8617    3.2958   -1.9033 O   0  0  0  0  0  0  0  0  0  0  0  0
   -4.8415    1.9527   -1.0458 N   0  0  0  0  0  0  0  0  0  0  0  0
   -5.9405    1.7008   -0.0937 C   0  0  0  0  0  0  0  0  0  0  0  0
   -5.6131    0.5591    0.8676 C   0  0  0  0  0  0  0  0  0  0  0  0
   -5.0554   -0.6519    0.1607 C   0  0  0  0  0  0  0  0  0  0  0  0
   -5.0565   -1.8979    0.8079 C   0  0  0  0  0  0  0  0  0  0  0  0
   -4.5340   -3.0253    0.1731 C   0  0  0  0  0  0  0  0  0  0  0  0
   -3.9889   -2.9187   -1.1037 C   0  0  0  0  0  0  0  0  0  0  0  0
   -3.9636   -1.6809   -1.7476 C   0  0  0  0  0  0  0  0  0  0  0  0
   -4.4868   -0.5349   -1.1215 C   0  0  0  0  0  0  0  0  0  0  0  0
   -4.4835    0.7823   -1.8681 C   0  0  0  0  0  0  0  0  0  0  0  0
   -2.7624    2.6877    1.8538 C   0  0  0  0  0  0  0  0  0  0  0  0
   -1.9359    2.0923    2.8140 C   0  0  0  0  0  0  0  0  0  0  0  0
   -0.9438    1.1625    2.4581 C   0  0  0  0  0  0  0  0  0  0  0  0
   -1.4082    0.0796    6.5106 H   0  0  0  0  0  0  0  0  0  0  0  0
   -1.1431   -1.1403    5.2511 H   0  0  0  0  0  0  0  0  0  0  0  0
   -2.3182    0.1524    4.9959 H   0  0  0  0  0  0  0  0  0  0  0  0
    0.6984    0.5568    5.3539 H   0  0  0  0  0  0  0  0  0  0  0  0
   -0.4172    1.8510    5.0462 H   0  0  0  0  0  0  0  0  0  0  0  0
    1.5305   -0.7249    3.7209 H   0  0  0  0  0  0  0  0  0  0  0  0
    1.7355   -1.5725   -0.6205 H   0  0  0  0  0  0  0  0  0  0  0  0
    3.2483   -3.2472   -1.3187 H   0  0  0  0  0  0  0  0  0  0  0  0
    3.9231   -3.3481    0.3167 H   0  0  0  0  0  0  0  0  0  0  0  0
    5.5864   -2.2919   -1.0414 H   0  0  0  0  0  0  0  0  0  0  0  0
    4.9253   -1.0409    0.0151 H   0  0  0  0  0  0  0  0  0  0  0  0
    4.1354   -1.4976   -2.9180 H   0  0  0  0  0  0  0  0  0  0  0  0
    3.4042   -0.3024   -1.8472 H   0  0  0  0  0  0  0  0  0  0  0  0
    6.4552   -1.2622   -3.5679 H   0  0  0  0  0  0  0  0  0  0  0  0
    7.2274   -0.8662   -2.0161 H   0  0  0  0  0  0  0  0  0  0  0  0
    7.8325    0.3736   -4.4463 H   0  0  0  0  0  0  0  0  0  0  0  0
    8.1303    1.1192   -2.8642 H   0  0  0  0  0  0  0  0  0  0  0  0
    6.4338    2.6117   -3.1360 H   0  0  0  0  0  0  0  0  0  0  0  0
    6.2982    2.0926   -4.8257 H   0  0  0  0  0  0  0  0  0  0  0  0
    4.2053    1.7554   -3.1173 H   0  0  0  0  0  0  0  0  0  0  0  0
    4.5943    0.5017   -4.3218 H   0  0  0  0  0  0  0  0  0  0  0  0
   -1.4966    1.2151   -0.9412 H   0  0  0  0  0  0  0  0  0  0  0  0
   -6.8345    1.4461   -0.6792 H   0  0  0  0  0  0  0  0  0  0  0  0
   -6.1985    2.6065    0.4662 H   0  0  0  0  0  0  0  0  0  0  0  0
   -4.8781    0.8844    1.6121 H   0  0  0  0  0  0  0  0  0  0  0  0
   -6.5279    0.2885    1.4139 H   0  0  0  0  0  0  0  0  0  0  0  0
   -5.4717   -2.0002    1.8092 H   0  0  0  0  0  0  0  0  0  0  0  0
   -4.5510   -3.9892    0.6767 H   0  0  0  0  0  0  0  0  0  0  0  0
   -3.5864   -3.8025   -1.5984 H   0  0  0  0  0  0  0  0  0  0  0  0
   -3.5321   -1.6135   -2.7449 H   0  0  0  0  0  0  0  0  0  0  0  0
   -5.2254    0.7143   -2.6719 H   0  0  0  0  0  0  0  0  0  0  0  0
   -3.5114    0.9193   -2.3524 H   0  0  0  0  0  0  0  0  0  0  0  0
   -3.5092    3.4145    2.1693 H   0  0  0  0  0  0  0  0  0  0  0  0
   -2.0912    2.3884    3.8465 H   0  0  0  0  0  0  0  0  0  0  0  0
  1  2  1  0
  2  3  1  0
  3  4  1  0
  4  5  2  0
  5  6  1  0
  6  7  2  0
  6  8  1  0
  8  9  1  0
  9 10  1  0
 10 11  1  0
 11 12  1  0
 12 13  1  0
 13 14  1  0
 14 15  1  0
 15 16  1  0
  5 17  1  0
 17 18  2  0
 17 19  1  0
 19 20  2  0
 20 21  1  0
 21 22  1  0
 22 23  2  0
 22 24  2  0
 22 25  1  0
 25 26  1  0
 26 27  1  0
 27 28  1  0
 28 29  2  0
 29 30  1  0
 30 31  2  0
 31 32  1  0
 32 33  2  0
 33 34  1  0
 21 35  2  0
 35 36  1  0
 36 37  2  0
 37  3  1  0
 16 12  1  0
 37 19  1  0
 34 25  1  0
 33 28  1  0
  1 38  1  0
  1 39  1  0
  1 40  1  0
  2 41  1  0
  2 42  1  0
  4 43  1  0
  8 44  1  0
  9 45  1  0
  9 46  1  0
 10 47  1  0
 10 48  1  0
 11 49  1  0
 11 50  1  0
 13 51  1  0
 13 52  1  0
 14 53  1  0
 14 54  1  0
 15 55  1  0
 15 56  1  0
 16 57  1  0
 16 58  1  0
 20 59  1  0
 26 60  1  0
 26 61  1  0
 27 62  1  0
 27 63  1  0
 29 64  1  0
 30 65  1  0
 31 66  1  0
 32 67  1  0
 34 68  1  0
 34 69  1  0
 35 70  1  0
 36 71  1  0
M  END
$$$$
