
     RDKit          3D

 57 60  0  0  0  0  0  0  0  0999 V2000
    4.2042    1.4362   -2.7070 O   0  0  0  0  0  0  0  0  0  0  0  0
    4.0669    0.1670   -2.0294 S   0  0  0  0  0  6  0  0  0  0  0  0
    3.9971   -1.0819   -2.7542 O   0  0  0  0  0  0  0  0  0  0  0  0
    5.3190    0.0101   -0.9306 N   0  0  0  0  0  0  0  0  0  0  0  0
    5.8410    1.1915   -0.2357 C   0  0  0  0  0  0  0  0  0  0  0  0
    6.4189    0.7654    1.1156 C   0  0  0  0  0  0  0  0  0  0  0  0
    7.9262    0.5889    0.9113 C   0  0  0  0  0  0  0  0  0  0  0  0
    8.1981    0.8857   -0.5573 C   0  0  0  0  0  0  0  0  0  0  0  0
    7.0363    1.7692   -0.9853 C   0  0  0  0  0  0  0  0  0  0  0  0
    2.6495    0.2404   -0.9607 C   0  0  0  0  0  0  0  0  0  0  0  0
    2.1967   -0.9342   -0.3480 C   0  0  0  0  0  0  0  0  0  0  0  0
    1.0748   -0.8885    0.4795 C   0  0  0  0  0  0  0  0  0  0  0  0
    0.4122    0.3291    0.6756 C   0  0  0  0  0  0  0  0  0  0  0  0
   -1.0184    0.3654    1.7295 S   0  0  0  0  0  6  0  0  0  0  0  0
   -1.6020    1.6888    1.6670 O   0  0  0  0  0  0  0  0  0  0  0  0
   -0.6313   -0.2336    2.9882 O   0  0  0  0  0  0  0  0  0  0  0  0
   -2.0894   -0.6970    0.9377 N   0  0  0  0  0  0  0  0  0  0  0  0
   -2.5942   -0.2284   -0.3974 C   0  0  0  0  0  0  0  0  0  0  0  0
   -4.0458    0.2836   -0.3431 C   0  0  0  0  0  0  0  0  0  0  0  0
   -4.9551   -0.7681    0.1400 N   0  0  0  0  0  0  0  0  0  0  0  0
   -6.2857   -0.8119   -0.2402 C   0  0  0  0  0  0  0  0  0  0  0  0
   -6.9561    0.3231   -0.7250 C   0  0  0  0  0  0  0  0  0  0  0  0
   -8.3015    0.2833   -1.1123 C   0  0  0  0  0  0  0  0  0  0  0  0
   -9.0171   -0.9040   -1.0251 C   0  0  0  0  0  0  0  0  0  0  0  0
   -8.3855   -2.0456   -0.5496 C   0  0  0  0  0  0  0  0  0  0  0  0
   -7.0403   -1.9946   -0.1632 C   0  0  0  0  0  0  0  0  0  0  0  0
   -4.3782   -1.7700    1.0514 C   0  0  0  0  0  0  0  0  0  0  0  0
   -3.1899   -1.1858    1.8367 C   0  0  0  0  0  0  0  0  0  0  0  0
    0.8616    1.5029    0.0611 C   0  0  0  0  0  0  0  0  0  0  0  0
    1.9841    1.4567   -0.7671 C   0  0  0  0  0  0  0  0  0  0  0  0
    5.9289   -0.7867   -1.1042 H   0  0  0  0  0  0  0  0  0  0  0  0
    5.0471    1.9313   -0.0957 H   0  0  0  0  0  0  0  0  0  0  0  0
    5.9573   -0.1481    1.5067 H   0  0  0  0  0  0  0  0  0  0  0  0
    6.2516    1.5556    1.8575 H   0  0  0  0  0  0  0  0  0  0  0  0
    8.4705    1.2961    1.5491 H   0  0  0  0  0  0  0  0  0  0  0  0
    8.2585   -0.4188    1.1829 H   0  0  0  0  0  0  0  0  0  0  0  0
    9.1662    1.3725   -0.7080 H   0  0  0  0  0  0  0  0  0  0  0  0
    8.2001   -0.0463   -1.1342 H   0  0  0  0  0  0  0  0  0  0  0  0
    7.2188    2.7993   -0.6559 H   0  0  0  0  0  0  0  0  0  0  0  0
    6.9130    1.7763   -2.0720 H   0  0  0  0  0  0  0  0  0  0  0  0
    2.7126   -1.8781   -0.5121 H   0  0  0  0  0  0  0  0  0  0  0  0
    0.7186   -1.7945    0.9662 H   0  0  0  0  0  0  0  0  0  0  0  0
   -2.5241   -1.0815   -1.0840 H   0  0  0  0  0  0  0  0  0  0  0  0
   -1.9502    0.5525   -0.8133 H   0  0  0  0  0  0  0  0  0  0  0  0
   -4.1169    1.1560    0.3166 H   0  0  0  0  0  0  0  0  0  0  0  0
   -4.3168    0.5978   -1.3580 H   0  0  0  0  0  0  0  0  0  0  0  0
   -6.4467    1.2807   -0.7877 H   0  0  0  0  0  0  0  0  0  0  0  0
   -8.7856    1.1855   -1.4759 H   0  0  0  0  0  0  0  0  0  0  0  0
  -10.0603   -0.9390   -1.3250 H   0  0  0  0  0  0  0  0  0  0  0  0
   -8.9323   -2.9822   -0.4808 H   0  0  0  0  0  0  0  0  0  0  0  0
   -6.5848   -2.9187    0.1802 H   0  0  0  0  0  0  0  0  0  0  0  0
   -4.0509   -2.6404    0.4699 H   0  0  0  0  0  0  0  0  0  0  0  0
   -5.1209   -2.1064    1.7846 H   0  0  0  0  0  0  0  0  0  0  0  0
   -2.7793   -1.9617    2.4921 H   0  0  0  0  0  0  0  0  0  0  0  0
   -3.5501   -0.3594    2.4620 H   0  0  0  0  0  0  0  0  0  0  0  0
    0.3469    2.4485    0.2199 H   0  0  0  0  0  0  0  0  0  0  0  0
    2.3328    2.3657   -1.2538 H   0  0  0  0  0  0  0  0  0  0  0  0
  1  2  2  0
  2  3  2  0
  2  4  1  0
  4  5  1  0
  5  6  1  0
  6  7  1  0
  7  8  1  0
  8  9  1  0
  2 10  1  0
 10 11  2  0
 11 12  1  0
 12 13  2  0
 13 14  1  0
 14 15  2  0
 14 16  2  0
 14 17  1  0
 17 18  1  0
 18 19  1  0
 19 20  1  0
 20 21  1  0
 21 22  2  0
 22 23  1  0
 23 24  2  0
 24 25  1  0
 25 26  2  0
 20 27  1  0
 27 28  1  0
 13 29  1  0
 29 30  2  0
  9  5  1  0
 30 10  1  0
 28 17  1  0
 26 21  1  0
  4 31  1  0
  5 32  1  0
  6 33  1  0
  6 34  1  0
  7 35  1  0
  7 36  1  0
  8 37  1  0
  8 38  1  0
  9 39  1  0
  9 40  1  0
 11 41  1  0
 12 42  1  0
 18 43  1  0
 18 44  1  0
 19 45  1  0
 19 46  1  0
 22 47  1  0
 23 48  1  0
 24 49  1  0
 25 50  1  0
 26 51  1  0
 27 52  1  0
 27 53  1  0
 28 54  1  0
 28 55  1  0
 29 56  1  0
 30 57  1  0
M  END
$$$$
