
     RDKit          3D

 36 37  0  0  0  0  0  0  0  0999 V2000
   -6.9432    0.6000   -0.4501 C   0  0  0  0  0  0  0  0  0  0  0  0
   -5.5997    0.5858    0.2337 C   0  0  0  0  0  0  0  0  0  0  0  0
   -5.5107    0.4866    1.4497 O   0  0  0  0  0  0  0  0  0  0  0  0
   -4.5622    0.7303   -0.6665 N   0  0  0  0  0  0  0  0  0  0  0  0
   -3.1793    0.7471   -0.3902 C   0  0  0  0  0  0  0  0  0  0  0  0
   -2.3099    1.0004   -1.4644 C   0  0  0  0  0  0  0  0  0  0  0  0
   -0.9222    1.0515   -1.2722 C   0  0  0  0  0  0  0  0  0  0  0  0
   -0.3774    0.8324   -0.0064 C   0  0  0  0  0  0  0  0  0  0  0  0
    1.0022    0.8720    0.2771 N   0  0  0  0  0  0  0  0  0  0  0  0
    2.0398    1.1480   -0.6052 C   0  0  0  0  0  0  0  0  0  0  0  0
    1.9401    1.3932   -1.8090 O   0  0  0  0  0  0  0  0  0  0  0  0
    3.4032    1.1338    0.0705 C   0  0  0  0  0  0  0  0  0  0  0  0
    3.9429   -0.2625    0.2707 C   0  0  0  0  0  0  0  0  0  0  0  0
    4.1149   -0.7867    1.5637 C   0  0  0  0  0  0  0  0  0  0  0  0
    4.6167   -2.0789    1.7343 C   0  0  0  0  0  0  0  0  0  0  0  0
    4.9500   -2.8418    0.6220 C   0  0  0  0  0  0  0  0  0  0  0  0
    5.4362   -4.0800    0.7915 F   0  0  0  0  0  0  0  0  0  0  0  0
    4.7883   -2.3407   -0.6646 C   0  0  0  0  0  0  0  0  0  0  0  0
    4.2843   -1.0508   -0.8426 C   0  0  0  0  0  0  0  0  0  0  0  0
   -1.2438    0.5659    1.0610 C   0  0  0  0  0  0  0  0  0  0  0  0
   -2.6336    0.5312    0.8740 C   0  0  0  0  0  0  0  0  0  0  0  0
   -7.1654    1.6124   -0.7951 H   0  0  0  0  0  0  0  0  0  0  0  0
   -6.9479   -0.0927   -1.3004 H   0  0  0  0  0  0  0  0  0  0  0  0
   -7.7167    0.2825    0.2566 H   0  0  0  0  0  0  0  0  0  0  0  0
   -4.8197    0.8563   -1.6375 H   0  0  0  0  0  0  0  0  0  0  0  0
   -2.6927    1.1831   -2.4694 H   0  0  0  0  0  0  0  0  0  0  0  0
   -0.2992    1.2744   -2.1383 H   0  0  0  0  0  0  0  0  0  0  0  0
    1.2615    0.6589    1.2331 H   0  0  0  0  0  0  0  0  0  0  0  0
    3.3366    1.6737    1.0244 H   0  0  0  0  0  0  0  0  0  0  0  0
    4.1038    1.7037   -0.5498 H   0  0  0  0  0  0  0  0  0  0  0  0
    3.8671   -0.1933    2.4469 H   0  0  0  0  0  0  0  0  0  0  0  0
    4.7511   -2.4959    2.7235 H   0  0  0  0  0  0  0  0  0  0  0  0
    5.0498   -2.9593   -1.5208 H   0  0  0  0  0  0  0  0  0  0  0  0
    4.1554   -0.6651   -1.8550 H   0  0  0  0  0  0  0  0  0  0  0  0
   -0.8606    0.3900    2.0640 H   0  0  0  0  0  0  0  0  0  0  0  0
   -3.2596    0.3383    1.7410 H   0  0  0  0  0  0  0  0  0  0  0  0
  1  2  1  0
  2  3  2  0
  2  4  1  0
  4  5  1  0
  5  6  2  0
  6  7  1  0
  7  8  2  0
  8  9  1  0
  9 10  1  0
 10 11  2  0
 10 12  1  0
 12 13  1  0
 13 14  2  0
 14 15  1  0
 15 16  2  0
 16 17  1  0
 16 18  1  0
 18 19  2  0
  8 20  1  0
 20 21  2  0
 21  5  1  0
 19 13  1  0
  1 22  1  0
  1 23  1  0
  1 24  1  0
  4 25  1  0
  6 26  1  0
  7 27  1  0
  9 28  1  0
 12 29  1  0
 12 30  1  0
 14 31  1  0
 15 32  1  0
 18 33  1  0
 19 34  1  0
 20 35  1  0
 21 36  1  0
M  END
$$$$
