
     RDKit          3D

 53 56  0  0  0  0  0  0  0  0999 V2000
   -6.5964    3.2868    1.9914 C   0  0  0  0  0  0  0  0  0  0  0  0
   -5.3967    2.5467    1.4844 C   0  0  0  0  0  0  0  0  0  0  0  0
   -5.4926    1.1995    1.1249 C   0  0  0  0  0  0  0  0  0  0  0  0
   -4.3797    0.5164    0.6207 C   0  0  0  0  0  0  0  0  0  0  0  0
   -3.1631    1.1765    0.4402 C   0  0  0  0  0  0  0  0  0  0  0  0
   -1.9888    0.5415   -0.0226 N   0  0  0  0  0  0  0  0  0  0  0  0
   -1.8294   -0.5882   -0.8129 C   0  0  0  0  0  0  0  0  0  0  0  0
   -2.9525   -1.0517   -1.9856 S   0  0  0  0  0  0  0  0  0  0  0  0
   -0.6028   -1.2604   -0.5776 N   0  0  0  0  0  0  0  0  0  0  0  0
   -0.1600   -2.3997   -1.4109 C   0  0  0  0  0  0  0  0  0  0  0  0
   -0.3544   -3.7044   -0.6873 C   0  0  0  0  0  0  0  0  0  0  0  0
   -1.5218   -4.2573   -0.1930 C   0  0  0  0  0  0  0  0  0  0  0  0
   -1.3081   -5.5198    0.4303 C   0  0  0  0  0  0  0  0  0  0  0  0
    0.0131   -5.9003    0.3823 C   0  0  0  0  0  0  0  0  0  0  0  0
    0.9867   -4.7400   -0.4093 S   0  0  0  0  0  0  0  0  0  0  0  0
    0.2413   -0.9664    0.6015 C   0  0  0  0  0  0  0  0  0  0  0  0
    1.5270   -0.2992    0.1987 C   0  0  0  0  0  0  0  0  0  0  0  0
    2.6990   -0.9520    0.1002 C   0  0  0  0  0  0  0  0  0  0  0  0
    3.9271   -0.2554   -0.2833 C   0  0  0  0  0  0  0  0  0  0  0  0
    5.1311   -0.9492   -0.4208 C   0  0  0  0  0  0  0  0  0  0  0  0
    6.2900   -0.2664   -0.7859 C   0  0  0  0  0  0  0  0  0  0  0  0
    6.2498    1.1099   -1.0124 C   0  0  0  0  0  0  0  0  0  0  0  0
    5.0500    1.8266   -0.8834 C   0  0  0  0  0  0  0  0  0  0  0  0
    5.0462    3.3073   -1.1357 C   0  0  0  0  0  0  0  0  0  0  0  0
    3.8885    1.1275   -0.5162 C   0  0  0  0  0  0  0  0  0  0  0  0
    2.6605    1.7910   -0.3719 N   0  0  0  0  0  0  0  0  0  0  0  0
    1.4894    1.1744   -0.0269 C   0  0  0  0  0  0  0  0  0  0  0  0
    0.4493    1.8181    0.0962 O   0  0  0  0  0  0  0  0  0  0  0  0
   -3.0634    2.5211    0.8136 C   0  0  0  0  0  0  0  0  0  0  0  0
   -4.1730    3.2046    1.3191 C   0  0  0  0  0  0  0  0  0  0  0  0
   -6.3094    4.0098    2.7615 H   0  0  0  0  0  0  0  0  0  0  0  0
   -7.0829    3.8166    1.1671 H   0  0  0  0  0  0  0  0  0  0  0  0
   -7.3201    2.6002    2.4436 H   0  0  0  0  0  0  0  0  0  0  0  0
   -6.4325    0.6620    1.2404 H   0  0  0  0  0  0  0  0  0  0  0  0
   -4.4860   -0.5409    0.4024 H   0  0  0  0  0  0  0  0  0  0  0  0
   -1.1495    1.1221    0.0270 H   0  0  0  0  0  0  0  0  0  0  0  0
    0.8907   -2.2369   -1.6749 H   0  0  0  0  0  0  0  0  0  0  0  0
   -0.6904   -2.4402   -2.3650 H   0  0  0  0  0  0  0  0  0  0  0  0
   -2.4906   -3.7755   -0.2739 H   0  0  0  0  0  0  0  0  0  0  0  0
   -2.0886   -6.1213    0.8823 H   0  0  0  0  0  0  0  0  0  0  0  0
    0.4539   -6.8078    0.7705 H   0  0  0  0  0  0  0  0  0  0  0  0
   -0.2884   -0.3576    1.3416 H   0  0  0  0  0  0  0  0  0  0  0  0
    0.4421   -1.9094    1.1242 H   0  0  0  0  0  0  0  0  0  0  0  0
    2.7637   -2.0185    0.2901 H   0  0  0  0  0  0  0  0  0  0  0  0
    5.1783   -2.0211   -0.2461 H   0  0  0  0  0  0  0  0  0  0  0  0
    7.2275   -0.8067   -0.8913 H   0  0  0  0  0  0  0  0  0  0  0  0
    7.1684    1.6217   -1.2947 H   0  0  0  0  0  0  0  0  0  0  0  0
    6.0372    3.6689   -1.4302 H   0  0  0  0  0  0  0  0  0  0  0  0
    4.3524    3.5537   -1.9458 H   0  0  0  0  0  0  0  0  0  0  0  0
    4.7543    3.8446   -0.2272 H   0  0  0  0  0  0  0  0  0  0  0  0
    2.5978    2.7874   -0.5245 H   0  0  0  0  0  0  0  0  0  0  0  0
   -2.1219    3.0568    0.7025 H   0  0  0  0  0  0  0  0  0  0  0  0
   -4.0722    4.2546    1.5833 H   0  0  0  0  0  0  0  0  0  0  0  0
  1  2  1  0
  2  3  2  0
  3  4  1  0
  4  5  2  0
  5  6  1  0
  6  7  1  0
  7  8  2  0
  7  9  1  0
  9 10  1  0
 10 11  1  0
 11 12  2  0
 12 13  1  0
 13 14  2  0
 14 15  1  0
  9 16  1  0
 16 17  1  0
 17 18  2  0
 18 19  1  0
 19 20  2  0
 20 21  1  0
 21 22  2  0
 22 23  1  0
 23 24  1  0
 23 25  2  0
 25 26  1  0
 26 27  1  0
 27 28  2  0
  5 29  1  0
 29 30  2  0
 30  2  1  0
 15 11  1  0
 27 17  1  0
 25 19  1  0
  1 31  1  0
  1 32  1  0
  1 33  1  0
  3 34  1  0
  4 35  1  0
  6 36  1  0
 10 37  1  0
 10 38  1  0
 12 39  1  0
 13 40  1  0
 14 41  1  0
 16 42  1  0
 16 43  1  0
 18 44  1  0
 20 45  1  0
 21 46  1  0
 22 47  1  0
 24 48  1  0
 24 49  1  0
 24 50  1  0
 26 51  1  0
 29 52  1  0
 30 53  1  0
M  END
$$$$
