
     RDKit          3D

 42 45  0  0  0  0  0  0  0  0999 V2000
    7.2506   -1.5374    1.4937 C   0  0  0  0  0  0  0  0  0  0  0  0
    6.9099   -0.0593    1.5582 C   0  0  0  0  0  0  0  0  0  0  0  0
    5.4375    0.1490    1.3718 C   0  0  0  0  0  0  0  0  0  0  0  0
    4.8701    0.2416    0.2060 N   0  0  0  0  0  0  0  0  0  0  0  0
    3.5083    0.4113    0.3981 N   0  0  0  0  0  0  0  0  0  0  0  0
    2.6142    0.4925   -0.6487 C   0  0  0  0  0  0  0  0  0  0  0  0
    2.9940    0.4589   -1.8953 N   0  0  0  0  0  0  0  0  0  0  0  0
    1.1710    0.6194   -0.2581 C   0  0  0  0  0  0  0  0  0  0  0  0
    0.2498    0.5571   -1.2403 C   0  0  0  0  0  0  0  0  0  0  0  0
   -1.1686    0.5910   -1.1116 C   0  0  0  0  0  0  0  0  0  0  0  0
   -2.0496    1.6150   -1.5084 C   0  0  0  0  0  0  0  0  0  0  0  0
   -1.7196    2.9208   -2.1326 C   0  0  0  0  0  0  0  0  0  0  0  0
   -3.3203    1.3062   -1.2377 N   0  0  0  0  0  0  0  0  0  0  0  0
   -3.2914    0.0487   -0.6842 N   0  0  0  0  0  0  0  0  0  0  0  0
   -4.5458   -0.5623   -0.3514 C   0  0  0  0  0  0  0  0  0  0  0  0
   -4.6935   -1.9293   -0.0917 C   0  0  0  0  0  0  0  0  0  0  0  0
   -5.9497   -2.4620    0.2267 C   0  0  0  0  0  0  0  0  0  0  0  0
   -7.0728   -1.6414    0.2810 C   0  0  0  0  0  0  0  0  0  0  0  0
   -6.9471   -0.2842    0.0078 C   0  0  0  0  0  0  0  0  0  0  0  0
   -5.6959    0.2507   -0.3109 C   0  0  0  0  0  0  0  0  0  0  0  0
   -1.9778   -0.3912   -0.5921 C   0  0  0  0  0  0  0  0  0  0  0  0
   -1.4918   -1.8628    0.1295 Cl  0  0  0  0  0  0  0  0  0  0  0  0
    0.8486    0.8061    1.2089 C   0  0  0  0  0  0  0  0  0  0  0  0
   -0.2686    1.1479    1.5749 O   0  0  0  0  0  0  0  0  0  0  0  0
    1.8653    0.6124    2.1256 N   0  0  0  0  0  0  0  0  0  0  0  0
    3.0651    0.4503    1.6960 C   0  0  0  0  0  0  0  0  0  0  0  0
    4.4095    0.2416    2.7918 S   0  0  0  0  0  0  0  0  0  0  0  0
    6.9412   -1.9718    0.5371 H   0  0  0  0  0  0  0  0  0  0  0  0
    6.7459   -2.0945    2.2899 H   0  0  0  0  0  0  0  0  0  0  0  0
    8.3292   -1.6850    1.6039 H   0  0  0  0  0  0  0  0  0  0  0  0
    7.4400    0.4759    0.7625 H   0  0  0  0  0  0  0  0  0  0  0  0
    7.2357    0.3624    2.5148 H   0  0  0  0  0  0  0  0  0  0  0  0
    4.0222    0.3642   -1.8775 H   0  0  0  0  0  0  0  0  0  0  0  0
    0.5970    0.4573   -2.2690 H   0  0  0  0  0  0  0  0  0  0  0  0
   -1.0783    3.5093   -1.4686 H   0  0  0  0  0  0  0  0  0  0  0  0
   -1.1914    2.7689   -3.0793 H   0  0  0  0  0  0  0  0  0  0  0  0
   -2.6203    3.5081   -2.3398 H   0  0  0  0  0  0  0  0  0  0  0  0
   -3.8771   -2.6352   -0.1617 H   0  0  0  0  0  0  0  0  0  0  0  0
   -6.0493   -3.5269    0.4239 H   0  0  0  0  0  0  0  0  0  0  0  0
   -8.0444   -2.0606    0.5282 H   0  0  0  0  0  0  0  0  0  0  0  0
   -7.8192    0.3636    0.0421 H   0  0  0  0  0  0  0  0  0  0  0  0
   -5.6328    1.3191   -0.5136 H   0  0  0  0  0  0  0  0  0  0  0  0
  1  2  1  0
  2  3  1  0
  3  4  2  0
  4  5  1  0
  5  6  1  0
  6  7  2  3
  6  8  1  0
  8  9  2  3
  9 10  1  0
 10 11  1  0
 11 12  1  0
 11 13  2  0
 13 14  1  0
 14 15  1  0
 15 16  2  0
 16 17  1  0
 17 18  2  0
 18 19  1  0
 19 20  2  0
 14 21  1  0
 21 22  1  0
  8 23  1  0
 23 24  2  0
 23 25  1  0
 25 26  2  0
 26 27  1  0
 27  3  1  0
 26  5  1  0
 21 10  2  0
 20 15  1  0
  1 28  1  0
  1 29  1  0
  1 30  1  0
  2 31  1  0
  2 32  1  0
  7 33  1  0
  9 34  1  0
 12 35  1  0
 12 36  1  0
 12 37  1  0
 16 38  1  0
 17 39  1  0
 18 40  1  0
 19 41  1  0
 20 42  1  0
M  END
$$$$
