
     RDKit          3D

 49 52  0  0  0  0  0  0  0  0999 V2000
   -5.7594    3.0685    0.4750 C   0  0  0  0  0  0  0  0  0  0  0  0
   -4.4769    2.5101    1.0600 C   0  0  0  0  0  0  0  0  0  0  0  0
   -3.6407    2.0839   -0.0232 O   0  0  0  0  0  0  0  0  0  0  0  0
   -2.4585    1.5247    0.3716 C   0  0  0  0  0  0  0  0  0  0  0  0
   -2.0966    1.4104    1.5337 O   0  0  0  0  0  0  0  0  0  0  0  0
   -1.6619    1.1220   -0.8514 C   0  0  0  0  0  0  0  0  0  0  0  0
   -0.5866    0.0909   -0.5724 C   0  0  0  0  0  0  0  0  0  0  0  0
    0.7112    0.6269   -0.4177 C   0  0  0  0  0  0  0  0  0  0  0  0
    1.7881   -0.2058   -0.1858 C   0  0  0  0  0  0  0  0  0  0  0  0
    3.1734    0.2780   -0.0182 C   0  0  0  0  0  0  0  0  0  0  0  0
    3.6629    1.4077   -0.6984 C   0  0  0  0  0  0  0  0  0  0  0  0
    4.9812    1.8567   -0.5259 C   0  0  0  0  0  0  0  0  0  0  0  0
    5.8462    1.1819    0.3321 C   0  0  0  0  0  0  0  0  0  0  0  0
    7.1473    1.5121    0.5901 O   0  0  0  0  0  0  0  0  0  0  0  0
    7.6674    2.6512   -0.0831 C   0  0  0  0  0  0  0  0  0  0  0  0
    5.3825    0.0551    1.0087 C   0  0  0  0  0  0  0  0  0  0  0  0
    4.0681   -0.3916    0.8339 C   0  0  0  0  0  0  0  0  0  0  0  0
    1.6135   -1.5357   -0.0969 N   0  0  0  0  0  0  0  0  0  0  0  0
    0.3881   -2.0622   -0.2235 C   0  0  0  0  0  0  0  0  0  0  0  0
    0.3659   -3.4344   -0.1133 C   0  0  0  0  0  0  0  0  0  0  0  0
   -0.8073   -4.1651   -0.2159 C   0  0  0  0  0  0  0  0  0  0  0  0
   -2.0192   -3.5221   -0.4241 C   0  0  0  0  0  0  0  0  0  0  0  0
   -3.1743   -4.3198   -0.5071 C   0  0  0  0  0  0  0  0  0  0  0  0
   -4.4265   -3.7549   -0.7001 C   0  0  0  0  0  0  0  0  0  0  0  0
   -4.5294   -2.3821   -0.8063 C   0  0  0  0  0  0  0  0  0  0  0  0
   -3.3791   -1.5843   -0.7262 C   0  0  0  0  0  0  0  0  0  0  0  0
   -2.0675   -2.1042   -0.5410 C   0  0  0  0  0  0  0  0  0  0  0  0
   -0.8087   -1.3308   -0.4547 C   0  0  0  0  0  0  0  0  0  0  0  0
   -5.5445    3.9092   -0.1929 H   0  0  0  0  0  0  0  0  0  0  0  0
   -6.2723    2.3088   -0.1241 H   0  0  0  0  0  0  0  0  0  0  0  0
   -6.4333    3.4089    1.2661 H   0  0  0  0  0  0  0  0  0  0  0  0
   -3.9640    3.2869    1.6379 H   0  0  0  0  0  0  0  0  0  0  0  0
   -4.7074    1.6571    1.7083 H   0  0  0  0  0  0  0  0  0  0  0  0
   -1.2068    2.0441   -1.2379 H   0  0  0  0  0  0  0  0  0  0  0  0
   -2.3048    0.7753   -1.6646 H   0  0  0  0  0  0  0  0  0  0  0  0
    0.8651    1.7015   -0.4601 H   0  0  0  0  0  0  0  0  0  0  0  0
    3.0270    1.9497   -1.3947 H   0  0  0  0  0  0  0  0  0  0  0  0
    5.2969    2.7325   -1.0826 H   0  0  0  0  0  0  0  0  0  0  0  0
    8.7084    2.7779    0.2295 H   0  0  0  0  0  0  0  0  0  0  0  0
    7.6611    2.5055   -1.1683 H   0  0  0  0  0  0  0  0  0  0  0  0
    7.1228    3.5587    0.1977 H   0  0  0  0  0  0  0  0  0  0  0  0
    6.0470   -0.4854    1.6782 H   0  0  0  0  0  0  0  0  0  0  0  0
    3.7386   -1.2767    1.3766 H   0  0  0  0  0  0  0  0  0  0  0  0
    1.3011   -3.9647    0.0587 H   0  0  0  0  0  0  0  0  0  0  0  0
   -0.7525   -5.2476   -0.1212 H   0  0  0  0  0  0  0  0  0  0  0  0
   -3.1058   -5.4027   -0.4166 H   0  0  0  0  0  0  0  0  0  0  0  0
   -5.3107   -4.3826   -0.7595 H   0  0  0  0  0  0  0  0  0  0  0  0
   -5.5021   -1.9176   -0.9483 H   0  0  0  0  0  0  0  0  0  0  0  0
   -3.5670   -0.5257   -0.8054 H   0  0  0  0  0  0  0  0  0  0  0  0
  1  2  1  0
  2  3  1  0
  3  4  1  0
  4  5  2  0
  4  6  1  0
  6  7  1  0
  7  8  2  0
  8  9  1  0
  9 10  1  0
 10 11  2  0
 11 12  1  0
 12 13  2  0
 13 14  1  0
 14 15  1  0
 13 16  1  0
 16 17  2  0
  9 18  2  0
 18 19  1  0
 19 20  2  0
 20 21  1  0
 21 22  2  0
 22 23  1  0
 23 24  2  0
 24 25  1  0
 25 26  2  0
 26 27  1  0
 27 28  2  0
 28  7  1  0
 17 10  1  0
 28 19  1  0
 27 22  1  0
  1 29  1  0
  1 30  1  0
  1 31  1  0
  2 32  1  0
  2 33  1  0
  6 34  1  0
  6 35  1  0
  8 36  1  0
 11 37  1  0
 12 38  1  0
 15 39  1  0
 15 40  1  0
 15 41  1  0
 16 42  1  0
 17 43  1  0
 20 44  1  0
 21 45  1  0
 23 46  1  0
 24 47  1  0
 25 48  1  0
 26 49  1  0
M  END
$$$$
