
     RDKit          3D

 39 40  0  0  0  0  0  0  0  0999 V2000
   -6.4207   -1.2969   -0.6437 C   0  0  0  0  0  0  0  0  0  0  0  0
   -5.4915   -0.2877   -1.0131 O   0  0  0  0  0  0  0  0  0  0  0  0
   -4.3308   -0.1958   -0.2856 C   0  0  0  0  0  0  0  0  0  0  0  0
   -3.9545   -1.0949    0.7165 C   0  0  0  0  0  0  0  0  0  0  0  0
   -2.7498   -0.9214    1.4020 C   0  0  0  0  0  0  0  0  0  0  0  0
   -1.9056    0.1476    1.0890 C   0  0  0  0  0  0  0  0  0  0  0  0
   -0.6191    0.3076    1.8385 C   0  0  0  0  0  0  0  0  0  0  0  0
   -0.4986   -0.2709    2.9951 N   0  0  0  0  0  0  0  0  0  0  0  0
    0.4012    1.0591    1.2926 N   0  0  0  0  0  0  0  0  0  0  0  0
    1.6684    0.7100    1.8178 O   0  0  0  0  0  0  0  0  0  0  0  0
    2.5560    0.3621    0.8276 C   0  0  0  0  0  0  0  0  0  0  0  0
    2.2787    0.3941   -0.3666 O   0  0  0  0  0  0  0  0  0  0  0  0
    3.7508   -0.0019    1.4171 O   0  0  0  0  0  0  0  0  0  0  0  0
    4.7131   -0.3872    0.4850 C   0  0  0  0  0  0  0  0  0  0  0  0
    5.6752    0.5401    0.0881 C   0  0  0  0  0  0  0  0  0  0  0  0
    6.6664    0.1475   -0.8102 C   0  0  0  0  0  0  0  0  0  0  0  0
    6.6954   -1.1644   -1.2894 C   0  0  0  0  0  0  0  0  0  0  0  0
    5.7377   -2.0900   -0.8677 C   0  0  0  0  0  0  0  0  0  0  0  0
    4.7434   -1.7047    0.0305 C   0  0  0  0  0  0  0  0  0  0  0  0
   -2.2790    1.0570    0.0909 C   0  0  0  0  0  0  0  0  0  0  0  0
   -3.4841    0.8875   -0.6031 C   0  0  0  0  0  0  0  0  0  0  0  0
   -3.9322    1.7284   -1.5927 O   0  0  0  0  0  0  0  0  0  0  0  0
   -3.0667    2.7684   -2.0242 C   0  0  0  0  0  0  0  0  0  0  0  0
   -6.7431   -1.1800    0.3962 H   0  0  0  0  0  0  0  0  0  0  0  0
   -6.0069   -2.2948   -0.8220 H   0  0  0  0  0  0  0  0  0  0  0  0
   -7.3048   -1.1862   -1.2790 H   0  0  0  0  0  0  0  0  0  0  0  0
   -4.5731   -1.9433    0.9895 H   0  0  0  0  0  0  0  0  0  0  0  0
   -2.4720   -1.6270    2.1828 H   0  0  0  0  0  0  0  0  0  0  0  0
    0.4292   -0.0259    3.3594 H   0  0  0  0  0  0  0  0  0  0  0  0
    0.4155    1.0892    0.2682 H   0  0  0  0  0  0  0  0  0  0  0  0
    5.6570    1.5561    0.4706 H   0  0  0  0  0  0  0  0  0  0  0  0
    7.4191    0.8608   -1.1361 H   0  0  0  0  0  0  0  0  0  0  0  0
    7.4696   -1.4680   -1.9901 H   0  0  0  0  0  0  0  0  0  0  0  0
    5.7695   -3.1114   -1.2385 H   0  0  0  0  0  0  0  0  0  0  0  0
    4.0041   -2.4258    0.3664 H   0  0  0  0  0  0  0  0  0  0  0  0
   -1.6424    1.9083   -0.1154 H   0  0  0  0  0  0  0  0  0  0  0  0
   -2.1199    2.3664   -2.4000 H   0  0  0  0  0  0  0  0  0  0  0  0
   -2.8984    3.4972   -1.2247 H   0  0  0  0  0  0  0  0  0  0  0  0
   -3.5572    3.2908   -2.8511 H   0  0  0  0  0  0  0  0  0  0  0  0
  1  2  1  0
  2  3  1  0
  3  4  2  0
  4  5  1  0
  5  6  2  0
  6  7  1  0
  7  8  2  3
  7  9  1  0
  9 10  1  0
 10 11  1  0
 11 12  2  0
 11 13  1  0
 13 14  1  0
 14 15  2  0
 15 16  1  0
 16 17  2  0
 17 18  1  0
 18 19  2  0
  6 20  1  0
 20 21  2  0
 21 22  1  0
 22 23  1  0
 21  3  1  0
 19 14  1  0
  1 24  1  0
  1 25  1  0
  1 26  1  0
  4 27  1  0
  5 28  1  0
  8 29  1  0
  9 30  1  0
 15 31  1  0
 16 32  1  0
 17 33  1  0
 18 34  1  0
 19 35  1  0
 20 36  1  0
 23 37  1  0
 23 38  1  0
 23 39  1  0
M  END
$$$$
