
     RDKit          3D

 44 46  0  0  0  0  0  0  0  0999 V2000
   -6.9445    1.0792   -0.2232 C   0  0  0  0  0  0  0  0  0  0  0  0
   -5.9260   -0.0002    0.0043 C   0  0  0  0  0  0  0  0  0  0  0  0
   -6.3321   -1.2836    0.3837 C   0  0  0  0  0  0  0  0  0  0  0  0
   -5.3911   -2.2974    0.5540 C   0  0  0  0  0  0  0  0  0  0  0  0
   -4.0280   -2.0485    0.3409 C   0  0  0  0  0  0  0  0  0  0  0  0
   -3.0307   -3.1598    0.5221 C   0  0  0  0  0  0  0  0  0  0  0  0
   -3.6122   -0.7638   -0.0510 C   0  0  0  0  0  0  0  0  0  0  0  0
   -2.2643   -0.6160   -0.2531 O   0  0  0  0  0  0  0  0  0  0  0  0
   -1.7740    0.7042   -0.4810 C   0  0  0  0  0  0  0  0  0  0  0  0
   -0.3010    0.5936   -0.5858 C   0  0  0  0  0  0  0  0  0  0  0  0
    0.5544   -0.2465   -1.2552 C   0  0  0  0  0  0  0  0  0  0  0  0
    1.8576    0.2115   -0.9184 C   0  0  0  0  0  0  0  0  0  0  0  0
    3.1210   -0.3459   -1.4264 C   0  0  0  0  0  0  0  0  0  0  0  0
    3.1061   -1.0030   -2.4704 O   0  0  0  0  0  0  0  0  0  0  0  0
    4.3232   -0.1212   -0.7379 N   0  0  0  0  0  0  0  0  0  0  0  0
    5.5433   -0.6067   -1.3708 C   0  0  0  0  0  0  0  0  0  0  0  0
    4.3932    0.0997    0.7142 C   0  0  0  0  0  0  0  0  0  0  0  0
    5.2952    1.2537    1.0568 C   0  0  0  0  0  0  0  0  0  0  0  0
    6.5481    1.1210    1.4530 N   0  0  0  0  0  0  0  0  0  0  0  0
    7.0984    2.3652    1.6885 C   0  0  0  0  0  0  0  0  0  0  0  0
    6.2614    3.4380    1.4715 C   0  0  0  0  0  0  0  0  0  0  0  0
    4.7276    2.8769    0.9556 S   0  0  0  0  0  0  0  0  0  0  0  0
    1.7752    1.2940   -0.1250 N   0  0  0  0  0  0  0  0  0  0  0  0
    0.4301    1.5169    0.0931 O   0  0  0  0  0  0  0  0  0  0  0  0
   -4.5639    0.2486   -0.2243 C   0  0  0  0  0  0  0  0  0  0  0  0
   -7.2985    1.0468   -1.2593 H   0  0  0  0  0  0  0  0  0  0  0  0
   -6.5183    2.0691   -0.0250 H   0  0  0  0  0  0  0  0  0  0  0  0
   -7.8005    0.9548    0.4476 H   0  0  0  0  0  0  0  0  0  0  0  0
   -7.3853   -1.5034    0.5456 H   0  0  0  0  0  0  0  0  0  0  0  0
   -5.7301   -3.2877    0.8492 H   0  0  0  0  0  0  0  0  0  0  0  0
   -2.5319   -3.3775   -0.4274 H   0  0  0  0  0  0  0  0  0  0  0  0
   -2.2820   -2.8810    1.2723 H   0  0  0  0  0  0  0  0  0  0  0  0
   -3.5132   -4.0820    0.8651 H   0  0  0  0  0  0  0  0  0  0  0  0
   -2.1668    1.1027   -1.4241 H   0  0  0  0  0  0  0  0  0  0  0  0
   -2.0458    1.3625    0.3535 H   0  0  0  0  0  0  0  0  0  0  0  0
    0.2906   -1.0770   -1.8962 H   0  0  0  0  0  0  0  0  0  0  0  0
    5.4552   -0.5942   -2.4611 H   0  0  0  0  0  0  0  0  0  0  0  0
    5.7253   -1.6348   -1.0440 H   0  0  0  0  0  0  0  0  0  0  0  0
    6.3910    0.0249   -1.0963 H   0  0  0  0  0  0  0  0  0  0  0  0
    4.8079   -0.8186    1.1523 H   0  0  0  0  0  0  0  0  0  0  0  0
    3.4151    0.2138    1.1821 H   0  0  0  0  0  0  0  0  0  0  0  0
    8.1270    2.4354    2.0216 H   0  0  0  0  0  0  0  0  0  0  0  0
    6.4701    4.4932    1.5901 H   0  0  0  0  0  0  0  0  0  0  0  0
   -4.2768    1.2433   -0.5492 H   0  0  0  0  0  0  0  0  0  0  0  0
  1  2  1  0
  2  3  2  0
  3  4  1  0
  4  5  2  0
  5  6  1  0
  5  7  1  0
  7  8  1  0
  8  9  1  0
  9 10  1  0
 10 11  2  0
 11 12  1  0
 12 13  1  0
 13 14  2  0
 13 15  1  0
 15 16  1  0
 15 17  1  0
 17 18  1  0
 18 19  2  0
 19 20  1  0
 20 21  2  0
 21 22  1  0
 12 23  2  0
 23 24  1  0
  7 25  2  0
 25  2  1  0
 24 10  1  0
 22 18  1  0
  1 26  1  0
  1 27  1  0
  1 28  1  0
  3 29  1  0
  4 30  1  0
  6 31  1  0
  6 32  1  0
  6 33  1  0
  9 34  1  0
  9 35  1  0
 11 36  1  0
 16 37  1  0
 16 38  1  0
 16 39  1  0
 17 40  1  0
 17 41  1  0
 20 42  1  0
 21 43  1  0
 25 44  1  0
M  END
$$$$
