
     RDKit          3D

 53 56  0  0  0  0  0  0  0  0999 V2000
   -6.2202    2.4750    1.3210 C   0  0  0  0  0  0  0  0  0  0  0  0
   -5.9258    1.4353    0.3978 O   0  0  0  0  0  0  0  0  0  0  0  0
   -6.5949    0.2240    0.7296 C   0  0  0  0  0  0  0  0  0  0  0  0
   -6.2487   -0.8965   -0.2583 C   0  0  0  0  0  0  0  0  0  0  0  0
   -6.5729   -0.5464   -1.7141 C   0  0  0  0  0  0  0  0  0  0  0  0
   -5.2934    0.0718   -2.2517 C   0  0  0  0  0  0  0  0  0  0  0  0
   -4.2327   -0.5725   -1.5052 N   0  0  0  0  0  0  0  0  0  0  0  0
   -2.9048   -0.3601   -1.8567 C   0  0  0  0  0  0  0  0  0  0  0  0
   -2.6219    0.3530   -2.8232 O   0  0  0  0  0  0  0  0  0  0  0  0
   -1.8233   -0.9910   -1.0794 C   0  0  0  0  0  0  0  0  0  0  0  0
   -0.4373   -0.6953   -1.2106 C   0  0  0  0  0  0  0  0  0  0  0  0
    0.1928   -1.5220   -0.3145 C   0  0  0  0  0  0  0  0  0  0  0  0
    1.6011   -1.7611    0.0758 C   0  0  0  0  0  0  0  0  0  0  0  0
    2.2894   -0.5213   -0.0687 O   0  0  0  0  0  0  0  0  0  0  0  0
    3.6319   -0.4888    0.2261 C   0  0  0  0  0  0  0  0  0  0  0  0
    4.3636   -1.5986    0.6534 C   0  0  0  0  0  0  0  0  0  0  0  0
    5.7266   -1.4840    0.9316 C   0  0  0  0  0  0  0  0  0  0  0  0
    6.3810   -0.2591    0.7874 C   0  0  0  0  0  0  0  0  0  0  0  0
    7.7191   -0.0712    1.0430 O   0  0  0  0  0  0  0  0  0  0  0  0
    8.4798   -1.1962    1.4620 C   0  0  0  0  0  0  0  0  0  0  0  0
    5.6593    0.8818    0.3560 C   0  0  0  0  0  0  0  0  0  0  0  0
    6.2767    2.1435    0.1956 C   0  0  0  0  0  0  0  0  0  0  0  0
    5.5627    3.2641   -0.2294 C   0  0  0  0  0  0  0  0  0  0  0  0
    4.2089    3.1512   -0.5055 C   0  0  0  0  0  0  0  0  0  0  0  0
    3.5738    1.9182   -0.3557 C   0  0  0  0  0  0  0  0  0  0  0  0
    4.2728    0.7660    0.0729 C   0  0  0  0  0  0  0  0  0  0  0  0
   -0.7424   -2.2849    0.3088 O   0  0  0  0  0  0  0  0  0  0  0  0
   -1.9968   -1.9645   -0.1678 N   0  0  0  0  0  0  0  0  0  0  0  0
   -4.7474   -1.2089   -0.3005 C   0  0  0  0  0  0  0  0  0  0  0  0
   -7.2926    2.6919    1.3245 H   0  0  0  0  0  0  0  0  0  0  0  0
   -5.8873    2.1997    2.3263 H   0  0  0  0  0  0  0  0  0  0  0  0
   -5.6826    3.3744    1.0091 H   0  0  0  0  0  0  0  0  0  0  0  0
   -6.3093   -0.0829    1.7431 H   0  0  0  0  0  0  0  0  0  0  0  0
   -7.6777    0.3973    0.7161 H   0  0  0  0  0  0  0  0  0  0  0  0
   -6.8086   -1.7865    0.0529 H   0  0  0  0  0  0  0  0  0  0  0  0
   -7.4386    0.1125   -1.8285 H   0  0  0  0  0  0  0  0  0  0  0  0
   -6.7841   -1.4723   -2.2643 H   0  0  0  0  0  0  0  0  0  0  0  0
   -5.2463    1.1495   -2.0639 H   0  0  0  0  0  0  0  0  0  0  0  0
   -5.1677   -0.0961   -3.3260 H   0  0  0  0  0  0  0  0  0  0  0  0
    0.0204    0.0281   -1.8701 H   0  0  0  0  0  0  0  0  0  0  0  0
    1.6446   -2.0986    1.1179 H   0  0  0  0  0  0  0  0  0  0  0  0
    2.0297   -2.5189   -0.5900 H   0  0  0  0  0  0  0  0  0  0  0  0
    3.9090   -2.5749    0.7834 H   0  0  0  0  0  0  0  0  0  0  0  0
    6.2490   -2.3760    1.2610 H   0  0  0  0  0  0  0  0  0  0  0  0
    8.1164   -1.5841    2.4192 H   0  0  0  0  0  0  0  0  0  0  0  0
    8.4880   -1.9762    0.6936 H   0  0  0  0  0  0  0  0  0  0  0  0
    9.5123   -0.8648    1.6091 H   0  0  0  0  0  0  0  0  0  0  0  0
    7.3386    2.2596    0.4058 H   0  0  0  0  0  0  0  0  0  0  0  0
    6.0675    4.2195   -0.3427 H   0  0  0  0  0  0  0  0  0  0  0  0
    3.6429    4.0174   -0.8371 H   0  0  0  0  0  0  0  0  0  0  0  0
    2.5098    1.8592   -0.5786 H   0  0  0  0  0  0  0  0  0  0  0  0
   -4.5940   -2.2883   -0.4067 H   0  0  0  0  0  0  0  0  0  0  0  0
   -4.2165   -0.8510    0.5867 H   0  0  0  0  0  0  0  0  0  0  0  0
  1  2  1  0
  2  3  1  0
  3  4  1  0
  4  5  1  0
  5  6  1  0
  6  7  1  0
  7  8  1  0
  8  9  2  0
  8 10  1  0
 10 11  1  0
 11 12  2  0
 12 13  1  0
 13 14  1  0
 14 15  1  0
 15 16  2  0
 16 17  1  0
 17 18  2  0
 18 19  1  0
 19 20  1  0
 18 21  1  0
 21 22  2  0
 22 23  1  0
 23 24  2  0
 24 25  1  0
 25 26  2  0
 12 27  1  0
 27 28  1  0
  7 29  1  0
 29  4  1  0
 28 10  2  0
 26 15  1  0
 26 21  1  0
  1 30  1  0
  1 31  1  0
  1 32  1  0
  3 33  1  0
  3 34  1  0
  4 35  1  0
  5 36  1  0
  5 37  1  0
  6 38  1  0
  6 39  1  0
 11 40  1  0
 13 41  1  0
 13 42  1  0
 16 43  1  0
 17 44  1  0
 20 45  1  0
 20 46  1  0
 20 47  1  0
 22 48  1  0
 23 49  1  0
 24 50  1  0
 25 51  1  0
 29 52  1  0
 29 53  1  0
M  END
$$$$
