
     RDKit          3D

 36 37  0  0  0  0  0  0  0  0999 V2000
    4.0287   -0.9440   -2.1831 C   0  0  0  0  0  0  0  0  0  0  0  0
    3.8467   -1.5729   -0.8900 N   0  0  0  0  0  0  0  0  0  0  0  0
    3.3860   -0.9546    0.2381 C   0  0  0  0  0  0  0  0  0  0  0  0
    4.0469   -1.4818    1.6859 S   0  0  0  0  0  0  0  0  0  0  0  0
    2.4382    0.0387    0.0955 N   0  0  0  0  0  0  0  0  0  0  0  0
    2.1838    1.0511    1.1258 C   0  0  0  0  0  0  0  0  0  0  0  0
    0.9099    0.7283    1.9026 C   0  0  0  0  0  0  0  0  0  0  0  0
   -0.2500    0.5061    0.9618 C   0  0  0  0  0  0  0  0  0  0  0  0
   -1.5654    0.6399    1.4321 C   0  0  0  0  0  0  0  0  0  0  0  0
   -2.6553    0.4206    0.5827 C   0  0  0  0  0  0  0  0  0  0  0  0
   -3.9703    0.5397    0.9607 O   0  0  0  0  0  0  0  0  0  0  0  0
   -4.2404    0.8518    2.3193 C   0  0  0  0  0  0  0  0  0  0  0  0
   -2.4282    0.0538   -0.7576 C   0  0  0  0  0  0  0  0  0  0  0  0
   -3.5489   -0.1361   -1.5286 O   0  0  0  0  0  0  0  0  0  0  0  0
   -3.3654   -0.5711   -2.8674 C   0  0  0  0  0  0  0  0  0  0  0  0
   -1.1154   -0.0927   -1.2214 C   0  0  0  0  0  0  0  0  0  0  0  0
   -0.0184    0.1198   -0.3690 C   0  0  0  0  0  0  0  0  0  0  0  0
    1.3855   -0.0484   -0.9218 C   0  0  0  0  0  0  0  0  0  0  0  0
    5.0074   -1.2408   -2.5696 H   0  0  0  0  0  0  0  0  0  0  0  0
    3.2561   -1.3084   -2.8639 H   0  0  0  0  0  0  0  0  0  0  0  0
    3.9903    0.1449   -2.1024 H   0  0  0  0  0  0  0  0  0  0  0  0
    4.5153   -2.3039   -0.6716 H   0  0  0  0  0  0  0  0  0  0  0  0
    3.0344    1.1510    1.8063 H   0  0  0  0  0  0  0  0  0  0  0  0
    2.0827    2.0146    0.6090 H   0  0  0  0  0  0  0  0  0  0  0  0
    0.6898    1.5571    2.5853 H   0  0  0  0  0  0  0  0  0  0  0  0
    1.0451   -0.1798    2.5015 H   0  0  0  0  0  0  0  0  0  0  0  0
   -1.7113    0.9196    2.4705 H   0  0  0  0  0  0  0  0  0  0  0  0
   -3.8499    1.8404    2.5821 H   0  0  0  0  0  0  0  0  0  0  0  0
   -3.8484    0.0793    2.9890 H   0  0  0  0  0  0  0  0  0  0  0  0
   -5.3269    0.8804    2.4463 H   0  0  0  0  0  0  0  0  0  0  0  0
   -2.8285    0.1800   -3.4559 H   0  0  0  0  0  0  0  0  0  0  0  0
   -4.3552   -0.6986   -3.3164 H   0  0  0  0  0  0  0  0  0  0  0  0
   -2.8575   -1.5406   -2.9032 H   0  0  0  0  0  0  0  0  0  0  0  0
   -0.9160   -0.3769   -2.2497 H   0  0  0  0  0  0  0  0  0  0  0  0
    1.5735    0.7506   -1.6481 H   0  0  0  0  0  0  0  0  0  0  0  0
    1.4310   -1.0174   -1.4287 H   0  0  0  0  0  0  0  0  0  0  0  0
  1  2  1  0
  2  3  1  0
  3  4  2  0
  3  5  1  0
  5  6  1  0
  6  7  1  0
  7  8  1  0
  8  9  2  0
  9 10  1  0
 10 11  1  0
 11 12  1  0
 10 13  2  0
 13 14  1  0
 14 15  1  0
 13 16  1  0
 16 17  2  0
 17 18  1  0
 18  5  1  0
 17  8  1  0
  1 19  1  0
  1 20  1  0
  1 21  1  0
  2 22  1  0
  6 23  1  0
  6 24  1  0
  7 25  1  0
  7 26  1  0
  9 27  1  0
 12 28  1  0
 12 29  1  0
 12 30  1  0
 15 31  1  0
 15 32  1  0
 15 33  1  0
 16 34  1  0
 18 35  1  0
 18 36  1  0
M  END
$$$$
