
     RDKit          3D

 61 64  0  0  0  0  0  0  0  0999 V2000
    9.3334   -1.3106    0.6308 C   0  0  0  0  0  0  0  0  0  0  0  0
    8.1179   -0.7360   -0.0345 C   0  0  0  0  0  0  0  0  0  0  0  0
    7.8954    0.6452   -0.0321 C   0  0  0  0  0  0  0  0  0  0  0  0
    6.7501    1.1789   -0.6268 C   0  0  0  0  0  0  0  0  0  0  0  0
    5.8011    0.3401   -1.2265 C   0  0  0  0  0  0  0  0  0  0  0  0
    4.5553    0.9220   -1.8482 C   0  0  0  0  0  0  0  0  0  0  0  0
    3.6002    1.3718   -0.8513 N   0  0  0  0  0  0  0  0  0  0  0  0
    2.9317    0.4640    0.0437 C   0  0  0  0  0  0  0  0  0  0  0  0
    1.9541    1.3455    0.8046 C   0  0  0  0  0  0  0  0  0  0  0  0
    0.5700    1.2972    0.1643 C   0  0  0  0  0  0  0  0  0  0  0  0
    0.1154    2.2407   -0.4711 O   0  0  0  0  0  0  0  0  0  0  0  0
   -0.0752    0.0908    0.4014 N   0  0  0  0  0  0  0  0  0  0  0  0
   -1.3336   -0.3172   -0.0899 C   0  0  0  0  0  0  0  0  0  0  0  0
   -1.8313   -1.5443    0.3726 C   0  0  0  0  0  0  0  0  0  0  0  0
   -3.0696   -2.0246   -0.0635 C   0  0  0  0  0  0  0  0  0  0  0  0
   -3.8231   -1.2693   -0.9633 C   0  0  0  0  0  0  0  0  0  0  0  0
   -5.3876   -1.8897   -1.5514 S   0  0  0  0  0  6  0  0  0  0  0  0
   -5.3902   -3.3219   -1.3365 O   0  0  0  0  0  0  0  0  0  0  0  0
   -5.6056   -1.3305   -2.8686 O   0  0  0  0  0  0  0  0  0  0  0  0
   -6.5030   -1.1915   -0.4809 N   0  0  0  0  0  0  0  0  0  0  0  0
   -6.5611   -1.7097    0.9062 C   0  0  0  0  0  0  0  0  0  0  0  0
   -6.3456   -0.5951    1.9216 C   0  0  0  0  0  0  0  0  0  0  0  0
   -7.3915    0.5096    1.7822 C   0  0  0  0  0  0  0  0  0  0  0  0
   -7.8733    0.6814    0.3423 C   0  0  0  0  0  0  0  0  0  0  0  0
   -6.8109    0.2460   -0.6604 C   0  0  0  0  0  0  0  0  0  0  0  0
   -3.3245   -0.0636   -1.4588 C   0  0  0  0  0  0  0  0  0  0  0  0
   -2.0866    0.4132   -1.0132 C   0  0  0  0  0  0  0  0  0  0  0  0
    2.5859    2.7383    0.7613 C   0  0  0  0  0  0  0  0  0  0  0  0
    3.5034    2.6881   -0.4345 C   0  0  0  0  0  0  0  0  0  0  0  0
    4.0999    3.6451   -0.9002 O   0  0  0  0  0  0  0  0  0  0  0  0
    6.0175   -1.0442   -1.2135 C   0  0  0  0  0  0  0  0  0  0  0  0
    7.1643   -1.5771   -0.6190 C   0  0  0  0  0  0  0  0  0  0  0  0
    9.6497   -2.2346    0.1353 H   0  0  0  0  0  0  0  0  0  0  0  0
    9.1170   -1.5281    1.6815 H   0  0  0  0  0  0  0  0  0  0  0  0
   10.1743   -0.6106    0.5802 H   0  0  0  0  0  0  0  0  0  0  0  0
    8.6142    1.3182    0.4300 H   0  0  0  0  0  0  0  0  0  0  0  0
    6.5977    2.2576   -0.6202 H   0  0  0  0  0  0  0  0  0  0  0  0
    4.8341    1.7617   -2.4957 H   0  0  0  0  0  0  0  0  0  0  0  0
    4.0524    0.1830   -2.4822 H   0  0  0  0  0  0  0  0  0  0  0  0
    3.6755    0.0387    0.7262 H   0  0  0  0  0  0  0  0  0  0  0  0
    2.4623   -0.3396   -0.5314 H   0  0  0  0  0  0  0  0  0  0  0  0
    1.8389    1.0151    1.8443 H   0  0  0  0  0  0  0  0  0  0  0  0
    0.3746   -0.5552    1.0379 H   0  0  0  0  0  0  0  0  0  0  0  0
   -1.2631   -2.1475    1.0765 H   0  0  0  0  0  0  0  0  0  0  0  0
   -3.4319   -2.9854    0.2956 H   0  0  0  0  0  0  0  0  0  0  0  0
   -5.8164   -2.4931    1.0746 H   0  0  0  0  0  0  0  0  0  0  0  0
   -7.5429   -2.1748    1.0540 H   0  0  0  0  0  0  0  0  0  0  0  0
   -6.3693   -0.9984    2.9402 H   0  0  0  0  0  0  0  0  0  0  0  0
   -5.3465   -0.1634    1.7793 H   0  0  0  0  0  0  0  0  0  0  0  0
   -6.9645    1.4503    2.1501 H   0  0  0  0  0  0  0  0  0  0  0  0
   -8.2552    0.2924    2.4221 H   0  0  0  0  0  0  0  0  0  0  0  0
   -8.1571    1.7256    0.1694 H   0  0  0  0  0  0  0  0  0  0  0  0
   -8.7796    0.0803    0.1930 H   0  0  0  0  0  0  0  0  0  0  0  0
   -7.1968    0.4102   -1.6719 H   0  0  0  0  0  0  0  0  0  0  0  0
   -5.9094    0.8527   -0.5304 H   0  0  0  0  0  0  0  0  0  0  0  0
   -3.8842    0.5110   -2.1941 H   0  0  0  0  0  0  0  0  0  0  0  0
   -1.7327    1.3546   -1.4235 H   0  0  0  0  0  0  0  0  0  0  0  0
    3.2041    2.9079    1.6495 H   0  0  0  0  0  0  0  0  0  0  0  0
    1.8650    3.5527    0.6581 H   0  0  0  0  0  0  0  0  0  0  0  0
    5.2953   -1.7191   -1.6672 H   0  0  0  0  0  0  0  0  0  0  0  0
    7.3116   -2.6549   -0.6190 H   0  0  0  0  0  0  0  0  0  0  0  0
  1  2  1  0
  2  3  2  0
  3  4  1  0
  4  5  2  0
  5  6  1  0
  6  7  1  0
  7  8  1  0
  8  9  1  0
  9 10  1  0
 10 11  2  0
 10 12  1  0
 12 13  1  0
 13 14  2  0
 14 15  1  0
 15 16  2  0
 16 17  1  0
 17 18  2  0
 17 19  2  0
 17 20  1  0
 20 21  1  0
 21 22  1  0
 22 23  1  0
 23 24  1  0
 24 25  1  0
 16 26  1  0
 26 27  2  0
  9 28  1  0
 28 29  1  0
 29 30  2  0
  5 31  1  0
 31 32  2  0
 32  2  1  0
 29  7  1  0
 27 13  1  0
 25 20  1  0
  1 33  1  0
  1 34  1  0
  1 35  1  0
  3 36  1  0
  4 37  1  0
  6 38  1  0
  6 39  1  0
  8 40  1  0
  8 41  1  0
  9 42  1  0
 12 43  1  0
 14 44  1  0
 15 45  1  0
 21 46  1  0
 21 47  1  0
 22 48  1  0
 22 49  1  0
 23 50  1  0
 23 51  1  0
 24 52  1  0
 24 53  1  0
 25 54  1  0
 25 55  1  0
 26 56  1  0
 27 57  1  0
 28 58  1  0
 28 59  1  0
 31 60  1  0
 32 61  1  0
M  END
$$$$
