
     RDKit          3D

 36 38  0  0  0  0  0  0  0  0999 V2000
   -3.7842    3.2231   -2.1139 N   0  0  0  0  0  0  0  0  0  0  0  0
   -2.8525    2.6890   -1.6693 C   0  0  0  0  0  0  0  0  0  0  0  0
   -1.7296    2.0170   -1.1040 C   0  0  0  0  0  0  0  0  0  0  0  0
   -0.4675    2.2073   -1.6288 N   0  0  0  0  0  0  0  0  0  0  0  0
    0.2920    1.4390   -0.8749 C   0  0  0  0  0  0  0  0  0  0  0  0
    1.7625    1.2170   -0.9438 C   0  0  0  0  0  0  0  0  0  0  0  0
    1.9642   -0.1635   -1.2438 O   0  0  0  0  0  0  0  0  0  0  0  0
    3.2489   -0.6375   -1.2409 C   0  0  0  0  0  0  0  0  0  0  0  0
    4.3912    0.1679   -1.1806 C   0  0  0  0  0  0  0  0  0  0  0  0
    5.6645   -0.4127   -1.1926 C   0  0  0  0  0  0  0  0  0  0  0  0
    5.8012   -1.7971   -1.2683 C   0  0  0  0  0  0  0  0  0  0  0  0
    7.3711   -2.4994   -1.2817 Cl  0  0  0  0  0  0  0  0  0  0  0  0
    4.6774   -2.6130   -1.3344 C   0  0  0  0  0  0  0  0  0  0  0  0
    3.4070   -2.0330   -1.3225 C   0  0  0  0  0  0  0  0  0  0  0  0
    2.0369   -3.0871   -1.3997 Cl  0  0  0  0  0  0  0  0  0  0  0  0
   -0.3790    0.7826    0.1181 O   0  0  0  0  0  0  0  0  0  0  0  0
   -1.6981    1.1358   -0.0347 C   0  0  0  0  0  0  0  0  0  0  0  0
   -2.5835    0.5916    0.8551 N   0  0  0  0  0  0  0  0  0  0  0  0
   -4.0314    0.6655    0.5673 C   0  0  0  0  0  0  0  0  0  0  0  0
   -4.8604    0.2658    1.7979 C   0  0  0  0  0  0  0  0  0  0  0  0
   -4.4856   -1.0262    2.2924 O   0  0  0  0  0  0  0  0  0  0  0  0
   -3.1059   -1.0133    2.6826 C   0  0  0  0  0  0  0  0  0  0  0  0
   -2.1894   -0.6875    1.4957 C   0  0  0  0  0  0  0  0  0  0  0  0
    2.2111    1.4758    0.0223 H   0  0  0  0  0  0  0  0  0  0  0  0
    2.1840    1.8429   -1.7382 H   0  0  0  0  0  0  0  0  0  0  0  0
    4.3332    1.2507   -1.1329 H   0  0  0  0  0  0  0  0  0  0  0  0
    6.5461    0.2229   -1.1464 H   0  0  0  0  0  0  0  0  0  0  0  0
    4.7867   -3.6923   -1.3951 H   0  0  0  0  0  0  0  0  0  0  0  0
   -4.2634   -0.0090   -0.2661 H   0  0  0  0  0  0  0  0  0  0  0  0
   -4.3272    1.6819    0.2925 H   0  0  0  0  0  0  0  0  0  0  0  0
   -5.9215    0.2256    1.5318 H   0  0  0  0  0  0  0  0  0  0  0  0
   -4.7477    1.0029    2.6022 H   0  0  0  0  0  0  0  0  0  0  0  0
   -2.9697   -0.2894    3.4952 H   0  0  0  0  0  0  0  0  0  0  0  0
   -2.8629   -2.0050    3.0772 H   0  0  0  0  0  0  0  0  0  0  0  0
   -2.2595   -1.4890    0.7496 H   0  0  0  0  0  0  0  0  0  0  0  0
   -1.1589   -0.6496    1.8673 H   0  0  0  0  0  0  0  0  0  0  0  0
  1  2  3  0
  2  3  1  0
  3  4  1  0
  4  5  2  0
  5  6  1  0
  6  7  1  0
  7  8  1  0
  8  9  2  0
  9 10  1  0
 10 11  2  0
 11 12  1  0
 11 13  1  0
 13 14  2  0
 14 15  1  0
  5 16  1  0
 16 17  1  0
 17 18  1  0
 18 19  1  0
 19 20  1  0
 20 21  1  0
 21 22  1  0
 22 23  1  0
 17  3  2  0
 23 18  1  0
 14  8  1  0
  6 24  1  0
  6 25  1  0
  9 26  1  0
 10 27  1  0
 13 28  1  0
 19 29  1  0
 19 30  1  0
 20 31  1  0
 20 32  1  0
 22 33  1  0
 22 34  1  0
 23 35  1  0
 23 36  1  0
M  END
$$$$
