
     RDKit          3D

 66 68  0  0  0  0  0  0  0  0999 V2000
   -2.2070   -4.7827    0.3193 C   0  0  0  0  0  0  0  0  0  0  0  0
   -2.6782   -3.7045    1.2912 C   0  0  0  0  0  0  0  0  0  0  0  0
   -3.1359   -2.4390    0.6927 N   0  0  0  0  0  0  0  0  0  0  0  0
   -4.3964   -2.6263   -0.0465 C   0  0  0  0  0  0  0  0  0  0  0  0
   -5.1516   -1.3195   -0.2732 C   0  0  0  0  0  0  0  0  0  0  0  0
   -2.1174   -1.7507   -0.1243 C   0  0  0  0  0  0  0  0  0  0  0  0
   -0.8125   -1.4320    0.6301 C   0  0  0  0  0  0  0  0  0  0  0  0
    0.1982   -0.6517   -0.2532 C   0  0  0  0  0  0  0  0  0  0  0  0
    1.6265   -0.5972    0.2948 C   0  0  0  0  0  0  0  0  0  0  0  0
    1.9351   -0.7251    1.6511 C   0  0  0  0  0  0  0  0  0  0  0  0
    3.2644   -0.6623    2.0995 C   0  0  0  0  0  0  0  0  0  0  0  0
    4.3410   -0.4566    1.2233 C   0  0  0  0  0  0  0  0  0  0  0  0
    5.6784   -0.4046    1.6512 N   0  0  0  0  0  0  0  0  0  0  0  0
    6.5052    0.6294    1.0232 C   0  0  0  0  0  0  0  0  0  0  0  0
    5.9687   -0.6443    3.0639 C   0  0  0  0  0  0  0  0  0  0  0  0
    4.0144   -0.3448   -0.1375 C   0  0  0  0  0  0  0  0  0  0  0  0
    2.6905   -0.4056   -0.5949 C   0  0  0  0  0  0  0  0  0  0  0  0
   -0.3101    0.7357   -0.6659 C   0  0  0  0  0  0  0  0  0  0  0  0
   -0.5823    1.0298   -2.0184 C   0  0  0  0  0  0  0  0  0  0  0  0
   -0.3854    0.0044   -2.9096 O   0  0  0  0  0  0  0  0  0  0  0  0
   -0.5534    0.2740   -4.2955 C   0  0  0  0  0  0  0  0  0  0  0  0
   -1.0421    2.3048   -2.3865 C   0  0  0  0  0  0  0  0  0  0  0  0
   -1.2338    3.3111   -1.4310 C   0  0  0  0  0  0  0  0  0  0  0  0
   -1.6772    4.5787   -1.7185 O   0  0  0  0  0  0  0  0  0  0  0  0
   -1.9117    4.9098   -3.0812 C   0  0  0  0  0  0  0  0  0  0  0  0
   -0.9692    3.0367   -0.0811 C   0  0  0  0  0  0  0  0  0  0  0  0
   -1.1432    4.0357    0.9722 C   0  0  0  0  0  0  0  0  0  0  0  0
   -0.8778    3.7365    2.2460 C   0  0  0  0  0  0  0  0  0  0  0  0
   -0.4092    2.4058    2.6527 C   0  0  0  0  0  0  0  0  0  0  0  0
   -0.1779    2.1491    3.8285 O   0  0  0  0  0  0  0  0  0  0  0  0
   -0.2553    1.4746    1.6389 O   0  0  0  0  0  0  0  0  0  0  0  0
   -0.5178    1.7613    0.2767 C   0  0  0  0  0  0  0  0  0  0  0  0
   -2.9977   -5.0715   -0.3790 H   0  0  0  0  0  0  0  0  0  0  0  0
   -1.3351   -4.4594   -0.2572 H   0  0  0  0  0  0  0  0  0  0  0  0
   -1.9158   -5.6787    0.8770 H   0  0  0  0  0  0  0  0  0  0  0  0
   -3.4889   -4.1198    1.9041 H   0  0  0  0  0  0  0  0  0  0  0  0
   -1.8794   -3.5003    2.0131 H   0  0  0  0  0  0  0  0  0  0  0  0
   -4.2262   -3.1246   -1.0089 H   0  0  0  0  0  0  0  0  0  0  0  0
   -5.0668   -3.2744    0.5327 H   0  0  0  0  0  0  0  0  0  0  0  0
   -6.1483   -1.5305   -0.6761 H   0  0  0  0  0  0  0  0  0  0  0  0
   -5.2813   -0.7705    0.6654 H   0  0  0  0  0  0  0  0  0  0  0  0
   -4.6423   -0.6690   -0.9899 H   0  0  0  0  0  0  0  0  0  0  0  0
   -1.8897   -2.3303   -1.0274 H   0  0  0  0  0  0  0  0  0  0  0  0
   -2.5359   -0.7981   -0.4627 H   0  0  0  0  0  0  0  0  0  0  0  0
   -0.3353   -2.3705    0.9369 H   0  0  0  0  0  0  0  0  0  0  0  0
   -1.0532   -0.8852    1.5484 H   0  0  0  0  0  0  0  0  0  0  0  0
    0.2943   -1.2796   -1.1497 H   0  0  0  0  0  0  0  0  0  0  0  0
    1.1522   -0.8611    2.3937 H   0  0  0  0  0  0  0  0  0  0  0  0
    3.4220   -0.7591    3.1694 H   0  0  0  0  0  0  0  0  0  0  0  0
    6.0578    1.6224    1.1481 H   0  0  0  0  0  0  0  0  0  0  0  0
    7.5034    0.6570    1.4755 H   0  0  0  0  0  0  0  0  0  0  0  0
    6.6638    0.4337   -0.0421 H   0  0  0  0  0  0  0  0  0  0  0  0
    5.5978    0.1741    3.6908 H   0  0  0  0  0  0  0  0  0  0  0  0
    7.0502   -0.7238    3.2224 H   0  0  0  0  0  0  0  0  0  0  0  0
    5.5413   -1.5938    3.4046 H   0  0  0  0  0  0  0  0  0  0  0  0
    4.7949   -0.2326   -0.8840 H   0  0  0  0  0  0  0  0  0  0  0  0
    2.5000   -0.3093   -1.6621 H   0  0  0  0  0  0  0  0  0  0  0  0
    0.1329    1.0577   -4.6328 H   0  0  0  0  0  0  0  0  0  0  0  0
   -0.3101   -0.6401   -4.8449 H   0  0  0  0  0  0  0  0  0  0  0  0
   -1.5933    0.5300   -4.5227 H   0  0  0  0  0  0  0  0  0  0  0  0
   -1.2567    2.5128   -3.4263 H   0  0  0  0  0  0  0  0  0  0  0  0
   -2.7233    4.3052   -3.4984 H   0  0  0  0  0  0  0  0  0  0  0  0
   -0.9972    4.8133   -3.6752 H   0  0  0  0  0  0  0  0  0  0  0  0
   -2.2239    5.9575   -3.1212 H   0  0  0  0  0  0  0  0  0  0  0  0
   -1.4893    5.0270    0.6996 H   0  0  0  0  0  0  0  0  0  0  0  0
   -0.9980    4.4611    3.0412 H   0  0  0  0  0  0  0  0  0  0  0  0
  1  2  1  0
  2  3  1  0
  3  4  1  0
  4  5  1  0
  3  6  1  0
  6  7  1  0
  7  8  1  0
  8  9  1  0
  9 10  2  0
 10 11  1  0
 11 12  2  0
 12 13  1  0
 13 14  1  0
 13 15  1  0
 12 16  1  0
 16 17  2  0
  8 18  1  0
 18 19  2  0
 19 20  1  0
 20 21  1  0
 19 22  1  0
 22 23  2  0
 23 24  1  0
 24 25  1  0
 23 26  1  0
 26 27  1  0
 27 28  2  0
 28 29  1  0
 29 30  2  0
 29 31  1  0
 31 32  1  0
 17  9  1  0
 32 18  1  0
 32 26  2  0
  1 33  1  0
  1 34  1  0
  1 35  1  0
  2 36  1  0
  2 37  1  0
  4 38  1  0
  4 39  1  0
  5 40  1  0
  5 41  1  0
  5 42  1  0
  6 43  1  0
  6 44  1  0
  7 45  1  0
  7 46  1  0
  8 47  1  0
 10 48  1  0
 11 49  1  0
 14 50  1  0
 14 51  1  0
 14 52  1  0
 15 53  1  0
 15 54  1  0
 15 55  1  0
 16 56  1  0
 17 57  1  0
 21 58  1  0
 21 59  1  0
 21 60  1  0
 22 61  1  0
 25 62  1  0
 25 63  1  0
 25 64  1  0
 27 65  1  0
 28 66  1  0
M  END
$$$$
