
     RDKit          3D

 63 67  0  0  0  0  0  0  0  0999 V2000
   -2.5663    6.2414    1.0425 C   0  0  0  0  0  0  0  0  0  0  0  0
   -1.9746    5.4030    0.0588 O   0  0  0  0  0  0  0  0  0  0  0  0
   -2.3725    4.0949    0.0416 C   0  0  0  0  0  0  0  0  0  0  0  0
   -1.8283    3.3323   -0.9938 C   0  0  0  0  0  0  0  0  0  0  0  0
   -2.1533    1.9799   -1.1312 C   0  0  0  0  0  0  0  0  0  0  0  0
   -3.0292    1.3665   -0.2287 C   0  0  0  0  0  0  0  0  0  0  0  0
   -3.3607   -0.0580   -0.3647 C   0  0  0  0  0  0  0  0  0  0  0  0
   -4.9923   -0.4902   -0.6486 S   0  0  0  0  0  0  0  0  0  0  0  0
   -4.6350   -2.1694   -0.7175 C   0  0  0  0  0  0  0  0  0  0  0  0
   -5.5579   -3.2178   -0.9340 C   0  0  0  0  0  0  0  0  0  0  0  0
   -5.0965   -4.5356   -0.9540 C   0  0  0  0  0  0  0  0  0  0  0  0
   -5.8673   -5.6500   -1.1514 O   0  0  0  0  0  0  0  0  0  0  0  0
   -7.2617   -5.4444   -1.3384 C   0  0  0  0  0  0  0  0  0  0  0  0
   -3.7453   -4.7965   -0.7611 C   0  0  0  0  0  0  0  0  0  0  0  0
   -2.8351   -3.7559   -0.5482 C   0  0  0  0  0  0  0  0  0  0  0  0
   -3.2741   -2.4084   -0.5277 C   0  0  0  0  0  0  0  0  0  0  0  0
   -2.5411   -1.1764   -0.3298 C   0  0  0  0  0  0  0  0  0  0  0  0
   -1.1028   -1.0714   -0.1056 C   0  0  0  0  0  0  0  0  0  0  0  0
   -0.6048   -0.6807    1.1419 C   0  0  0  0  0  0  0  0  0  0  0  0
    0.7750   -0.5801    1.3533 C   0  0  0  0  0  0  0  0  0  0  0  0
    1.6657   -0.8709    0.3196 C   0  0  0  0  0  0  0  0  0  0  0  0
    3.0293   -0.8077    0.3897 O   0  0  0  0  0  0  0  0  0  0  0  0
    3.6009   -0.3780    1.6281 C   0  0  0  0  0  0  0  0  0  0  0  0
    5.1351   -0.3150    1.4904 C   0  0  0  0  0  0  0  0  0  0  0  0
    5.6435    0.9439    0.9092 N   0  0  0  0  0  0  0  0  0  0  0  0
    7.1220    1.0022    0.9311 C   0  0  0  0  0  0  0  0  0  0  0  0
    7.7687    0.7083   -0.4319 C   0  0  0  0  0  0  0  0  0  0  0  0
    7.3581    1.6228   -1.4566 O   0  0  0  0  0  0  0  0  0  0  0  0
    6.0326    2.1350   -1.2527 C   0  0  0  0  0  0  0  0  0  0  0  0
    5.1351    1.1687   -0.4638 C   0  0  0  0  0  0  0  0  0  0  0  0
    1.1656   -1.2688   -0.9235 C   0  0  0  0  0  0  0  0  0  0  0  0
   -0.2106   -1.3719   -1.1386 C   0  0  0  0  0  0  0  0  0  0  0  0
   -3.5677    2.1340    0.8133 C   0  0  0  0  0  0  0  0  0  0  0  0
   -3.2426    3.4897    0.9478 C   0  0  0  0  0  0  0  0  0  0  0  0
   -2.2831    5.9234    2.0514 H   0  0  0  0  0  0  0  0  0  0  0  0
   -3.6549    6.2780    0.9298 H   0  0  0  0  0  0  0  0  0  0  0  0
   -2.1824    7.2554    0.8925 H   0  0  0  0  0  0  0  0  0  0  0  0
   -1.1460    3.7948   -1.7027 H   0  0  0  0  0  0  0  0  0  0  0  0
   -1.7174    1.4125   -1.9502 H   0  0  0  0  0  0  0  0  0  0  0  0
   -6.6035   -2.9719   -1.0789 H   0  0  0  0  0  0  0  0  0  0  0  0
   -7.7138   -4.9796   -0.4561 H   0  0  0  0  0  0  0  0  0  0  0  0
   -7.7284   -6.4248   -1.4741 H   0  0  0  0  0  0  0  0  0  0  0  0
   -7.4563   -4.8553   -2.2405 H   0  0  0  0  0  0  0  0  0  0  0  0
   -3.3878   -5.8237   -0.7740 H   0  0  0  0  0  0  0  0  0  0  0  0
   -1.7842   -3.9899   -0.3950 H   0  0  0  0  0  0  0  0  0  0  0  0
   -1.2862   -0.4479    1.9570 H   0  0  0  0  0  0  0  0  0  0  0  0
    1.1165   -0.2705    2.3354 H   0  0  0  0  0  0  0  0  0  0  0  0
    3.3564   -1.1135    2.4051 H   0  0  0  0  0  0  0  0  0  0  0  0
    3.2131    0.6051    1.9233 H   0  0  0  0  0  0  0  0  0  0  0  0
    5.5433   -0.3986    2.5048 H   0  0  0  0  0  0  0  0  0  0  0  0
    5.4956   -1.1749    0.9128 H   0  0  0  0  0  0  0  0  0  0  0  0
    7.5437    0.3405    1.6974 H   0  0  0  0  0  0  0  0  0  0  0  0
    7.3929    2.0246    1.2256 H   0  0  0  0  0  0  0  0  0  0  0  0
    8.8580    0.7758   -0.3530 H   0  0  0  0  0  0  0  0  0  0  0  0
    7.5307   -0.3086   -0.7646 H   0  0  0  0  0  0  0  0  0  0  0  0
    5.6015    2.3274   -2.2406 H   0  0  0  0  0  0  0  0  0  0  0  0
    6.1133    3.1011   -0.7398 H   0  0  0  0  0  0  0  0  0  0  0  0
    5.0949    0.2203   -1.0165 H   0  0  0  0  0  0  0  0  0  0  0  0
    4.1219    1.5825   -0.4133 H   0  0  0  0  0  0  0  0  0  0  0  0
    1.8548   -1.4985   -1.7326 H   0  0  0  0  0  0  0  0  0  0  0  0
   -0.5773   -1.6786   -2.1153 H   0  0  0  0  0  0  0  0  0  0  0  0
   -4.2430    1.6804    1.5357 H   0  0  0  0  0  0  0  0  0  0  0  0
   -3.6841    4.0394    1.7723 H   0  0  0  0  0  0  0  0  0  0  0  0
  1  2  1  0
  2  3  1  0
  3  4  2  0
  4  5  1  0
  5  6  2  0
  6  7  1  0
  7  8  1  0
  8  9  1  0
  9 10  2  0
 10 11  1  0
 11 12  1  0
 12 13  1  0
 11 14  2  0
 14 15  1  0
 15 16  2  0
 16 17  1  0
 17 18  1  0
 18 19  2  0
 19 20  1  0
 20 21  2  0
 21 22  1  0
 22 23  1  0
 23 24  1  0
 24 25  1  0
 25 26  1  0
 26 27  1  0
 27 28  1  0
 28 29  1  0
 29 30  1  0
 21 31  1  0
 31 32  2  0
  6 33  1  0
 33 34  2  0
 34  3  1  0
 17  7  2  0
 32 18  1  0
 16  9  1  0
 30 25  1  0
  1 35  1  0
  1 36  1  0
  1 37  1  0
  4 38  1  0
  5 39  1  0
 10 40  1  0
 13 41  1  0
 13 42  1  0
 13 43  1  0
 14 44  1  0
 15 45  1  0
 19 46  1  0
 20 47  1  0
 23 48  1  0
 23 49  1  0
 24 50  1  0
 24 51  1  0
 26 52  1  0
 26 53  1  0
 27 54  1  0
 27 55  1  0
 29 56  1  0
 29 57  1  0
 30 58  1  0
 30 59  1  0
 31 60  1  0
 32 61  1  0
 33 62  1  0
 34 63  1  0
M  END
$$$$
