
     RDKit          3D

 46 49  0  0  0  0  0  0  0  0999 V2000
    3.8210    1.3253    1.5857 C   0  0  0  0  0  0  0  0  0  0  0  0
    4.4129    1.5683    0.2678 N   0  0  0  0  0  0  0  0  0  0  0  0
    5.8827    1.6258    0.3725 C   0  0  0  0  0  0  0  0  0  0  0  0
    6.3733    0.1871    0.2627 C   0  0  0  0  0  0  0  0  0  0  0  0
    5.2128   -0.5875   -0.3502 C   0  0  0  0  0  0  0  0  0  0  0  0
    4.1820    0.4834   -0.7110 C   0  0  0  0  0  0  0  0  0  0  0  0
    2.7632   -0.0808   -0.8504 C   0  0  0  0  0  0  0  0  0  0  0  0
    1.7661    0.9761   -1.3287 C   0  0  0  0  0  0  0  0  0  0  0  0
    0.4984    0.3464   -1.6959 N   0  0  0  0  0  0  0  0  0  0  0  0
   -0.5669    0.2392   -0.8064 C   0  0  0  0  0  0  0  0  0  0  0  0
   -0.4426    0.3382    0.5775 C   0  0  0  0  0  0  0  0  0  0  0  0
   -1.5448    0.1470    1.4200 C   0  0  0  0  0  0  0  0  0  0  0  0
   -2.8060   -0.1773    0.9038 C   0  0  0  0  0  0  0  0  0  0  0  0
   -4.1201   -0.3875    2.0706 S   0  0  0  0  0  0  0  0  0  0  0  0
   -5.4951   -0.8616    1.0594 C   0  0  0  0  0  0  0  0  0  0  0  0
   -6.6995   -1.1499    1.7245 C   0  0  0  0  0  0  0  0  0  0  0  0
   -7.8426   -1.5277    1.0173 C   0  0  0  0  0  0  0  0  0  0  0  0
   -7.7975   -1.6219   -0.3679 C   0  0  0  0  0  0  0  0  0  0  0  0
   -6.6091   -1.3381   -1.0397 C   0  0  0  0  0  0  0  0  0  0  0  0
   -5.4532   -0.9579   -0.3322 C   0  0  0  0  0  0  0  0  0  0  0  0
   -4.2286   -0.6732   -1.1161 C   0  0  0  0  0  0  0  0  0  0  0  0
   -4.2836   -0.7370   -2.3438 O   0  0  0  0  0  0  0  0  0  0  0  0
   -2.9421   -0.3171   -0.4738 C   0  0  0  0  0  0  0  0  0  0  0  0
   -1.8240   -0.1215   -1.3103 C   0  0  0  0  0  0  0  0  0  0  0  0
    4.1312    0.3757    2.0348 H   0  0  0  0  0  0  0  0  0  0  0  0
    2.7292    1.3408    1.5315 H   0  0  0  0  0  0  0  0  0  0  0  0
    4.0963    2.1310    2.2761 H   0  0  0  0  0  0  0  0  0  0  0  0
    6.2396    2.1219    1.2820 H   0  0  0  0  0  0  0  0  0  0  0  0
    6.2686    2.2089   -0.4733 H   0  0  0  0  0  0  0  0  0  0  0  0
    7.2713    0.1234   -0.3605 H   0  0  0  0  0  0  0  0  0  0  0  0
    6.6171   -0.2229    1.2492 H   0  0  0  0  0  0  0  0  0  0  0  0
    4.8157   -1.3025    0.3802 H   0  0  0  0  0  0  0  0  0  0  0  0
    5.5314   -1.1541   -1.2315 H   0  0  0  0  0  0  0  0  0  0  0  0
    4.4611    0.8872   -1.6957 H   0  0  0  0  0  0  0  0  0  0  0  0
    2.4261   -0.5335    0.0891 H   0  0  0  0  0  0  0  0  0  0  0  0
    2.7878   -0.9019   -1.5799 H   0  0  0  0  0  0  0  0  0  0  0  0
    1.6261    1.7805   -0.5984 H   0  0  0  0  0  0  0  0  0  0  0  0
    2.1660    1.4538   -2.2317 H   0  0  0  0  0  0  0  0  0  0  0  0
    0.1951    0.5919   -2.6363 H   0  0  0  0  0  0  0  0  0  0  0  0
    0.5126    0.5673    1.0375 H   0  0  0  0  0  0  0  0  0  0  0  0
   -1.3984    0.2496    2.4940 H   0  0  0  0  0  0  0  0  0  0  0  0
   -6.7587   -1.0814    2.8097 H   0  0  0  0  0  0  0  0  0  0  0  0
   -8.7649   -1.7467    1.5499 H   0  0  0  0  0  0  0  0  0  0  0  0
   -8.6824   -1.9147   -0.9276 H   0  0  0  0  0  0  0  0  0  0  0  0
   -6.5861   -1.4153   -2.1259 H   0  0  0  0  0  0  0  0  0  0  0  0
   -1.9408   -0.2566   -2.3851 H   0  0  0  0  0  0  0  0  0  0  0  0
  1  2  1  0
  2  3  1  0
  3  4  1  0
  4  5  1  0
  5  6  1  0
  6  7  1  0
  7  8  1  0
  8  9  1  0
  9 10  1  0
 10 11  2  0
 11 12  1  0
 12 13  2  0
 13 14  1  0
 14 15  1  0
 15 16  2  0
 16 17  1  0
 17 18  2  0
 18 19  1  0
 19 20  2  0
 20 21  1  0
 21 22  2  0
 21 23  1  0
 23 24  2  0
  6  2  1  0
 24 10  1  0
 23 13  1  0
 20 15  1  0
  1 25  1  0
  1 26  1  0
  1 27  1  0
  3 28  1  0
  3 29  1  0
  4 30  1  0
  4 31  1  0
  5 32  1  0
  5 33  1  0
  6 34  1  0
  7 35  1  0
  7 36  1  0
  8 37  1  0
  8 38  1  0
  9 39  1  0
 11 40  1  0
 12 41  1  0
 16 42  1  0
 17 43  1  0
 18 44  1  0
 19 45  1  0
 24 46  1  0
M  END
$$$$
