
     RDKit          3D

 55 59  0  0  0  0  0  0  0  0999 V2000
   -1.9882    1.7192   -0.1431 C   0  0  0  0  0  0  0  0  0  0  0  0
   -2.4443    0.4442   -0.8027 C   0  0  0  0  0  0  0  0  0  0  0  0
   -3.7793    0.2207   -1.1426 C   0  0  0  0  0  0  0  0  0  0  0  0
   -4.8635    1.1980   -0.9491 C   0  0  0  0  0  0  0  0  0  0  0  0
   -5.9669    0.8824   -0.1354 C   0  0  0  0  0  0  0  0  0  0  0  0
   -7.0141    1.7910    0.0484 C   0  0  0  0  0  0  0  0  0  0  0  0
   -6.9814    3.0303   -0.5905 C   0  0  0  0  0  0  0  0  0  0  0  0
   -5.9039    3.3506   -1.4122 C   0  0  0  0  0  0  0  0  0  0  0  0
   -5.8681    4.8753   -2.2130 Cl  0  0  0  0  0  0  0  0  0  0  0  0
   -4.8531    2.4469   -1.5952 C   0  0  0  0  0  0  0  0  0  0  0  0
   -4.2075   -0.9418   -1.6952 N   0  0  0  0  0  0  0  0  0  0  0  0
   -3.3304   -1.9078   -1.9926 C   0  0  0  0  0  0  0  0  0  0  0  0
   -3.8202   -3.0729   -2.5701 C   0  0  0  0  0  0  0  0  0  0  0  0
   -2.9804   -4.1255   -2.9400 C   0  0  0  0  0  0  0  0  0  0  0  0
   -1.6130   -4.0116   -2.7368 C   0  0  0  0  0  0  0  0  0  0  0  0
   -1.1002   -2.8516   -2.1536 C   0  0  0  0  0  0  0  0  0  0  0  0
   -1.9517   -1.7842   -1.7544 C   0  0  0  0  0  0  0  0  0  0  0  0
   -1.5333   -0.5788   -1.1312 C   0  0  0  0  0  0  0  0  0  0  0  0
   -0.1033   -0.3757   -0.8141 C   0  0  0  0  0  0  0  0  0  0  0  0
    0.5777    0.5345   -1.2574 O   0  0  0  0  0  0  0  0  0  0  0  0
    0.2728   -1.3282    0.0711 O   0  0  0  0  0  0  0  0  0  0  0  0
    1.6085   -1.2153    0.5585 C   0  0  0  0  0  0  0  0  0  0  0  0
    1.6515   -0.4215    1.8671 C   0  0  0  0  0  0  0  0  0  0  0  0
    0.7716    0.4044    2.1538 O   0  0  0  0  0  0  0  0  0  0  0  0
    2.8053   -0.7463    2.7978 C   0  0  0  0  0  0  0  0  0  0  0  0
    2.6227   -0.1730    4.1382 C   0  0  0  0  0  0  0  0  0  0  0  0
    2.5592    0.2576    5.2138 N   0  0  0  0  0  0  0  0  0  0  0  0
    4.0828   -0.3009    2.1599 C   0  0  0  0  0  0  0  0  0  0  0  0
    4.6649   -0.9137    1.1421 N   0  0  0  0  0  0  0  0  0  0  0  0
    5.8141   -0.2011    0.8866 C   0  0  0  0  0  0  0  0  0  0  0  0
    6.8046   -0.4081   -0.0837 C   0  0  0  0  0  0  0  0  0  0  0  0
    7.8951    0.4758   -0.1323 C   0  0  0  0  0  0  0  0  0  0  0  0
    7.9950    1.5349    0.7674 C   0  0  0  0  0  0  0  0  0  0  0  0
    7.0095    1.7566    1.7392 C   0  0  0  0  0  0  0  0  0  0  0  0
    5.9347    0.8666    1.7635 C   0  0  0  0  0  0  0  0  0  0  0  0
    4.8181    0.8032    2.5535 N   0  0  0  0  0  0  0  0  0  0  0  0
   -2.8044    2.1948    0.4187 H   0  0  0  0  0  0  0  0  0  0  0  0
   -1.1960    1.5343    0.5975 H   0  0  0  0  0  0  0  0  0  0  0  0
   -1.6161    2.4288   -0.9006 H   0  0  0  0  0  0  0  0  0  0  0  0
   -6.0101   -0.0899    0.3582 H   0  0  0  0  0  0  0  0  0  0  0  0
   -7.8539    1.5251    0.6825 H   0  0  0  0  0  0  0  0  0  0  0  0
   -7.7985    3.7345   -0.4500 H   0  0  0  0  0  0  0  0  0  0  0  0
   -4.0277    2.7164   -2.2509 H   0  0  0  0  0  0  0  0  0  0  0  0
   -4.8920   -3.1630   -2.7432 H   0  0  0  0  0  0  0  0  0  0  0  0
   -3.3973   -5.0213   -3.3916 H   0  0  0  0  0  0  0  0  0  0  0  0
   -0.9474   -4.8221   -3.0302 H   0  0  0  0  0  0  0  0  0  0  0  0
   -0.0221   -2.7879   -2.0155 H   0  0  0  0  0  0  0  0  0  0  0  0
    1.9489   -2.2366    0.7564 H   0  0  0  0  0  0  0  0  0  0  0  0
    2.2857   -0.7586   -0.1775 H   0  0  0  0  0  0  0  0  0  0  0  0
    2.8321   -1.8365    2.9080 H   0  0  0  0  0  0  0  0  0  0  0  0
    6.7217   -1.2324   -0.7860 H   0  0  0  0  0  0  0  0  0  0  0  0
    8.6698    0.3296   -0.8804 H   0  0  0  0  0  0  0  0  0  0  0  0
    8.8509    2.2071    0.7066 H   0  0  0  0  0  0  0  0  0  0  0  0
    7.0878    2.5879    2.4320 H   0  0  0  0  0  0  0  0  0  0  0  0
    4.5833    1.4557    3.2900 H   0  0  0  0  0  0  0  0  0  0  0  0
  1  2  1  0
  2  3  2  0
  3  4  1  0
  4  5  2  0
  5  6  1  0
  6  7  2  0
  7  8  1  0
  8  9  1  0
  8 10  2  0
  3 11  1  0
 11 12  2  0
 12 13  1  0
 13 14  2  0
 14 15  1  0
 15 16  2  0
 16 17  1  0
 17 18  2  0
 18 19  1  0
 19 20  2  0
 19 21  1  0
 21 22  1  0
 22 23  1  0
 23 24  2  0
 23 25  1  0
 25 26  1  0
 26 27  3  0
 25 28  1  0
 28 29  2  0
 29 30  1  0
 30 31  2  0
 31 32  1  0
 32 33  2  0
 33 34  1  0
 34 35  2  0
 35 36  1  0
 18  2  1  0
 36 28  1  0
 10  4  1  0
 17 12  1  0
 35 30  1  0
  1 37  1  0
  1 38  1  0
  1 39  1  0
  5 40  1  0
  6 41  1  0
  7 42  1  0
 10 43  1  0
 13 44  1  0
 14 45  1  0
 15 46  1  0
 16 47  1  0
 22 48  1  0
 22 49  1  0
 25 50  1  0
 31 51  1  0
 32 52  1  0
 33 53  1  0
 34 54  1  0
 36 55  1  0
M  END
$$$$
