
     RDKit          3D

 50 53  0  0  0  0  0  0  0  0999 V2000
   -7.9459    2.5466    0.6131 C   0  0  0  0  0  0  0  0  0  0  0  0
   -6.6965    1.7209    0.7046 C   0  0  0  0  0  0  0  0  0  0  0  0
   -6.5614    0.7447    1.6943 C   0  0  0  0  0  0  0  0  0  0  0  0
   -5.4087   -0.0447    1.7576 C   0  0  0  0  0  0  0  0  0  0  0  0
   -4.3746    0.1196    0.8268 C   0  0  0  0  0  0  0  0  0  0  0  0
   -3.2444   -0.7177    0.9678 N   0  0  0  0  0  0  0  0  0  0  0  0
   -2.1144   -0.7410    0.1656 C   0  0  0  0  0  0  0  0  0  0  0  0
   -1.9119   -0.0503   -0.8307 O   0  0  0  0  0  0  0  0  0  0  0  0
   -1.0725   -1.7758    0.6158 C   0  0  0  0  0  0  0  0  0  0  0  0
    0.2771   -1.4277    0.1493 N   0  0  0  0  0  4  0  0  0  0  0  0
    1.3402   -0.9618    0.9219 C   0  0  0  0  0  0  0  0  0  0  0  0
    2.4226   -0.6955    0.0910 C   0  0  0  0  0  0  0  0  0  0  0  0
    3.8207   -0.1317    0.5335 C   0  0  0  0  0  0  0  0  0  0  0  0
    4.0876    0.0858    1.8901 C   0  0  0  0  0  0  0  0  0  0  0  0
    5.3298    0.5856    2.2926 C   0  0  0  0  0  0  0  0  0  0  0  0
    6.3216    0.8674    1.3490 C   0  0  0  0  0  0  0  0  0  0  0  0
    7.6422    1.4361    1.7804 C   0  0  0  0  0  0  0  0  0  0  0  0
    6.0425    0.6681   -0.0063 C   0  0  0  0  0  0  0  0  0  0  0  0
    4.8013    0.1672   -0.4126 C   0  0  0  0  0  0  0  0  0  0  0  0
    1.9519   -1.0414   -1.1623 N   0  0  0  0  0  0  0  0  0  0  0  0
    0.6774   -1.4220   -1.1200 C   0  0  0  0  0  0  0  0  0  0  0  0
    0.1284   -1.7642   -2.4541 C   0  0  0  0  0  0  0  0  0  0  0  0
    1.4078   -1.8684   -3.3074 C   0  0  0  0  0  0  0  0  0  0  0  0
    2.4770   -1.0628   -2.5201 C   0  0  0  0  0  0  0  0  0  0  0  0
   -4.5174    1.0853   -0.1696 C   0  0  0  0  0  0  0  0  0  0  0  0
   -5.6718    1.8753   -0.2333 C   0  0  0  0  0  0  0  0  0  0  0  0
   -8.3666    2.7278    1.6077 H   0  0  0  0  0  0  0  0  0  0  0  0
   -7.7371    3.5242    0.1661 H   0  0  0  0  0  0  0  0  0  0  0  0
   -8.6915    2.0298    0.0013 H   0  0  0  0  0  0  0  0  0  0  0  0
   -7.3543    0.5933    2.4245 H   0  0  0  0  0  0  0  0  0  0  0  0
   -5.3441   -0.7880    2.5478 H   0  0  0  0  0  0  0  0  0  0  0  0
   -3.2958   -1.3623    1.7484 H   0  0  0  0  0  0  0  0  0  0  0  0
   -1.3411   -2.7519    0.1994 H   0  0  0  0  0  0  0  0  0  0  0  0
   -1.0590   -1.8465    1.7085 H   0  0  0  0  0  0  0  0  0  0  0  0
    1.1871   -0.8626    1.9829 H   0  0  0  0  0  0  0  0  0  0  0  0
    3.3557   -0.1236    2.6643 H   0  0  0  0  0  0  0  0  0  0  0  0
    5.5221    0.7544    3.3513 H   0  0  0  0  0  0  0  0  0  0  0  0
    7.5792    2.5272    1.8366 H   0  0  0  0  0  0  0  0  0  0  0  0
    8.4350    1.1631    1.0759 H   0  0  0  0  0  0  0  0  0  0  0  0
    7.9319    1.0459    2.7619 H   0  0  0  0  0  0  0  0  0  0  0  0
    6.7945    0.9059   -0.7573 H   0  0  0  0  0  0  0  0  0  0  0  0
    4.6355    0.0418   -1.4744 H   0  0  0  0  0  0  0  0  0  0  0  0
   -0.4274   -2.6997   -2.3837 H   0  0  0  0  0  0  0  0  0  0  0  0
   -0.5023   -0.9312   -2.7678 H   0  0  0  0  0  0  0  0  0  0  0  0
    1.2711   -1.5075   -4.3301 H   0  0  0  0  0  0  0  0  0  0  0  0
    1.7200   -2.9183   -3.3577 H   0  0  0  0  0  0  0  0  0  0  0  0
    2.5476   -0.0348   -2.8873 H   0  0  0  0  0  0  0  0  0  0  0  0
    3.4484   -1.5605   -2.5585 H   0  0  0  0  0  0  0  0  0  0  0  0
   -3.7553    1.2590   -0.9216 H   0  0  0  0  0  0  0  0  0  0  0  0
   -5.7621    2.6169   -1.0250 H   0  0  0  0  0  0  0  0  0  0  0  0
  1  2  1  0
  2  3  2  0
  3  4  1  0
  4  5  2  0
  5  6  1  0
  6  7  1  0
  7  8  2  0
  7  9  1  0
  9 10  1  0
 10 11  1  0
 11 12  2  0
 12 13  1  0
 13 14  2  0
 14 15  1  0
 15 16  2  0
 16 17  1  0
 16 18  1  0
 18 19  2  0
 12 20  1  0
 20 21  1  0
 21 22  1  0
 22 23  1  0
 23 24  1  0
  5 25  1  0
 25 26  2  0
 26  2  1  0
 21 10  2  0
 19 13  1  0
 24 20  1  0
  1 27  1  0
  1 28  1  0
  1 29  1  0
  3 30  1  0
  4 31  1  0
  6 32  1  0
  9 33  1  0
  9 34  1  0
 11 35  1  0
 14 36  1  0
 15 37  1  0
 17 38  1  0
 17 39  1  0
 17 40  1  0
 18 41  1  0
 19 42  1  0
 22 43  1  0
 22 44  1  0
 23 45  1  0
 23 46  1  0
 24 47  1  0
 24 48  1  0
 25 49  1  0
 26 50  1  0
M  CHG  1  10   1
M  END
$$$$
