
     RDKit          3D

 40 40  0  0  0  0  0  0  0  0999 V2000
   -2.8956    3.6947    1.4553 C   0  0  0  0  0  0  0  0  0  0  0  0
   -1.8038    3.6879    0.3968 C   0  0  0  0  0  0  0  0  0  0  0  0
   -2.0503    2.6818   -0.7321 C   0  0  0  0  0  0  0  0  0  0  0  0
   -2.0996    1.2173   -0.2903 C   0  0  0  0  0  0  0  0  0  0  0  0
   -0.8123    0.8557    0.2977 N   0  0  0  0  0  0  0  0  0  0  0  0
   -0.5813   -0.3958    0.5660 C   0  0  0  0  0  0  0  0  0  0  0  0
    0.6270   -0.8027    1.1170 N   0  0  0  0  0  0  0  0  0  0  0  0
    1.7082    0.0415    1.1883 N   0  0  0  0  0  0  0  0  0  0  0  0
    2.7832   -0.0261    0.2669 C   0  0  0  0  0  0  0  0  0  0  0  0
    3.0166   -1.1480   -0.5396 C   0  0  0  0  0  0  0  0  0  0  0  0
    4.1295   -1.2038   -1.3856 C   0  0  0  0  0  0  0  0  0  0  0  0
    5.0321   -0.1441   -1.4121 C   0  0  0  0  0  0  0  0  0  0  0  0
    6.5371   -0.2197   -2.5525 Br  0  0  0  0  0  0  0  0  0  0  0  0
    4.8364    0.9659   -0.5960 C   0  0  0  0  0  0  0  0  0  0  0  0
    3.7219    1.0164    0.2466 C   0  0  0  0  0  0  0  0  0  0  0  0
   -1.6148   -1.5134    0.2963 C   0  0  0  0  0  0  0  0  0  0  0  0
   -2.7516   -1.5109    0.7264 O   0  0  0  0  0  0  0  0  0  0  0  0
   -1.0085   -2.4743   -0.4393 O   0  0  0  0  0  0  0  0  0  0  0  0
   -1.8348   -3.5941   -0.7865 C   0  0  0  0  0  0  0  0  0  0  0  0
   -1.7766   -4.6430    0.3080 C   0  0  0  0  0  0  0  0  0  0  0  0
   -3.8804    3.8511    1.0040 H   0  0  0  0  0  0  0  0  0  0  0  0
   -2.7189    4.5039    2.1713 H   0  0  0  0  0  0  0  0  0  0  0  0
   -2.9156    2.7561    2.0167 H   0  0  0  0  0  0  0  0  0  0  0  0
   -1.7403    4.6902   -0.0437 H   0  0  0  0  0  0  0  0  0  0  0  0
   -0.8359    3.4953    0.8735 H   0  0  0  0  0  0  0  0  0  0  0  0
   -2.9931    2.9302   -1.2347 H   0  0  0  0  0  0  0  0  0  0  0  0
   -1.2547    2.8023   -1.4783 H   0  0  0  0  0  0  0  0  0  0  0  0
   -2.9116    1.0719    0.4294 H   0  0  0  0  0  0  0  0  0  0  0  0
   -2.3075    0.6048   -1.1759 H   0  0  0  0  0  0  0  0  0  0  0  0
    0.8070   -1.8019    1.1825 H   0  0  0  0  0  0  0  0  0  0  0  0
    1.4119    1.0190    1.3064 H   0  0  0  0  0  0  0  0  0  0  0  0
    2.3318   -1.9899   -0.5320 H   0  0  0  0  0  0  0  0  0  0  0  0
    4.2818   -2.0778   -2.0129 H   0  0  0  0  0  0  0  0  0  0  0  0
    5.5426    1.7916   -0.6006 H   0  0  0  0  0  0  0  0  0  0  0  0
    3.5904    1.8815    0.8924 H   0  0  0  0  0  0  0  0  0  0  0  0
   -1.4361   -4.0102   -1.7174 H   0  0  0  0  0  0  0  0  0  0  0  0
   -2.8663   -3.2826   -0.9884 H   0  0  0  0  0  0  0  0  0  0  0  0
   -2.3568   -5.5272    0.0294 H   0  0  0  0  0  0  0  0  0  0  0  0
   -2.1701   -4.2491    1.2504 H   0  0  0  0  0  0  0  0  0  0  0  0
   -0.7410   -4.9445    0.4966 H   0  0  0  0  0  0  0  0  0  0  0  0
  1  2  1  0
  2  3  1  0
  3  4  1  0
  4  5  1  0
  5  6  2  3
  6  7  1  0
  7  8  1  0
  8  9  1  0
  9 10  2  0
 10 11  1  0
 11 12  2  0
 12 13  1  0
 12 14  1  0
 14 15  2  0
  6 16  1  0
 16 17  2  0
 16 18  1  0
 18 19  1  0
 19 20  1  0
 15  9  1  0
  1 21  1  0
  1 22  1  0
  1 23  1  0
  2 24  1  0
  2 25  1  0
  3 26  1  0
  3 27  1  0
  4 28  1  0
  4 29  1  0
  7 30  1  0
  8 31  1  0
 10 32  1  0
 11 33  1  0
 14 34  1  0
 15 35  1  0
 19 36  1  0
 19 37  1  0
 20 38  1  0
 20 39  1  0
 20 40  1  0
M  END
$$$$
