
     RDKit          3D

 42 43  0  0  0  0  0  0  0  0999 V2000
   -4.8002    0.5886    3.0896 C   0  0  0  0  0  0  0  0  0  0  0  0
   -3.8393   -0.5873    3.2824 C   0  0  0  0  0  0  0  0  0  0  0  0
   -3.2267   -0.5668    4.6850 C   0  0  0  0  0  0  0  0  0  0  0  0
   -2.7686   -0.6149    2.2063 C   0  0  0  0  0  0  0  0  0  0  0  0
   -2.6854   -1.7072    1.3313 C   0  0  0  0  0  0  0  0  0  0  0  0
   -1.7076   -1.7571    0.3302 C   0  0  0  0  0  0  0  0  0  0  0  0
   -0.7956   -0.7130    0.1885 C   0  0  0  0  0  0  0  0  0  0  0  0
    0.2040   -0.6360   -0.7412 O   0  0  0  0  0  0  0  0  0  0  0  0
    0.3227   -1.7285   -1.6509 C   0  0  0  0  0  0  0  0  0  0  0  0
    1.4814   -1.4999   -2.6222 C   0  0  0  0  0  0  0  0  0  0  0  0
    1.6193   -2.1695   -3.6428 O   0  0  0  0  0  0  0  0  0  0  0  0
    2.3613   -0.5116   -2.2338 N   0  0  0  0  0  0  0  0  0  0  0  0
    3.4426   -0.0623   -3.0922 C   0  0  0  0  0  0  0  0  0  0  0  0
    2.9605    0.9476   -4.1310 C   0  0  0  0  0  0  0  0  0  0  0  0
    2.8977    2.2713   -3.3744 C   0  0  0  0  0  0  0  0  0  0  0  0
    3.9095    2.1544   -2.2342 C   0  0  0  0  0  0  0  0  0  0  0  0
    4.4783    0.7384   -2.3095 C   0  0  0  0  0  0  0  0  0  0  0  0
   -0.8720    0.3781    1.0552 C   0  0  0  0  0  0  0  0  0  0  0  0
   -1.8473    0.4294    2.0548 C   0  0  0  0  0  0  0  0  0  0  0  0
   -4.2961    1.5538    3.2093 H   0  0  0  0  0  0  0  0  0  0  0  0
   -5.6131    0.5453    3.8226 H   0  0  0  0  0  0  0  0  0  0  0  0
   -5.2487    0.5678    2.0901 H   0  0  0  0  0  0  0  0  0  0  0  0
   -4.4356   -1.5062    3.2051 H   0  0  0  0  0  0  0  0  0  0  0  0
   -4.0101   -0.6319    5.4479 H   0  0  0  0  0  0  0  0  0  0  0  0
   -2.6578    0.3508    4.8706 H   0  0  0  0  0  0  0  0  0  0  0  0
   -2.5480   -1.4150    4.8282 H   0  0  0  0  0  0  0  0  0  0  0  0
   -3.3856   -2.5356    1.4203 H   0  0  0  0  0  0  0  0  0  0  0  0
   -1.6924   -2.6273   -0.3177 H   0  0  0  0  0  0  0  0  0  0  0  0
   -0.5895   -1.8162   -2.2521 H   0  0  0  0  0  0  0  0  0  0  0  0
    0.5342   -2.6580   -1.1102 H   0  0  0  0  0  0  0  0  0  0  0  0
    2.0362    0.0916   -1.4834 H   0  0  0  0  0  0  0  0  0  0  0  0
    3.8900   -0.9398   -3.5710 H   0  0  0  0  0  0  0  0  0  0  0  0
    3.6992    1.0276   -4.9382 H   0  0  0  0  0  0  0  0  0  0  0  0
    1.9968    0.6896   -4.5808 H   0  0  0  0  0  0  0  0  0  0  0  0
    3.1175    3.1193   -4.0307 H   0  0  0  0  0  0  0  0  0  0  0  0
    1.8933    2.4266   -2.9633 H   0  0  0  0  0  0  0  0  0  0  0  0
    3.4089    2.3180   -1.2730 H   0  0  0  0  0  0  0  0  0  0  0  0
    4.7042    2.9027   -2.3199 H   0  0  0  0  0  0  0  0  0  0  0  0
    5.4232    0.7612   -2.8665 H   0  0  0  0  0  0  0  0  0  0  0  0
    4.6845    0.3274   -1.3160 H   0  0  0  0  0  0  0  0  0  0  0  0
   -0.1674    1.1997    0.9547 H   0  0  0  0  0  0  0  0  0  0  0  0
   -1.8782    1.2949    2.7126 H   0  0  0  0  0  0  0  0  0  0  0  0
  1  2  1  0
  2  3  1  0
  2  4  1  0
  4  5  2  0
  5  6  1  0
  6  7  2  0
  7  8  1  0
  8  9  1  0
  9 10  1  0
 10 11  2  0
 10 12  1  0
 12 13  1  0
 13 14  1  0
 14 15  1  0
 15 16  1  0
 16 17  1  0
  7 18  1  0
 18 19  2  0
 19  4  1  0
 17 13  1  0
  1 20  1  0
  1 21  1  0
  1 22  1  0
  2 23  1  0
  3 24  1  0
  3 25  1  0
  3 26  1  0
  5 27  1  0
  6 28  1  0
  9 29  1  0
  9 30  1  0
 12 31  1  0
 13 32  1  0
 14 33  1  0
 14 34  1  0
 15 35  1  0
 15 36  1  0
 16 37  1  0
 16 38  1  0
 17 39  1  0
 17 40  1  0
 18 41  1  0
 19 42  1  0
M  END
$$$$
