
     RDKit          3D

 36 38  0  0  0  0  0  0  0  0999 V2000
    0.0920    1.9856    3.9102 N   0  0  0  0  0  0  0  0  0  0  0  0
   -0.0585    1.7660    2.7790 C   0  0  0  0  0  0  0  0  0  0  0  0
   -0.2711    1.4781    1.3993 C   0  0  0  0  0  0  0  0  0  0  0  0
    0.5314    2.0394    0.4276 N   0  0  0  0  0  0  0  0  0  0  0  0
    0.0507    1.5301   -0.6897 C   0  0  0  0  0  0  0  0  0  0  0  0
    0.5066    1.7511   -2.0887 C   0  0  0  0  0  0  0  0  0  0  0  0
    1.0890    0.5450   -2.5894 O   0  0  0  0  0  0  0  0  0  0  0  0
    2.4294    0.3213   -2.4188 C   0  0  0  0  0  0  0  0  0  0  0  0
    3.2585    1.0498   -1.5597 C   0  0  0  0  0  0  0  0  0  0  0  0
    4.6165    0.7299   -1.4477 C   0  0  0  0  0  0  0  0  0  0  0  0
    5.1511   -0.3209   -2.1889 C   0  0  0  0  0  0  0  0  0  0  0  0
    6.8211   -0.7052   -2.0440 Cl  0  0  0  0  0  0  0  0  0  0  0  0
    4.3418   -1.0627   -3.0414 C   0  0  0  0  0  0  0  0  0  0  0  0
    2.9863   -0.7432   -3.1514 C   0  0  0  0  0  0  0  0  0  0  0  0
    2.0184   -1.6961   -4.2241 Cl  0  0  0  0  0  0  0  0  0  0  0  0
   -1.0149    0.6913   -0.5175 O   0  0  0  0  0  0  0  0  0  0  0  0
   -1.2240    0.6463    0.8378 C   0  0  0  0  0  0  0  0  0  0  0  0
   -2.2451   -0.1334    1.2760 N   0  0  0  0  0  0  0  0  0  0  0  0
   -2.8966   -1.1025    0.3804 C   0  0  0  0  0  0  0  0  0  0  0  0
   -3.2763   -2.3706    1.1626 C   0  0  0  0  0  0  0  0  0  0  0  0
   -4.1562   -2.1335    2.2705 O   0  0  0  0  0  0  0  0  0  0  0  0
   -4.0314   -0.8196    2.8305 C   0  0  0  0  0  0  0  0  0  0  0  0
   -2.6250   -0.2132    2.6917 C   0  0  0  0  0  0  0  0  0  0  0  0
   -0.3652    1.9698   -2.7155 H   0  0  0  0  0  0  0  0  0  0  0  0
    1.1786    2.6110   -2.1820 H   0  0  0  0  0  0  0  0  0  0  0  0
    2.8864    1.8640   -0.9452 H   0  0  0  0  0  0  0  0  0  0  0  0
    5.2486    1.3034   -0.7731 H   0  0  0  0  0  0  0  0  0  0  0  0
    4.7597   -1.8848   -3.6157 H   0  0  0  0  0  0  0  0  0  0  0  0
   -3.7968   -0.6378   -0.0383 H   0  0  0  0  0  0  0  0  0  0  0  0
   -2.2439   -1.3956   -0.4499 H   0  0  0  0  0  0  0  0  0  0  0  0
   -2.3750   -2.8552    1.5564 H   0  0  0  0  0  0  0  0  0  0  0  0
   -3.7691   -3.0888    0.4996 H   0  0  0  0  0  0  0  0  0  0  0  0
   -4.3109   -0.8841    3.8870 H   0  0  0  0  0  0  0  0  0  0  0  0
   -4.7710   -0.1782    2.3364 H   0  0  0  0  0  0  0  0  0  0  0  0
   -2.6375    0.7820    3.1482 H   0  0  0  0  0  0  0  0  0  0  0  0
   -1.8977   -0.8386    3.2224 H   0  0  0  0  0  0  0  0  0  0  0  0
  1  2  3  0
  2  3  1  0
  3  4  1  0
  4  5  2  0
  5  6  1  0
  6  7  1  0
  7  8  1  0
  8  9  2  0
  9 10  1  0
 10 11  2  0
 11 12  1  0
 11 13  1  0
 13 14  2  0
 14 15  1  0
  5 16  1  0
 16 17  1  0
 17 18  1  0
 18 19  1  0
 19 20  1  0
 20 21  1  0
 21 22  1  0
 22 23  1  0
 17  3  2  0
 23 18  1  0
 14  8  1  0
  6 24  1  0
  6 25  1  0
  9 26  1  0
 10 27  1  0
 13 28  1  0
 19 29  1  0
 19 30  1  0
 20 31  1  0
 20 32  1  0
 22 33  1  0
 22 34  1  0
 23 35  1  0
 23 36  1  0
M  END
$$$$
