
     RDKit          3D

 51 54  0  0  0  0  0  0  0  0999 V2000
    0.9418   -1.8781   -1.9145 O   0  0  0  0  0  0  0  0  0  0  0  0
    1.2845   -1.3643   -0.8481 C   0  0  0  0  0  0  0  0  0  0  0  0
    2.5916   -0.7436   -0.6955 C   0  0  0  0  0  0  0  0  0  0  0  0
    3.2592    0.0296   -1.6282 C   0  0  0  0  0  0  0  0  0  0  0  0
    4.5477    0.4434   -1.1756 C   0  0  0  0  0  0  0  0  0  0  0  0
    4.8243   -0.0658    0.0780 C   0  0  0  0  0  0  0  0  0  0  0  0
    3.5693   -1.0407    0.6825 S   0  0  0  0  0  0  0  0  0  0  0  0
    6.1025    0.1427    0.8302 C   0  0  0  0  0  0  0  0  0  0  0  0
    6.9042    1.3024    0.2176 C   0  0  0  0  0  0  0  0  0  0  0  0
    6.9292    1.2316   -1.3166 C   0  0  0  0  0  0  0  0  0  0  0  0
    5.5150    1.3201   -1.9120 C   0  0  0  0  0  0  0  0  0  0  0  0
    0.4051   -1.3505    0.2473 N   0  0  0  0  0  0  0  0  0  0  0  0
    0.2528   -0.1445    1.0742 C   0  0  0  0  0  0  0  0  0  0  0  0
   -0.8190    0.7793    0.4688 C   0  0  0  0  0  0  0  0  0  0  0  0
   -2.1265    0.0681    0.2855 N   0  0  0  0  0  0  0  0  0  0  0  0
   -3.1275    0.0272    1.6506 S   0  0  0  0  0  6  0  0  0  0  0  0
   -2.7757   -1.1615    2.3978 O   0  0  0  0  0  0  0  0  0  0  0  0
   -3.1371    1.3220    2.2898 O   0  0  0  0  0  0  0  0  0  0  0  0
   -4.7532   -0.2173    0.9588 C   0  0  0  0  0  0  0  0  0  0  0  0
   -5.5380   -1.2390    1.5213 C   0  0  0  0  0  0  0  0  0  0  0  0
   -6.8135   -1.5007    1.0261 C   0  0  0  0  0  0  0  0  0  0  0  0
   -7.3110   -0.7494   -0.0321 C   0  0  0  0  0  0  0  0  0  0  0  0
   -6.5342    0.2661   -0.5936 C   0  0  0  0  0  0  0  0  0  0  0  0
   -5.2427    0.5619   -0.1067 C   0  0  0  0  0  0  0  0  0  0  0  0
   -4.4581    1.6537   -0.7989 C   0  0  0  0  0  0  0  0  0  0  0  0
   -3.6341    1.1628   -1.7658 F   0  0  0  0  0  0  0  0  0  0  0  0
   -5.2756    2.5341   -1.4535 F   0  0  0  0  0  0  0  0  0  0  0  0
   -3.6968    2.4298    0.0096 F   0  0  0  0  0  0  0  0  0  0  0  0
   -1.9600   -1.2154   -0.4830 C   0  0  0  0  0  0  0  0  0  0  0  0
   -0.8446   -2.0987    0.1045 C   0  0  0  0  0  0  0  0  0  0  0  0
    2.8304    0.2890   -2.5897 H   0  0  0  0  0  0  0  0  0  0  0  0
    6.6989   -0.7766    0.7783 H   0  0  0  0  0  0  0  0  0  0  0  0
    5.9077    0.3532    1.8879 H   0  0  0  0  0  0  0  0  0  0  0  0
    6.4591    2.2580    0.5238 H   0  0  0  0  0  0  0  0  0  0  0  0
    7.9271    1.2862    0.6103 H   0  0  0  0  0  0  0  0  0  0  0  0
    7.5462    2.0428   -1.7193 H   0  0  0  0  0  0  0  0  0  0  0  0
    7.3989    0.2883   -1.6239 H   0  0  0  0  0  0  0  0  0  0  0  0
    5.1600    2.3563   -1.8512 H   0  0  0  0  0  0  0  0  0  0  0  0
    5.5462    1.0461   -2.9726 H   0  0  0  0  0  0  0  0  0  0  0  0
   -0.0321   -0.4670    2.0816 H   0  0  0  0  0  0  0  0  0  0  0  0
    1.1856    0.4160    1.1525 H   0  0  0  0  0  0  0  0  0  0  0  0
   -0.9453    1.6749    1.0849 H   0  0  0  0  0  0  0  0  0  0  0  0
   -0.4968    1.1312   -0.5195 H   0  0  0  0  0  0  0  0  0  0  0  0
   -5.1644   -1.8359    2.3523 H   0  0  0  0  0  0  0  0  0  0  0  0
   -7.4181   -2.2902    1.4668 H   0  0  0  0  0  0  0  0  0  0  0  0
   -8.3059   -0.9523   -0.4230 H   0  0  0  0  0  0  0  0  0  0  0  0
   -6.9481    0.8362   -1.4266 H   0  0  0  0  0  0  0  0  0  0  0  0
   -2.9034   -1.7690   -0.5174 H   0  0  0  0  0  0  0  0  0  0  0  0
   -1.7210   -0.9442   -1.5187 H   0  0  0  0  0  0  0  0  0  0  0  0
   -1.1133   -2.4705    1.0978 H   0  0  0  0  0  0  0  0  0  0  0  0
   -0.6914   -2.9780   -0.5309 H   0  0  0  0  0  0  0  0  0  0  0  0
  1  2  2  0
  2  3  1  0
  3  4  2  0
  4  5  1  0
  5  6  2  0
  6  7  1  0
  6  8  1  0
  8  9  1  0
  9 10  1  0
 10 11  1  0
  2 12  1  0
 12 13  1  0
 13 14  1  0
 14 15  1  0
 15 16  1  0
 16 17  2  0
 16 18  2  0
 16 19  1  0
 19 20  2  0
 20 21  1  0
 21 22  2  0
 22 23  1  0
 23 24  2  0
 24 25  1  0
 25 26  1  0
 25 27  1  0
 25 28  1  0
 15 29  1  0
 29 30  1  0
  7  3  1  0
 30 12  1  0
 11  5  1  0
 24 19  1  0
  4 31  1  0
  8 32  1  0
  8 33  1  0
  9 34  1  0
  9 35  1  0
 10 36  1  0
 10 37  1  0
 11 38  1  0
 11 39  1  0
 13 40  1  0
 13 41  1  0
 14 42  1  0
 14 43  1  0
 20 44  1  0
 21 45  1  0
 22 46  1  0
 23 47  1  0
 29 48  1  0
 29 49  1  0
 30 50  1  0
 30 51  1  0
M  END
$$$$
