
     RDKit          3D

 48 51  0  0  0  0  0  0  0  0999 V2000
    8.9625    1.1078   -0.8674 C   0  0  0  0  0  0  0  0  0  0  0  0
    8.2432    0.4384    0.1603 O   0  0  0  0  0  0  0  0  0  0  0  0
    6.8811    0.4168    0.0483 C   0  0  0  0  0  0  0  0  0  0  0  0
    6.1314    0.9828   -0.9798 C   0  0  0  0  0  0  0  0  0  0  0  0
    4.7313    0.8887   -0.9689 C   0  0  0  0  0  0  0  0  0  0  0  0
    4.0445    0.2313    0.0674 C   0  0  0  0  0  0  0  0  0  0  0  0
    2.5710    0.1296    0.0963 C   0  0  0  0  0  0  0  0  0  0  0  0
    1.7319    1.1210   -0.4012 C   0  0  0  0  0  0  0  0  0  0  0  0
    0.3500    0.9435   -0.3278 C   0  0  0  0  0  0  0  0  0  0  0  0
   -0.1898   -0.2167    0.2430 C   0  0  0  0  0  0  0  0  0  0  0  0
   -1.6379   -0.3673    0.3113 C   0  0  0  0  0  0  0  0  0  0  0  0
   -2.2951   -1.2026    1.1293 N   0  0  0  0  0  0  0  0  0  0  0  0
   -3.6366   -0.9660    0.8459 O   0  0  0  0  0  0  0  0  0  0  0  0
   -3.6771    0.0089   -0.1070 C   0  0  0  0  0  0  0  0  0  0  0  0
   -4.9820    0.4479   -0.6081 C   0  0  0  0  0  0  0  0  0  0  0  0
   -4.9883    1.2869   -1.7421 C   0  0  0  0  0  0  0  0  0  0  0  0
   -6.1799    1.7544   -2.2954 C   0  0  0  0  0  0  0  0  0  0  0  0
   -7.3908    1.3922   -1.7216 C   0  0  0  0  0  0  0  0  0  0  0  0
   -7.4115    0.5668   -0.5950 C   0  0  0  0  0  0  0  0  0  0  0  0
   -6.2189    0.0897   -0.0283 C   0  0  0  0  0  0  0  0  0  0  0  0
   -6.1834   -0.7058    1.0881 O   0  0  0  0  0  0  0  0  0  0  0  0
   -7.4156   -1.1319    1.6536 C   0  0  0  0  0  0  0  0  0  0  0  0
   -2.4753    0.4100   -0.4687 N   0  0  0  0  0  0  0  0  0  0  0  0
    0.7210   -1.1611    0.7140 C   0  0  0  0  0  0  0  0  0  0  0  0
    0.2431   -2.3417    1.2440 O   0  0  0  0  0  0  0  0  0  0  0  0
    1.2578   -3.2239    1.7097 C   0  0  0  0  0  0  0  0  0  0  0  0
    2.0701   -1.0003    0.6531 N   0  0  0  0  0  0  0  0  0  0  0  0
    4.8232   -0.3418    1.0873 C   0  0  0  0  0  0  0  0  0  0  0  0
    6.2192   -0.2477    1.0794 C   0  0  0  0  0  0  0  0  0  0  0  0
    8.8080    0.6230   -1.8371 H   0  0  0  0  0  0  0  0  0  0  0  0
    8.6969    2.1693   -0.9085 H   0  0  0  0  0  0  0  0  0  0  0  0
   10.0281    1.0408   -0.6279 H   0  0  0  0  0  0  0  0  0  0  0  0
    6.5997    1.5002   -1.8102 H   0  0  0  0  0  0  0  0  0  0  0  0
    4.1849    1.3255   -1.8021 H   0  0  0  0  0  0  0  0  0  0  0  0
    2.1295    2.0368   -0.8265 H   0  0  0  0  0  0  0  0  0  0  0  0
   -0.3041    1.7237   -0.7125 H   0  0  0  0  0  0  0  0  0  0  0  0
   -4.0469    1.5803   -2.2059 H   0  0  0  0  0  0  0  0  0  0  0  0
   -6.1587    2.3989   -3.1705 H   0  0  0  0  0  0  0  0  0  0  0  0
   -8.3240    1.7538   -2.1469 H   0  0  0  0  0  0  0  0  0  0  0  0
   -8.3820    0.3175   -0.1775 H   0  0  0  0  0  0  0  0  0  0  0  0
   -7.9981   -1.7196    0.9364 H   0  0  0  0  0  0  0  0  0  0  0  0
   -7.9910   -0.2801    2.0308 H   0  0  0  0  0  0  0  0  0  0  0  0
   -7.1854   -1.7801    2.5048 H   0  0  0  0  0  0  0  0  0  0  0  0
    0.7652   -4.1128    2.1163 H   0  0  0  0  0  0  0  0  0  0  0  0
    1.9070   -3.5508    0.8899 H   0  0  0  0  0  0  0  0  0  0  0  0
    1.8409   -2.7685    2.5180 H   0  0  0  0  0  0  0  0  0  0  0  0
    4.3391   -0.8689    1.9082 H   0  0  0  0  0  0  0  0  0  0  0  0
    6.7913   -0.6991    1.8861 H   0  0  0  0  0  0  0  0  0  0  0  0
  1  2  1  0
  2  3  1  0
  3  4  2  0
  4  5  1  0
  5  6  2  0
  6  7  1  0
  7  8  2  0
  8  9  1  0
  9 10  2  0
 10 11  1  0
 11 12  2  0
 12 13  1  0
 13 14  1  0
 14 15  1  0
 15 16  2  0
 16 17  1  0
 17 18  2  0
 18 19  1  0
 19 20  2  0
 20 21  1  0
 21 22  1  0
 14 23  2  0
 10 24  1  0
 24 25  1  0
 25 26  1  0
 24 27  2  0
  6 28  1  0
 28 29  2  0
 29  3  1  0
 27  7  1  0
 23 11  1  0
 20 15  1  0
  1 30  1  0
  1 31  1  0
  1 32  1  0
  4 33  1  0
  5 34  1  0
  8 35  1  0
  9 36  1  0
 16 37  1  0
 17 38  1  0
 18 39  1  0
 19 40  1  0
 22 41  1  0
 22 42  1  0
 22 43  1  0
 26 44  1  0
 26 45  1  0
 26 46  1  0
 28 47  1  0
 29 48  1  0
M  END
$$$$
