
     RDKit          3D

 43 45  0  0  0  0  0  0  0  0999 V2000
   -2.3244   -1.4941    1.4317 N   0  0  0  0  0  0  0  0  0  0  0  0
   -1.0302   -1.4671    1.0808 C   0  0  0  0  0  0  0  0  0  0  0  0
   -0.3093   -2.5503    1.0507 N   0  0  0  0  0  0  0  0  0  0  0  0
    1.0235   -2.0962    0.5705 C   0  0  0  0  0  0  0  0  0  0  0  0
    0.9829   -0.5543    0.5174 C   0  0  0  0  0  0  0  0  0  0  0  0
    1.4823    0.0127   -0.8166 C   0  0  0  0  0  0  0  0  0  0  0  0
    2.9682   -0.1724   -1.0176 C   0  0  0  0  0  0  0  0  0  0  0  0
    3.4520   -1.1460   -1.9036 C   0  0  0  0  0  0  0  0  0  0  0  0
    4.8259   -1.3266   -2.0791 C   0  0  0  0  0  0  0  0  0  0  0  0
    5.7169   -0.5303   -1.3680 C   0  0  0  0  0  0  0  0  0  0  0  0
    7.0655   -0.6726   -1.5080 O   0  0  0  0  0  0  0  0  0  0  0  0
    5.2567    0.4411   -0.4882 C   0  0  0  0  0  0  0  0  0  0  0  0
    3.8842    0.6213   -0.3121 C   0  0  0  0  0  0  0  0  0  0  0  0
   -0.4455   -0.2943    0.7186 N   0  0  0  0  0  0  0  0  0  0  0  0
   -0.8691    1.0497    1.0908 C   0  0  0  0  0  0  0  0  0  0  0  0
   -1.6445    1.7439   -0.0375 C   0  0  0  0  0  0  0  0  0  0  0  0
   -3.1183    1.4199   -0.0690 C   0  0  0  0  0  0  0  0  0  0  0  0
   -3.6076    0.4052   -0.9044 C   0  0  0  0  0  0  0  0  0  0  0  0
   -4.9704    0.0963   -0.9288 C   0  0  0  0  0  0  0  0  0  0  0  0
   -5.8583    0.8004   -0.1185 C   0  0  0  0  0  0  0  0  0  0  0  0
   -5.3749    1.8048    0.7105 C   0  0  0  0  0  0  0  0  0  0  0  0
   -6.2258    2.4801    1.4943 F   0  0  0  0  0  0  0  0  0  0  0  0
   -4.0195    2.1196    0.7446 C   0  0  0  0  0  0  0  0  0  0  0  0
   -2.6963   -0.6929    1.9159 H   0  0  0  0  0  0  0  0  0  0  0  0
   -2.5883   -2.3773    1.8512 H   0  0  0  0  0  0  0  0  0  0  0  0
    1.8019   -2.4404    1.2598 H   0  0  0  0  0  0  0  0  0  0  0  0
    1.2096   -2.5491   -0.4089 H   0  0  0  0  0  0  0  0  0  0  0  0
    1.5552   -0.1505    1.3626 H   0  0  0  0  0  0  0  0  0  0  0  0
    0.9280   -0.4337   -1.6529 H   0  0  0  0  0  0  0  0  0  0  0  0
    1.2688    1.0879   -0.8734 H   0  0  0  0  0  0  0  0  0  0  0  0
    2.7608   -1.7734   -2.4633 H   0  0  0  0  0  0  0  0  0  0  0  0
    5.1770   -2.0873   -2.7691 H   0  0  0  0  0  0  0  0  0  0  0  0
    7.2365   -1.3842   -2.1464 H   0  0  0  0  0  0  0  0  0  0  0  0
    5.9652    1.0569    0.0585 H   0  0  0  0  0  0  0  0  0  0  0  0
    3.5379    1.3878    0.3772 H   0  0  0  0  0  0  0  0  0  0  0  0
    0.0226    1.6556    1.2974 H   0  0  0  0  0  0  0  0  0  0  0  0
   -1.4384    1.0424    2.0276 H   0  0  0  0  0  0  0  0  0  0  0  0
   -1.1967    1.5210   -1.0140 H   0  0  0  0  0  0  0  0  0  0  0  0
   -1.5468    2.8304    0.0887 H   0  0  0  0  0  0  0  0  0  0  0  0
   -2.9218   -0.1688   -1.5262 H   0  0  0  0  0  0  0  0  0  0  0  0
   -5.3332   -0.6995   -1.5744 H   0  0  0  0  0  0  0  0  0  0  0  0
   -6.9186    0.5706   -0.1258 H   0  0  0  0  0  0  0  0  0  0  0  0
   -3.6837    2.9136    1.4047 H   0  0  0  0  0  0  0  0  0  0  0  0
  1  2  1  0
  2  3  2  0
  3  4  1  0
  4  5  1  0
  5  6  1  0
  6  7  1  0
  7  8  2  0
  8  9  1  0
  9 10  2  0
 10 11  1  0
 10 12  1  0
 12 13  2  0
  5 14  1  0
 14 15  1  0
 15 16  1  0
 16 17  1  0
 17 18  2  0
 18 19  1  0
 19 20  2  0
 20 21  1  0
 21 22  1  0
 21 23  2  0
 14  2  1  0
 23 17  1  0
 13  7  1  0
  1 24  1  0
  1 25  1  0
  4 26  1  0
  4 27  1  0
  5 28  1  0
  6 29  1  0
  6 30  1  0
  8 31  1  0
  9 32  1  0
 11 33  1  0
 12 34  1  0
 13 35  1  0
 15 36  1  0
 15 37  1  0
 16 38  1  0
 16 39  1  0
 18 40  1  0
 19 41  1  0
 20 42  1  0
 23 43  1  0
M  END
$$$$
