
     RDKit          3D

 47 50  0  0  0  0  0  0  0  0999 V2000
   -0.8085    4.7103   -1.3837 N   0  0  0  0  0  0  0  0  0  0  0  0
    0.1653    3.7422   -1.1810 C   0  0  0  0  0  0  0  0  0  0  0  0
    1.4615    4.0996   -1.3208 N   0  0  0  0  0  0  0  0  0  0  0  0
    2.4083    3.1568   -1.1291 C   0  0  0  0  0  0  0  0  0  0  0  0
    2.2468    1.8649   -0.7761 N   0  0  0  0  0  0  0  0  0  0  0  0
    0.9419    1.5632   -0.6436 C   0  0  0  0  0  0  0  0  0  0  0  0
   -0.1307    2.4196   -0.8134 C   0  0  0  0  0  0  0  0  0  0  0  0
   -1.3177    1.7755   -0.5561 N   0  0  0  0  0  0  0  0  0  0  0  0
   -0.9877    0.5413   -0.2396 C   0  0  0  0  0  0  0  0  0  0  0  0
   -1.8350   -0.4787    0.0709 N   0  0  0  0  0  0  0  0  0  0  0  0
   -3.1058   -0.5100   -0.6789 C   0  0  0  0  0  0  0  0  0  0  0  0
   -4.1730    0.3830   -0.0444 C   0  0  0  0  0  0  0  0  0  0  0  0
   -4.3546    0.0692    1.4378 C   0  0  0  0  0  0  0  0  0  0  0  0
   -3.0158    0.1087    2.1688 C   0  0  0  0  0  0  0  0  0  0  0  0
   -1.9957   -0.8083    1.4956 C   0  0  0  0  0  0  0  0  0  0  0  0
    0.3799    0.3558   -0.3123 N   0  0  0  0  0  0  0  0  0  0  0  0
    1.0984   -0.8887   -0.1298 C   0  0  0  0  0  0  0  0  0  0  0  0
    1.7727   -1.2287   -1.3608 O   0  0  0  0  0  0  0  0  0  0  0  0
    3.1277   -1.6126   -1.0371 C   0  0  0  0  0  0  0  0  0  0  0  0
    3.5629   -2.7945   -1.9088 C   0  0  0  0  0  0  0  0  0  0  0  0
    2.7804   -3.9678   -1.6949 O   0  0  0  0  0  0  0  0  0  0  0  0
    3.1585   -1.8636    0.4711 C   0  0  0  0  0  0  0  0  0  0  0  0
    2.6982   -3.1779    0.8210 O   0  0  0  0  0  0  0  0  0  0  0  0
    2.1627   -0.8342    0.9757 C   0  0  0  0  0  0  0  0  0  0  0  0
    1.6884   -1.2009    2.2746 O   0  0  0  0  0  0  0  0  0  0  0  0
   -1.7013    4.4878   -0.9588 H   0  0  0  0  0  0  0  0  0  0  0  0
   -0.4506    5.6502   -1.2840 H   0  0  0  0  0  0  0  0  0  0  0  0
    3.4338    3.4853   -1.2734 H   0  0  0  0  0  0  0  0  0  0  0  0
   -2.9482   -0.2253   -1.7271 H   0  0  0  0  0  0  0  0  0  0  0  0
   -3.4662   -1.5464   -0.6966 H   0  0  0  0  0  0  0  0  0  0  0  0
   -3.8999    1.4384   -0.1577 H   0  0  0  0  0  0  0  0  0  0  0  0
   -5.1253    0.2466   -0.5694 H   0  0  0  0  0  0  0  0  0  0  0  0
   -4.8033   -0.9255    1.5489 H   0  0  0  0  0  0  0  0  0  0  0  0
   -5.0484    0.7871    1.8890 H   0  0  0  0  0  0  0  0  0  0  0  0
   -2.6395    1.1390    2.1845 H   0  0  0  0  0  0  0  0  0  0  0  0
   -3.1558   -0.1976    3.2115 H   0  0  0  0  0  0  0  0  0  0  0  0
   -1.0398   -0.7446    2.0266 H   0  0  0  0  0  0  0  0  0  0  0  0
   -2.3254   -1.8515    1.5785 H   0  0  0  0  0  0  0  0  0  0  0  0
    0.3773   -1.6873    0.0717 H   0  0  0  0  0  0  0  0  0  0  0  0
    3.7549   -0.7444   -1.2743 H   0  0  0  0  0  0  0  0  0  0  0  0
    3.4625   -2.5360   -2.9675 H   0  0  0  0  0  0  0  0  0  0  0  0
    4.6093   -3.0477   -1.7118 H   0  0  0  0  0  0  0  0  0  0  0  0
    2.6300   -4.0286   -0.7271 H   0  0  0  0  0  0  0  0  0  0  0  0
    4.1570   -1.7435    0.9013 H   0  0  0  0  0  0  0  0  0  0  0  0
    2.3712   -3.0944    1.7429 H   0  0  0  0  0  0  0  0  0  0  0  0
    2.6572    0.1389    1.0518 H   0  0  0  0  0  0  0  0  0  0  0  0
    1.2214   -0.4244    2.6357 H   0  0  0  0  0  0  0  0  0  0  0  0
  1  2  1  0
  2  3  2  0
  3  4  1  0
  4  5  2  0
  5  6  1  0
  6  7  2  0
  7  8  1  0
  8  9  2  0
  9 10  1  0
 10 11  1  0
 11 12  1  0
 12 13  1  0
 13 14  1  0
 14 15  1  0
  9 16  1  0
 16 17  1  0
 17 18  1  0
 18 19  1  0
 19 20  1  0
 20 21  1  0
 19 22  1  0
 22 23  1  0
 22 24  1  0
 24 25  1  0
  7  2  1  0
 15 10  1  0
 24 17  1  0
 16  6  1  0
  1 26  1  0
  1 27  1  0
  4 28  1  0
 11 29  1  0
 11 30  1  0
 12 31  1  0
 12 32  1  0
 13 33  1  0
 13 34  1  0
 14 35  1  0
 14 36  1  0
 15 37  1  0
 15 38  1  0
 17 39  1  0
 19 40  1  0
 20 41  1  0
 20 42  1  0
 21 43  1  0
 22 44  1  0
 23 45  1  0
 24 46  1  0
 25 47  1  0
M  END
$$$$
