
     RDKit          3D

 62 66  0  0  0  0  0  0  0  0999 V2000
   -5.9487    3.2187    1.1869 C   0  0  0  0  0  0  0  0  0  0  0  0
   -6.1190    1.8834    0.5034 C   0  0  0  0  0  0  0  0  0  0  0  0
   -7.2675    1.6060   -0.1435 C   0  0  0  0  0  0  0  0  0  0  0  0
   -7.4845    0.3222   -0.8197 C   0  0  0  0  0  0  0  0  0  0  0  0
   -8.7058    0.0769   -1.4612 C   0  0  0  0  0  0  0  0  0  0  0  0
   -8.9357   -1.1445   -2.0922 C   0  0  0  0  0  0  0  0  0  0  0  0
   -7.9434   -2.1202   -2.0932 C   0  0  0  0  0  0  0  0  0  0  0  0
   -6.7138   -1.8830   -1.4660 C   0  0  0  0  0  0  0  0  0  0  0  0
   -6.4780   -0.6635   -0.8233 C   0  0  0  0  0  0  0  0  0  0  0  0
   -5.2734   -0.3322   -0.1392 N   0  0  0  0  0  0  0  0  0  0  0  0
   -4.0829   -1.0012    0.1006 C   0  0  0  0  0  0  0  0  0  0  0  0
   -3.6427   -2.5980   -0.3994 S   0  0  0  0  0  0  0  0  0  0  0  0
   -2.7306   -3.1665    1.0641 C   0  0  0  0  0  0  0  0  0  0  0  0
   -1.2369   -2.9335    0.9074 C   0  0  0  0  0  0  0  0  0  0  0  0
   -0.5016   -3.8418    0.5248 O   0  0  0  0  0  0  0  0  0  0  0  0
   -0.8404   -1.6494    1.2410 N   0  0  0  0  0  0  0  0  0  0  0  0
    0.4743   -1.1560    1.3322 C   0  0  0  0  0  0  0  0  0  0  0  0
    1.6085   -1.9739    1.3123 C   0  0  0  0  0  0  0  0  0  0  0  0
    2.8852   -1.4209    1.4471 C   0  0  0  0  0  0  0  0  0  0  0  0
    3.0283   -0.0390    1.5905 C   0  0  0  0  0  0  0  0  0  0  0  0
    4.6418    0.6726    1.8013 S   0  0  0  0  0  6  0  0  0  0  0  0
    5.5894   -0.4020    2.0093 O   0  0  0  0  0  0  0  0  0  0  0  0
    4.5085    1.7396    2.7713 O   0  0  0  0  0  0  0  0  0  0  0  0
    4.9525    1.3756    0.2812 N   0  0  0  0  0  0  0  0  0  0  0  0
    5.0081    0.4896   -0.9076 C   0  0  0  0  0  0  0  0  0  0  0  0
    6.3792   -0.1567   -1.0828 C   0  0  0  0  0  0  0  0  0  0  0  0
    7.5034    0.8874   -1.0906 C   0  0  0  0  0  0  0  0  0  0  0  0
    8.8719    0.2125   -1.1630 C   0  0  0  0  0  0  0  0  0  0  0  0
    7.4023    1.7860    0.1475 C   0  0  0  0  0  0  0  0  0  0  0  0
    6.0167    2.4114    0.2617 C   0  0  0  0  0  0  0  0  0  0  0  0
    1.9054    0.7908    1.6199 C   0  0  0  0  0  0  0  0  0  0  0  0
    0.6313    0.2289    1.4929 C   0  0  0  0  0  0  0  0  0  0  0  0
   -3.2845   -0.2645    0.8402 N   0  0  0  0  0  0  0  0  0  0  0  0
   -3.9108    0.9184    1.0923 N   0  0  0  0  0  0  0  0  0  0  0  0
   -5.0940    0.8881    0.5136 C   0  0  0  0  0  0  0  0  0  0  0  0
   -5.1223    3.7744    0.7296 H   0  0  0  0  0  0  0  0  0  0  0  0
   -6.8495    3.8389    1.1170 H   0  0  0  0  0  0  0  0  0  0  0  0
   -5.7332    3.0762    2.2496 H   0  0  0  0  0  0  0  0  0  0  0  0
   -8.0770    2.3304   -0.1799 H   0  0  0  0  0  0  0  0  0  0  0  0
   -9.4936    0.8267   -1.4710 H   0  0  0  0  0  0  0  0  0  0  0  0
   -9.8862   -1.3325   -2.5858 H   0  0  0  0  0  0  0  0  0  0  0  0
   -8.1260   -3.0747   -2.5841 H   0  0  0  0  0  0  0  0  0  0  0  0
   -5.9928   -2.6856   -1.5058 H   0  0  0  0  0  0  0  0  0  0  0  0
   -3.0989   -2.7012    1.9861 H   0  0  0  0  0  0  0  0  0  0  0  0
   -2.8919   -4.2433    1.1725 H   0  0  0  0  0  0  0  0  0  0  0  0
   -1.5841   -0.9541    1.3213 H   0  0  0  0  0  0  0  0  0  0  0  0
    1.5292   -3.0533    1.2214 H   0  0  0  0  0  0  0  0  0  0  0  0
    3.7538   -2.0759    1.4474 H   0  0  0  0  0  0  0  0  0  0  0  0
    4.2304   -0.2781   -0.8663 H   0  0  0  0  0  0  0  0  0  0  0  0
    4.7724    1.1017   -1.7884 H   0  0  0  0  0  0  0  0  0  0  0  0
    6.3927   -0.7170   -2.0269 H   0  0  0  0  0  0  0  0  0  0  0  0
    6.5561   -0.8883   -0.2860 H   0  0  0  0  0  0  0  0  0  0  0  0
    7.3875    1.5126   -1.9854 H   0  0  0  0  0  0  0  0  0  0  0  0
    8.9482   -0.4215   -2.0525 H   0  0  0  0  0  0  0  0  0  0  0  0
    9.6708    0.9592   -1.2144 H   0  0  0  0  0  0  0  0  0  0  0  0
    9.0534   -0.4197   -0.2865 H   0  0  0  0  0  0  0  0  0  0  0  0
    7.6252    1.2044    1.0515 H   0  0  0  0  0  0  0  0  0  0  0  0
    8.1551    2.5828    0.0938 H   0  0  0  0  0  0  0  0  0  0  0  0
    5.8282    3.0774   -0.5907 H   0  0  0  0  0  0  0  0  0  0  0  0
    5.9614    3.0463    1.1511 H   0  0  0  0  0  0  0  0  0  0  0  0
    2.0142    1.8665    1.7416 H   0  0  0  0  0  0  0  0  0  0  0  0
   -0.2359    0.8866    1.5110 H   0  0  0  0  0  0  0  0  0  0  0  0
  1  2  1  0
  2  3  2  0
  3  4  1  0
  4  5  2  0
  5  6  1  0
  6  7  2  0
  7  8  1  0
  8  9  2  0
  9 10  1  0
 10 11  1  0
 11 12  1  0
 12 13  1  0
 13 14  1  0
 14 15  2  0
 14 16  1  0
 16 17  1  0
 17 18  2  0
 18 19  1  0
 19 20  2  0
 20 21  1  0
 21 22  2  0
 21 23  2  0
 21 24  1  0
 24 25  1  0
 25 26  1  0
 26 27  1  0
 27 28  1  0
 27 29  1  0
 29 30  1  0
 20 31  1  0
 31 32  2  0
 11 33  2  0
 33 34  1  0
 34 35  2  0
 35  2  1  0
  9  4  1  0
 35 10  1  0
 32 17  1  0
 30 24  1  0
  1 36  1  0
  1 37  1  0
  1 38  1  0
  3 39  1  0
  5 40  1  0
  6 41  1  0
  7 42  1  0
  8 43  1  0
 13 44  1  0
 13 45  1  0
 16 46  1  0
 18 47  1  0
 19 48  1  0
 25 49  1  0
 25 50  1  0
 26 51  1  0
 26 52  1  0
 27 53  1  0
 28 54  1  0
 28 55  1  0
 28 56  1  0
 29 57  1  0
 29 58  1  0
 30 59  1  0
 30 60  1  0
 31 61  1  0
 32 62  1  0
M  END
$$$$
