
     RDKit          3D

 58 60  0  0  0  0  0  0  0  0999 V2000
   -6.9074    1.3686    0.5362 C   0  0  0  0  0  0  0  0  0  0  0  0
   -6.9267   -0.0487    0.4358 O   0  0  0  0  0  0  0  0  0  0  0  0
   -5.9170   -0.6621   -0.2606 C   0  0  0  0  0  0  0  0  0  0  0  0
   -4.8532    0.0154   -0.8741 C   0  0  0  0  0  0  0  0  0  0  0  0
   -3.8602   -0.6975   -1.5533 C   0  0  0  0  0  0  0  0  0  0  0  0
   -2.7691   -0.1438   -2.1772 O   0  0  0  0  0  0  0  0  0  0  0  0
   -2.5422    1.2493   -1.9848 C   0  0  0  0  0  0  0  0  0  0  0  0
   -3.9407   -2.1003   -1.6262 C   0  0  0  0  0  0  0  0  0  0  0  0
   -2.8849   -2.8163   -2.2777 N   0  0  0  0  0  0  0  0  0  0  0  0
   -1.8446   -3.7469   -1.3226 S   0  0  0  0  0  6  0  0  0  0  0  0
   -0.6617   -3.9986   -2.1166 O   0  0  0  0  0  0  0  0  0  0  0  0
   -2.5968   -4.8272   -0.7223 O   0  0  0  0  0  0  0  0  0  0  0  0
   -1.3692   -2.6268   -0.0220 C   0  0  0  0  0  0  0  0  0  0  0  0
   -1.9037   -2.7755    1.2611 C   0  0  0  0  0  0  0  0  0  0  0  0
   -1.5549   -1.8656    2.2629 C   0  0  0  0  0  0  0  0  0  0  0  0
   -0.6684   -0.8182    1.9885 C   0  0  0  0  0  0  0  0  0  0  0  0
   -0.3549    0.3216    3.2464 Cl  0  0  0  0  0  0  0  0  0  0  0  0
   -0.1131   -0.7009    0.7092 C   0  0  0  0  0  0  0  0  0  0  0  0
    0.8003    0.3917    0.3499 C   0  0  0  0  0  0  0  0  0  0  0  0
    0.5570    1.2065   -0.5238 O   0  0  0  0  0  0  0  0  0  0  0  0
    1.9299    0.2705    1.0751 O   0  0  0  0  0  0  0  0  0  0  0  0
    2.9571    1.2402    0.8078 C   0  0  0  0  0  0  0  0  0  0  0  0
    2.7164    2.4660    1.6813 C   0  0  0  0  0  0  0  0  0  0  0  0
    4.3219    0.6203    1.1561 C   0  0  0  0  0  0  0  0  0  0  0  0
    4.4239   -0.3012    1.9696 O   0  0  0  0  0  0  0  0  0  0  0  0
    5.4363    1.1477    0.5324 N   0  0  0  0  0  0  0  0  0  0  0  0
    5.4753    2.1484   -0.5232 C   0  0  0  0  0  0  0  0  0  0  0  0
    6.9545    2.4684   -0.6846 C   0  0  0  0  0  0  0  0  0  0  0  0
    7.6269    1.1476   -0.3339 C   0  0  0  0  0  0  0  0  0  0  0  0
    6.7626    0.6148    0.8002 C   0  0  0  0  0  0  0  0  0  0  0  0
   -0.4605   -1.6036   -0.3034 C   0  0  0  0  0  0  0  0  0  0  0  0
   -4.9927   -2.7837   -1.0260 C   0  0  0  0  0  0  0  0  0  0  0  0
   -5.9756   -2.0652   -0.3450 C   0  0  0  0  0  0  0  0  0  0  0  0
   -7.2583   -2.9576    0.3975 Cl  0  0  0  0  0  0  0  0  0  0  0  0
   -6.9910    1.8341   -0.4515 H   0  0  0  0  0  0  0  0  0  0  0  0
   -7.7794    1.6736    1.1230 H   0  0  0  0  0  0  0  0  0  0  0  0
   -6.0132    1.7149    1.0647 H   0  0  0  0  0  0  0  0  0  0  0  0
   -4.7990    1.0951   -0.8221 H   0  0  0  0  0  0  0  0  0  0  0  0
   -1.6035    1.5065   -2.4848 H   0  0  0  0  0  0  0  0  0  0  0  0
   -3.3384    1.8420   -2.4460 H   0  0  0  0  0  0  0  0  0  0  0  0
   -2.4339    1.4891   -0.9220 H   0  0  0  0  0  0  0  0  0  0  0  0
   -2.3526   -2.2520   -2.9441 H   0  0  0  0  0  0  0  0  0  0  0  0
   -2.6007   -3.5814    1.4862 H   0  0  0  0  0  0  0  0  0  0  0  0
   -1.9898   -1.9728    3.2551 H   0  0  0  0  0  0  0  0  0  0  0  0
    2.9508    1.5029   -0.2552 H   0  0  0  0  0  0  0  0  0  0  0  0
    1.7507    2.9264    1.4493 H   0  0  0  0  0  0  0  0  0  0  0  0
    3.4989    3.2199    1.5585 H   0  0  0  0  0  0  0  0  0  0  0  0
    2.6860    2.1850    2.7402 H   0  0  0  0  0  0  0  0  0  0  0  0
    4.8826    3.0284   -0.2642 H   0  0  0  0  0  0  0  0  0  0  0  0
    5.0652    1.6944   -1.4322 H   0  0  0  0  0  0  0  0  0  0  0  0
    7.2542    3.2396    0.0355 H   0  0  0  0  0  0  0  0  0  0  0  0
    7.2020    2.8210   -1.6899 H   0  0  0  0  0  0  0  0  0  0  0  0
    7.5779    0.4684   -1.1935 H   0  0  0  0  0  0  0  0  0  0  0  0
    8.6758    1.2627   -0.0464 H   0  0  0  0  0  0  0  0  0  0  0  0
    7.0890    1.0068    1.7699 H   0  0  0  0  0  0  0  0  0  0  0  0
    6.7517   -0.4788    0.8436 H   0  0  0  0  0  0  0  0  0  0  0  0
   -0.0392   -1.4955   -1.3013 H   0  0  0  0  0  0  0  0  0  0  0  0
   -5.0506   -3.8676   -1.0872 H   0  0  0  0  0  0  0  0  0  0  0  0
  1  2  1  0
  2  3  1  0
  3  4  2  0
  4  5  1  0
  5  6  1  0
  6  7  1  0
  5  8  2  0
  8  9  1  0
  9 10  1  0
 10 11  2  0
 10 12  2  0
 10 13  1  0
 13 14  2  0
 14 15  1  0
 15 16  2  0
 16 17  1  0
 16 18  1  0
 18 19  1  0
 19 20  2  0
 19 21  1  0
 21 22  1  0
 22 23  1  0
 22 24  1  0
 24 25  2  0
 24 26  1  0
 26 27  1  0
 27 28  1  0
 28 29  1  0
 29 30  1  0
 18 31  2  0
  8 32  1  0
 32 33  2  0
 33 34  1  0
 33  3  1  0
 31 13  1  0
 30 26  1  0
  1 35  1  0
  1 36  1  0
  1 37  1  0
  4 38  1  0
  7 39  1  0
  7 40  1  0
  7 41  1  0
  9 42  1  0
 14 43  1  0
 15 44  1  0
 22 45  1  0
 23 46  1  0
 23 47  1  0
 23 48  1  0
 27 49  1  0
 27 50  1  0
 28 51  1  0
 28 52  1  0
 29 53  1  0
 29 54  1  0
 30 55  1  0
 30 56  1  0
 31 57  1  0
 32 58  1  0
M  END
$$$$
