
     RDKit          3D

 49 50  0  0  0  0  0  0  0  0999 V2000
   -4.1342   -3.3790   -0.4336 C   0  0  0  0  0  0  0  0  0  0  0  0
   -4.7548   -2.1133   -0.2500 O   0  0  0  0  0  0  0  0  0  0  0  0
   -4.2053   -1.2682    0.6828 C   0  0  0  0  0  0  0  0  0  0  0  0
   -3.1904   -1.6298    1.5763 C   0  0  0  0  0  0  0  0  0  0  0  0
   -2.6847   -0.6962    2.4879 C   0  0  0  0  0  0  0  0  0  0  0  0
   -1.6137   -1.0766    3.4099 C   0  0  0  0  0  0  0  0  0  0  0  0
   -0.3098   -0.7905    3.2687 C   0  0  0  0  0  0  0  0  0  0  0  0
    0.3544   -0.0766    2.1583 C   0  0  0  0  0  0  0  0  0  0  0  0
    1.3668    0.5875    2.3290 O   0  0  0  0  0  0  0  0  0  0  0  0
   -0.2589   -0.3006    0.9754 O   0  0  0  0  0  0  0  0  0  0  0  0
    0.4246    0.2535   -0.1447 C   0  0  0  0  0  0  0  0  0  0  0  0
    1.7095   -0.5038   -0.4951 C   0  0  0  0  0  0  0  0  0  0  0  0
    1.8779   -1.6927   -0.2323 O   0  0  0  0  0  0  0  0  0  0  0  0
    2.6476    0.2615   -1.1581 N   0  0  0  0  0  0  0  0  0  0  0  0
    3.9821   -0.2586   -1.4042 C   0  0  0  0  0  0  0  0  0  0  0  0
    4.7509    0.6480   -2.3740 C   0  0  0  0  0  0  0  0  0  0  0  0
    6.1864    0.1968   -2.5921 C   0  0  0  0  0  0  0  0  0  0  0  0
    6.9413    0.9643   -1.5358 C   0  0  0  0  0  0  0  0  0  0  0  0
    6.1898    2.2759   -1.5021 C   0  0  0  0  0  0  0  0  0  0  0  0
    4.8198    1.9766   -1.8052 O   0  0  0  0  0  0  0  0  0  0  0  0
   -3.2010    0.6012    2.5091 C   0  0  0  0  0  0  0  0  0  0  0  0
   -4.2239    0.9674    1.6301 C   0  0  0  0  0  0  0  0  0  0  0  0
   -4.7349    0.0386    0.7170 C   0  0  0  0  0  0  0  0  0  0  0  0
   -5.7332    0.3019   -0.1881 O   0  0  0  0  0  0  0  0  0  0  0  0
   -6.3747    1.5738   -0.1246 C   0  0  0  0  0  0  0  0  0  0  0  0
   -7.4536    1.6460   -1.1247 C   0  0  0  0  0  0  0  0  0  0  0  0
   -8.3108    1.7421   -1.9032 N   0  0  0  0  0  0  0  0  0  0  0  0
   -3.0737   -3.2728   -0.6898 H   0  0  0  0  0  0  0  0  0  0  0  0
   -4.2667   -4.0112    0.4503 H   0  0  0  0  0  0  0  0  0  0  0  0
   -4.6289   -3.8746   -1.2740 H   0  0  0  0  0  0  0  0  0  0  0  0
   -2.7693   -2.6307    1.5757 H   0  0  0  0  0  0  0  0  0  0  0  0
   -1.9450   -1.6160    4.2952 H   0  0  0  0  0  0  0  0  0  0  0  0
    0.3809   -1.0710    4.0587 H   0  0  0  0  0  0  0  0  0  0  0  0
    0.6226    1.3195    0.0171 H   0  0  0  0  0  0  0  0  0  0  0  0
   -0.2442    0.1739   -1.0085 H   0  0  0  0  0  0  0  0  0  0  0  0
    2.6007    1.2689   -1.0442 H   0  0  0  0  0  0  0  0  0  0  0  0
    3.9036   -1.2774   -1.7996 H   0  0  0  0  0  0  0  0  0  0  0  0
    4.4794   -0.3053   -0.4284 H   0  0  0  0  0  0  0  0  0  0  0  0
    4.2095    0.7134   -3.3243 H   0  0  0  0  0  0  0  0  0  0  0  0
    6.5248    0.5214   -3.5837 H   0  0  0  0  0  0  0  0  0  0  0  0
    6.3252   -0.8861   -2.5291 H   0  0  0  0  0  0  0  0  0  0  0  0
    6.8540    0.4549   -0.5689 H   0  0  0  0  0  0  0  0  0  0  0  0
    8.0040    1.0885   -1.7595 H   0  0  0  0  0  0  0  0  0  0  0  0
    6.5586    2.9643   -2.2700 H   0  0  0  0  0  0  0  0  0  0  0  0
    6.2517    2.7723   -0.5299 H   0  0  0  0  0  0  0  0  0  0  0  0
   -2.8118    1.3364    3.2108 H   0  0  0  0  0  0  0  0  0  0  0  0
   -4.5885    1.9875    1.6857 H   0  0  0  0  0  0  0  0  0  0  0  0
   -6.8067    1.7269    0.8719 H   0  0  0  0  0  0  0  0  0  0  0  0
   -5.6474    2.3678   -0.3343 H   0  0  0  0  0  0  0  0  0  0  0  0
  1  2  1  0
  2  3  1  0
  3  4  2  0
  4  5  1  0
  5  6  1  0
  6  7  2  3
  7  8  1  0
  8  9  2  0
  8 10  1  0
 10 11  1  0
 11 12  1  0
 12 13  2  0
 12 14  1  0
 14 15  1  0
 15 16  1  0
 16 17  1  0
 17 18  1  0
 18 19  1  0
 19 20  1  0
  5 21  2  0
 21 22  1  0
 22 23  2  0
 23 24  1  0
 24 25  1  0
 25 26  1  0
 26 27  3  0
 23  3  1  0
 20 16  1  0
  1 28  1  0
  1 29  1  0
  1 30  1  0
  4 31  1  0
  6 32  1  0
  7 33  1  0
 11 34  1  0
 11 35  1  0
 14 36  1  0
 15 37  1  0
 15 38  1  0
 16 39  1  0
 17 40  1  0
 17 41  1  0
 18 42  1  0
 18 43  1  0
 19 44  1  0
 19 45  1  0
 21 46  1  0
 22 47  1  0
 25 48  1  0
 25 49  1  0
M  END
$$$$
