
     RDKit          3D

 43 45  0  0  0  0  0  0  0  0999 V2000
   -5.8065   -1.4732    0.8967 C   0  0  0  0  0  0  0  0  0  0  0  0
   -5.0800   -0.4881    0.1010 N   0  0  0  0  0  0  0  0  0  0  0  0
   -4.2001    0.3338    0.9594 C   0  0  0  0  0  0  0  0  0  0  0  0
   -3.0506    1.0222    0.1896 C   0  0  0  0  0  0  0  0  0  0  0  0
   -2.1782    0.0436   -0.5067 N   0  0  0  0  0  0  0  0  0  0  0  0
   -0.8555   -0.0618   -0.0599 C   0  0  0  0  0  0  0  0  0  0  0  0
   -0.5487   -0.2585    1.2952 C   0  0  0  0  0  0  0  0  0  0  0  0
    0.7783   -0.3626    1.7346 C   0  0  0  0  0  0  0  0  0  0  0  0
    1.8399   -0.2623    0.8276 C   0  0  0  0  0  0  0  0  0  0  0  0
    3.2256   -0.3905    1.3440 C   0  0  0  0  0  0  0  0  0  0  0  0
    3.4367   -1.1359    2.2965 O   0  0  0  0  0  0  0  0  0  0  0  0
    4.3590    0.3532    0.7382 C   0  0  0  0  0  0  0  0  0  0  0  0
    4.2049    1.6510    0.2338 C   0  0  0  0  0  0  0  0  0  0  0  0
    5.3019    2.3190   -0.3179 C   0  0  0  0  0  0  0  0  0  0  0  0
    6.5495    1.6959   -0.3511 C   0  0  0  0  0  0  0  0  0  0  0  0
    8.0305    2.6039   -1.0958 Br  0  0  0  0  0  0  0  0  0  0  0  0
    6.7150    0.4130    0.1685 C   0  0  0  0  0  0  0  0  0  0  0  0
    5.6199   -0.2565    0.7194 C   0  0  0  0  0  0  0  0  0  0  0  0
    1.5721   -0.0970   -0.5301 C   0  0  0  0  0  0  0  0  0  0  0  0
    0.2356    0.0007   -0.9453 C   0  0  0  0  0  0  0  0  0  0  0  0
    0.0056    0.2134   -2.3575 N   0  0  0  0  0  4  0  0  0  0  0  0
   -0.2684   -0.7819   -3.0429 O   0  0  0  0  0  0  0  0  0  0  0  0
    0.1904    1.3619   -2.7855 O   0  0  0  0  0  1  0  0  0  0  0  0
   -2.8127   -1.2763   -0.7545 C   0  0  0  0  0  0  0  0  0  0  0  0
   -4.3287   -1.1171   -1.0083 C   0  0  0  0  0  0  0  0  0  0  0  0
   -6.5354   -2.0060    0.2760 H   0  0  0  0  0  0  0  0  0  0  0  0
   -5.1368   -2.2111    1.3527 H   0  0  0  0  0  0  0  0  0  0  0  0
   -6.3743   -0.9811    1.6943 H   0  0  0  0  0  0  0  0  0  0  0  0
   -4.8090    1.1014    1.4509 H   0  0  0  0  0  0  0  0  0  0  0  0
   -3.7577   -0.2829    1.7529 H   0  0  0  0  0  0  0  0  0  0  0  0
   -2.4813    1.6677    0.8700 H   0  0  0  0  0  0  0  0  0  0  0  0
   -3.4773    1.6861   -0.5729 H   0  0  0  0  0  0  0  0  0  0  0  0
   -1.3431   -0.3475    2.0321 H   0  0  0  0  0  0  0  0  0  0  0  0
    0.9800   -0.5251    2.7930 H   0  0  0  0  0  0  0  0  0  0  0  0
    3.2480    2.1648    0.2780 H   0  0  0  0  0  0  0  0  0  0  0  0
    5.1762    3.3256   -0.7101 H   0  0  0  0  0  0  0  0  0  0  0  0
    7.6882   -0.0715    0.1553 H   0  0  0  0  0  0  0  0  0  0  0  0
    5.7521   -1.2540    1.1351 H   0  0  0  0  0  0  0  0  0  0  0  0
    2.3725   -0.0561   -1.2647 H   0  0  0  0  0  0  0  0  0  0  0  0
   -2.6603   -1.9498    0.0995 H   0  0  0  0  0  0  0  0  0  0  0  0
   -2.3558   -1.7461   -1.6323 H   0  0  0  0  0  0  0  0  0  0  0  0
   -4.7597   -2.0885   -1.2806 H   0  0  0  0  0  0  0  0  0  0  0  0
   -4.4618   -0.4755   -1.8892 H   0  0  0  0  0  0  0  0  0  0  0  0
  1  2  1  0
  2  3  1  0
  3  4  1  0
  4  5  1  0
  5  6  1  0
  6  7  2  0
  7  8  1  0
  8  9  2  0
  9 10  1  0
 10 11  2  0
 10 12  1  0
 12 13  2  0
 13 14  1  0
 14 15  2  0
 15 16  1  0
 15 17  1  0
 17 18  2  0
  9 19  1  0
 19 20  2  0
 20 21  1  0
 21 22  2  0
 21 23  1  0
  5 24  1  0
 24 25  1  0
 25  2  1  0
 20  6  1  0
 18 12  1  0
  1 26  1  0
  1 27  1  0
  1 28  1  0
  3 29  1  0
  3 30  1  0
  4 31  1  0
  4 32  1  0
  7 33  1  0
  8 34  1  0
 13 35  1  0
 14 36  1  0
 17 37  1  0
 18 38  1  0
 19 39  1  0
 24 40  1  0
 24 41  1  0
 25 42  1  0
 25 43  1  0
M  CHG  2  21   1  23  -1
M  END
$$$$
