
     RDKit          3D

 66 70  0  0  0  0  0  0  0  0999 V2000
    3.7457    2.2843   -2.8239 C   0  0  0  0  0  0  0  0  0  0  0  0
    3.2051    2.5181   -1.4608 C   0  0  0  0  0  0  0  0  0  0  0  0
    1.8945    2.7756   -1.0951 C   0  0  0  0  0  0  0  0  0  0  0  0
    0.6515    2.8720   -1.9434 C   0  0  0  0  0  0  0  0  0  0  0  0
    0.1094    1.4926   -2.3199 C   0  0  0  0  0  0  0  0  0  0  0  0
   -0.4140    0.8559   -1.1451 O   0  0  0  0  0  0  0  0  0  0  0  0
   -0.6936   -0.4681   -1.3063 C   0  0  0  0  0  0  0  0  0  0  0  0
   -0.4553   -1.1086   -2.3209 O   0  0  0  0  0  0  0  0  0  0  0  0
   -1.3287   -1.0385   -0.0608 C   0  0  0  0  0  0  0  0  0  0  0  0
   -2.8682   -0.9697   -0.0339 C   0  0  0  0  0  0  0  0  0  0  0  0
   -3.4976   -1.7246   -1.2314 C   0  0  0  0  0  0  0  0  0  0  0  0
   -5.0335   -1.6861   -1.1526 C   0  0  0  0  0  0  0  0  0  0  0  0
   -5.5062   -0.2239   -1.1674 C   0  0  0  0  0  0  0  0  0  0  0  0
   -4.9148    0.5323    0.0324 C   0  0  0  0  0  0  0  0  0  0  0  0
   -5.3765   -0.1411    1.3340 C   0  0  0  0  0  0  0  0  0  0  0  0
   -4.9088   -1.6128    1.3729 C   0  0  0  0  0  0  0  0  0  0  0  0
   -5.3716   -2.2816    2.6707 C   0  0  0  0  0  0  0  0  0  0  0  0
   -5.4944   -2.3556    0.1514 C   0  0  0  0  0  0  0  0  0  0  0  0
   -3.3665   -1.6418    1.2757 C   0  0  0  0  0  0  0  0  0  0  0  0
   -3.3791    0.4926   -0.0490 C   0  0  0  0  0  0  0  0  0  0  0  0
    1.7921    3.0056    0.6058 S   0  0  0  0  0  0  0  0  0  0  0  0
    3.4664    2.7464    0.8000 C   0  0  0  0  0  0  0  0  0  0  0  0
    4.0564    2.4916   -0.3575 N   0  0  0  0  0  4  0  0  0  0  0  0
    5.5058    2.2446   -0.4119 C   0  0  0  0  0  0  0  0  0  0  0  0
    5.8429    0.9571    0.3121 C   0  0  0  0  0  0  0  0  0  0  0  0
    5.4335   -0.2859   -0.2027 C   0  0  0  0  0  0  0  0  0  0  0  0
    5.7371   -1.4722    0.4738 C   0  0  0  0  0  0  0  0  0  0  0  0
    6.4549   -1.4224    1.6754 C   0  0  0  0  0  0  0  0  0  0  0  0
    6.7698   -2.6663    2.3906 N   0  0  0  0  0  4  0  0  0  0  0  0
    6.4974   -3.7342    1.8256 O   0  0  0  0  0  0  0  0  0  0  0  0
    7.2807   -2.5648    3.5140 O   0  0  0  0  0  1  0  0  0  0  0  0
    6.8724   -0.1928    2.1992 C   0  0  0  0  0  0  0  0  0  0  0  0
    6.5693    0.9897    1.5164 C   0  0  0  0  0  0  0  0  0  0  0  0
    4.2217    1.3025   -2.8924 H   0  0  0  0  0  0  0  0  0  0  0  0
    2.9561    2.3154   -3.5803 H   0  0  0  0  0  0  0  0  0  0  0  0
    4.4769    3.0553   -3.0849 H   0  0  0  0  0  0  0  0  0  0  0  0
    0.8890    3.4303   -2.8565 H   0  0  0  0  0  0  0  0  0  0  0  0
   -0.1233    3.4401   -1.4140 H   0  0  0  0  0  0  0  0  0  0  0  0
   -0.7085    1.6092   -3.0401 H   0  0  0  0  0  0  0  0  0  0  0  0
    0.9019    0.8824   -2.7701 H   0  0  0  0  0  0  0  0  0  0  0  0
   -0.9896   -2.0794    0.0199 H   0  0  0  0  0  0  0  0  0  0  0  0
   -0.9006   -0.5255    0.8104 H   0  0  0  0  0  0  0  0  0  0  0  0
   -3.1803   -1.2748   -2.1803 H   0  0  0  0  0  0  0  0  0  0  0  0
   -3.1545   -2.7671   -1.2444 H   0  0  0  0  0  0  0  0  0  0  0  0
   -5.4592   -2.2201   -2.0100 H   0  0  0  0  0  0  0  0  0  0  0  0
   -6.6017   -0.1836   -1.1323 H   0  0  0  0  0  0  0  0  0  0  0  0
   -5.2000    0.2600   -2.1030 H   0  0  0  0  0  0  0  0  0  0  0  0
   -5.2567    1.5733    0.0165 H   0  0  0  0  0  0  0  0  0  0  0  0
   -6.4704   -0.0884    1.4079 H   0  0  0  0  0  0  0  0  0  0  0  0
   -4.9759    0.4086    2.1955 H   0  0  0  0  0  0  0  0  0  0  0  0
   -6.4641   -2.2739    2.7523 H   0  0  0  0  0  0  0  0  0  0  0  0
   -4.9683   -1.7631    3.5473 H   0  0  0  0  0  0  0  0  0  0  0  0
   -5.0406   -3.3248    2.7176 H   0  0  0  0  0  0  0  0  0  0  0  0
   -6.5911   -2.3564    0.1971 H   0  0  0  0  0  0  0  0  0  0  0  0
   -5.1784   -3.4068    0.1581 H   0  0  0  0  0  0  0  0  0  0  0  0
   -3.0125   -2.6810    1.3176 H   0  0  0  0  0  0  0  0  0  0  0  0
   -2.9302   -1.1307    2.1449 H   0  0  0  0  0  0  0  0  0  0  0  0
   -2.9494    1.0530    0.7914 H   0  0  0  0  0  0  0  0  0  0  0  0
   -3.0614    1.0041   -0.9658 H   0  0  0  0  0  0  0  0  0  0  0  0
    3.9641    2.7814    1.7610 H   0  0  0  0  0  0  0  0  0  0  0  0
    5.8737    2.1860   -1.4398 H   0  0  0  0  0  0  0  0  0  0  0  0
    6.0126    3.1013    0.0503 H   0  0  0  0  0  0  0  0  0  0  0  0
    4.8785   -0.3582   -1.1375 H   0  0  0  0  0  0  0  0  0  0  0  0
    5.4112   -2.4246    0.0542 H   0  0  0  0  0  0  0  0  0  0  0  0
    7.4370   -0.1429    3.1307 H   0  0  0  0  0  0  0  0  0  0  0  0
    6.9178    1.9309    1.9423 H   0  0  0  0  0  0  0  0  0  0  0  0
  1  2  1  0
  2  3  2  0
  3  4  1  0
  4  5  1  0
  5  6  1  0
  6  7  1  0
  7  8  2  0
  7  9  1  0
  9 10  1  0
 10 11  1  0
 11 12  1  0
 12 13  1  0
 13 14  1  0
 14 15  1  0
 15 16  1  0
 16 17  1  0
 16 18  1  0
 16 19  1  0
 14 20  1  0
  3 21  1  0
 21 22  1  0
 22 23  2  0
 23 24  1  0
 24 25  1  0
 25 26  2  0
 26 27  1  0
 27 28  2  0
 28 29  1  0
 29 30  2  0
 29 31  1  0
 28 32  1  0
 32 33  2  0
 23  2  1  0
 33 25  1  0
 19 10  1  0
 20 10  1  0
 18 12  1  0
  1 34  1  0
  1 35  1  0
  1 36  1  0
  4 37  1  0
  4 38  1  0
  5 39  1  0
  5 40  1  0
  9 41  1  0
  9 42  1  0
 11 43  1  0
 11 44  1  0
 12 45  1  0
 13 46  1  0
 13 47  1  0
 14 48  1  0
 15 49  1  0
 15 50  1  0
 17 51  1  0
 17 52  1  0
 17 53  1  0
 18 54  1  0
 18 55  1  0
 19 56  1  0
 19 57  1  0
 20 58  1  0
 20 59  1  0
 22 60  1  0
 24 61  1  0
 24 62  1  0
 26 63  1  0
 27 64  1  0
 32 65  1  0
 33 66  1  0
M  CHG  3  23   1  29   1  31  -1
M  END
$$$$
