
     RDKit          3D

 55 58  0  0  0  0  0  0  0  0999 V2000
   -7.0328   -2.2322    0.1384 C   0  0  0  0  0  0  0  0  0  0  0  0
   -6.6609   -0.9132   -0.2329 O   0  0  0  0  0  0  0  0  0  0  0  0
   -5.3340   -0.5749   -0.1420 C   0  0  0  0  0  0  0  0  0  0  0  0
   -4.3233   -1.4431    0.2750 C   0  0  0  0  0  0  0  0  0  0  0  0
   -2.9936   -1.0082    0.3372 C   0  0  0  0  0  0  0  0  0  0  0  0
   -2.6347    0.3041   -0.0097 C   0  0  0  0  0  0  0  0  0  0  0  0
   -1.2364    0.7823    0.0539 C   0  0  0  0  0  0  0  0  0  0  0  0
   -0.3125    0.3027    0.9654 C   0  0  0  0  0  0  0  0  0  0  0  0
    0.9830    0.8169    0.9256 C   0  0  0  0  0  0  0  0  0  0  0  0
    1.9454    0.2580    1.8928 C   0  0  0  0  0  0  0  0  0  0  0  0
    1.8162    0.5749    3.0712 O   0  0  0  0  0  0  0  0  0  0  0  0
    2.9308   -0.6092    1.4228 N   0  0  0  0  0  0  0  0  0  0  0  0
    3.9297   -1.0894    2.3763 C   0  0  0  0  0  0  0  0  0  0  0  0
    5.2473   -1.4170    1.6867 C   0  0  0  0  0  0  0  0  0  0  0  0
    5.0824   -2.4555    0.5746 C   0  0  0  0  0  0  0  0  0  0  0  0
    3.6580   -2.5057   -0.0004 C   0  0  0  0  0  0  0  0  0  0  0  0
    3.6494   -3.0346   -1.4197 C   0  0  0  0  0  0  0  0  0  0  0  0
    4.2105   -4.2613   -1.4828 F   0  0  0  0  0  0  0  0  0  0  0  0
    4.3314   -2.2233   -2.2554 F   0  0  0  0  0  0  0  0  0  0  0  0
    2.3867   -3.1402   -1.8876 F   0  0  0  0  0  0  0  0  0  0  0  0
    2.9928   -1.1331    0.0494 C   0  0  0  0  0  0  0  0  0  0  0  0
    1.3466    1.8344    0.0228 C   0  0  0  0  0  0  0  0  0  0  0  0
    2.6237    2.4469   -0.0367 C   0  0  0  0  0  0  0  0  0  0  0  0
    2.8970    3.4413   -0.9729 C   0  0  0  0  0  0  0  0  0  0  0  0
    1.9018    3.8395   -1.8541 C   0  0  0  0  0  0  0  0  0  0  0  0
    0.6387    3.2458   -1.7868 C   0  0  0  0  0  0  0  0  0  0  0  0
    0.3395    2.2549   -0.8611 C   0  0  0  0  0  0  0  0  0  0  0  0
   -0.9028    1.7400   -0.8487 N   0  0  0  0  0  0  0  0  0  0  0  0
   -3.6663    1.1639   -0.4370 C   0  0  0  0  0  0  0  0  0  0  0  0
   -5.0019    0.7424   -0.5066 C   0  0  0  0  0  0  0  0  0  0  0  0
   -6.0466    1.5381   -0.9102 O   0  0  0  0  0  0  0  0  0  0  0  0
   -5.7399    2.8534   -1.3498 C   0  0  0  0  0  0  0  0  0  0  0  0
   -6.8009   -2.4276    1.1905 H   0  0  0  0  0  0  0  0  0  0  0  0
   -6.5627   -2.9738   -0.5156 H   0  0  0  0  0  0  0  0  0  0  0  0
   -8.1165   -2.3215    0.0157 H   0  0  0  0  0  0  0  0  0  0  0  0
   -4.5328   -2.4701    0.5548 H   0  0  0  0  0  0  0  0  0  0  0  0
   -2.2387   -1.7270    0.6481 H   0  0  0  0  0  0  0  0  0  0  0  0
   -0.5763   -0.4427    1.7078 H   0  0  0  0  0  0  0  0  0  0  0  0
    3.5164   -1.9807    2.8630 H   0  0  0  0  0  0  0  0  0  0  0  0
    4.0940   -0.3364    3.1549 H   0  0  0  0  0  0  0  0  0  0  0  0
    5.9840   -1.7687    2.4175 H   0  0  0  0  0  0  0  0  0  0  0  0
    5.6546   -0.4963    1.2488 H   0  0  0  0  0  0  0  0  0  0  0  0
    5.3362   -3.4498    0.9635 H   0  0  0  0  0  0  0  0  0  0  0  0
    5.8184   -2.2431   -0.2106 H   0  0  0  0  0  0  0  0  0  0  0  0
    3.0684   -3.1944    0.6200 H   0  0  0  0  0  0  0  0  0  0  0  0
    1.9819   -1.1876   -0.3664 H   0  0  0  0  0  0  0  0  0  0  0  0
    3.5596   -0.4073   -0.5457 H   0  0  0  0  0  0  0  0  0  0  0  0
    3.4113    2.1562    0.6562 H   0  0  0  0  0  0  0  0  0  0  0  0
    3.8795    3.9052   -1.0090 H   0  0  0  0  0  0  0  0  0  0  0  0
    2.0980    4.6153   -2.5898 H   0  0  0  0  0  0  0  0  0  0  0  0
   -0.1382    3.5700   -2.4762 H   0  0  0  0  0  0  0  0  0  0  0  0
   -3.3946    2.1801   -0.7101 H   0  0  0  0  0  0  0  0  0  0  0  0
   -6.6751    3.3270   -1.6641 H   0  0  0  0  0  0  0  0  0  0  0  0
   -5.3221    3.4540   -0.5353 H   0  0  0  0  0  0  0  0  0  0  0  0
   -5.0699    2.8365   -2.2158 H   0  0  0  0  0  0  0  0  0  0  0  0
  1  2  1  0
  2  3  1  0
  3  4  2  0
  4  5  1  0
  5  6  2  0
  6  7  1  0
  7  8  2  0
  8  9  1  0
  9 10  1  0
 10 11  2  0
 10 12  1  0
 12 13  1  0
 13 14  1  0
 14 15  1  0
 15 16  1  0
 16 17  1  0
 17 18  1  0
 17 19  1  0
 17 20  1  0
 16 21  1  0
  9 22  2  0
 22 23  1  0
 23 24  2  0
 24 25  1  0
 25 26  2  0
 26 27  1  0
 27 28  2  0
  6 29  1  0
 29 30  2  0
 30 31  1  0
 31 32  1  0
 30  3  1  0
 28  7  1  0
 21 12  1  0
 27 22  1  0
  1 33  1  0
  1 34  1  0
  1 35  1  0
  4 36  1  0
  5 37  1  0
  8 38  1  0
 13 39  1  0
 13 40  1  0
 14 41  1  0
 14 42  1  0
 15 43  1  0
 15 44  1  0
 16 45  1  0
 21 46  1  0
 21 47  1  0
 23 48  1  0
 24 49  1  0
 25 50  1  0
 26 51  1  0
 29 52  1  0
 32 53  1  0
 32 54  1  0
 32 55  1  0
M  END
$$$$
