
     RDKit          3D

 36 39  0  0  0  0  0  0  0  0999 V2000
   -4.0221   -2.0681    1.0364 C   0  0  0  0  0  0  0  0  0  0  0  0
   -3.2756   -1.0997    0.1526 C   0  0  0  0  0  0  0  0  0  0  0  0
   -3.8148   -0.8728   -1.2206 C   0  0  0  0  0  0  0  0  0  0  0  0
   -3.1444   -0.0068   -2.0041 C   0  0  0  0  0  0  0  0  0  0  0  0
   -3.6227    0.2731   -3.3951 C   0  0  0  0  0  0  0  0  0  0  0  0
   -1.9955    0.6147   -1.4779 N   0  0  0  0  0  0  0  0  0  0  0  0
   -1.0968    1.5291   -1.9945 C   0  0  0  0  0  0  0  0  0  0  0  0
   -1.0547    2.3552   -3.7128 Br  0  0  0  0  0  0  0  0  0  0  0  0
   -0.1607    1.7595   -1.0056 C   0  0  0  0  0  0  0  0  0  0  0  0
    1.0487    2.6340   -1.0051 C   0  0  0  0  0  0  0  0  0  0  0  0
    2.4634    1.8060   -1.7919 S   0  0  0  0  0  0  0  0  0  0  0  0
    2.9177    0.7455   -0.4769 C   0  0  0  0  0  0  0  0  0  0  0  0
    3.3915    1.2336    0.6447 N   0  0  0  0  0  0  0  0  0  0  0  0
    3.6594    0.1938    1.5191 C   0  0  0  0  0  0  0  0  0  0  0  0
    4.1616    0.3256    2.8299 C   0  0  0  0  0  0  0  0  0  0  0  0
    4.3905   -0.8150    3.6066 C   0  0  0  0  0  0  0  0  0  0  0  0
    4.1265   -2.0812    3.0937 C   0  0  0  0  0  0  0  0  0  0  0  0
    3.6293   -2.2403    1.7964 C   0  0  0  0  0  0  0  0  0  0  0  0
    3.4027   -1.0879    1.0253 C   0  0  0  0  0  0  0  0  0  0  0  0
    2.8074   -0.9561   -0.5855 S   0  0  0  0  0  0  0  0  0  0  0  0
   -0.4688    1.0249    0.1121 N   0  0  0  0  0  0  0  0  0  0  0  0
   -1.5563    0.3424   -0.1739 C   0  0  0  0  0  0  0  0  0  0  0  0
   -2.2181   -0.5281    0.6391 N   0  0  0  0  0  0  0  0  0  0  0  0
   -4.8924   -2.4901    0.5276 H   0  0  0  0  0  0  0  0  0  0  0  0
   -3.3516   -2.8831    1.3244 H   0  0  0  0  0  0  0  0  0  0  0  0
   -4.3580   -1.5474    1.9379 H   0  0  0  0  0  0  0  0  0  0  0  0
   -4.7066   -1.4018   -1.5303 H   0  0  0  0  0  0  0  0  0  0  0  0
   -4.5272   -0.2982   -3.6348 H   0  0  0  0  0  0  0  0  0  0  0  0
   -3.8796    1.3299   -3.5150 H   0  0  0  0  0  0  0  0  0  0  0  0
   -2.8674   -0.0131   -4.1333 H   0  0  0  0  0  0  0  0  0  0  0  0
    0.8449    3.5573   -1.5573 H   0  0  0  0  0  0  0  0  0  0  0  0
    1.3041    2.9351    0.0168 H   0  0  0  0  0  0  0  0  0  0  0  0
    4.3637    1.3156    3.2264 H   0  0  0  0  0  0  0  0  0  0  0  0
    4.7747   -0.7074    4.6181 H   0  0  0  0  0  0  0  0  0  0  0  0
    4.3063   -2.9600    3.7094 H   0  0  0  0  0  0  0  0  0  0  0  0
    3.4209   -3.2283    1.3979 H   0  0  0  0  0  0  0  0  0  0  0  0
  1  2  1  0
  2  3  1  0
  3  4  2  0
  4  5  1  0
  4  6  1  0
  6  7  1  0
  7  8  1  0
  7  9  2  0
  9 10  1  0
 10 11  1  0
 11 12  1  0
 12 13  2  0
 13 14  1  0
 14 15  2  0
 15 16  1  0
 16 17  2  0
 17 18  1  0
 18 19  2  0
 19 20  1  0
  9 21  1  0
 21 22  2  0
 22 23  1  0
 23  2  2  0
 22  6  1  0
 20 12  1  0
 19 14  1  0
  1 24  1  0
  1 25  1  0
  1 26  1  0
  3 27  1  0
  5 28  1  0
  5 29  1  0
  5 30  1  0
 10 31  1  0
 10 32  1  0
 15 33  1  0
 16 34  1  0
 17 35  1  0
 18 36  1  0
M  END
$$$$
