
     RDKit          3D

 48 49  0  0  0  0  0  0  0  0999 V2000
   -5.6331    0.8632   -1.8173 C   0  0  0  0  0  0  0  0  0  0  0  0
   -4.3805    0.3388   -1.1803 C   0  0  0  0  0  0  0  0  0  0  0  0
   -3.5027   -0.4727   -1.9071 C   0  0  0  0  0  0  0  0  0  0  0  0
   -2.3195   -0.9335   -1.3271 C   0  0  0  0  0  0  0  0  0  0  0  0
   -1.9860   -0.5757   -0.0149 C   0  0  0  0  0  0  0  0  0  0  0  0
   -0.6833   -1.0391    0.5929 C   0  0  0  0  0  0  0  0  0  0  0  0
    0.5593   -0.3873   -0.0371 C   0  0  0  0  0  0  0  0  0  0  0  0
    1.7787   -1.0890    0.3678 N   0  0  0  0  0  0  0  0  0  0  0  0
    2.1798   -2.2509   -0.2478 C   0  0  0  0  0  0  0  0  0  0  0  0
    1.5263   -2.7882   -1.1358 O   0  0  0  0  0  0  0  0  0  0  0  0
    3.4802   -2.8301    0.1923 C   0  0  0  0  0  0  0  0  0  0  0  0
    4.1606   -3.6773   -0.6925 C   0  0  0  0  0  0  0  0  0  0  0  0
    5.3819   -4.2455   -0.3254 C   0  0  0  0  0  0  0  0  0  0  0  0
    5.9252   -3.9771    0.9300 C   0  0  0  0  0  0  0  0  0  0  0  0
    5.2467   -3.1470    1.8220 C   0  0  0  0  0  0  0  0  0  0  0  0
    4.0241   -2.5758    1.4584 C   0  0  0  0  0  0  0  0  0  0  0  0
    0.7194    1.0761    0.4216 C   0  0  0  0  0  0  0  0  0  0  0  0
    1.5403    1.4032    1.2806 O   0  0  0  0  0  0  0  0  0  0  0  0
   -0.1130    1.9815   -0.1877 N   0  0  0  0  0  0  0  0  0  0  0  0
   -0.1110    3.4024    0.1483 C   0  0  0  0  0  0  0  0  0  0  0  0
   -0.9425    3.6693    1.3955 C   0  0  0  0  0  0  0  0  0  0  0  0
   -0.6714    4.1842   -1.0364 C   0  0  0  0  0  0  0  0  0  0  0  0
   -1.2534    3.7146   -2.0034 O   0  0  0  0  0  0  0  0  0  0  0  0
   -0.4743    5.5142   -0.9394 O   0  0  0  0  0  0  0  0  0  0  0  0
   -2.8646    0.2365    0.7121 C   0  0  0  0  0  0  0  0  0  0  0  0
   -4.0478    0.6967    0.1306 C   0  0  0  0  0  0  0  0  0  0  0  0
   -5.4296    1.8179   -2.3118 H   0  0  0  0  0  0  0  0  0  0  0  0
   -6.4190    1.0122   -1.0693 H   0  0  0  0  0  0  0  0  0  0  0  0
   -6.0205    0.1558   -2.5581 H   0  0  0  0  0  0  0  0  0  0  0  0
   -3.7361   -0.7549   -2.9315 H   0  0  0  0  0  0  0  0  0  0  0  0
   -1.6574   -1.5744   -1.9083 H   0  0  0  0  0  0  0  0  0  0  0  0
   -0.6908   -0.8529    1.6753 H   0  0  0  0  0  0  0  0  0  0  0  0
   -0.6391   -2.1310    0.4864 H   0  0  0  0  0  0  0  0  0  0  0  0
    0.5153   -0.4040   -1.1328 H   0  0  0  0  0  0  0  0  0  0  0  0
    2.4099   -0.5704    0.9708 H   0  0  0  0  0  0  0  0  0  0  0  0
    3.7403   -3.8947   -1.6726 H   0  0  0  0  0  0  0  0  0  0  0  0
    5.9059   -4.8991   -1.0183 H   0  0  0  0  0  0  0  0  0  0  0  0
    6.8752   -4.4218    1.2165 H   0  0  0  0  0  0  0  0  0  0  0  0
    5.6667   -2.9503    2.8056 H   0  0  0  0  0  0  0  0  0  0  0  0
    3.5036   -1.9579    2.1839 H   0  0  0  0  0  0  0  0  0  0  0  0
   -0.7989    1.6662   -0.8714 H   0  0  0  0  0  0  0  0  0  0  0  0
    0.9290    3.7108    0.3044 H   0  0  0  0  0  0  0  0  0  0  0  0
   -0.9226    4.7313    1.6618 H   0  0  0  0  0  0  0  0  0  0  0  0
   -1.9901    3.3880    1.2395 H   0  0  0  0  0  0  0  0  0  0  0  0
   -0.5686    3.0981    2.2515 H   0  0  0  0  0  0  0  0  0  0  0  0
   -0.8711    5.8764   -1.7598 H   0  0  0  0  0  0  0  0  0  0  0  0
   -2.6307    0.5272    1.7341 H   0  0  0  0  0  0  0  0  0  0  0  0
   -4.7109    1.3360    0.7091 H   0  0  0  0  0  0  0  0  0  0  0  0
  1  2  1  0
  2  3  2  0
  3  4  1  0
  4  5  2  0
  5  6  1  0
  6  7  1  0
  7  8  1  0
  8  9  1  0
  9 10  2  0
  9 11  1  0
 11 12  2  0
 12 13  1  0
 13 14  2  0
 14 15  1  0
 15 16  2  0
  7 17  1  0
 17 18  2  0
 17 19  1  0
 19 20  1  0
 20 21  1  0
 20 22  1  0
 22 23  2  0
 22 24  1  0
  5 25  1  0
 25 26  2  0
 26  2  1  0
 16 11  1  0
  1 27  1  0
  1 28  1  0
  1 29  1  0
  3 30  1  0
  4 31  1  0
  6 32  1  0
  6 33  1  0
  7 34  1  0
  8 35  1  0
 12 36  1  0
 13 37  1  0
 14 38  1  0
 15 39  1  0
 16 40  1  0
 19 41  1  0
 20 42  1  0
 21 43  1  0
 21 44  1  0
 21 45  1  0
 24 46  1  0
 25 47  1  0
 26 48  1  0
M  END
$$$$
