
     RDKit          3D

 49 51  0  0  0  0  0  0  0  0999 V2000
   -1.1482    2.9188    2.1920 N   0  0  0  0  0  0  0  0  0  0  0  0
    0.0490    2.4623    1.7799 C   0  0  0  0  0  0  0  0  0  0  0  0
    1.1159    3.1997    1.7479 N   0  0  0  0  0  0  0  0  0  0  0  0
    2.1778    2.2883    1.2360 C   0  0  0  0  0  0  0  0  0  0  0  0
    1.5096    0.9275    0.9329 C   0  0  0  0  0  0  0  0  0  0  0  0
    2.1437   -0.2374    1.7052 C   0  0  0  0  0  0  0  0  0  0  0  0
    3.5000   -0.6279    1.1660 C   0  0  0  0  0  0  0  0  0  0  0  0
    4.6719   -0.2496    1.8370 C   0  0  0  0  0  0  0  0  0  0  0  0
    5.9254   -0.5951    1.3265 C   0  0  0  0  0  0  0  0  0  0  0  0
    6.0059   -1.3230    0.1443 C   0  0  0  0  0  0  0  0  0  0  0  0
    7.2080   -1.6798   -0.3908 O   0  0  0  0  0  0  0  0  0  0  0  0
    4.8563   -1.7114   -0.5313 C   0  0  0  0  0  0  0  0  0  0  0  0
    3.6040   -1.3653   -0.0224 C   0  0  0  0  0  0  0  0  0  0  0  0
    0.1373    1.1641    1.3891 N   0  0  0  0  0  0  0  0  0  0  0  0
   -0.9493    0.4267    0.7507 C   0  0  0  0  0  0  0  0  0  0  0  0
   -1.3535    1.0355   -0.5994 C   0  0  0  0  0  0  0  0  0  0  0  0
   -2.4827    0.2643   -1.2428 C   0  0  0  0  0  0  0  0  0  0  0  0
   -2.2132   -0.8106   -2.1002 C   0  0  0  0  0  0  0  0  0  0  0  0
   -3.2558   -1.5439   -2.6883 C   0  0  0  0  0  0  0  0  0  0  0  0
   -2.9508   -2.7154   -3.5925 C   0  0  0  0  0  0  0  0  0  0  0  0
   -3.9223   -2.9431   -4.5187 F   0  0  0  0  0  0  0  0  0  0  0  0
   -1.7943   -2.5599   -4.2947 F   0  0  0  0  0  0  0  0  0  0  0  0
   -2.8137   -3.8775   -2.8974 F   0  0  0  0  0  0  0  0  0  0  0  0
   -4.5837   -1.1960   -2.3909 C   0  0  0  0  0  0  0  0  0  0  0  0
   -4.8757   -0.1188   -1.5387 C   0  0  0  0  0  0  0  0  0  0  0  0
   -6.3041    0.2461   -1.2076 C   0  0  0  0  0  0  0  0  0  0  0  0
   -6.6874   -0.2316    0.0082 F   0  0  0  0  0  0  0  0  0  0  0  0
   -7.2061   -0.2420   -2.1037 F   0  0  0  0  0  0  0  0  0  0  0  0
   -6.5109    1.5912   -1.1649 F   0  0  0  0  0  0  0  0  0  0  0  0
   -3.8149    0.5995   -0.9650 C   0  0  0  0  0  0  0  0  0  0  0  0
   -1.0396    3.8404    2.6044 H   0  0  0  0  0  0  0  0  0  0  0  0
   -1.5945    2.2880    2.8449 H   0  0  0  0  0  0  0  0  0  0  0  0
    2.6107    2.7155    0.3247 H   0  0  0  0  0  0  0  0  0  0  0  0
    2.9704    2.2166    1.9873 H   0  0  0  0  0  0  0  0  0  0  0  0
    1.5346    0.7439   -0.1481 H   0  0  0  0  0  0  0  0  0  0  0  0
    1.4931   -1.1208    1.6562 H   0  0  0  0  0  0  0  0  0  0  0  0
    2.2161    0.0042    2.7741 H   0  0  0  0  0  0  0  0  0  0  0  0
    4.6173    0.3197    2.7629 H   0  0  0  0  0  0  0  0  0  0  0  0
    6.8188   -0.2887    1.8609 H   0  0  0  0  0  0  0  0  0  0  0  0
    7.9144   -1.3511    0.1888 H   0  0  0  0  0  0  0  0  0  0  0  0
    4.9353   -2.2836   -1.4512 H   0  0  0  0  0  0  0  0  0  0  0  0
    2.7121   -1.6791   -0.5595 H   0  0  0  0  0  0  0  0  0  0  0  0
   -0.6468   -0.6188    0.6117 H   0  0  0  0  0  0  0  0  0  0  0  0
   -1.8137    0.3954    1.4258 H   0  0  0  0  0  0  0  0  0  0  0  0
   -1.6573    2.0828   -0.4798 H   0  0  0  0  0  0  0  0  0  0  0  0
   -0.4963    1.0579   -1.2835 H   0  0  0  0  0  0  0  0  0  0  0  0
   -1.1797   -1.0814   -2.3189 H   0  0  0  0  0  0  0  0  0  0  0  0
   -5.4006   -1.7693   -2.8330 H   0  0  0  0  0  0  0  0  0  0  0  0
   -4.0327    1.4329   -0.2954 H   0  0  0  0  0  0  0  0  0  0  0  0
  1  2  1  0
  2  3  2  0
  3  4  1  0
  4  5  1  0
  5  6  1  0
  6  7  1  0
  7  8  2  0
  8  9  1  0
  9 10  2  0
 10 11  1  0
 10 12  1  0
 12 13  2  0
  5 14  1  0
 14 15  1  0
 15 16  1  0
 16 17  1  0
 17 18  2  0
 18 19  1  0
 19 20  1  0
 20 21  1  0
 20 22  1  0
 20 23  1  0
 19 24  2  0
 24 25  1  0
 25 26  1  0
 26 27  1  0
 26 28  1  0
 26 29  1  0
 25 30  2  0
 14  2  1  0
 30 17  1  0
 13  7  1  0
  1 31  1  0
  1 32  1  0
  4 33  1  0
  4 34  1  0
  5 35  1  0
  6 36  1  0
  6 37  1  0
  8 38  1  0
  9 39  1  0
 11 40  1  0
 12 41  1  0
 13 42  1  0
 15 43  1  0
 15 44  1  0
 16 45  1  0
 16 46  1  0
 18 47  1  0
 24 48  1  0
 30 49  1  0
M  END
$$$$
