
     RDKit          3D

 53 58  0  0  0  0  0  0  0  0999 V2000
    6.6681   -1.0357    2.2337 C   0  0  0  0  0  0  0  0  0  0  0  0
    6.7689   -0.1451    1.0075 C   0  0  0  0  0  0  0  0  0  0  0  0
    6.0077    1.0484    1.1808 O   0  0  0  0  0  0  0  0  0  0  0  0
    4.6865    1.0472    0.8322 C   0  0  0  0  0  0  0  0  0  0  0  0
    4.0517    2.2839    0.9702 C   0  0  0  0  0  0  0  0  0  0  0  0
    2.6992    2.4375    0.6526 C   0  0  0  0  0  0  0  0  0  0  0  0
    1.9496    1.3463    0.1931 C   0  0  0  0  0  0  0  0  0  0  0  0
    0.4727    1.5157   -0.1655 C   0  0  0  0  0  0  0  0  0  0  0  0
    0.3940    1.1458   -1.5939 N   0  0  0  0  0  0  0  0  0  0  0  0
   -0.8937    0.9218   -2.0956 C   0  0  0  0  0  0  0  0  0  0  0  0
   -1.1360    1.1180   -3.4550 C   0  0  0  0  0  0  0  0  0  0  0  0
   -2.4143    0.9469   -3.9754 C   0  0  0  0  0  0  0  0  0  0  0  0
   -3.4845    0.6145   -3.1399 C   0  0  0  0  0  0  0  0  0  0  0  0
   -4.7816    0.5421   -3.6757 C   0  0  0  0  0  0  0  0  0  0  0  0
   -5.8809    0.2747   -2.8642 C   0  0  0  0  0  0  0  0  0  0  0  0
   -5.6966    0.0925   -1.5027 C   0  0  0  0  0  0  0  0  0  0  0  0
   -4.4094    0.1496   -0.9612 C   0  0  0  0  0  0  0  0  0  0  0  0
   -3.2583    0.3711   -1.7603 C   0  0  0  0  0  0  0  0  0  0  0  0
   -1.9139    0.4090   -1.2675 C   0  0  0  0  0  0  0  0  0  0  0  0
   -1.5078   -0.0121    0.1142 C   0  0  0  0  0  0  0  0  0  0  0  0
   -0.4732    0.6691    0.6532 C   0  0  0  0  0  0  0  0  0  0  0  0
   -0.2770    0.7090    2.1208 C   0  0  0  0  0  0  0  0  0  0  0  0
    0.3890    1.5858    2.6616 O   0  0  0  0  0  0  0  0  0  0  0  0
   -0.9495   -0.2289    2.8853 O   0  0  0  0  0  0  0  0  0  0  0  0
   -1.7433   -1.2043    2.2713 C   0  0  0  0  0  0  0  0  0  0  0  0
   -2.1934   -2.2466    3.0832 C   0  0  0  0  0  0  0  0  0  0  0  0
   -2.9210   -3.2871    2.5149 C   0  0  0  0  0  0  0  0  0  0  0  0
   -3.1711   -3.2834    1.1445 C   0  0  0  0  0  0  0  0  0  0  0  0
   -2.7148   -2.2264    0.3480 C   0  0  0  0  0  0  0  0  0  0  0  0
   -2.0275   -1.1418    0.9115 C   0  0  0  0  0  0  0  0  0  0  0  0
    2.5947    0.1042    0.0585 C   0  0  0  0  0  0  0  0  0  0  0  0
    3.9498   -0.0440    0.3768 C   0  0  0  0  0  0  0  0  0  0  0  0
    6.9672   -0.4855    3.1321 H   0  0  0  0  0  0  0  0  0  0  0  0
    5.6419   -1.3769    2.3986 H   0  0  0  0  0  0  0  0  0  0  0  0
    7.3131   -1.9127    2.1280 H   0  0  0  0  0  0  0  0  0  0  0  0
    6.5163   -0.6744    0.0823 H   0  0  0  0  0  0  0  0  0  0  0  0
    7.8130    0.1690    0.8956 H   0  0  0  0  0  0  0  0  0  0  0  0
    4.6161    3.1383    1.3363 H   0  0  0  0  0  0  0  0  0  0  0  0
    2.2350    3.4119    0.7864 H   0  0  0  0  0  0  0  0  0  0  0  0
    0.1857    2.5708   -0.0608 H   0  0  0  0  0  0  0  0  0  0  0  0
    0.9472    1.7717   -2.1722 H   0  0  0  0  0  0  0  0  0  0  0  0
   -0.3316    1.4240   -4.1187 H   0  0  0  0  0  0  0  0  0  0  0  0
   -2.5729    1.1213   -5.0375 H   0  0  0  0  0  0  0  0  0  0  0  0
   -4.9491    0.7118   -4.7376 H   0  0  0  0  0  0  0  0  0  0  0  0
   -6.8784    0.2310   -3.2928 H   0  0  0  0  0  0  0  0  0  0  0  0
   -6.5502   -0.0873   -0.8541 H   0  0  0  0  0  0  0  0  0  0  0  0
   -4.3220    0.0406    0.1171 H   0  0  0  0  0  0  0  0  0  0  0  0
   -1.9612   -2.2539    4.1444 H   0  0  0  0  0  0  0  0  0  0  0  0
   -3.2722   -4.1095    3.1327 H   0  0  0  0  0  0  0  0  0  0  0  0
   -3.7139   -4.1081    0.6882 H   0  0  0  0  0  0  0  0  0  0  0  0
   -2.8977   -2.2745   -0.7235 H   0  0  0  0  0  0  0  0  0  0  0  0
    2.0397   -0.7580   -0.3086 H   0  0  0  0  0  0  0  0  0  0  0  0
    4.3901   -1.0277    0.2598 H   0  0  0  0  0  0  0  0  0  0  0  0
  1  2  1  0
  2  3  1  0
  3  4  1  0
  4  5  2  0
  5  6  1  0
  6  7  2  0
  7  8  1  0
  8  9  1  0
  9 10  1  0
 10 11  2  0
 11 12  1  0
 12 13  2  0
 13 14  1  0
 14 15  2  0
 15 16  1  0
 16 17  2  0
 17 18  1  0
 18 19  2  0
 19 20  1  0
 20 21  2  0
 21 22  1  0
 22 23  2  0
 22 24  1  0
 24 25  1  0
 25 26  2  0
 26 27  1  0
 27 28  2  0
 28 29  1  0
 29 30  2  0
  7 31  1  0
 31 32  2  0
 32  4  1  0
 21  8  1  0
 30 25  1  0
 19 10  1  0
 30 20  1  0
 18 13  1  0
  1 33  1  0
  1 34  1  0
  1 35  1  0
  2 36  1  0
  2 37  1  0
  5 38  1  0
  6 39  1  0
  8 40  1  0
  9 41  1  0
 11 42  1  0
 12 43  1  0
 14 44  1  0
 15 45  1  0
 16 46  1  0
 17 47  1  0
 26 48  1  0
 27 49  1  0
 28 50  1  0
 29 51  1  0
 31 52  1  0
 32 53  1  0
M  END
$$$$
