
     RDKit          3D

 41 44  0  0  0  0  0  0  0  0999 V2000
    5.8051    0.8456   -2.5630 C   0  0  0  0  0  0  0  0  0  0  0  0
    5.7257    0.2645   -1.1597 C   0  0  0  0  0  0  0  0  0  0  0  0
    4.3167    0.2864   -0.6234 C   0  0  0  0  0  0  0  0  0  0  0  0
    3.8459    1.3960    0.0883 C   0  0  0  0  0  0  0  0  0  0  0  0
    2.5365    1.4217    0.5746 C   0  0  0  0  0  0  0  0  0  0  0  0
    1.6745    0.3424    0.3459 C   0  0  0  0  0  0  0  0  0  0  0  0
    0.2772    0.4072    0.8764 C   0  0  0  0  0  0  0  0  0  0  0  0
    0.0230    1.1979    1.8785 N   0  0  0  0  0  0  0  0  0  0  0  0
   -1.2442    1.2507    2.3577 C   0  0  0  0  0  0  0  0  0  0  0  0
   -1.7074    1.8051    3.4574 N   0  0  0  0  0  0  0  0  0  0  0  0
   -3.0614    1.6424    3.3614 C   0  0  0  0  0  0  0  0  0  0  0  0
   -3.4906    1.0283    2.2556 N   0  0  0  0  0  0  0  0  0  0  0  0
   -2.3154    0.7420    1.6666 N   0  0  0  0  0  0  0  0  0  0  0  0
   -2.1665    0.1483    0.3471 C   0  0  0  0  0  0  0  0  0  0  0  0
   -3.2799   -0.8182   -0.0045 C   0  0  0  0  0  0  0  0  0  0  0  0
   -4.1308   -0.5548   -1.0920 C   0  0  0  0  0  0  0  0  0  0  0  0
   -5.1610   -1.4434   -1.4123 C   0  0  0  0  0  0  0  0  0  0  0  0
   -6.2931   -1.0715   -2.8802 Br  0  0  0  0  0  0  0  0  0  0  0  0
   -5.3624   -2.6008   -0.6621 C   0  0  0  0  0  0  0  0  0  0  0  0
   -4.5261   -2.8710    0.4196 C   0  0  0  0  0  0  0  0  0  0  0  0
   -3.5000   -1.9849    0.7385 C   0  0  0  0  0  0  0  0  0  0  0  0
   -2.7049   -2.2759    1.7772 F   0  0  0  0  0  0  0  0  0  0  0  0
   -0.7787   -0.4904    0.2407 C   0  0  0  0  0  0  0  0  0  0  0  0
    2.1426   -0.7708   -0.3603 C   0  0  0  0  0  0  0  0  0  0  0  0
    3.4540   -0.7943   -0.8457 C   0  0  0  0  0  0  0  0  0  0  0  0
    6.8372    0.8171   -2.9265 H   0  0  0  0  0  0  0  0  0  0  0  0
    5.4674    1.8873   -2.5814 H   0  0  0  0  0  0  0  0  0  0  0  0
    5.1829    0.2785   -3.2637 H   0  0  0  0  0  0  0  0  0  0  0  0
    6.3853    0.8270   -0.4876 H   0  0  0  0  0  0  0  0  0  0  0  0
    6.1032   -0.7653   -1.1627 H   0  0  0  0  0  0  0  0  0  0  0  0
    4.4968    2.2480    0.2740 H   0  0  0  0  0  0  0  0  0  0  0  0
    2.1968    2.2924    1.1328 H   0  0  0  0  0  0  0  0  0  0  0  0
   -3.7536    1.9943    4.1155 H   0  0  0  0  0  0  0  0  0  0  0  0
   -2.2043    1.0080   -0.3374 H   0  0  0  0  0  0  0  0  0  0  0  0
   -4.0000    0.3490   -1.6838 H   0  0  0  0  0  0  0  0  0  0  0  0
   -6.1657   -3.2908   -0.9069 H   0  0  0  0  0  0  0  0  0  0  0  0
   -4.6691   -3.7638    1.0208 H   0  0  0  0  0  0  0  0  0  0  0  0
   -0.7248   -1.4519    0.7649 H   0  0  0  0  0  0  0  0  0  0  0  0
   -0.5514   -0.6746   -0.8151 H   0  0  0  0  0  0  0  0  0  0  0  0
    1.5173   -1.6419   -0.5312 H   0  0  0  0  0  0  0  0  0  0  0  0
    3.8031   -1.6674   -1.3939 H   0  0  0  0  0  0  0  0  0  0  0  0
  1  2  1  0
  2  3  1  0
  3  4  2  0
  4  5  1  0
  5  6  2  0
  6  7  1  0
  7  8  2  0
  8  9  1  0
  9 10  2  0
 10 11  1  0
 11 12  2  0
 12 13  1  0
 13 14  1  0
 14 15  1  0
 15 16  2  0
 16 17  1  0
 17 18  1  0
 17 19  2  0
 19 20  1  0
 20 21  2  0
 21 22  1  0
 14 23  1  0
  6 24  1  0
 24 25  2  0
 25  3  1  0
 23  7  1  0
 13  9  1  0
 21 15  1  0
  1 26  1  0
  1 27  1  0
  1 28  1  0
  2 29  1  0
  2 30  1  0
  4 31  1  0
  5 32  1  0
 11 33  1  0
 14 34  1  0
 16 35  1  0
 19 36  1  0
 20 37  1  0
 23 38  1  0
 23 39  1  0
 24 40  1  0
 25 41  1  0
M  END
$$$$
