
     RDKit          3D

 40 43  0  0  0  0  0  0  0  0999 V2000
   -4.1931    2.0372    1.7056 C   0  0  0  0  0  0  0  0  0  0  0  0
   -3.0532    1.6349    2.5689 C   0  0  0  0  0  0  0  0  0  0  0  0
   -3.0518    2.0640    3.8931 N   0  0  0  0  0  0  0  0  0  0  0  0
   -1.9747    1.6606    4.5426 N   0  0  0  0  0  0  0  0  0  0  0  0
   -0.9336    0.7781    3.5829 S   0  0  0  0  0  0  0  0  0  0  0  0
   -1.9606    0.8545    2.2106 C   0  0  0  0  0  0  0  0  0  0  0  0
   -1.6530    0.2763    0.9440 C   0  0  0  0  0  0  0  0  0  0  0  0
   -1.9066    0.8723   -0.2083 N   0  0  0  0  0  0  0  0  0  0  0  0
   -1.4160    0.0808   -1.2235 N   0  0  0  0  0  0  0  0  0  0  0  0
   -0.8974   -0.9928   -0.6734 C   0  0  0  0  0  0  0  0  0  0  0  0
   -0.0671   -2.2325   -1.5455 S   0  0  0  0  0  0  0  0  0  0  0  0
    1.6289   -2.0793   -0.9283 C   0  0  0  0  0  0  0  0  0  0  0  0
    2.0272   -0.6479   -0.6401 C   0  0  0  0  0  0  0  0  0  0  0  0
    1.9932   -0.2210    0.5168 O   0  0  0  0  0  0  0  0  0  0  0  0
    2.4518    0.2626   -1.7491 C   0  0  0  0  0  0  0  0  0  0  0  0
    2.5024   -0.1409   -3.0889 C   0  0  0  0  0  0  0  0  0  0  0  0
    2.9036    0.7619   -4.0823 C   0  0  0  0  0  0  0  0  0  0  0  0
    3.2569    2.0732   -3.7476 C   0  0  0  0  0  0  0  0  0  0  0  0
    3.6685    2.9922   -4.7685 C   0  0  0  0  0  0  0  0  0  0  0  0
    4.0087    3.7295   -5.5975 N   0  0  0  0  0  0  0  0  0  0  0  0
    3.2067    2.4805   -2.4125 C   0  0  0  0  0  0  0  0  0  0  0  0
    2.8059    1.5801   -1.4201 C   0  0  0  0  0  0  0  0  0  0  0  0
   -1.0887   -0.9489    0.6806 N   0  0  0  0  0  0  0  0  0  0  0  0
   -0.7498   -2.0059    1.6628 C   0  0  0  0  0  0  0  0  0  0  0  0
   -1.2424   -3.4302    1.5287 C   0  0  0  0  0  0  0  0  0  0  0  0
   -1.7683   -2.5672    2.6316 C   0  0  0  0  0  0  0  0  0  0  0  0
   -3.8637    2.7543    0.9474 H   0  0  0  0  0  0  0  0  0  0  0  0
   -4.6259    1.1669    1.2023 H   0  0  0  0  0  0  0  0  0  0  0  0
   -4.9837    2.5096    2.2974 H   0  0  0  0  0  0  0  0  0  0  0  0
    1.7181   -2.6496    0.0031 H   0  0  0  0  0  0  0  0  0  0  0  0
    2.3327   -2.5410   -1.6269 H   0  0  0  0  0  0  0  0  0  0  0  0
    2.2256   -1.1438   -3.4006 H   0  0  0  0  0  0  0  0  0  0  0  0
    2.9315    0.4344   -5.1210 H   0  0  0  0  0  0  0  0  0  0  0  0
    3.4724    3.4988   -2.1329 H   0  0  0  0  0  0  0  0  0  0  0  0
    2.7651    1.9196   -0.3856 H   0  0  0  0  0  0  0  0  0  0  0  0
    0.2610   -1.8818    2.0452 H   0  0  0  0  0  0  0  0  0  0  0  0
   -0.5596   -4.2308    1.7917 H   0  0  0  0  0  0  0  0  0  0  0  0
   -1.9267   -3.6835    0.7260 H   0  0  0  0  0  0  0  0  0  0  0  0
   -1.4432   -2.7824    3.6441 H   0  0  0  0  0  0  0  0  0  0  0  0
   -2.8013   -2.2428    2.5638 H   0  0  0  0  0  0  0  0  0  0  0  0
  1  2  1  0
  2  3  1  0
  3  4  2  0
  4  5  1  0
  5  6  1  0
  6  7  1  0
  7  8  2  0
  8  9  1  0
  9 10  2  0
 10 11  1  0
 11 12  1  0
 12 13  1  0
 13 14  2  0
 13 15  1  0
 15 16  2  0
 16 17  1  0
 17 18  2  0
 18 19  1  0
 19 20  3  0
 18 21  1  0
 21 22  2  0
 10 23  1  0
 23 24  1  0
 24 25  1  0
 25 26  1  0
  6  2  2  0
 23  7  1  0
 26 24  1  0
 22 15  1  0
  1 27  1  0
  1 28  1  0
  1 29  1  0
 12 30  1  0
 12 31  1  0
 16 32  1  0
 17 33  1  0
 21 34  1  0
 22 35  1  0
 24 36  1  0
 25 37  1  0
 25 38  1  0
 26 39  1  0
 26 40  1  0
M  END
$$$$
