
     RDKit          3D

 44 46  0  0  0  0  0  0  0  0999 V2000
    4.6250    1.1537   -1.1838 C   0  0  0  0  0  0  0  0  0  0  0  0
    3.5156    0.1841   -0.7546 C   0  0  0  0  0  0  0  0  0  0  0  0
    4.0556   -0.7926    0.2963 C   0  0  0  0  0  0  0  0  0  0  0  0
    3.0609   -0.6322   -1.9785 C   0  0  0  0  0  0  0  0  0  0  0  0
    2.3261    1.0184   -0.2353 C   0  0  0  0  0  0  0  0  0  0  0  0
    1.3505    1.2624   -0.9564 O   0  0  0  0  0  0  0  0  0  0  0  0
    2.3848    1.6240    1.1558 C   0  0  0  0  0  0  0  0  0  0  0  0
    1.6481    0.5573    2.4302 S   0  0  0  0  0  0  0  0  0  0  0  0
    0.1656    0.0324    1.5801 C   0  0  0  0  0  0  0  0  0  0  0  0
    0.2852   -1.2081    1.0373 N   0  0  0  0  0  0  0  0  0  0  0  0
   -0.7747   -1.6526    0.3503 C   0  0  0  0  0  0  0  0  0  0  0  0
   -1.9606   -0.9528    0.1855 C   0  0  0  0  0  0  0  0  0  0  0  0
   -2.0945    0.3029    0.7640 C   0  0  0  0  0  0  0  0  0  0  0  0
   -3.3500    1.0402    0.6298 C   0  0  0  0  0  0  0  0  0  0  0  0
   -4.4739    0.9861    1.4293 C   0  0  0  0  0  0  0  0  0  0  0  0
   -5.5019    1.8620    0.9725 C   0  0  0  0  0  0  0  0  0  0  0  0
   -5.1277    2.5500   -0.1602 C   0  0  0  0  0  0  0  0  0  0  0  0
   -3.5474    2.1390   -0.6692 S   0  0  0  0  0  0  0  0  0  0  0  0
   -0.9966    0.8148    1.4820 C   0  0  0  0  0  0  0  0  0  0  0  0
   -1.0635    2.1025    2.1058 C   0  0  0  0  0  0  0  0  0  0  0  0
   -1.1050    3.1436    2.6187 N   0  0  0  0  0  0  0  0  0  0  0  0
   -2.9436   -1.7607   -0.6024 C   0  0  0  0  0  0  0  0  0  0  0  0
   -2.0230   -2.7994   -1.2609 C   0  0  0  0  0  0  0  0  0  0  0  0
   -0.8426   -3.0026   -0.3046 C   0  0  0  0  0  0  0  0  0  0  0  0
    5.4696    0.6182   -1.6316 H   0  0  0  0  0  0  0  0  0  0  0  0
    4.2554    1.8760   -1.9210 H   0  0  0  0  0  0  0  0  0  0  0  0
    5.0089    1.7276   -0.3333 H   0  0  0  0  0  0  0  0  0  0  0  0
    4.8677   -1.4038   -0.1147 H   0  0  0  0  0  0  0  0  0  0  0  0
    3.2731   -1.4758    0.6432 H   0  0  0  0  0  0  0  0  0  0  0  0
    4.4588   -0.2721    1.1710 H   0  0  0  0  0  0  0  0  0  0  0  0
    3.8780   -1.2457   -2.3746 H   0  0  0  0  0  0  0  0  0  0  0  0
    2.2321   -1.3014   -1.7195 H   0  0  0  0  0  0  0  0  0  0  0  0
    2.7148    0.0186   -2.7898 H   0  0  0  0  0  0  0  0  0  0  0  0
    1.8500    2.5797    1.1335 H   0  0  0  0  0  0  0  0  0  0  0  0
    3.4185    1.8560    1.4247 H   0  0  0  0  0  0  0  0  0  0  0  0
   -4.5575    0.3539    2.3054 H   0  0  0  0  0  0  0  0  0  0  0  0
   -6.4651    1.9845    1.4527 H   0  0  0  0  0  0  0  0  0  0  0  0
   -5.7041    3.2779   -0.7149 H   0  0  0  0  0  0  0  0  0  0  0  0
   -3.6622   -2.2406    0.0700 H   0  0  0  0  0  0  0  0  0  0  0  0
   -3.4718   -1.1737   -1.3586 H   0  0  0  0  0  0  0  0  0  0  0  0
   -2.5434   -3.7347   -1.4889 H   0  0  0  0  0  0  0  0  0  0  0  0
   -1.6495   -2.3965   -2.2128 H   0  0  0  0  0  0  0  0  0  0  0  0
   -1.0641   -3.7687    0.4451 H   0  0  0  0  0  0  0  0  0  0  0  0
    0.0786   -3.2519   -0.8376 H   0  0  0  0  0  0  0  0  0  0  0  0
  1  2  1  0
  2  3  1  0
  2  4  1  0
  2  5  1  0
  5  6  2  0
  5  7  1  0
  7  8  1  0
  8  9  1  0
  9 10  2  0
 10 11  1  0
 11 12  2  0
 12 13  1  0
 13 14  1  0
 14 15  2  0
 15 16  1  0
 16 17  2  0
 17 18  1  0
 13 19  2  0
 19 20  1  0
 20 21  3  0
 12 22  1  0
 22 23  1  0
 23 24  1  0
 19  9  1  0
 24 11  1  0
 18 14  1  0
  1 25  1  0
  1 26  1  0
  1 27  1  0
  3 28  1  0
  3 29  1  0
  3 30  1  0
  4 31  1  0
  4 32  1  0
  4 33  1  0
  7 34  1  0
  7 35  1  0
 15 36  1  0
 16 37  1  0
 17 38  1  0
 22 39  1  0
 22 40  1  0
 23 41  1  0
 23 42  1  0
 24 43  1  0
 24 44  1  0
M  END
$$$$
