
     RDKit          3D

 53 56  0  0  0  0  0  0  0  0999 V2000
   -1.9909   -2.6423    1.2266 C   0  0  0  0  0  0  0  0  0  0  0  0
   -0.8401   -1.7239    1.6256 C   0  0  0  0  0  0  0  0  0  0  0  0
   -0.2907   -0.9840    0.4685 N   0  0  0  0  0  0  0  0  0  0  0  0
    0.5200   -1.5872   -0.5060 C   0  0  0  0  0  0  0  0  0  0  0  0
    0.9187   -0.9536   -1.4930 O   0  0  0  0  0  0  0  0  0  0  0  0
    0.8369   -3.0790   -0.3759 C   0  0  0  0  0  0  0  0  0  0  0  0
    2.4629   -3.4869   -1.0931 S   0  0  0  0  0  0  0  0  0  0  0  0
    3.5037   -2.7769    0.0940 C   0  0  0  0  0  0  0  0  0  0  0  0
    3.1372   -2.3541    1.2833 N   0  0  0  0  0  0  0  0  0  0  0  0
    4.2603   -1.8827    1.9267 N   0  0  0  0  0  0  0  0  0  0  0  0
    5.2846   -2.0405    1.1167 C   0  0  0  0  0  0  0  0  0  0  0  0
    6.6722   -1.7593    1.2542 C   0  0  0  0  0  0  0  0  0  0  0  0
    7.5125   -2.0455    0.2391 C   0  0  0  0  0  0  0  0  0  0  0  0
    7.0338   -2.6343   -1.0029 C   0  0  0  0  0  0  0  0  0  0  0  0
    5.7221   -2.8979   -1.1380 C   0  0  0  0  0  0  0  0  0  0  0  0
    4.8563   -2.6048   -0.0799 N   0  0  0  0  0  0  0  0  0  0  0  0
   -0.4950    0.4181    0.4517 C   0  0  0  0  0  0  0  0  0  0  0  0
   -1.0350    1.1137   -0.5898 C   0  0  0  0  0  0  0  0  0  0  0  0
   -1.3944    0.4727   -1.7798 N   0  0  0  0  0  0  0  0  0  0  0  0
   -1.2754    2.4867   -0.4566 N   0  0  0  0  0  0  0  0  0  0  0  0
   -2.1464    3.2025   -1.3976 C   0  0  0  0  0  0  0  0  0  0  0  0
   -3.6113    3.1190   -1.0196 C   0  0  0  0  0  0  0  0  0  0  0  0
   -4.4125    2.0657   -1.4835 C   0  0  0  0  0  0  0  0  0  0  0  0
   -5.7581    1.9834   -1.1214 C   0  0  0  0  0  0  0  0  0  0  0  0
   -6.3170    2.9511   -0.2878 C   0  0  0  0  0  0  0  0  0  0  0  0
   -5.5311    3.9995    0.1856 C   0  0  0  0  0  0  0  0  0  0  0  0
   -4.1858    4.0829   -0.1770 C   0  0  0  0  0  0  0  0  0  0  0  0
   -0.8311    3.2240    0.6315 C   0  0  0  0  0  0  0  0  0  0  0  0
   -1.0506    4.4221    0.8054 O   0  0  0  0  0  0  0  0  0  0  0  0
   -0.1173    2.5461    1.5653 N   0  0  0  0  0  0  0  0  0  0  0  0
   -0.0918    1.1948    1.6739 C   0  0  0  0  0  0  0  0  0  0  0  0
    0.2734    0.6685    2.7224 O   0  0  0  0  0  0  0  0  0  0  0  0
   -1.6869   -3.4116    0.5128 H   0  0  0  0  0  0  0  0  0  0  0  0
   -2.3949   -3.1478    2.1108 H   0  0  0  0  0  0  0  0  0  0  0  0
   -2.8014   -2.0646    0.7668 H   0  0  0  0  0  0  0  0  0  0  0  0
   -0.0383   -2.2826    2.1162 H   0  0  0  0  0  0  0  0  0  0  0  0
   -1.2541   -1.0341    2.3678 H   0  0  0  0  0  0  0  0  0  0  0  0
    0.0782   -3.6262   -0.9439 H   0  0  0  0  0  0  0  0  0  0  0  0
    0.8194   -3.4414    0.6522 H   0  0  0  0  0  0  0  0  0  0  0  0
    7.0253   -1.3221    2.1817 H   0  0  0  0  0  0  0  0  0  0  0  0
    8.5778   -1.8408    0.3256 H   0  0  0  0  0  0  0  0  0  0  0  0
    7.7470   -2.8475   -1.7926 H   0  0  0  0  0  0  0  0  0  0  0  0
    5.2990   -3.3364   -2.0329 H   0  0  0  0  0  0  0  0  0  0  0  0
   -1.1591    1.0569   -2.5773 H   0  0  0  0  0  0  0  0  0  0  0  0
   -0.8308   -0.3744   -1.8903 H   0  0  0  0  0  0  0  0  0  0  0  0
   -2.0012    2.8489   -2.4226 H   0  0  0  0  0  0  0  0  0  0  0  0
   -1.8515    4.2587   -1.4389 H   0  0  0  0  0  0  0  0  0  0  0  0
   -3.9906    1.2968   -2.1262 H   0  0  0  0  0  0  0  0  0  0  0  0
   -6.3679    1.1612   -1.4860 H   0  0  0  0  0  0  0  0  0  0  0  0
   -7.3643    2.8865   -0.0048 H   0  0  0  0  0  0  0  0  0  0  0  0
   -5.9631    4.7526    0.8414 H   0  0  0  0  0  0  0  0  0  0  0  0
   -3.5848    4.9064    0.2073 H   0  0  0  0  0  0  0  0  0  0  0  0
    0.1223    3.0637    2.3964 H   0  0  0  0  0  0  0  0  0  0  0  0
  1  2  1  0
  2  3  1  0
  3  4  1  0
  4  5  2  0
  4  6  1  0
  6  7  1  0
  7  8  1  0
  8  9  2  0
  9 10  1  0
 10 11  2  0
 11 12  1  0
 12 13  2  0
 13 14  1  0
 14 15  2  0
 15 16  1  0
  3 17  1  0
 17 18  2  0
 18 19  1  0
 18 20  1  0
 20 21  1  0
 21 22  1  0
 22 23  2  0
 23 24  1  0
 24 25  2  0
 25 26  1  0
 26 27  2  0
 20 28  1  0
 28 29  2  0
 28 30  1  0
 30 31  1  0
 31 32  2  0
 16  8  1  0
 31 17  1  0
 16 11  1  0
 27 22  1  0
  1 33  1  0
  1 34  1  0
  1 35  1  0
  2 36  1  0
  2 37  1  0
  6 38  1  0
  6 39  1  0
 12 40  1  0
 13 41  1  0
 14 42  1  0
 15 43  1  0
 19 44  1  0
 19 45  1  0
 21 46  1  0
 21 47  1  0
 23 48  1  0
 24 49  1  0
 25 50  1  0
 26 51  1  0
 27 52  1  0
 30 53  1  0
M  END
$$$$
