
     RDKit          3D

 54 58  0  0  0  0  0  0  0  0999 V2000
    6.5259   -1.7513    0.8708 C   0  0  0  0  0  0  0  0  0  0  0  0
    5.3275   -1.1306    0.1710 C   0  0  0  0  0  0  0  0  0  0  0  0
    4.0041   -1.6276    0.7351 C   0  0  0  0  0  0  0  0  0  0  0  0
    3.9628   -2.5212    1.5805 O   0  0  0  0  0  0  0  0  0  0  0  0
    2.8525   -1.0199    0.2423 N   0  0  0  0  0  0  0  0  0  0  0  0
    1.5576   -1.4163    0.7910 C   0  0  0  0  0  0  0  0  0  0  0  0
    0.6446   -0.2039    0.9175 C   0  0  0  0  0  0  0  0  0  0  0  0
    0.3330    0.4686   -0.4528 C   0  0  0  0  0  0  0  0  0  0  0  0
    1.4957    0.1655   -1.4510 C   0  0  0  0  0  0  0  0  0  0  0  0
    2.8471    0.0492   -0.7525 C   0  0  0  0  0  0  0  0  0  0  0  0
    0.3176    1.8924   -0.1565 O   0  0  0  0  0  0  0  0  0  0  0  0
   -0.1758    2.7133   -1.1317 C   0  0  0  0  0  0  0  0  0  0  0  0
    0.1197    4.0695   -1.0007 C   0  0  0  0  0  0  0  0  0  0  0  0
   -0.3216    4.9770   -1.9669 C   0  0  0  0  0  0  0  0  0  0  0  0
   -1.0613    4.5249   -3.0603 C   0  0  0  0  0  0  0  0  0  0  0  0
   -1.5986    5.6470   -4.2472 Cl  0  0  0  0  0  0  0  0  0  0  0  0
   -1.3739    3.1744   -3.1923 C   0  0  0  0  0  0  0  0  0  0  0  0
   -0.9359    2.2747   -2.2156 C   0  0  0  0  0  0  0  0  0  0  0  0
   -1.2909    0.8456   -2.3016 C   0  0  0  0  0  0  0  0  0  0  0  0
   -1.7914    0.4053   -3.3304 O   0  0  0  0  0  0  0  0  0  0  0  0
   -1.0466    0.0358   -1.0325 C   0  0  0  0  0  0  0  0  0  0  0  0
   -2.2564    0.2423   -0.1251 C   0  0  0  0  0  0  0  0  0  0  0  0
   -2.5282   -1.1731    0.2486 C   0  0  0  0  0  0  0  0  0  0  0  0
   -3.5087   -1.5351    1.2990 C   0  0  0  0  0  0  0  0  0  0  0  0
   -3.6386   -2.8805    1.6704 C   0  0  0  0  0  0  0  0  0  0  0  0
   -4.5512   -3.2543    2.6607 C   0  0  0  0  0  0  0  0  0  0  0  0
   -5.3360   -2.2841    3.2790 C   0  0  0  0  0  0  0  0  0  0  0  0
   -6.4599   -2.7404    4.4980 Cl  0  0  0  0  0  0  0  0  0  0  0  0
   -5.2169   -0.9436    2.9142 C   0  0  0  0  0  0  0  0  0  0  0  0
   -4.3038   -0.5666    1.9235 C   0  0  0  0  0  0  0  0  0  0  0  0
   -1.8382   -2.0499   -0.4054 N   0  0  0  0  0  0  0  0  0  0  0  0
   -1.0411   -1.3596   -1.3438 O   0  0  0  0  0  0  0  0  0  0  0  0
    6.5173   -1.5228    1.9417 H   0  0  0  0  0  0  0  0  0  0  0  0
    6.5265   -2.8407    0.7596 H   0  0  0  0  0  0  0  0  0  0  0  0
    7.4572   -1.3647    0.4456 H   0  0  0  0  0  0  0  0  0  0  0  0
    5.3716   -1.3852   -0.8930 H   0  0  0  0  0  0  0  0  0  0  0  0
    5.3781   -0.0424    0.2821 H   0  0  0  0  0  0  0  0  0  0  0  0
    1.6857   -1.8810    1.7742 H   0  0  0  0  0  0  0  0  0  0  0  0
    1.1310   -2.1743    0.1255 H   0  0  0  0  0  0  0  0  0  0  0  0
   -0.2643   -0.4903    1.4521 H   0  0  0  0  0  0  0  0  0  0  0  0
    1.1350    0.5261    1.5779 H   0  0  0  0  0  0  0  0  0  0  0  0
    1.3077   -0.7779   -1.9788 H   0  0  0  0  0  0  0  0  0  0  0  0
    1.5801    0.9447   -2.2162 H   0  0  0  0  0  0  0  0  0  0  0  0
    3.0991    0.9830   -0.2366 H   0  0  0  0  0  0  0  0  0  0  0  0
    3.6246   -0.1372   -1.4990 H   0  0  0  0  0  0  0  0  0  0  0  0
    0.7039    4.4226   -0.1538 H   0  0  0  0  0  0  0  0  0  0  0  0
   -0.0822    6.0330   -1.8638 H   0  0  0  0  0  0  0  0  0  0  0  0
   -1.9592    2.8247   -4.0402 H   0  0  0  0  0  0  0  0  0  0  0  0
   -2.0457    0.8675    0.7461 H   0  0  0  0  0  0  0  0  0  0  0  0
   -3.1309    0.6405   -0.6516 H   0  0  0  0  0  0  0  0  0  0  0  0
   -3.0320   -3.6478    1.1917 H   0  0  0  0  0  0  0  0  0  0  0  0
   -4.6431   -4.3008    2.9404 H   0  0  0  0  0  0  0  0  0  0  0  0
   -5.8338   -0.1887    3.3957 H   0  0  0  0  0  0  0  0  0  0  0  0
   -4.2397    0.4839    1.6555 H   0  0  0  0  0  0  0  0  0  0  0  0
  1  2  1  0
  2  3  1  0
  3  4  2  0
  3  5  1  0
  5  6  1  0
  6  7  1  0
  7  8  1  0
  8  9  1  0
  9 10  1  0
  8 11  1  0
 11 12  1  0
 12 13  2  0
 13 14  1  0
 14 15  2  0
 15 16  1  0
 15 17  1  0
 17 18  2  0
 18 19  1  0
 19 20  2  0
 19 21  1  0
 21 22  1  0
 22 23  1  0
 23 24  1  0
 24 25  2  0
 25 26  1  0
 26 27  2  0
 27 28  1  0
 27 29  1  0
 29 30  2  0
 23 31  2  0
 31 32  1  0
 10  5  1  0
 18 12  1  0
 32 21  1  0
 21  8  1  0
 30 24  1  0
  1 33  1  0
  1 34  1  0
  1 35  1  0
  2 36  1  0
  2 37  1  0
  6 38  1  0
  6 39  1  0
  7 40  1  0
  7 41  1  0
  9 42  1  0
  9 43  1  0
 10 44  1  0
 10 45  1  0
 13 46  1  0
 14 47  1  0
 17 48  1  0
 22 49  1  0
 22 50  1  0
 25 51  1  0
 26 52  1  0
 29 53  1  0
 30 54  1  0
M  END
$$$$
