
     RDKit          3D

 56 60  0  0  0  0  0  0  0  0999 V2000
    7.6562   -3.1108    0.2907 C   0  0  0  0  0  0  0  0  0  0  0  0
    6.5934   -2.0770    0.3245 C   0  0  0  0  0  0  0  0  0  0  0  0
    6.0756   -1.6068   -0.8175 N   0  0  0  0  0  0  0  0  0  0  0  0
    5.1451   -0.7077   -0.4197 N   0  0  0  0  0  0  0  0  0  0  0  0
    4.3868    0.0139   -1.4380 C   0  0  0  0  0  0  0  0  0  0  0  0
    2.9996   -0.5533   -1.6185 C   0  0  0  0  0  0  0  0  0  0  0  0
    2.8163   -1.8492   -2.1240 C   0  0  0  0  0  0  0  0  0  0  0  0
    1.5336   -2.3681   -2.3067 C   0  0  0  0  0  0  0  0  0  0  0  0
    0.4143   -1.6021   -1.9791 C   0  0  0  0  0  0  0  0  0  0  0  0
    0.5789   -0.3129   -1.4596 C   0  0  0  0  0  0  0  0  0  0  0  0
   -0.5823    0.5435   -1.0882 C   0  0  0  0  0  0  0  0  0  0  0  0
   -0.4711    1.7622   -1.1401 O   0  0  0  0  0  0  0  0  0  0  0  0
   -1.7118   -0.1243   -0.6596 N   0  0  0  0  0  0  0  0  0  0  0  0
   -2.9247    0.5346   -0.1606 C   0  0  0  0  0  0  0  0  0  0  0  0
   -3.5570    1.4686   -1.2237 C   0  0  0  0  0  0  0  0  0  0  0  0
   -4.8528    2.1021   -0.6864 C   0  0  0  0  0  0  0  0  0  0  0  0
   -5.8584    0.9916   -0.3460 C   0  0  0  0  0  0  0  0  0  0  0  0
   -5.2669    0.0587    0.7217 C   0  0  0  0  0  0  0  0  0  0  0  0
   -4.9507    0.8697    1.9882 C   0  0  0  0  0  0  0  0  0  0  0  0
   -3.9398    1.9803    1.6619 C   0  0  0  0  0  0  0  0  0  0  0  0
   -4.5331    2.9056    0.5858 C   0  0  0  0  0  0  0  0  0  0  0  0
   -2.6430    1.3470    1.1273 C   0  0  0  0  0  0  0  0  0  0  0  0
   -3.9683   -0.5629    0.1840 C   0  0  0  0  0  0  0  0  0  0  0  0
    1.8687    0.2126   -1.2981 C   0  0  0  0  0  0  0  0  0  0  0  0
    5.0670   -0.5719    0.9484 C   0  0  0  0  0  0  0  0  0  0  0  0
    4.1295    0.3520    1.6323 C   0  0  0  0  0  0  0  0  0  0  0  0
    5.9937   -1.4615    1.4404 C   0  0  0  0  0  0  0  0  0  0  0  0
    6.4112   -1.8221    3.2307 Br  0  0  0  0  0  0  0  0  0  0  0  0
    8.5558   -2.7536    0.8016 H   0  0  0  0  0  0  0  0  0  0  0  0
    7.9346   -3.3682   -0.7366 H   0  0  0  0  0  0  0  0  0  0  0  0
    7.3156   -4.0261    0.7850 H   0  0  0  0  0  0  0  0  0  0  0  0
    4.9415   -0.0420   -2.3824 H   0  0  0  0  0  0  0  0  0  0  0  0
    4.3627    1.0683   -1.1421 H   0  0  0  0  0  0  0  0  0  0  0  0
    3.6804   -2.4620   -2.3822 H   0  0  0  0  0  0  0  0  0  0  0  0
    1.4096   -3.3694   -2.7128 H   0  0  0  0  0  0  0  0  0  0  0  0
   -0.5745   -2.0132   -2.1606 H   0  0  0  0  0  0  0  0  0  0  0  0
   -1.6022   -1.1015   -0.4241 H   0  0  0  0  0  0  0  0  0  0  0  0
   -2.8647    2.2692   -1.5078 H   0  0  0  0  0  0  0  0  0  0  0  0
   -3.7687    0.9056   -2.1421 H   0  0  0  0  0  0  0  0  0  0  0  0
   -5.2803    2.7669   -1.4453 H   0  0  0  0  0  0  0  0  0  0  0  0
   -6.1055    0.4197   -1.2488 H   0  0  0  0  0  0  0  0  0  0  0  0
   -6.7947    1.4323    0.0181 H   0  0  0  0  0  0  0  0  0  0  0  0
   -5.9855   -0.7333    0.9599 H   0  0  0  0  0  0  0  0  0  0  0  0
   -4.5449    0.2098    2.7649 H   0  0  0  0  0  0  0  0  0  0  0  0
   -5.8716    1.3080    2.3922 H   0  0  0  0  0  0  0  0  0  0  0  0
   -3.7217    2.5582    2.5669 H   0  0  0  0  0  0  0  0  0  0  0  0
   -3.8259    3.7110    0.3526 H   0  0  0  0  0  0  0  0  0  0  0  0
   -5.4450    3.3829    0.9652 H   0  0  0  0  0  0  0  0  0  0  0  0
   -2.2012    0.6970    1.8941 H   0  0  0  0  0  0  0  0  0  0  0  0
   -1.9092    2.1393    0.9376 H   0  0  0  0  0  0  0  0  0  0  0  0
   -4.1869   -1.1686   -0.7054 H   0  0  0  0  0  0  0  0  0  0  0  0
   -3.5553   -1.2543    0.9306 H   0  0  0  0  0  0  0  0  0  0  0  0
    1.9828    1.2253   -0.9132 H   0  0  0  0  0  0  0  0  0  0  0  0
    4.1703    1.3539    1.1943 H   0  0  0  0  0  0  0  0  0  0  0  0
    4.3707    0.4540    2.6946 H   0  0  0  0  0  0  0  0  0  0  0  0
    3.1035   -0.0210    1.5591 H   0  0  0  0  0  0  0  0  0  0  0  0
  1  2  1  0
  2  3  2  0
  3  4  1  0
  4  5  1  0
  5  6  1  0
  6  7  2  0
  7  8  1  0
  8  9  2  0
  9 10  1  0
 10 11  1  0
 11 12  2  0
 11 13  1  0
 13 14  1  0
 14 15  1  0
 15 16  1  0
 16 17  1  0
 17 18  1  0
 18 19  1  0
 19 20  1  0
 20 21  1  0
 20 22  1  0
 18 23  1  0
 10 24  2  0
  4 25  1  0
 25 26  1  0
 25 27  2  0
 27 28  1  0
 27  2  1  0
 24  6  1  0
 22 14  1  0
 23 14  1  0
 21 16  1  0
  1 29  1  0
  1 30  1  0
  1 31  1  0
  5 32  1  0
  5 33  1  0
  7 34  1  0
  8 35  1  0
  9 36  1  0
 13 37  1  0
 15 38  1  0
 15 39  1  0
 16 40  1  0
 17 41  1  0
 17 42  1  0
 18 43  1  0
 19 44  1  0
 19 45  1  0
 20 46  1  0
 21 47  1  0
 21 48  1  0
 22 49  1  0
 22 50  1  0
 23 51  1  0
 23 52  1  0
 24 53  1  0
 26 54  1  0
 26 55  1  0
 26 56  1  0
M  END
$$$$
