
     RDKit          3D

 51 53  0  0  0  0  0  0  0  0999 V2000
   -1.8086    5.9050   -2.6742 C   0  0  0  0  0  0  0  0  0  0  0  0
   -1.8509    5.6303   -1.1770 C   0  0  0  0  0  0  0  0  0  0  0  0
   -1.2690    4.2726   -0.7808 C   0  0  0  0  0  0  0  0  0  0  0  0
   -2.3046    2.8871   -1.3659 S   0  0  0  0  0  0  0  0  0  0  0  0
   -1.3749    1.4909   -0.7451 C   0  0  0  0  0  0  0  0  0  0  0  0
   -1.8530    0.2219   -0.9911 C   0  0  0  0  0  0  0  0  0  0  0  0
   -1.1184   -0.8425   -0.5084 C   0  0  0  0  0  0  0  0  0  0  0  0
   -1.5431   -2.1531   -0.6984 N   0  0  0  0  0  0  0  0  0  0  0  0
   -2.1600   -2.5368   -1.9811 C   0  0  0  0  0  0  0  0  0  0  0  0
   -1.5962   -3.8748   -2.5177 C   0  0  0  0  0  0  0  0  0  0  0  0
   -1.6242   -5.0128   -1.5779 N   0  0  0  0  0  0  0  0  0  0  0  0
   -2.8243   -5.8280   -1.7411 C   0  0  0  0  0  0  0  0  0  0  0  0
   -1.4860   -4.5623   -0.1740 C   0  0  0  0  0  0  0  0  0  0  0  0
   -0.7685   -3.2032   -0.0156 C   0  0  0  0  0  0  0  0  0  0  0  0
    0.0030   -0.6226    0.1984 N   0  0  0  0  0  0  0  0  0  0  0  0
    0.4043    0.6472    0.3938 C   0  0  0  0  0  0  0  0  0  0  0  0
    1.6485    0.8663    1.1606 C   0  0  0  0  0  0  0  0  0  0  0  0
    2.4188   -0.2102    1.6400 C   0  0  0  0  0  0  0  0  0  0  0  0
    3.6014   -0.0093    2.3676 C   0  0  0  0  0  0  0  0  0  0  0  0
    4.0466    1.2820    2.6365 C   0  0  0  0  0  0  0  0  0  0  0  0
    5.1748    1.6188    3.3308 O   0  0  0  0  0  0  0  0  0  0  0  0
    5.9770    0.5477    3.8113 C   0  0  0  0  0  0  0  0  0  0  0  0
    3.3001    2.3638    2.1723 C   0  0  0  0  0  0  0  0  0  0  0  0
    2.1208    2.1601    1.4458 C   0  0  0  0  0  0  0  0  0  0  0  0
   -0.2478    1.7263   -0.0621 N   0  0  0  0  0  0  0  0  0  0  0  0
   -2.4600    5.2248   -3.2308 H   0  0  0  0  0  0  0  0  0  0  0  0
   -2.1467    6.9265   -2.8769 H   0  0  0  0  0  0  0  0  0  0  0  0
   -0.7902    5.8040   -3.0628 H   0  0  0  0  0  0  0  0  0  0  0  0
   -1.2668    6.4103   -0.6732 H   0  0  0  0  0  0  0  0  0  0  0  0
   -2.8800    5.7295   -0.8114 H   0  0  0  0  0  0  0  0  0  0  0  0
   -1.2073    4.2236    0.3117 H   0  0  0  0  0  0  0  0  0  0  0  0
   -0.2568    4.1713   -1.1870 H   0  0  0  0  0  0  0  0  0  0  0  0
   -2.7830    0.0737   -1.5228 H   0  0  0  0  0  0  0  0  0  0  0  0
   -3.2426   -2.6259   -1.8336 H   0  0  0  0  0  0  0  0  0  0  0  0
   -1.9919   -1.7797   -2.7566 H   0  0  0  0  0  0  0  0  0  0  0  0
   -2.0927   -4.1311   -3.4617 H   0  0  0  0  0  0  0  0  0  0  0  0
   -0.5432   -3.7103   -2.7831 H   0  0  0  0  0  0  0  0  0  0  0  0
   -3.7421   -5.2578   -1.5590 H   0  0  0  0  0  0  0  0  0  0  0  0
   -2.8042   -6.6820   -1.0547 H   0  0  0  0  0  0  0  0  0  0  0  0
   -2.8721   -6.2425   -2.7542 H   0  0  0  0  0  0  0  0  0  0  0  0
   -2.4746   -4.4674    0.2965 H   0  0  0  0  0  0  0  0  0  0  0  0
   -0.9364   -5.3289    0.3839 H   0  0  0  0  0  0  0  0  0  0  0  0
    0.2483   -3.2652   -0.4250 H   0  0  0  0  0  0  0  0  0  0  0  0
   -0.6922   -2.9833    1.0566 H   0  0  0  0  0  0  0  0  0  0  0  0
    2.0980   -1.2330    1.4461 H   0  0  0  0  0  0  0  0  0  0  0  0
    4.1439   -0.8855    2.7057 H   0  0  0  0  0  0  0  0  0  0  0  0
    5.4256   -0.0673    4.5299 H   0  0  0  0  0  0  0  0  0  0  0  0
    6.8351    0.9810    4.3339 H   0  0  0  0  0  0  0  0  0  0  0  0
    6.3621   -0.0589    2.9849 H   0  0  0  0  0  0  0  0  0  0  0  0
    3.6363    3.3777    2.3756 H   0  0  0  0  0  0  0  0  0  0  0  0
    1.5674    3.0322    1.1015 H   0  0  0  0  0  0  0  0  0  0  0  0
  1  2  1  0
  2  3  1  0
  3  4  1  0
  4  5  1  0
  5  6  2  0
  6  7  1  0
  7  8  1  0
  8  9  1  0
  9 10  1  0
 10 11  1  0
 11 12  1  0
 11 13  1  0
 13 14  1  0
  7 15  2  0
 15 16  1  0
 16 17  1  0
 17 18  2  0
 18 19  1  0
 19 20  2  0
 20 21  1  0
 21 22  1  0
 20 23  1  0
 23 24  2  0
 16 25  2  0
 25  5  1  0
 14  8  1  0
 24 17  1  0
  1 26  1  0
  1 27  1  0
  1 28  1  0
  2 29  1  0
  2 30  1  0
  3 31  1  0
  3 32  1  0
  6 33  1  0
  9 34  1  0
  9 35  1  0
 10 36  1  0
 10 37  1  0
 12 38  1  0
 12 39  1  0
 12 40  1  0
 13 41  1  0
 13 42  1  0
 14 43  1  0
 14 44  1  0
 18 45  1  0
 19 46  1  0
 22 47  1  0
 22 48  1  0
 22 49  1  0
 23 50  1  0
 24 51  1  0
M  END
$$$$
