
     RDKit          3D

 50 52  0  0  0  0  0  0  0  0999 V2000
   -3.9068   -2.9641    0.3755 C   0  0  0  0  0  0  0  0  0  0  0  0
   -2.8989   -1.9938    0.9834 C   0  0  0  0  0  0  0  0  0  0  0  0
   -2.7339   -0.6771    0.1920 C   0  0  0  0  0  0  0  0  0  0  0  0
   -4.0125    0.1524    0.0907 C   0  0  0  0  0  0  0  0  0  0  0  0
   -4.6567    0.6016    1.2592 C   0  0  0  0  0  0  0  0  0  0  0  0
   -5.8331    1.3518    1.1959 C   0  0  0  0  0  0  0  0  0  0  0  0
   -6.3914    1.6694   -0.0374 C   0  0  0  0  0  0  0  0  0  0  0  0
   -5.7719    1.2394   -1.2072 C   0  0  0  0  0  0  0  0  0  0  0  0
   -4.5942    0.4889   -1.1447 C   0  0  0  0  0  0  0  0  0  0  0  0
   -2.1208   -0.9383   -1.0991 N   0  0  0  0  0  0  0  0  0  0  0  0
   -0.8327   -0.4749   -1.1834 C   0  0  0  0  0  0  0  0  0  0  0  0
   -0.0987   -0.6675   -2.1388 O   0  0  0  0  0  0  0  0  0  0  0  0
   -0.5406    0.2073   -0.0486 N   0  0  0  0  0  0  0  0  0  0  0  0
    0.7627    0.7483    0.2547 C   0  0  0  0  0  0  0  0  0  0  0  0
    1.6365   -0.3457    0.8887 C   0  0  0  0  0  0  0  0  0  0  0  0
    1.1644   -1.4489    1.1809 O   0  0  0  0  0  0  0  0  0  0  0  0
    2.9706   -0.0312    1.1407 N   0  0  0  0  0  0  0  0  0  0  0  0
    3.8274   -1.0564    1.7216 C   0  0  0  0  0  0  0  0  0  0  0  0
    3.6318    1.1999    0.7035 C   0  0  0  0  0  0  0  0  0  0  0  0
    4.5323    1.0146   -0.4971 C   0  0  0  0  0  0  0  0  0  0  0  0
    5.8190    1.5773   -0.4946 C   0  0  0  0  0  0  0  0  0  0  0  0
    6.6607    1.4373   -1.6000 C   0  0  0  0  0  0  0  0  0  0  0  0
    6.2258    0.7404   -2.7245 C   0  0  0  0  0  0  0  0  0  0  0  0
    4.9471    0.1885   -2.7468 C   0  0  0  0  0  0  0  0  0  0  0  0
    4.1024    0.3285   -1.6438 C   0  0  0  0  0  0  0  0  0  0  0  0
   -1.5776    0.1380    0.8385 C   0  0  0  0  0  0  0  0  0  0  0  0
   -1.5757    0.6182    1.9670 O   0  0  0  0  0  0  0  0  0  0  0  0
   -3.9539   -3.8770    0.9785 H   0  0  0  0  0  0  0  0  0  0  0  0
   -3.6232   -3.2517   -0.6419 H   0  0  0  0  0  0  0  0  0  0  0  0
   -4.9127   -2.5339    0.3469 H   0  0  0  0  0  0  0  0  0  0  0  0
   -3.1989   -1.7829    2.0181 H   0  0  0  0  0  0  0  0  0  0  0  0
   -1.9304   -2.5080    1.0536 H   0  0  0  0  0  0  0  0  0  0  0  0
   -4.2405    0.3778    2.2410 H   0  0  0  0  0  0  0  0  0  0  0  0
   -6.3101    1.6882    2.1129 H   0  0  0  0  0  0  0  0  0  0  0  0
   -7.3063    2.2532   -0.0872 H   0  0  0  0  0  0  0  0  0  0  0  0
   -6.2050    1.4879   -2.1728 H   0  0  0  0  0  0  0  0  0  0  0  0
   -4.1423    0.1752   -2.0830 H   0  0  0  0  0  0  0  0  0  0  0  0
   -2.4945   -1.5506   -1.8100 H   0  0  0  0  0  0  0  0  0  0  0  0
    0.6560    1.5738    0.9655 H   0  0  0  0  0  0  0  0  0  0  0  0
    1.2165    1.0937   -0.6780 H   0  0  0  0  0  0  0  0  0  0  0  0
    4.4408   -1.4996    0.9324 H   0  0  0  0  0  0  0  0  0  0  0  0
    3.2466   -1.8496    2.1981 H   0  0  0  0  0  0  0  0  0  0  0  0
    4.4742   -0.6005    2.4765 H   0  0  0  0  0  0  0  0  0  0  0  0
    2.9045    1.9826    0.4719 H   0  0  0  0  0  0  0  0  0  0  0  0
    4.2102    1.5654    1.5612 H   0  0  0  0  0  0  0  0  0  0  0  0
    6.1804    2.1264    0.3724 H   0  0  0  0  0  0  0  0  0  0  0  0
    7.6561    1.8723   -1.5836 H   0  0  0  0  0  0  0  0  0  0  0  0
    6.8817    0.6286   -3.5837 H   0  0  0  0  0  0  0  0  0  0  0  0
    4.6044   -0.3576   -3.6223 H   0  0  0  0  0  0  0  0  0  0  0  0
    3.1112   -0.1178   -1.6911 H   0  0  0  0  0  0  0  0  0  0  0  0
  1  2  1  0
  2  3  1  0
  3  4  1  0
  4  5  2  0
  5  6  1  0
  6  7  2  0
  7  8  1  0
  8  9  2  0
  3 10  1  0
 10 11  1  0
 11 12  2  0
 11 13  1  0
 13 14  1  0
 14 15  1  0
 15 16  2  0
 15 17  1  0
 17 18  1  0
 17 19  1  0
 19 20  1  0
 20 21  2  0
 21 22  1  0
 22 23  2  0
 23 24  1  0
 24 25  2  0
 13 26  1  0
 26 27  2  0
 26  3  1  0
  9  4  1  0
 25 20  1  0
  1 28  1  0
  1 29  1  0
  1 30  1  0
  2 31  1  0
  2 32  1  0
  5 33  1  0
  6 34  1  0
  7 35  1  0
  8 36  1  0
  9 37  1  0
 10 38  1  0
 14 39  1  0
 14 40  1  0
 18 41  1  0
 18 42  1  0
 18 43  1  0
 19 44  1  0
 19 45  1  0
 21 46  1  0
 22 47  1  0
 23 48  1  0
 24 49  1  0
 25 50  1  0
M  END
$$$$
