
     RDKit          3D

 49 52  0  0  0  0  0  0  0  0999 V2000
    8.3041   -1.1237    0.5696 C   0  0  0  0  0  0  0  0  0  0  0  0
    7.2976   -0.1574    1.0037 N   0  0  0  0  0  0  0  0  0  0  0  0
    7.8076    1.1402    1.4396 C   0  0  0  0  0  0  0  0  0  0  0  0
    6.0048   -0.2444    0.4752 C   0  0  0  0  0  0  0  0  0  0  0  0
    5.5175   -1.4265   -0.1091 C   0  0  0  0  0  0  0  0  0  0  0  0
    4.2167   -1.5285   -0.6270 C   0  0  0  0  0  0  0  0  0  0  0  0
    3.3399   -0.4473   -0.5630 C   0  0  0  0  0  0  0  0  0  0  0  0
    2.0080   -0.5675   -1.1629 C   0  0  0  0  0  0  0  0  0  0  0  0
    0.8241   -0.3509   -0.5714 C   0  0  0  0  0  0  0  0  0  0  0  0
   -0.4378   -0.4904   -1.2251 C   0  0  0  0  0  0  0  0  0  0  0  0
   -1.3595   -0.2057   -0.3069 C   0  0  0  0  0  0  0  0  0  0  0  0
   -2.8227   -0.1913   -0.4627 C   0  0  0  0  0  0  0  0  0  0  0  0
   -3.4555   -0.8192   -1.5433 C   0  0  0  0  0  0  0  0  0  0  0  0
   -4.8476   -0.7948   -1.6748 C   0  0  0  0  0  0  0  0  0  0  0  0
   -5.6451   -0.1396   -0.7291 C   0  0  0  0  0  0  0  0  0  0  0  0
   -5.0325    0.4719    0.3757 C   0  0  0  0  0  0  0  0  0  0  0  0
   -3.6307    0.4488    0.4902 C   0  0  0  0  0  0  0  0  0  0  0  0
   -5.8389    1.2094    1.4174 C   0  0  0  0  0  0  0  0  0  0  0  0
   -7.3232    0.8489    1.3974 C   0  0  0  0  0  0  0  0  0  0  0  0
   -7.8589    0.8782   -0.0282 C   0  0  0  0  0  0  0  0  0  0  0  0
   -7.1455   -0.1639   -0.8875 C   0  0  0  0  0  0  0  0  0  0  0  0
   -0.8414    0.1317    0.9597 O   0  0  0  0  0  0  0  0  0  0  0  0
    0.5309    0.0473    0.8374 C   0  0  0  0  0  0  0  0  0  0  0  0
    1.3196    0.2712    1.7367 O   0  0  0  0  0  0  0  0  0  0  0  0
    3.7938    0.7369    0.0106 C   0  0  0  0  0  0  0  0  0  0  0  0
    5.0958    0.8265    0.5291 C   0  0  0  0  0  0  0  0  0  0  0  0
    9.2820   -0.9097    1.0155 H   0  0  0  0  0  0  0  0  0  0  0  0
    8.4281   -1.1016   -0.5188 H   0  0  0  0  0  0  0  0  0  0  0  0
    8.0434   -2.1380    0.8898 H   0  0  0  0  0  0  0  0  0  0  0  0
    7.1803    1.5693    2.2284 H   0  0  0  0  0  0  0  0  0  0  0  0
    7.8735    1.8396    0.5990 H   0  0  0  0  0  0  0  0  0  0  0  0
    8.8100    1.0468    1.8725 H   0  0  0  0  0  0  0  0  0  0  0  0
    6.1383   -2.3149   -0.1693 H   0  0  0  0  0  0  0  0  0  0  0  0
    3.9022   -2.4710   -1.0687 H   0  0  0  0  0  0  0  0  0  0  0  0
    2.0297   -0.8864   -2.2037 H   0  0  0  0  0  0  0  0  0  0  0  0
   -0.5878   -0.7613   -2.2564 H   0  0  0  0  0  0  0  0  0  0  0  0
   -2.8817   -1.3484   -2.2992 H   0  0  0  0  0  0  0  0  0  0  0  0
   -5.3083   -1.2964   -2.5234 H   0  0  0  0  0  0  0  0  0  0  0  0
   -3.1705    0.9474    1.3426 H   0  0  0  0  0  0  0  0  0  0  0  0
   -5.7251    2.2854    1.2349 H   0  0  0  0  0  0  0  0  0  0  0  0
   -5.4395    0.9986    2.4166 H   0  0  0  0  0  0  0  0  0  0  0  0
   -7.8810    1.5520    2.0260 H   0  0  0  0  0  0  0  0  0  0  0  0
   -7.4705   -0.1512    1.8244 H   0  0  0  0  0  0  0  0  0  0  0  0
   -8.9370    0.6822   -0.0316 H   0  0  0  0  0  0  0  0  0  0  0  0
   -7.7123    1.8785   -0.4551 H   0  0  0  0  0  0  0  0  0  0  0  0
   -7.4997   -1.1650   -0.6112 H   0  0  0  0  0  0  0  0  0  0  0  0
   -7.4124    0.0037   -1.9378 H   0  0  0  0  0  0  0  0  0  0  0  0
    3.1449    1.6066    0.0780 H   0  0  0  0  0  0  0  0  0  0  0  0
    5.3725    1.7741    0.9807 H   0  0  0  0  0  0  0  0  0  0  0  0
  1  2  1  0
  2  3  1  0
  2  4  1  0
  4  5  2  0
  5  6  1  0
  6  7  2  0
  7  8  1  0
  8  9  2  3
  9 10  1  0
 10 11  2  0
 11 12  1  0
 12 13  2  0
 13 14  1  0
 14 15  2  0
 15 16  1  0
 16 17  2  0
 16 18  1  0
 18 19  1  0
 19 20  1  0
 20 21  1  0
 11 22  1  0
 22 23  1  0
 23 24  2  0
  7 25  1  0
 25 26  2  0
 26  4  1  0
 23  9  1  0
 17 12  1  0
 21 15  1  0
  1 27  1  0
  1 28  1  0
  1 29  1  0
  3 30  1  0
  3 31  1  0
  3 32  1  0
  5 33  1  0
  6 34  1  0
  8 35  1  0
 10 36  1  0
 13 37  1  0
 14 38  1  0
 17 39  1  0
 18 40  1  0
 18 41  1  0
 19 42  1  0
 19 43  1  0
 20 44  1  0
 20 45  1  0
 21 46  1  0
 21 47  1  0
 25 48  1  0
 26 49  1  0
M  END
$$$$
