
     RDKit          3D

 33 35  0  0  0  0  0  0  0  0999 V2000
    4.1923    1.6446   -0.7566 C   0  0  0  0  0  0  0  0  0  0  0  0
    3.3950    0.5599   -0.1522 C   0  0  0  0  0  0  0  0  0  0  0  0
    3.6576   -0.3905    0.8039 C   0  0  0  0  0  0  0  0  0  0  0  0
    2.4691   -1.1462    0.9393 C   0  0  0  0  0  0  0  0  0  0  0  0
    1.5311   -0.6326    0.0483 C   0  0  0  0  0  0  0  0  0  0  0  0
    0.1703   -1.0318   -0.1991 C   0  0  0  0  0  0  0  0  0  0  0  0
   -0.9595   -0.1227    0.0756 C   0  0  0  0  0  0  0  0  0  0  0  0
   -2.2185   -0.5057   -0.2041 C   0  0  0  0  0  0  0  0  0  0  0  0
   -2.4494   -1.7508   -0.7288 N   0  0  0  0  0  0  0  0  0  0  0  0
   -1.4735   -2.6761   -1.0134 C   0  0  0  0  0  0  0  0  0  0  0  0
   -1.9934   -4.1473   -1.6382 S   0  0  0  0  0  0  0  0  0  0  0  0
   -0.0567   -2.2600   -0.7319 C   0  0  0  0  0  0  0  0  0  0  0  0
    0.9979   -3.1698   -1.0538 C   0  0  0  0  0  0  0  0  0  0  0  0
    1.8657   -3.9037   -1.2928 N   0  0  0  0  0  0  0  0  0  0  0  0
   -3.4287    0.3653    0.0154 C   0  0  0  0  0  0  0  0  0  0  0  0
   -3.0763    1.8311    0.2643 C   0  0  0  0  0  0  0  0  0  0  0  0
   -1.9069    1.9470    1.2316 C   0  0  0  0  0  0  0  0  0  0  0  0
   -0.6666    1.2339    0.6848 C   0  0  0  0  0  0  0  0  0  0  0  0
    2.1204    0.4285   -0.6032 O   0  0  0  0  0  0  0  0  0  0  0  0
    4.2864    1.4944   -1.8364 H   0  0  0  0  0  0  0  0  0  0  0  0
    5.1987    1.6784   -0.3280 H   0  0  0  0  0  0  0  0  0  0  0  0
    3.7147    2.6136   -0.5821 H   0  0  0  0  0  0  0  0  0  0  0  0
    4.5887   -0.5252    1.3365 H   0  0  0  0  0  0  0  0  0  0  0  0
    2.3105   -1.9810    1.6091 H   0  0  0  0  0  0  0  0  0  0  0  0
   -3.4047   -2.0333   -0.9310 H   0  0  0  0  0  0  0  0  0  0  0  0
   -4.0968    0.3105   -0.8528 H   0  0  0  0  0  0  0  0  0  0  0  0
   -3.9869   -0.0259    0.8754 H   0  0  0  0  0  0  0  0  0  0  0  0
   -2.8157    2.3155   -0.6854 H   0  0  0  0  0  0  0  0  0  0  0  0
   -3.9502    2.3588    0.6625 H   0  0  0  0  0  0  0  0  0  0  0  0
   -1.6732    3.0017    1.4159 H   0  0  0  0  0  0  0  0  0  0  0  0
   -2.1869    1.5092    2.1982 H   0  0  0  0  0  0  0  0  0  0  0  0
    0.0492    1.1412    1.5104 H   0  0  0  0  0  0  0  0  0  0  0  0
   -0.2035    1.8688   -0.0813 H   0  0  0  0  0  0  0  0  0  0  0  0
  1  2  1  0
  2  3  2  0
  3  4  1  0
  4  5  2  0
  5  6  1  0
  6  7  1  0
  7  8  2  0
  8  9  1  0
  9 10  1  0
 10 11  2  0
 10 12  1  0
 12 13  1  0
 13 14  3  0
  8 15  1  0
 15 16  1  0
 16 17  1  0
 17 18  1  0
  5 19  1  0
 19  2  1  0
 12  6  2  0
 18  7  1  0
  1 20  1  0
  1 21  1  0
  1 22  1  0
  3 23  1  0
  4 24  1  0
  9 25  1  0
 15 26  1  0
 15 27  1  0
 16 28  1  0
 16 29  1  0
 17 30  1  0
 17 31  1  0
 18 32  1  0
 18 33  1  0
M  END
$$$$
