
     RDKit          3D

 72 74  0  0  0  0  0  0  0  0999 V2000
    7.0712    3.4887   -1.7302 C   0  0  0  0  0  0  0  0  0  0  0  0
    7.2412    2.1137   -1.1010 C   0  0  0  0  0  0  0  0  0  0  0  0
    7.0406    0.9610   -2.0877 C   0  0  0  0  0  0  0  0  0  0  0  0
    5.6512    0.8691   -2.7275 C   0  0  0  0  0  0  0  0  0  0  0  0
    4.4739    0.7746   -1.7519 C   0  0  0  0  0  0  0  0  0  0  0  0
    4.5240   -0.3955   -0.7635 C   0  0  0  0  0  0  0  0  0  0  0  0
    4.6209   -1.7889   -1.3918 C   0  0  0  0  0  0  0  0  0  0  0  0
    3.4956   -2.1581   -2.3636 C   0  0  0  0  0  0  0  0  0  0  0  0
    2.0772   -2.0951   -1.7954 C   0  0  0  0  0  0  0  0  0  0  0  0
    1.8795   -2.9360   -0.5374 C   0  0  0  0  0  0  0  0  0  0  0  0
    0.4743   -3.0667   -0.2439 O   0  0  0  0  0  0  0  0  0  0  0  0
   -0.0995   -2.0434    0.4443 C   0  0  0  0  0  0  0  0  0  0  0  0
    0.4603   -1.0119    0.7953 O   0  0  0  0  0  0  0  0  0  0  0  0
   -1.5780   -2.3335    0.6641 C   0  0  0  0  0  0  0  0  0  0  0  0
   -2.1941   -1.3953    1.6322 N   0  0  0  0  0  0  0  0  0  0  0  0
   -2.2963   -0.0506    1.4594 C   0  0  0  0  0  0  0  0  0  0  0  0
   -1.9688    0.7488    0.2047 C   0  0  0  0  0  0  0  0  0  0  0  0
   -2.9341    1.7578   -0.0891 O   0  0  0  0  0  0  0  0  0  0  0  0
   -4.1885    1.3647   -0.4640 C   0  0  0  0  0  0  0  0  0  0  0  0
   -4.5629    0.0874   -0.8766 C   0  0  0  0  0  0  0  0  0  0  0  0
   -5.8933   -0.1762   -1.2160 C   0  0  0  0  0  0  0  0  0  0  0  0
   -6.8510    0.8357   -1.1542 C   0  0  0  0  0  0  0  0  0  0  0  0
   -6.4857    2.1265   -0.7633 C   0  0  0  0  0  0  0  0  0  0  0  0
   -7.4977    3.2337   -0.7148 C   0  0  0  0  0  0  0  0  0  0  0  0
   -5.1499    2.3798   -0.4226 C   0  0  0  0  0  0  0  0  0  0  0  0
   -2.7532    0.4609    2.6282 N   0  0  0  0  0  4  0  0  0  0  0  0
   -2.9188    1.8868    2.9040 C   0  0  0  0  0  0  0  0  0  0  0  0
   -3.0990   -0.5625    3.4976 C   0  0  0  0  0  0  0  0  0  0  0  0
   -3.6922   -0.5389    4.7579 C   0  0  0  0  0  0  0  0  0  0  0  0
   -3.8913   -1.7821    5.3708 C   0  0  0  0  0  0  0  0  0  0  0  0
   -3.5028   -2.9824    4.7475 C   0  0  0  0  0  0  0  0  0  0  0  0
   -2.9037   -2.9950    3.4811 C   0  0  0  0  0  0  0  0  0  0  0  0
   -2.7232   -1.7535    2.8713 C   0  0  0  0  0  0  0  0  0  0  0  0
    7.7576    3.6256   -2.5740 H   0  0  0  0  0  0  0  0  0  0  0  0
    7.2876    4.2675   -0.9902 H   0  0  0  0  0  0  0  0  0  0  0  0
    6.0496    3.6447   -2.0886 H   0  0  0  0  0  0  0  0  0  0  0  0
    8.2566    2.0431   -0.6911 H   0  0  0  0  0  0  0  0  0  0  0  0
    6.5586    2.0132   -0.2504 H   0  0  0  0  0  0  0  0  0  0  0  0
    7.7858    1.0485   -2.8884 H   0  0  0  0  0  0  0  0  0  0  0  0
    7.2658    0.0199   -1.5723 H   0  0  0  0  0  0  0  0  0  0  0  0
    5.6376    0.0004   -3.3967 H   0  0  0  0  0  0  0  0  0  0  0  0
    5.4916    1.7391   -3.3759 H   0  0  0  0  0  0  0  0  0  0  0  0
    3.5467    0.7164   -2.3362 H   0  0  0  0  0  0  0  0  0  0  0  0
    4.4004    1.7068   -1.1783 H   0  0  0  0  0  0  0  0  0  0  0  0
    3.6345   -0.3456   -0.1245 H   0  0  0  0  0  0  0  0  0  0  0  0
    5.3782   -0.2628   -0.0878 H   0  0  0  0  0  0  0  0  0  0  0  0
    4.6609   -2.5308   -0.5839 H   0  0  0  0  0  0  0  0  0  0  0  0
    5.5766   -1.8836   -1.9206 H   0  0  0  0  0  0  0  0  0  0  0  0
    3.5479   -1.5117   -3.2483 H   0  0  0  0  0  0  0  0  0  0  0  0
    3.6819   -3.1775   -2.7267 H   0  0  0  0  0  0  0  0  0  0  0  0
    1.3735   -2.4339   -2.5679 H   0  0  0  0  0  0  0  0  0  0  0  0
    1.7998   -1.0536   -1.5921 H   0  0  0  0  0  0  0  0  0  0  0  0
    2.2620   -3.9488   -0.6913 H   0  0  0  0  0  0  0  0  0  0  0  0
    2.4082   -2.5165    0.3250 H   0  0  0  0  0  0  0  0  0  0  0  0
   -1.6825   -3.3578    1.0310 H   0  0  0  0  0  0  0  0  0  0  0  0
   -2.1100   -2.2423   -0.2868 H   0  0  0  0  0  0  0  0  0  0  0  0
   -1.8140    0.0701   -0.6362 H   0  0  0  0  0  0  0  0  0  0  0  0
   -1.0190    1.2435    0.4322 H   0  0  0  0  0  0  0  0  0  0  0  0
   -3.8562   -0.7273   -0.9706 H   0  0  0  0  0  0  0  0  0  0  0  0
   -6.1876   -1.1703   -1.5470 H   0  0  0  0  0  0  0  0  0  0  0  0
   -7.8801    0.6121   -1.4294 H   0  0  0  0  0  0  0  0  0  0  0  0
   -7.5701    3.6329    0.3024 H   0  0  0  0  0  0  0  0  0  0  0  0
   -7.2094    4.0385   -1.3992 H   0  0  0  0  0  0  0  0  0  0  0  0
   -8.4925    2.8829   -1.0083 H   0  0  0  0  0  0  0  0  0  0  0  0
   -4.8538    3.3844   -0.1254 H   0  0  0  0  0  0  0  0  0  0  0  0
   -2.7431    2.0839    3.9655 H   0  0  0  0  0  0  0  0  0  0  0  0
   -3.9356    2.1848    2.6391 H   0  0  0  0  0  0  0  0  0  0  0  0
   -2.1934    2.4700    2.3326 H   0  0  0  0  0  0  0  0  0  0  0  0
   -3.9887    0.3869    5.2345 H   0  0  0  0  0  0  0  0  0  0  0  0
   -4.3620   -1.8243    6.3532 H   0  0  0  0  0  0  0  0  0  0  0  0
   -3.6766   -3.9279    5.2651 H   0  0  0  0  0  0  0  0  0  0  0  0
   -2.6124   -3.9244    3.0089 H   0  0  0  0  0  0  0  0  0  0  0  0
  1  2  1  0
  2  3  1  0
  3  4  1  0
  4  5  1  0
  5  6  1  0
  6  7  1  0
  7  8  1  0
  8  9  1  0
  9 10  1  0
 10 11  1  0
 11 12  1  0
 12 13  2  0
 12 14  1  0
 14 15  1  0
 15 16  1  0
 16 17  1  0
 17 18  1  0
 18 19  1  0
 19 20  2  0
 20 21  1  0
 21 22  2  0
 22 23  1  0
 23 24  1  0
 23 25  2  0
 16 26  2  0
 26 27  1  0
 26 28  1  0
 28 29  2  0
 29 30  1  0
 30 31  2  0
 31 32  1  0
 32 33  2  0
 33 15  1  0
 25 19  1  0
 33 28  1  0
  1 34  1  0
  1 35  1  0
  1 36  1  0
  2 37  1  0
  2 38  1  0
  3 39  1  0
  3 40  1  0
  4 41  1  0
  4 42  1  0
  5 43  1  0
  5 44  1  0
  6 45  1  0
  6 46  1  0
  7 47  1  0
  7 48  1  0
  8 49  1  0
  8 50  1  0
  9 51  1  0
  9 52  1  0
 10 53  1  0
 10 54  1  0
 14 55  1  0
 14 56  1  0
 17 57  1  0
 17 58  1  0
 20 59  1  0
 21 60  1  0
 22 61  1  0
 24 62  1  0
 24 63  1  0
 24 64  1  0
 25 65  1  0
 27 66  1  0
 27 67  1  0
 27 68  1  0
 29 69  1  0
 30 70  1  0
 31 71  1  0
 32 72  1  0
M  CHG  1  26   1
M  END
$$$$
