
     RDKit          3D

 47 50  0  0  0  0  0  0  0  0999 V2000
   -0.8387   -0.6358   -3.1777 C   0  0  0  0  0  0  0  0  0  0  0  0
   -0.5701   -1.4122   -1.8723 C   0  0  0  0  0  0  0  0  0  0  0  0
   -0.7399   -2.9142   -2.1702 C   0  0  0  0  0  0  0  0  0  0  0  0
   -1.5996   -1.0010   -0.7720 C   0  0  0  0  0  0  0  0  0  0  0  0
   -1.2294    0.2991   -0.1368 C   0  0  0  0  0  0  0  0  0  0  0  0
    0.0160    0.8927   -0.2494 C   0  0  0  0  0  0  0  0  0  0  0  0
   -0.1238    2.1325    0.3823 C   0  0  0  0  0  0  0  0  0  0  0  0
   -1.3418    2.3089    0.8870 N   0  0  0  0  0  0  0  0  0  0  0  0
   -2.0211    1.1545    0.6199 N   0  0  0  0  0  0  0  0  0  0  0  0
   -3.3520    1.0086    1.1254 C   0  0  0  0  0  0  0  0  0  0  0  0
   -3.9929    2.1388    1.6732 C   0  0  0  0  0  0  0  0  0  0  0  0
   -5.2919    2.0506    2.1804 C   0  0  0  0  0  0  0  0  0  0  0  0
   -5.9534    0.8324    2.1522 C   0  0  0  0  0  0  0  0  0  0  0  0
   -7.1975    0.7418    2.6392 F   0  0  0  0  0  0  0  0  0  0  0  0
   -5.3369   -0.2984    1.6327 C   0  0  0  0  0  0  0  0  0  0  0  0
   -4.0354   -0.2145    1.1226 C   0  0  0  0  0  0  0  0  0  0  0  0
    1.1684    0.3103   -0.9923 C   0  0  0  0  0  0  0  0  0  0  0  0
    2.3440    0.4038   -0.1573 N   0  0  0  0  0  0  0  0  0  0  0  0
    3.6201    0.3364   -0.6712 C   0  0  0  0  0  0  0  0  0  0  0  0
    3.8773    0.3041   -1.8683 O   0  0  0  0  0  0  0  0  0  0  0  0
    4.6960    0.2922    0.3575 C   0  0  0  0  0  0  0  0  0  0  0  0
    6.0276    0.2608   -0.0268 C   0  0  0  0  0  0  0  0  0  0  0  0
    7.0389    0.2174    0.8788 N   0  0  0  0  0  0  0  0  0  0  0  0
    6.6545    0.2079    2.1767 C   0  0  0  0  0  0  0  0  0  0  0  0
    5.3215    0.2378    2.5600 C   0  0  0  0  0  0  0  0  0  0  0  0
    4.3053    0.2786    1.6666 N   0  0  0  0  0  0  0  0  0  0  0  0
    0.8842   -1.1614   -1.3754 C   0  0  0  0  0  0  0  0  0  0  0  0
   -0.7922    0.4483   -3.0361 H   0  0  0  0  0  0  0  0  0  0  0  0
   -0.1059   -0.9009   -3.9483 H   0  0  0  0  0  0  0  0  0  0  0  0
   -1.8339   -0.8681   -3.5738 H   0  0  0  0  0  0  0  0  0  0  0  0
   -1.7586   -3.1374   -2.5069 H   0  0  0  0  0  0  0  0  0  0  0  0
   -0.5437   -3.5207   -1.2790 H   0  0  0  0  0  0  0  0  0  0  0  0
   -0.0482   -3.2427   -2.9541 H   0  0  0  0  0  0  0  0  0  0  0  0
   -1.6110   -1.7700    0.0106 H   0  0  0  0  0  0  0  0  0  0  0  0
   -2.5985   -0.9478   -1.2193 H   0  0  0  0  0  0  0  0  0  0  0  0
    0.6083    2.9236    0.4863 H   0  0  0  0  0  0  0  0  0  0  0  0
   -3.4921    3.1058    1.7035 H   0  0  0  0  0  0  0  0  0  0  0  0
   -5.7843    2.9242    2.5953 H   0  0  0  0  0  0  0  0  0  0  0  0
   -5.8696   -1.2446    1.6362 H   0  0  0  0  0  0  0  0  0  0  0  0
   -3.5895   -1.1345    0.7699 H   0  0  0  0  0  0  0  0  0  0  0  0
    1.3424    0.8942   -1.9045 H   0  0  0  0  0  0  0  0  0  0  0  0
    2.2577    0.3110    0.8520 H   0  0  0  0  0  0  0  0  0  0  0  0
    6.3234    0.2698   -1.0705 H   0  0  0  0  0  0  0  0  0  0  0  0
    7.4544    0.1754    2.9085 H   0  0  0  0  0  0  0  0  0  0  0  0
    5.0366    0.2296    3.6066 H   0  0  0  0  0  0  0  0  0  0  0  0
    1.0665   -1.8026   -0.5000 H   0  0  0  0  0  0  0  0  0  0  0  0
    1.6084   -1.4839   -2.1352 H   0  0  0  0  0  0  0  0  0  0  0  0
  1  2  1  0
  2  3  1  0
  2  4  1  0
  4  5  1  0
  5  6  2  0
  6  7  1  0
  7  8  2  0
  8  9  1  0
  9 10  1  0
 10 11  2  0
 11 12  1  0
 12 13  2  0
 13 14  1  0
 13 15  1  0
 15 16  2  0
  6 17  1  0
 17 18  1  0
 18 19  1  0
 19 20  2  0
 19 21  1  0
 21 22  2  0
 22 23  1  0
 23 24  2  0
 24 25  1  0
 25 26  2  0
 17 27  1  0
 27  2  1  0
  9  5  1  0
 16 10  1  0
 26 21  1  0
  1 28  1  0
  1 29  1  0
  1 30  1  0
  3 31  1  0
  3 32  1  0
  3 33  1  0
  4 34  1  0
  4 35  1  0
  7 36  1  0
 11 37  1  0
 12 38  1  0
 15 39  1  0
 16 40  1  0
 17 41  1  0
 18 42  1  0
 22 43  1  0
 24 44  1  0
 25 45  1  0
 27 46  1  0
 27 47  1  0
M  END
$$$$
