
     RDKit          3D

 48 50  0  0  0  0  0  0  0  0999 V2000
    6.2857   -0.0271   -1.3682 C   0  0  0  0  0  0  0  0  0  0  0  0
    5.6840    0.6089   -0.1231 C   0  0  0  0  0  0  0  0  0  0  0  0
    4.6679   -0.2662    0.4752 N   0  0  0  0  0  0  0  0  0  0  0  0
    5.1428   -1.1643    1.5357 C   0  0  0  0  0  0  0  0  0  0  0  0
    5.0274   -0.5083    2.9047 C   0  0  0  0  0  0  0  0  0  0  0  0
    3.3288   -0.2059    0.1011 C   0  0  0  0  0  0  0  0  0  0  0  0
    2.3247   -0.9222    0.7776 C   0  0  0  0  0  0  0  0  0  0  0  0
    0.9725   -0.8688    0.4038 C   0  0  0  0  0  0  0  0  0  0  0  0
    0.5723   -0.0848   -0.6736 C   0  0  0  0  0  0  0  0  0  0  0  0
   -0.8275   -0.0426   -1.0999 C   0  0  0  0  0  0  0  0  0  0  0  0
   -1.8421    0.6338   -0.5231 C   0  0  0  0  0  0  0  0  0  0  0  0
   -1.6896    1.4979    0.6675 C   0  0  0  0  0  0  0  0  0  0  0  0
   -0.6255    1.7819    1.2020 O   0  0  0  0  0  0  0  0  0  0  0  0
   -2.8547    2.0147    1.1505 N   0  0  0  0  0  0  0  0  0  0  0  0
   -4.0867    1.9715    0.5700 C   0  0  0  0  0  0  0  0  0  0  0  0
   -4.9830    2.6738    1.0326 O   0  0  0  0  0  0  0  0  0  0  0  0
   -4.2246    1.1602   -0.5357 N   0  0  0  0  0  0  0  0  0  0  0  0
   -5.5573    1.0106   -1.1051 C   0  0  0  0  0  0  0  0  0  0  0  0
   -6.1760   -0.2375   -0.5766 C   0  0  0  0  0  0  0  0  0  0  0  0
   -6.2426   -1.5334   -1.0467 C   0  0  0  0  0  0  0  0  0  0  0  0
   -6.9666   -2.2722   -0.0809 C   0  0  0  0  0  0  0  0  0  0  0  0
   -7.2937   -1.3829    0.9153 C   0  0  0  0  0  0  0  0  0  0  0  0
   -6.8160   -0.1459    0.6243 O   0  0  0  0  0  0  0  0  0  0  0  0
   -3.1844    0.4853   -1.1532 C   0  0  0  0  0  0  0  0  0  0  0  0
   -3.3398   -0.1918   -2.1700 O   0  0  0  0  0  0  0  0  0  0  0  0
    1.5375    0.6335   -1.3716 C   0  0  0  0  0  0  0  0  0  0  0  0
    2.8856    0.5709   -0.9847 C   0  0  0  0  0  0  0  0  0  0  0  0
    5.5319   -0.1955   -2.1434 H   0  0  0  0  0  0  0  0  0  0  0  0
    7.0617    0.6218   -1.7860 H   0  0  0  0  0  0  0  0  0  0  0  0
    6.7422   -0.9949   -1.1341 H   0  0  0  0  0  0  0  0  0  0  0  0
    5.2871    1.6064   -0.3437 H   0  0  0  0  0  0  0  0  0  0  0  0
    6.4923    0.7836    0.5987 H   0  0  0  0  0  0  0  0  0  0  0  0
    6.1970   -1.4144    1.3600 H   0  0  0  0  0  0  0  0  0  0  0  0
    4.6218   -2.1284    1.5172 H   0  0  0  0  0  0  0  0  0  0  0  0
    3.9909   -0.2591    3.1497 H   0  0  0  0  0  0  0  0  0  0  0  0
    5.4057   -1.1824    3.6795 H   0  0  0  0  0  0  0  0  0  0  0  0
    5.6097    0.4180    2.9482 H   0  0  0  0  0  0  0  0  0  0  0  0
    2.5617   -1.5415    1.6367 H   0  0  0  0  0  0  0  0  0  0  0  0
    0.2466   -1.4442    0.9722 H   0  0  0  0  0  0  0  0  0  0  0  0
   -1.0080   -0.6490   -1.9880 H   0  0  0  0  0  0  0  0  0  0  0  0
   -2.7636    2.6427    1.9366 H   0  0  0  0  0  0  0  0  0  0  0  0
   -6.1876    1.8726   -0.8617 H   0  0  0  0  0  0  0  0  0  0  0  0
   -5.4916    0.9596   -2.1979 H   0  0  0  0  0  0  0  0  0  0  0  0
   -5.8123   -1.8960   -1.9711 H   0  0  0  0  0  0  0  0  0  0  0  0
   -7.2182   -3.3232   -0.1055 H   0  0  0  0  0  0  0  0  0  0  0  0
   -7.8335   -1.4669    1.8482 H   0  0  0  0  0  0  0  0  0  0  0  0
    1.2624    1.2507   -2.2231 H   0  0  0  0  0  0  0  0  0  0  0  0
    3.5846    1.1511   -1.5787 H   0  0  0  0  0  0  0  0  0  0  0  0
  1  2  1  0
  2  3  1  0
  3  4  1  0
  4  5  1  0
  3  6  1  0
  6  7  2  0
  7  8  1  0
  8  9  2  0
  9 10  1  0
 10 11  2  3
 11 12  1  0
 12 13  2  0
 12 14  1  0
 14 15  1  0
 15 16  2  0
 15 17  1  0
 17 18  1  0
 18 19  1  0
 19 20  2  0
 20 21  1  0
 21 22  2  0
 22 23  1  0
 17 24  1  0
 24 25  2  0
  9 26  1  0
 26 27  2  0
 27  6  1  0
 24 11  1  0
 23 19  1  0
  1 28  1  0
  1 29  1  0
  1 30  1  0
  2 31  1  0
  2 32  1  0
  4 33  1  0
  4 34  1  0
  5 35  1  0
  5 36  1  0
  5 37  1  0
  7 38  1  0
  8 39  1  0
 10 40  1  0
 14 41  1  0
 18 42  1  0
 18 43  1  0
 20 44  1  0
 21 45  1  0
 22 46  1  0
 26 47  1  0
 27 48  1  0
M  END
$$$$
