
     RDKit          3D

 46 48  0  0  0  0  0  0  0  0999 V2000
   -4.5457    1.2566   -3.8697 C   0  0  0  0  0  0  0  0  0  0  0  0
   -4.6482    0.3739   -2.6531 C   0  0  0  0  0  0  0  0  0  0  0  0
   -5.8416   -0.3127   -2.3865 C   0  0  0  0  0  0  0  0  0  0  0  0
   -5.9577   -1.0948   -1.2420 C   0  0  0  0  0  0  0  0  0  0  0  0
   -4.9002   -1.1761   -0.3348 C   0  0  0  0  0  0  0  0  0  0  0  0
   -3.7096   -0.4871   -0.5689 C   0  0  0  0  0  0  0  0  0  0  0  0
   -2.6098   -0.5020    0.3179 N   0  0  0  0  0  0  0  0  0  0  0  0
   -2.5877   -0.9386    1.6184 C   0  0  0  0  0  0  0  0  0  0  0  0
   -3.5647   -1.3829    2.2150 O   0  0  0  0  0  0  0  0  0  0  0  0
   -1.3295   -0.8150    2.3330 C   0  0  0  0  0  0  0  0  0  0  0  0
   -1.2646   -1.1789    3.6632 N   0  0  0  0  0  0  0  0  0  0  0  0
   -0.0020   -0.9730    4.1196 C   0  0  0  0  0  0  0  0  0  0  0  0
    0.7702   -0.4912    3.1770 N   0  0  0  0  0  0  0  0  0  0  0  0
   -0.0369   -0.3887    2.0476 C   0  0  0  0  0  0  0  0  0  0  0  0
    0.5291    0.0904    0.7858 C   0  0  0  0  0  0  0  0  0  0  0  0
   -0.1241    0.2031   -0.2498 O   0  0  0  0  0  0  0  0  0  0  0  0
    1.8679    0.3639    0.8843 N   0  0  0  0  0  0  0  0  0  0  0  0
    2.7209    0.6118   -0.2613 C   0  0  0  0  0  0  0  0  0  0  0  0
    2.5114    2.0231   -0.8209 C   0  0  0  0  0  0  0  0  0  0  0  0
    4.1561    0.2833    0.1127 C   0  0  0  0  0  0  0  0  0  0  0  0
    4.5764   -1.0519    0.0792 C   0  0  0  0  0  0  0  0  0  0  0  0
    5.8832   -1.4091    0.4221 C   0  0  0  0  0  0  0  0  0  0  0  0
    6.7862   -0.4295    0.8233 C   0  0  0  0  0  0  0  0  0  0  0  0
    6.3770    0.9018    0.8978 C   0  0  0  0  0  0  0  0  0  0  0  0
    5.0697    1.2546    0.5515 C   0  0  0  0  0  0  0  0  0  0  0  0
   -3.5843    0.2705   -1.7450 C   0  0  0  0  0  0  0  0  0  0  0  0
   -4.8518    0.7121   -4.7710 H   0  0  0  0  0  0  0  0  0  0  0  0
   -3.5194    1.6113   -4.0303 H   0  0  0  0  0  0  0  0  0  0  0  0
   -5.1962    2.1297   -3.7420 H   0  0  0  0  0  0  0  0  0  0  0  0
   -6.6831   -0.2412   -3.0693 H   0  0  0  0  0  0  0  0  0  0  0  0
   -6.8763   -1.6400   -1.0474 H   0  0  0  0  0  0  0  0  0  0  0  0
   -5.0298   -1.8079    0.5390 H   0  0  0  0  0  0  0  0  0  0  0  0
   -1.7544   -0.0950   -0.0555 H   0  0  0  0  0  0  0  0  0  0  0  0
   -2.0489   -1.5503    4.1926 H   0  0  0  0  0  0  0  0  0  0  0  0
    0.2936   -1.1921    5.1380 H   0  0  0  0  0  0  0  0  0  0  0  0
    2.2867    0.1944    1.8008 H   0  0  0  0  0  0  0  0  0  0  0  0
    2.4161   -0.0823   -1.0554 H   0  0  0  0  0  0  0  0  0  0  0  0
    1.4913    2.1441   -1.2069 H   0  0  0  0  0  0  0  0  0  0  0  0
    2.6528    2.7915   -0.0551 H   0  0  0  0  0  0  0  0  0  0  0  0
    3.2035    2.2248   -1.6457 H   0  0  0  0  0  0  0  0  0  0  0  0
    3.8805   -1.8291   -0.2206 H   0  0  0  0  0  0  0  0  0  0  0  0
    6.1975   -2.4523    0.3777 H   0  0  0  0  0  0  0  0  0  0  0  0
    7.8006   -0.7022    1.0895 H   0  0  0  0  0  0  0  0  0  0  0  0
    7.0794    1.6688    1.2256 H   0  0  0  0  0  0  0  0  0  0  0  0
    4.7777    2.3008    0.6349 H   0  0  0  0  0  0  0  0  0  0  0  0
   -2.6613    0.8133   -1.9436 H   0  0  0  0  0  0  0  0  0  0  0  0
  1  2  1  0
  2  3  2  0
  3  4  1  0
  4  5  2  0
  5  6  1  0
  6  7  1  0
  7  8  1  0
  8  9  2  0
  8 10  1  0
 10 11  1  0
 11 12  1  0
 12 13  2  0
 13 14  1  0
 14 15  1  0
 15 16  2  0
 15 17  1  0
 17 18  1  0
 18 19  1  0
 18 20  1  0
 20 21  2  0
 21 22  1  0
 22 23  2  0
 23 24  1  0
 24 25  2  0
  6 26  2  0
 26  2  1  0
 14 10  2  0
 25 20  1  0
  1 27  1  0
  1 28  1  0
  1 29  1  0
  3 30  1  0
  4 31  1  0
  5 32  1  0
  7 33  1  0
 11 34  1  0
 12 35  1  0
 17 36  1  0
 18 37  1  0
 19 38  1  0
 19 39  1  0
 19 40  1  0
 21 41  1  0
 22 42  1  0
 23 43  1  0
 24 44  1  0
 25 45  1  0
 26 46  1  0
M  END
$$$$
