
     RDKit          3D

 49 52  0  0  0  0  0  0  0  0999 V2000
    7.9222   -0.1620   -0.4572 C   0  0  0  0  0  0  0  0  0  0  0  0
    6.9631    0.2771   -1.5529 C   0  0  0  0  0  0  0  0  0  0  0  0
    5.5252    0.0535   -1.1619 C   0  0  0  0  0  0  0  0  0  0  0  0
    4.8067    1.0443   -0.4836 C   0  0  0  0  0  0  0  0  0  0  0  0
    3.4736    0.8325   -0.1040 C   0  0  0  0  0  0  0  0  0  0  0  0
    2.8238   -0.3750   -0.3920 C   0  0  0  0  0  0  0  0  0  0  0  0
    1.4237   -0.6647   -0.0268 C   0  0  0  0  0  0  0  0  0  0  0  0
    0.5963    0.4074    0.6602 C   0  0  0  0  0  0  0  0  0  0  0  0
   -0.8523    0.1471    0.7222 N   0  0  0  0  0  0  0  0  0  0  0  0
   -1.5042    0.4540   -0.5666 C   0  0  0  0  0  0  0  0  0  0  0  0
   -3.0048    0.4065   -0.5007 C   0  0  0  0  0  0  0  0  0  0  0  0
   -3.6927    0.4246    0.6555 C   0  0  0  0  0  0  0  0  0  0  0  0
   -5.1646    0.3562    0.6633 C   0  0  0  0  0  0  0  0  0  0  0  0
   -5.8282   -0.6963    0.0160 C   0  0  0  0  0  0  0  0  0  0  0  0
   -7.2230   -0.7736    0.0251 C   0  0  0  0  0  0  0  0  0  0  0  0
   -7.9707    0.2013    0.6815 C   0  0  0  0  0  0  0  0  0  0  0  0
   -7.3246    1.2523    1.3288 C   0  0  0  0  0  0  0  0  0  0  0  0
   -5.9290    1.3287    1.3208 C   0  0  0  0  0  0  0  0  0  0  0  0
   -2.9649    0.5418    1.9714 C   0  0  0  0  0  0  0  0  0  0  0  0
   -1.4851    0.9306    1.7954 C   0  0  0  0  0  0  0  0  0  0  0  0
    0.9503   -1.8899   -0.3112 C   0  0  0  0  0  0  0  0  0  0  0  0
    1.7230   -2.9358   -0.9933 C   0  0  0  0  0  0  0  0  0  0  0  0
    1.2289   -4.0328   -1.2272 O   0  0  0  0  0  0  0  0  0  0  0  0
    3.0152   -2.6146   -1.3631 O   0  0  0  0  0  0  0  0  0  0  0  0
    3.5646   -1.3563   -1.0541 C   0  0  0  0  0  0  0  0  0  0  0  0
    4.8931   -1.1604   -1.4403 C   0  0  0  0  0  0  0  0  0  0  0  0
    8.9572    0.0120   -0.7682 H   0  0  0  0  0  0  0  0  0  0  0  0
    7.8095   -1.2284   -0.2344 H   0  0  0  0  0  0  0  0  0  0  0  0
    7.7483    0.3949    0.4698 H   0  0  0  0  0  0  0  0  0  0  0  0
    7.1828   -0.2687   -2.4786 H   0  0  0  0  0  0  0  0  0  0  0  0
    7.1222    1.3380   -1.7817 H   0  0  0  0  0  0  0  0  0  0  0  0
    5.2817    1.9933   -0.2408 H   0  0  0  0  0  0  0  0  0  0  0  0
    2.9713    1.6363    0.4266 H   0  0  0  0  0  0  0  0  0  0  0  0
    0.7619    1.3844    0.1887 H   0  0  0  0  0  0  0  0  0  0  0  0
    0.9930    0.4809    1.6824 H   0  0  0  0  0  0  0  0  0  0  0  0
   -1.1834   -0.2736   -1.3203 H   0  0  0  0  0  0  0  0  0  0  0  0
   -1.2178    1.4491   -0.9314 H   0  0  0  0  0  0  0  0  0  0  0  0
   -3.5243    0.3641   -1.4547 H   0  0  0  0  0  0  0  0  0  0  0  0
   -5.2598   -1.4733   -0.4908 H   0  0  0  0  0  0  0  0  0  0  0  0
   -7.7230   -1.5971   -0.4778 H   0  0  0  0  0  0  0  0  0  0  0  0
   -9.0558    0.1416    0.6888 H   0  0  0  0  0  0  0  0  0  0  0  0
   -7.9062    2.0156    1.8389 H   0  0  0  0  0  0  0  0  0  0  0  0
   -5.4480    2.1655    1.8202 H   0  0  0  0  0  0  0  0  0  0  0  0
   -3.0263   -0.4249    2.4879 H   0  0  0  0  0  0  0  0  0  0  0  0
   -3.4337    1.2871    2.6232 H   0  0  0  0  0  0  0  0  0  0  0  0
   -1.4024    2.0067    1.5898 H   0  0  0  0  0  0  0  0  0  0  0  0
   -0.9792    0.7464    2.7514 H   0  0  0  0  0  0  0  0  0  0  0  0
   -0.0594   -2.1878   -0.0488 H   0  0  0  0  0  0  0  0  0  0  0  0
    5.4260   -1.9586   -1.9512 H   0  0  0  0  0  0  0  0  0  0  0  0
  1  2  1  0
  2  3  1  0
  3  4  2  0
  4  5  1  0
  5  6  2  0
  6  7  1  0
  7  8  1  0
  8  9  1  0
  9 10  1  0
 10 11  1  0
 11 12  2  0
 12 13  1  0
 13 14  2  0
 14 15  1  0
 15 16  2  0
 16 17  1  0
 17 18  2  0
 12 19  1  0
 19 20  1  0
  7 21  2  0
 21 22  1  0
 22 23  2  0
 22 24  1  0
 24 25  1  0
 25 26  2  0
 26  3  1  0
 25  6  1  0
 20  9  1  0
 18 13  1  0
  1 27  1  0
  1 28  1  0
  1 29  1  0
  2 30  1  0
  2 31  1  0
  4 32  1  0
  5 33  1  0
  8 34  1  0
  8 35  1  0
 10 36  1  0
 10 37  1  0
 11 38  1  0
 14 39  1  0
 15 40  1  0
 16 41  1  0
 17 42  1  0
 18 43  1  0
 19 44  1  0
 19 45  1  0
 20 46  1  0
 20 47  1  0
 21 48  1  0
 26 49  1  0
M  END
$$$$
