
     RDKit          3D

 56 58  0  0  0  0  0  0  0  0999 V2000
   -6.7119    2.6497   -3.2495 C   0  0  0  0  0  0  0  0  0  0  0  0
   -6.5065    1.9212   -1.9360 C   0  0  0  0  0  0  0  0  0  0  0  0
   -5.0976    1.8022   -1.7073 O   0  0  0  0  0  0  0  0  0  0  0  0
   -4.7564    1.0922   -0.5974 C   0  0  0  0  0  0  0  0  0  0  0  0
   -5.5710    0.6877    0.2242 O   0  0  0  0  0  0  0  0  0  0  0  0
   -3.2581    1.0260   -0.4208 C   0  0  0  0  0  0  0  0  0  0  0  0
   -2.4360    0.7774   -1.6625 C   0  0  0  0  0  0  0  0  0  0  0  0
   -2.8793    0.6661   -2.8007 O   0  0  0  0  0  0  0  0  0  0  0  0
   -0.9608    0.7198   -1.4777 C   0  0  0  0  0  0  0  0  0  0  0  0
   -0.4259    0.5108   -0.2611 C   0  0  0  0  0  0  0  0  0  0  0  0
    1.0274    0.4940   -0.1223 C   0  0  0  0  0  0  0  0  0  0  0  0
    1.7135    0.3439    1.0230 C   0  0  0  0  0  0  0  0  0  0  0  0
    3.1812    0.3305    1.0914 C   0  0  0  0  0  0  0  0  0  0  0  0
    3.9731    1.2309    0.3808 C   0  0  0  0  0  0  0  0  0  0  0  0
    5.3722    1.2025    0.4987 C   0  0  0  0  0  0  0  0  0  0  0  0
    6.0412    0.2813    1.3235 C   0  0  0  0  0  0  0  0  0  0  0  0
    7.4361    0.2682    1.4462 N   0  0  0  0  0  0  0  0  0  0  0  0
    8.0797   -0.8663    2.1062 C   0  0  0  0  0  0  0  0  0  0  0  0
    8.2392    0.9422    0.4271 C   0  0  0  0  0  0  0  0  0  0  0  0
    5.2157   -0.5913    2.0534 C   0  0  0  0  0  0  0  0  0  0  0  0
    3.8159   -0.5710    1.9436 C   0  0  0  0  0  0  0  0  0  0  0  0
   -1.2891    0.2640    0.9662 C   0  0  0  0  0  0  0  0  0  0  0  0
   -2.8003    0.0520    0.6840 C   0  0  0  0  0  0  0  0  0  0  0  0
   -3.1664   -1.4166    0.4518 C   0  0  0  0  0  0  0  0  0  0  0  0
   -2.4380   -2.2730   -0.3872 C   0  0  0  0  0  0  0  0  0  0  0  0
   -2.8183   -3.6077   -0.5601 C   0  0  0  0  0  0  0  0  0  0  0  0
   -3.9317   -4.1125    0.1036 C   0  0  0  0  0  0  0  0  0  0  0  0
   -4.6663   -3.2826    0.9427 C   0  0  0  0  0  0  0  0  0  0  0  0
   -4.2856   -1.9500    1.1158 C   0  0  0  0  0  0  0  0  0  0  0  0
   -6.2411    2.1009   -4.0718 H   0  0  0  0  0  0  0  0  0  0  0  0
   -7.7768    2.7682   -3.4676 H   0  0  0  0  0  0  0  0  0  0  0  0
   -6.2445    3.6393   -3.2188 H   0  0  0  0  0  0  0  0  0  0  0  0
   -6.9632    2.4923   -1.1203 H   0  0  0  0  0  0  0  0  0  0  0  0
   -6.9607    0.9256   -1.9901 H   0  0  0  0  0  0  0  0  0  0  0  0
   -2.9965    2.0455   -0.0944 H   0  0  0  0  0  0  0  0  0  0  0  0
   -0.3737    0.8499   -2.3802 H   0  0  0  0  0  0  0  0  0  0  0  0
    1.5909    0.6099   -1.0492 H   0  0  0  0  0  0  0  0  0  0  0  0
    1.2124    0.2033    1.9764 H   0  0  0  0  0  0  0  0  0  0  0  0
    3.5209    1.9805   -0.2635 H   0  0  0  0  0  0  0  0  0  0  0  0
    5.9237    1.9409   -0.0750 H   0  0  0  0  0  0  0  0  0  0  0  0
    9.1683   -0.7426    2.1363 H   0  0  0  0  0  0  0  0  0  0  0  0
    7.7599   -0.9511    3.1504 H   0  0  0  0  0  0  0  0  0  0  0  0
    7.8675   -1.8023    1.5777 H   0  0  0  0  0  0  0  0  0  0  0  0
    8.0482    2.0205    0.4209 H   0  0  0  0  0  0  0  0  0  0  0  0
    9.3110    0.8295    0.6258 H   0  0  0  0  0  0  0  0  0  0  0  0
    8.0432    0.5271   -0.5676 H   0  0  0  0  0  0  0  0  0  0  0  0
    5.6388   -1.3197    2.7380 H   0  0  0  0  0  0  0  0  0  0  0  0
    3.2353   -1.2774    2.5325 H   0  0  0  0  0  0  0  0  0  0  0  0
   -0.9106   -0.5950    1.5350 H   0  0  0  0  0  0  0  0  0  0  0  0
   -1.1873    1.1451    1.6154 H   0  0  0  0  0  0  0  0  0  0  0  0
   -3.3071    0.3460    1.6156 H   0  0  0  0  0  0  0  0  0  0  0  0
   -1.5577   -1.9355   -0.9245 H   0  0  0  0  0  0  0  0  0  0  0  0
   -2.2414   -4.2530   -1.2180 H   0  0  0  0  0  0  0  0  0  0  0  0
   -4.2274   -5.1486   -0.0352 H   0  0  0  0  0  0  0  0  0  0  0  0
   -5.5406   -3.6672    1.4612 H   0  0  0  0  0  0  0  0  0  0  0  0
   -4.8876   -1.3235    1.7729 H   0  0  0  0  0  0  0  0  0  0  0  0
  1  2  1  0
  2  3  1  0
  3  4  1  0
  4  5  2  0
  4  6  1  0
  6  7  1  0
  7  8  2  0
  7  9  1  0
  9 10  2  0
 10 11  1  0
 11 12  2  3
 12 13  1  0
 13 14  2  0
 14 15  1  0
 15 16  2  0
 16 17  1  0
 17 18  1  0
 17 19  1  0
 16 20  1  0
 20 21  2  0
 10 22  1  0
 22 23  1  0
 23 24  1  0
 24 25  2  0
 25 26  1  0
 26 27  2  0
 27 28  1  0
 28 29  2  0
 23  6  1  0
 29 24  1  0
 21 13  1  0
  1 30  1  0
  1 31  1  0
  1 32  1  0
  2 33  1  0
  2 34  1  0
  6 35  1  0
  9 36  1  0
 11 37  1  0
 12 38  1  0
 14 39  1  0
 15 40  1  0
 18 41  1  0
 18 42  1  0
 18 43  1  0
 19 44  1  0
 19 45  1  0
 19 46  1  0
 20 47  1  0
 21 48  1  0
 22 49  1  0
 22 50  1  0
 23 51  1  0
 25 52  1  0
 26 53  1  0
 27 54  1  0
 28 55  1  0
 29 56  1  0
M  END
$$$$
