
     RDKit          3D

 66 72  0  0  0  0  0  0  0  0999 V2000
    1.0876    0.5535    2.3358 O   0  0  0  0  0  0  0  0  0  0  0  0
    1.6337    0.6087    1.2411 C   0  0  0  0  0  0  0  0  0  0  0  0
    2.8916    0.0611    0.9283 N   0  0  0  0  0  0  0  0  0  0  0  0
    3.6866   -0.6888    1.8723 C   0  0  0  0  0  0  0  0  0  0  0  0
    3.6027   -2.1860    1.6759 C   0  0  0  0  0  0  0  0  0  0  0  0
    4.7641   -2.9457    1.4698 C   0  0  0  0  0  0  0  0  0  0  0  0
    4.6867   -4.3307    1.3082 C   0  0  0  0  0  0  0  0  0  0  0  0
    3.4502   -4.9722    1.3582 C   0  0  0  0  0  0  0  0  0  0  0  0
    2.2901   -4.2306    1.5710 C   0  0  0  0  0  0  0  0  0  0  0  0
    2.3653   -2.8462    1.7317 C   0  0  0  0  0  0  0  0  0  0  0  0
    3.2327    0.2946   -0.4118 C   0  0  0  0  0  0  0  0  0  0  0  0
    4.3771   -0.0878   -1.0891 C   0  0  0  0  0  0  0  0  0  0  0  0
    4.5020    0.2803   -2.4318 C   0  0  0  0  0  0  0  0  0  0  0  0
    3.4930    1.0175   -3.0713 C   0  0  0  0  0  0  0  0  0  0  0  0
    2.3415    1.3964   -2.3782 C   0  0  0  0  0  0  0  0  0  0  0  0
    2.2196    1.0241   -1.0443 C   0  0  0  0  0  0  0  0  0  0  0  0
    1.1195    1.2929   -0.0511 C   0  0  0  0  0  0  0  0  0  0  0  0
    0.8315    2.7549    0.1519 N   0  0  0  0  0  0  0  0  0  0  0  0
   -0.4647    3.1058   -0.5280 C   0  0  2  0  0  0  0  0  0  0  0  0
   -1.3640    4.0246    0.3195 C   0  0  0  0  0  0  0  0  0  0  0  0
   -2.0592    3.4030    1.5125 C   0  0  0  0  0  0  0  0  0  0  0  0
   -1.3385    3.0085    2.6457 C   0  0  0  0  0  0  0  0  0  0  0  0
   -1.9893    2.4238    3.7335 C   0  0  0  0  0  0  0  0  0  0  0  0
   -3.3696    2.2365    3.7058 C   0  0  0  0  0  0  0  0  0  0  0  0
   -4.1002    2.6297    2.5872 C   0  0  0  0  0  0  0  0  0  0  0  0
   -3.4488    3.2079    1.4962 C   0  0  0  0  0  0  0  0  0  0  0  0
   -1.0354    1.7859   -0.8635 C   0  0  0  0  0  0  0  0  0  0  0  0
   -0.1358    0.7576   -0.5940 C   0  0  0  0  0  0  0  0  0  0  0  0
   -0.7369   -0.4399   -0.8725 C   0  0  0  0  0  0  0  0  0  0  0  0
   -0.2700   -1.6667   -0.6479 O   0  0  0  0  0  0  0  0  0  0  0  0
   -2.0166   -0.1455   -1.3780 N   0  0  0  0  0  0  0  0  0  0  0  0
   -2.9896   -1.0995   -1.7946 C   0  0  0  0  0  0  0  0  0  0  0  0
   -2.5961   -2.2426   -2.5028 C   0  0  0  0  0  0  0  0  0  0  0  0
   -3.5555   -3.1711   -2.9102 C   0  0  0  0  0  0  0  0  0  0  0  0
   -4.9018   -2.9656   -2.6090 C   0  0  0  0  0  0  0  0  0  0  0  0
   -5.2948   -1.8313   -1.8992 C   0  0  0  0  0  0  0  0  0  0  0  0
   -4.3426   -0.8957   -1.4918 C   0  0  0  0  0  0  0  0  0  0  0  0
   -2.1697    1.2538   -1.4112 C   0  0  0  0  0  0  0  0  0  0  0  0
   -3.2114    1.8973   -1.9382 O   0  0  0  0  0  0  0  0  0  0  0  0
    3.3522   -0.4604    2.8918 H   0  0  0  0  0  0  0  0  0  0  0  0
    4.7238   -0.3394    1.8027 H   0  0  0  0  0  0  0  0  0  0  0  0
    5.7390   -2.4647    1.4340 H   0  0  0  0  0  0  0  0  0  0  0  0
    5.5914   -4.9106    1.1462 H   0  0  0  0  0  0  0  0  0  0  0  0
    3.3907   -6.0501    1.2337 H   0  0  0  0  0  0  0  0  0  0  0  0
    1.3243   -4.7276    1.6147 H   0  0  0  0  0  0  0  0  0  0  0  0
    1.4498   -2.2808    1.9005 H   0  0  0  0  0  0  0  0  0  0  0  0
    5.1626   -0.6598   -0.6106 H   0  0  0  0  0  0  0  0  0  0  0  0
    5.3892   -0.0110   -2.9896 H   0  0  0  0  0  0  0  0  0  0  0  0
    3.6073    1.2900   -4.1181 H   0  0  0  0  0  0  0  0  0  0  0  0
    1.5579    1.9575   -2.8779 H   0  0  0  0  0  0  0  0  0  0  0  0
    1.5879    3.2948   -0.2568 H   0  0  0  0  0  0  0  0  0  0  0  0
   -0.2111    3.6287   -1.4595 H   0  0  0  0  0  0  0  0  0  0  0  0
   -2.1300    4.4496   -0.3437 H   0  0  0  0  0  0  0  0  0  0  0  0
   -0.7834    4.8887    0.6699 H   0  0  0  0  0  0  0  0  0  0  0  0
   -0.2582    3.1319    2.6832 H   0  0  0  0  0  0  0  0  0  0  0  0
   -1.4106    2.1028    4.5952 H   0  0  0  0  0  0  0  0  0  0  0  0
   -3.8711    1.7770    4.5523 H   0  0  0  0  0  0  0  0  0  0  0  0
   -5.1756    2.4796    2.5594 H   0  0  0  0  0  0  0  0  0  0  0  0
   -4.0310    3.4938    0.6230 H   0  0  0  0  0  0  0  0  0  0  0  0
   -1.0235   -2.2715   -0.5281 H   0  0  0  0  0  0  0  0  0  0  0  0
   -1.5574   -2.4060   -2.7852 H   0  0  0  0  0  0  0  0  0  0  0  0
   -3.2536   -4.0526   -3.4715 H   0  0  0  0  0  0  0  0  0  0  0  0
   -5.6465   -3.6924   -2.9251 H   0  0  0  0  0  0  0  0  0  0  0  0
   -6.3433   -1.6821   -1.6519 H   0  0  0  0  0  0  0  0  0  0  0  0
   -4.6672   -0.0428   -0.8974 H   0  0  0  0  0  0  0  0  0  0  0  0
   -3.6986    1.2851   -2.5175 H   0  0  0  0  0  0  0  0  0  0  0  0
  1  2  2  0
  2  3  1  0
  3  4  1  0
  4  5  1  0
  5  6  2  0
  6  7  1  0
  7  8  2  0
  8  9  1  0
  9 10  2  0
  3 11  1  0
 11 12  2  0
 12 13  1  0
 13 14  2  0
 14 15  1  0
 15 16  2  0
 16 17  1  0
 17 18  1  0
 18 19  1  0
 19 20  1  0
 20 21  1  0
 21 22  2  0
 22 23  1  0
 23 24  2  0
 24 25  1  0
 25 26  2  0
 19 27  1  0
 27 28  1  0
 28 29  2  0
 29 30  1  0
 29 31  1  0
 31 32  1  0
 32 33  2  0
 33 34  1  0
 34 35  2  0
 35 36  1  0
 36 37  2  0
 31 38  1  0
 38 39  1  0
 17  2  1  0
 26 21  1  0
 38 27  2  0
 10  5  1  0
 16 11  1  0
 28 17  1  0
 37 32  1  0
  4 40  1  0
  4 41  1  0
  6 42  1  0
  7 43  1  0
  8 44  1  0
  9 45  1  0
 10 46  1  0
 12 47  1  0
 13 48  1  0
 14 49  1  0
 15 50  1  0
 18 51  1  0
 19 52  1  6
 20 53  1  0
 20 54  1  0
 22 55  1  0
 23 56  1  0
 24 57  1  0
 25 58  1  0
 26 59  1  0
 30 60  1  0
 33 61  1  0
 34 62  1  0
 35 63  1  0
 36 64  1  0
 37 65  1  0
 39 66  1  0
M  END
$$$$
