
     RDKit          3D

 53 56  0  0  0  0  0  0  0  0999 V2000
   -1.6346    0.7167    3.5326 C   0  0  0  0  0  0  0  0  0  0  0  0
   -1.6806    0.6057    2.0366 C   0  0  0  0  0  0  0  0  0  0  0  0
   -0.5260    0.7438    1.2491 C   0  0  0  0  0  0  0  0  0  0  0  0
    0.6470    1.0677    1.8825 O   0  0  0  0  0  0  0  0  0  0  0  0
    1.8087    0.3279    1.4675 C   0  0  0  0  0  0  0  0  0  0  0  0
    2.6415    0.1016    2.7296 C   0  0  0  0  0  0  0  0  0  0  0  0
    2.6433    1.0657    0.3914 C   0  0  0  0  0  0  0  0  0  0  0  0
    2.3013    2.1466   -0.0994 O   0  0  0  0  0  0  0  0  0  0  0  0
    3.7730    0.3934   -0.0433 N   0  0  0  0  0  0  0  0  0  0  0  0
    4.6359    1.0055   -1.0424 C   0  0  0  0  0  0  0  0  0  0  0  0
    5.9709    0.3085   -1.1419 C   0  0  0  0  0  0  0  0  0  0  0  0
    6.5743    0.1088   -2.3871 C   0  0  0  0  0  0  0  0  0  0  0  0
    7.8414   -0.4773   -2.4332 C   0  0  0  0  0  0  0  0  0  0  0  0
    8.4721   -0.8369   -1.2424 C   0  0  0  0  0  0  0  0  0  0  0  0
    7.8075   -0.6038   -0.0446 C   0  0  0  0  0  0  0  0  0  0  0  0
    6.5701   -0.0524    0.0293 N   0  0  0  0  0  0  0  0  0  0  0  0
   -0.6112    0.6313   -0.1375 C   0  0  0  0  0  0  0  0  0  0  0  0
   -1.8402    0.3471   -0.7523 C   0  0  0  0  0  0  0  0  0  0  0  0
   -3.0051    0.1488    0.0078 C   0  0  0  0  0  0  0  0  0  0  0  0
   -4.3231   -0.1647   -0.5770 C   0  0  0  0  0  0  0  0  0  0  0  0
   -5.3774   -0.3773    0.2399 C   0  0  0  0  0  0  0  0  0  0  0  0
   -5.2505   -0.3281    1.7171 C   0  0  0  0  0  0  0  0  0  0  0  0
   -6.1937   -0.6211    2.4583 O   0  0  0  0  0  0  0  0  0  0  0  0
   -4.0221    0.0713    2.2196 O   0  0  0  0  0  0  0  0  0  0  0  0
   -2.8933    0.2801    1.3922 C   0  0  0  0  0  0  0  0  0  0  0  0
   -6.7713   -0.6673   -0.2640 C   0  0  0  0  0  0  0  0  0  0  0  0
   -6.9701   -0.3486   -1.7442 C   0  0  0  0  0  0  0  0  0  0  0  0
   -5.7863   -0.8472   -2.5666 C   0  0  0  0  0  0  0  0  0  0  0  0
   -4.4619   -0.2373   -2.0794 C   0  0  0  0  0  0  0  0  0  0  0  0
   -0.7594    1.2785    3.8858 H   0  0  0  0  0  0  0  0  0  0  0  0
   -1.5951   -0.2810    3.9747 H   0  0  0  0  0  0  0  0  0  0  0  0
   -2.5152    1.2476    3.8965 H   0  0  0  0  0  0  0  0  0  0  0  0
    1.5214   -0.6545    1.0713 H   0  0  0  0  0  0  0  0  0  0  0  0
    3.0203    1.0567    3.1175 H   0  0  0  0  0  0  0  0  0  0  0  0
    3.5042   -0.5566    2.5484 H   0  0  0  0  0  0  0  0  0  0  0  0
    2.0216   -0.3489    3.5198 H   0  0  0  0  0  0  0  0  0  0  0  0
    4.2035   -0.3227    0.5264 H   0  0  0  0  0  0  0  0  0  0  0  0
    4.0885    0.9662   -1.9876 H   0  0  0  0  0  0  0  0  0  0  0  0
    4.7906    2.0556   -0.7839 H   0  0  0  0  0  0  0  0  0  0  0  0
    6.0772    0.4031   -3.3025 H   0  0  0  0  0  0  0  0  0  0  0  0
    8.3263   -0.6397   -3.3998 H   0  0  0  0  0  0  0  0  0  0  0  0
    9.4731   -1.2720   -1.2429 H   0  0  0  0  0  0  0  0  0  0  0  0
    8.2628   -0.8349    0.9098 H   0  0  0  0  0  0  0  0  0  0  0  0
    0.2660    0.7938   -0.7824 H   0  0  0  0  0  0  0  0  0  0  0  0
   -1.8454    0.3034   -1.8353 H   0  0  0  0  0  0  0  0  0  0  0  0
   -7.5137   -0.0928    0.3002 H   0  0  0  0  0  0  0  0  0  0  0  0
   -6.9885   -1.7285   -0.0935 H   0  0  0  0  0  0  0  0  0  0  0  0
   -7.0844    0.7419   -1.8771 H   0  0  0  0  0  0  0  0  0  0  0  0
   -7.9058   -0.8182   -2.1037 H   0  0  0  0  0  0  0  0  0  0  0  0
   -5.7431   -1.9393   -2.5191 H   0  0  0  0  0  0  0  0  0  0  0  0
   -5.9279   -0.5786   -3.6210 H   0  0  0  0  0  0  0  0  0  0  0  0
   -3.6411   -0.8394   -2.5212 H   0  0  0  0  0  0  0  0  0  0  0  0
   -4.3753    0.7842   -2.4787 H   0  0  0  0  0  0  0  0  0  0  0  0
  1  2  1  0
  2  3  2  0
  3  4  1  0
  4  5  1  0
  5  6  1  0
  5  7  1  0
  7  8  2  0
  7  9  1  0
  9 10  1  0
 10 11  1  0
 11 12  2  0
 12 13  1  0
 13 14  2  0
 14 15  1  0
 15 16  2  0
  3 17  1  0
 17 18  2  0
 18 19  1  0
 19 20  1  0
 20 21  2  0
 21 22  1  0
 22 23  2  0
 22 24  1  0
 24 25  1  0
 21 26  1  0
 26 27  1  0
 27 28  1  0
 28 29  1  0
 25  2  1  0
 16 11  1  0
 25 19  2  0
 29 20  1  0
  1 30  1  0
  1 31  1  0
  1 32  1  0
  5 33  1  0
  6 34  1  0
  6 35  1  0
  6 36  1  0
  9 37  1  0
 10 38  1  0
 10 39  1  0
 12 40  1  0
 13 41  1  0
 14 42  1  0
 15 43  1  0
 17 44  1  0
 18 45  1  0
 26 46  1  0
 26 47  1  0
 27 48  1  0
 27 49  1  0
 28 50  1  0
 28 51  1  0
 29 52  1  0
 29 53  1  0
M  END
$$$$
