
     RDKit          3D

 61 64  0  0  0  0  0  0  0  0999 V2000
   -9.0970   -2.6919   -3.0301 C   0  0  0  0  0  0  0  0  0  0  0  0
   -7.9438   -1.9363   -2.6573 O   0  0  0  0  0  0  0  0  0  0  0  0
   -8.1261   -1.1596   -1.5595 C   0  0  0  0  0  0  0  0  0  0  0  0
   -9.1569   -1.0743   -0.9104 O   0  0  0  0  0  0  0  0  0  0  0  0
   -6.8836   -0.4067   -1.2352 C   0  0  0  0  0  0  0  0  0  0  0  0
   -5.7189   -0.5081   -2.0073 C   0  0  0  0  0  0  0  0  0  0  0  0
   -4.5768    0.2206   -1.6593 C   0  0  0  0  0  0  0  0  0  0  0  0
   -4.5810    1.0583   -0.5352 C   0  0  0  0  0  0  0  0  0  0  0  0
   -3.3471    1.8556   -0.1612 C   0  0  0  0  0  0  0  0  0  0  0  0
   -2.8545    1.5615    1.1959 N   0  0  0  0  0  0  0  0  0  0  0  0
   -2.3270    0.1968    1.3427 C   0  0  0  0  0  0  0  0  0  0  0  0
   -0.9748   -0.0248    0.6679 C   0  0  0  0  0  0  0  0  0  0  0  0
    0.0535    0.9975    1.1558 C   0  0  0  0  0  0  0  0  0  0  0  0
    1.2509    0.9171    0.3762 O   0  0  0  0  0  0  0  0  0  0  0  0
    2.2035   -0.0084    0.6943 C   0  0  0  0  0  0  0  0  0  0  0  0
    2.1535   -0.9265    1.7458 C   0  0  0  0  0  0  0  0  0  0  0  0
    3.2033   -1.8307    1.9504 C   0  0  0  0  0  0  0  0  0  0  0  0
    4.3141   -1.8169    1.1099 C   0  0  0  0  0  0  0  0  0  0  0  0
    4.3713   -0.8867    0.0713 C   0  0  0  0  0  0  0  0  0  0  0  0
    5.5275   -0.8627   -0.8440 C   0  0  0  0  0  0  0  0  0  0  0  0
    5.3586   -1.2227   -2.0049 O   0  0  0  0  0  0  0  0  0  0  0  0
    6.7353   -0.4180   -0.3443 N   0  0  0  0  0  0  0  0  0  0  0  0
    6.9843    0.1804    0.9597 C   0  0  0  0  0  0  0  0  0  0  0  0
    8.4909    0.3966    0.9918 C   0  0  0  0  0  0  0  0  0  0  0  0
    8.8307    0.6446   -0.4720 C   0  0  0  0  0  0  0  0  0  0  0  0
    7.8995   -0.3097   -1.2060 C   0  0  0  0  0  0  0  0  0  0  0  0
    3.3174    0.0028   -0.1483 C   0  0  0  0  0  0  0  0  0  0  0  0
   -0.5026    2.4126    0.9750 C   0  0  0  0  0  0  0  0  0  0  0  0
   -1.8680    2.5547    1.6427 C   0  0  0  0  0  0  0  0  0  0  0  0
   -5.7508    1.1584    0.2322 C   0  0  0  0  0  0  0  0  0  0  0  0
   -6.8924    0.4314   -0.1135 C   0  0  0  0  0  0  0  0  0  0  0  0
   -8.8430   -3.2831   -3.9142 H   0  0  0  0  0  0  0  0  0  0  0  0
   -9.3833   -3.3772   -2.2259 H   0  0  0  0  0  0  0  0  0  0  0  0
   -9.9262   -2.0247   -3.2860 H   0  0  0  0  0  0  0  0  0  0  0  0
   -5.6836   -1.1505   -2.8836 H   0  0  0  0  0  0  0  0  0  0  0  0
   -3.6822    0.1262   -2.2716 H   0  0  0  0  0  0  0  0  0  0  0  0
   -2.5639    1.7137   -0.9152 H   0  0  0  0  0  0  0  0  0  0  0  0
   -3.6388    2.9128   -0.2268 H   0  0  0  0  0  0  0  0  0  0  0  0
   -3.0456   -0.5474    0.9812 H   0  0  0  0  0  0  0  0  0  0  0  0
   -2.2222   -0.0119    2.4158 H   0  0  0  0  0  0  0  0  0  0  0  0
   -0.6273   -1.0427    0.8775 H   0  0  0  0  0  0  0  0  0  0  0  0
   -1.0693    0.0284   -0.4239 H   0  0  0  0  0  0  0  0  0  0  0  0
    0.2655    0.8680    2.2244 H   0  0  0  0  0  0  0  0  0  0  0  0
    1.3069   -0.9802    2.4216 H   0  0  0  0  0  0  0  0  0  0  0  0
    3.1462   -2.5520    2.7620 H   0  0  0  0  0  0  0  0  0  0  0  0
    5.1216   -2.5294    1.2552 H   0  0  0  0  0  0  0  0  0  0  0  0
    6.4409    1.1304    1.0072 H   0  0  0  0  0  0  0  0  0  0  0  0
    6.6458   -0.4692    1.7698 H   0  0  0  0  0  0  0  0  0  0  0  0
    8.7845    1.2216    1.6464 H   0  0  0  0  0  0  0  0  0  0  0  0
    8.9937   -0.5144    1.3389 H   0  0  0  0  0  0  0  0  0  0  0  0
    9.8844    0.4680   -0.7040 H   0  0  0  0  0  0  0  0  0  0  0  0
    8.5897    1.6815   -0.7363 H   0  0  0  0  0  0  0  0  0  0  0  0
    7.6280    0.0500   -2.2031 H   0  0  0  0  0  0  0  0  0  0  0  0
    8.3401   -1.3089   -1.2953 H   0  0  0  0  0  0  0  0  0  0  0  0
    3.3633    0.7018   -0.9801 H   0  0  0  0  0  0  0  0  0  0  0  0
   -0.5630    2.6625   -0.0919 H   0  0  0  0  0  0  0  0  0  0  0  0
    0.1996    3.1378    1.4048 H   0  0  0  0  0  0  0  0  0  0  0  0
   -2.2524    3.5707    1.4904 H   0  0  0  0  0  0  0  0  0  0  0  0
   -1.7455    2.4525    2.7289 H   0  0  0  0  0  0  0  0  0  0  0  0
   -5.7692    1.8000    1.1115 H   0  0  0  0  0  0  0  0  0  0  0  0
   -7.7875    0.5210    0.4993 H   0  0  0  0  0  0  0  0  0  0  0  0
  1  2  1  0
  2  3  1  0
  3  4  2  0
  3  5  1  0
  5  6  2  0
  6  7  1  0
  7  8  2  0
  8  9  1  0
  9 10  1  0
 10 11  1  0
 11 12  1  0
 12 13  1  0
 13 14  1  0
 14 15  1  0
 15 16  2  0
 16 17  1  0
 17 18  2  0
 18 19  1  0
 19 20  1  0
 20 21  2  0
 20 22  1  0
 22 23  1  0
 23 24  1  0
 24 25  1  0
 25 26  1  0
 19 27  2  0
 13 28  1  0
 28 29  1  0
  8 30  1  0
 30 31  2  0
 31  5  1  0
 29 10  1  0
 27 15  1  0
 26 22  1  0
  1 32  1  0
  1 33  1  0
  1 34  1  0
  6 35  1  0
  7 36  1  0
  9 37  1  0
  9 38  1  0
 11 39  1  0
 11 40  1  0
 12 41  1  0
 12 42  1  0
 13 43  1  0
 16 44  1  0
 17 45  1  0
 18 46  1  0
 23 47  1  0
 23 48  1  0
 24 49  1  0
 24 50  1  0
 25 51  1  0
 25 52  1  0
 26 53  1  0
 26 54  1  0
 27 55  1  0
 28 56  1  0
 28 57  1  0
 29 58  1  0
 29 59  1  0
 30 60  1  0
 31 61  1  0
M  END
$$$$
