
     RDKit          3D

 75 77  0  0  0  0  0  0  0  0999 V2000
   -6.6207    1.7012    3.8083 C   0  0  0  0  0  0  0  0  0  0  0  0
   -5.3486    0.9696    4.1962 C   0  0  0  0  0  0  0  0  0  0  0  0
   -4.3605    1.2597    3.2103 O   0  0  0  0  0  0  0  0  0  0  0  0
   -3.1568    0.6174    3.3272 C   0  0  0  0  0  0  0  0  0  0  0  0
   -2.7644   -0.2021    4.3849 C   0  0  0  0  0  0  0  0  0  0  0  0
   -1.4933   -0.7830    4.3850 C   0  0  0  0  0  0  0  0  0  0  0  0
   -0.6144   -0.5517    3.3263 C   0  0  0  0  0  0  0  0  0  0  0  0
   -1.0052    0.2489    2.2483 C   0  0  0  0  0  0  0  0  0  0  0  0
   -0.1098    0.4877    1.1576 N   0  0  0  0  0  0  0  0  0  0  0  0
    1.1538    1.0171    1.4700 C   0  0  0  0  0  0  0  0  0  0  0  0
    1.4414    1.4843    2.5751 O   0  0  0  0  0  0  0  0  0  0  0  0
    2.1789    1.0660    0.3498 C   0  0  0  0  0  0  0  0  0  0  0  0
    3.4947    1.6923    0.8031 C   0  0  0  0  0  0  0  0  0  0  0  0
    4.4648    1.8214   -0.3535 C   0  0  0  0  0  0  0  0  0  0  0  0
    4.2435    1.3165   -1.4504 O   0  0  0  0  0  0  0  0  0  0  0  0
    5.5781    2.5534   -0.0159 N   0  0  0  0  0  0  0  0  0  0  0  0
    6.6109    2.8677   -0.8710 C   0  0  0  0  0  0  0  0  0  0  0  0
    6.8383    2.4413   -2.1984 C   0  0  0  0  0  0  0  0  0  0  0  0
    7.9982    3.0762   -2.5704 C   0  0  0  0  0  0  0  0  0  0  0  0
    8.8088    3.1004   -3.7993 C   0  0  0  0  0  0  0  0  0  0  0  0
    8.4454    3.8315   -1.5319 O   0  0  0  0  0  0  0  0  0  0  0  0
    7.5799    3.6969   -0.4626 N   0  0  0  0  0  0  0  0  0  0  0  0
   -0.3645   -0.2445   -0.1165 C   0  0  0  0  0  0  0  0  0  0  0  0
    0.2199   -1.6949   -0.0823 C   0  0  0  0  0  0  0  0  0  0  0  0
    0.7881   -2.1656    0.9002 O   0  0  0  0  0  0  0  0  0  0  0  0
    0.1133   -2.3806   -1.2851 N   0  0  0  0  0  0  0  0  0  0  0  0
    0.5366   -3.7736   -1.4989 C   0  0  0  0  0  0  0  0  0  0  0  0
    2.0410   -3.9455   -1.2358 C   0  0  0  0  0  0  0  0  0  0  0  0
   -0.2721   -4.7310   -0.6091 C   0  0  0  0  0  0  0  0  0  0  0  0
    0.2626   -4.1297   -2.9723 C   0  0  0  0  0  0  0  0  0  0  0  0
   -1.8028   -0.1860   -0.6340 C   0  0  0  0  0  0  0  0  0  0  0  0
   -2.2113    0.9044   -1.4209 C   0  0  0  0  0  0  0  0  0  0  0  0
   -3.5209    0.9890   -1.9080 C   0  0  0  0  0  0  0  0  0  0  0  0
   -4.4446   -0.0122   -1.6138 C   0  0  0  0  0  0  0  0  0  0  0  0
   -5.7453   -0.0479   -2.0367 O   0  0  0  0  0  0  0  0  0  0  0  0
   -6.2948    1.1820   -2.4913 C   0  0  0  0  0  0  0  0  0  0  0  0
   -4.0468   -1.1000   -0.8351 C   0  0  0  0  0  0  0  0  0  0  0  0
   -2.7441   -1.1845   -0.3372 C   0  0  0  0  0  0  0  0  0  0  0  0
   -2.2707    0.8457    2.2691 C   0  0  0  0  0  0  0  0  0  0  0  0
   -6.9515    1.3955    2.8102 H   0  0  0  0  0  0  0  0  0  0  0  0
   -6.4477    2.7820    3.7689 H   0  0  0  0  0  0  0  0  0  0  0  0
   -7.4230    1.4996    4.5239 H   0  0  0  0  0  0  0  0  0  0  0  0
   -5.0180    1.3211    5.1795 H   0  0  0  0  0  0  0  0  0  0  0  0
   -5.5525   -0.1068    4.2296 H   0  0  0  0  0  0  0  0  0  0  0  0
   -3.4154   -0.3988    5.2297 H   0  0  0  0  0  0  0  0  0  0  0  0
   -1.1819   -1.4135    5.2129 H   0  0  0  0  0  0  0  0  0  0  0  0
    0.3717   -1.0114    3.3425 H   0  0  0  0  0  0  0  0  0  0  0  0
    1.7664    1.6655   -0.4699 H   0  0  0  0  0  0  0  0  0  0  0  0
    2.3724    0.0504   -0.0094 H   0  0  0  0  0  0  0  0  0  0  0  0
    3.9619    1.0762    1.5799 H   0  0  0  0  0  0  0  0  0  0  0  0
    3.3146    2.6898    1.2211 H   0  0  0  0  0  0  0  0  0  0  0  0
    5.6610    2.9711    0.9012 H   0  0  0  0  0  0  0  0  0  0  0  0
    6.2453    1.7706   -2.8038 H   0  0  0  0  0  0  0  0  0  0  0  0
    8.6325    2.2046   -4.4026 H   0  0  0  0  0  0  0  0  0  0  0  0
    8.5553    3.9778   -4.4030 H   0  0  0  0  0  0  0  0  0  0  0  0
    9.8765    3.1444   -3.5626 H   0  0  0  0  0  0  0  0  0  0  0  0
    0.2317    0.2462   -0.8958 H   0  0  0  0  0  0  0  0  0  0  0  0
   -0.4960   -1.9789   -1.9894 H   0  0  0  0  0  0  0  0  0  0  0  0
    2.6254   -3.2194   -1.8110 H   0  0  0  0  0  0  0  0  0  0  0  0
    2.3811   -4.9501   -1.5148 H   0  0  0  0  0  0  0  0  0  0  0  0
    2.2937   -3.8043   -0.1806 H   0  0  0  0  0  0  0  0  0  0  0  0
   -0.1024   -4.5444    0.4556 H   0  0  0  0  0  0  0  0  0  0  0  0
   -1.3467   -4.6184   -0.7894 H   0  0  0  0  0  0  0  0  0  0  0  0
   -0.0068   -5.7757   -0.8061 H   0  0  0  0  0  0  0  0  0  0  0  0
    0.5453   -5.1650   -3.1962 H   0  0  0  0  0  0  0  0  0  0  0  0
   -0.8025   -4.0139   -3.2132 H   0  0  0  0  0  0  0  0  0  0  0  0
    0.8231   -3.4728   -3.6477 H   0  0  0  0  0  0  0  0  0  0  0  0
   -1.5126    1.7062   -1.6549 H   0  0  0  0  0  0  0  0  0  0  0  0
   -3.7863    1.8477   -2.5177 H   0  0  0  0  0  0  0  0  0  0  0  0
   -6.1612    1.9766   -1.7485 H   0  0  0  0  0  0  0  0  0  0  0  0
   -7.3695    1.0369   -2.6355 H   0  0  0  0  0  0  0  0  0  0  0  0
   -5.8656    1.4704   -3.4553 H   0  0  0  0  0  0  0  0  0  0  0  0
   -4.7639   -1.8806   -0.5953 H   0  0  0  0  0  0  0  0  0  0  0  0
   -2.4816   -2.0307    0.2964 H   0  0  0  0  0  0  0  0  0  0  0  0
   -2.5792    1.5137    1.4702 H   0  0  0  0  0  0  0  0  0  0  0  0
  1  2  1  0
  2  3  1  0
  3  4  1  0
  4  5  2  0
  5  6  1  0
  6  7  2  0
  7  8  1  0
  8  9  1  0
  9 10  1  0
 10 11  2  0
 10 12  1  0
 12 13  1  0
 13 14  1  0
 14 15  2  0
 14 16  1  0
 16 17  1  0
 17 18  1  0
 18 19  2  0
 19 20  1  0
 19 21  1  0
 21 22  1  0
  9 23  1  0
 23 24  1  0
 24 25  2  0
 24 26  1  0
 26 27  1  0
 27 28  1  0
 27 29  1  0
 27 30  1  0
 23 31  1  0
 31 32  2  0
 32 33  1  0
 33 34  2  0
 34 35  1  0
 35 36  1  0
 34 37  1  0
 37 38  2  0
  8 39  2  0
 39  4  1  0
 22 17  2  0
 38 31  1  0
  1 40  1  0
  1 41  1  0
  1 42  1  0
  2 43  1  0
  2 44  1  0
  5 45  1  0
  6 46  1  0
  7 47  1  0
 12 48  1  0
 12 49  1  0
 13 50  1  0
 13 51  1  0
 16 52  1  0
 18 53  1  0
 20 54  1  0
 20 55  1  0
 20 56  1  0
 23 57  1  0
 26 58  1  0
 28 59  1  0
 28 60  1  0
 28 61  1  0
 29 62  1  0
 29 63  1  0
 29 64  1  0
 30 65  1  0
 30 66  1  0
 30 67  1  0
 32 68  1  0
 33 69  1  0
 36 70  1  0
 36 71  1  0
 36 72  1  0
 37 73  1  0
 38 74  1  0
 39 75  1  0
M  END
$$$$
