
     RDKit          3D

 54 56  0  0  0  0  0  0  0  0999 V2000
   -4.7901    0.2956   -3.1640 C   0  0  0  0  0  0  0  0  0  0  0  0
   -4.8195   -0.0320   -1.6929 C   0  0  0  0  0  0  0  0  0  0  0  0
   -6.0875   -0.3252   -1.1568 C   0  0  0  0  0  0  0  0  0  0  0  0
   -6.2564   -0.5427    0.2014 C   0  0  0  0  0  0  0  0  0  0  0  0
   -5.1530   -0.4768    1.0509 C   0  0  0  0  0  0  0  0  0  0  0  0
   -3.8541   -0.2147    0.5585 C   0  0  0  0  0  0  0  0  0  0  0  0
   -2.7492   -0.2057    1.6146 C   0  0  0  0  0  0  0  0  0  0  0  0
   -1.7342   -1.3363    1.4328 C   0  0  0  0  0  0  0  0  0  0  0  0
   -2.0889    1.1623    1.8034 C   0  0  0  0  0  0  0  0  0  0  0  0
   -3.6819   -0.0283   -0.8440 C   0  0  0  0  0  0  0  0  0  0  0  0
   -2.3810    0.2283   -1.3440 N   0  0  0  0  0  0  0  0  0  0  0  0
   -1.8344   -0.2818   -2.5101 C   0  0  0  0  0  0  0  0  0  0  0  0
   -2.3399   -1.1221   -3.2467 O   0  0  0  0  0  0  0  0  0  0  0  0
   -0.4567    0.2908   -2.8133 C   0  0  0  0  0  0  0  0  0  0  0  0
    0.5820   -0.4233   -2.0052 C   0  0  0  0  0  0  0  0  0  0  0  0
    1.0693   -1.7041   -2.1822 C   0  0  0  0  0  0  0  0  0  0  0  0
    2.0387   -2.0514   -1.1988 C   0  0  0  0  0  0  0  0  0  0  0  0
    2.2649   -1.0265   -0.3013 C   0  0  0  0  0  0  0  0  0  0  0  0
    3.3183   -0.9034    1.1282 S   0  0  0  0  0  6  0  0  0  0  0  0
    2.4171   -0.9193    2.2603 O   0  0  0  0  0  0  0  0  0  0  0  0
    4.3214   -1.9303    0.9400 O   0  0  0  0  0  0  0  0  0  0  0  0
    4.1138    0.6008    1.0973 N   0  0  0  0  0  0  0  0  0  0  0  0
    5.0771    0.7949   -0.0359 C   0  0  0  0  0  0  0  0  0  0  0  0
    6.5241    0.6701    0.4485 C   0  0  0  0  0  0  0  0  0  0  0  0
    6.8731    1.6562    1.4298 O   0  0  0  0  0  0  0  0  0  0  0  0
    5.7626    2.0762    2.2386 C   0  0  0  0  0  0  0  0  0  0  0  0
    4.7047    0.9834    2.4203 C   0  0  0  0  0  0  0  0  0  0  0  0
    1.3237    0.3545   -0.6699 S   0  0  0  0  0  0  0  0  0  0  0  0
   -4.6532   -0.6153   -3.7543 H   0  0  0  0  0  0  0  0  0  0  0  0
   -4.0128    1.0281   -3.4021 H   0  0  0  0  0  0  0  0  0  0  0  0
   -5.7358    0.7523   -3.4804 H   0  0  0  0  0  0  0  0  0  0  0  0
   -6.9604   -0.3646   -1.8070 H   0  0  0  0  0  0  0  0  0  0  0  0
   -7.2431   -0.7571    0.6016 H   0  0  0  0  0  0  0  0  0  0  0  0
   -5.3162   -0.6443    2.1158 H   0  0  0  0  0  0  0  0  0  0  0  0
   -3.2227   -0.4143    2.5855 H   0  0  0  0  0  0  0  0  0  0  0  0
   -2.2375   -2.3105    1.4147 H   0  0  0  0  0  0  0  0  0  0  0  0
   -1.0209   -1.3459    2.2660 H   0  0  0  0  0  0  0  0  0  0  0  0
   -1.1572   -1.2534    0.5093 H   0  0  0  0  0  0  0  0  0  0  0  0
   -2.8427    1.9508    1.9208 H   0  0  0  0  0  0  0  0  0  0  0  0
   -1.4330    1.4489    0.9762 H   0  0  0  0  0  0  0  0  0  0  0  0
   -1.4691    1.1567    2.7075 H   0  0  0  0  0  0  0  0  0  0  0  0
   -1.6776    0.4408   -0.6527 H   0  0  0  0  0  0  0  0  0  0  0  0
   -0.4630    1.3757   -2.6248 H   0  0  0  0  0  0  0  0  0  0  0  0
   -0.2573    0.1641   -3.8848 H   0  0  0  0  0  0  0  0  0  0  0  0
    0.7316   -2.3667   -2.9716 H   0  0  0  0  0  0  0  0  0  0  0  0
    2.5418   -3.0067   -1.1382 H   0  0  0  0  0  0  0  0  0  0  0  0
    4.8871    0.0857   -0.8484 H   0  0  0  0  0  0  0  0  0  0  0  0
    4.8992    1.8019   -0.4422 H   0  0  0  0  0  0  0  0  0  0  0  0
    6.7088   -0.3174    0.8827 H   0  0  0  0  0  0  0  0  0  0  0  0
    7.2137    0.7929   -0.3916 H   0  0  0  0  0  0  0  0  0  0  0  0
    6.1625    2.3809    3.2103 H   0  0  0  0  0  0  0  0  0  0  0  0
    5.3250    2.9664    1.7705 H   0  0  0  0  0  0  0  0  0  0  0  0
    5.1657    0.1086    2.8885 H   0  0  0  0  0  0  0  0  0  0  0  0
    3.9034    1.3533    3.0648 H   0  0  0  0  0  0  0  0  0  0  0  0
  1  2  1  0
  2  3  2  0
  3  4  1  0
  4  5  2  0
  5  6  1  0
  6  7  1  0
  7  8  1  0
  7  9  1  0
  6 10  2  0
 10 11  1  0
 11 12  1  0
 12 13  2  0
 12 14  1  0
 14 15  1  0
 15 16  2  0
 16 17  1  0
 17 18  2  0
 18 19  1  0
 19 20  2  0
 19 21  2  0
 19 22  1  0
 22 23  1  0
 23 24  1  0
 24 25  1  0
 25 26  1  0
 26 27  1  0
 18 28  1  0
 10  2  1  0
 28 15  1  0
 27 22  1  0
  1 29  1  0
  1 30  1  0
  1 31  1  0
  3 32  1  0
  4 33  1  0
  5 34  1  0
  7 35  1  0
  8 36  1  0
  8 37  1  0
  8 38  1  0
  9 39  1  0
  9 40  1  0
  9 41  1  0
 11 42  1  0
 14 43  1  0
 14 44  1  0
 16 45  1  0
 17 46  1  0
 23 47  1  0
 23 48  1  0
 24 49  1  0
 24 50  1  0
 26 51  1  0
 26 52  1  0
 27 53  1  0
 27 54  1  0
M  END
$$$$
