
     RDKit          3D

 58 61  0  0  0  0  0  0  0  0999 V2000
    0.3237    2.5276   -5.6452 C   0  0  0  0  0  0  0  0  0  0  0  0
    1.2162    3.1315   -4.7166 O   0  0  0  0  0  0  0  0  0  0  0  0
    1.9249    2.2875   -3.9065 C   0  0  0  0  0  0  0  0  0  0  0  0
    1.8449    0.8949   -3.8996 C   0  0  0  0  0  0  0  0  0  0  0  0
    2.6212    0.1506   -3.0047 C   0  0  0  0  0  0  0  0  0  0  0  0
    3.4905    0.7877   -2.1080 C   0  0  0  0  0  0  0  0  0  0  0  0
    4.2682   -0.0175   -1.0970 C   0  0  0  0  0  0  0  0  0  0  0  0
    3.4367   -0.2986    0.0524 N   0  0  0  0  0  0  0  0  0  0  0  0
    2.7537   -1.4931    0.1783 C   0  0  0  0  0  0  0  0  0  0  0  0
    2.9835   -2.4609   -0.5495 O   0  0  0  0  0  0  0  0  0  0  0  0
    1.7023   -1.5625    1.2821 C   0  0  0  0  0  0  0  0  0  0  0  0
    2.3430   -1.4901    2.6005 C   0  0  0  0  0  0  0  0  0  0  0  0
    2.8168   -1.4445    3.6610 N   0  0  0  0  0  0  0  0  0  0  0  0
    0.6321   -0.5003    1.1281 C   0  0  0  0  0  0  0  0  0  0  0  0
    1.0433    0.7784    0.8664 N   0  0  0  0  0  0  0  0  0  0  0  0
    0.0886    1.7028    0.6584 C   0  0  0  0  0  0  0  0  0  0  0  0
    0.4479    3.0078    0.3434 C   0  0  0  0  0  0  0  0  0  0  0  0
   -0.5158    3.9895    0.1115 C   0  0  0  0  0  0  0  0  0  0  0  0
   -1.8620    3.6613    0.2008 C   0  0  0  0  0  0  0  0  0  0  0  0
   -2.2314    2.3537    0.5187 C   0  0  0  0  0  0  0  0  0  0  0  0
   -1.2789    1.3676    0.7466 C   0  0  0  0  0  0  0  0  0  0  0  0
   -1.6761    0.1168    1.0481 N   0  0  0  0  0  0  0  0  0  0  0  0
   -0.7271   -0.8264    1.2468 C   0  0  0  0  0  0  0  0  0  0  0  0
   -1.1278   -2.1313    1.6057 N   0  0  0  0  0  0  0  0  0  0  0  0
   -1.3052   -2.2015    3.0835 C   0  0  0  0  0  0  0  0  0  0  0  0
   -2.2647   -3.3455    3.4824 C   0  0  0  0  0  0  0  0  0  0  0  0
   -3.6270   -3.2349    2.9164 N   0  0  0  0  0  0  0  0  0  0  0  0
   -4.5773   -2.6926    3.8834 C   0  0  0  0  0  0  0  0  0  0  0  0
   -3.6315   -2.4235    1.6764 C   0  0  0  0  0  0  0  0  0  0  0  0
   -2.3340   -2.5733    0.8533 C   0  0  0  0  0  0  0  0  0  0  0  0
    3.5672    2.1859   -2.1202 C   0  0  0  0  0  0  0  0  0  0  0  0
    2.7917    2.9258   -3.0158 C   0  0  0  0  0  0  0  0  0  0  0  0
    0.8631    1.8932   -6.3567 H   0  0  0  0  0  0  0  0  0  0  0  0
   -0.4617    1.9656   -5.1297 H   0  0  0  0  0  0  0  0  0  0  0  0
   -0.1601    3.3283   -6.2138 H   0  0  0  0  0  0  0  0  0  0  0  0
    1.1852    0.3541   -4.5698 H   0  0  0  0  0  0  0  0  0  0  0  0
    2.5359   -0.9358   -3.0002 H   0  0  0  0  0  0  0  0  0  0  0  0
    4.6455   -0.9419   -1.5481 H   0  0  0  0  0  0  0  0  0  0  0  0
    5.1338    0.5521   -0.7414 H   0  0  0  0  0  0  0  0  0  0  0  0
    2.9756    0.5105    0.4680 H   0  0  0  0  0  0  0  0  0  0  0  0
    1.2548   -2.5588    1.1761 H   0  0  0  0  0  0  0  0  0  0  0  0
    1.5013    3.2644    0.2677 H   0  0  0  0  0  0  0  0  0  0  0  0
   -0.2123    5.0024   -0.1410 H   0  0  0  0  0  0  0  0  0  0  0  0
   -2.6242    4.4154    0.0220 H   0  0  0  0  0  0  0  0  0  0  0  0
   -3.2854    2.0953    0.5882 H   0  0  0  0  0  0  0  0  0  0  0  0
   -1.6944   -1.2581    3.4920 H   0  0  0  0  0  0  0  0  0  0  0  0
   -0.3301   -2.3847    3.5491 H   0  0  0  0  0  0  0  0  0  0  0  0
   -1.8406   -4.2908    3.1181 H   0  0  0  0  0  0  0  0  0  0  0  0
   -2.2945   -3.4371    4.5753 H   0  0  0  0  0  0  0  0  0  0  0  0
   -4.6467   -3.3458    4.7595 H   0  0  0  0  0  0  0  0  0  0  0  0
   -5.5820   -2.6433    3.4486 H   0  0  0  0  0  0  0  0  0  0  0  0
   -4.2974   -1.6895    4.2227 H   0  0  0  0  0  0  0  0  0  0  0  0
   -4.4825   -2.7373    1.0610 H   0  0  0  0  0  0  0  0  0  0  0  0
   -3.7777   -1.3616    1.9109 H   0  0  0  0  0  0  0  0  0  0  0  0
   -2.4316   -2.0572   -0.1109 H   0  0  0  0  0  0  0  0  0  0  0  0
   -2.1931   -3.6333    0.6040 H   0  0  0  0  0  0  0  0  0  0  0  0
    4.2234    2.7100   -1.4288 H   0  0  0  0  0  0  0  0  0  0  0  0
    2.8586    4.0113   -3.0170 H   0  0  0  0  0  0  0  0  0  0  0  0
  1  2  1  0
  2  3  1  0
  3  4  2  0
  4  5  1  0
  5  6  2  0
  6  7  1  0
  7  8  1  0
  8  9  1  0
  9 10  2  0
  9 11  1  0
 11 12  1  0
 12 13  3  0
 11 14  1  0
 14 15  2  0
 15 16  1  0
 16 17  2  0
 17 18  1  0
 18 19  2  0
 19 20  1  0
 20 21  2  0
 21 22  1  0
 22 23  2  0
 23 24  1  0
 24 25  1  0
 25 26  1  0
 26 27  1  0
 27 28  1  0
 27 29  1  0
 29 30  1  0
  6 31  1  0
 31 32  2  0
 32  3  1  0
 23 14  1  0
 30 24  1  0
 21 16  1  0
  1 33  1  0
  1 34  1  0
  1 35  1  0
  4 36  1  0
  5 37  1  0
  7 38  1  0
  7 39  1  0
  8 40  1  0
 11 41  1  0
 17 42  1  0
 18 43  1  0
 19 44  1  0
 20 45  1  0
 25 46  1  0
 25 47  1  0
 26 48  1  0
 26 49  1  0
 28 50  1  0
 28 51  1  0
 28 52  1  0
 29 53  1  0
 29 54  1  0
 30 55  1  0
 30 56  1  0
 31 57  1  0
 32 58  1  0
M  END
$$$$
