
     RDKit          3D

 65 68  0  0  0  0  0  0  0  0999 V2000
   -7.9305   -3.0844    0.3435 C   0  0  0  0  0  0  0  0  0  0  0  0
   -7.3257   -1.7534    0.0165 C   0  0  0  0  0  0  0  0  0  0  0  0
   -7.8663   -0.5848    0.5621 C   0  0  0  0  0  0  0  0  0  0  0  0
   -7.2934    0.6589    0.2844 C   0  0  0  0  0  0  0  0  0  0  0  0
   -6.1666    0.7525   -0.5409 C   0  0  0  0  0  0  0  0  0  0  0  0
   -5.5338    2.0956   -0.8286 C   0  0  0  0  0  0  0  0  0  0  0  0
   -4.8057    2.6918    0.3795 C   0  0  0  0  0  0  0  0  0  0  0  0
   -3.6952    1.8681    0.8257 N   0  0  0  0  0  0  0  0  0  0  0  0
   -2.7320    2.3872    1.6664 C   0  0  0  0  0  0  0  0  0  0  0  0
   -2.6704    3.5724    1.9726 O   0  0  0  0  0  0  0  0  0  0  0  0
   -1.7787    1.3277    2.1882 C   0  0  0  0  0  0  0  0  0  0  0  0
   -0.6586    1.8986    3.0554 C   0  0  0  0  0  0  0  0  0  0  0  0
    0.3760    2.7154    2.2765 C   0  0  0  0  0  0  0  0  0  0  0  0
    1.1645    1.9039    1.3536 N   0  0  0  0  0  0  0  0  0  0  0  0
    0.7689    1.9515    0.0125 N   0  0  0  0  0  0  0  0  0  0  0  0
    1.4255    1.3019   -0.9071 C   0  0  0  0  0  0  0  0  0  0  0  0
    0.9548    1.4092   -2.3293 C   0  0  0  0  0  0  0  0  0  0  0  0
    2.5662    0.5031   -0.5323 C   0  0  0  0  0  0  0  0  0  0  0  0
    3.4314   -0.3291   -1.2241 C   0  0  0  0  0  0  0  0  0  0  0  0
    3.3830   -0.7931   -2.6354 C   0  0  0  0  0  0  0  0  0  0  0  0
    4.3906   -0.7275   -0.2849 N   0  0  0  0  0  0  0  0  0  0  0  0
    5.6388   -1.4013   -0.4589 C   0  0  0  0  0  0  0  0  0  0  0  0
    6.3058   -1.4371   -1.6885 C   0  0  0  0  0  0  0  0  0  0  0  0
    7.5334   -2.1010   -1.8075 C   0  0  0  0  0  0  0  0  0  0  0  0
    8.1248   -2.7181   -0.7003 C   0  0  0  0  0  0  0  0  0  0  0  0
    9.4264   -3.4486   -0.8456 C   0  0  0  0  0  0  0  0  0  0  0  0
    7.4636   -2.6772    0.5305 C   0  0  0  0  0  0  0  0  0  0  0  0
    6.2408   -2.0116    0.6547 C   0  0  0  0  0  0  0  0  0  0  0  0
    4.0105   -0.3777    0.9739 N   0  0  0  0  0  0  0  0  0  0  0  0
    2.9624    0.4319    0.8070 C   0  0  0  0  0  0  0  0  0  0  0  0
    2.2511    1.1548    1.8539 C   0  0  0  0  0  0  0  0  0  0  0  0
    2.5625    1.1157    3.0419 O   0  0  0  0  0  0  0  0  0  0  0  0
   -5.6239   -0.4198   -1.0842 C   0  0  0  0  0  0  0  0  0  0  0  0
   -6.1940   -1.6615   -0.8000 C   0  0  0  0  0  0  0  0  0  0  0  0
   -7.6089   -3.8551   -0.3652 H   0  0  0  0  0  0  0  0  0  0  0  0
   -7.6327   -3.3927    1.3522 H   0  0  0  0  0  0  0  0  0  0  0  0
   -9.0240   -3.0300    0.2924 H   0  0  0  0  0  0  0  0  0  0  0  0
   -8.7408   -0.6355    1.2057 H   0  0  0  0  0  0  0  0  0  0  0  0
   -7.7356    1.5548    0.7165 H   0  0  0  0  0  0  0  0  0  0  0  0
   -6.3196    2.7873   -1.1610 H   0  0  0  0  0  0  0  0  0  0  0  0
   -4.8321    2.0027   -1.6688 H   0  0  0  0  0  0  0  0  0  0  0  0
   -4.4215    3.6852    0.1198 H   0  0  0  0  0  0  0  0  0  0  0  0
   -5.4836    2.8149    1.2331 H   0  0  0  0  0  0  0  0  0  0  0  0
   -3.8557    0.8698    0.8735 H   0  0  0  0  0  0  0  0  0  0  0  0
   -1.3743    0.7568    1.3462 H   0  0  0  0  0  0  0  0  0  0  0  0
   -2.3717    0.6384    2.8015 H   0  0  0  0  0  0  0  0  0  0  0  0
   -0.1603    1.0672    3.5676 H   0  0  0  0  0  0  0  0  0  0  0  0
   -1.0912    2.5345    3.8363 H   0  0  0  0  0  0  0  0  0  0  0  0
    1.0673    3.1792    2.9901 H   0  0  0  0  0  0  0  0  0  0  0  0
   -0.0916    3.5313    1.7154 H   0  0  0  0  0  0  0  0  0  0  0  0
    0.4723    0.4747   -2.6229 H   0  0  0  0  0  0  0  0  0  0  0  0
    1.7966    1.6150   -2.9933 H   0  0  0  0  0  0  0  0  0  0  0  0
    0.2285    2.2200   -2.4275 H   0  0  0  0  0  0  0  0  0  0  0  0
    3.8124   -1.7921   -2.7563 H   0  0  0  0  0  0  0  0  0  0  0  0
    3.9031   -0.0883   -3.2924 H   0  0  0  0  0  0  0  0  0  0  0  0
    2.3482   -0.8762   -2.9820 H   0  0  0  0  0  0  0  0  0  0  0  0
    5.9327   -0.9245   -2.5669 H   0  0  0  0  0  0  0  0  0  0  0  0
    8.0368   -2.1177   -2.7732 H   0  0  0  0  0  0  0  0  0  0  0  0
    9.9397   -3.5398    0.1175 H   0  0  0  0  0  0  0  0  0  0  0  0
    9.2519   -4.4526   -1.2449 H   0  0  0  0  0  0  0  0  0  0  0  0
   10.0970   -2.9090   -1.5223 H   0  0  0  0  0  0  0  0  0  0  0  0
    7.8939   -3.1600    1.4062 H   0  0  0  0  0  0  0  0  0  0  0  0
    5.7579   -1.9923    1.6321 H   0  0  0  0  0  0  0  0  0  0  0  0
   -4.7513   -0.3749   -1.7339 H   0  0  0  0  0  0  0  0  0  0  0  0
   -5.7496   -2.5578   -1.2266 H   0  0  0  0  0  0  0  0  0  0  0  0
  1  2  1  0
  2  3  2  0
  3  4  1  0
  4  5  2  0
  5  6  1  0
  6  7  1  0
  7  8  1  0
  8  9  1  0
  9 10  2  0
  9 11  1  0
 11 12  1  0
 12 13  1  0
 13 14  1  0
 14 15  1  0
 15 16  2  0
 16 17  1  0
 16 18  1  0
 18 19  2  0
 19 20  1  0
 19 21  1  0
 21 22  1  0
 22 23  2  0
 23 24  1  0
 24 25  2  0
 25 26  1  0
 25 27  1  0
 27 28  2  0
 21 29  1  0
 29 30  2  0
 30 31  1  0
 31 32  2  0
  5 33  1  0
 33 34  2  0
 34  2  1  0
 31 14  1  0
 30 18  1  0
 28 22  1  0
  1 35  1  0
  1 36  1  0
  1 37  1  0
  3 38  1  0
  4 39  1  0
  6 40  1  0
  6 41  1  0
  7 42  1  0
  7 43  1  0
  8 44  1  0
 11 45  1  0
 11 46  1  0
 12 47  1  0
 12 48  1  0
 13 49  1  0
 13 50  1  0
 17 51  1  0
 17 52  1  0
 17 53  1  0
 20 54  1  0
 20 55  1  0
 20 56  1  0
 23 57  1  0
 24 58  1  0
 26 59  1  0
 26 60  1  0
 26 61  1  0
 27 62  1  0
 28 63  1  0
 33 64  1  0
 34 65  1  0
M  END
$$$$
