
     RDKit          3D

 42 44  0  0  0  0  0  0  0  0999 V2000
   -3.1022   -0.8769   -1.6701 C   0  0  0  0  0  0  0  0  0  0  0  0
   -3.2540   -1.4711   -0.2795 C   0  0  0  0  0  0  0  0  0  0  0  0
   -2.1511   -1.1577    0.6048 N   0  0  0  0  0  0  0  0  0  0  0  0
   -0.9479   -1.8014    0.6937 C   0  0  0  0  0  0  0  0  0  0  0  0
   -0.4406   -3.0800   -0.3531 S   0  0  0  0  0  0  0  0  0  0  0  0
    1.3025   -2.6036   -0.5729 C   0  0  0  0  0  0  0  0  0  0  0  0
    1.4395   -1.2647   -1.2836 C   0  0  0  0  0  0  0  0  0  0  0  0
    0.5631   -0.7891   -2.0073 O   0  0  0  0  0  0  0  0  0  0  0  0
    2.7192   -0.5101   -1.1242 C   0  0  0  0  0  0  0  0  0  0  0  0
    2.7451    0.8410   -1.4928 C   0  0  0  0  0  0  0  0  0  0  0  0
    3.9190    1.5879   -1.3665 C   0  0  0  0  0  0  0  0  0  0  0  0
    5.0887    0.9915   -0.8842 C   0  0  0  0  0  0  0  0  0  0  0  0
    6.3397    1.8022   -0.7138 C   0  0  0  0  0  0  0  0  0  0  0  0
    5.0603   -0.3568   -0.5096 C   0  0  0  0  0  0  0  0  0  0  0  0
    3.8863   -1.1074   -0.6348 C   0  0  0  0  0  0  0  0  0  0  0  0
   -0.2361   -1.2944    1.6709 N   0  0  0  0  0  0  0  0  0  0  0  0
   -0.9847   -0.3041    2.2550 N   0  0  0  0  0  0  0  0  0  0  0  0
   -2.1294   -0.2029    1.6029 C   0  0  0  0  0  0  0  0  0  0  0  0
   -3.2002    0.7285    1.9334 C   0  0  0  0  0  0  0  0  0  0  0  0
   -3.6134    1.7108    1.0333 C   0  0  0  0  0  0  0  0  0  0  0  0
   -4.6368    2.5621    1.4145 C   0  0  0  0  0  0  0  0  0  0  0  0
   -5.2585    2.4992    2.6106 N   0  0  0  0  0  0  0  0  0  0  0  0
   -4.8211    1.5601    3.4762 C   0  0  0  0  0  0  0  0  0  0  0  0
   -3.8056    0.6650    3.1890 C   0  0  0  0  0  0  0  0  0  0  0  0
   -2.2329   -1.2890   -2.1907 H   0  0  0  0  0  0  0  0  0  0  0  0
   -2.9794    0.2092   -1.6330 H   0  0  0  0  0  0  0  0  0  0  0  0
   -3.9884   -1.0989   -2.2728 H   0  0  0  0  0  0  0  0  0  0  0  0
   -4.1799   -1.1119    0.1815 H   0  0  0  0  0  0  0  0  0  0  0  0
   -3.3449   -2.5614   -0.3355 H   0  0  0  0  0  0  0  0  0  0  0  0
    1.7770   -2.5740    0.4119 H   0  0  0  0  0  0  0  0  0  0  0  0
    1.7922   -3.3686   -1.1829 H   0  0  0  0  0  0  0  0  0  0  0  0
    1.8469    1.3236   -1.8738 H   0  0  0  0  0  0  0  0  0  0  0  0
    3.9116    2.6392   -1.6470 H   0  0  0  0  0  0  0  0  0  0  0  0
    6.3943    2.5985   -1.4635 H   0  0  0  0  0  0  0  0  0  0  0  0
    6.3605    2.2526    0.2833 H   0  0  0  0  0  0  0  0  0  0  0  0
    7.2301    1.1771   -0.8390 H   0  0  0  0  0  0  0  0  0  0  0  0
    5.9569   -0.8333   -0.1175 H   0  0  0  0  0  0  0  0  0  0  0  0
    3.9183   -2.1539   -0.3476 H   0  0  0  0  0  0  0  0  0  0  0  0
   -3.1397    1.8338    0.0662 H   0  0  0  0  0  0  0  0  0  0  0  0
   -4.9909    3.3453    0.7499 H   0  0  0  0  0  0  0  0  0  0  0  0
   -5.3231    1.5469    4.4395 H   0  0  0  0  0  0  0  0  0  0  0  0
   -3.4903   -0.0631    3.9297 H   0  0  0  0  0  0  0  0  0  0  0  0
  1  2  1  0
  2  3  1  0
  3  4  1  0
  4  5  1  0
  5  6  1  0
  6  7  1  0
  7  8  2  0
  7  9  1  0
  9 10  2  0
 10 11  1  0
 11 12  2  0
 12 13  1  0
 12 14  1  0
 14 15  2  0
  4 16  2  0
 16 17  1  0
 17 18  2  0
 18 19  1  0
 19 20  2  0
 20 21  1  0
 21 22  2  0
 22 23  1  0
 23 24  2  0
 18  3  1  0
 24 19  1  0
 15  9  1  0
  1 25  1  0
  1 26  1  0
  1 27  1  0
  2 28  1  0
  2 29  1  0
  6 30  1  0
  6 31  1  0
 10 32  1  0
 11 33  1  0
 13 34  1  0
 13 35  1  0
 13 36  1  0
 14 37  1  0
 15 38  1  0
 20 39  1  0
 21 40  1  0
 23 41  1  0
 24 42  1  0
M  END
$$$$
