
     RDKit          3D

 54 57  0  0  0  0  0  0  0  0999 V2000
   -2.5438    5.7197   -1.7315 C   0  0  0  0  0  0  0  0  0  0  0  0
   -2.6155    4.2685   -1.8007 N   0  0  0  0  0  0  0  0  0  0  0  0
   -1.5533    3.5285   -1.2999 C   0  0  0  0  0  0  0  0  0  0  0  0
   -0.6048    4.0403   -0.7149 O   0  0  0  0  0  0  0  0  0  0  0  0
   -1.6357    2.0712   -1.4450 C   0  0  0  0  0  0  0  0  0  0  0  0
   -0.6227    1.1705   -1.1562 C   0  0  0  0  0  0  0  0  0  0  0  0
    1.0485    1.5832   -0.7014 S   0  0  0  0  0  0  0  0  0  0  0  0
    0.8700    1.4219    1.1004 C   0  0  0  0  0  0  0  0  0  0  0  0
    2.2244    1.3466    1.7820 C   0  0  0  0  0  0  0  0  0  0  0  0
    2.5184    2.0632    2.7370 O   0  0  0  0  0  0  0  0  0  0  0  0
    3.0587    0.3559    1.3086 N   0  0  0  0  0  0  0  0  0  0  0  0
    4.2970    0.0110    1.9844 C   0  0  0  0  0  0  0  0  0  0  0  0
    4.0491   -0.9372    3.1692 C   0  0  0  0  0  0  0  0  0  0  0  0
    5.3269   -1.2675    3.9287 C   0  0  0  0  0  0  0  0  0  0  0  0
    5.7713   -2.5655    3.2999 C   0  0  0  0  0  0  0  0  0  0  0  0
    4.4505   -3.2383    3.0092 C   0  0  0  0  0  0  0  0  0  0  0  0
    3.5344   -2.1929    2.6606 O   0  0  0  0  0  0  0  0  0  0  0  0
   -0.7942   -0.1683   -1.2453 N   0  0  0  0  0  0  0  0  0  0  0  0
   -1.9837   -0.6160   -1.6643 C   0  0  0  0  0  0  0  0  0  0  0  0
   -2.1778   -2.0701   -1.7225 C   0  0  0  0  0  0  0  0  0  0  0  0
   -1.6694   -2.8737   -0.6759 C   0  0  0  0  0  0  0  0  0  0  0  0
   -1.8285   -4.2627   -0.6684 C   0  0  0  0  0  0  0  0  0  0  0  0
   -2.5011   -4.8880   -1.7110 C   0  0  0  0  0  0  0  0  0  0  0  0
   -3.0046   -4.1236   -2.7634 C   0  0  0  0  0  0  0  0  0  0  0  0
   -2.8422   -2.7297   -2.7749 C   0  0  0  0  0  0  0  0  0  0  0  0
   -3.4401   -1.9018   -4.1755 Cl  0  0  0  0  0  0  0  0  0  0  0  0
   -3.0117    0.1857   -1.9631 N   0  0  0  0  0  0  0  0  0  0  0  0
   -2.8225    1.5197   -1.8697 C   0  0  0  0  0  0  0  0  0  0  0  0
   -3.9050    2.3511   -2.2299 N   0  0  0  0  0  0  0  0  0  0  0  0
   -5.1318    1.7036   -2.6760 C   0  0  0  0  0  0  0  0  0  0  0  0
   -3.8209    3.7284   -2.2267 C   0  0  0  0  0  0  0  0  0  0  0  0
   -4.7638    4.4456   -2.5684 O   0  0  0  0  0  0  0  0  0  0  0  0
   -2.8187    6.1424   -2.7067 H   0  0  0  0  0  0  0  0  0  0  0  0
   -1.5435    6.0780   -1.4615 H   0  0  0  0  0  0  0  0  0  0  0  0
   -3.2652    6.0702   -0.9815 H   0  0  0  0  0  0  0  0  0  0  0  0
    0.3143    0.5142    1.3597 H   0  0  0  0  0  0  0  0  0  0  0  0
    0.3244    2.2889    1.4867 H   0  0  0  0  0  0  0  0  0  0  0  0
    2.6740   -0.3280    0.6651 H   0  0  0  0  0  0  0  0  0  0  0  0
    4.9334   -0.4638    1.2288 H   0  0  0  0  0  0  0  0  0  0  0  0
    4.7801    0.9335    2.3265 H   0  0  0  0  0  0  0  0  0  0  0  0
    3.2980   -0.5112    3.8455 H   0  0  0  0  0  0  0  0  0  0  0  0
    5.0879   -1.4380    4.9866 H   0  0  0  0  0  0  0  0  0  0  0  0
    6.0857   -0.4805    3.8832 H   0  0  0  0  0  0  0  0  0  0  0  0
    6.4217   -3.1647    3.9425 H   0  0  0  0  0  0  0  0  0  0  0  0
    6.3045   -2.3615    2.3623 H   0  0  0  0  0  0  0  0  0  0  0  0
    4.5159   -3.9601    2.1908 H   0  0  0  0  0  0  0  0  0  0  0  0
    4.0578   -3.7476    3.8964 H   0  0  0  0  0  0  0  0  0  0  0  0
   -1.1364   -2.4090    0.1536 H   0  0  0  0  0  0  0  0  0  0  0  0
   -1.4216   -4.8531    0.1498 H   0  0  0  0  0  0  0  0  0  0  0  0
   -2.6254   -5.9685   -1.7130 H   0  0  0  0  0  0  0  0  0  0  0  0
   -3.5145   -4.6231   -3.5843 H   0  0  0  0  0  0  0  0  0  0  0  0
   -4.9327    1.1541   -3.6000 H   0  0  0  0  0  0  0  0  0  0  0  0
   -5.9252    2.4284   -2.8765 H   0  0  0  0  0  0  0  0  0  0  0  0
   -5.4905    1.0199   -1.9008 H   0  0  0  0  0  0  0  0  0  0  0  0
  1  2  1  0
  2  3  1  0
  3  4  2  0
  3  5  1  0
  5  6  2  0
  6  7  1  0
  7  8  1  0
  8  9  1  0
  9 10  2  0
  9 11  1  0
 11 12  1  0
 12 13  1  0
 13 14  1  0
 14 15  1  0
 15 16  1  0
 16 17  1  0
  6 18  1  0
 18 19  2  0
 19 20  1  0
 20 21  2  0
 21 22  1  0
 22 23  2  0
 23 24  1  0
 24 25  2  0
 25 26  1  0
 19 27  1  0
 27 28  2  0
 28 29  1  0
 29 30  1  0
 29 31  1  0
 31 32  2  0
 31  2  1  0
 28  5  1  0
 17 13  1  0
 25 20  1  0
  1 33  1  0
  1 34  1  0
  1 35  1  0
  8 36  1  0
  8 37  1  0
 11 38  1  0
 12 39  1  0
 12 40  1  0
 13 41  1  0
 14 42  1  0
 14 43  1  0
 15 44  1  0
 15 45  1  0
 16 46  1  0
 16 47  1  0
 21 48  1  0
 22 49  1  0
 23 50  1  0
 24 51  1  0
 30 52  1  0
 30 53  1  0
 30 54  1  0
M  END
$$$$
