
     RDKit          3D

 39 41  0  0  0  0  0  0  0  0999 V2000
    0.6599   -2.0027    0.9365 O   0  0  0  0  0  0  0  0  0  0  0  0
    0.1678   -0.9500    0.5365 C   0  0  0  0  0  0  0  0  0  0  0  0
    0.9148    0.1669    0.2251 N   0  0  0  0  0  0  0  0  0  0  0  0
    2.3717    0.1452    0.2444 C   0  0  0  0  0  0  0  0  0  0  0  0
    2.9292   -0.4473   -1.0525 C   0  0  0  0  0  0  0  0  0  0  0  0
    4.4537   -0.5778   -1.0107 C   0  0  0  0  0  0  0  0  0  0  0  0
    5.1321    0.4481   -0.1016 C   0  0  0  0  0  0  0  0  0  0  0  0
    4.3529    1.7541   -0.0444 C   0  0  0  0  0  0  0  0  0  0  0  0
    2.9330    1.5551    0.4926 C   0  0  0  0  0  0  0  0  0  0  0  0
   -1.3135   -0.8466    0.4225 C   0  0  0  0  0  0  0  0  0  0  0  0
   -1.9258    0.0833   -0.4307 C   0  0  0  0  0  0  0  0  0  0  0  0
   -3.3275    0.1761   -0.5107 C   0  0  0  0  0  0  0  0  0  0  0  0
   -3.9517    1.1082   -1.3561 C   0  0  0  0  0  0  0  0  0  0  0  0
   -5.3435    1.1917   -1.4235 C   0  0  0  0  0  0  0  0  0  0  0  0
   -6.1299    0.3443   -0.6490 C   0  0  0  0  0  0  0  0  0  0  0  0
   -5.5267   -0.5903    0.1933 C   0  0  0  0  0  0  0  0  0  0  0  0
   -4.1285   -0.6873    0.2725 C   0  0  0  0  0  0  0  0  0  0  0  0
   -3.5108   -1.6303    1.1057 C   0  0  0  0  0  0  0  0  0  0  0  0
   -2.1210   -1.7152    1.1695 C   0  0  0  0  0  0  0  0  0  0  0  0
   -1.6146   -2.6857    1.9951 O   0  0  0  0  0  0  0  0  0  0  0  0
    0.4571    1.0257   -0.0434 H   0  0  0  0  0  0  0  0  0  0  0  0
    2.6791   -0.5025    1.0763 H   0  0  0  0  0  0  0  0  0  0  0  0
    2.6427    0.1948   -1.8964 H   0  0  0  0  0  0  0  0  0  0  0  0
    2.4879   -1.4295   -1.2606 H   0  0  0  0  0  0  0  0  0  0  0  0
    4.7305   -1.5835   -0.6717 H   0  0  0  0  0  0  0  0  0  0  0  0
    4.8418   -0.4830   -2.0322 H   0  0  0  0  0  0  0  0  0  0  0  0
    6.1545    0.6299   -0.4516 H   0  0  0  0  0  0  0  0  0  0  0  0
    5.2184    0.0360    0.9118 H   0  0  0  0  0  0  0  0  0  0  0  0
    4.3005    2.1833   -1.0531 H   0  0  0  0  0  0  0  0  0  0  0  0
    4.8817    2.4854    0.5774 H   0  0  0  0  0  0  0  0  0  0  0  0
    2.9176    1.7491    1.5729 H   0  0  0  0  0  0  0  0  0  0  0  0
    2.2872    2.3223    0.0463 H   0  0  0  0  0  0  0  0  0  0  0  0
   -1.3252    0.7290   -1.0643 H   0  0  0  0  0  0  0  0  0  0  0  0
   -3.3584    1.7808   -1.9718 H   0  0  0  0  0  0  0  0  0  0  0  0
   -5.8134    1.9182   -2.0817 H   0  0  0  0  0  0  0  0  0  0  0  0
   -7.2138    0.4077   -0.7010 H   0  0  0  0  0  0  0  0  0  0  0  0
   -6.1579   -1.2472    0.7884 H   0  0  0  0  0  0  0  0  0  0  0  0
   -4.1062   -2.3135    1.7071 H   0  0  0  0  0  0  0  0  0  0  0  0
   -0.6455   -2.7428    1.8312 H   0  0  0  0  0  0  0  0  0  0  0  0
  1  2  2  0
  2  3  1  0
  3  4  1  0
  4  5  1  0
  5  6  1  0
  6  7  1  0
  7  8  1  0
  8  9  1  0
  2 10  1  0
 10 11  2  0
 11 12  1  0
 12 13  2  0
 13 14  1  0
 14 15  2  0
 15 16  1  0
 16 17  2  0
 17 18  1  0
 18 19  2  0
 19 20  1  0
  9  4  1  0
 19 10  1  0
 17 12  1  0
  3 21  1  0
  4 22  1  0
  5 23  1  0
  5 24  1  0
  6 25  1  0
  6 26  1  0
  7 27  1  0
  7 28  1  0
  8 29  1  0
  8 30  1  0
  9 31  1  0
  9 32  1  0
 11 33  1  0
 13 34  1  0
 14 35  1  0
 15 36  1  0
 16 37  1  0
 18 38  1  0
 20 39  1  0
M  END
$$$$
