
     RDKit          3D

 61 63  0  0  0  0  0  0  0  0999 V2000
   -0.5656   -3.7760   -2.8326 C   0  0  0  0  0  0  0  0  0  0  0  0
    0.4429   -2.6618   -3.0261 C   0  0  0  0  0  0  0  0  0  0  0  0
    0.7858   -2.0916   -1.7561 O   0  0  0  0  0  0  0  0  0  0  0  0
   -0.0158   -1.0640   -1.3300 C   0  0  0  0  0  0  0  0  0  0  0  0
   -1.0090   -0.6699   -1.9294 O   0  0  0  0  0  0  0  0  0  0  0  0
    0.3707   -0.5819   -0.0056 C   0  0  0  0  0  0  0  0  0  0  0  0
   -0.5681   -0.2514    1.0454 C   0  0  0  0  0  0  0  0  0  0  0  0
   -2.0191   -0.2346    0.9689 C   0  0  0  0  0  0  0  0  0  0  0  0
   -2.6704    0.9126    0.5090 C   0  0  0  0  0  0  0  0  0  0  0  0
   -4.0657    0.9429    0.4295 C   0  0  0  0  0  0  0  0  0  0  0  0
   -4.8334   -0.1730    0.7977 C   0  0  0  0  0  0  0  0  0  0  0  0
   -6.2994   -0.1415    0.6981 C   0  0  0  0  0  0  0  0  0  0  0  0
   -6.9895   -1.0532   -0.1165 C   0  0  0  0  0  0  0  0  0  0  0  0
   -8.3834   -1.0099   -0.2231 C   0  0  0  0  0  0  0  0  0  0  0  0
   -9.1085   -0.0586    0.4915 C   0  0  0  0  0  0  0  0  0  0  0  0
   -8.4420    0.8502    1.3105 C   0  0  0  0  0  0  0  0  0  0  0  0
   -7.0483    0.8093    1.4109 C   0  0  0  0  0  0  0  0  0  0  0  0
   -4.1631   -1.3204    1.2552 C   0  0  0  0  0  0  0  0  0  0  0  0
   -2.7667   -1.3538    1.3441 C   0  0  0  0  0  0  0  0  0  0  0  0
    0.0571    0.0047    2.2509 C   0  0  0  0  0  0  0  0  0  0  0  0
    1.7523   -0.1151    2.1263 S   0  0  0  0  0  0  0  0  0  0  0  0
    1.6672   -0.4038    0.4484 C   0  0  0  0  0  0  0  0  0  0  0  0
    2.9171   -0.4238   -0.1334 N   0  0  0  0  0  0  0  0  0  0  0  0
    3.1289   -0.1490   -1.4749 C   0  0  0  0  0  0  0  0  0  0  0  0
    2.2718    0.2265   -2.2750 O   0  0  0  0  0  0  0  0  0  0  0  0
    4.5653   -0.4006   -1.9373 C   0  0  0  0  0  0  0  0  0  0  0  0
    5.5917    0.3223   -1.1777 N   0  0  0  0  0  0  0  0  0  0  0  0
    5.4795    1.7857   -1.2709 C   0  0  0  0  0  0  0  0  0  0  0  0
    4.9141    2.4329    0.0231 C   0  0  0  0  0  0  0  0  0  0  0  0
    5.3644    1.7702    1.2773 N   0  0  0  0  0  0  0  0  0  0  0  0
    6.8249    1.9053    1.4512 C   0  0  0  0  0  0  0  0  0  0  0  0
    4.7019    2.4038    2.4281 C   0  0  0  0  0  0  0  0  0  0  0  0
   -0.7550   -4.2968   -3.7780 H   0  0  0  0  0  0  0  0  0  0  0  0
   -0.2099   -4.4997   -2.0901 H   0  0  0  0  0  0  0  0  0  0  0  0
   -1.5162   -3.3787   -2.4562 H   0  0  0  0  0  0  0  0  0  0  0  0
    0.0692   -1.9017   -3.7229 H   0  0  0  0  0  0  0  0  0  0  0  0
    1.3672   -3.0661   -3.4560 H   0  0  0  0  0  0  0  0  0  0  0  0
   -2.0977    1.7830    0.1953 H   0  0  0  0  0  0  0  0  0  0  0  0
   -4.5517    1.8416    0.0544 H   0  0  0  0  0  0  0  0  0  0  0  0
   -6.4384   -1.7971   -0.6891 H   0  0  0  0  0  0  0  0  0  0  0  0
   -8.8999   -1.7163   -0.8678 H   0  0  0  0  0  0  0  0  0  0  0  0
  -10.1913   -0.0263    0.4095 H   0  0  0  0  0  0  0  0  0  0  0  0
   -9.0038    1.5915    1.8728 H   0  0  0  0  0  0  0  0  0  0  0  0
   -6.5432    1.5233    2.0594 H   0  0  0  0  0  0  0  0  0  0  0  0
   -4.7349   -2.1985    1.5510 H   0  0  0  0  0  0  0  0  0  0  0  0
   -2.2754   -2.2561    1.7010 H   0  0  0  0  0  0  0  0  0  0  0  0
   -0.4036    0.2393    3.2028 H   0  0  0  0  0  0  0  0  0  0  0  0
    3.7044   -0.3293    0.5023 H   0  0  0  0  0  0  0  0  0  0  0  0
    4.7542   -1.4766   -1.8551 H   0  0  0  0  0  0  0  0  0  0  0  0
    4.6455   -0.1466   -3.0009 H   0  0  0  0  0  0  0  0  0  0  0  0
    5.5932    0.0646   -0.1890 H   0  0  0  0  0  0  0  0  0  0  0  0
    4.9019    2.1073   -2.1436 H   0  0  0  0  0  0  0  0  0  0  0  0
    6.4994    2.1719   -1.4170 H   0  0  0  0  0  0  0  0  0  0  0  0
    3.8195    2.3615   -0.0269 H   0  0  0  0  0  0  0  0  0  0  0  0
    5.1676    3.5013    0.0355 H   0  0  0  0  0  0  0  0  0  0  0  0
    7.1391    2.9562    1.4522 H   0  0  0  0  0  0  0  0  0  0  0  0
    7.1480    1.4461    2.3979 H   0  0  0  0  0  0  0  0  0  0  0  0
    7.3749    1.3793    0.6578 H   0  0  0  0  0  0  0  0  0  0  0  0
    4.9384    1.8619    3.3534 H   0  0  0  0  0  0  0  0  0  0  0  0
    5.0014    3.4520    2.5489 H   0  0  0  0  0  0  0  0  0  0  0  0
    3.6092    2.3764    2.3182 H   0  0  0  0  0  0  0  0  0  0  0  0
  1  2  1  0
  2  3  1  0
  3  4  1  0
  4  5  2  0
  4  6  1  0
  6  7  1  0
  7  8  1  0
  8  9  2  0
  9 10  1  0
 10 11  2  0
 11 12  1  0
 12 13  2  0
 13 14  1  0
 14 15  2  0
 15 16  1  0
 16 17  2  0
 11 18  1  0
 18 19  2  0
  7 20  2  0
 20 21  1  0
 21 22  1  0
 22 23  1  0
 23 24  1  0
 24 25  2  0
 24 26  1  0
 26 27  1  0
 27 28  1  0
 28 29  1  0
 29 30  1  0
 30 31  1  0
 30 32  1  0
 22  6  2  0
 19  8  1  0
 17 12  1  0
  1 33  1  0
  1 34  1  0
  1 35  1  0
  2 36  1  0
  2 37  1  0
  9 38  1  0
 10 39  1  0
 13 40  1  0
 14 41  1  0
 15 42  1  0
 16 43  1  0
 17 44  1  0
 18 45  1  0
 19 46  1  0
 20 47  1  0
 23 48  1  0
 26 49  1  0
 26 50  1  0
 27 51  1  0
 28 52  1  0
 28 53  1  0
 29 54  1  0
 29 55  1  0
 31 56  1  0
 31 57  1  0
 31 58  1  0
 32 59  1  0
 32 60  1  0
 32 61  1  0
M  END
$$$$
