
     RDKit          3D

 43 45  0  0  0  0  0  0  0  0999 V2000
    6.6439   -1.6259   -1.8857 C   0  0  0  0  0  0  0  0  0  0  0  0
    5.2784   -1.8266   -1.5470 O   0  0  0  0  0  0  0  0  0  0  0  0
    4.6895   -0.8825   -0.7484 C   0  0  0  0  0  0  0  0  0  0  0  0
    5.3134    0.2506   -0.2297 C   0  0  0  0  0  0  0  0  0  0  0  0
    4.6148    1.1554    0.5802 C   0  0  0  0  0  0  0  0  0  0  0  0
    3.2696    0.8849    0.8534 C   0  0  0  0  0  0  0  0  0  0  0  0
    2.3606    1.5916    1.6022 N   0  0  0  0  0  0  0  0  0  0  0  0
    1.1502    0.9535    1.6018 C   0  0  0  0  0  0  0  0  0  0  0  0
    1.2536   -0.1937    0.8327 C   0  0  0  0  0  0  0  0  0  0  0  0
    0.1805   -1.1608    0.5661 C   0  0  0  0  0  0  0  0  0  0  0  0
    0.3531   -2.1161   -0.1961 O   0  0  0  0  0  0  0  0  0  0  0  0
   -1.1777   -0.9841    1.2565 C   0  0  0  0  0  0  0  0  0  0  0  0
   -1.9688    0.1231    0.6721 N   0  0  0  0  0  0  0  0  0  0  0  0
   -3.1921    0.3765    1.4485 C   0  0  0  0  0  0  0  0  0  0  0  0
   -4.4484   -0.2501    0.8446 C   0  0  0  0  0  0  0  0  0  0  0  0
   -4.7142    0.2655   -0.5796 C   0  0  0  0  0  0  0  0  0  0  0  0
   -5.7353    1.4031   -0.5877 C   0  0  0  0  0  0  0  0  0  0  0  0
   -3.4141    0.7082   -1.2693 C   0  0  0  0  0  0  0  0  0  0  0  0
   -2.2228   -0.1037   -0.7635 C   0  0  0  0  0  0  0  0  0  0  0  0
    2.6078   -0.2373    0.3543 C   0  0  0  0  0  0  0  0  0  0  0  0
    3.3401   -1.1293   -0.4595 C   0  0  0  0  0  0  0  0  0  0  0  0
    7.2780   -1.6375   -0.9930 H   0  0  0  0  0  0  0  0  0  0  0  0
    6.7780   -0.7001   -2.4550 H   0  0  0  0  0  0  0  0  0  0  0  0
    6.9556   -2.4573   -2.5252 H   0  0  0  0  0  0  0  0  0  0  0  0
    6.3565    0.4672   -0.4366 H   0  0  0  0  0  0  0  0  0  0  0  0
    5.1087    2.0359    0.9783 H   0  0  0  0  0  0  0  0  0  0  0  0
    2.5617    2.4608    2.0775 H   0  0  0  0  0  0  0  0  0  0  0  0
    0.3113    1.3815    2.1352 H   0  0  0  0  0  0  0  0  0  0  0  0
   -1.7251   -1.9333    1.1915 H   0  0  0  0  0  0  0  0  0  0  0  0
   -0.9840   -0.8060    2.3215 H   0  0  0  0  0  0  0  0  0  0  0  0
   -3.3329    1.4637    1.5017 H   0  0  0  0  0  0  0  0  0  0  0  0
   -3.0812    0.0501    2.4900 H   0  0  0  0  0  0  0  0  0  0  0  0
   -4.3205   -1.3403    0.8138 H   0  0  0  0  0  0  0  0  0  0  0  0
   -5.3106   -0.0639    1.4956 H   0  0  0  0  0  0  0  0  0  0  0  0
   -5.1481   -0.5639   -1.1537 H   0  0  0  0  0  0  0  0  0  0  0  0
   -5.9226    1.7486   -1.6099 H   0  0  0  0  0  0  0  0  0  0  0  0
   -5.3860    2.2574    0.0018 H   0  0  0  0  0  0  0  0  0  0  0  0
   -6.6902    1.0703   -0.1673 H   0  0  0  0  0  0  0  0  0  0  0  0
   -3.5162    0.5846   -2.3542 H   0  0  0  0  0  0  0  0  0  0  0  0
   -3.2235    1.7758   -1.0970 H   0  0  0  0  0  0  0  0  0  0  0  0
   -2.4152   -1.1652   -0.9698 H   0  0  0  0  0  0  0  0  0  0  0  0
   -1.3326    0.1836   -1.3347 H   0  0  0  0  0  0  0  0  0  0  0  0
    2.8568   -2.0139   -0.8676 H   0  0  0  0  0  0  0  0  0  0  0  0
  1  2  1  0
  2  3  1  0
  3  4  2  0
  4  5  1  0
  5  6  2  0
  6  7  1  0
  7  8  1  0
  8  9  2  0
  9 10  1  0
 10 11  2  0
 10 12  1  0
 12 13  1  0
 13 14  1  0
 14 15  1  0
 15 16  1  0
 16 17  1  0
 16 18  1  0
 18 19  1  0
  9 20  1  0
 20 21  2  0
 21  3  1  0
 20  6  1  0
 19 13  1  0
  1 22  1  0
  1 23  1  0
  1 24  1  0
  4 25  1  0
  5 26  1  0
  7 27  1  0
  8 28  1  0
 12 29  1  0
 12 30  1  0
 14 31  1  0
 14 32  1  0
 15 33  1  0
 15 34  1  0
 16 35  1  0
 17 36  1  0
 17 37  1  0
 17 38  1  0
 18 39  1  0
 18 40  1  0
 19 41  1  0
 19 42  1  0
 21 43  1  0
M  END
$$$$
