
     RDKit          3D

 49 52  0  0  0  0  0  0  0  0999 V2000
    1.1889   -3.2087    0.2638 N   0  0  0  0  0  0  0  0  0  0  0  0
    0.0110   -2.6247    0.5518 C   0  0  0  0  0  0  0  0  0  0  0  0
   -0.8494   -3.1342    1.3787 N   0  0  0  0  0  0  0  0  0  0  0  0
   -1.9777   -2.1603    1.3808 C   0  0  0  0  0  0  0  0  0  0  0  0
   -1.5845   -0.9968    0.4417 C   0  0  0  0  0  0  0  0  0  0  0  0
   -2.5780   -0.7937   -0.7106 C   0  0  0  0  0  0  0  0  0  0  0  0
   -3.8820   -0.1774   -0.2605 C   0  0  0  0  0  0  0  0  0  0  0  0
   -3.9493    1.1880    0.0534 C   0  0  0  0  0  0  0  0  0  0  0  0
   -5.1496    1.7554    0.4827 C   0  0  0  0  0  0  0  0  0  0  0  0
   -6.2840    0.9623    0.5985 C   0  0  0  0  0  0  0  0  0  0  0  0
   -7.4347    1.5580    1.0226 O   0  0  0  0  0  0  0  0  0  0  0  0
   -6.2401   -0.3927    0.2896 C   0  0  0  0  0  0  0  0  0  0  0  0
   -5.0388   -0.9610   -0.1407 C   0  0  0  0  0  0  0  0  0  0  0  0
   -0.2905   -1.4547   -0.0686 N   0  0  0  0  0  0  0  0  0  0  0  0
    0.7004   -0.4573   -0.4660 C   0  0  0  0  0  0  0  0  0  0  0  0
    1.4314    0.1511    0.7393 C   0  0  0  0  0  0  0  0  0  0  0  0
    2.4840    1.1522    0.3030 C   0  0  0  0  0  0  0  0  0  0  0  0
    2.1210    2.5107    0.2713 C   0  0  0  0  0  0  0  0  0  0  0  0
    3.0262    3.4794   -0.1464 C   0  0  0  0  0  0  0  0  0  0  0  0
    4.3064    3.1053   -0.5438 C   0  0  0  0  0  0  0  0  0  0  0  0
    4.7016    1.7599   -0.5285 C   0  0  0  0  0  0  0  0  0  0  0  0
    5.9984    1.4051   -0.9363 C   0  0  0  0  0  0  0  0  0  0  0  0
    6.4153    0.0755   -0.9296 C   0  0  0  0  0  0  0  0  0  0  0  0
    5.5396   -0.9173   -0.5132 C   0  0  0  0  0  0  0  0  0  0  0  0
    4.2465   -0.5804   -0.1049 C   0  0  0  0  0  0  0  0  0  0  0  0
    3.7915    0.7590   -0.1017 C   0  0  0  0  0  0  0  0  0  0  0  0
    1.2105   -4.1465    0.6517 H   0  0  0  0  0  0  0  0  0  0  0  0
    1.3728   -3.2276   -0.7310 H   0  0  0  0  0  0  0  0  0  0  0  0
   -2.1337   -1.7940    2.4014 H   0  0  0  0  0  0  0  0  0  0  0  0
   -2.8886   -2.6768    1.0625 H   0  0  0  0  0  0  0  0  0  0  0  0
   -1.4707   -0.0786    1.0302 H   0  0  0  0  0  0  0  0  0  0  0  0
   -2.7667   -1.7449   -1.2259 H   0  0  0  0  0  0  0  0  0  0  0  0
   -2.1403   -0.1375   -1.4745 H   0  0  0  0  0  0  0  0  0  0  0  0
   -3.0696    1.8210   -0.0378 H   0  0  0  0  0  0  0  0  0  0  0  0
   -5.2004    2.8132    0.7247 H   0  0  0  0  0  0  0  0  0  0  0  0
   -8.1364    0.8873    1.0538 H   0  0  0  0  0  0  0  0  0  0  0  0
   -7.1223   -1.0192    0.3758 H   0  0  0  0  0  0  0  0  0  0  0  0
   -5.0123   -2.0221   -0.3814 H   0  0  0  0  0  0  0  0  0  0  0  0
    1.4142   -0.9145   -1.1614 H   0  0  0  0  0  0  0  0  0  0  0  0
    0.2056    0.3383   -1.0372 H   0  0  0  0  0  0  0  0  0  0  0  0
    1.8854   -0.6208    1.3707 H   0  0  0  0  0  0  0  0  0  0  0  0
    0.7100    0.6508    1.3987 H   0  0  0  0  0  0  0  0  0  0  0  0
    1.1239    2.8219    0.5763 H   0  0  0  0  0  0  0  0  0  0  0  0
    2.7362    4.5266   -0.1630 H   0  0  0  0  0  0  0  0  0  0  0  0
    4.9997    3.8788   -0.8675 H   0  0  0  0  0  0  0  0  0  0  0  0
    6.7000    2.1696   -1.2636 H   0  0  0  0  0  0  0  0  0  0  0  0
    7.4226   -0.1813   -1.2459 H   0  0  0  0  0  0  0  0  0  0  0  0
    5.8587   -1.9561   -0.4997 H   0  0  0  0  0  0  0  0  0  0  0  0
    3.5977   -1.3907    0.2194 H   0  0  0  0  0  0  0  0  0  0  0  0
  1  2  1  0
  2  3  2  0
  3  4  1  0
  4  5  1  0
  5  6  1  0
  6  7  1  0
  7  8  2  0
  8  9  1  0
  9 10  2  0
 10 11  1  0
 10 12  1  0
 12 13  2  0
  5 14  1  0
 14 15  1  0
 15 16  1  0
 16 17  1  0
 17 18  2  0
 18 19  1  0
 19 20  2  0
 20 21  1  0
 21 22  2  0
 22 23  1  0
 23 24  2  0
 24 25  1  0
 25 26  2  0
 14  2  1  0
 26 17  1  0
 13  7  1  0
 26 21  1  0
  1 27  1  0
  1 28  1  0
  4 29  1  0
  4 30  1  0
  5 31  1  0
  6 32  1  0
  6 33  1  0
  8 34  1  0
  9 35  1  0
 11 36  1  0
 12 37  1  0
 13 38  1  0
 15 39  1  0
 15 40  1  0
 16 41  1  0
 16 42  1  0
 18 43  1  0
 19 44  1  0
 20 45  1  0
 22 46  1  0
 23 47  1  0
 24 48  1  0
 25 49  1  0
M  END
$$$$
