
     RDKit          3D

 22 23  0  0  0  0  0  0  0  0999 V2000
   -3.2359   -0.0131   -1.3725 C   0  0  0  0  0  0  0  0  0  0  0  0
   -2.7387   -0.5071   -0.2304 C   0  0  0  0  0  0  0  0  0  0  0  0
   -2.0298    0.3146    0.8126 C   0  0  0  0  0  0  0  0  0  0  0  0
   -0.5993    0.0078    0.7769 N   0  0  0  0  0  0  0  0  0  0  0  0
   -0.0544   -1.0426    1.5436 C   0  0  0  0  0  0  0  0  0  0  0  0
   -0.8836   -2.0622    2.5919 S   0  0  0  0  0  0  0  0  0  0  0  0
    1.2982   -1.2691    1.4336 N   0  0  0  0  0  0  0  0  0  0  0  0
    2.0486   -0.4949    0.6085 C   0  0  0  0  0  0  0  0  0  0  0  0
    3.6967   -0.7749    0.4670 S   0  0  0  0  0  0  0  0  0  0  0  0
    3.8379    0.5228   -0.6567 C   0  0  0  0  0  0  0  0  0  0  0  0
    2.6202    1.1358   -0.8926 C   0  0  0  0  0  0  0  0  0  0  0  0
    1.5670    0.5297   -0.1429 C   0  0  0  0  0  0  0  0  0  0  0  0
    0.1564    0.8437   -0.0811 C   0  0  0  0  0  0  0  0  0  0  0  0
   -0.3067    1.7789   -0.7289 O   0  0  0  0  0  0  0  0  0  0  0  0
   -3.1324    1.0374   -1.6313 H   0  0  0  0  0  0  0  0  0  0  0  0
   -3.7467   -0.6561   -2.0827 H   0  0  0  0  0  0  0  0  0  0  0  0
   -2.8680   -1.5663   -0.0190 H   0  0  0  0  0  0  0  0  0  0  0  0
   -2.4562    0.1039    1.7978 H   0  0  0  0  0  0  0  0  0  0  0  0
   -2.1922    1.3852    0.6400 H   0  0  0  0  0  0  0  0  0  0  0  0
    1.7299   -2.0168    1.9639 H   0  0  0  0  0  0  0  0  0  0  0  0
    4.8005    0.7691   -1.0844 H   0  0  0  0  0  0  0  0  0  0  0  0
    2.4884    1.9743   -1.5669 H   0  0  0  0  0  0  0  0  0  0  0  0
  1  2  2  0
  2  3  1  0
  3  4  1  0
  4  5  1  0
  5  6  2  0
  5  7  1  0
  7  8  1  0
  8  9  1  0
  9 10  1  0
 10 11  2  0
 11 12  1  0
 12 13  1  0
 13 14  2  0
 13  4  1  0
 12  8  2  0
  1 15  1  0
  1 16  1  0
  2 17  1  0
  3 18  1  0
  3 19  1  0
  7 20  1  0
 10 21  1  0
 11 22  1  0
M  END
$$$$
