
     RDKit          3D

 46 47  0  0  0  0  0  0  0  0999 V2000
    1.5112   -3.4935    0.4362 C   0  0  0  0  0  0  0  0  0  0  0  0
    2.1708   -2.5977    1.4664 C   0  0  0  0  0  0  0  0  0  0  0  0
    1.6689   -1.2662    1.3030 O   0  0  0  0  0  0  0  0  0  0  0  0
    2.1328   -0.3898    2.2401 C   0  0  0  0  0  0  0  0  0  0  0  0
    2.9774   -0.6628    3.0850 O   0  0  0  0  0  0  0  0  0  0  0  0
    1.6078    0.9571    2.0486 C   0  0  0  0  0  0  0  0  0  0  0  0
    2.3970    2.1043    2.0584 C   0  0  0  0  0  0  0  0  0  0  0  0
    3.8617    2.2635    2.2710 C   0  0  0  0  0  0  0  0  0  0  0  0
    1.5878    3.1859    1.8231 N   0  0  0  0  0  0  0  0  0  0  0  0
    0.2875    2.7770    1.6670 C   0  0  0  0  0  0  0  0  0  0  0  0
   -0.8021    3.7580    1.4190 C   0  0  0  0  0  0  0  0  0  0  0  0
    0.2619    1.3985    1.8471 C   0  0  0  0  0  0  0  0  0  0  0  0
   -1.1706    0.4109    1.8525 S   0  0  0  0  0  6  0  0  0  0  0  0
   -2.1634    1.2385    2.5016 O   0  0  0  0  0  0  0  0  0  0  0  0
   -0.7816   -0.8697    2.3914 O   0  0  0  0  0  0  0  0  0  0  0  0
   -1.6679    0.2303    0.2622 N   0  0  0  0  0  0  0  0  0  0  0  0
   -0.7853   -0.5207   -0.6286 C   0  0  0  0  0  0  0  0  0  0  0  0
   -1.3545   -0.5727   -2.0306 C   0  0  0  0  0  0  0  0  0  0  0  0
   -0.8473    0.3094   -3.0023 C   0  0  0  0  0  0  0  0  0  0  0  0
   -1.3546    0.3116   -4.3011 C   0  0  0  0  0  0  0  0  0  0  0  0
   -2.3802   -0.5617   -4.6459 C   0  0  0  0  0  0  0  0  0  0  0  0
   -2.9018   -1.4355   -3.6923 C   0  0  0  0  0  0  0  0  0  0  0  0
   -2.4033   -1.4507   -2.3798 C   0  0  0  0  0  0  0  0  0  0  0  0
   -3.0022   -2.4039   -1.3804 C   0  0  0  0  0  0  0  0  0  0  0  0
    1.9033   -4.5125    0.4983 H   0  0  0  0  0  0  0  0  0  0  0  0
    1.6781   -3.1093   -0.5754 H   0  0  0  0  0  0  0  0  0  0  0  0
    0.4282   -3.5263    0.5926 H   0  0  0  0  0  0  0  0  0  0  0  0
    1.9403   -2.9652    2.4729 H   0  0  0  0  0  0  0  0  0  0  0  0
    3.2557   -2.5993    1.3123 H   0  0  0  0  0  0  0  0  0  0  0  0
    4.1964    3.2755    2.0209 H   0  0  0  0  0  0  0  0  0  0  0  0
    4.1155    2.0704    3.3181 H   0  0  0  0  0  0  0  0  0  0  0  0
    4.4198    1.5618    1.6429 H   0  0  0  0  0  0  0  0  0  0  0  0
    1.9029    4.1483    1.7868 H   0  0  0  0  0  0  0  0  0  0  0  0
   -1.5030    3.3800    0.6685 H   0  0  0  0  0  0  0  0  0  0  0  0
   -0.4047    4.7091    1.0491 H   0  0  0  0  0  0  0  0  0  0  0  0
   -1.3529    3.9576    2.3434 H   0  0  0  0  0  0  0  0  0  0  0  0
   -2.0247    1.1014   -0.1249 H   0  0  0  0  0  0  0  0  0  0  0  0
    0.1998   -0.0433   -0.6670 H   0  0  0  0  0  0  0  0  0  0  0  0
   -0.6411   -1.5385   -0.2576 H   0  0  0  0  0  0  0  0  0  0  0  0
   -0.0467    1.0027   -2.7525 H   0  0  0  0  0  0  0  0  0  0  0  0
   -0.9502    0.9947   -5.0434 H   0  0  0  0  0  0  0  0  0  0  0  0
   -2.7784   -0.5626   -5.6573 H   0  0  0  0  0  0  0  0  0  0  0  0
   -3.7078   -2.1073   -3.9811 H   0  0  0  0  0  0  0  0  0  0  0  0
   -3.4264   -1.8564   -0.5334 H   0  0  0  0  0  0  0  0  0  0  0  0
   -3.8107   -2.9945   -1.8246 H   0  0  0  0  0  0  0  0  0  0  0  0
   -2.2432   -3.1063   -1.0219 H   0  0  0  0  0  0  0  0  0  0  0  0
  1  2  1  0
  2  3  1  0
  3  4  1  0
  4  5  2  0
  4  6  1  0
  6  7  2  0
  7  8  1  0
  7  9  1  0
  9 10  1  0
 10 11  1  0
 10 12  2  0
 12 13  1  0
 13 14  2  0
 13 15  2  0
 13 16  1  0
 16 17  1  0
 17 18  1  0
 18 19  2  0
 19 20  1  0
 20 21  2  0
 21 22  1  0
 22 23  2  0
 23 24  1  0
 12  6  1  0
 23 18  1  0
  1 25  1  0
  1 26  1  0
  1 27  1  0
  2 28  1  0
  2 29  1  0
  8 30  1  0
  8 31  1  0
  8 32  1  0
  9 33  1  0
 11 34  1  0
 11 35  1  0
 11 36  1  0
 16 37  1  0
 17 38  1  0
 17 39  1  0
 19 40  1  0
 20 41  1  0
 21 42  1  0
 22 43  1  0
 24 44  1  0
 24 45  1  0
 24 46  1  0
M  END
$$$$
