
     RDKit          3D

 39 40  0  0  0  0  0  0  0  0999 V2000
   -3.2531   -1.3699    2.8782 C   0  0  0  0  0  0  0  0  0  0  0  0
   -3.9544   -0.8436    1.6356 C   0  0  0  0  0  0  0  0  0  0  0  0
   -3.0117   -0.1489    0.6510 C   0  0  0  0  0  0  0  0  0  0  0  0
   -1.9817   -1.0954    0.0292 C   0  0  0  0  0  0  0  0  0  0  0  0
   -1.2010   -0.4081   -0.9761 N   0  0  0  0  0  0  0  0  0  0  0  0
   -1.5329   -0.1181   -2.2559 C   0  0  0  0  0  0  0  0  0  0  0  0
   -2.5679   -0.7576   -2.8285 N   0  0  0  0  0  0  0  0  0  0  0  0
   -0.8062    0.7521   -2.8929 N   0  0  0  0  0  0  0  0  0  0  0  0
    0.1730    1.2272   -1.8701 C   0  0  0  0  0  0  0  0  0  0  0  0
    0.0065    0.3280   -0.6225 C   0  0  0  0  0  0  0  0  0  0  0  0
    1.1935   -0.6305   -0.4303 C   0  0  0  0  0  0  0  0  0  0  0  0
    2.4334    0.0605    0.0899 C   0  0  0  0  0  0  0  0  0  0  0  0
    3.5311    0.2857   -0.7534 C   0  0  0  0  0  0  0  0  0  0  0  0
    4.6727    0.9334   -0.2757 C   0  0  0  0  0  0  0  0  0  0  0  0
    4.7168    1.3539    1.0490 C   0  0  0  0  0  0  0  0  0  0  0  0
    5.8105    1.9901    1.5568 O   0  0  0  0  0  0  0  0  0  0  0  0
    3.6415    1.1357    1.9008 C   0  0  0  0  0  0  0  0  0  0  0  0
    2.5007    0.4890    1.4237 C   0  0  0  0  0  0  0  0  0  0  0  0
   -2.6937   -0.5745    3.3807 H   0  0  0  0  0  0  0  0  0  0  0  0
   -3.9893   -1.7653    3.5855 H   0  0  0  0  0  0  0  0  0  0  0  0
   -2.5602   -2.1807    2.6351 H   0  0  0  0  0  0  0  0  0  0  0  0
   -4.4769   -1.6668    1.1346 H   0  0  0  0  0  0  0  0  0  0  0  0
   -4.7216   -0.1248    1.9473 H   0  0  0  0  0  0  0  0  0  0  0  0
   -2.4997    0.6801    1.1552 H   0  0  0  0  0  0  0  0  0  0  0  0
   -3.6193    0.3046   -0.1420 H   0  0  0  0  0  0  0  0  0  0  0  0
   -2.4828   -1.9651   -0.4115 H   0  0  0  0  0  0  0  0  0  0  0  0
   -1.3188   -1.4868    0.8078 H   0  0  0  0  0  0  0  0  0  0  0  0
   -2.7763   -0.3448   -3.7315 H   0  0  0  0  0  0  0  0  0  0  0  0
   -3.3933   -0.8087   -2.2507 H   0  0  0  0  0  0  0  0  0  0  0  0
   -0.0632    2.2688   -1.6236 H   0  0  0  0  0  0  0  0  0  0  0  0
    1.1815    1.2002   -2.2922 H   0  0  0  0  0  0  0  0  0  0  0  0
   -0.1555    0.9473    0.2674 H   0  0  0  0  0  0  0  0  0  0  0  0
    1.4176   -1.1539   -1.3695 H   0  0  0  0  0  0  0  0  0  0  0  0
    0.9323   -1.4233    0.2824 H   0  0  0  0  0  0  0  0  0  0  0  0
    3.5030   -0.0410   -1.7913 H   0  0  0  0  0  0  0  0  0  0  0  0
    5.5089    1.0982   -0.9478 H   0  0  0  0  0  0  0  0  0  0  0  0
    6.4761    2.0675    0.8537 H   0  0  0  0  0  0  0  0  0  0  0  0
    3.6923    1.4666    2.9342 H   0  0  0  0  0  0  0  0  0  0  0  0
    1.6681    0.3189    2.1024 H   0  0  0  0  0  0  0  0  0  0  0  0
  1  2  1  0
  2  3  1  0
  3  4  1  0
  4  5  1  0
  5  6  1  0
  6  7  1  0
  6  8  2  0
  8  9  1  0
  9 10  1  0
 10 11  1  0
 11 12  1  0
 12 13  2  0
 13 14  1  0
 14 15  2  0
 15 16  1  0
 15 17  1  0
 17 18  2  0
 10  5  1  0
 18 12  1  0
  1 19  1  0
  1 20  1  0
  1 21  1  0
  2 22  1  0
  2 23  1  0
  3 24  1  0
  3 25  1  0
  4 26  1  0
  4 27  1  0
  7 28  1  0
  7 29  1  0
  9 30  1  0
  9 31  1  0
 10 32  1  0
 11 33  1  0
 11 34  1  0
 13 35  1  0
 14 36  1  0
 16 37  1  0
 17 38  1  0
 18 39  1  0
M  END
$$$$
