
     RDKit          3D

 45 47  0  0  0  0  0  0  0  0999 V2000
    8.1799   -1.6534    1.6097 N   0  0  0  0  0  0  0  0  0  0  0  0
    7.2346   -1.0340    1.3445 C   0  0  0  0  0  0  0  0  0  0  0  0
    6.0685   -0.2656    1.0195 C   0  0  0  0  0  0  0  0  0  0  0  0
    5.3456    0.3758    2.0270 C   0  0  0  0  0  0  0  0  0  0  0  0
    4.2114    1.1248    1.7017 C   0  0  0  0  0  0  0  0  0  0  0  0
    3.7866    1.2412    0.3745 C   0  0  0  0  0  0  0  0  0  0  0  0
    2.6642    2.0015    0.2073 O   0  0  0  0  0  0  0  0  0  0  0  0
    2.1023    2.1004   -1.0931 C   0  0  0  0  0  0  0  0  0  0  0  0
    1.4225    0.8332   -1.6332 C   0  0  0  0  0  0  0  0  0  0  0  0
    1.7862    0.3628   -2.7151 O   0  0  0  0  0  0  0  0  0  0  0  0
    0.4159    0.2506   -0.8739 N   0  0  0  0  0  0  0  0  0  0  0  0
   -0.3042    0.9425    0.2054 C   0  0  0  0  0  0  0  0  0  0  0  0
   -0.8153   -0.0332    1.2844 C   0  0  0  0  0  0  0  0  0  0  0  0
   -1.6049   -1.1336    0.6927 N   0  0  0  0  0  0  0  0  0  0  0  0
   -2.9288   -0.8109    0.3668 C   0  0  0  0  0  0  0  0  0  0  0  0
   -3.7987   -0.3531    1.3572 C   0  0  0  0  0  0  0  0  0  0  0  0
   -5.1231   -0.0465    1.0410 C   0  0  0  0  0  0  0  0  0  0  0  0
   -5.5727   -0.2059   -0.2676 C   0  0  0  0  0  0  0  0  0  0  0  0
   -6.9862    0.0729   -0.6679 C   0  0  0  0  0  0  0  0  0  0  0  0
   -7.1290    0.3262   -1.9996 F   0  0  0  0  0  0  0  0  0  0  0  0
   -7.8193   -0.9690   -0.3938 F   0  0  0  0  0  0  0  0  0  0  0  0
   -7.5135    1.1544   -0.0260 F   0  0  0  0  0  0  0  0  0  0  0  0
   -4.6605   -0.6896   -1.1880 C   0  0  0  0  0  0  0  0  0  0  0  0
   -3.3715   -0.9879   -0.8964 N   0  0  0  0  0  0  0  0  0  0  0  0
   -0.8567   -1.8511   -0.3652 C   0  0  0  0  0  0  0  0  0  0  0  0
   -0.2968   -0.9034   -1.4442 C   0  0  0  0  0  0  0  0  0  0  0  0
    4.5137    0.6046   -0.6311 C   0  0  0  0  0  0  0  0  0  0  0  0
    5.6493   -0.1490   -0.3089 C   0  0  0  0  0  0  0  0  0  0  0  0
    5.6559    0.2999    3.0669 H   0  0  0  0  0  0  0  0  0  0  0  0
    3.6539    1.6232    2.4917 H   0  0  0  0  0  0  0  0  0  0  0  0
    1.3400    2.8882   -1.0642 H   0  0  0  0  0  0  0  0  0  0  0  0
    2.8518    2.4537   -1.8121 H   0  0  0  0  0  0  0  0  0  0  0  0
    0.3207    1.6992    0.6810 H   0  0  0  0  0  0  0  0  0  0  0  0
   -1.1435    1.4704   -0.2633 H   0  0  0  0  0  0  0  0  0  0  0  0
   -1.3686    0.5163    2.0534 H   0  0  0  0  0  0  0  0  0  0  0  0
    0.0497   -0.4774    1.7935 H   0  0  0  0  0  0  0  0  0  0  0  0
   -3.4639   -0.2683    2.3857 H   0  0  0  0  0  0  0  0  0  0  0  0
   -5.7976    0.2974    1.8215 H   0  0  0  0  0  0  0  0  0  0  0  0
   -4.9390   -0.8664   -2.2256 H   0  0  0  0  0  0  0  0  0  0  0  0
   -1.4565   -2.6505   -0.8182 H   0  0  0  0  0  0  0  0  0  0  0  0
   -0.0108   -2.3547    0.1215 H   0  0  0  0  0  0  0  0  0  0  0  0
    0.3721   -1.4703   -2.1008 H   0  0  0  0  0  0  0  0  0  0  0  0
   -1.0978   -0.4998   -2.0735 H   0  0  0  0  0  0  0  0  0  0  0  0
    4.2324    0.6666   -1.6785 H   0  0  0  0  0  0  0  0  0  0  0  0
    6.2017   -0.6428   -1.1067 H   0  0  0  0  0  0  0  0  0  0  0  0
  1  2  3  0
  2  3  1  0
  3  4  2  0
  4  5  1  0
  5  6  2  0
  6  7  1  0
  7  8  1  0
  8  9  1  0
  9 10  2  0
  9 11  1  0
 11 12  1  0
 12 13  1  0
 13 14  1  0
 14 15  1  0
 15 16  2  0
 16 17  1  0
 17 18  2  0
 18 19  1  0
 19 20  1  0
 19 21  1  0
 19 22  1  0
 18 23  1  0
 23 24  2  0
 14 25  1  0
 25 26  1  0
  6 27  1  0
 27 28  2  0
 28  3  1  0
 26 11  1  0
 24 15  1  0
  4 29  1  0
  5 30  1  0
  8 31  1  0
  8 32  1  0
 12 33  1  0
 12 34  1  0
 13 35  1  0
 13 36  1  0
 16 37  1  0
 17 38  1  0
 23 39  1  0
 25 40  1  0
 25 41  1  0
 26 42  1  0
 26 43  1  0
 27 44  1  0
 28 45  1  0
M  END
$$$$
