
     RDKit          3D

 47 49  0  0  0  0  0  0  0  0999 V2000
    2.5628   -2.2725   -0.0550 O   0  0  0  0  0  0  0  0  0  0  0  0
    2.1497   -1.5380    0.8348 C   0  0  0  0  0  0  0  0  0  0  0  0
    0.6861   -1.2333    1.0550 C   0  0  0  0  0  0  0  0  0  0  0  0
   -0.1778   -1.9207    0.0009 C   0  0  0  0  0  0  0  0  0  0  0  0
   -1.6019   -1.6290    0.1911 N   0  0  0  0  0  0  0  0  0  0  0  0
   -2.1127   -0.4578   -0.3418 C   0  0  0  0  0  0  0  0  0  0  0  0
   -1.4735    0.3944   -0.9438 O   0  0  0  0  0  0  0  0  0  0  0  0
   -3.5655   -0.3465   -0.0488 C   0  0  0  0  0  0  0  0  0  0  0  0
   -4.2916    0.6941   -0.4793 C   0  0  0  0  0  0  0  0  0  0  0  0
   -5.7211    0.9111   -0.2345 C   0  0  0  0  0  0  0  0  0  0  0  0
   -6.1255    2.0260    0.5123 C   0  0  0  0  0  0  0  0  0  0  0  0
   -7.4821    2.2619    0.7445 C   0  0  0  0  0  0  0  0  0  0  0  0
   -8.4289    1.3879    0.2238 C   0  0  0  0  0  0  0  0  0  0  0  0
   -9.7297    1.6157    0.4465 F   0  0  0  0  0  0  0  0  0  0  0  0
   -8.0460    0.2836   -0.5280 C   0  0  0  0  0  0  0  0  0  0  0  0
   -6.6900    0.0459   -0.7618 C   0  0  0  0  0  0  0  0  0  0  0  0
   -4.0786   -1.6800    0.9021 S   0  0  0  0  0  0  0  0  0  0  0  0
   -2.4742   -2.4018    0.9295 C   0  0  0  0  0  0  0  0  0  0  0  0
   -2.1495   -3.8079    1.7651 S   0  0  0  0  0  0  0  0  0  0  0  0
    2.9790   -0.9000    1.7312 N   0  0  0  0  0  0  0  0  0  0  0  0
    4.4164   -1.0840    1.7226 C   0  0  0  0  0  0  0  0  0  0  0  0
    5.1438   -0.0295    0.8941 C   0  0  0  0  0  0  0  0  0  0  0  0
    4.9112   -0.1874   -0.6079 C   0  0  0  0  0  0  0  0  0  0  0  0
    5.7172    0.7445   -1.3737 N   0  0  0  0  0  0  0  0  0  0  0  0
    5.3674    2.0174   -1.7259 C   0  0  0  0  0  0  0  0  0  0  0  0
    6.4469    2.4967   -2.4310 C   0  0  0  0  0  0  0  0  0  0  0  0
    7.4337    1.5482   -2.5153 N   0  0  0  0  0  0  0  0  0  0  0  0
    6.9620    0.5002   -1.8778 C   0  0  0  0  0  0  0  0  0  0  0  0
    0.5452   -0.1470    1.0141 H   0  0  0  0  0  0  0  0  0  0  0  0
    0.4069   -1.5708    2.0595 H   0  0  0  0  0  0  0  0  0  0  0  0
    0.1146   -1.5752   -0.9988 H   0  0  0  0  0  0  0  0  0  0  0  0
   -0.0158   -3.0036    0.0160 H   0  0  0  0  0  0  0  0  0  0  0  0
   -3.8089    1.4849   -1.0526 H   0  0  0  0  0  0  0  0  0  0  0  0
   -5.3899    2.7148    0.9219 H   0  0  0  0  0  0  0  0  0  0  0  0
   -7.8053    3.1196    1.3256 H   0  0  0  0  0  0  0  0  0  0  0  0
   -8.8033   -0.3828   -0.9284 H   0  0  0  0  0  0  0  0  0  0  0  0
   -6.3995   -0.8158   -1.3585 H   0  0  0  0  0  0  0  0  0  0  0  0
    2.5765   -0.2942    2.4366 H   0  0  0  0  0  0  0  0  0  0  0  0
    4.7419   -1.0129    2.7661 H   0  0  0  0  0  0  0  0  0  0  0  0
    4.6584   -2.0914    1.3664 H   0  0  0  0  0  0  0  0  0  0  0  0
    4.8377    0.9746    1.2142 H   0  0  0  0  0  0  0  0  0  0  0  0
    6.2185   -0.1094    1.1023 H   0  0  0  0  0  0  0  0  0  0  0  0
    3.8660    0.0033   -0.8737 H   0  0  0  0  0  0  0  0  0  0  0  0
    5.1687   -1.1980   -0.9447 H   0  0  0  0  0  0  0  0  0  0  0  0
    4.4192    2.4621   -1.4595 H   0  0  0  0  0  0  0  0  0  0  0  0
    6.5658    3.4727   -2.8833 H   0  0  0  0  0  0  0  0  0  0  0  0
    7.4759   -0.4439   -1.7518 H   0  0  0  0  0  0  0  0  0  0  0  0
  1  2  2  0
  2  3  1  0
  3  4  1  0
  4  5  1  0
  5  6  1  0
  6  7  2  0
  6  8  1  0
  8  9  2  3
  9 10  1  0
 10 11  2  0
 11 12  1  0
 12 13  2  0
 13 14  1  0
 13 15  1  0
 15 16  2  0
  8 17  1  0
 17 18  1  0
 18 19  2  0
  2 20  1  0
 20 21  1  0
 21 22  1  0
 22 23  1  0
 23 24  1  0
 24 25  1  0
 25 26  2  0
 26 27  1  0
 27 28  2  0
 18  5  1  0
 28 24  1  0
 16 10  1  0
  3 29  1  0
  3 30  1  0
  4 31  1  0
  4 32  1  0
  9 33  1  0
 11 34  1  0
 12 35  1  0
 15 36  1  0
 16 37  1  0
 20 38  1  0
 21 39  1  0
 21 40  1  0
 22 41  1  0
 22 42  1  0
 23 43  1  0
 23 44  1  0
 25 45  1  0
 26 46  1  0
 28 47  1  0
M  END
$$$$
