
     RDKit          3D

 53 56  0  0  0  0  0  0  0  0999 V2000
   -8.3609    1.1574    1.5255 C   0  0  0  0  0  0  0  0  0  0  0  0
   -7.9707    0.1957    0.5537 O   0  0  0  0  0  0  0  0  0  0  0  0
   -6.7864    0.5953   -0.1371 C   0  0  0  0  0  0  0  0  0  0  0  0
   -6.4363   -0.4787   -1.1705 C   0  0  0  0  0  0  0  0  0  0  0  0
   -6.0349   -1.8102   -0.5269 C   0  0  0  0  0  0  0  0  0  0  0  0
   -4.5567   -1.6261   -0.2005 C   0  0  0  0  0  0  0  0  0  0  0  0
   -4.0800   -0.6578   -1.1798 N   0  0  0  0  0  0  0  0  0  0  0  0
   -2.7699   -0.2868   -1.4603 C   0  0  0  0  0  0  0  0  0  0  0  0
   -2.5345    0.4819   -2.3964 O   0  0  0  0  0  0  0  0  0  0  0  0
   -1.6573   -0.8008   -0.6430 C   0  0  0  0  0  0  0  0  0  0  0  0
   -0.2758   -0.5752   -0.9017 C   0  0  0  0  0  0  0  0  0  0  0  0
    0.3893   -1.2109    0.1168 C   0  0  0  0  0  0  0  0  0  0  0  0
    1.8127   -1.4001    0.4795 C   0  0  0  0  0  0  0  0  0  0  0  0
    2.5207   -0.2623   -0.0062 O   0  0  0  0  0  0  0  0  0  0  0  0
    3.8719   -0.1899    0.2368 C   0  0  0  0  0  0  0  0  0  0  0  0
    4.6055   -1.1959    0.8688 C   0  0  0  0  0  0  0  0  0  0  0  0
    5.9779   -1.0481    1.0762 C   0  0  0  0  0  0  0  0  0  0  0  0
    6.6402    0.1065    0.6544 C   0  0  0  0  0  0  0  0  0  0  0  0
    7.9877    0.3218    0.8249 O   0  0  0  0  0  0  0  0  0  0  0  0
    8.7484   -0.6976    1.4596 C   0  0  0  0  0  0  0  0  0  0  0  0
    5.9172    1.1406    0.0092 C   0  0  0  0  0  0  0  0  0  0  0  0
    6.5426    2.3279   -0.4360 C   0  0  0  0  0  0  0  0  0  0  0  0
    5.8272    3.3441   -1.0701 C   0  0  0  0  0  0  0  0  0  0  0  0
    4.4639    3.1985   -1.2757 C   0  0  0  0  0  0  0  0  0  0  0  0
    3.8209    2.0371   -0.8469 C   0  0  0  0  0  0  0  0  0  0  0  0
    4.5211    0.9912   -0.2019 C   0  0  0  0  0  0  0  0  0  0  0  0
   -0.5231   -1.7918    0.9385 O   0  0  0  0  0  0  0  0  0  0  0  0
   -1.7965   -1.5336    0.4752 N   0  0  0  0  0  0  0  0  0  0  0  0
   -5.1808   -0.1095   -1.9543 C   0  0  0  0  0  0  0  0  0  0  0  0
   -7.5739    1.2863    2.2746 H   0  0  0  0  0  0  0  0  0  0  0  0
   -9.2632    0.7950    2.0251 H   0  0  0  0  0  0  0  0  0  0  0  0
   -8.5872    2.1149    1.0462 H   0  0  0  0  0  0  0  0  0  0  0  0
   -5.9739    0.7387    0.5845 H   0  0  0  0  0  0  0  0  0  0  0  0
   -6.9729    1.5495   -0.6438 H   0  0  0  0  0  0  0  0  0  0  0  0
   -7.2965   -0.6218   -1.8349 H   0  0  0  0  0  0  0  0  0  0  0  0
   -6.6255   -2.0826    0.3524 H   0  0  0  0  0  0  0  0  0  0  0  0
   -6.1455   -2.6148   -1.2652 H   0  0  0  0  0  0  0  0  0  0  0  0
   -4.4239   -1.2014    0.7999 H   0  0  0  0  0  0  0  0  0  0  0  0
   -4.0105   -2.5696   -0.2830 H   0  0  0  0  0  0  0  0  0  0  0  0
    0.1577   -0.0175   -1.7198 H   0  0  0  0  0  0  0  0  0  0  0  0
    1.9104   -1.4717    1.5692 H   0  0  0  0  0  0  0  0  0  0  0  0
    2.1821   -2.3143    0.0008 H   0  0  0  0  0  0  0  0  0  0  0  0
    4.1454   -2.1154    1.2149 H   0  0  0  0  0  0  0  0  0  0  0  0
    6.5015   -1.8586    1.5725 H   0  0  0  0  0  0  0  0  0  0  0  0
    8.7259   -1.6266    0.8803 H   0  0  0  0  0  0  0  0  0  0  0  0
    8.4089   -0.8610    2.4876 H   0  0  0  0  0  0  0  0  0  0  0  0
    9.7881   -0.3594    1.5038 H   0  0  0  0  0  0  0  0  0  0  0  0
    7.6120    2.4678   -0.2867 H   0  0  0  0  0  0  0  0  0  0  0  0
    6.3384    4.2444   -1.3996 H   0  0  0  0  0  0  0  0  0  0  0  0
    3.8968    3.9840   -1.7678 H   0  0  0  0  0  0  0  0  0  0  0  0
    2.7495    1.9508   -1.0202 H   0  0  0  0  0  0  0  0  0  0  0  0
   -5.0567    0.9668   -2.1104 H   0  0  0  0  0  0  0  0  0  0  0  0
   -5.1704   -0.6063   -2.9316 H   0  0  0  0  0  0  0  0  0  0  0  0
  1  2  1  0
  2  3  1  0
  3  4  1  0
  4  5  1  0
  5  6  1  0
  6  7  1  0
  7  8  1  0
  8  9  2  0
  8 10  1  0
 10 11  1  0
 11 12  2  0
 12 13  1  0
 13 14  1  0
 14 15  1  0
 15 16  2  0
 16 17  1  0
 17 18  2  0
 18 19  1  0
 19 20  1  0
 18 21  1  0
 21 22  2  0
 22 23  1  0
 23 24  2  0
 24 25  1  0
 25 26  2  0
 12 27  1  0
 27 28  1  0
  7 29  1  0
 29  4  1  0
 28 10  2  0
 26 15  1  0
 26 21  1  0
  1 30  1  0
  1 31  1  0
  1 32  1  0
  3 33  1  0
  3 34  1  0
  4 35  1  0
  5 36  1  0
  5 37  1  0
  6 38  1  0
  6 39  1  0
 11 40  1  0
 13 41  1  0
 13 42  1  0
 16 43  1  0
 17 44  1  0
 20 45  1  0
 20 46  1  0
 20 47  1  0
 22 48  1  0
 23 49  1  0
 24 50  1  0
 25 51  1  0
 29 52  1  0
 29 53  1  0
M  END
$$$$
