
     RDKit          3D

 55 57  0  0  0  0  0  0  0  0999 V2000
    0.8621   -0.9884   -1.3353 O   0  0  0  0  0  0  0  0  0  0  0  0
    0.5216    0.0290   -0.7407 C   0  0  0  0  0  0  0  0  0  0  0  0
   -0.7948    0.3373   -0.4636 N   0  0  0  0  0  0  0  0  0  0  0  0
   -1.8740   -0.5014   -0.9481 C   0  0  0  0  0  0  0  0  0  0  0  0
   -3.1587   -0.2441   -0.1666 C   0  0  0  0  0  0  0  0  0  0  0  0
   -4.3066   -1.1177   -0.6758 C   0  0  0  0  0  0  0  0  0  0  0  0
   -5.5865   -0.9404    0.1432 C   0  0  0  0  0  0  0  0  0  0  0  0
   -6.7249   -1.8362   -0.3478 C   0  0  0  0  0  0  0  0  0  0  0  0
   -8.0039   -1.1728    0.1588 C   0  0  0  0  0  0  0  0  0  0  0  0
   -7.6154    0.2406    0.5867 C   0  0  0  0  0  0  0  0  0  0  0  0
   -6.2046    0.4528    0.0570 C   0  0  0  0  0  0  0  0  0  0  0  0
    1.5120    1.0822   -0.2641 C   0  0  0  0  0  0  0  0  0  0  0  0
    1.4706    1.2619    1.2486 C   0  0  0  0  0  0  0  0  0  0  0  0
    2.4186    2.3757    1.6545 C   0  0  0  0  0  0  0  0  0  0  0  0
    3.8140    2.2771    1.0665 C   0  0  0  0  0  0  0  0  0  0  0  0
    4.7469    2.8613    1.6183 O   0  0  0  0  0  0  0  0  0  0  0  0
    3.9471    1.6178   -0.1467 N   0  0  0  0  0  0  0  0  0  0  0  0
    5.2807    1.5257   -0.7407 C   0  0  0  0  0  0  0  0  0  0  0  0
    6.0073    0.2517   -0.3697 C   0  0  0  0  0  0  0  0  0  0  0  0
    6.6207    0.1236    0.8856 C   0  0  0  0  0  0  0  0  0  0  0  0
    7.2778   -1.0572    1.2383 C   0  0  0  0  0  0  0  0  0  0  0  0
    7.3235   -2.1183    0.3380 C   0  0  0  0  0  0  0  0  0  0  0  0
    8.1332   -3.5736    0.7707 Cl  0  0  0  0  0  0  0  0  0  0  0  0
    6.7173   -2.0095   -0.9114 C   0  0  0  0  0  0  0  0  0  0  0  0
    6.0595   -0.8283   -1.2639 C   0  0  0  0  0  0  0  0  0  0  0  0
    2.9336    0.6861   -0.6448 C   0  0  0  0  0  0  0  0  0  0  0  0
   -1.0163    1.2986   -0.2364 H   0  0  0  0  0  0  0  0  0  0  0  0
   -1.5752   -1.5526   -0.8659 H   0  0  0  0  0  0  0  0  0  0  0  0
   -2.0127   -0.2731   -2.0109 H   0  0  0  0  0  0  0  0  0  0  0  0
   -2.9844   -0.4427    0.8985 H   0  0  0  0  0  0  0  0  0  0  0  0
   -3.4268    0.8162   -0.2498 H   0  0  0  0  0  0  0  0  0  0  0  0
   -4.5000   -0.8852   -1.7306 H   0  0  0  0  0  0  0  0  0  0  0  0
   -4.0043   -2.1718   -0.6356 H   0  0  0  0  0  0  0  0  0  0  0  0
   -5.3798   -1.1778    1.1957 H   0  0  0  0  0  0  0  0  0  0  0  0
   -6.7455   -1.8772   -1.4437 H   0  0  0  0  0  0  0  0  0  0  0  0
   -6.6262   -2.8634    0.0185 H   0  0  0  0  0  0  0  0  0  0  0  0
   -8.7618   -1.1538   -0.6305 H   0  0  0  0  0  0  0  0  0  0  0  0
   -8.4281   -1.7250    1.0044 H   0  0  0  0  0  0  0  0  0  0  0  0
   -7.6162    0.3068    1.6811 H   0  0  0  0  0  0  0  0  0  0  0  0
   -8.3139    0.9927    0.2109 H   0  0  0  0  0  0  0  0  0  0  0  0
   -5.6601    1.1947    0.6489 H   0  0  0  0  0  0  0  0  0  0  0  0
   -6.2413    0.8023   -0.9814 H   0  0  0  0  0  0  0  0  0  0  0  0
    1.2543    2.0270   -0.7603 H   0  0  0  0  0  0  0  0  0  0  0  0
    0.4607    1.5030    1.5971 H   0  0  0  0  0  0  0  0  0  0  0  0
    1.7560    0.3266    1.7462 H   0  0  0  0  0  0  0  0  0  0  0  0
    2.5086    2.3864    2.7469 H   0  0  0  0  0  0  0  0  0  0  0  0
    2.0078    3.3444    1.3445 H   0  0  0  0  0  0  0  0  0  0  0  0
    5.8913    2.3867   -0.4421 H   0  0  0  0  0  0  0  0  0  0  0  0
    5.1696    1.6009   -1.8296 H   0  0  0  0  0  0  0  0  0  0  0  0
    6.5876    0.9479    1.5964 H   0  0  0  0  0  0  0  0  0  0  0  0
    7.7472   -1.1399    2.2145 H   0  0  0  0  0  0  0  0  0  0  0  0
    6.7497   -2.8388   -1.6124 H   0  0  0  0  0  0  0  0  0  0  0  0
    5.5841   -0.7594   -2.2401 H   0  0  0  0  0  0  0  0  0  0  0  0
    3.1762   -0.3062   -0.2446 H   0  0  0  0  0  0  0  0  0  0  0  0
    3.0226    0.6369   -1.7366 H   0  0  0  0  0  0  0  0  0  0  0  0
  1  2  2  0
  2  3  1  0
  3  4  1  0
  4  5  1  0
  5  6  1  0
  6  7  1  0
  7  8  1  0
  8  9  1  0
  9 10  1  0
 10 11  1  0
  2 12  1  0
 12 13  1  0
 13 14  1  0
 14 15  1  0
 15 16  2  0
 15 17  1  0
 17 18  1  0
 18 19  1  0
 19 20  2  0
 20 21  1  0
 21 22  2  0
 22 23  1  0
 22 24  1  0
 24 25  2  0
 17 26  1  0
 11  7  1  0
 26 12  1  0
 25 19  1  0
  3 27  1  0
  4 28  1  0
  4 29  1  0
  5 30  1  0
  5 31  1  0
  6 32  1  0
  6 33  1  0
  7 34  1  0
  8 35  1  0
  8 36  1  0
  9 37  1  0
  9 38  1  0
 10 39  1  0
 10 40  1  0
 11 41  1  0
 11 42  1  0
 12 43  1  0
 13 44  1  0
 13 45  1  0
 14 46  1  0
 14 47  1  0
 18 48  1  0
 18 49  1  0
 20 50  1  0
 21 51  1  0
 24 52  1  0
 25 53  1  0
 26 54  1  0
 26 55  1  0
M  END
$$$$
