
     RDKit          3D

 52 54  0  0  0  0  0  0  0  0999 V2000
    6.9052   -0.0182   -2.0808 C   0  0  0  0  0  0  0  0  0  0  0  0
    6.3027    0.2427   -0.7779 N   0  0  0  0  0  0  0  0  0  0  0  0
    7.1757    0.1693    0.4013 C   0  0  0  0  0  0  0  0  0  0  0  0
    7.2201   -1.2062    1.0715 C   0  0  0  0  0  0  0  0  0  0  0  0
    8.0227   -2.1535    0.2907 C   0  0  0  0  0  0  0  0  0  0  0  0
    8.6639   -2.8877   -0.3395 N   0  0  0  0  0  0  0  0  0  0  0  0
    4.9234    0.2850   -0.5603 C   0  0  0  0  0  0  0  0  0  0  0  0
    4.4608    0.3250    0.5820 O   0  0  0  0  0  0  0  0  0  0  0  0
    4.0166    0.2743   -1.7941 C   0  0  0  0  0  0  0  0  0  0  0  0
    2.6419    0.2774   -1.4028 O   0  0  0  0  0  0  0  0  0  0  0  0
    1.7746    0.3042   -2.4383 C   0  0  0  0  0  0  0  0  0  0  0  0
    2.0757    0.3180   -3.6209 O   0  0  0  0  0  0  0  0  0  0  0  0
    0.3705    0.3202   -1.9432 C   0  0  0  0  0  0  0  0  0  0  0  0
   -0.6681    0.3989   -2.9062 C   0  0  0  0  0  0  0  0  0  0  0  0
   -2.0140    0.4202   -2.5208 C   0  0  0  0  0  0  0  0  0  0  0  0
   -2.2830    0.3622   -1.1681 C   0  0  0  0  0  0  0  0  0  0  0  0
   -1.2760    0.2826   -0.2254 C   0  0  0  0  0  0  0  0  0  0  0  0
    0.0621    0.2589   -0.5743 C   0  0  0  0  0  0  0  0  0  0  0  0
   -1.9110    0.2268    1.0891 C   0  0  0  0  0  0  0  0  0  0  0  0
   -1.2949    0.1101    2.1309 O   0  0  0  0  0  0  0  0  0  0  0  0
   -3.2635    0.3138    0.8808 N   0  0  0  0  0  0  0  0  0  0  0  0
   -4.2450    0.2340    1.9629 C   0  0  0  0  0  0  0  0  0  0  0  0
   -5.2392    1.4136    1.9557 C   0  0  0  0  0  0  0  0  0  0  0  0
   -6.6632    0.9972    1.5995 C   0  0  0  0  0  0  0  0  0  0  0  0
   -7.1926   -0.1044    2.5175 C   0  0  0  0  0  0  0  0  0  0  0  0
   -6.1343   -1.1305    2.9254 C   0  0  0  0  0  0  0  0  0  0  0  0
   -4.9394   -1.1385    1.9805 C   0  0  0  0  0  0  0  0  0  0  0  0
   -3.5590    0.3601   -0.4558 C   0  0  0  0  0  0  0  0  0  0  0  0
   -4.6371    0.3824   -1.0168 O   0  0  0  0  0  0  0  0  0  0  0  0
    6.2995    0.3962   -2.8892 H   0  0  0  0  0  0  0  0  0  0  0  0
    6.9885   -1.0994   -2.2212 H   0  0  0  0  0  0  0  0  0  0  0  0
    7.8963    0.4425   -2.1267 H   0  0  0  0  0  0  0  0  0  0  0  0
    8.1787    0.5137    0.1216 H   0  0  0  0  0  0  0  0  0  0  0  0
    6.7933    0.8917    1.1337 H   0  0  0  0  0  0  0  0  0  0  0  0
    6.2115   -1.6060    1.2202 H   0  0  0  0  0  0  0  0  0  0  0  0
    7.6730   -1.0988    2.0642 H   0  0  0  0  0  0  0  0  0  0  0  0
    4.2216   -0.6349   -2.3702 H   0  0  0  0  0  0  0  0  0  0  0  0
    4.2271    1.1751   -2.3814 H   0  0  0  0  0  0  0  0  0  0  0  0
   -0.4204    0.4442   -3.9673 H   0  0  0  0  0  0  0  0  0  0  0  0
   -2.8145    0.4793   -3.2518 H   0  0  0  0  0  0  0  0  0  0  0  0
    0.8267    0.1954    0.1951 H   0  0  0  0  0  0  0  0  0  0  0  0
   -3.6773    0.3173    2.9001 H   0  0  0  0  0  0  0  0  0  0  0  0
   -5.2589    1.8548    2.9615 H   0  0  0  0  0  0  0  0  0  0  0  0
   -4.9059    2.2138    1.2847 H   0  0  0  0  0  0  0  0  0  0  0  0
   -6.6945    0.6443    0.5623 H   0  0  0  0  0  0  0  0  0  0  0  0
   -7.3308    1.8653    1.6473 H   0  0  0  0  0  0  0  0  0  0  0  0
   -8.0225   -0.6121    2.0097 H   0  0  0  0  0  0  0  0  0  0  0  0
   -7.6186    0.3416    3.4246 H   0  0  0  0  0  0  0  0  0  0  0  0
   -6.5870   -2.1278    2.9720 H   0  0  0  0  0  0  0  0  0  0  0  0
   -5.7846   -0.9028    3.9403 H   0  0  0  0  0  0  0  0  0  0  0  0
   -5.2748   -1.4238    0.9756 H   0  0  0  0  0  0  0  0  0  0  0  0
   -4.2217   -1.9076    2.2913 H   0  0  0  0  0  0  0  0  0  0  0  0
  1  2  1  0
  2  3  1  0
  3  4  1  0
  4  5  1  0
  5  6  3  0
  2  7  1  0
  7  8  2  0
  7  9  1  0
  9 10  1  0
 10 11  1  0
 11 12  2  0
 11 13  1  0
 13 14  2  0
 14 15  1  0
 15 16  2  0
 16 17  1  0
 17 18  2  0
 17 19  1  0
 19 20  2  0
 19 21  1  0
 21 22  1  0
 22 23  1  0
 23 24  1  0
 24 25  1  0
 25 26  1  0
 26 27  1  0
 21 28  1  0
 28 29  2  0
 18 13  1  0
 27 22  1  0
 28 16  1  0
  1 30  1  0
  1 31  1  0
  1 32  1  0
  3 33  1  0
  3 34  1  0
  4 35  1  0
  4 36  1  0
  9 37  1  0
  9 38  1  0
 14 39  1  0
 15 40  1  0
 18 41  1  0
 22 42  1  0
 23 43  1  0
 23 44  1  0
 24 45  1  0
 24 46  1  0
 25 47  1  0
 25 48  1  0
 26 49  1  0
 26 50  1  0
 27 51  1  0
 27 52  1  0
M  END
$$$$
