
     RDKit          3D

 62 65  0  0  0  0  0  0  0  0999 V2000
    0.8919    1.9139   -2.8132 C   0  0  0  0  0  0  0  0  0  0  0  0
    0.6479    1.4091   -1.5056 O   0  0  0  0  0  0  0  0  0  0  0  0
    1.5358    0.4829   -1.0086 C   0  0  0  0  0  0  0  0  0  0  0  0
    2.6622    0.0124   -1.6927 C   0  0  0  0  0  0  0  0  0  0  0  0
    3.5059   -0.9221   -1.0893 C   0  0  0  0  0  0  0  0  0  0  0  0
    3.2199   -1.3766    0.2012 C   0  0  0  0  0  0  0  0  0  0  0  0
    4.3217   -2.5455    0.9539 S   0  0  0  0  0  6  0  0  0  0  0  0
    3.8085   -2.9259    2.2520 O   0  0  0  0  0  0  0  0  0  0  0  0
    4.6453   -3.5416   -0.0491 O   0  0  0  0  0  0  0  0  0  0  0  0
    5.7256   -1.6081    1.2245 N   0  0  0  0  0  0  0  0  0  0  0  0
    5.5329   -0.3962    2.0884 C   0  0  0  0  0  0  0  0  0  0  0  0
    6.8851    0.1021    2.6068 C   0  0  0  0  0  0  0  0  0  0  0  0
    7.5273   -0.8431    3.4748 O   0  0  0  0  0  0  0  0  0  0  0  0
    7.2357   -2.2054    3.1393 C   0  0  0  0  0  0  0  0  0  0  0  0
    6.9129   -2.4236    1.6556 C   0  0  0  0  0  0  0  0  0  0  0  0
    2.0909   -0.9286    0.8932 C   0  0  0  0  0  0  0  0  0  0  0  0
    1.2454    0.0061    0.2921 C   0  0  0  0  0  0  0  0  0  0  0  0
    0.0880    0.5254    0.9162 N   0  0  0  0  0  0  0  0  0  0  0  0
   -0.4190    0.2319    2.1661 C   0  0  0  0  0  0  0  0  0  0  0  0
    0.0606   -0.5590    2.9752 O   0  0  0  0  0  0  0  0  0  0  0  0
   -1.7037    0.9999    2.4887 C   0  0  0  0  0  0  0  0  0  0  0  0
   -2.8571    0.3904    1.9087 O   0  0  0  0  0  0  0  0  0  0  0  0
   -3.0698    0.6908    0.5961 C   0  0  0  0  0  0  0  0  0  0  0  0
   -2.3817    1.4645   -0.0529 O   0  0  0  0  0  0  0  0  0  0  0  0
   -4.2647   -0.0819    0.0886 C   0  0  0  0  0  0  0  0  0  0  0  0
   -4.5137    0.1031   -1.4073 C   0  0  0  0  0  0  0  0  0  0  0  0
   -5.6897   -0.7624   -1.9204 C   0  0  0  0  0  0  0  0  0  0  0  0
   -6.5558    0.2484   -2.6937 C   0  0  0  0  0  0  0  0  0  0  0  0
   -7.2794    1.1557   -1.6820 C   0  0  0  0  0  0  0  0  0  0  0  0
   -6.1517    2.0558   -1.1575 C   0  0  0  0  0  0  0  0  0  0  0  0
   -4.9112    1.5201   -1.8939 C   0  0  0  0  0  0  0  0  0  0  0  0
   -5.5056    1.1959   -3.2697 C   0  0  0  0  0  0  0  0  0  0  0  0
    0.1071    2.6401   -3.0453 H   0  0  0  0  0  0  0  0  0  0  0  0
    1.8557    2.4383   -2.8624 H   0  0  0  0  0  0  0  0  0  0  0  0
    0.8364    1.1129   -3.5607 H   0  0  0  0  0  0  0  0  0  0  0  0
    2.9122    0.3515   -2.6928 H   0  0  0  0  0  0  0  0  0  0  0  0
    4.3815   -1.2866   -1.6205 H   0  0  0  0  0  0  0  0  0  0  0  0
    4.8857   -0.6382    2.9394 H   0  0  0  0  0  0  0  0  0  0  0  0
    5.0659    0.3928    1.4916 H   0  0  0  0  0  0  0  0  0  0  0  0
    6.7583    1.0329    3.1659 H   0  0  0  0  0  0  0  0  0  0  0  0
    7.5701    0.3055    1.7772 H   0  0  0  0  0  0  0  0  0  0  0  0
    8.1057   -2.8064    3.4243 H   0  0  0  0  0  0  0  0  0  0  0  0
    6.3968   -2.5306    3.7669 H   0  0  0  0  0  0  0  0  0  0  0  0
    7.7623   -2.1214    1.0257 H   0  0  0  0  0  0  0  0  0  0  0  0
    6.7473   -3.4936    1.4772 H   0  0  0  0  0  0  0  0  0  0  0  0
    1.8920   -1.3171    1.8878 H   0  0  0  0  0  0  0  0  0  0  0  0
   -0.4498    1.1693    0.3265 H   0  0  0  0  0  0  0  0  0  0  0  0
   -1.6044    2.0524    2.1990 H   0  0  0  0  0  0  0  0  0  0  0  0
   -1.8363    0.9944    3.5771 H   0  0  0  0  0  0  0  0  0  0  0  0
   -5.1400    0.2012    0.6804 H   0  0  0  0  0  0  0  0  0  0  0  0
   -4.0664   -1.1455    0.2770 H   0  0  0  0  0  0  0  0  0  0  0  0
   -3.6040   -0.2000   -1.9461 H   0  0  0  0  0  0  0  0  0  0  0  0
   -5.3080   -1.5413   -2.5928 H   0  0  0  0  0  0  0  0  0  0  0  0
   -6.2495   -1.2540   -1.1172 H   0  0  0  0  0  0  0  0  0  0  0  0
   -7.2260   -0.2162   -3.4199 H   0  0  0  0  0  0  0  0  0  0  0  0
   -8.0442    1.7638   -2.1782 H   0  0  0  0  0  0  0  0  0  0  0  0
   -7.7619    0.5882   -0.8810 H   0  0  0  0  0  0  0  0  0  0  0  0
   -6.3453    3.0970   -1.4425 H   0  0  0  0  0  0  0  0  0  0  0  0
   -6.0653    2.0291   -0.0685 H   0  0  0  0  0  0  0  0  0  0  0  0
   -4.0801    2.2273   -1.9167 H   0  0  0  0  0  0  0  0  0  0  0  0
   -4.7977    0.6984   -3.9431 H   0  0  0  0  0  0  0  0  0  0  0  0
   -5.9387    2.0676   -3.7720 H   0  0  0  0  0  0  0  0  0  0  0  0
  1  2  1  0
  2  3  1  0
  3  4  2  0
  4  5  1  0
  5  6  2  0
  6  7  1  0
  7  8  2  0
  7  9  2  0
  7 10  1  0
 10 11  1  0
 11 12  1  0
 12 13  1  0
 13 14  1  0
 14 15  1  0
  6 16  1  0
 16 17  2  0
 17 18  1  0
 18 19  1  0
 19 20  2  0
 19 21  1  0
 21 22  1  0
 22 23  1  0
 23 24  2  0
 23 25  1  0
 25 26  1  0
 26 27  1  0
 27 28  1  0
 28 29  1  0
 29 30  1  0
 30 31  1  0
 31 32  1  0
 17  3  1  0
 31 26  1  0
 15 10  1  0
 32 28  1  0
  1 33  1  0
  1 34  1  0
  1 35  1  0
  4 36  1  0
  5 37  1  0
 11 38  1  0
 11 39  1  0
 12 40  1  0
 12 41  1  0
 14 42  1  0
 14 43  1  0
 15 44  1  0
 15 45  1  0
 16 46  1  0
 18 47  1  0
 21 48  1  0
 21 49  1  0
 25 50  1  0
 25 51  1  0
 26 52  1  0
 27 53  1  0
 27 54  1  0
 28 55  1  0
 29 56  1  0
 29 57  1  0
 30 58  1  0
 30 59  1  0
 31 60  1  0
 32 61  1  0
 32 62  1  0
M  END
$$$$
