
     RDKit          3D

 66 68  0  0  0  0  0  0  0  0999 V2000
   -4.6770   -3.3136    2.5751 C   0  0  0  0  0  0  0  0  0  0  0  0
   -3.2252   -3.1574    2.1611 C   0  0  0  0  0  0  0  0  0  0  0  0
   -2.8065   -1.6948    2.1250 C   0  0  0  0  0  0  0  0  0  0  0  0
   -1.4496   -1.6162    1.7144 O   0  0  0  0  0  0  0  0  0  0  0  0
   -0.8763   -0.1426    1.3019 P   0  0  0  0  0  5  0  0  0  0  0  0
   -1.7013    0.9348    1.9699 O   0  0  0  0  0  0  0  0  0  0  0  0
    0.8363   -0.1790    1.7727 C   0  0  0  0  0  0  0  0  0  0  0  0
    1.5898   -1.3526    1.7069 C   0  0  0  0  0  0  0  0  0  0  0  0
    2.9368   -1.3690    2.0966 C   0  0  0  0  0  0  0  0  0  0  0  0
    3.6004   -0.2178    2.5557 C   0  0  0  0  0  0  0  0  0  0  0  0
    4.9382   -0.2384    2.9581 N   0  0  0  0  0  0  0  0  0  0  0  0
    5.7404   -1.4397    2.7540 C   0  0  0  0  0  0  0  0  0  0  0  0
    5.6644    1.0198    3.0985 C   0  0  0  0  0  0  0  0  0  0  0  0
    2.8180    0.9485    2.6288 C   0  0  0  0  0  0  0  0  0  0  0  0
    1.4673    0.9717    2.2527 C   0  0  0  0  0  0  0  0  0  0  0  0
   -1.0804   -0.1269   -0.5442 C   0  0  0  0  0  0  0  0  0  0  0  0
    0.0256   -0.8737   -1.1656 N   0  0  0  0  0  0  0  0  0  0  0  0
   -0.0432   -2.1841   -1.6080 C   0  0  0  0  0  0  0  0  0  0  0  0
   -1.0813   -3.0665   -1.3023 C   0  0  0  0  0  0  0  0  0  0  0  0
   -1.0525   -4.4015   -1.7204 C   0  0  0  0  0  0  0  0  0  0  0  0
    0.0344   -4.8884   -2.4366 C   0  0  0  0  0  0  0  0  0  0  0  0
    1.0944   -4.0393   -2.7279 C   0  0  0  0  0  0  0  0  0  0  0  0
    1.0545   -2.7066   -2.3074 C   0  0  0  0  0  0  0  0  0  0  0  0
   -1.1738    1.2238   -1.2422 C   0  0  0  0  0  0  0  0  0  0  0  0
   -0.5998    2.3849   -0.7259 C   0  0  0  0  0  0  0  0  0  0  0  0
   -0.7123    3.6094   -1.4039 C   0  0  0  0  0  0  0  0  0  0  0  0
   -1.3906    3.7310   -2.6253 C   0  0  0  0  0  0  0  0  0  0  0  0
   -1.5148    4.9513   -3.3127 N   0  0  0  0  0  0  0  0  0  0  0  0
   -0.9317    6.1497   -2.7148 C   0  0  0  0  0  0  0  0  0  0  0  0
   -2.7995    5.1758   -3.9842 C   0  0  0  0  0  0  0  0  0  0  0  0
   -1.9209    2.5424   -3.1534 C   0  0  0  0  0  0  0  0  0  0  0  0
   -1.8181    1.3149   -2.4826 C   0  0  0  0  0  0  0  0  0  0  0  0
   -4.9513   -4.3751    2.6122 H   0  0  0  0  0  0  0  0  0  0  0  0
   -4.8491   -2.8891    3.5683 H   0  0  0  0  0  0  0  0  0  0  0  0
   -5.3405   -2.8152    1.8586 H   0  0  0  0  0  0  0  0  0  0  0  0
   -3.0711   -3.6157    1.1785 H   0  0  0  0  0  0  0  0  0  0  0  0
   -2.5768   -3.7080    2.8547 H   0  0  0  0  0  0  0  0  0  0  0  0
   -2.8949   -1.2557    3.1229 H   0  0  0  0  0  0  0  0  0  0  0  0
   -3.4357   -1.1323    1.4282 H   0  0  0  0  0  0  0  0  0  0  0  0
    1.1222   -2.2777    1.3639 H   0  0  0  0  0  0  0  0  0  0  0  0
    3.4461   -2.3281    2.0384 H   0  0  0  0  0  0  0  0  0  0  0  0
    5.8183   -1.6920    1.6892 H   0  0  0  0  0  0  0  0  0  0  0  0
    6.7589   -1.3142    3.1403 H   0  0  0  0  0  0  0  0  0  0  0  0
    5.3122   -2.2891    3.3012 H   0  0  0  0  0  0  0  0  0  0  0  0
    5.2503    1.6144    3.9169 H   0  0  0  0  0  0  0  0  0  0  0  0
    5.6348    1.6001    2.1699 H   0  0  0  0  0  0  0  0  0  0  0  0
    6.7184    0.8515    3.3459 H   0  0  0  0  0  0  0  0  0  0  0  0
    3.2377    1.8772    3.0046 H   0  0  0  0  0  0  0  0  0  0  0  0
    0.9026    1.8957    2.3628 H   0  0  0  0  0  0  0  0  0  0  0  0
   -2.0493   -0.6125   -0.7131 H   0  0  0  0  0  0  0  0  0  0  0  0
    0.6661   -0.2842   -1.6952 H   0  0  0  0  0  0  0  0  0  0  0  0
   -1.9418   -2.7445   -0.7297 H   0  0  0  0  0  0  0  0  0  0  0  0
   -1.8799   -5.0613   -1.4765 H   0  0  0  0  0  0  0  0  0  0  0  0
    0.0620   -5.9282   -2.7550 H   0  0  0  0  0  0  0  0  0  0  0  0
    1.9553   -4.4109   -3.2757 H   0  0  0  0  0  0  0  0  0  0  0  0
    1.9043   -2.0667   -2.5323 H   0  0  0  0  0  0  0  0  0  0  0  0
   -0.0663    2.3801    0.2186 H   0  0  0  0  0  0  0  0  0  0  0  0
   -0.2549    4.4714   -0.9267 H   0  0  0  0  0  0  0  0  0  0  0  0
    0.1308    6.0145   -2.4957 H   0  0  0  0  0  0  0  0  0  0  0  0
   -0.9943    6.9945   -3.4096 H   0  0  0  0  0  0  0  0  0  0  0  0
   -1.4632    6.4336   -1.8010 H   0  0  0  0  0  0  0  0  0  0  0  0
   -2.9354    4.5062   -4.8406 H   0  0  0  0  0  0  0  0  0  0  0  0
   -2.8595    6.1956   -4.3855 H   0  0  0  0  0  0  0  0  0  0  0  0
   -3.6359    5.0475   -3.2857 H   0  0  0  0  0  0  0  0  0  0  0  0
   -2.4205    2.5398   -4.1193 H   0  0  0  0  0  0  0  0  0  0  0  0
   -2.2454    0.4284   -2.9472 H   0  0  0  0  0  0  0  0  0  0  0  0
  1  2  1  0
  2  3  1  0
  3  4  1  0
  4  5  1  0
  5  6  2  0
  5  7  1  0
  7  8  2  0
  8  9  1  0
  9 10  2  0
 10 11  1  0
 11 12  1  0
 11 13  1  0
 10 14  1  0
 14 15  2  0
  5 16  1  0
 16 17  1  0
 17 18  1  0
 18 19  2  0
 19 20  1  0
 20 21  2  0
 21 22  1  0
 22 23  2  0
 16 24  1  0
 24 25  2  0
 25 26  1  0
 26 27  2  0
 27 28  1  0
 28 29  1  0
 28 30  1  0
 27 31  1  0
 31 32  2  0
 15  7  1  0
 23 18  1  0
 32 24  1  0
  1 33  1  0
  1 34  1  0
  1 35  1  0
  2 36  1  0
  2 37  1  0
  3 38  1  0
  3 39  1  0
  8 40  1  0
  9 41  1  0
 12 42  1  0
 12 43  1  0
 12 44  1  0
 13 45  1  0
 13 46  1  0
 13 47  1  0
 14 48  1  0
 15 49  1  0
 16 50  1  0
 17 51  1  0
 19 52  1  0
 20 53  1  0
 21 54  1  0
 22 55  1  0
 23 56  1  0
 25 57  1  0
 26 58  1  0
 29 59  1  0
 29 60  1  0
 29 61  1  0
 30 62  1  0
 30 63  1  0
 30 64  1  0
 31 65  1  0
 32 66  1  0
M  END
$$$$
