
     RDKit          3D

 45 47  0  0  0  0  0  0  0  0999 V2000
   -4.6830    1.0140   -2.5723 C   0  0  0  0  0  0  0  0  0  0  0  0
   -4.8924    1.4155   -1.1191 C   0  0  0  0  0  0  0  0  0  0  0  0
   -4.4445    0.3553   -0.2068 N   0  0  0  0  0  0  0  0  0  0  0  0
   -5.4652   -0.6266    0.1811 C   0  0  0  0  0  0  0  0  0  0  0  0
   -6.1475   -0.2191    1.4792 C   0  0  0  0  0  0  0  0  0  0  0  0
   -3.1267    0.2633    0.2294 C   0  0  0  0  0  0  0  0  0  0  0  0
   -2.7140   -0.6815    1.1841 C   0  0  0  0  0  0  0  0  0  0  0  0
   -1.3848   -0.7795    1.6277 C   0  0  0  0  0  0  0  0  0  0  0  0
   -0.4007    0.0664    1.1211 C   0  0  0  0  0  0  0  0  0  0  0  0
    0.9640   -0.0328    1.6458 C   0  0  0  0  0  0  0  0  0  0  0  0
    2.1019   -0.1211    0.9442 C   0  0  0  0  0  0  0  0  0  0  0  0
    2.3435   -0.1571   -0.5244 C   0  0  0  0  0  0  0  0  0  0  0  0
    1.5558   -0.0920   -1.4425 O   0  0  0  0  0  0  0  0  0  0  0  0
    3.7986   -0.2895   -0.6746 C   0  0  0  0  0  0  0  0  0  0  0  0
    4.5278   -0.3661   -1.8475 C   0  0  0  0  0  0  0  0  0  0  0  0
    5.9180   -0.4897   -1.7383 C   0  0  0  0  0  0  0  0  0  0  0  0
    6.5501   -0.5344   -0.4723 C   0  0  0  0  0  0  0  0  0  0  0  0
    8.0276   -0.6665   -0.4382 C   0  0  0  0  0  0  0  0  0  0  0  0
    8.7565   -0.7398   -1.4091 O   0  0  0  0  0  0  0  0  0  0  0  0
    8.5142   -0.6996    0.8132 O   0  0  0  0  0  0  0  0  0  0  0  0
    5.7901   -0.4552    0.7042 C   0  0  0  0  0  0  0  0  0  0  0  0
    4.4173   -0.3332    0.5716 C   0  0  0  0  0  0  0  0  0  0  0  0
    3.4157   -0.2342    1.6381 C   0  0  0  0  0  0  0  0  0  0  0  0
    3.6395   -0.2463    2.8301 O   0  0  0  0  0  0  0  0  0  0  0  0
   -0.7807    1.0265    0.1893 C   0  0  0  0  0  0  0  0  0  0  0  0
   -2.1135    1.1128   -0.2474 C   0  0  0  0  0  0  0  0  0  0  0  0
   -5.2315    0.0965   -2.8100 H   0  0  0  0  0  0  0  0  0  0  0  0
   -3.6271    0.8358   -2.7967 H   0  0  0  0  0  0  0  0  0  0  0  0
   -5.0421    1.8052   -3.2379 H   0  0  0  0  0  0  0  0  0  0  0  0
   -5.9623    1.6060   -0.9640 H   0  0  0  0  0  0  0  0  0  0  0  0
   -4.4058    2.3729   -0.9021 H   0  0  0  0  0  0  0  0  0  0  0  0
   -6.2299   -0.6946   -0.6034 H   0  0  0  0  0  0  0  0  0  0  0  0
   -5.0522   -1.6388    0.2552 H   0  0  0  0  0  0  0  0  0  0  0  0
   -5.4376   -0.1592    2.3096 H   0  0  0  0  0  0  0  0  0  0  0  0
   -6.6257    0.7611    1.3808 H   0  0  0  0  0  0  0  0  0  0  0  0
   -6.9196   -0.9478    1.7450 H   0  0  0  0  0  0  0  0  0  0  0  0
   -3.4226   -1.3728    1.6288 H   0  0  0  0  0  0  0  0  0  0  0  0
   -1.1382   -1.5315    2.3739 H   0  0  0  0  0  0  0  0  0  0  0  0
    1.0180   -0.0569    2.7346 H   0  0  0  0  0  0  0  0  0  0  0  0
    4.0375   -0.3320   -2.8165 H   0  0  0  0  0  0  0  0  0  0  0  0
    6.5192   -0.5525   -2.6459 H   0  0  0  0  0  0  0  0  0  0  0  0
    9.4838   -0.7877    0.6942 H   0  0  0  0  0  0  0  0  0  0  0  0
    6.2470   -0.4872    1.6893 H   0  0  0  0  0  0  0  0  0  0  0  0
   -0.0541    1.7215   -0.2237 H   0  0  0  0  0  0  0  0  0  0  0  0
   -2.3244    1.8726   -0.9931 H   0  0  0  0  0  0  0  0  0  0  0  0
  1  2  1  0
  2  3  1  0
  3  4  1  0
  4  5  1  0
  3  6  1  0
  6  7  2  0
  7  8  1  0
  8  9  2  0
  9 10  1  0
 10 11  2  3
 11 12  1  0
 12 13  2  0
 12 14  1  0
 14 15  2  0
 15 16  1  0
 16 17  2  0
 17 18  1  0
 18 19  2  0
 18 20  1  0
 17 21  1  0
 21 22  2  0
 22 23  1  0
 23 24  2  0
  9 25  1  0
 25 26  2  0
 26  6  1  0
 23 11  1  0
 22 14  1  0
  1 27  1  0
  1 28  1  0
  1 29  1  0
  2 30  1  0
  2 31  1  0
  4 32  1  0
  4 33  1  0
  5 34  1  0
  5 35  1  0
  5 36  1  0
  7 37  1  0
  8 38  1  0
 10 39  1  0
 15 40  1  0
 16 41  1  0
 20 42  1  0
 21 43  1  0
 25 44  1  0
 26 45  1  0
M  END
$$$$
