
     RDKit          3D

 39 40  0  0  0  0  0  0  0  0999 V2000
    0.1062   -1.9109    4.1636 C   0  0  0  0  0  0  0  0  0  0  0  0
    1.3806   -1.4942    3.4387 C   0  0  0  0  0  0  0  0  0  0  0  0
    1.1005   -0.5634    2.2491 C   0  0  0  0  0  0  0  0  0  0  0  0
    2.7211   -0.0414    1.5398 S   0  0  0  0  0  0  0  0  0  0  0  0
    2.1937    1.2044    0.4706 C   0  0  0  0  0  0  0  0  0  0  0  0
    1.3012    2.1292    0.7452 N   0  0  0  0  0  0  0  0  0  0  0  0
    1.1185    2.8768   -0.3952 N   0  0  0  0  0  0  0  0  0  0  0  0
    1.8985    2.3755   -1.3299 C   0  0  0  0  0  0  0  0  0  0  0  0
    2.5956    1.3184   -0.8289 N   0  0  0  0  0  0  0  0  0  0  0  0
    3.5021    0.4705   -1.5558 C   0  0  0  0  0  0  0  0  0  0  0  0
    0.3046   -1.2672    1.1359 C   0  0  0  0  0  0  0  0  0  0  0  0
    0.4517   -2.4630    0.8947 O   0  0  0  0  0  0  0  0  0  0  0  0
   -0.5244   -0.4034    0.4442 N   0  0  0  0  0  0  0  0  0  0  0  0
   -1.3399   -0.6706   -0.6789 C   0  0  0  0  0  0  0  0  0  0  0  0
   -1.4708   -1.9303   -1.2648 C   0  0  0  0  0  0  0  0  0  0  0  0
   -2.2655   -2.0974   -2.4015 C   0  0  0  0  0  0  0  0  0  0  0  0
   -2.9427   -1.0100   -2.9489 C   0  0  0  0  0  0  0  0  0  0  0  0
   -2.8367    0.2509   -2.3587 C   0  0  0  0  0  0  0  0  0  0  0  0
   -2.0357    0.4269   -1.2277 C   0  0  0  0  0  0  0  0  0  0  0  0
   -1.8887    1.6132   -0.5484 O   0  0  0  0  0  0  0  0  0  0  0  0
   -2.3184    2.7963   -1.2093 C   0  0  0  0  0  0  0  0  0  0  0  0
   -0.5292   -2.5340    3.5280 H   0  0  0  0  0  0  0  0  0  0  0  0
   -0.4709   -1.0347    4.4782 H   0  0  0  0  0  0  0  0  0  0  0  0
    0.3523   -2.4909    5.0610 H   0  0  0  0  0  0  0  0  0  0  0  0
    2.0237   -0.9792    4.1649 H   0  0  0  0  0  0  0  0  0  0  0  0
    1.9139   -2.3968    3.1199 H   0  0  0  0  0  0  0  0  0  0  0  0
    0.5585    0.3179    2.6100 H   0  0  0  0  0  0  0  0  0  0  0  0
    1.9819    2.7291   -2.3490 H   0  0  0  0  0  0  0  0  0  0  0  0
    3.0929   -0.5451   -1.5761 H   0  0  0  0  0  0  0  0  0  0  0  0
    4.4782    0.4879   -1.0621 H   0  0  0  0  0  0  0  0  0  0  0  0
    3.6121    0.8385   -2.5805 H   0  0  0  0  0  0  0  0  0  0  0  0
   -0.5028    0.5880    0.6933 H   0  0  0  0  0  0  0  0  0  0  0  0
   -0.9646   -2.8023   -0.8626 H   0  0  0  0  0  0  0  0  0  0  0  0
   -2.3588   -3.0804   -2.8571 H   0  0  0  0  0  0  0  0  0  0  0  0
   -3.5686   -1.1477   -3.8279 H   0  0  0  0  0  0  0  0  0  0  0  0
   -3.4009    1.0671   -2.7922 H   0  0  0  0  0  0  0  0  0  0  0  0
   -2.0031    3.6526   -0.6021 H   0  0  0  0  0  0  0  0  0  0  0  0
   -1.8544    2.8971   -2.1962 H   0  0  0  0  0  0  0  0  0  0  0  0
   -3.4116    2.8227   -1.2832 H   0  0  0  0  0  0  0  0  0  0  0  0
  1  2  1  0
  2  3  1  0
  3  4  1  0
  4  5  1  0
  5  6  2  0
  6  7  1  0
  7  8  2  0
  8  9  1  0
  9 10  1  0
  3 11  1  0
 11 12  2  0
 11 13  1  0
 13 14  1  0
 14 15  2  0
 15 16  1  0
 16 17  2  0
 17 18  1  0
 18 19  2  0
 19 20  1  0
 20 21  1  0
  9  5  1  0
 19 14  1  0
  1 22  1  0
  1 23  1  0
  1 24  1  0
  2 25  1  0
  2 26  1  0
  3 27  1  0
  8 28  1  0
 10 29  1  0
 10 30  1  0
 10 31  1  0
 13 32  1  0
 15 33  1  0
 16 34  1  0
 17 35  1  0
 18 36  1  0
 21 37  1  0
 21 38  1  0
 21 39  1  0
M  END
$$$$
