
     RDKit          3D

 46 48  0  0  0  0  0  0  0  0999 V2000
   -6.1014    2.4466   -0.1258 C   0  0  0  0  0  0  0  0  0  0  0  0
   -5.7243    1.1338   -0.5440 O   0  0  0  0  0  0  0  0  0  0  0  0
   -4.4781    0.7907   -0.0792 C   0  0  0  0  0  0  0  0  0  0  0  0
   -3.5136    0.5413   -1.0595 C   0  0  0  0  0  0  0  0  0  0  0  0
   -2.2183    0.1709   -0.6903 C   0  0  0  0  0  0  0  0  0  0  0  0
   -1.8960    0.0131    0.6642 C   0  0  0  0  0  0  0  0  0  0  0  0
   -2.8854    0.2296    1.6416 C   0  0  0  0  0  0  0  0  0  0  0  0
   -4.1824    0.6146    1.2819 C   0  0  0  0  0  0  0  0  0  0  0  0
   -5.2055    0.8195    2.1690 O   0  0  0  0  0  0  0  0  0  0  0  0
   -4.9787    0.4691    3.5271 C   0  0  0  0  0  0  0  0  0  0  0  0
   -0.5256   -0.4745    1.0764 C   0  0  0  0  0  0  0  0  0  0  0  0
    0.5631   -0.2477    0.1047 N   0  0  0  0  0  0  0  0  0  0  0  0
    1.9012   -0.5487    0.4474 C   0  0  0  0  0  0  0  0  0  0  0  0
    2.3386   -1.4419    1.8094 S   0  0  0  0  0  0  0  0  0  0  0  0
    2.8161    0.0377   -0.4286 N   0  0  0  0  0  0  0  0  0  0  0  0
    4.1967   -0.2654   -0.5299 C   0  0  0  0  0  0  0  0  0  0  0  0
    5.0856    0.8125   -0.3872 C   0  0  0  0  0  0  0  0  0  0  0  0
    6.4625    0.6120   -0.4448 C   0  0  0  0  0  0  0  0  0  0  0  0
    6.9610   -0.6667   -0.6662 C   0  0  0  0  0  0  0  0  0  0  0  0
    6.0833   -1.7385   -0.8620 C   0  0  0  0  0  0  0  0  0  0  0  0
    6.7927   -3.2909   -1.1605 Cl  0  0  0  0  0  0  0  0  0  0  0  0
    4.6858   -1.5544   -0.8319 C   0  0  0  0  0  0  0  0  0  0  0  0
    3.7743   -2.7070   -1.1681 C   0  0  0  0  0  0  0  0  0  0  0  0
    0.1997    0.3588   -1.1881 C   0  0  0  0  0  0  0  0  0  0  0  0
   -1.1581   -0.1013   -1.7162 C   0  0  0  0  0  0  0  0  0  0  0  0
   -6.5854    2.4181    0.8561 H   0  0  0  0  0  0  0  0  0  0  0  0
   -6.8369    2.8221   -0.8460 H   0  0  0  0  0  0  0  0  0  0  0  0
   -5.2529    3.1440   -0.1206 H   0  0  0  0  0  0  0  0  0  0  0  0
   -3.7828    0.6460   -2.1082 H   0  0  0  0  0  0  0  0  0  0  0  0
   -2.6160    0.0770    2.6832 H   0  0  0  0  0  0  0  0  0  0  0  0
   -4.7058   -0.5869    3.6253 H   0  0  0  0  0  0  0  0  0  0  0  0
   -5.9148    0.6229    4.0729 H   0  0  0  0  0  0  0  0  0  0  0  0
   -4.2219    1.1182    3.9784 H   0  0  0  0  0  0  0  0  0  0  0  0
   -0.2389    0.0238    2.0112 H   0  0  0  0  0  0  0  0  0  0  0  0
   -0.5924   -1.5545    1.2596 H   0  0  0  0  0  0  0  0  0  0  0  0
    2.5991    1.0198   -0.5489 H   0  0  0  0  0  0  0  0  0  0  0  0
    4.7151    1.8149   -0.1858 H   0  0  0  0  0  0  0  0  0  0  0  0
    7.1441    1.4463   -0.3016 H   0  0  0  0  0  0  0  0  0  0  0  0
    8.0363   -0.8252   -0.6964 H   0  0  0  0  0  0  0  0  0  0  0  0
    3.7620   -3.4368   -0.3530 H   0  0  0  0  0  0  0  0  0  0  0  0
    4.1079   -3.2035   -2.0862 H   0  0  0  0  0  0  0  0  0  0  0  0
    2.7481   -2.3884   -1.3701 H   0  0  0  0  0  0  0  0  0  0  0  0
    0.2043    1.4457   -1.0364 H   0  0  0  0  0  0  0  0  0  0  0  0
    0.9579    0.1267   -1.9426 H   0  0  0  0  0  0  0  0  0  0  0  0
   -1.1422   -1.1757   -1.9350 H   0  0  0  0  0  0  0  0  0  0  0  0
   -1.3778    0.4325   -2.6482 H   0  0  0  0  0  0  0  0  0  0  0  0
  1  2  1  0
  2  3  1  0
  3  4  2  0
  4  5  1  0
  5  6  2  0
  6  7  1  0
  7  8  2  0
  8  9  1  0
  9 10  1  0
  6 11  1  0
 11 12  1  0
 12 13  1  0
 13 14  2  0
 13 15  1  0
 15 16  1  0
 16 17  2  0
 17 18  1  0
 18 19  2  0
 19 20  1  0
 20 21  1  0
 20 22  2  0
 22 23  1  0
 12 24  1  0
 24 25  1  0
  8  3  1  0
 22 16  1  0
 25  5  1  0
  1 26  1  0
  1 27  1  0
  1 28  1  0
  4 29  1  0
  7 30  1  0
 10 31  1  0
 10 32  1  0
 10 33  1  0
 11 34  1  0
 11 35  1  0
 15 36  1  0
 17 37  1  0
 18 38  1  0
 19 39  1  0
 23 40  1  0
 23 41  1  0
 23 42  1  0
 24 43  1  0
 24 44  1  0
 25 45  1  0
 25 46  1  0
M  END
$$$$
