
     RDKit          3D

 37 39  0  0  0  0  0  0  0  0999 V2000
   -0.4499   -1.2356    0.0688 C   0  0  0  0  0  0  0  0  0  0  0  0
   -0.5174    0.2580   -0.1531 C   0  0  0  0  0  0  0  0  0  0  0  0
    0.5213    1.0377   -0.2104 N   0  0  0  0  0  0  0  0  0  0  0  0
    1.7663    0.5044   -0.0724 N   0  0  0  0  0  0  0  0  0  0  0  0
    2.8760    1.3306   -0.1831 C   0  0  0  0  0  0  0  0  0  0  0  0
    2.8520    2.5353   -0.4133 O   0  0  0  0  0  0  0  0  0  0  0  0
    4.1920    0.6506   -0.0387 C   0  0  0  0  0  0  0  0  0  0  0  0
    5.2800    1.1445   -0.7720 C   0  0  0  0  0  0  0  0  0  0  0  0
    6.5327    0.5379   -0.6680 C   0  0  0  0  0  0  0  0  0  0  0  0
    6.7049   -0.5585    0.1765 C   0  0  0  0  0  0  0  0  0  0  0  0
    5.6263   -1.0367    0.9203 C   0  0  0  0  0  0  0  0  0  0  0  0
    5.8467   -2.3799    1.9738 Cl  0  0  0  0  0  0  0  0  0  0  0  0
    4.3704   -0.4377    0.8236 C   0  0  0  0  0  0  0  0  0  0  0  0
   -1.8707    0.9002   -0.3263 C   0  0  0  0  0  0  0  0  0  0  0  0
   -2.7986    0.7128    0.8529 C   0  0  0  0  0  0  0  0  0  0  0  0
   -2.5483    0.8684    2.0333 O   0  0  0  0  0  0  0  0  0  0  0  0
   -4.0986    0.2650    0.3547 C   0  0  0  0  0  0  0  0  0  0  0  0
   -5.2625    0.0351    1.0645 C   0  0  0  0  0  0  0  0  0  0  0  0
   -6.3747   -0.4176    0.3484 C   0  0  0  0  0  0  0  0  0  0  0  0
   -6.2989   -0.6350   -1.0417 C   0  0  0  0  0  0  0  0  0  0  0  0
   -5.1097   -0.4033   -1.7394 C   0  0  0  0  0  0  0  0  0  0  0  0
   -4.0240    0.0510   -1.0141 C   0  0  0  0  0  0  0  0  0  0  0  0
   -2.6713    0.3473   -1.4840 C   0  0  0  0  0  0  0  0  0  0  0  0
   -2.2941    0.1400   -2.6220 O   0  0  0  0  0  0  0  0  0  0  0  0
    0.0778   -1.7044   -0.7664 H   0  0  0  0  0  0  0  0  0  0  0  0
   -1.4493   -1.6719    0.1340 H   0  0  0  0  0  0  0  0  0  0  0  0
    0.0778   -1.4460    1.0031 H   0  0  0  0  0  0  0  0  0  0  0  0
    1.8787   -0.4991   -0.0197 H   0  0  0  0  0  0  0  0  0  0  0  0
    5.1494    2.0053   -1.4268 H   0  0  0  0  0  0  0  0  0  0  0  0
    7.3723    0.9238   -1.2415 H   0  0  0  0  0  0  0  0  0  0  0  0
    7.6822   -1.0277    0.2579 H   0  0  0  0  0  0  0  0  0  0  0  0
    3.5565   -0.8026    1.4428 H   0  0  0  0  0  0  0  0  0  0  0  0
   -1.7571    1.9793   -0.4888 H   0  0  0  0  0  0  0  0  0  0  0  0
   -5.3090    0.2000    2.1369 H   0  0  0  0  0  0  0  0  0  0  0  0
   -7.3114   -0.6075    0.8703 H   0  0  0  0  0  0  0  0  0  0  0  0
   -7.1781   -0.9902   -1.5773 H   0  0  0  0  0  0  0  0  0  0  0  0
   -5.0395   -0.5735   -2.8097 H   0  0  0  0  0  0  0  0  0  0  0  0
  1  2  1  0
  2  3  2  3
  3  4  1  0
  4  5  1  0
  5  6  2  0
  5  7  1  0
  7  8  2  0
  8  9  1  0
  9 10  2  0
 10 11  1  0
 11 12  1  0
 11 13  2  0
  2 14  1  0
 14 15  1  0
 15 16  2  0
 15 17  1  0
 17 18  2  0
 18 19  1  0
 19 20  2  0
 20 21  1  0
 21 22  2  0
 22 23  1  0
 23 24  2  0
 13  7  1  0
 23 14  1  0
 22 17  1  0
  1 25  1  0
  1 26  1  0
  1 27  1  0
  4 28  1  0
  8 29  1  0
  9 30  1  0
 10 31  1  0
 13 32  1  0
 14 33  1  0
 18 34  1  0
 19 35  1  0
 20 36  1  0
 21 37  1  0
M  END
$$$$
