
     RDKit          3D

 57 60  0  0  0  0  0  0  0  0999 V2000
    3.6134   -0.5149    2.4544 O   0  0  0  0  0  0  0  0  0  0  0  0
    3.1639    0.7147    1.8421 S   0  0  0  0  0  6  0  0  0  0  0  0
    2.5548    1.7760    2.6122 O   0  0  0  0  0  0  0  0  0  0  0  0
    4.4500    1.4019    1.0196 N   0  0  0  0  0  0  0  0  0  0  0  0
    5.4480    0.5435    0.3730 C   0  0  0  0  0  0  0  0  0  0  0  0
    6.0642    1.2791   -0.8122 C   0  0  0  0  0  0  0  0  0  0  0  0
    7.1088    2.2060   -0.1982 C   0  0  0  0  0  0  0  0  0  0  0  0
    7.5145    1.5657    1.1287 C   0  0  0  0  0  0  0  0  0  0  0  0
    6.6440    0.3205    1.2903 C   0  0  0  0  0  0  0  0  0  0  0  0
    2.0519    0.3206    0.5141 C   0  0  0  0  0  0  0  0  0  0  0  0
    1.8510   -1.0128    0.1431 C   0  0  0  0  0  0  0  0  0  0  0  0
    0.9694   -1.3107   -0.8967 C   0  0  0  0  0  0  0  0  0  0  0  0
    0.2788   -0.2750   -1.5386 C   0  0  0  0  0  0  0  0  0  0  0  0
   -0.8214   -0.6561   -2.8912 S   0  0  0  0  0  6  0  0  0  0  0  0
   -0.4065   -1.9325   -3.4339 O   0  0  0  0  0  0  0  0  0  0  0  0
   -0.8991    0.5240   -3.7262 O   0  0  0  0  0  0  0  0  0  0  0  0
   -2.3175   -0.8666   -2.1361 N   0  0  0  0  0  0  0  0  0  0  0  0
   -3.0043    0.3382   -1.5786 C   0  0  0  0  0  0  0  0  0  0  0  0
   -3.2809    0.1951   -0.0725 C   0  0  0  0  0  0  0  0  0  0  0  0
   -4.1144   -0.9878    0.2244 N   0  0  0  0  0  0  0  0  0  0  0  0
   -5.4609   -0.8145    0.5768 C   0  0  0  0  0  0  0  0  0  0  0  0
   -6.2185    0.3103    0.2215 C   0  0  0  0  0  0  0  0  0  0  0  0
   -7.5629    0.4309    0.5937 C   0  0  0  0  0  0  0  0  0  0  0  0
   -8.1784   -0.5744    1.3323 C   0  0  0  0  0  0  0  0  0  0  0  0
   -7.4495   -1.6999    1.6986 C   0  0  0  0  0  0  0  0  0  0  0  0
   -6.1083   -1.8153    1.3219 C   0  0  0  0  0  0  0  0  0  0  0  0
   -3.9064   -2.1463   -0.6830 C   0  0  0  0  0  0  0  0  0  0  0  0
   -2.5123   -2.1129   -1.3374 C   0  0  0  0  0  0  0  0  0  0  0  0
    0.4956    1.0604   -1.1777 C   0  0  0  0  0  0  0  0  0  0  0  0
    1.3764    1.3588   -0.1376 C   0  0  0  0  0  0  0  0  0  0  0  0
    4.7249    2.3164    1.3747 H   0  0  0  0  0  0  0  0  0  0  0  0
    4.9949   -0.3978    0.0478 H   0  0  0  0  0  0  0  0  0  0  0  0
    6.5647    0.5600   -1.4722 H   0  0  0  0  0  0  0  0  0  0  0  0
    5.3310    1.8301   -1.4102 H   0  0  0  0  0  0  0  0  0  0  0  0
    6.6777    3.1973   -0.0155 H   0  0  0  0  0  0  0  0  0  0  0  0
    7.9661    2.3417   -0.8653 H   0  0  0  0  0  0  0  0  0  0  0  0
    8.5785    1.3063    1.1435 H   0  0  0  0  0  0  0  0  0  0  0  0
    7.3382    2.2680    1.9517 H   0  0  0  0  0  0  0  0  0  0  0  0
    7.2077   -0.5563    0.9488 H   0  0  0  0  0  0  0  0  0  0  0  0
    6.3707    0.1523    2.3365 H   0  0  0  0  0  0  0  0  0  0  0  0
    2.3789   -1.8179    0.6506 H   0  0  0  0  0  0  0  0  0  0  0  0
    0.8272   -2.3459   -1.2012 H   0  0  0  0  0  0  0  0  0  0  0  0
   -2.4172    1.2453   -1.7479 H   0  0  0  0  0  0  0  0  0  0  0  0
   -3.9447    0.4632   -2.1283 H   0  0  0  0  0  0  0  0  0  0  0  0
   -3.7019    1.1210    0.3343 H   0  0  0  0  0  0  0  0  0  0  0  0
   -2.3255    0.0598    0.4508 H   0  0  0  0  0  0  0  0  0  0  0  0
   -5.7933    1.1072   -0.3785 H   0  0  0  0  0  0  0  0  0  0  0  0
   -8.1286    1.3109    0.2990 H   0  0  0  0  0  0  0  0  0  0  0  0
   -9.2220   -0.4805    1.6212 H   0  0  0  0  0  0  0  0  0  0  0  0
   -7.9181   -2.4881    2.2817 H   0  0  0  0  0  0  0  0  0  0  0  0
   -5.5534   -2.6944    1.6408 H   0  0  0  0  0  0  0  0  0  0  0  0
   -4.0044   -3.0820   -0.1206 H   0  0  0  0  0  0  0  0  0  0  0  0
   -4.6659   -2.1440   -1.4770 H   0  0  0  0  0  0  0  0  0  0  0  0
   -1.7486   -2.1805   -0.5559 H   0  0  0  0  0  0  0  0  0  0  0  0
   -2.4137   -2.9812   -1.9978 H   0  0  0  0  0  0  0  0  0  0  0  0
   -0.0081    1.8691   -1.7034 H   0  0  0  0  0  0  0  0  0  0  0  0
    1.5415    2.3938    0.1553 H   0  0  0  0  0  0  0  0  0  0  0  0
  1  2  2  0
  2  3  2  0
  2  4  1  0
  4  5  1  0
  5  6  1  0
  6  7  1  0
  7  8  1  0
  8  9  1  0
  2 10  1  0
 10 11  2  0
 11 12  1  0
 12 13  2  0
 13 14  1  0
 14 15  2  0
 14 16  2  0
 14 17  1  0
 17 18  1  0
 18 19  1  0
 19 20  1  0
 20 21  1  0
 21 22  2  0
 22 23  1  0
 23 24  2  0
 24 25  1  0
 25 26  2  0
 20 27  1  0
 27 28  1  0
 13 29  1  0
 29 30  2  0
  9  5  1  0
 30 10  1  0
 28 17  1  0
 26 21  1  0
  4 31  1  0
  5 32  1  0
  6 33  1  0
  6 34  1  0
  7 35  1  0
  7 36  1  0
  8 37  1  0
  8 38  1  0
  9 39  1  0
  9 40  1  0
 11 41  1  0
 12 42  1  0
 18 43  1  0
 18 44  1  0
 19 45  1  0
 19 46  1  0
 22 47  1  0
 23 48  1  0
 24 49  1  0
 25 50  1  0
 26 51  1  0
 27 52  1  0
 27 53  1  0
 28 54  1  0
 28 55  1  0
 29 56  1  0
 30 57  1  0
M  END
$$$$
