
     RDKit          3D

 53 55  0  0  0  0  0  0  0  0999 V2000
    7.2582   -3.1992    1.9588 C   0  0  0  0  0  0  0  0  0  0  0  0
    6.8697   -2.3455    0.8879 O   0  0  0  0  0  0  0  0  0  0  0  0
    5.5486   -2.3586    0.5289 C   0  0  0  0  0  0  0  0  0  0  0  0
    4.5443   -3.1162    1.1276 C   0  0  0  0  0  0  0  0  0  0  0  0
    3.2298   -3.0332    0.6552 C   0  0  0  0  0  0  0  0  0  0  0  0
    2.8972   -2.1911   -0.4196 C   0  0  0  0  0  0  0  0  0  0  0  0
    1.5807   -2.0950   -0.9023 C   0  0  0  0  0  0  0  0  0  0  0  0
    1.2456   -1.2427   -1.9727 C   0  0  0  0  0  0  0  0  0  0  0  0
   -0.2120   -1.1691   -2.4188 C   0  0  0  0  0  0  0  0  0  0  0  0
   -0.4647   -0.4225   -3.7317 C   0  0  0  0  0  0  0  0  0  0  0  0
   -1.1441   -0.5756   -1.3490 C   0  0  0  0  0  0  0  0  0  0  0  0
   -2.2704   -1.0458   -1.1867 O   0  0  0  0  0  0  0  0  0  0  0  0
   -0.6384    0.5407   -0.7026 N   0  0  0  0  0  0  0  0  0  0  0  0
   -1.2709    1.3287    0.2789 C   0  0  0  0  0  0  0  0  0  0  0  0
   -0.5645    2.4442    0.7524 C   0  0  0  0  0  0  0  0  0  0  0  0
   -1.1233    3.2990    1.7055 C   0  0  0  0  0  0  0  0  0  0  0  0
   -2.4036    3.0513    2.1926 C   0  0  0  0  0  0  0  0  0  0  0  0
   -3.1105    1.9382    1.7272 C   0  0  0  0  0  0  0  0  0  0  0  0
   -4.7393    1.5914    2.3660 S   0  0  0  0  0  6  0  0  0  0  0  0
   -4.8418    0.1574    2.5462 O   0  0  0  0  0  0  0  0  0  0  0  0
   -4.9678    2.4963    3.4747 O   0  0  0  0  0  0  0  0  0  0  0  0
   -5.7724    2.0635    1.0975 N   0  0  0  0  0  0  0  0  0  0  0  0
   -5.8248    3.5007    0.7833 C   0  0  0  0  0  0  0  0  0  0  0  0
   -5.8232    1.2042   -0.0980 C   0  0  0  0  0  0  0  0  0  0  0  0
   -2.5429    1.0658    0.7918 C   0  0  0  0  0  0  0  0  0  0  0  0
    2.2662   -0.4888   -2.5644 C   0  0  0  0  0  0  0  0  0  0  0  0
    3.5803   -0.5768   -2.0963 C   0  0  0  0  0  0  0  0  0  0  0  0
    3.9098   -1.4214   -1.0248 C   0  0  0  0  0  0  0  0  0  0  0  0
    5.2261   -1.5174   -0.5403 C   0  0  0  0  0  0  0  0  0  0  0  0
    6.7705   -2.9089    2.8933 H   0  0  0  0  0  0  0  0  0  0  0  0
    8.3385   -3.0867    2.1023 H   0  0  0  0  0  0  0  0  0  0  0  0
    7.0623   -4.2518    1.7189 H   0  0  0  0  0  0  0  0  0  0  0  0
    4.7423   -3.7784    1.9629 H   0  0  0  0  0  0  0  0  0  0  0  0
    2.4613   -3.6329    1.1389 H   0  0  0  0  0  0  0  0  0  0  0  0
    0.7992   -2.6923   -0.4322 H   0  0  0  0  0  0  0  0  0  0  0  0
   -0.5336   -2.2098   -2.5763 H   0  0  0  0  0  0  0  0  0  0  0  0
   -0.2170    0.6434   -3.6555 H   0  0  0  0  0  0  0  0  0  0  0  0
   -1.5243   -0.4787   -4.0113 H   0  0  0  0  0  0  0  0  0  0  0  0
    0.1182   -0.8577   -4.5500 H   0  0  0  0  0  0  0  0  0  0  0  0
    0.3085    0.8119   -0.9390 H   0  0  0  0  0  0  0  0  0  0  0  0
    0.4385    2.6651    0.3882 H   0  0  0  0  0  0  0  0  0  0  0  0
   -0.5584    4.1535    2.0677 H   0  0  0  0  0  0  0  0  0  0  0  0
   -2.8362    3.7131    2.9401 H   0  0  0  0  0  0  0  0  0  0  0  0
   -4.9289    3.8190    0.2446 H   0  0  0  0  0  0  0  0  0  0  0  0
   -5.9404    4.0993    1.6907 H   0  0  0  0  0  0  0  0  0  0  0  0
   -6.6988    3.7099    0.1541 H   0  0  0  0  0  0  0  0  0  0  0  0
   -5.7401    0.1450    0.1610 H   0  0  0  0  0  0  0  0  0  0  0  0
   -6.7923    1.3296   -0.5892 H   0  0  0  0  0  0  0  0  0  0  0  0
   -5.0377    1.4645   -0.8100 H   0  0  0  0  0  0  0  0  0  0  0  0
   -3.1077    0.1916    0.4858 H   0  0  0  0  0  0  0  0  0  0  0  0
    2.0667    0.1786   -3.3975 H   0  0  0  0  0  0  0  0  0  0  0  0
    4.3501    0.0199   -2.5794 H   0  0  0  0  0  0  0  0  0  0  0  0
    6.0169   -0.9294   -0.9993 H   0  0  0  0  0  0  0  0  0  0  0  0
  1  2  1  0
  2  3  1  0
  3  4  2  0
  4  5  1  0
  5  6  2  0
  6  7  1  0
  7  8  2  0
  8  9  1  0
  9 10  1  0
  9 11  1  0
 11 12  2  0
 11 13  1  0
 13 14  1  0
 14 15  2  0
 15 16  1  0
 16 17  2  0
 17 18  1  0
 18 19  1  0
 19 20  2  0
 19 21  2  0
 19 22  1  0
 22 23  1  0
 22 24  1  0
 18 25  2  0
  8 26  1  0
 26 27  2  0
 27 28  1  0
 28 29  2  0
 29  3  1  0
 28  6  1  0
 25 14  1  0
  1 30  1  0
  1 31  1  0
  1 32  1  0
  4 33  1  0
  5 34  1  0
  7 35  1  0
  9 36  1  0
 10 37  1  0
 10 38  1  0
 10 39  1  0
 13 40  1  0
 15 41  1  0
 16 42  1  0
 17 43  1  0
 23 44  1  0
 23 45  1  0
 23 46  1  0
 24 47  1  0
 24 48  1  0
 24 49  1  0
 25 50  1  0
 26 51  1  0
 27 52  1  0
 29 53  1  0
M  END
$$$$
