
     RDKit          3D

 38 41  0  0  0  0  0  0  0  0999 V2000
    8.2624    1.5187    0.4587 C   0  0  0  0  0  0  0  0  0  0  0  0
    6.7897    1.6959    0.4920 C   0  0  0  0  0  0  0  0  0  0  0  0
    6.1694    2.8248    0.7628 N   0  0  0  0  0  0  0  0  0  0  0  0
    4.7972    2.6806    0.7175 N   0  0  0  0  0  0  0  0  0  0  0  0
    4.4337    1.4510    0.4251 C   0  0  0  0  0  0  0  0  0  0  0  0
    3.1152    1.0888    0.3308 N   0  0  0  0  0  0  0  0  0  0  0  0
    2.6018   -0.1559    0.0375 C   0  0  0  0  0  0  0  0  0  0  0  0
    3.2839   -1.1550   -0.1789 O   0  0  0  0  0  0  0  0  0  0  0  0
    1.1361   -0.2201    0.0029 C   0  0  0  0  0  0  0  0  0  0  0  0
    0.1685    1.1148    0.4679 S   0  0  0  0  0  0  0  0  0  0  0  0
   -1.2752    0.2699    0.1731 C   0  0  0  0  0  0  0  0  0  0  0  0
   -2.4542    0.8839    0.3791 N   0  0  0  0  0  0  0  0  0  0  0  0
   -3.5411    0.1471    0.0939 C   0  0  0  0  0  0  0  0  0  0  0  0
   -4.8341    0.8083    0.3216 C   0  0  0  0  0  0  0  0  0  0  0  0
   -6.0238    0.2656    0.7808 C   0  0  0  0  0  0  0  0  0  0  0  0
   -7.0776    1.2231    0.8547 C   0  0  0  0  0  0  0  0  0  0  0  0
   -6.6669    2.4708    0.4453 C   0  0  0  0  0  0  0  0  0  0  0  0
   -5.0227    2.4848   -0.0176 S   0  0  0  0  0  0  0  0  0  0  0  0
   -3.4805   -1.1586   -0.3742 C   0  0  0  0  0  0  0  0  0  0  0  0
   -2.2348   -1.7880   -0.5734 C   0  0  0  0  0  0  0  0  0  0  0  0
   -2.2015   -3.1860   -1.1284 C   0  0  0  0  0  0  0  0  0  0  0  0
   -1.8683   -3.2211   -2.4462 F   0  0  0  0  0  0  0  0  0  0  0  0
   -3.4043   -3.8228   -1.0362 F   0  0  0  0  0  0  0  0  0  0  0  0
   -1.3154   -4.0025   -0.4900 F   0  0  0  0  0  0  0  0  0  0  0  0
   -1.0712   -1.0287   -0.2788 C   0  0  0  0  0  0  0  0  0  0  0  0
    0.3420   -1.2975   -0.3602 C   0  0  0  0  0  0  0  0  0  0  0  0
    0.8616   -2.4813   -0.7649 N   0  0  0  0  0  0  0  0  0  0  0  0
    5.7347    0.3807    0.1713 S   0  0  0  0  0  0  0  0  0  0  0  0
    8.5930    0.8798    1.2845 H   0  0  0  0  0  0  0  0  0  0  0  0
    8.5839    1.0670   -0.4854 H   0  0  0  0  0  0  0  0  0  0  0  0
    8.7669    2.4858    0.5566 H   0  0  0  0  0  0  0  0  0  0  0  0
    2.4725    1.8481    0.5115 H   0  0  0  0  0  0  0  0  0  0  0  0
   -6.1375   -0.7737    1.0662 H   0  0  0  0  0  0  0  0  0  0  0  0
   -8.0844    1.0077    1.1926 H   0  0  0  0  0  0  0  0  0  0  0  0
   -7.2514    3.3795    0.3984 H   0  0  0  0  0  0  0  0  0  0  0  0
   -4.3988   -1.6938   -0.6071 H   0  0  0  0  0  0  0  0  0  0  0  0
    1.8737   -2.6298   -0.6834 H   0  0  0  0  0  0  0  0  0  0  0  0
    0.3576   -3.3620   -0.6599 H   0  0  0  0  0  0  0  0  0  0  0  0
  1  2  1  0
  2  3  2  0
  3  4  1  0
  4  5  2  0
  5  6  1  0
  6  7  1  0
  7  8  2  0
  7  9  1  0
  9 10  1  0
 10 11  1  0
 11 12  2  0
 12 13  1  0
 13 14  1  0
 14 15  2  0
 15 16  1  0
 16 17  2  0
 17 18  1  0
 13 19  2  0
 19 20  1  0
 20 21  1  0
 21 22  1  0
 21 23  1  0
 21 24  1  0
 20 25  2  0
 25 26  1  0
 26 27  1  0
  5 28  1  0
 28  2  1  0
 26  9  2  0
 25 11  1  0
 18 14  1  0
  1 29  1  0
  1 30  1  0
  1 31  1  0
  6 32  1  0
 15 33  1  0
 16 34  1  0
 17 35  1  0
 19 36  1  0
 27 37  1  0
 27 38  1  0
M  END
$$$$
