
     RDKit          3D

 61 64  0  0  0  0  0  0  0  0999 V2000
    6.4091    1.1382    3.5213 C   0  0  0  0  0  0  0  0  0  0  0  0
    6.0837    1.1895    2.0554 C   0  0  0  0  0  0  0  0  0  0  0  0
    5.2520    2.1972    1.5497 C   0  0  0  0  0  0  0  0  0  0  0  0
    4.9721    2.2688    0.1810 C   0  0  0  0  0  0  0  0  0  0  0  0
    5.5333    1.3418   -0.7082 C   0  0  0  0  0  0  0  0  0  0  0  0
    5.2204    1.3946   -2.1826 C   0  0  0  0  0  0  0  0  0  0  0  0
    4.3315    0.3224   -2.5975 N   0  0  0  0  0  0  0  0  0  0  0  0
    3.0488    0.1039   -1.9805 C   0  0  0  0  0  0  0  0  0  0  0  0
    2.5075   -1.1170   -2.7062 C   0  0  0  0  0  0  0  0  0  0  0  0
    0.9927   -1.1270   -2.6266 C   0  0  0  0  0  0  0  0  0  0  0  0
    0.2970   -0.8149   -3.5854 O   0  0  0  0  0  0  0  0  0  0  0  0
    0.5385   -1.4836   -1.3634 N   0  0  0  0  0  0  0  0  0  0  0  0
   -0.8013   -1.5823   -0.9302 C   0  0  0  0  0  0  0  0  0  0  0  0
   -1.9076   -1.3073   -1.7384 C   0  0  0  0  0  0  0  0  0  0  0  0
   -3.2067   -1.4433   -1.2372 C   0  0  0  0  0  0  0  0  0  0  0  0
   -3.3997   -1.8482    0.0835 C   0  0  0  0  0  0  0  0  0  0  0  0
   -5.0571   -2.0443    0.6931 S   0  0  0  0  0  6  0  0  0  0  0  0
   -5.8004   -2.7580   -0.3236 O   0  0  0  0  0  0  0  0  0  0  0  0
   -4.9889   -2.5344    2.0549 O   0  0  0  0  0  0  0  0  0  0  0  0
   -5.6313   -0.4368    0.7555 N   0  0  0  0  0  0  0  0  0  0  0  0
   -4.9034    0.4694    1.6853 C   0  0  0  0  0  0  0  0  0  0  0  0
   -5.5879    1.8313    1.7290 C   0  0  0  0  0  0  0  0  0  0  0  0
   -7.0045    1.7272    2.2898 C   0  0  0  0  0  0  0  0  0  0  0  0
   -7.6039    0.3361    2.0887 C   0  0  0  0  0  0  0  0  0  0  0  0
   -7.1191   -0.3149    0.7994 C   0  0  0  0  0  0  0  0  0  0  0  0
   -2.3086   -2.1273    0.9055 C   0  0  0  0  0  0  0  0  0  0  0  0
   -1.0133   -1.9893    0.3957 C   0  0  0  0  0  0  0  0  0  0  0  0
    3.0669   -0.9513   -4.1196 C   0  0  0  0  0  0  0  0  0  0  0  0
    4.3314   -0.1555   -3.9040 C   0  0  0  0  0  0  0  0  0  0  0  0
    5.1815    0.0533   -4.7547 O   0  0  0  0  0  0  0  0  0  0  0  0
    6.3768    0.3410   -0.2023 C   0  0  0  0  0  0  0  0  0  0  0  0
    6.6550    0.2697    1.1672 C   0  0  0  0  0  0  0  0  0  0  0  0
    7.2998    1.7416    3.7301 H   0  0  0  0  0  0  0  0  0  0  0  0
    6.5976    0.1092    3.8434 H   0  0  0  0  0  0  0  0  0  0  0  0
    5.5719    1.5176    4.1198 H   0  0  0  0  0  0  0  0  0  0  0  0
    4.8179    2.9354    2.2211 H   0  0  0  0  0  0  0  0  0  0  0  0
    4.3157    3.0561   -0.1833 H   0  0  0  0  0  0  0  0  0  0  0  0
    4.7403    2.3449   -2.4526 H   0  0  0  0  0  0  0  0  0  0  0  0
    6.1540    1.3476   -2.7580 H   0  0  0  0  0  0  0  0  0  0  0  0
    2.4271    0.9924   -2.1343 H   0  0  0  0  0  0  0  0  0  0  0  0
    3.1600   -0.0757   -0.9070 H   0  0  0  0  0  0  0  0  0  0  0  0
    2.9116   -2.0388   -2.2614 H   0  0  0  0  0  0  0  0  0  0  0  0
    1.2386   -1.7501   -0.6818 H   0  0  0  0  0  0  0  0  0  0  0  0
   -1.8003   -0.9940   -2.7715 H   0  0  0  0  0  0  0  0  0  0  0  0
   -4.0582   -1.2392   -1.8815 H   0  0  0  0  0  0  0  0  0  0  0  0
   -4.8537    0.0334    2.6914 H   0  0  0  0  0  0  0  0  0  0  0  0
   -3.8808    0.6107    1.3209 H   0  0  0  0  0  0  0  0  0  0  0  0
   -5.6323    2.2442    0.7122 H   0  0  0  0  0  0  0  0  0  0  0  0
   -5.0022    2.5341    2.3299 H   0  0  0  0  0  0  0  0  0  0  0  0
   -7.6365    2.4843    1.8088 H   0  0  0  0  0  0  0  0  0  0  0  0
   -7.0027    1.9583    3.3628 H   0  0  0  0  0  0  0  0  0  0  0  0
   -7.3284   -0.2984    2.9435 H   0  0  0  0  0  0  0  0  0  0  0  0
   -8.6984    0.3998    2.0888 H   0  0  0  0  0  0  0  0  0  0  0  0
   -7.4294    0.2806   -0.0679 H   0  0  0  0  0  0  0  0  0  0  0  0
   -7.6035   -1.2915    0.7011 H   0  0  0  0  0  0  0  0  0  0  0  0
   -2.4532   -2.4520    1.9319 H   0  0  0  0  0  0  0  0  0  0  0  0
   -0.1729   -2.2119    1.0492 H   0  0  0  0  0  0  0  0  0  0  0  0
    3.2959   -1.9185   -4.5781 H   0  0  0  0  0  0  0  0  0  0  0  0
    2.4094   -0.3744   -4.7801 H   0  0  0  0  0  0  0  0  0  0  0  0
    6.8243   -0.3874   -0.8777 H   0  0  0  0  0  0  0  0  0  0  0  0
    7.3236   -0.5076    1.5345 H   0  0  0  0  0  0  0  0  0  0  0  0
  1  2  1  0
  2  3  2  0
  3  4  1  0
  4  5  2  0
  5  6  1  0
  6  7  1  0
  7  8  1  0
  8  9  1  0
  9 10  1  0
 10 11  2  0
 10 12  1  0
 12 13  1  0
 13 14  2  0
 14 15  1  0
 15 16  2  0
 16 17  1  0
 17 18  2  0
 17 19  2  0
 17 20  1  0
 20 21  1  0
 21 22  1  0
 22 23  1  0
 23 24  1  0
 24 25  1  0
 16 26  1  0
 26 27  2  0
  9 28  1  0
 28 29  1  0
 29 30  2  0
  5 31  1  0
 31 32  2  0
 32  2  1  0
 29  7  1  0
 27 13  1  0
 25 20  1  0
  1 33  1  0
  1 34  1  0
  1 35  1  0
  3 36  1  0
  4 37  1  0
  6 38  1  0
  6 39  1  0
  8 40  1  0
  8 41  1  0
  9 42  1  0
 12 43  1  0
 14 44  1  0
 15 45  1  0
 21 46  1  0
 21 47  1  0
 22 48  1  0
 22 49  1  0
 23 50  1  0
 23 51  1  0
 24 52  1  0
 24 53  1  0
 25 54  1  0
 25 55  1  0
 26 56  1  0
 27 57  1  0
 28 58  1  0
 28 59  1  0
 31 60  1  0
 32 61  1  0
M  END
$$$$
