
     RDKit          3D

 69 73  0  0  0  0  0  0  0  0999 V2000
   -1.9827    6.0799    3.9132 C   0  0  0  0  0  0  0  0  0  0  0  0
   -1.6990    5.1407    2.7782 C   0  0  0  0  0  0  0  0  0  0  0  0
   -2.6210    5.0066    1.7337 C   0  0  0  0  0  0  0  0  0  0  0  0
   -2.3760    4.1188    0.6829 C   0  0  0  0  0  0  0  0  0  0  0  0
   -1.2027    3.3522    0.6534 C   0  0  0  0  0  0  0  0  0  0  0  0
   -0.9467    2.3827   -0.4832 C   0  0  0  0  0  0  0  0  0  0  0  0
   -1.4923    1.0521   -0.2176 N   0  0  0  0  0  0  0  0  0  0  0  0
   -2.8319    0.8374   -0.5632 C   0  0  0  0  0  0  0  0  0  0  0  0
   -3.4698    1.5937   -1.2990 O   0  0  0  0  0  0  0  0  0  0  0  0
   -3.4681   -0.4794   -0.0777 C   0  0  0  0  0  0  0  0  0  0  0  0
   -3.2484   -1.5983   -1.1151 C   0  0  0  0  0  0  0  0  0  0  0  0
   -4.4917   -2.4850   -1.3395 C   0  0  0  0  0  0  0  0  0  0  0  0
   -4.2344   -3.4610   -2.4919 C   0  0  0  0  0  0  0  0  0  0  0  0
   -4.8992   -3.2588   -0.0871 C   0  0  0  0  0  0  0  0  0  0  0  0
   -2.9661   -0.8509    1.2427 N   0  0  0  0  0  0  0  0  0  0  0  0
   -1.5809   -0.8018    1.3736 C   0  0  0  0  0  0  0  0  0  0  0  0
   -1.0734   -1.6712    2.2560 N   0  0  0  0  0  0  0  0  0  0  0  0
    0.2472   -1.6157    2.4262 C   0  0  0  0  0  0  0  0  0  0  0  0
    1.0950   -0.8233    1.7616 N   0  0  0  0  0  0  0  0  0  0  0  0
    0.5760    0.0181    0.8417 C   0  0  0  0  0  0  0  0  0  0  0  0
    1.4923    0.7109    0.0330 N   0  0  0  0  0  0  0  0  0  0  0  0
    2.8442    0.9165    0.6151 C   0  0  0  0  0  0  0  0  0  0  0  0
    3.7997   -0.2885    0.4301 C   0  0  0  0  0  0  0  0  0  0  0  0
    3.8466   -0.7055   -0.9905 N   0  0  0  0  0  0  0  0  0  0  0  0
    4.8158   -1.6489   -1.3662 C   0  0  0  0  0  0  0  0  0  0  0  0
    5.4557   -2.5108   -0.4664 C   0  0  0  0  0  0  0  0  0  0  0  0
    6.4203   -3.4294   -0.8986 C   0  0  0  0  0  0  0  0  0  0  0  0
    6.7669   -3.5005   -2.2440 C   0  0  0  0  0  0  0  0  0  0  0  0
    6.1512   -2.6519   -3.1567 C   0  0  0  0  0  0  0  0  0  0  0  0
    5.1896   -1.7373   -2.7186 C   0  0  0  0  0  0  0  0  0  0  0  0
    2.4956   -1.0260   -1.5136 C   0  0  0  0  0  0  0  0  0  0  0  0
    1.5540    0.1915   -1.3598 C   0  0  0  0  0  0  0  0  0  0  0  0
   -0.8138    0.1200    0.6501 C   0  0  0  0  0  0  0  0  0  0  0  0
   -0.2872    3.4820    1.7067 C   0  0  0  0  0  0  0  0  0  0  0  0
   -0.5348    4.3643    2.7610 C   0  0  0  0  0  0  0  0  0  0  0  0
   -2.2790    7.0622    3.5293 H   0  0  0  0  0  0  0  0  0  0  0  0
   -1.0987    6.2256    4.5438 H   0  0  0  0  0  0  0  0  0  0  0  0
   -2.7880    5.6810    4.5388 H   0  0  0  0  0  0  0  0  0  0  0  0
   -3.5405    5.5885    1.7340 H   0  0  0  0  0  0  0  0  0  0  0  0
   -3.1114    4.0273   -0.1153 H   0  0  0  0  0  0  0  0  0  0  0  0
   -1.4179    2.7844   -1.3903 H   0  0  0  0  0  0  0  0  0  0  0  0
    0.1125    2.3718   -0.7327 H   0  0  0  0  0  0  0  0  0  0  0  0
   -4.5391   -0.2674    0.0316 H   0  0  0  0  0  0  0  0  0  0  0  0
   -2.9809   -1.1499   -2.0801 H   0  0  0  0  0  0  0  0  0  0  0  0
   -2.4015   -2.2363   -0.8355 H   0  0  0  0  0  0  0  0  0  0  0  0
   -5.3313   -1.8409   -1.6330 H   0  0  0  0  0  0  0  0  0  0  0  0
   -3.3953   -4.1303   -2.2690 H   0  0  0  0  0  0  0  0  0  0  0  0
   -5.1187   -4.0770   -2.6865 H   0  0  0  0  0  0  0  0  0  0  0  0
   -4.0012   -2.9165   -3.4138 H   0  0  0  0  0  0  0  0  0  0  0  0
   -5.7286   -3.9414   -0.3039 H   0  0  0  0  0  0  0  0  0  0  0  0
   -4.0687   -3.8533    0.3048 H   0  0  0  0  0  0  0  0  0  0  0  0
   -5.2388   -2.5812    0.7019 H   0  0  0  0  0  0  0  0  0  0  0  0
   -3.3253   -1.6934    1.6764 H   0  0  0  0  0  0  0  0  0  0  0  0
    0.6771   -2.2860    3.1623 H   0  0  0  0  0  0  0  0  0  0  0  0
    3.2823    1.7844    0.1042 H   0  0  0  0  0  0  0  0  0  0  0  0
    2.7782    1.1941    1.6747 H   0  0  0  0  0  0  0  0  0  0  0  0
    3.4802   -1.1253    1.0609 H   0  0  0  0  0  0  0  0  0  0  0  0
    4.7993    0.0202    0.7625 H   0  0  0  0  0  0  0  0  0  0  0  0
    5.2106   -2.4983    0.5913 H   0  0  0  0  0  0  0  0  0  0  0  0
    6.8954   -4.0921   -0.1818 H   0  0  0  0  0  0  0  0  0  0  0  0
    7.5189   -4.2107   -2.5778 H   0  0  0  0  0  0  0  0  0  0  0  0
    6.4223   -2.6920   -4.2085 H   0  0  0  0  0  0  0  0  0  0  0  0
    4.7422   -1.0629   -3.4446 H   0  0  0  0  0  0  0  0  0  0  0  0
    2.5285   -1.2865   -2.5782 H   0  0  0  0  0  0  0  0  0  0  0  0
    2.0844   -1.8900   -0.9753 H   0  0  0  0  0  0  0  0  0  0  0  0
    1.9289    1.0052   -1.9945 H   0  0  0  0  0  0  0  0  0  0  0  0
    0.5606   -0.0669   -1.7468 H   0  0  0  0  0  0  0  0  0  0  0  0
    0.6261    2.8928    1.7166 H   0  0  0  0  0  0  0  0  0  0  0  0
    0.1873    4.4379    3.5719 H   0  0  0  0  0  0  0  0  0  0  0  0
  1  2  1  0
  2  3  2  0
  3  4  1  0
  4  5  2  0
  5  6  1  0
  6  7  1  0
  7  8  1  0
  8  9  2  0
  8 10  1  0
 10 11  1  0
 11 12  1  0
 12 13  1  0
 12 14  1  0
 10 15  1  0
 15 16  1  0
 16 17  2  0
 17 18  1  0
 18 19  2  0
 19 20  1  0
 20 21  1  0
 21 22  1  0
 22 23  1  0
 23 24  1  0
 24 25  1  0
 25 26  2  0
 26 27  1  0
 27 28  2  0
 28 29  1  0
 29 30  2  0
 24 31  1  0
 31 32  1  0
 20 33  2  0
  5 34  1  0
 34 35  2  0
 35  2  1  0
 33  7  1  0
 33 16  1  0
 32 21  1  0
 30 25  1  0
  1 36  1  0
  1 37  1  0
  1 38  1  0
  3 39  1  0
  4 40  1  0
  6 41  1  0
  6 42  1  0
 10 43  1  0
 11 44  1  0
 11 45  1  0
 12 46  1  0
 13 47  1  0
 13 48  1  0
 13 49  1  0
 14 50  1  0
 14 51  1  0
 14 52  1  0
 15 53  1  0
 18 54  1  0
 22 55  1  0
 22 56  1  0
 23 57  1  0
 23 58  1  0
 26 59  1  0
 27 60  1  0
 28 61  1  0
 29 62  1  0
 30 63  1  0
 31 64  1  0
 31 65  1  0
 32 66  1  0
 32 67  1  0
 34 68  1  0
 35 69  1  0
M  END
$$$$
