
     RDKit          3D

 39 41  0  0  0  0  0  0  0  0999 V2000
    2.4020    2.3124   -2.4671 C   0  0  0  0  0  0  0  0  0  0  0  0
    1.9503    2.3131   -1.0288 C   0  0  0  0  0  0  0  0  0  0  0  0
    2.6491    2.7990   -0.1399 O   0  0  0  0  0  0  0  0  0  0  0  0
    0.6418    1.6816   -0.7227 C   0  0  0  0  0  0  0  0  0  0  0  0
    0.5934    0.5459    0.0122 C   0  0  0  0  0  0  0  0  0  0  0  0
    1.6673   -0.1838    0.5244 N   0  0  0  0  0  0  0  0  0  0  0  0
    2.1586    0.1504    1.8890 C   0  0  0  0  0  0  0  0  0  0  0  0
    2.9007   -1.0560    2.4851 C   0  0  0  0  0  0  0  0  0  0  0  0
    3.9798   -1.4899    1.6417 O   0  0  0  0  0  0  0  0  0  0  0  0
    3.4912   -1.8325    0.3354 C   0  0  0  0  0  0  0  0  0  0  0  0
    2.7900   -0.6381   -0.3298 C   0  0  0  0  0  0  0  0  0  0  0  0
   -0.6455    0.0187    0.2842 N   0  0  0  0  0  0  0  0  0  0  0  0
   -1.7964    0.4780   -0.2939 C   0  0  0  0  0  0  0  0  0  0  0  0
   -3.0757   -0.2770   -0.1081 C   0  0  0  0  0  0  0  0  0  0  0  0
   -3.2555   -1.1402    0.9806 C   0  0  0  0  0  0  0  0  0  0  0  0
   -4.4564   -1.8394    1.1286 C   0  0  0  0  0  0  0  0  0  0  0  0
   -5.4808   -1.6770    0.1966 C   0  0  0  0  0  0  0  0  0  0  0  0
   -5.3120   -0.8103   -0.8819 C   0  0  0  0  0  0  0  0  0  0  0  0
   -4.1143   -0.1091   -1.0333 C   0  0  0  0  0  0  0  0  0  0  0  0
   -1.8141    1.5536   -1.0222 N   0  0  0  0  0  0  0  0  0  0  0  0
   -0.6576    2.2968   -1.1808 C   0  0  0  0  0  0  0  0  0  0  0  0
   -0.7620    3.8332   -1.8917 S   0  0  0  0  0  0  0  0  0  0  0  0
    1.7079    1.7533   -3.1007 H   0  0  0  0  0  0  0  0  0  0  0  0
    3.3820    1.8315   -2.5322 H   0  0  0  0  0  0  0  0  0  0  0  0
    2.4693    3.3411   -2.8297 H   0  0  0  0  0  0  0  0  0  0  0  0
    1.3217    0.4189    2.5439 H   0  0  0  0  0  0  0  0  0  0  0  0
    2.8374    1.0087    1.8286 H   0  0  0  0  0  0  0  0  0  0  0  0
    3.3264   -0.7876    3.4570 H   0  0  0  0  0  0  0  0  0  0  0  0
    2.2155   -1.8979    2.6407 H   0  0  0  0  0  0  0  0  0  0  0  0
    4.3494   -2.1436   -0.2683 H   0  0  0  0  0  0  0  0  0  0  0  0
    2.8129   -2.6897    0.4230 H   0  0  0  0  0  0  0  0  0  0  0  0
    2.4201   -0.9368   -1.3170 H   0  0  0  0  0  0  0  0  0  0  0  0
    3.5140    0.1742   -0.4565 H   0  0  0  0  0  0  0  0  0  0  0  0
   -0.5978   -0.9095    0.6822 H   0  0  0  0  0  0  0  0  0  0  0  0
   -2.4887   -1.2616    1.7391 H   0  0  0  0  0  0  0  0  0  0  0  0
   -4.5982   -2.5042    1.9774 H   0  0  0  0  0  0  0  0  0  0  0  0
   -6.4161   -2.2188    0.3157 H   0  0  0  0  0  0  0  0  0  0  0  0
   -6.1135   -0.6753   -1.6040 H   0  0  0  0  0  0  0  0  0  0  0  0
   -3.9965    0.5678   -1.8770 H   0  0  0  0  0  0  0  0  0  0  0  0
  1  2  1  0
  2  3  2  0
  2  4  1  0
  4  5  2  0
  5  6  1  0
  6  7  1  0
  7  8  1  0
  8  9  1  0
  9 10  1  0
 10 11  1  0
  5 12  1  0
 12 13  1  0
 13 14  1  0
 14 15  2  0
 15 16  1  0
 16 17  2  0
 17 18  1  0
 18 19  2  0
 13 20  2  0
 20 21  1  0
 21 22  2  0
 21  4  1  0
 11  6  1  0
 19 14  1  0
  1 23  1  0
  1 24  1  0
  1 25  1  0
  7 26  1  0
  7 27  1  0
  8 28  1  0
  8 29  1  0
 10 30  1  0
 10 31  1  0
 11 32  1  0
 11 33  1  0
 12 34  1  0
 15 35  1  0
 16 36  1  0
 17 37  1  0
 18 38  1  0
 19 39  1  0
M  END
$$$$
