
     RDKit          3D

 71 74  0  0  0  0  0  0  0  0999 V2000
   -6.7242    0.2408   -0.0453 C   0  0  0  0  0  0  0  0  0  0  0  0
   -6.3579   -0.5357    1.2138 C   0  0  0  0  0  0  0  0  0  0  0  0
   -4.9893   -1.2490    1.1218 C   0  0  0  0  0  0  0  0  0  0  0  0
   -4.7804   -2.1822    2.3289 C   0  0  0  0  0  0  0  0  0  0  0  0
   -4.5731   -1.4250    3.6364 C   0  0  0  0  0  0  0  0  0  0  0  0
   -3.7214   -0.1741    3.4468 C   0  0  0  0  0  0  0  0  0  0  0  0
   -2.9879   -0.1679    2.1067 C   0  0  0  0  0  0  0  0  0  0  0  0
   -3.9167   -0.2386    0.9693 N   0  0  0  0  0  0  0  0  0  0  0  0
   -3.2154   -0.3860   -0.3193 C   0  0  0  0  0  0  0  0  0  0  0  0
   -2.3455    0.8280   -0.6753 C   0  0  0  0  0  0  0  0  0  0  0  0
   -1.7735    0.7438   -2.0898 C   0  0  0  0  0  0  0  0  0  0  0  0
   -0.8169   -0.3356   -2.2262 N   0  0  0  0  0  0  0  0  0  0  0  0
    0.3927   -0.1812   -2.8775 C   0  0  0  0  0  0  0  0  0  0  0  0
    0.7831    0.8833   -3.3541 O   0  0  0  0  0  0  0  0  0  0  0  0
    1.1964   -1.4761   -3.0205 C   0  0  0  0  0  0  0  0  0  0  0  0
    1.4609   -2.0924   -1.7192 N   0  0  0  0  0  0  0  0  0  0  0  0
    0.5304   -2.9845   -1.2107 C   0  0  0  0  0  0  0  0  0  0  0  0
   -0.5285   -3.2454   -1.7893 O   0  0  0  0  0  0  0  0  0  0  0  0
    0.8349   -3.5405    0.1742 C   0  0  0  0  0  0  0  0  0  0  0  0
    2.1680   -3.5436    0.6422 O   0  0  0  0  0  0  0  0  0  0  0  0
    2.9036   -2.4752    0.2095 C   0  0  0  0  0  0  0  0  0  0  0  0
    4.0398   -2.1884    0.9742 C   0  0  0  0  0  0  0  0  0  0  0  0
    4.8811   -1.1398    0.6135 C   0  0  0  0  0  0  0  0  0  0  0  0
    4.5792   -0.3942   -0.5245 C   0  0  0  0  0  0  0  0  0  0  0  0
    5.6244    0.9607   -1.0050 S   0  0  0  0  0  6  0  0  0  0  0  0
    6.5194    1.2503    0.0935 O   0  0  0  0  0  0  0  0  0  0  0  0
    6.1251    0.6477   -2.3252 O   0  0  0  0  0  0  0  0  0  0  0  0
    4.5213    2.2464   -1.1293 N   0  0  0  0  0  0  0  0  0  0  0  0
    3.8954    2.7369    0.1395 C   0  0  0  0  0  0  0  0  0  0  0  0
    4.7859    3.7596    0.8606 C   0  0  0  0  0  0  0  0  0  0  0  0
    5.1531    4.8438   -0.0045 O   0  0  0  0  0  0  0  0  0  0  0  0
    5.8560    4.3543   -1.1579 C   0  0  0  0  0  0  0  0  0  0  0  0
    4.9711    3.4018   -1.9657 C   0  0  0  0  0  0  0  0  0  0  0  0
    3.4545   -0.6890   -1.3082 C   0  0  0  0  0  0  0  0  0  0  0  0
    2.6021   -1.7402   -0.9483 C   0  0  0  0  0  0  0  0  0  0  0  0
   -7.7315    0.6590    0.0518 H   0  0  0  0  0  0  0  0  0  0  0  0
   -6.7121   -0.4095   -0.9257 H   0  0  0  0  0  0  0  0  0  0  0  0
   -6.0349    1.0725   -0.2200 H   0  0  0  0  0  0  0  0  0  0  0  0
   -7.1408   -1.2835    1.3930 H   0  0  0  0  0  0  0  0  0  0  0  0
   -6.3831    0.1507    2.0685 H   0  0  0  0  0  0  0  0  0  0  0  0
   -5.0292   -1.9030    0.2387 H   0  0  0  0  0  0  0  0  0  0  0  0
   -3.8994   -2.8122    2.1390 H   0  0  0  0  0  0  0  0  0  0  0  0
   -5.6265   -2.8728    2.4351 H   0  0  0  0  0  0  0  0  0  0  0  0
   -5.5410   -1.1410    4.0675 H   0  0  0  0  0  0  0  0  0  0  0  0
   -4.0998   -2.0943    4.3651 H   0  0  0  0  0  0  0  0  0  0  0  0
   -4.3592    0.7151    3.5193 H   0  0  0  0  0  0  0  0  0  0  0  0
   -2.9989   -0.0963    4.2659 H   0  0  0  0  0  0  0  0  0  0  0  0
   -2.2687   -0.9985    2.0792 H   0  0  0  0  0  0  0  0  0  0  0  0
   -2.4101    0.7622    2.0556 H   0  0  0  0  0  0  0  0  0  0  0  0
   -3.9584   -0.4964   -1.1208 H   0  0  0  0  0  0  0  0  0  0  0  0
   -2.6113   -1.3027   -0.3144 H   0  0  0  0  0  0  0  0  0  0  0  0
   -1.5167    0.9284    0.0358 H   0  0  0  0  0  0  0  0  0  0  0  0
   -2.9545    1.7386   -0.6033 H   0  0  0  0  0  0  0  0  0  0  0  0
   -1.2919    1.6950   -2.3378 H   0  0  0  0  0  0  0  0  0  0  0  0
   -2.5667    0.5743   -2.8253 H   0  0  0  0  0  0  0  0  0  0  0  0
   -1.1509   -1.2925   -2.1136 H   0  0  0  0  0  0  0  0  0  0  0  0
    2.1302   -1.2895   -3.5603 H   0  0  0  0  0  0  0  0  0  0  0  0
    0.6115   -2.1620   -3.6453 H   0  0  0  0  0  0  0  0  0  0  0  0
    0.2166   -2.9889    0.8942 H   0  0  0  0  0  0  0  0  0  0  0  0
    0.4968   -4.5837    0.1807 H   0  0  0  0  0  0  0  0  0  0  0  0
    4.2658   -2.7873    1.8536 H   0  0  0  0  0  0  0  0  0  0  0  0
    5.7612   -0.9189    1.2129 H   0  0  0  0  0  0  0  0  0  0  0  0
    3.6487    1.9040    0.8052 H   0  0  0  0  0  0  0  0  0  0  0  0
    2.9452    3.2110   -0.1380 H   0  0  0  0  0  0  0  0  0  0  0  0
    4.2357    4.1886    1.7049 H   0  0  0  0  0  0  0  0  0  0  0  0
    5.6953    3.3059    1.2677 H   0  0  0  0  0  0  0  0  0  0  0  0
    6.7881    3.8748   -0.8368 H   0  0  0  0  0  0  0  0  0  0  0  0
    6.1216    5.2208   -1.7724 H   0  0  0  0  0  0  0  0  0  0  0  0
    4.0678    3.9283   -2.2999 H   0  0  0  0  0  0  0  0  0  0  0  0
    5.4859    3.0579   -2.8688 H   0  0  0  0  0  0  0  0  0  0  0  0
    3.2676   -0.0672   -2.1804 H   0  0  0  0  0  0  0  0  0  0  0  0
  1  2  1  0
  2  3  1  0
  3  4  1  0
  4  5  1  0
  5  6  1  0
  6  7  1  0
  7  8  1  0
  8  9  1  0
  9 10  1  0
 10 11  1  0
 11 12  1  0
 12 13  1  0
 13 14  2  0
 13 15  1  0
 15 16  1  0
 16 17  1  0
 17 18  2  0
 17 19  1  0
 19 20  1  0
 20 21  1  0
 21 22  2  0
 22 23  1  0
 23 24  2  0
 24 25  1  0
 25 26  2  0
 25 27  2  0
 25 28  1  0
 28 29  1  0
 29 30  1  0
 30 31  1  0
 31 32  1  0
 32 33  1  0
 24 34  1  0
 34 35  2  0
  8  3  1  0
 35 16  1  0
 35 21  1  0
 33 28  1  0
  1 36  1  0
  1 37  1  0
  1 38  1  0
  2 39  1  0
  2 40  1  0
  3 41  1  0
  4 42  1  0
  4 43  1  0
  5 44  1  0
  5 45  1  0
  6 46  1  0
  6 47  1  0
  7 48  1  0
  7 49  1  0
  9 50  1  0
  9 51  1  0
 10 52  1  0
 10 53  1  0
 11 54  1  0
 11 55  1  0
 12 56  1  0
 15 57  1  0
 15 58  1  0
 19 59  1  0
 19 60  1  0
 22 61  1  0
 23 62  1  0
 29 63  1  0
 29 64  1  0
 30 65  1  0
 30 66  1  0
 32 67  1  0
 32 68  1  0
 33 69  1  0
 33 70  1  0
 34 71  1  0
M  END
$$$$
