
     RDKit          3D

 45 47  0  0  0  0  0  0  0  0999 V2000
   -2.5664   -2.8910   -0.9669 O   0  0  0  0  0  0  0  0  0  0  0  0
   -2.4244   -1.6750   -1.0464 C   0  0  0  0  0  0  0  0  0  0  0  0
   -1.2555   -1.0385   -1.7935 C   0  0  0  0  0  0  0  0  0  0  0  0
   -1.0199    0.3001   -1.3399 O   0  0  0  0  0  0  0  0  0  0  0  0
    0.0185    0.9194   -1.9908 C   0  0  0  0  0  0  0  0  0  0  0  0
    0.6540    0.4130   -2.9035 O   0  0  0  0  0  0  0  0  0  0  0  0
    0.1870    2.3213   -1.4345 C   0  0  0  0  0  0  0  0  0  0  0  0
    1.8188    3.0395   -1.8106 S   0  0  0  0  0  0  0  0  0  0  0  0
    2.8520    1.9560   -0.8414 C   0  0  0  0  0  0  0  0  0  0  0  0
    2.8586    2.0252    0.5503 C   0  0  0  0  0  0  0  0  0  0  0  0
    3.6871    1.1797    1.2925 C   0  0  0  0  0  0  0  0  0  0  0  0
    4.5254    0.2513    0.6521 C   0  0  0  0  0  0  0  0  0  0  0  0
    5.3713   -0.5998    1.3828 C   0  0  0  0  0  0  0  0  0  0  0  0
    6.1988   -1.5163    0.7326 C   0  0  0  0  0  0  0  0  0  0  0  0
    6.1874   -1.6012   -0.6571 C   0  0  0  0  0  0  0  0  0  0  0  0
    5.3553   -0.7605   -1.3988 C   0  0  0  0  0  0  0  0  0  0  0  0
    4.5214    0.1764   -0.7575 C   0  0  0  0  0  0  0  0  0  0  0  0
    3.6854    1.0374   -1.4893 C   0  0  0  0  0  0  0  0  0  0  0  0
   -3.3232   -0.7657   -0.5203 N   0  0  0  0  0  0  0  0  0  0  0  0
   -4.4323   -1.1976    0.3120 C   0  0  0  0  0  0  0  0  0  0  0  0
   -4.0123   -1.3605    1.7701 C   0  0  0  0  0  0  0  0  0  0  0  0
   -4.0258    0.0598    2.3166 C   0  0  0  0  0  0  0  0  0  0  0  0
   -5.1441    0.7684    1.5582 C   0  0  0  0  0  0  0  0  0  0  0  0
   -5.5202   -0.1321    0.3829 C   0  0  0  0  0  0  0  0  0  0  0  0
   -0.3644   -1.6495   -1.6056 H   0  0  0  0  0  0  0  0  0  0  0  0
   -1.5084   -1.0321   -2.8590 H   0  0  0  0  0  0  0  0  0  0  0  0
   -0.5822    2.9583   -1.8839 H   0  0  0  0  0  0  0  0  0  0  0  0
    0.0429    2.3140   -0.3474 H   0  0  0  0  0  0  0  0  0  0  0  0
    2.2362    2.7453    1.0727 H   0  0  0  0  0  0  0  0  0  0  0  0
    3.6809    1.2565    2.3770 H   0  0  0  0  0  0  0  0  0  0  0  0
    5.3963   -0.5455    2.4700 H   0  0  0  0  0  0  0  0  0  0  0  0
    6.8517   -2.1653    1.3112 H   0  0  0  0  0  0  0  0  0  0  0  0
    6.8270   -2.3198   -1.1662 H   0  0  0  0  0  0  0  0  0  0  0  0
    5.3610   -0.8422   -2.4857 H   0  0  0  0  0  0  0  0  0  0  0  0
    3.6795    0.9834   -2.5779 H   0  0  0  0  0  0  0  0  0  0  0  0
   -3.0033    0.1919   -0.4554 H   0  0  0  0  0  0  0  0  0  0  0  0
   -4.8234   -2.1361   -0.0957 H   0  0  0  0  0  0  0  0  0  0  0  0
   -4.7534   -1.9649    2.3018 H   0  0  0  0  0  0  0  0  0  0  0  0
   -3.0345   -1.8316    1.8940 H   0  0  0  0  0  0  0  0  0  0  0  0
   -3.0683    0.5515    2.1194 H   0  0  0  0  0  0  0  0  0  0  0  0
   -4.1943    0.0806    3.3997 H   0  0  0  0  0  0  0  0  0  0  0  0
   -6.0089    0.9196    2.2060 H   0  0  0  0  0  0  0  0  0  0  0  0
   -4.8167    1.7526    1.2169 H   0  0  0  0  0  0  0  0  0  0  0  0
   -6.4844   -0.6066    0.5942 H   0  0  0  0  0  0  0  0  0  0  0  0
   -5.6301    0.4303   -0.5481 H   0  0  0  0  0  0  0  0  0  0  0  0
  1  2  2  0
  2  3  1  0
  3  4  1  0
  4  5  1  0
  5  6  2  0
  5  7  1  0
  7  8  1  0
  8  9  1  0
  9 10  2  0
 10 11  1  0
 11 12  2  0
 12 13  1  0
 13 14  2  0
 14 15  1  0
 15 16  2  0
 16 17  1  0
 17 18  2  0
  2 19  1  0
 19 20  1  0
 20 21  1  0
 21 22  1  0
 22 23  1  0
 23 24  1  0
 18  9  1  0
 24 20  1  0
 17 12  1  0
  3 25  1  0
  3 26  1  0
  7 27  1  0
  7 28  1  0
 10 29  1  0
 11 30  1  0
 13 31  1  0
 14 32  1  0
 15 33  1  0
 16 34  1  0
 18 35  1  0
 19 36  1  0
 20 37  1  0
 21 38  1  0
 21 39  1  0
 22 40  1  0
 22 41  1  0
 23 42  1  0
 23 43  1  0
 24 44  1  0
 24 45  1  0
M  END
$$$$
