
     RDKit          3D

 45 46  0  0  0  0  0  0  0  0999 V2000
   -3.7318   -2.2764    2.0905 C   0  0  0  0  0  0  0  0  0  0  0  0
   -3.2421   -1.6200    0.9224 O   0  0  0  0  0  0  0  0  0  0  0  0
   -2.2957   -0.6734    1.1675 C   0  0  0  0  0  0  0  0  0  0  0  0
   -1.8656   -0.3751    2.2784 O   0  0  0  0  0  0  0  0  0  0  0  0
   -1.8453    0.0030   -0.1297 C   0  0  0  0  0  0  0  0  0  0  0  0
   -2.5966    1.3266   -0.3166 C   0  0  0  0  0  0  0  0  0  0  0  0
   -4.0664    1.1528   -0.6134 C   0  0  0  0  0  0  0  0  0  0  0  0
   -4.4883    0.7148   -1.8760 C   0  0  0  0  0  0  0  0  0  0  0  0
   -5.8461    0.5371   -2.1448 C   0  0  0  0  0  0  0  0  0  0  0  0
   -6.7935    0.7950   -1.1560 C   0  0  0  0  0  0  0  0  0  0  0  0
   -6.3845    1.2315    0.1025 C   0  0  0  0  0  0  0  0  0  0  0  0
   -5.0273    1.4100    0.3741 C   0  0  0  0  0  0  0  0  0  0  0  0
   -0.4010    0.2544   -0.0109 N   0  0  0  0  0  0  0  0  0  0  0  0
    0.5112   -0.6998   -0.4093 C   0  0  0  0  0  0  0  0  0  0  0  0
    0.1966   -1.7201   -1.0107 O   0  0  0  0  0  0  0  0  0  0  0  0
    1.9294   -0.3713   -0.0003 C   0  0  0  0  0  0  0  0  0  0  0  0
    2.9243   -1.3125   -0.6674 C   0  0  0  0  0  0  0  0  0  0  0  0
    4.2864   -1.0885   -0.2156 N   0  0  0  0  0  0  0  0  0  0  0  0
    5.0301   -0.0013   -0.6428 C   0  0  0  0  0  0  0  0  0  0  0  0
    4.5407    0.8482   -1.3842 O   0  0  0  0  0  0  0  0  0  0  0  0
    6.3936    0.0486   -0.1441 C   0  0  0  0  0  0  0  0  0  0  0  0
    7.1408   -0.7801    0.6783 C   0  0  0  0  0  0  0  0  0  0  0  0
    8.4251   -0.1932    0.8024 C   0  0  0  0  0  0  0  0  0  0  0  0
    8.3917    0.9565    0.0530 C   0  0  0  0  0  0  0  0  0  0  0  0
    7.1736    1.1127   -0.5207 O   0  0  0  0  0  0  0  0  0  0  0  0
   -2.9211   -2.8044    2.6022 H   0  0  0  0  0  0  0  0  0  0  0  0
   -4.2108   -1.5566    2.7616 H   0  0  0  0  0  0  0  0  0  0  0  0
   -4.4805   -3.0099    1.7789 H   0  0  0  0  0  0  0  0  0  0  0  0
   -2.0139   -0.6787   -0.9711 H   0  0  0  0  0  0  0  0  0  0  0  0
   -2.1461    1.8947   -1.1418 H   0  0  0  0  0  0  0  0  0  0  0  0
   -2.4731    1.9613    0.5716 H   0  0  0  0  0  0  0  0  0  0  0  0
   -3.7626    0.5083   -2.6602 H   0  0  0  0  0  0  0  0  0  0  0  0
   -6.1647    0.1967   -3.1267 H   0  0  0  0  0  0  0  0  0  0  0  0
   -7.8505    0.6564   -1.3669 H   0  0  0  0  0  0  0  0  0  0  0  0
   -7.1237    1.4334    0.8733 H   0  0  0  0  0  0  0  0  0  0  0  0
   -4.7278    1.7496    1.3635 H   0  0  0  0  0  0  0  0  0  0  0  0
   -0.1173    0.8587    0.7534 H   0  0  0  0  0  0  0  0  0  0  0  0
    2.1435    0.6697   -0.2667 H   0  0  0  0  0  0  0  0  0  0  0  0
    2.0004   -0.4593    1.0903 H   0  0  0  0  0  0  0  0  0  0  0  0
    2.8942   -1.1927   -1.7568 H   0  0  0  0  0  0  0  0  0  0  0  0
    2.6854   -2.3575   -0.4407 H   0  0  0  0  0  0  0  0  0  0  0  0
    4.7161   -1.7897    0.3689 H   0  0  0  0  0  0  0  0  0  0  0  0
    6.8110   -1.7000    1.1383 H   0  0  0  0  0  0  0  0  0  0  0  0
    9.2701   -0.5621    1.3668 H   0  0  0  0  0  0  0  0  0  0  0  0
    9.1123    1.7330   -0.1645 H   0  0  0  0  0  0  0  0  0  0  0  0
  1  2  1  0
  2  3  1  0
  3  4  2  0
  3  5  1  0
  5  6  1  0
  6  7  1  0
  7  8  2  0
  8  9  1  0
  9 10  2  0
 10 11  1  0
 11 12  2  0
  5 13  1  0
 13 14  1  0
 14 15  2  0
 14 16  1  0
 16 17  1  0
 17 18  1  0
 18 19  1  0
 19 20  2  0
 19 21  1  0
 21 22  2  0
 22 23  1  0
 23 24  2  0
 24 25  1  0
 12  7  1  0
 25 21  1  0
  1 26  1  0
  1 27  1  0
  1 28  1  0
  5 29  1  0
  6 30  1  0
  6 31  1  0
  8 32  1  0
  9 33  1  0
 10 34  1  0
 11 35  1  0
 12 36  1  0
 13 37  1  0
 16 38  1  0
 16 39  1  0
 17 40  1  0
 17 41  1  0
 18 42  1  0
 22 43  1  0
 23 44  1  0
 24 45  1  0
M  END
$$$$
