
     RDKit          3D

 49 52  0  0  0  0  0  0  0  0999 V2000
   -4.4051    3.9735   -0.1501 C   0  0  0  0  0  0  0  0  0  0  0  0
   -4.7342    2.4930   -0.1190 C   0  0  0  0  0  0  0  0  0  0  0  0
   -3.7979    1.7950    0.7163 O   0  0  0  0  0  0  0  0  0  0  0  0
   -2.6495    1.3818    0.1022 C   0  0  0  0  0  0  0  0  0  0  0  0
   -2.3688    1.5902   -1.0689 O   0  0  0  0  0  0  0  0  0  0  0  0
   -1.7710    0.6761    1.1139 C   0  0  0  0  0  0  0  0  0  0  0  0
   -0.6876   -0.1846    0.4953 C   0  0  0  0  0  0  0  0  0  0  0  0
    0.5804    0.4339    0.4227 C   0  0  0  0  0  0  0  0  0  0  0  0
    1.6645   -0.2526   -0.0875 C   0  0  0  0  0  0  0  0  0  0  0  0
    3.0205    0.3234   -0.1917 C   0  0  0  0  0  0  0  0  0  0  0  0
    3.5189    1.2477    0.7439 C   0  0  0  0  0  0  0  0  0  0  0  0
    4.8089    1.7884    0.6290 C   0  0  0  0  0  0  0  0  0  0  0  0
    5.6359    1.4133   -0.4269 C   0  0  0  0  0  0  0  0  0  0  0  0
    6.9066    1.8622   -0.6556 O   0  0  0  0  0  0  0  0  0  0  0  0
    7.4348    2.7989    0.2742 C   0  0  0  0  0  0  0  0  0  0  0  0
    5.1633    0.4920   -1.3598 C   0  0  0  0  0  0  0  0  0  0  0  0
    3.8773   -0.0469   -1.2423 C   0  0  0  0  0  0  0  0  0  0  0  0
    1.5253   -1.5155   -0.5266 N   0  0  0  0  0  0  0  0  0  0  0  0
    0.3272   -2.1133   -0.4833 C   0  0  0  0  0  0  0  0  0  0  0  0
    0.3399   -3.4051   -0.9596 C   0  0  0  0  0  0  0  0  0  0  0  0
   -0.8017   -4.1904   -0.9967 C   0  0  0  0  0  0  0  0  0  0  0  0
   -2.0177   -3.6824   -0.5621 C   0  0  0  0  0  0  0  0  0  0  0  0
   -3.1412   -4.5247   -0.6394 C   0  0  0  0  0  0  0  0  0  0  0  0
   -4.3964   -4.0878   -0.2421 C   0  0  0  0  0  0  0  0  0  0  0  0
   -4.5350   -2.7978    0.2303 C   0  0  0  0  0  0  0  0  0  0  0  0
   -3.4161   -1.9565    0.3110 C   0  0  0  0  0  0  0  0  0  0  0  0
   -2.1020   -2.3509   -0.0660 C   0  0  0  0  0  0  0  0  0  0  0  0
   -0.8743   -1.5278    0.0005 C   0  0  0  0  0  0  0  0  0  0  0  0
   -5.1468    4.5235   -0.7361 H   0  0  0  0  0  0  0  0  0  0  0  0
   -3.4163    4.1476   -0.5861 H   0  0  0  0  0  0  0  0  0  0  0  0
   -4.3819    4.3835    0.8650 H   0  0  0  0  0  0  0  0  0  0  0  0
   -4.7640    2.0659   -1.1279 H   0  0  0  0  0  0  0  0  0  0  0  0
   -5.7259    2.3456    0.3212 H   0  0  0  0  0  0  0  0  0  0  0  0
   -2.3566    0.0835    1.8216 H   0  0  0  0  0  0  0  0  0  0  0  0
   -1.3157    1.4648    1.7284 H   0  0  0  0  0  0  0  0  0  0  0  0
    0.7040    1.4620    0.7514 H   0  0  0  0  0  0  0  0  0  0  0  0
    2.9139    1.5497    1.5958 H   0  0  0  0  0  0  0  0  0  0  0  0
    5.1336    2.4940    1.3861 H   0  0  0  0  0  0  0  0  0  0  0  0
    8.4488    3.0547   -0.0482 H   0  0  0  0  0  0  0  0  0  0  0  0
    6.8456    3.7219    0.2830 H   0  0  0  0  0  0  0  0  0  0  0  0
    7.5042    2.3640    1.2768 H   0  0  0  0  0  0  0  0  0  0  0  0
    5.7985    0.1855   -2.1872 H   0  0  0  0  0  0  0  0  0  0  0  0
    3.5400   -0.7658   -1.9878 H   0  0  0  0  0  0  0  0  0  0  0  0
    1.2782   -3.8260   -1.3170 H   0  0  0  0  0  0  0  0  0  0  0  0
   -0.7198   -5.2044   -1.3824 H   0  0  0  0  0  0  0  0  0  0  0  0
   -3.0453   -5.5403   -1.0200 H   0  0  0  0  0  0  0  0  0  0  0  0
   -5.2563   -4.7477   -0.3103 H   0  0  0  0  0  0  0  0  0  0  0  0
   -5.5119   -2.4309    0.5353 H   0  0  0  0  0  0  0  0  0  0  0  0
   -3.6315   -0.9640    0.6731 H   0  0  0  0  0  0  0  0  0  0  0  0
  1  2  1  0
  2  3  1  0
  3  4  1  0
  4  5  2  0
  4  6  1  0
  6  7  1  0
  7  8  2  0
  8  9  1  0
  9 10  1  0
 10 11  2  0
 11 12  1  0
 12 13  2  0
 13 14  1  0
 14 15  1  0
 13 16  1  0
 16 17  2  0
  9 18  2  0
 18 19  1  0
 19 20  2  0
 20 21  1  0
 21 22  2  0
 22 23  1  0
 23 24  2  0
 24 25  1  0
 25 26  2  0
 26 27  1  0
 27 28  2  0
 28  7  1  0
 17 10  1  0
 28 19  1  0
 27 22  1  0
  1 29  1  0
  1 30  1  0
  1 31  1  0
  2 32  1  0
  2 33  1  0
  6 34  1  0
  6 35  1  0
  8 36  1  0
 11 37  1  0
 12 38  1  0
 15 39  1  0
 15 40  1  0
 15 41  1  0
 16 42  1  0
 17 43  1  0
 20 44  1  0
 21 45  1  0
 23 46  1  0
 24 47  1  0
 25 48  1  0
 26 49  1  0
M  END
$$$$
