
     RDKit          3D

 40 41  0  0  0  0  0  0  0  0999 V2000
    5.3302    1.7328    1.2557 C   0  0  0  0  0  0  0  0  0  0  0  0
    5.1455    0.3305    1.8088 C   0  0  0  0  0  0  0  0  0  0  0  0
    3.8105    0.1442    2.2765 O   0  0  0  0  0  0  0  0  0  0  0  0
    2.8705   -0.3455    1.4142 C   0  0  0  0  0  0  0  0  0  0  0  0
    1.6465   -0.6619    2.0156 C   0  0  0  0  0  0  0  0  0  0  0  0
    0.5882   -1.1669    1.2592 C   0  0  0  0  0  0  0  0  0  0  0  0
    0.7572   -1.3470   -0.1142 C   0  0  0  0  0  0  0  0  0  0  0  0
   -0.5990   -1.9721   -1.0741 S   0  0  0  0  0  6  0  0  0  0  0  0
   -0.2443   -1.9025   -2.4766 O   0  0  0  0  0  0  0  0  0  0  0  0
   -1.0148   -3.2158   -0.4622 O   0  0  0  0  0  0  0  0  0  0  0  0
   -1.8162   -0.8024   -0.8029 N   0  0  0  0  0  0  0  0  0  0  0  0
   -1.5396    0.5550   -1.3294 C   0  0  0  0  0  0  0  0  0  0  0  0
   -2.0104    1.6228   -0.3340 C   0  0  0  0  0  0  0  0  0  0  0  0
   -3.0214    1.1635    0.7188 C   0  0  0  0  0  0  0  0  0  0  0  0
   -4.3454    0.6300    0.1737 C   0  0  0  0  0  0  0  0  0  0  0  0
   -4.2670   -0.2250   -1.0894 C   0  0  0  0  0  0  0  0  0  0  0  0
   -3.1897   -1.3105   -1.0857 C   0  0  0  0  0  0  0  0  0  0  0  0
    1.9710   -1.0352   -0.7294 C   0  0  0  0  0  0  0  0  0  0  0  0
    3.0264   -0.5313    0.0387 C   0  0  0  0  0  0  0  0  0  0  0  0
    4.6900    1.9082    0.3861 H   0  0  0  0  0  0  0  0  0  0  0  0
    6.3705    1.8982    0.9614 H   0  0  0  0  0  0  0  0  0  0  0  0
    5.0544    2.4800    2.0073 H   0  0  0  0  0  0  0  0  0  0  0  0
    5.4560   -0.4439    1.0988 H   0  0  0  0  0  0  0  0  0  0  0  0
    5.7978    0.2152    2.6819 H   0  0  0  0  0  0  0  0  0  0  0  0
    1.5211   -0.5172    3.0865 H   0  0  0  0  0  0  0  0  0  0  0  0
   -0.3557   -1.4150    1.7389 H   0  0  0  0  0  0  0  0  0  0  0  0
   -2.0131    0.6905   -2.3080 H   0  0  0  0  0  0  0  0  0  0  0  0
   -0.4695    0.7082   -1.5055 H   0  0  0  0  0  0  0  0  0  0  0  0
   -1.1291    1.9998    0.2018 H   0  0  0  0  0  0  0  0  0  0  0  0
   -2.4095    2.4801   -0.8894 H   0  0  0  0  0  0  0  0  0  0  0  0
   -3.2373    2.0039    1.3906 H   0  0  0  0  0  0  0  0  0  0  0  0
   -2.5595    0.3983    1.3559 H   0  0  0  0  0  0  0  0  0  0  0  0
   -5.0084    1.4792   -0.0352 H   0  0  0  0  0  0  0  0  0  0  0  0
   -4.8368    0.0542    0.9680 H   0  0  0  0  0  0  0  0  0  0  0  0
   -4.1386    0.4319   -1.9578 H   0  0  0  0  0  0  0  0  0  0  0  0
   -5.2419   -0.7059   -1.2409 H   0  0  0  0  0  0  0  0  0  0  0  0
   -3.4445   -2.0512   -0.3187 H   0  0  0  0  0  0  0  0  0  0  0  0
   -3.2009   -1.8119   -2.0608 H   0  0  0  0  0  0  0  0  0  0  0  0
    2.1047   -1.1777   -1.7996 H   0  0  0  0  0  0  0  0  0  0  0  0
    3.9522   -0.2879   -0.4716 H   0  0  0  0  0  0  0  0  0  0  0  0
  1  2  1  0
  2  3  1  0
  3  4  1  0
  4  5  2  0
  5  6  1  0
  6  7  2  0
  7  8  1  0
  8  9  2  0
  8 10  2  0
  8 11  1  0
 11 12  1  0
 12 13  1  0
 13 14  1  0
 14 15  1  0
 15 16  1  0
 16 17  1  0
  7 18  1  0
 18 19  2  0
 19  4  1  0
 17 11  1  0
  1 20  1  0
  1 21  1  0
  1 22  1  0
  2 23  1  0
  2 24  1  0
  5 25  1  0
  6 26  1  0
 12 27  1  0
 12 28  1  0
 13 29  1  0
 13 30  1  0
 14 31  1  0
 14 32  1  0
 15 33  1  0
 15 34  1  0
 16 35  1  0
 16 36  1  0
 17 37  1  0
 17 38  1  0
 18 39  1  0
 19 40  1  0
M  END
$$$$
