
     RDKit          3D

 42 42  0  0  0  0  0  0  0  0999 V2000
   -1.3947   -2.9815    2.6597 C   0  0  0  0  0  0  0  0  0  0  0  0
   -0.1930   -2.6958    1.7723 C   0  0  0  0  0  0  0  0  0  0  0  0
   -0.5333   -2.6085    0.2830 C   0  0  0  0  0  0  0  0  0  0  0  0
   -1.5433   -1.5316   -0.1421 C   0  0  0  0  0  0  0  0  0  0  0  0
   -1.0944   -0.0506   -0.1859 C   0  0  0  0  0  0  0  0  0  0  0  0
   -2.2152    0.7939   -0.7808 C   0  0  0  0  0  0  0  0  0  0  0  0
   -3.1104    0.3564   -1.4939 O   0  0  0  0  0  0  0  0  0  0  0  0
   -2.0539    2.1160   -0.4874 O   0  0  0  0  0  0  0  0  0  0  0  0
   -3.0751    2.9736   -1.0123 C   0  0  0  0  0  0  0  0  0  0  0  0
   -2.7722    4.3918   -0.5703 C   0  0  0  0  0  0  0  0  0  0  0  0
    0.1812    0.1993   -0.9837 C   0  0  0  0  0  0  0  0  0  0  0  0
    1.2662    0.3109    0.0713 C   0  0  0  0  0  0  0  0  0  0  0  0
    2.3946    1.2923   -0.2604 C   0  0  0  0  0  0  0  0  0  0  0  0
    3.2170    1.0098   -1.8595 S   0  0  0  0  0  0  0  0  0  0  0  0
    4.2874   -0.2973   -1.4597 C   0  0  0  0  0  0  0  0  0  0  0  0
    3.9906   -1.1317   -0.5341 N   0  0  0  0  0  0  0  0  0  0  0  0
    5.4030   -0.3676   -2.2154 N   0  0  0  0  0  0  0  0  0  0  0  0
    0.5911    0.7598    1.2557 O   0  0  0  0  0  0  0  0  0  0  0  0
   -0.7370    0.4576    1.1829 C   0  0  0  0  0  0  0  0  0  0  0  0
   -1.5079    0.5899    2.1210 O   0  0  0  0  0  0  0  0  0  0  0  0
   -1.0679   -3.1435    3.6920 H   0  0  0  0  0  0  0  0  0  0  0  0
   -1.9234   -3.8807    2.3281 H   0  0  0  0  0  0  0  0  0  0  0  0
   -2.1007   -2.1467    2.6649 H   0  0  0  0  0  0  0  0  0  0  0  0
    0.3099   -1.7896    2.1175 H   0  0  0  0  0  0  0  0  0  0  0  0
    0.5303   -3.5100    1.9056 H   0  0  0  0  0  0  0  0  0  0  0  0
   -0.9501   -3.5806   -0.0143 H   0  0  0  0  0  0  0  0  0  0  0  0
    0.3924   -2.5058   -0.2928 H   0  0  0  0  0  0  0  0  0  0  0  0
   -2.4491   -1.6195    0.4710 H   0  0  0  0  0  0  0  0  0  0  0  0
   -1.8619   -1.8097   -1.1573 H   0  0  0  0  0  0  0  0  0  0  0  0
   -3.0755    2.9187   -2.1066 H   0  0  0  0  0  0  0  0  0  0  0  0
   -4.0528    2.6653   -0.6253 H   0  0  0  0  0  0  0  0  0  0  0  0
   -1.7874    4.7060   -0.9318 H   0  0  0  0  0  0  0  0  0  0  0  0
   -2.7458    4.4575    0.5224 H   0  0  0  0  0  0  0  0  0  0  0  0
   -3.5261    5.0879   -0.9482 H   0  0  0  0  0  0  0  0  0  0  0  0
    0.3978   -0.5878   -1.7140 H   0  0  0  0  0  0  0  0  0  0  0  0
    0.1104    1.1342   -1.5547 H   0  0  0  0  0  0  0  0  0  0  0  0
    1.6806   -0.6728    0.3065 H   0  0  0  0  0  0  0  0  0  0  0  0
    3.1352    1.3056    0.5481 H   0  0  0  0  0  0  0  0  0  0  0  0
    1.9841    2.3092   -0.2863 H   0  0  0  0  0  0  0  0  0  0  0  0
    4.7545   -1.8052   -0.4403 H   0  0  0  0  0  0  0  0  0  0  0  0
    5.3470    0.1696   -3.0741 H   0  0  0  0  0  0  0  0  0  0  0  0
    5.7977   -1.2889   -2.3473 H   0  0  0  0  0  0  0  0  0  0  0  0
  1  2  1  0
  2  3  1  0
  3  4  1  0
  4  5  1  0
  5  6  1  0
  6  7  2  0
  6  8  1  0
  8  9  1  0
  9 10  1  0
  5 11  1  0
 11 12  1  0
 12 13  1  0
 13 14  1  0
 14 15  1  0
 15 16  2  3
 15 17  1  0
 12 18  1  0
 18 19  1  0
 19 20  2  0
 19  5  1  0
  1 21  1  0
  1 22  1  0
  1 23  1  0
  2 24  1  0
  2 25  1  0
  3 26  1  0
  3 27  1  0
  4 28  1  0
  4 29  1  0
  9 30  1  0
  9 31  1  0
 10 32  1  0
 10 33  1  0
 10 34  1  0
 11 35  1  0
 11 36  1  0
 12 37  1  0
 13 38  1  0
 13 39  1  0
 16 40  1  0
 17 41  1  0
 17 42  1  0
M  END
$$$$
