
     RDKit          3D

 54 58  0  0  0  0  0  0  0  0999 V2000
   -4.5995   -4.0034    2.0744 C   0  0  0  0  0  0  0  0  0  0  0  0
   -3.4861   -3.2853    1.3248 C   0  0  0  0  0  0  0  0  0  0  0  0
   -3.9752   -2.0571    0.5313 C   0  0  0  0  0  0  0  0  0  0  0  0
   -4.9374   -2.4281   -0.6025 C   0  0  0  0  0  0  0  0  0  0  0  0
   -2.8347   -1.2745    0.0222 N   0  0  0  0  0  0  0  0  0  0  0  0
   -1.9622   -1.8286   -0.9111 C   0  0  0  0  0  0  0  0  0  0  0  0
   -0.9199   -1.2525   -1.4298 N   0  0  0  0  0  0  0  0  0  0  0  0
   -0.7210    0.0031   -0.9671 C   0  0  0  0  0  0  0  0  0  0  0  0
   -1.4925    0.6854   -0.0499 C   0  0  0  0  0  0  0  0  0  0  0  0
   -2.6448    0.0294    0.5150 C   0  0  0  0  0  0  0  0  0  0  0  0
   -3.3804    0.5606    1.3409 O   0  0  0  0  0  0  0  0  0  0  0  0
   -0.9252    1.9623    0.1212 C   0  0  0  0  0  0  0  0  0  0  0  0
   -1.2933    3.0158    0.8906 N   0  0  0  0  0  0  0  0  0  0  0  0
   -0.4984    4.0918    0.7841 C   0  0  0  0  0  0  0  0  0  0  0  0
   -0.8056    5.2124    1.5450 C   0  0  0  0  0  0  0  0  0  0  0  0
   -0.0289    6.3704    1.4890 C   0  0  0  0  0  0  0  0  0  0  0  0
    1.0789    6.4104    0.6544 C   0  0  0  0  0  0  0  0  0  0  0  0
    1.3998    5.2920   -0.1165 C   0  0  0  0  0  0  0  0  0  0  0  0
    0.6365    4.1321   -0.0712 C   0  0  0  0  0  0  0  0  0  0  0  0
    1.0078    3.0952   -0.8424 N   0  0  0  0  0  0  0  0  0  0  0  0
    0.1945    2.0275   -0.7052 C   0  0  0  0  0  0  0  0  0  0  0  0
    0.3183    0.8175   -1.3445 N   0  0  0  0  0  0  0  0  0  0  0  0
    1.3621    0.4841   -2.2977 C   0  0  0  0  0  0  0  0  0  0  0  0
    2.5524   -0.1460   -1.6173 C   0  0  0  0  0  0  0  0  0  0  0  0
    2.6353   -1.5367   -1.4650 C   0  0  0  0  0  0  0  0  0  0  0  0
    3.7322   -2.1232   -0.8233 C   0  0  0  0  0  0  0  0  0  0  0  0
    4.7594   -1.3256   -0.3200 C   0  0  0  0  0  0  0  0  0  0  0  0
    5.8814   -1.7686    0.3247 O   0  0  0  0  0  0  0  0  0  0  0  0
    6.0019   -3.1728    0.5115 C   0  0  0  0  0  0  0  0  0  0  0  0
    4.6765    0.0610   -0.4620 C   0  0  0  0  0  0  0  0  0  0  0  0
    3.5830    0.6492   -1.1017 C   0  0  0  0  0  0  0  0  0  0  0  0
   -5.1355   -3.3159    2.7362 H   0  0  0  0  0  0  0  0  0  0  0  0
   -5.3193   -4.4559    1.3864 H   0  0  0  0  0  0  0  0  0  0  0  0
   -4.1800   -4.8062    2.6893 H   0  0  0  0  0  0  0  0  0  0  0  0
   -2.7329   -2.9616    2.0545 H   0  0  0  0  0  0  0  0  0  0  0  0
   -2.9869   -4.0016    0.6617 H   0  0  0  0  0  0  0  0  0  0  0  0
   -4.5435   -1.4281    1.2265 H   0  0  0  0  0  0  0  0  0  0  0  0
   -5.1995   -1.5417   -1.1907 H   0  0  0  0  0  0  0  0  0  0  0  0
   -5.8678   -2.8489   -0.2090 H   0  0  0  0  0  0  0  0  0  0  0  0
   -4.5002   -3.1635   -1.2854 H   0  0  0  0  0  0  0  0  0  0  0  0
   -2.2121   -2.8562   -1.2167 H   0  0  0  0  0  0  0  0  0  0  0  0
   -1.6742    5.1804    2.1995 H   0  0  0  0  0  0  0  0  0  0  0  0
   -0.2925    7.2325    2.0964 H   0  0  0  0  0  0  0  0  0  0  0  0
    1.6942    7.3049    0.6000 H   0  0  0  0  0  0  0  0  0  0  0  0
    2.2687    5.3252   -0.7696 H   0  0  0  0  0  0  0  0  0  0  0  0
    1.6541    1.3982   -2.8280 H   0  0  0  0  0  0  0  0  0  0  0  0
    0.9397   -0.1885   -3.0533 H   0  0  0  0  0  0  0  0  0  0  0  0
    1.8375   -2.1753   -1.8407 H   0  0  0  0  0  0  0  0  0  0  0  0
    3.7489   -3.2037   -0.7311 H   0  0  0  0  0  0  0  0  0  0  0  0
    6.0533   -3.6958   -0.4491 H   0  0  0  0  0  0  0  0  0  0  0  0
    6.9401   -3.3601    1.0425 H   0  0  0  0  0  0  0  0  0  0  0  0
    5.1861   -3.5606    1.1306 H   0  0  0  0  0  0  0  0  0  0  0  0
    5.4690    0.6909   -0.0654 H   0  0  0  0  0  0  0  0  0  0  0  0
    3.5381    1.7336   -1.1867 H   0  0  0  0  0  0  0  0  0  0  0  0
  1  2  1  0
  2  3  1  0
  3  4  1  0
  3  5  1  0
  5  6  1  0
  6  7  2  0
  7  8  1  0
  8  9  2  0
  9 10  1  0
 10 11  2  0
  9 12  1  0
 12 13  2  0
 13 14  1  0
 14 15  2  0
 15 16  1  0
 16 17  2  0
 17 18  1  0
 18 19  2  0
 19 20  1  0
 20 21  2  0
 21 22  1  0
 22 23  1  0
 23 24  1  0
 24 25  2  0
 25 26  1  0
 26 27  2  0
 27 28  1  0
 28 29  1  0
 27 30  1  0
 30 31  2  0
 10  5  1  0
 21 12  1  0
 31 24  1  0
 22  8  1  0
 19 14  1  0
  1 32  1  0
  1 33  1  0
  1 34  1  0
  2 35  1  0
  2 36  1  0
  3 37  1  0
  4 38  1  0
  4 39  1  0
  4 40  1  0
  6 41  1  0
 15 42  1  0
 16 43  1  0
 17 44  1  0
 18 45  1  0
 23 46  1  0
 23 47  1  0
 25 48  1  0
 26 49  1  0
 29 50  1  0
 29 51  1  0
 29 52  1  0
 30 53  1  0
 31 54  1  0
M  END
$$$$
