
     RDKit          3D

 48 50  0  0  0  0  0  0  0  0999 V2000
    4.3692   -3.0117   -2.3665 C   0  0  0  0  0  0  0  0  0  0  0  0
    3.8526   -2.5934   -0.9996 C   0  0  0  0  0  0  0  0  0  0  0  0
    4.7029   -1.4773   -0.4061 C   0  0  0  0  0  0  0  0  0  0  0  0
    4.1306   -0.9229    1.1877 S   0  0  0  0  0  6  0  0  0  0  0  0
    5.0635    0.0691    1.6891 O   0  0  0  0  0  0  0  0  0  0  0  0
    3.7411   -2.0704    1.9853 O   0  0  0  0  0  0  0  0  0  0  0  0
    2.6399   -0.0352    0.8350 C   0  0  0  0  0  0  0  0  0  0  0  0
    2.1244    0.1599   -0.3576 N   0  0  0  0  0  0  0  0  0  0  0  0
    0.9556    0.9168   -0.2242 C   0  0  0  0  0  0  0  0  0  0  0  0
   -0.0110    1.2887   -1.6348 S   0  0  0  0  0  6  0  0  0  0  0  0
    0.8982    1.2072   -2.7621 O   0  0  0  0  0  0  0  0  0  0  0  0
   -0.7268    2.5104   -1.3127 O   0  0  0  0  0  0  0  0  0  0  0  0
   -1.1603   -0.0542   -1.7282 C   0  0  0  0  0  0  0  0  0  0  0  0
   -2.4388    0.0855   -1.1832 C   0  0  0  0  0  0  0  0  0  0  0  0
   -3.3389   -0.9780   -1.2640 C   0  0  0  0  0  0  0  0  0  0  0  0
   -2.9706   -2.1748   -1.8934 C   0  0  0  0  0  0  0  0  0  0  0  0
   -3.9327   -3.3235   -1.9849 C   0  0  0  0  0  0  0  0  0  0  0  0
   -1.6891   -2.2939   -2.4496 C   0  0  0  0  0  0  0  0  0  0  0  0
   -0.7836   -1.2354   -2.3729 C   0  0  0  0  0  0  0  0  0  0  0  0
    0.6016    1.2763    1.0753 C   0  0  0  0  0  0  0  0  0  0  0  0
   -0.4916    1.9839    1.4886 N   0  0  0  0  0  0  0  0  0  0  0  0
   -0.5685    2.6146    2.8041 C   0  0  0  0  0  0  0  0  0  0  0  0
   -1.8553    3.3331    3.0355 C   0  0  0  0  0  0  0  0  0  0  0  0
   -2.7836    3.3166    4.0559 C   0  0  0  0  0  0  0  0  0  0  0  0
   -3.8014    4.2282    3.6843 C   0  0  0  0  0  0  0  0  0  0  0  0
   -3.4314    4.7406    2.4635 C   0  0  0  0  0  0  0  0  0  0  0  0
   -2.2507    4.2048    2.0614 O   0  0  0  0  0  0  0  0  0  0  0  0
    1.7900    0.6254    2.1508 S   0  0  0  0  0  0  0  0  0  0  0  0
    4.3470   -2.1716   -3.0682 H   0  0  0  0  0  0  0  0  0  0  0  0
    3.7479   -3.8136   -2.7775 H   0  0  0  0  0  0  0  0  0  0  0  0
    5.3985   -3.3789   -2.3006 H   0  0  0  0  0  0  0  0  0  0  0  0
    2.8080   -2.2796   -1.0945 H   0  0  0  0  0  0  0  0  0  0  0  0
    3.8588   -3.4633   -0.3329 H   0  0  0  0  0  0  0  0  0  0  0  0
    4.7481   -0.6037   -1.0647 H   0  0  0  0  0  0  0  0  0  0  0  0
    5.7290   -1.8303   -0.2526 H   0  0  0  0  0  0  0  0  0  0  0  0
   -2.7429    1.0078   -0.6923 H   0  0  0  0  0  0  0  0  0  0  0  0
   -4.3320   -0.8656   -0.8330 H   0  0  0  0  0  0  0  0  0  0  0  0
   -4.1432   -3.5557   -3.0339 H   0  0  0  0  0  0  0  0  0  0  0  0
   -3.5106   -4.2076   -1.4967 H   0  0  0  0  0  0  0  0  0  0  0  0
   -4.8831   -3.0916   -1.4933 H   0  0  0  0  0  0  0  0  0  0  0  0
   -1.3933   -3.2148   -2.9492 H   0  0  0  0  0  0  0  0  0  0  0  0
    0.2057   -1.3395   -2.8145 H   0  0  0  0  0  0  0  0  0  0  0  0
   -0.9646    2.5676    0.7854 H   0  0  0  0  0  0  0  0  0  0  0  0
   -0.4551    1.8568    3.5887 H   0  0  0  0  0  0  0  0  0  0  0  0
    0.2494    3.3372    2.9146 H   0  0  0  0  0  0  0  0  0  0  0  0
   -2.7329    2.7185    4.9550 H   0  0  0  0  0  0  0  0  0  0  0  0
   -4.6960    4.4806    4.2359 H   0  0  0  0  0  0  0  0  0  0  0  0
   -3.8742    5.4570    1.7852 H   0  0  0  0  0  0  0  0  0  0  0  0
  1  2  1  0
  2  3  1  0
  3  4  1  0
  4  5  2  0
  4  6  2  0
  4  7  1  0
  7  8  2  0
  8  9  1  0
  9 10  1  0
 10 11  2  0
 10 12  2  0
 10 13  1  0
 13 14  2  0
 14 15  1  0
 15 16  2  0
 16 17  1  0
 16 18  1  0
 18 19  2  0
  9 20  2  0
 20 21  1  0
 21 22  1  0
 22 23  1  0
 23 24  2  0
 24 25  1  0
 25 26  2  0
 26 27  1  0
 20 28  1  0
 28  7  1  0
 19 13  1  0
 27 23  1  0
  1 29  1  0
  1 30  1  0
  1 31  1  0
  2 32  1  0
  2 33  1  0
  3 34  1  0
  3 35  1  0
 14 36  1  0
 15 37  1  0
 17 38  1  0
 17 39  1  0
 17 40  1  0
 18 41  1  0
 19 42  1  0
 21 43  1  0
 22 44  1  0
 22 45  1  0
 24 46  1  0
 25 47  1  0
 26 48  1  0
M  END
$$$$
