
     RDKit          3D

 33 33  0  0  0  0  0  0  0  0999 V2000
    3.2069    3.2361    1.8705 C   0  0  0  0  0  0  0  0  0  0  0  0
    4.2082    2.4577    2.3096 C   0  0  0  0  0  0  0  0  0  0  0  0
    4.2566    0.9601    2.4235 C   0  0  0  0  0  0  0  0  0  0  0  0
    3.1420    0.3417    1.7262 N   0  0  0  0  0  0  0  0  0  0  0  0
    2.7967   -0.9857    1.8105 C   0  0  0  0  0  0  0  0  0  0  0  0
    3.5185   -2.1437    2.7686 S   0  0  0  0  0  0  0  0  0  0  0  0
    1.7258   -1.3375    1.0273 N   0  0  0  0  0  0  0  0  0  0  0  0
    1.0358   -0.4128    0.2298 N   0  0  0  0  0  0  0  0  0  0  0  0
    0.2706   -0.9463   -0.8066 C   0  0  0  0  0  0  0  0  0  0  0  0
    0.3164   -2.1353   -1.1227 O   0  0  0  0  0  0  0  0  0  0  0  0
   -0.6220    0.0909   -1.4917 C   0  0  0  0  0  0  0  0  0  0  0  0
   -1.2906   -0.4211   -2.6425 O   0  0  0  0  0  0  0  0  0  0  0  0
   -2.6143   -0.6587   -2.3942 C   0  0  0  0  0  0  0  0  0  0  0  0
   -2.9884   -1.8797   -1.8302 C   0  0  0  0  0  0  0  0  0  0  0  0
   -4.3371   -2.1494   -1.5939 C   0  0  0  0  0  0  0  0  0  0  0  0
   -5.3059   -1.2011   -1.9371 C   0  0  0  0  0  0  0  0  0  0  0  0
   -6.9671   -1.5211   -1.6084 Cl  0  0  0  0  0  0  0  0  0  0  0  0
   -4.9402    0.0123   -2.5204 C   0  0  0  0  0  0  0  0  0  0  0  0
   -3.5927    0.2790   -2.7627 C   0  0  0  0  0  0  0  0  0  0  0  0
   -3.1612    1.7876   -3.4863 Cl  0  0  0  0  0  0  0  0  0  0  0  0
    2.2636    2.8332    1.5269 H   0  0  0  0  0  0  0  0  0  0  0  0
    3.3136    4.3166    1.8574 H   0  0  0  0  0  0  0  0  0  0  0  0
    5.1135    2.9549    2.6526 H   0  0  0  0  0  0  0  0  0  0  0  0
    4.2328    0.6776    3.4832 H   0  0  0  0  0  0  0  0  0  0  0  0
    5.1864    0.5789    1.9807 H   0  0  0  0  0  0  0  0  0  0  0  0
    2.9096    0.7404    0.8238 H   0  0  0  0  0  0  0  0  0  0  0  0
    1.4764   -2.3227    0.9295 H   0  0  0  0  0  0  0  0  0  0  0  0
    0.7023    0.4139    0.7232 H   0  0  0  0  0  0  0  0  0  0  0  0
    0.0232    0.9101   -1.8339 H   0  0  0  0  0  0  0  0  0  0  0  0
   -1.3185    0.5044   -0.7453 H   0  0  0  0  0  0  0  0  0  0  0  0
   -2.2340   -2.6238   -1.5754 H   0  0  0  0  0  0  0  0  0  0  0  0
   -4.6245   -3.1012   -1.1521 H   0  0  0  0  0  0  0  0  0  0  0  0
   -5.7026    0.7445   -2.7863 H   0  0  0  0  0  0  0  0  0  0  0  0
  1  2  2  0
  2  3  1  0
  3  4  1  0
  4  5  1  0
  5  6  2  0
  5  7  1  0
  7  8  1  0
  8  9  1  0
  9 10  2  0
  9 11  1  0
 11 12  1  0
 12 13  1  0
 13 14  2  0
 14 15  1  0
 15 16  2  0
 16 17  1  0
 16 18  1  0
 18 19  2  0
 19 20  1  0
 19 13  1  0
  1 21  1  0
  1 22  1  0
  2 23  1  0
  3 24  1  0
  3 25  1  0
  4 26  1  0
  7 27  1  0
  8 28  1  0
 11 29  1  0
 11 30  1  0
 14 31  1  0
 15 32  1  0
 18 33  1  0
M  END
$$$$
