
     RDKit          3D

 40 43  0  0  0  0  0  0  0  0999 V2000
    2.0444   -0.9935   -3.1482 O   0  0  0  0  0  0  0  0  0  0  0  0
    1.8029   -1.1372   -1.7256 S   0  0  0  0  0  6  0  0  0  0  0  0
    1.2927   -2.3835   -1.2021 O   0  0  0  0  0  0  0  0  0  0  0  0
    3.3070   -0.7368   -0.9211 C   0  0  0  0  0  0  0  0  0  0  0  0
    4.3360   -0.0547   -1.6135 C   0  0  0  0  0  0  0  0  0  0  0  0
    5.5891    0.2554   -1.0260 C   0  0  0  0  0  0  0  0  0  0  0  0
    5.9198   -0.0958    0.2944 C   0  0  0  0  0  0  0  0  0  0  0  0
    4.9095   -0.7825    0.9943 C   0  0  0  0  0  0  0  0  0  0  0  0
    4.9241   -1.2379    2.2515 N   0  0  0  0  0  0  0  0  0  0  0  0
    3.6947   -1.8370    2.4501 O   0  0  0  0  0  0  0  0  0  0  0  0
    2.8917   -1.7412    1.3303 N   0  0  0  0  0  0  0  0  0  0  0  0
    3.6149   -1.1063    0.3981 C   0  0  0  0  0  0  0  0  0  0  0  0
    0.7396    0.1197   -1.2711 N   0  0  0  0  0  0  0  0  0  0  0  0
    0.4241    0.1964    0.1972 C   0  0  0  0  0  0  0  0  0  0  0  0
   -0.8255    1.0495    0.4940 C   0  0  0  0  0  0  0  0  0  0  0  0
   -2.0161    0.5237   -0.1946 N   0  0  0  0  0  0  0  0  0  0  0  0
   -3.2650    0.5496    0.4175 C   0  0  0  0  0  0  0  0  0  0  0  0
   -3.5925    1.5662    1.3347 C   0  0  0  0  0  0  0  0  0  0  0  0
   -4.8443    1.6321    1.9628 C   0  0  0  0  0  0  0  0  0  0  0  0
   -5.8168    0.6784    1.6871 C   0  0  0  0  0  0  0  0  0  0  0  0
   -5.5350   -0.3354    0.7802 C   0  0  0  0  0  0  0  0  0  0  0  0
   -4.2844   -0.3909    0.1588 C   0  0  0  0  0  0  0  0  0  0  0  0
   -4.0781   -1.4105   -0.6912 F   0  0  0  0  0  0  0  0  0  0  0  0
   -1.7643   -0.3087   -1.3830 C   0  0  0  0  0  0  0  0  0  0  0  0
   -0.5049    0.1769   -2.1228 C   0  0  0  0  0  0  0  0  0  0  0  0
    4.1692    0.2486   -2.6496 H   0  0  0  0  0  0  0  0  0  0  0  0
    6.3296    0.7845   -1.6279 H   0  0  0  0  0  0  0  0  0  0  0  0
    6.8775    0.1396    0.7415 H   0  0  0  0  0  0  0  0  0  0  0  0
    1.2769    0.6509    0.7113 H   0  0  0  0  0  0  0  0  0  0  0  0
    0.2628   -0.8097    0.6002 H   0  0  0  0  0  0  0  0  0  0  0  0
   -0.6567    2.0827    0.1679 H   0  0  0  0  0  0  0  0  0  0  0  0
   -0.9620    1.0555    1.5820 H   0  0  0  0  0  0  0  0  0  0  0  0
   -2.8778    2.3538    1.5595 H   0  0  0  0  0  0  0  0  0  0  0  0
   -5.0554    2.4377    2.6620 H   0  0  0  0  0  0  0  0  0  0  0  0
   -6.7878    0.7266    2.1721 H   0  0  0  0  0  0  0  0  0  0  0  0
   -6.2767   -1.0930    0.5475 H   0  0  0  0  0  0  0  0  0  0  0  0
   -2.6029   -0.2350   -2.0854 H   0  0  0  0  0  0  0  0  0  0  0  0
   -1.6432   -1.3574   -1.0865 H   0  0  0  0  0  0  0  0  0  0  0  0
   -0.6308    1.2225   -2.4315 H   0  0  0  0  0  0  0  0  0  0  0  0
   -0.3865   -0.4035   -3.0434 H   0  0  0  0  0  0  0  0  0  0  0  0
  1  2  2  0
  2  3  2  0
  2  4  1  0
  4  5  2  0
  5  6  1  0
  6  7  2  0
  7  8  1  0
  8  9  2  0
  9 10  1  0
 10 11  1  0
 11 12  2  0
  2 13  1  0
 13 14  1  0
 14 15  1  0
 15 16  1  0
 16 17  1  0
 17 18  2  0
 18 19  1  0
 19 20  2  0
 20 21  1  0
 21 22  2  0
 22 23  1  0
 16 24  1  0
 24 25  1  0
 12  4  1  0
 25 13  1  0
 12  8  1  0
 22 17  1  0
  5 26  1  0
  6 27  1  0
  7 28  1  0
 14 29  1  0
 14 30  1  0
 15 31  1  0
 15 32  1  0
 18 33  1  0
 19 34  1  0
 20 35  1  0
 21 36  1  0
 24 37  1  0
 24 38  1  0
 25 39  1  0
 25 40  1  0
M  END
$$$$
