
     RDKit          3D

 60 64  0  0  0  0  0  0  0  0999 V2000
    3.2810    2.4568    0.6785 O   0  0  0  0  0  0  0  0  0  0  0  0
    2.9075    1.4250    0.1346 C   0  0  0  0  0  0  0  0  0  0  0  0
    3.7063    0.3895   -0.3152 N   0  0  0  0  0  0  0  0  0  0  0  0
    5.1019    0.2534   -0.1473 C   0  0  0  0  0  0  0  0  0  0  0  0
    5.8995    1.1685    0.5445 C   0  0  0  0  0  0  0  0  0  0  0  0
    7.2780    0.9558    0.6781 C   0  0  0  0  0  0  0  0  0  0  0  0
    7.8713   -0.1808    0.1209 C   0  0  0  0  0  0  0  0  0  0  0  0
    9.3298   -0.4201    0.2536 C   0  0  0  0  0  0  0  0  0  0  0  0
    9.8582   -1.5886   -0.0159 N   0  0  0  0  0  0  0  0  0  0  0  0
   11.3127   -1.4127    0.2467 C   0  0  0  0  0  0  0  0  0  0  0  0
   11.5473    0.0934    0.3639 C   0  0  0  0  0  0  0  0  0  0  0  0
   10.2086    0.5666    0.6372 N   0  0  0  0  0  0  0  0  0  0  0  0
    7.0773   -1.1079   -0.5577 C   0  0  0  0  0  0  0  0  0  0  0  0
    5.7029   -0.8890   -0.6952 C   0  0  0  0  0  0  0  0  0  0  0  0
    1.4405    1.2547   -0.0919 C   0  0  0  0  0  0  0  0  0  0  0  0
    0.6493    2.4051   -0.2279 C   0  0  0  0  0  0  0  0  0  0  0  0
   -0.7343    2.3036   -0.4238 C   0  0  0  0  0  0  0  0  0  0  0  0
   -1.3641    1.0508   -0.4654 C   0  0  0  0  0  0  0  0  0  0  0  0
   -2.8267    1.0497   -0.7387 C   0  0  0  0  0  0  0  0  0  0  0  0
   -3.2157    1.8022   -1.6228 O   0  0  0  0  0  0  0  0  0  0  0  0
   -3.6050    0.2291    0.0500 N   0  0  0  0  0  0  0  0  0  0  0  0
   -5.0083    0.0745   -0.0010 C   0  0  0  0  0  0  0  0  0  0  0  0
   -5.5733   -0.8899    0.8449 C   0  0  0  0  0  0  0  0  0  0  0  0
   -6.9552   -1.1092    0.8568 C   0  0  0  0  0  0  0  0  0  0  0  0
   -7.7920   -0.3635    0.0232 C   0  0  0  0  0  0  0  0  0  0  0  0
   -9.2575   -0.6071    0.0418 C   0  0  0  0  0  0  0  0  0  0  0  0
   -9.8098   -1.3780    0.9444 N   0  0  0  0  0  0  0  0  0  0  0  0
  -11.2631   -1.3530    0.6270 C   0  0  0  0  0  0  0  0  0  0  0  0
  -11.3939   -0.7152   -0.7541 C   0  0  0  0  0  0  0  0  0  0  0  0
  -10.1102   -0.0662   -0.8960 N   0  0  0  0  0  0  0  0  0  0  0  0
   -7.2362    0.6094   -0.8118 C   0  0  0  0  0  0  0  0  0  0  0  0
   -5.8509    0.8225   -0.8254 C   0  0  0  0  0  0  0  0  0  0  0  0
   -0.5615   -0.0839   -0.3236 C   0  0  0  0  0  0  0  0  0  0  0  0
   -1.1271   -1.4078   -0.3904 N   0  0  0  0  0  4  0  0  0  0  0  0
   -0.8288   -2.0959   -1.3684 O   0  0  0  0  0  0  0  0  0  0  0  0
   -1.8277   -1.7577    0.5677 O   0  0  0  0  0  1  0  0  0  0  0  0
    0.8289   -0.0021   -0.1282 C   0  0  0  0  0  0  0  0  0  0  0  0
    3.2733   -0.3383   -0.8685 H   0  0  0  0  0  0  0  0  0  0  0  0
    5.4822    2.0618    0.9998 H   0  0  0  0  0  0  0  0  0  0  0  0
    7.8666    1.6787    1.2368 H   0  0  0  0  0  0  0  0  0  0  0  0
   11.5695   -1.9276    1.1788 H   0  0  0  0  0  0  0  0  0  0  0  0
   11.9049   -1.8456   -0.5643 H   0  0  0  0  0  0  0  0  0  0  0  0
   12.2496    0.3485    1.1630 H   0  0  0  0  0  0  0  0  0  0  0  0
   11.9099    0.5077   -0.5840 H   0  0  0  0  0  0  0  0  0  0  0  0
    9.9972    1.5071    0.3242 H   0  0  0  0  0  0  0  0  0  0  0  0
    7.5260   -2.0029   -0.9844 H   0  0  0  0  0  0  0  0  0  0  0  0
    5.1173   -1.6309   -1.2317 H   0  0  0  0  0  0  0  0  0  0  0  0
    1.1098    3.3930   -0.1888 H   0  0  0  0  0  0  0  0  0  0  0  0
   -1.3195    3.2153   -0.5511 H   0  0  0  0  0  0  0  0  0  0  0  0
   -3.1455   -0.3640    0.7365 H   0  0  0  0  0  0  0  0  0  0  0  0
   -4.9500   -1.4918    1.5022 H   0  0  0  0  0  0  0  0  0  0  0  0
   -7.3738   -1.8653    1.5184 H   0  0  0  0  0  0  0  0  0  0  0  0
  -11.7862   -0.7650    1.3898 H   0  0  0  0  0  0  0  0  0  0  0  0
  -11.6725   -2.3664    0.6332 H   0  0  0  0  0  0  0  0  0  0  0  0
  -12.2237   -0.0069   -0.8104 H   0  0  0  0  0  0  0  0  0  0  0  0
  -11.5180   -1.4801   -1.5254 H   0  0  0  0  0  0  0  0  0  0  0  0
   -9.7511   -0.0183   -1.8418 H   0  0  0  0  0  0  0  0  0  0  0  0
   -7.8642    1.2284   -1.4459 H   0  0  0  0  0  0  0  0  0  0  0  0
   -5.4662    1.5936   -1.4857 H   0  0  0  0  0  0  0  0  0  0  0  0
    1.4045   -0.9132    0.0153 H   0  0  0  0  0  0  0  0  0  0  0  0
  1  2  2  0
  2  3  1  0
  3  4  1  0
  4  5  2  0
  5  6  1  0
  6  7  2  0
  7  8  1  0
  8  9  2  0
  9 10  1  0
 10 11  1  0
 11 12  1  0
  7 13  1  0
 13 14  2  0
  2 15  1  0
 15 16  2  0
 16 17  1  0
 17 18  2  0
 18 19  1  0
 19 20  2  0
 19 21  1  0
 21 22  1  0
 22 23  2  0
 23 24  1  0
 24 25  2  0
 25 26  1  0
 26 27  2  0
 27 28  1  0
 28 29  1  0
 29 30  1  0
 25 31  1  0
 31 32  2  0
 18 33  1  0
 33 34  1  0
 34 35  2  0
 34 36  1  0
 33 37  2  0
 14  4  1  0
 37 15  1  0
 12  8  1  0
 32 22  1  0
 30 26  1  0
  3 38  1  0
  5 39  1  0
  6 40  1  0
 10 41  1  0
 10 42  1  0
 11 43  1  0
 11 44  1  0
 12 45  1  0
 13 46  1  0
 14 47  1  0
 16 48  1  0
 17 49  1  0
 21 50  1  0
 23 51  1  0
 24 52  1  0
 28 53  1  0
 28 54  1  0
 29 55  1  0
 29 56  1  0
 30 57  1  0
 31 58  1  0
 32 59  1  0
 37 60  1  0
M  CHG  2  34   1  36  -1
M  END
$$$$
