
     RDKit          3D

 61 65  0  0  0  0  0  0  0  0999 V2000
   -4.7746   -3.0598    0.3993 C   0  0  0  0  0  0  0  0  0  0  0  0
   -4.4026   -1.6896    0.3512 O   0  0  0  0  0  0  0  0  0  0  0  0
   -3.9016   -1.2075   -0.8323 C   0  0  0  0  0  0  0  0  0  0  0  0
   -3.6952   -1.9841   -1.9787 C   0  0  0  0  0  0  0  0  0  0  0  0
   -3.1703   -1.4107   -3.1405 C   0  0  0  0  0  0  0  0  0  0  0  0
   -2.8448   -0.0583   -3.1700 C   0  0  0  0  0  0  0  0  0  0  0  0
   -3.0437    0.7260   -2.0355 C   0  0  0  0  0  0  0  0  0  0  0  0
   -3.5734    0.1635   -0.8627 C   0  0  0  0  0  0  0  0  0  0  0  0
   -3.7550    1.0273    0.3112 C   0  0  0  0  0  0  0  0  0  0  0  0
   -5.2705    1.7868    0.5315 S   0  0  0  0  0  0  0  0  0  0  0  0
   -4.7601    2.5850    1.9654 C   0  0  0  0  0  0  0  0  0  0  0  0
   -5.5283    3.4530    2.7674 C   0  0  0  0  0  0  0  0  0  0  0  0
   -4.9491    4.0157    3.9065 C   0  0  0  0  0  0  0  0  0  0  0  0
   -3.6364    3.7238    4.2458 C   0  0  0  0  0  0  0  0  0  0  0  0
   -2.8786    2.8625    3.4469 C   0  0  0  0  0  0  0  0  0  0  0  0
   -3.4349    2.2759    2.2799 C   0  0  0  0  0  0  0  0  0  0  0  0
   -2.8595    1.3704    1.3103 C   0  0  0  0  0  0  0  0  0  0  0  0
   -1.4948    0.8576    1.3260 C   0  0  0  0  0  0  0  0  0  0  0  0
   -0.4267    1.7003    1.0027 C   0  0  0  0  0  0  0  0  0  0  0  0
    0.8886    1.2207    1.0312 C   0  0  0  0  0  0  0  0  0  0  0  0
    1.1453   -0.1039    1.3849 C   0  0  0  0  0  0  0  0  0  0  0  0
    2.3691   -0.7050    1.4606 O   0  0  0  0  0  0  0  0  0  0  0  0
    3.5386    0.0428    1.1235 C   0  0  0  0  0  0  0  0  0  0  0  0
    3.8169    0.0623   -0.3947 C   0  0  0  0  0  0  0  0  0  0  0  0
    3.9834   -1.2620   -1.0268 N   0  0  0  0  0  0  0  0  0  0  0  0
    3.9713   -1.1741   -2.4946 C   0  0  0  0  0  0  0  0  0  0  0  0
    5.2544   -0.5865   -3.0887 C   0  0  0  0  0  0  0  0  0  0  0  0
    6.4881   -1.3383   -2.5974 C   0  0  0  0  0  0  0  0  0  0  0  0
    6.4887   -1.4575   -1.0770 C   0  0  0  0  0  0  0  0  0  0  0  0
    5.1577   -2.0135   -0.5646 C   0  0  0  0  0  0  0  0  0  0  0  0
    0.0738   -0.9418    1.7089 C   0  0  0  0  0  0  0  0  0  0  0  0
   -1.2398   -0.4677    1.6835 C   0  0  0  0  0  0  0  0  0  0  0  0
   -3.9063   -3.7094    0.2465 H   0  0  0  0  0  0  0  0  0  0  0  0
   -5.5685   -3.2803   -0.3224 H   0  0  0  0  0  0  0  0  0  0  0  0
   -5.1696   -3.2642    1.3993 H   0  0  0  0  0  0  0  0  0  0  0  0
   -3.9281   -3.0428   -2.0011 H   0  0  0  0  0  0  0  0  0  0  0  0
   -3.0124   -2.0255   -4.0233 H   0  0  0  0  0  0  0  0  0  0  0  0
   -2.4340    0.3853   -4.0725 H   0  0  0  0  0  0  0  0  0  0  0  0
   -2.7836    1.7816   -2.0638 H   0  0  0  0  0  0  0  0  0  0  0  0
   -6.5577    3.6801    2.5049 H   0  0  0  0  0  0  0  0  0  0  0  0
   -5.5348    4.6848    4.5323 H   0  0  0  0  0  0  0  0  0  0  0  0
   -3.1933    4.1617    5.1368 H   0  0  0  0  0  0  0  0  0  0  0  0
   -1.8523    2.6368    3.7278 H   0  0  0  0  0  0  0  0  0  0  0  0
   -0.6119    2.7351    0.7239 H   0  0  0  0  0  0  0  0  0  0  0  0
    1.6812    1.9112    0.7681 H   0  0  0  0  0  0  0  0  0  0  0  0
    3.4954    1.0607    1.5288 H   0  0  0  0  0  0  0  0  0  0  0  0
    4.3751   -0.4274    1.6511 H   0  0  0  0  0  0  0  0  0  0  0  0
    2.9643    0.5567   -0.8753 H   0  0  0  0  0  0  0  0  0  0  0  0
    4.6905    0.6989   -0.5757 H   0  0  0  0  0  0  0  0  0  0  0  0
    3.1048   -0.5942   -2.8369 H   0  0  0  0  0  0  0  0  0  0  0  0
    3.8215   -2.1838   -2.9001 H   0  0  0  0  0  0  0  0  0  0  0  0
    5.3407    0.4746   -2.8256 H   0  0  0  0  0  0  0  0  0  0  0  0
    5.2077   -0.6361   -4.1825 H   0  0  0  0  0  0  0  0  0  0  0  0
    7.3980   -0.8299   -2.9353 H   0  0  0  0  0  0  0  0  0  0  0  0
    6.4998   -2.3425   -3.0392 H   0  0  0  0  0  0  0  0  0  0  0  0
    6.6868   -0.4770   -0.6290 H   0  0  0  0  0  0  0  0  0  0  0  0
    7.3065   -2.1171   -0.7635 H   0  0  0  0  0  0  0  0  0  0  0  0
    5.1813   -2.0853    0.5274 H   0  0  0  0  0  0  0  0  0  0  0  0
    5.0549   -3.0514   -0.9099 H   0  0  0  0  0  0  0  0  0  0  0  0
    0.2652   -1.9767    1.9820 H   0  0  0  0  0  0  0  0  0  0  0  0
   -2.0571   -1.1370    1.9410 H   0  0  0  0  0  0  0  0  0  0  0  0
  1  2  1  0
  2  3  1  0
  3  4  2  0
  4  5  1  0
  5  6  2  0
  6  7  1  0
  7  8  2  0
  8  9  1  0
  9 10  1  0
 10 11  1  0
 11 12  2  0
 12 13  1  0
 13 14  2  0
 14 15  1  0
 15 16  2  0
 16 17  1  0
 17 18  1  0
 18 19  2  0
 19 20  1  0
 20 21  2  0
 21 22  1  0
 22 23  1  0
 23 24  1  0
 24 25  1  0
 25 26  1  0
 26 27  1  0
 27 28  1  0
 28 29  1  0
 29 30  1  0
 21 31  1  0
 31 32  2  0
  8  3  1  0
 17  9  2  0
 32 18  1  0
 16 11  1  0
 30 25  1  0
  1 33  1  0
  1 34  1  0
  1 35  1  0
  4 36  1  0
  5 37  1  0
  6 38  1  0
  7 39  1  0
 12 40  1  0
 13 41  1  0
 14 42  1  0
 15 43  1  0
 19 44  1  0
 20 45  1  0
 23 46  1  0
 23 47  1  0
 24 48  1  0
 24 49  1  0
 26 50  1  0
 26 51  1  0
 27 52  1  0
 27 53  1  0
 28 54  1  0
 28 55  1  0
 29 56  1  0
 29 57  1  0
 30 58  1  0
 30 59  1  0
 31 60  1  0
 32 61  1  0
M  END
$$$$
