
     RDKit          3D

 52 57  0  0  0  0  0  0  0  0999 V2000
    0.3558    3.2223    1.8474 C   0  0  0  0  0  0  0  0  0  0  0  0
    0.8781    1.9784    1.2312 C   0  0  0  0  0  0  0  0  0  0  0  0
    2.1916    1.8391    1.0285 N   0  0  0  0  0  0  0  0  0  0  0  0
    2.3502    0.6057    0.4533 N   0  0  0  0  0  0  0  0  0  0  0  0
    3.6611    0.1580    0.0959 C   0  0  0  0  0  0  0  0  0  0  0  0
    4.7617    0.9980    0.3523 C   0  0  0  0  0  0  0  0  0  0  0  0
    6.0605    0.6000    0.0181 C   0  0  0  0  0  0  0  0  0  0  0  0
    6.2660   -0.6480   -0.5788 C   0  0  0  0  0  0  0  0  0  0  0  0
    7.6262   -1.0721   -0.9320 N   0  0  0  0  0  4  0  0  0  0  0  0
    7.7660   -2.1835   -1.4623 O   0  0  0  0  0  0  0  0  0  0  0  0
    8.5573   -0.2935   -0.6794 O   0  0  0  0  0  1  0  0  0  0  0  0
    5.1828   -1.4942   -0.8415 C   0  0  0  0  0  0  0  0  0  0  0  0
    3.8845   -1.0895   -0.5044 C   0  0  0  0  0  0  0  0  0  0  0  0
    1.1193   -0.0308    0.3213 C   0  0  0  0  0  0  0  0  0  0  0  0
    0.1703    0.8475    0.7906 C   0  0  0  0  0  0  0  0  0  0  0  0
   -1.2632    0.4485    0.7814 C   0  0  0  0  0  0  0  0  0  0  0  0
   -1.9187    1.4015   -0.2192 C   0  0  0  0  0  0  0  0  0  0  0  0
   -1.7267    1.2715   -1.6083 C   0  0  0  0  0  0  0  0  0  0  0  0
   -2.3338    2.1558   -2.5028 C   0  0  0  0  0  0  0  0  0  0  0  0
   -3.1427    3.1858   -2.0278 C   0  0  0  0  0  0  0  0  0  0  0  0
   -3.3399    3.3281   -0.6575 C   0  0  0  0  0  0  0  0  0  0  0  0
   -4.4338    4.7256   -0.0062 Br  0  0  0  0  0  0  0  0  0  0  0  0
   -2.7368    2.4493    0.2437 C   0  0  0  0  0  0  0  0  0  0  0  0
   -1.4635   -0.9676    0.4027 N   0  0  0  0  0  0  0  0  0  0  0  0
   -0.3593   -1.6844   -0.0974 C   0  0  0  0  0  0  0  0  0  0  0  0
    0.8836   -1.2750   -0.1648 N   0  0  0  0  0  0  0  0  0  0  0  0
   -0.5853   -3.1171   -0.6379 C   0  0  0  0  0  0  0  0  0  0  0  0
    0.3095   -3.7601   -1.1689 O   0  0  0  0  0  0  0  0  0  0  0  0
   -1.8488   -3.6211   -0.4837 N   0  0  0  0  0  0  0  0  0  0  0  0
   -2.9040   -2.9151    0.0998 C   0  0  0  0  0  0  0  0  0  0  0  0
   -4.1355   -3.5714    0.2143 C   0  0  0  0  0  0  0  0  0  0  0  0
   -5.2197   -2.9193    0.7901 C   0  0  0  0  0  0  0  0  0  0  0  0
   -5.0690   -1.6175    1.2505 C   0  0  0  0  0  0  0  0  0  0  0  0
   -3.8357   -0.9640    1.1325 C   0  0  0  0  0  0  0  0  0  0  0  0
   -2.7208   -1.5889    0.5482 C   0  0  0  0  0  0  0  0  0  0  0  0
    0.0130    3.9148    1.0724 H   0  0  0  0  0  0  0  0  0  0  0  0
    1.1263    3.7273    2.4395 H   0  0  0  0  0  0  0  0  0  0  0  0
   -0.4838    3.0034    2.5145 H   0  0  0  0  0  0  0  0  0  0  0  0
    4.6229    1.9742    0.8160 H   0  0  0  0  0  0  0  0  0  0  0  0
    6.8896    1.2720    0.2296 H   0  0  0  0  0  0  0  0  0  0  0  0
    5.3242   -2.4684   -1.3063 H   0  0  0  0  0  0  0  0  0  0  0  0
    3.0753   -1.7788   -0.7297 H   0  0  0  0  0  0  0  0  0  0  0  0
   -1.6531    0.6141    1.7941 H   0  0  0  0  0  0  0  0  0  0  0  0
   -1.0932    0.4801   -2.0068 H   0  0  0  0  0  0  0  0  0  0  0  0
   -2.1713    2.0409   -3.5722 H   0  0  0  0  0  0  0  0  0  0  0  0
   -3.6095    3.8697   -2.7318 H   0  0  0  0  0  0  0  0  0  0  0  0
   -2.9038    2.5825    1.3103 H   0  0  0  0  0  0  0  0  0  0  0  0
   -1.9837   -4.5638   -0.8225 H   0  0  0  0  0  0  0  0  0  0  0  0
   -4.2599   -4.5912   -0.1407 H   0  0  0  0  0  0  0  0  0  0  0  0
   -6.1778   -3.4248    0.8811 H   0  0  0  0  0  0  0  0  0  0  0  0
   -5.9132   -1.1025    1.7043 H   0  0  0  0  0  0  0  0  0  0  0  0
   -3.7893    0.0482    1.5188 H   0  0  0  0  0  0  0  0  0  0  0  0
  1  2  1  0
  2  3  2  0
  3  4  1  0
  4  5  1  0
  5  6  2  0
  6  7  1  0
  7  8  2  0
  8  9  1  0
  9 10  2  0
  9 11  1  0
  8 12  1  0
 12 13  2  0
  4 14  1  0
 14 15  2  0
 15 16  1  0
 16 17  1  0
 17 18  2  0
 18 19  1  0
 19 20  2  0
 20 21  1  0
 21 22  1  0
 21 23  2  0
 16 24  1  0
 24 25  1  0
 25 26  2  0
 25 27  1  0
 27 28  2  0
 27 29  1  0
 29 30  1  0
 30 31  2  0
 31 32  1  0
 32 33  2  0
 33 34  1  0
 34 35  2  0
 15  2  1  0
 23 17  1  0
 35 24  1  0
 13  5  1  0
 26 14  1  0
 35 30  1  0
  1 36  1  0
  1 37  1  0
  1 38  1  0
  6 39  1  0
  7 40  1  0
 12 41  1  0
 13 42  1  0
 16 43  1  0
 18 44  1  0
 19 45  1  0
 20 46  1  0
 23 47  1  0
 29 48  1  0
 31 49  1  0
 32 50  1  0
 33 51  1  0
 34 52  1  0
M  CHG  2   9   1  11  -1
M  END
$$$$
