
     RDKit          3D

 55 58  0  0  0  0  0  0  0  0999 V2000
   -3.0525    2.1233   -2.0793 C   0  0  0  0  0  0  0  0  0  0  0  0
   -3.7215    0.7993   -2.4203 C   0  0  0  0  0  0  0  0  0  0  0  0
   -4.5290    0.3139   -1.2957 N   0  0  0  0  0  0  0  0  0  0  0  0
   -5.8779    0.5901   -1.1494 C   0  0  0  0  0  0  0  0  0  0  0  0
   -6.6553    0.1976   -0.1268 C   0  0  0  0  0  0  0  0  0  0  0  0
   -8.0762    0.5673   -0.1691 C   0  0  0  0  0  0  0  0  0  0  0  0
   -8.5543    1.4691   -0.8384 O   0  0  0  0  0  0  0  0  0  0  0  0
   -8.8621   -0.2260    0.5711 O   0  0  0  0  0  0  0  0  0  0  0  0
   -5.9952   -0.5713    0.9576 C   0  0  0  0  0  0  0  0  0  0  0  0
   -6.5692   -0.9287    1.9797 O   0  0  0  0  0  0  0  0  0  0  0  0
   -4.5648   -0.8766    0.7951 C   0  0  0  0  0  0  0  0  0  0  0  0
   -3.8681   -1.5962    1.7311 C   0  0  0  0  0  0  0  0  0  0  0  0
   -2.5550   -1.8753    1.6139 N   0  0  0  0  0  0  0  0  0  0  0  0
   -1.9128   -1.4149    0.5284 C   0  0  0  0  0  0  0  0  0  0  0  0
   -0.5747   -1.7034    0.3775 N   0  0  0  0  0  0  0  0  0  0  0  0
    0.1231   -2.3405    1.4950 C   0  0  0  0  0  0  0  0  0  0  0  0
    1.5322   -2.7800    1.0605 C   0  0  0  0  0  0  0  0  0  0  0  0
    2.3622   -1.6757    0.5314 N   0  0  0  0  0  0  0  0  0  0  0  0
    3.6995   -1.8492    0.2567 C   0  0  0  0  0  0  0  0  0  0  0  0
    4.4592   -3.3442    0.0901 S   0  0  0  0  0  0  0  0  0  0  0  0
    4.5331   -0.7686    0.0786 N   0  0  0  0  0  0  0  0  0  0  0  0
    4.5159    0.5317    0.5874 C   0  0  0  0  0  0  0  0  0  0  0  0
    3.5572    1.1301    1.0560 O   0  0  0  0  0  0  0  0  0  0  0  0
    5.8086    1.2617    0.4652 C   0  0  0  0  0  0  0  0  0  0  0  0
    7.0361    0.6345    0.7182 C   0  0  0  0  0  0  0  0  0  0  0  0
    8.2246    1.3569    0.5907 C   0  0  0  0  0  0  0  0  0  0  0  0
    8.1901    2.7022    0.2225 C   0  0  0  0  0  0  0  0  0  0  0  0
    6.9686    3.3342   -0.0092 C   0  0  0  0  0  0  0  0  0  0  0  0
    5.7778    2.6177    0.1174 C   0  0  0  0  0  0  0  0  0  0  0  0
    1.5877   -0.5202    0.0381 C   0  0  0  0  0  0  0  0  0  0  0  0
    0.2221   -0.9126   -0.5647 C   0  0  0  0  0  0  0  0  0  0  0  0
   -2.5351   -0.7057   -0.4300 N   0  0  0  0  0  0  0  0  0  0  0  0
   -3.8517   -0.4341   -0.3026 C   0  0  0  0  0  0  0  0  0  0  0  0
   -2.3654    2.0206   -1.2334 H   0  0  0  0  0  0  0  0  0  0  0  0
   -3.7958    2.8831   -1.8157 H   0  0  0  0  0  0  0  0  0  0  0  0
   -2.4806    2.4900   -2.9374 H   0  0  0  0  0  0  0  0  0  0  0  0
   -4.3655    0.9479   -3.2967 H   0  0  0  0  0  0  0  0  0  0  0  0
   -2.9728    0.0617   -2.7346 H   0  0  0  0  0  0  0  0  0  0  0  0
   -6.2909    1.1704   -1.9734 H   0  0  0  0  0  0  0  0  0  0  0  0
   -9.7658    0.1328    0.4620 H   0  0  0  0  0  0  0  0  0  0  0  0
   -4.3465   -1.9819    2.6272 H   0  0  0  0  0  0  0  0  0  0  0  0
   -0.4167   -3.2316    1.8378 H   0  0  0  0  0  0  0  0  0  0  0  0
    0.1987   -1.6400    2.3364 H   0  0  0  0  0  0  0  0  0  0  0  0
    1.4428   -3.5327    0.2669 H   0  0  0  0  0  0  0  0  0  0  0  0
    2.0550   -3.2380    1.9076 H   0  0  0  0  0  0  0  0  0  0  0  0
    5.4390   -1.0870   -0.2380 H   0  0  0  0  0  0  0  0  0  0  0  0
    7.0867   -0.4006    1.0455 H   0  0  0  0  0  0  0  0  0  0  0  0
    9.1791    0.8751    0.7906 H   0  0  0  0  0  0  0  0  0  0  0  0
    9.1171    3.2635    0.1286 H   0  0  0  0  0  0  0  0  0  0  0  0
    6.9430    4.3864   -0.2822 H   0  0  0  0  0  0  0  0  0  0  0  0
    4.8267    3.1177   -0.0549 H   0  0  0  0  0  0  0  0  0  0  0  0
    1.4067    0.1326    0.8989 H   0  0  0  0  0  0  0  0  0  0  0  0
    2.1583    0.0239   -0.7205 H   0  0  0  0  0  0  0  0  0  0  0  0
   -0.2781    0.0137   -0.8709 H   0  0  0  0  0  0  0  0  0  0  0  0
    0.3821   -1.5140   -1.4677 H   0  0  0  0  0  0  0  0  0  0  0  0
  1  2  1  0
  2  3  1  0
  3  4  1  0
  4  5  2  0
  5  6  1  0
  6  7  2  0
  6  8  1  0
  5  9  1  0
  9 10  2  0
  9 11  1  0
 11 12  2  0
 12 13  1  0
 13 14  2  0
 14 15  1  0
 15 16  1  0
 16 17  1  0
 17 18  1  0
 18 19  1  0
 19 20  2  0
 19 21  1  0
 21 22  1  0
 22 23  2  0
 22 24  1  0
 24 25  2  0
 25 26  1  0
 26 27  2  0
 27 28  1  0
 28 29  2  0
 18 30  1  0
 30 31  1  0
 14 32  1  0
 32 33  2  0
 33  3  1  0
 33 11  1  0
 31 15  1  0
 29 24  1  0
  1 34  1  0
  1 35  1  0
  1 36  1  0
  2 37  1  0
  2 38  1  0
  4 39  1  0
  8 40  1  0
 12 41  1  0
 16 42  1  0
 16 43  1  0
 17 44  1  0
 17 45  1  0
 21 46  1  0
 25 47  1  0
 26 48  1  0
 27 49  1  0
 28 50  1  0
 29 51  1  0
 30 52  1  0
 30 53  1  0
 31 54  1  0
 31 55  1  0
M  END
$$$$
