
     RDKit          3D

 45 47  0  0  0  0  0  0  0  0999 V2000
   -2.8122    2.7747   -0.1982 O   0  0  0  0  0  0  0  0  0  0  0  0
   -2.1872    1.7441   -0.4336 C   0  0  0  0  0  0  0  0  0  0  0  0
   -1.3057    1.5954   -1.6721 C   0  0  0  0  0  0  0  0  0  0  0  0
   -0.9595    0.2268   -1.9143 O   0  0  0  0  0  0  0  0  0  0  0  0
   -0.1510    0.0584   -3.0019 C   0  0  0  0  0  0  0  0  0  0  0  0
    0.2054    0.9654   -3.7423 O   0  0  0  0  0  0  0  0  0  0  0  0
    0.2055   -1.4036   -3.1621 C   0  0  0  0  0  0  0  0  0  0  0  0
    1.9663   -1.6301   -3.5729 S   0  0  0  0  0  0  0  0  0  0  0  0
    2.6841   -1.1172   -2.0230 C   0  0  0  0  0  0  0  0  0  0  0  0
    2.9748   -2.0667   -1.0427 C   0  0  0  0  0  0  0  0  0  0  0  0
    3.5073   -1.6665    0.1854 C   0  0  0  0  0  0  0  0  0  0  0  0
    3.7571   -0.3117    0.4507 C   0  0  0  0  0  0  0  0  0  0  0  0
    4.2818    0.1081    1.6834 C   0  0  0  0  0  0  0  0  0  0  0  0
    4.5184    1.4608    1.9330 C   0  0  0  0  0  0  0  0  0  0  0  0
    4.2368    2.4089    0.9537 C   0  0  0  0  0  0  0  0  0  0  0  0
    3.7203    2.0079   -0.2788 C   0  0  0  0  0  0  0  0  0  0  0  0
    3.4748    0.6519   -0.5453 C   0  0  0  0  0  0  0  0  0  0  0  0
    2.9503    0.2336   -1.7788 C   0  0  0  0  0  0  0  0  0  0  0  0
   -2.1924    0.6437    0.3981 N   0  0  0  0  0  0  0  0  0  0  0  0
   -3.0488    0.5719    1.5683 C   0  0  0  0  0  0  0  0  0  0  0  0
   -4.4733    0.1586    1.2069 C   0  0  0  0  0  0  0  0  0  0  0  0
   -4.4001   -1.3573    1.0557 C   0  0  0  0  0  0  0  0  0  0  0  0
   -3.2475   -1.8142    1.9500 C   0  0  0  0  0  0  0  0  0  0  0  0
   -2.6126   -0.5431    2.5128 C   0  0  0  0  0  0  0  0  0  0  0  0
   -0.3981    2.1857   -1.5021 H   0  0  0  0  0  0  0  0  0  0  0  0
   -1.8697    1.9855   -2.5273 H   0  0  0  0  0  0  0  0  0  0  0  0
   -0.0184   -1.9545   -2.2426 H   0  0  0  0  0  0  0  0  0  0  0  0
   -0.4127   -1.8174   -3.9646 H   0  0  0  0  0  0  0  0  0  0  0  0
    2.7911   -3.1235   -1.2226 H   0  0  0  0  0  0  0  0  0  0  0  0
    3.7244   -2.4219    0.9373 H   0  0  0  0  0  0  0  0  0  0  0  0
    4.5102   -0.6167    2.4614 H   0  0  0  0  0  0  0  0  0  0  0  0
    4.9239    1.7727    2.8915 H   0  0  0  0  0  0  0  0  0  0  0  0
    4.4178    3.4625    1.1483 H   0  0  0  0  0  0  0  0  0  0  0  0
    3.5081    2.7651   -1.0317 H   0  0  0  0  0  0  0  0  0  0  0  0
    2.7443    0.9706   -2.5537 H   0  0  0  0  0  0  0  0  0  0  0  0
   -1.7784   -0.2063    0.0299 H   0  0  0  0  0  0  0  0  0  0  0  0
   -3.0341    1.5485    2.0645 H   0  0  0  0  0  0  0  0  0  0  0  0
   -5.1506    0.4071    2.0333 H   0  0  0  0  0  0  0  0  0  0  0  0
   -4.8559    0.6412    0.3024 H   0  0  0  0  0  0  0  0  0  0  0  0
   -4.1883   -1.6241    0.0143 H   0  0  0  0  0  0  0  0  0  0  0  0
   -5.3453   -1.8353    1.3304 H   0  0  0  0  0  0  0  0  0  0  0  0
   -2.5190   -2.3840    1.3615 H   0  0  0  0  0  0  0  0  0  0  0  0
   -3.5975   -2.4669    2.7569 H   0  0  0  0  0  0  0  0  0  0  0  0
   -3.0190   -0.3549    3.5132 H   0  0  0  0  0  0  0  0  0  0  0  0
   -1.5256   -0.6333    2.6054 H   0  0  0  0  0  0  0  0  0  0  0  0
  1  2  2  0
  2  3  1  0
  3  4  1  0
  4  5  1  0
  5  6  2  0
  5  7  1  0
  7  8  1  0
  8  9  1  0
  9 10  2  0
 10 11  1  0
 11 12  2  0
 12 13  1  0
 13 14  2  0
 14 15  1  0
 15 16  2  0
 16 17  1  0
 17 18  2  0
  2 19  1  0
 19 20  1  0
 20 21  1  0
 21 22  1  0
 22 23  1  0
 23 24  1  0
 18  9  1  0
 24 20  1  0
 17 12  1  0
  3 25  1  0
  3 26  1  0
  7 27  1  0
  7 28  1  0
 10 29  1  0
 11 30  1  0
 13 31  1  0
 14 32  1  0
 15 33  1  0
 16 34  1  0
 18 35  1  0
 19 36  1  0
 20 37  1  0
 21 38  1  0
 21 39  1  0
 22 40  1  0
 22 41  1  0
 23 42  1  0
 23 43  1  0
 24 44  1  0
 24 45  1  0
M  END
$$$$
