
     RDKit          3D

 57 60  0  0  0  0  0  0  0  0999 V2000
    8.5935   -2.0720   -3.1151 C   0  0  0  0  0  0  0  0  0  0  0  0
    8.0288   -3.0789   -2.2835 O   0  0  0  0  0  0  0  0  0  0  0  0
    6.9891   -2.7074   -1.4775 C   0  0  0  0  0  0  0  0  0  0  0  0
    6.4858   -3.7277   -0.6654 C   0  0  0  0  0  0  0  0  0  0  0  0
    5.4239   -3.4853    0.2091 C   0  0  0  0  0  0  0  0  0  0  0  0
    4.8489   -2.2106    0.2848 C   0  0  0  0  0  0  0  0  0  0  0  0
    3.6994   -1.9396    1.2195 C   0  0  0  0  0  0  0  0  0  0  0  0
    2.3891   -1.7350    0.4991 C   0  0  0  0  0  0  0  0  0  0  0  0
    1.8251   -0.6512    0.3776 O   0  0  0  0  0  0  0  0  0  0  0  0
    1.9030   -2.9088    0.0128 O   0  0  0  0  0  0  0  0  0  0  0  0
    0.7090   -2.8044   -0.7611 C   0  0  0  0  0  0  0  0  0  0  0  0
   -0.5618   -2.6185    0.0714 C   0  0  0  0  0  0  0  0  0  0  0  0
   -1.2457   -3.5766    0.4235 O   0  0  0  0  0  0  0  0  0  0  0  0
   -0.7741   -1.3194    0.4801 N   0  0  0  0  0  0  0  0  0  0  0  0
   -1.9832   -0.7088    0.2492 C   0  0  0  0  0  0  0  0  0  0  0  0
   -2.9292   -1.2198   -0.3311 O   0  0  0  0  0  0  0  0  0  0  0  0
   -1.9663    0.5867    0.7321 N   0  0  0  0  0  0  0  0  0  0  0  0
   -3.1378    1.4738    0.7263 C   0  0  0  0  0  0  0  0  0  0  0  0
   -3.6859    1.7194   -0.7032 C   0  0  0  0  0  0  0  0  0  0  0  0
   -4.8792    2.6913   -0.6673 C   0  0  0  0  0  0  0  0  0  0  0  0
   -5.9880    2.1017    0.2216 C   0  0  0  0  0  0  0  0  0  0  0  0
   -5.4639    1.8901    1.6516 C   0  0  0  0  0  0  0  0  0  0  0  0
   -4.9994    3.2393    2.2243 C   0  0  0  0  0  0  0  0  0  0  0  0
   -3.8867    3.8296    1.3436 C   0  0  0  0  0  0  0  0  0  0  0  0
   -4.4222    4.0361   -0.0815 C   0  0  0  0  0  0  0  0  0  0  0  0
   -2.7035    2.8493    1.3029 C   0  0  0  0  0  0  0  0  0  0  0  0
   -4.2737    0.9156    1.6189 C   0  0  0  0  0  0  0  0  0  0  0  0
    5.3537   -1.1903   -0.5339 C   0  0  0  0  0  0  0  0  0  0  0  0
    6.4162   -1.4372   -1.4100 C   0  0  0  0  0  0  0  0  0  0  0  0
    9.4162   -2.5258   -3.6756 H   0  0  0  0  0  0  0  0  0  0  0  0
    7.8607   -1.7027   -3.8395 H   0  0  0  0  0  0  0  0  0  0  0  0
    9.0097   -1.2533   -2.5190 H   0  0  0  0  0  0  0  0  0  0  0  0
    6.9272   -4.7224   -0.7158 H   0  0  0  0  0  0  0  0  0  0  0  0
    5.0538   -4.3011    0.8271 H   0  0  0  0  0  0  0  0  0  0  0  0
    3.9149   -1.0420    1.8108 H   0  0  0  0  0  0  0  0  0  0  0  0
    3.5741   -2.7490    1.9474 H   0  0  0  0  0  0  0  0  0  0  0  0
    0.7949   -2.0013   -1.5042 H   0  0  0  0  0  0  0  0  0  0  0  0
    0.6026   -3.7348   -1.3291 H   0  0  0  0  0  0  0  0  0  0  0  0
    0.0043   -0.6836    0.3348 H   0  0  0  0  0  0  0  0  0  0  0  0
   -1.3553    0.6930    1.5316 H   0  0  0  0  0  0  0  0  0  0  0  0
   -4.0119    0.7835   -1.1699 H   0  0  0  0  0  0  0  0  0  0  0  0
   -2.8926    2.1228   -1.3456 H   0  0  0  0  0  0  0  0  0  0  0  0
   -5.2628    2.8434   -1.6824 H   0  0  0  0  0  0  0  0  0  0  0  0
   -6.3379    1.1498   -0.1957 H   0  0  0  0  0  0  0  0  0  0  0  0
   -6.8517    2.7776    0.2389 H   0  0  0  0  0  0  0  0  0  0  0  0
   -6.2605    1.4767    2.2797 H   0  0  0  0  0  0  0  0  0  0  0  0
   -5.8450    3.9360    2.2761 H   0  0  0  0  0  0  0  0  0  0  0  0
   -4.6341    3.1059    3.2501 H   0  0  0  0  0  0  0  0  0  0  0  0
   -3.5580    4.7901    1.7564 H   0  0  0  0  0  0  0  0  0  0  0  0
   -3.6438    4.4779   -0.7162 H   0  0  0  0  0  0  0  0  0  0  0  0
   -5.2617    4.7429   -0.0689 H   0  0  0  0  0  0  0  0  0  0  0  0
   -2.2959    2.7244    2.3153 H   0  0  0  0  0  0  0  0  0  0  0  0
   -1.8907    3.2708    0.6972 H   0  0  0  0  0  0  0  0  0  0  0  0
   -4.6146   -0.0611    1.2518 H   0  0  0  0  0  0  0  0  0  0  0  0
   -3.9030    0.7467    2.6390 H   0  0  0  0  0  0  0  0  0  0  0  0
    4.9250   -0.1892   -0.4969 H   0  0  0  0  0  0  0  0  0  0  0  0
    6.7719   -0.6167   -2.0248 H   0  0  0  0  0  0  0  0  0  0  0  0
  1  2  1  0
  2  3  1  0
  3  4  2  0
  4  5  1  0
  5  6  2  0
  6  7  1  0
  7  8  1  0
  8  9  2  0
  8 10  1  0
 10 11  1  0
 11 12  1  0
 12 13  2  0
 12 14  1  0
 14 15  1  0
 15 16  2  0
 15 17  1  0
 17 18  1  0
 18 19  1  0
 19 20  1  0
 20 21  1  0
 21 22  1  0
 22 23  1  0
 23 24  1  0
 24 25  1  0
 24 26  1  0
 22 27  1  0
  6 28  1  0
 28 29  2  0
 29  3  1  0
 26 18  1  0
 27 18  1  0
 25 20  1  0
  1 30  1  0
  1 31  1  0
  1 32  1  0
  4 33  1  0
  5 34  1  0
  7 35  1  0
  7 36  1  0
 11 37  1  0
 11 38  1  0
 14 39  1  0
 17 40  1  0
 19 41  1  0
 19 42  1  0
 20 43  1  0
 21 44  1  0
 21 45  1  0
 22 46  1  0
 23 47  1  0
 23 48  1  0
 24 49  1  0
 25 50  1  0
 25 51  1  0
 26 52  1  0
 26 53  1  0
 27 54  1  0
 27 55  1  0
 28 56  1  0
 29 57  1  0
M  END
$$$$
