
     RDKit          3D

 51 54  0  0  0  0  0  0  0  0999 V2000
   -2.2573    5.5229    1.7671 C   0  0  0  0  0  0  0  0  0  0  0  0
   -1.8499    4.1786    1.1916 C   0  0  0  0  0  0  0  0  0  0  0  0
   -1.5040    3.3204    2.2821 O   0  0  0  0  0  0  0  0  0  0  0  0
   -0.7055    2.2665    1.9089 C   0  0  0  0  0  0  0  0  0  0  0  0
   -1.0802    1.4025    0.8730 C   0  0  0  0  0  0  0  0  0  0  0  0
   -0.2720    0.3079    0.5249 C   0  0  0  0  0  0  0  0  0  0  0  0
   -0.7324   -0.6309   -0.5912 C   0  0  0  0  0  0  0  0  0  0  0  0
   -1.2707   -1.9381   -0.0018 C   0  0  0  0  0  0  0  0  0  0  0  0
   -2.5717   -2.3974   -0.6388 C   0  0  0  0  0  0  0  0  0  0  0  0
   -3.3299   -1.6272   -1.2225 O   0  0  0  0  0  0  0  0  0  0  0  0
   -2.9070   -3.8768   -0.4960 C   0  0  0  0  0  0  0  0  0  0  0  0
   -2.2088   -4.4792    0.7256 C   0  0  0  0  0  0  0  0  0  0  0  0
   -0.6838   -4.3554    0.6535 C   0  0  0  0  0  0  0  0  0  0  0  0
   -0.2909   -3.0929   -0.0899 C   0  0  0  0  0  0  0  0  0  0  0  0
    0.7909   -3.1149   -0.8017 N   0  0  0  0  0  0  0  0  0  0  0  0
    1.0604   -2.0451   -1.5849 C   0  0  0  0  0  0  0  0  0  0  0  0
    1.9842   -1.9027   -2.5064 N   0  0  0  0  0  0  0  0  0  0  0  0
    1.7797   -0.6293   -3.0220 C   0  0  0  0  0  0  0  0  0  0  0  0
    2.6012   -0.0468   -4.1014 C   0  0  0  0  0  0  0  0  0  0  0  0
    2.4281    1.0718   -4.5788 O   0  0  0  0  0  0  0  0  0  0  0  0
    3.5907   -0.8987   -4.5184 O   0  0  0  0  0  0  0  0  0  0  0  0
    4.4091   -0.3760   -5.5623 C   0  0  0  0  0  0  0  0  0  0  0  0
    0.7505    0.0191   -2.4384 N   0  0  0  0  0  0  0  0  0  0  0  0
    0.3460   -0.8820   -1.5304 N   0  0  0  0  0  0  0  0  0  0  0  0
    0.9050    0.0875    1.2588 C   0  0  0  0  0  0  0  0  0  0  0  0
    1.2693    0.9424    2.3063 C   0  0  0  0  0  0  0  0  0  0  0  0
    0.4669    2.0345    2.6441 C   0  0  0  0  0  0  0  0  0  0  0  0
    0.7342    2.9218    3.6538 O   0  0  0  0  0  0  0  0  0  0  0  0
    1.9738    2.7858    4.3345 C   0  0  0  0  0  0  0  0  0  0  0  0
   -3.0903    5.4059    2.4698 H   0  0  0  0  0  0  0  0  0  0  0  0
   -2.5591    6.2118    0.9717 H   0  0  0  0  0  0  0  0  0  0  0  0
   -1.4273    5.9696    2.3267 H   0  0  0  0  0  0  0  0  0  0  0  0
   -2.6956    3.7525    0.6410 H   0  0  0  0  0  0  0  0  0  0  0  0
   -1.0014    4.3195    0.5100 H   0  0  0  0  0  0  0  0  0  0  0  0
   -2.0154    1.5743    0.3446 H   0  0  0  0  0  0  0  0  0  0  0  0
   -1.4983   -0.1098   -1.1789 H   0  0  0  0  0  0  0  0  0  0  0  0
   -1.5166   -1.7971    1.0605 H   0  0  0  0  0  0  0  0  0  0  0  0
   -3.9918   -3.9768   -0.3840 H   0  0  0  0  0  0  0  0  0  0  0  0
   -2.5975   -4.3904   -1.4123 H   0  0  0  0  0  0  0  0  0  0  0  0
   -2.5639   -3.9663    1.6289 H   0  0  0  0  0  0  0  0  0  0  0  0
   -2.4866   -5.5335    0.8369 H   0  0  0  0  0  0  0  0  0  0  0  0
   -0.2497   -4.3322    1.6580 H   0  0  0  0  0  0  0  0  0  0  0  0
   -0.2660   -5.2185    0.1224 H   0  0  0  0  0  0  0  0  0  0  0  0
    5.1440   -1.1400   -5.8323 H   0  0  0  0  0  0  0  0  0  0  0  0
    3.8068   -0.1493   -6.4480 H   0  0  0  0  0  0  0  0  0  0  0  0
    4.9462    0.5141   -5.2191 H   0  0  0  0  0  0  0  0  0  0  0  0
    1.5643   -0.7493    1.0319 H   0  0  0  0  0  0  0  0  0  0  0  0
    2.1888    0.7246    2.8406 H   0  0  0  0  0  0  0  0  0  0  0  0
    2.8178    2.8891    3.6444 H   0  0  0  0  0  0  0  0  0  0  0  0
    2.0221    1.8380    4.8806 H   0  0  0  0  0  0  0  0  0  0  0  0
    2.0434    3.5953    5.0675 H   0  0  0  0  0  0  0  0  0  0  0  0
  1  2  1  0
  2  3  1  0
  3  4  1  0
  4  5  2  0
  5  6  1  0
  6  7  1  0
  7  8  1  0
  8  9  1  0
  9 10  2  0
  9 11  1  0
 11 12  1  0
 12 13  1  0
 13 14  1  0
 14 15  2  0
 15 16  1  0
 16 17  2  0
 17 18  1  0
 18 19  1  0
 19 20  2  0
 19 21  1  0
 21 22  1  0
 18 23  2  0
 23 24  1  0
  6 25  2  0
 25 26  1  0
 26 27  2  0
 27 28  1  0
 28 29  1  0
 27  4  1  0
 24  7  1  0
 14  8  1  0
 24 16  1  0
  1 30  1  0
  1 31  1  0
  1 32  1  0
  2 33  1  0
  2 34  1  0
  5 35  1  0
  7 36  1  0
  8 37  1  0
 11 38  1  0
 11 39  1  0
 12 40  1  0
 12 41  1  0
 13 42  1  0
 13 43  1  0
 22 44  1  0
 22 45  1  0
 22 46  1  0
 25 47  1  0
 26 48  1  0
 29 49  1  0
 29 50  1  0
 29 51  1  0
M  END
$$$$
