
     RDKit          3D

 56 60  0  0  0  0  0  0  0  0999 V2000
    7.7232   -3.0672    0.2215 C   0  0  0  0  0  0  0  0  0  0  0  0
    6.6461   -2.0491    0.2677 C   0  0  0  0  0  0  0  0  0  0  0  0
    6.0925   -1.6036   -0.8673 N   0  0  0  0  0  0  0  0  0  0  0  0
    5.1613   -0.7102   -0.4590 N   0  0  0  0  0  0  0  0  0  0  0  0
    4.3681   -0.0136   -1.4678 C   0  0  0  0  0  0  0  0  0  0  0  0
    2.9811   -0.5947   -1.5997 C   0  0  0  0  0  0  0  0  0  0  0  0
    2.7952   -1.9074   -2.0588 C   0  0  0  0  0  0  0  0  0  0  0  0
    1.5120   -2.4372   -2.2022 C   0  0  0  0  0  0  0  0  0  0  0  0
    0.3947   -1.6646   -1.8827 C   0  0  0  0  0  0  0  0  0  0  0  0
    0.5614   -0.3580   -1.4090 C   0  0  0  0  0  0  0  0  0  0  0  0
   -0.5975    0.5092   -1.0535 C   0  0  0  0  0  0  0  0  0  0  0  0
   -0.4835    1.7262   -1.1328 O   0  0  0  0  0  0  0  0  0  0  0  0
   -1.7297   -0.1445   -0.6112 N   0  0  0  0  0  0  0  0  0  0  0  0
   -2.9438    0.5294   -0.1353 C   0  0  0  0  0  0  0  0  0  0  0  0
   -2.6676    1.3708    1.1350 C   0  0  0  0  0  0  0  0  0  0  0  0
   -3.9658    2.0202    1.6463 C   0  0  0  0  0  0  0  0  0  0  0  0
   -4.5496    2.9219    0.5453 C   0  0  0  0  0  0  0  0  0  0  0  0
   -4.8638    2.0900   -0.7099 C   0  0  0  0  0  0  0  0  0  0  0  0
   -5.8752    0.9908   -0.3501 C   0  0  0  0  0  0  0  0  0  0  0  0
   -5.2932    0.0811    0.7426 C   0  0  0  0  0  0  0  0  0  0  0  0
   -4.9822    0.9203    1.9920 C   0  0  0  0  0  0  0  0  0  0  0  0
   -3.9933   -0.5567    0.2275 C   0  0  0  0  0  0  0  0  0  0  0  0
   -3.5666    1.4403   -1.2239 C   0  0  0  0  0  0  0  0  0  0  0  0
    1.8519    0.1766   -1.2852 C   0  0  0  0  0  0  0  0  0  0  0  0
    5.1185   -0.5525    0.9082 C   0  0  0  0  0  0  0  0  0  0  0  0
    4.1894    0.3734    1.6016 C   0  0  0  0  0  0  0  0  0  0  0  0
    6.0690   -1.4228    1.3892 C   0  0  0  0  0  0  0  0  0  0  0  0
    6.5407   -1.7465    3.1729 Br  0  0  0  0  0  0  0  0  0  0  0  0
    8.6565   -2.6540    0.6171 H   0  0  0  0  0  0  0  0  0  0  0  0
    7.4503   -3.9431    0.8186 H   0  0  0  0  0  0  0  0  0  0  0  0
    7.9119   -3.4073   -0.8024 H   0  0  0  0  0  0  0  0  0  0  0  0
    4.3434    1.0455   -1.1897 H   0  0  0  0  0  0  0  0  0  0  0  0
    4.8960   -0.0817   -2.4265 H   0  0  0  0  0  0  0  0  0  0  0  0
    3.6574   -2.5247   -2.3128 H   0  0  0  0  0  0  0  0  0  0  0  0
    1.3859   -3.4518   -2.5732 H   0  0  0  0  0  0  0  0  0  0  0  0
   -0.5945   -2.0857   -2.0366 H   0  0  0  0  0  0  0  0  0  0  0  0
   -1.6257   -1.1169   -0.3542 H   0  0  0  0  0  0  0  0  0  0  0  0
   -1.9301    2.1563    0.9311 H   0  0  0  0  0  0  0  0  0  0  0  0
   -2.2325    0.7378    1.9196 H   0  0  0  0  0  0  0  0  0  0  0  0
   -3.7516    2.6184    2.5391 H   0  0  0  0  0  0  0  0  0  0  0  0
   -5.4624    3.4106    0.9076 H   0  0  0  0  0  0  0  0  0  0  0  0
   -3.8385    3.7197    0.2980 H   0  0  0  0  0  0  0  0  0  0  0  0
   -5.2844    2.7380   -1.4870 H   0  0  0  0  0  0  0  0  0  0  0  0
   -6.8123    1.4425   -0.0021 H   0  0  0  0  0  0  0  0  0  0  0  0
   -6.1188    0.3989   -1.2410 H   0  0  0  0  0  0  0  0  0  0  0  0
   -6.0159   -0.7030    0.9945 H   0  0  0  0  0  0  0  0  0  0  0  0
   -5.9042    1.3705    2.3799 H   0  0  0  0  0  0  0  0  0  0  0  0
   -4.5833    0.2773    2.7861 H   0  0  0  0  0  0  0  0  0  0  0  0
   -4.2085   -1.1812   -0.6500 H   0  0  0  0  0  0  0  0  0  0  0  0
   -3.5877   -1.2331    0.9920 H   0  0  0  0  0  0  0  0  0  0  0  0
   -2.8703    2.2324   -1.5220 H   0  0  0  0  0  0  0  0  0  0  0  0
   -3.7740    0.8570   -2.1307 H   0  0  0  0  0  0  0  0  0  0  0  0
    1.9681    1.2023   -0.9371 H   0  0  0  0  0  0  0  0  0  0  0  0
    4.2012    1.3659    1.1406 H   0  0  0  0  0  0  0  0  0  0  0  0
    3.1669   -0.0157    1.5703 H   0  0  0  0  0  0  0  0  0  0  0  0
    4.4634    0.5033    2.6529 H   0  0  0  0  0  0  0  0  0  0  0  0
  1  2  1  0
  2  3  2  0
  3  4  1  0
  4  5  1  0
  5  6  1  0
  6  7  2  0
  7  8  1  0
  8  9  2  0
  9 10  1  0
 10 11  1  0
 11 12  2  0
 11 13  1  0
 13 14  1  0
 14 15  1  0
 15 16  1  0
 16 17  1  0
 17 18  1  0
 18 19  1  0
 19 20  1  0
 20 21  1  0
 20 22  1  0
 18 23  1  0
 10 24  2  0
  4 25  1  0
 25 26  1  0
 25 27  2  0
 27 28  1  0
 27  2  1  0
 24  6  1  0
 22 14  1  0
 23 14  1  0
 21 16  1  0
  1 29  1  0
  1 30  1  0
  1 31  1  0
  5 32  1  0
  5 33  1  0
  7 34  1  0
  8 35  1  0
  9 36  1  0
 13 37  1  0
 15 38  1  0
 15 39  1  0
 16 40  1  0
 17 41  1  0
 17 42  1  0
 18 43  1  0
 19 44  1  0
 19 45  1  0
 20 46  1  0
 21 47  1  0
 21 48  1  0
 22 49  1  0
 22 50  1  0
 23 51  1  0
 23 52  1  0
 24 53  1  0
 26 54  1  0
 26 55  1  0
 26 56  1  0
M  END
$$$$
