
     RDKit          3D

 49 52  0  0  0  0  0  0  0  0999 V2000
    0.1024    1.5920   -4.2679 N   0  0  0  0  0  0  0  0  0  0  0  0
    0.2228    1.8691   -3.1441 C   0  0  0  0  0  0  0  0  0  0  0  0
    0.3725    2.2419   -1.7316 C   0  0  0  0  0  0  0  0  0  0  0  0
    1.7646    1.9215   -1.2100 C   0  0  0  0  0  0  0  0  0  0  0  0
    2.4664    2.7940   -0.6923 O   0  0  0  0  0  0  0  0  0  0  0  0
    2.2099    0.6273   -1.3564 N   0  0  0  0  0  0  0  0  0  0  0  0
    3.4827    0.1833   -0.8300 C   0  0  0  0  0  0  0  0  0  0  0  0
    3.3230   -0.4953    0.5080 C   0  0  0  0  0  0  0  0  0  0  0  0
    3.5006   -1.8819    0.6361 C   0  0  0  0  0  0  0  0  0  0  0  0
    3.3333   -2.5075    1.8735 C   0  0  0  0  0  0  0  0  0  0  0  0
    2.9926   -1.7540    2.9960 C   0  0  0  0  0  0  0  0  0  0  0  0
    2.8224   -0.3749    2.8836 C   0  0  0  0  0  0  0  0  0  0  0  0
    2.9874    0.2519    1.6474 C   0  0  0  0  0  0  0  0  0  0  0  0
   -0.7401    1.7461   -0.8386 C   0  0  0  0  0  0  0  0  0  0  0  0
   -1.4667    2.7295   -0.2235 N   0  0  0  0  0  0  0  0  0  0  0  0
   -2.4714    2.3534    0.5857 C   0  0  0  0  0  0  0  0  0  0  0  0
   -3.2453    3.3178    1.2207 C   0  0  0  0  0  0  0  0  0  0  0  0
   -4.3032    2.9615    2.0587 C   0  0  0  0  0  0  0  0  0  0  0  0
   -4.5868    1.6185    2.2699 C   0  0  0  0  0  0  0  0  0  0  0  0
   -3.8122    0.6451    1.6375 C   0  0  0  0  0  0  0  0  0  0  0  0
   -2.7608    0.9905    0.7957 C   0  0  0  0  0  0  0  0  0  0  0  0
   -2.0480    0.0235    0.1890 N   0  0  0  0  0  0  0  0  0  0  0  0
   -1.0365    0.3862   -0.6363 C   0  0  0  0  0  0  0  0  0  0  0  0
   -0.3293   -0.6381   -1.3258 N   0  0  0  0  0  0  0  0  0  0  0  0
   -0.0727   -1.7981   -0.4202 C   0  0  0  0  0  0  0  0  0  0  0  0
   -1.0740   -2.8757   -0.8125 C   0  0  0  0  0  0  0  0  0  0  0  0
   -1.1814   -2.6665   -2.3072 C   0  0  0  0  0  0  0  0  0  0  0  0
   -1.1973   -1.1452   -2.4326 C   0  0  0  0  0  0  0  0  0  0  0  0
    0.3197    3.3423   -1.7169 H   0  0  0  0  0  0  0  0  0  0  0  0
    1.5102   -0.0876   -1.5564 H   0  0  0  0  0  0  0  0  0  0  0  0
    4.1829    1.0223   -0.7434 H   0  0  0  0  0  0  0  0  0  0  0  0
    3.9006   -0.5148   -1.5649 H   0  0  0  0  0  0  0  0  0  0  0  0
    3.7664   -2.4858   -0.2289 H   0  0  0  0  0  0  0  0  0  0  0  0
    3.4737   -3.5823    1.9624 H   0  0  0  0  0  0  0  0  0  0  0  0
    2.8658   -2.2391    3.9610 H   0  0  0  0  0  0  0  0  0  0  0  0
    2.5642    0.2165    3.7589 H   0  0  0  0  0  0  0  0  0  0  0  0
    2.8556    1.3318    1.5747 H   0  0  0  0  0  0  0  0  0  0  0  0
   -3.0205    4.3691    1.0548 H   0  0  0  0  0  0  0  0  0  0  0  0
   -4.9002    3.7331    2.5385 H   0  0  0  0  0  0  0  0  0  0  0  0
   -5.4083    1.3248    2.9190 H   0  0  0  0  0  0  0  0  0  0  0  0
   -4.0357   -0.4072    1.7960 H   0  0  0  0  0  0  0  0  0  0  0  0
   -0.0970   -1.5594    0.6503 H   0  0  0  0  0  0  0  0  0  0  0  0
    0.9351   -2.1647   -0.6443 H   0  0  0  0  0  0  0  0  0  0  0  0
   -0.7324   -3.8797   -0.5483 H   0  0  0  0  0  0  0  0  0  0  0  0
   -2.0424   -2.7022   -0.3293 H   0  0  0  0  0  0  0  0  0  0  0  0
   -2.0713   -3.1313   -2.7398 H   0  0  0  0  0  0  0  0  0  0  0  0
   -0.2975   -3.0746   -2.8165 H   0  0  0  0  0  0  0  0  0  0  0  0
   -0.7924   -0.8462   -3.4032 H   0  0  0  0  0  0  0  0  0  0  0  0
   -2.2316   -0.7809   -2.3706 H   0  0  0  0  0  0  0  0  0  0  0  0
  1  2  3  0
  2  3  1  0
  3  4  1  0
  4  5  2  0
  4  6  1  0
  6  7  1  0
  7  8  1  0
  8  9  2  0
  9 10  1  0
 10 11  2  0
 11 12  1  0
 12 13  2  0
  3 14  1  0
 14 15  2  0
 15 16  1  0
 16 17  2  0
 17 18  1  0
 18 19  2  0
 19 20  1  0
 20 21  2  0
 21 22  1  0
 22 23  2  0
 23 24  1  0
 24 25  1  0
 25 26  1  0
 26 27  1  0
 27 28  1  0
 13  8  1  0
 23 14  1  0
 28 24  1  0
 21 16  1  0
  3 29  1  0
  6 30  1  0
  7 31  1  0
  7 32  1  0
  9 33  1  0
 10 34  1  0
 11 35  1  0
 12 36  1  0
 13 37  1  0
 17 38  1  0
 18 39  1  0
 19 40  1  0
 20 41  1  0
 25 42  1  0
 25 43  1  0
 26 44  1  0
 26 45  1  0
 27 46  1  0
 27 47  1  0
 28 48  1  0
 28 49  1  0
M  END
$$$$
