
     RDKit          3D

 52 55  0  0  0  0  0  0  0  0999 V2000
    2.9289   -2.2786   -1.5224 O   0  0  0  0  0  0  0  0  0  0  0  0
    2.9285   -1.0512   -1.5746 C   0  0  0  0  0  0  0  0  0  0  0  0
    1.8400   -0.3118   -2.0088 N   0  0  0  0  0  0  0  0  0  0  0  0
    0.6486   -1.0398   -2.2762 N   0  0  0  0  0  0  0  0  0  0  0  0
   -0.3939   -0.7165   -1.3715 C   0  0  0  0  0  0  0  0  0  0  0  0
   -0.9455    0.5468   -1.3605 C   0  0  0  0  0  0  0  0  0  0  0  0
   -1.9588    0.7884   -0.4617 C   0  0  0  0  0  0  0  0  0  0  0  0
   -2.5825    2.0155   -0.3890 N   0  0  0  0  0  0  0  0  0  0  0  0
   -1.9455    3.2707   -0.7651 C   0  0  0  0  0  0  0  0  0  0  0  0
   -2.6346    4.3189    0.1095 C   0  0  0  0  0  0  0  0  0  0  0  0
   -3.9859    3.6951    0.4216 C   0  0  0  0  0  0  0  0  0  0  0  0
   -3.6370    2.2215    0.5984 C   0  0  0  0  0  0  0  0  0  0  0  0
   -2.3867   -0.1931    0.3493 N   0  0  0  0  0  0  0  0  0  0  0  0
   -1.8168   -1.4055    0.2785 C   0  0  0  0  0  0  0  0  0  0  0  0
   -2.2432   -2.3827    1.1402 N   0  0  0  0  0  0  0  0  0  0  0  0
   -1.8618   -3.7652    0.9233 C   0  0  0  0  0  0  0  0  0  0  0  0
   -2.6877   -4.5078    1.9703 C   0  0  0  0  0  0  0  0  0  0  0  0
   -3.9842   -3.7111    2.0017 C   0  0  0  0  0  0  0  0  0  0  0  0
   -3.5272   -2.2621    1.8121 C   0  0  0  0  0  0  0  0  0  0  0  0
   -0.8253   -1.6944   -0.5709 N   0  0  0  0  0  0  0  0  0  0  0  0
    4.1229   -0.2803   -1.1329 C   0  0  0  0  0  0  0  0  0  0  0  0
    4.4043    1.0049   -1.6196 C   0  0  0  0  0  0  0  0  0  0  0  0
    5.5501    1.6841   -1.1889 C   0  0  0  0  0  0  0  0  0  0  0  0
    6.4179    1.0725   -0.2738 C   0  0  0  0  0  0  0  0  0  0  0  0
    7.6250    1.7810    0.1719 N   0  0  0  0  0  4  0  0  0  0  0  0
    7.7908    2.9418   -0.2308 O   0  0  0  0  0  0  0  0  0  0  0  0
    8.4030    1.1776    0.9233 O   0  0  0  0  0  1  0  0  0  0  0  0
    6.1486   -0.2132    0.2106 C   0  0  0  0  0  0  0  0  0  0  0  0
    5.0035   -0.8867   -0.2244 C   0  0  0  0  0  0  0  0  0  0  0  0
    1.7416    0.6784   -1.8194 H   0  0  0  0  0  0  0  0  0  0  0  0
    0.8286   -2.0405   -2.0954 H   0  0  0  0  0  0  0  0  0  0  0  0
   -0.6137    1.2990   -2.0617 H   0  0  0  0  0  0  0  0  0  0  0  0
   -0.8658    3.2791   -0.5783 H   0  0  0  0  0  0  0  0  0  0  0  0
   -2.1255    3.4737   -1.8256 H   0  0  0  0  0  0  0  0  0  0  0  0
   -2.0680    4.4601    1.0374 H   0  0  0  0  0  0  0  0  0  0  0  0
   -2.7177    5.2881   -0.3882 H   0  0  0  0  0  0  0  0  0  0  0  0
   -4.6641    3.8250   -0.4302 H   0  0  0  0  0  0  0  0  0  0  0  0
   -4.4592    4.1237    1.3092 H   0  0  0  0  0  0  0  0  0  0  0  0
   -4.5107    1.5872    0.4139 H   0  0  0  0  0  0  0  0  0  0  0  0
   -3.2639    2.0420    1.6140 H   0  0  0  0  0  0  0  0  0  0  0  0
   -2.1437   -4.0992   -0.0829 H   0  0  0  0  0  0  0  0  0  0  0  0
   -0.7904   -3.9331    1.0742 H   0  0  0  0  0  0  0  0  0  0  0  0
   -2.1944   -4.4576    2.9480 H   0  0  0  0  0  0  0  0  0  0  0  0
   -2.8420   -5.5591    1.7151 H   0  0  0  0  0  0  0  0  0  0  0  0
   -4.5489   -3.8537    2.9282 H   0  0  0  0  0  0  0  0  0  0  0  0
   -4.6248   -4.0117    1.1638 H   0  0  0  0  0  0  0  0  0  0  0  0
   -4.2790   -1.7102    1.2367 H   0  0  0  0  0  0  0  0  0  0  0  0
   -3.3903   -1.7704    2.7819 H   0  0  0  0  0  0  0  0  0  0  0  0
    3.7657    1.4808   -2.3582 H   0  0  0  0  0  0  0  0  0  0  0  0
    5.7579    2.6766   -1.5843 H   0  0  0  0  0  0  0  0  0  0  0  0
    6.8148   -0.7058    0.9153 H   0  0  0  0  0  0  0  0  0  0  0  0
    4.7979   -1.8913    0.1465 H   0  0  0  0  0  0  0  0  0  0  0  0
  1  2  2  0
  2  3  1  0
  3  4  1  0
  4  5  1  0
  5  6  2  0
  6  7  1  0
  7  8  1  0
  8  9  1  0
  9 10  1  0
 10 11  1  0
 11 12  1  0
  7 13  2  0
 13 14  1  0
 14 15  1  0
 15 16  1  0
 16 17  1  0
 17 18  1  0
 18 19  1  0
 14 20  2  0
  2 21  1  0
 21 22  2  0
 22 23  1  0
 23 24  2  0
 24 25  1  0
 25 26  2  0
 25 27  1  0
 24 28  1  0
 28 29  2  0
 20  5  1  0
 29 21  1  0
 12  8  1  0
 19 15  1  0
  3 30  1  0
  4 31  1  0
  6 32  1  0
  9 33  1  0
  9 34  1  0
 10 35  1  0
 10 36  1  0
 11 37  1  0
 11 38  1  0
 12 39  1  0
 12 40  1  0
 16 41  1  0
 16 42  1  0
 17 43  1  0
 17 44  1  0
 18 45  1  0
 18 46  1  0
 19 47  1  0
 19 48  1  0
 22 49  1  0
 23 50  1  0
 28 51  1  0
 29 52  1  0
M  CHG  2  25   1  27  -1
M  END
$$$$
