
     RDKit          3D

 47 50  0  0  0  0  0  0  0  0999 V2000
   -4.0197   -2.2145    1.3967 O   0  0  0  0  0  0  0  0  0  0  0  0
   -3.3659   -1.1756    1.2032 C   0  0  0  0  0  0  0  0  0  0  0  0
   -3.5285    0.0496    2.1344 C   0  0  0  0  0  0  0  0  0  0  0  0
   -4.6616   -0.0052    3.2049 C   0  0  0  0  0  0  0  0  0  0  0  0
   -5.5588    0.7599    2.2189 C   0  0  0  0  0  0  0  0  0  0  0  0
   -4.2729    1.2945    1.5668 C   0  0  0  0  0  0  0  0  0  0  0  0
   -2.4924   -1.1203    0.1197 N   0  0  0  0  0  0  0  0  0  0  0  0
   -2.4260   -2.2732   -0.7919 C   0  0  0  0  0  0  0  0  0  0  0  0
   -1.5388   -1.8819   -1.9716 C   0  0  0  0  0  0  0  0  0  0  0  0
   -0.9596   -0.5873   -1.4977 C   0  0  0  0  0  0  0  0  0  0  0  0
    0.0143    0.1599   -2.1467 C   0  0  0  0  0  0  0  0  0  0  0  0
    0.4107    1.3622   -1.5604 C   0  0  0  0  0  0  0  0  0  0  0  0
    1.6625    2.3381   -2.3568 S   0  0  0  0  0  6  0  0  0  0  0  0
    1.8590    3.5525   -1.5977 O   0  0  0  0  0  0  0  0  0  0  0  0
    1.3609    2.3543   -3.7700 O   0  0  0  0  0  0  0  0  0  0  0  0
    3.0084    1.3753   -2.1578 N   0  0  0  0  0  0  0  0  0  0  0  0
    3.7530    1.4769   -0.9009 C   0  0  0  0  0  0  0  0  0  0  0  0
    4.6229    0.2574   -0.6855 C   0  0  0  0  0  0  0  0  0  0  0  0
    4.1170   -0.8574   -0.0188 C   0  0  0  0  0  0  0  0  0  0  0  0
    4.9286   -1.9790    0.1250 C   0  0  0  0  0  0  0  0  0  0  0  0
    6.2123   -1.9638   -0.4067 C   0  0  0  0  0  0  0  0  0  0  0  0
    6.6325   -0.8234   -1.0694 C   0  0  0  0  0  0  0  0  0  0  0  0
    5.8680    0.2796   -1.2270 N   0  0  0  0  0  0  0  0  0  0  0  0
   -0.1706    1.8058   -0.3638 C   0  0  0  0  0  0  0  0  0  0  0  0
   -1.1566    1.0370    0.2716 C   0  0  0  0  0  0  0  0  0  0  0  0
   -1.5525   -0.1614   -0.3006 C   0  0  0  0  0  0  0  0  0  0  0  0
   -2.5776    0.2754    2.6329 H   0  0  0  0  0  0  0  0  0  0  0  0
   -5.0213   -0.9955    3.4962 H   0  0  0  0  0  0  0  0  0  0  0  0
   -4.4279    0.5589    4.1161 H   0  0  0  0  0  0  0  0  0  0  0  0
   -6.1490    0.1098    1.5630 H   0  0  0  0  0  0  0  0  0  0  0  0
   -6.2173    1.5124    2.6598 H   0  0  0  0  0  0  0  0  0  0  0  0
   -3.9237    2.2443    1.9887 H   0  0  0  0  0  0  0  0  0  0  0  0
   -4.3142    1.3872    0.4782 H   0  0  0  0  0  0  0  0  0  0  0  0
   -3.4333   -2.5568   -1.1175 H   0  0  0  0  0  0  0  0  0  0  0  0
   -1.9996   -3.1192   -0.2385 H   0  0  0  0  0  0  0  0  0  0  0  0
   -0.7698   -2.6359   -2.1630 H   0  0  0  0  0  0  0  0  0  0  0  0
   -2.1351   -1.7235   -2.8760 H   0  0  0  0  0  0  0  0  0  0  0  0
    0.4511   -0.1786   -3.0823 H   0  0  0  0  0  0  0  0  0  0  0  0
    3.5651    1.2453   -3.0025 H   0  0  0  0  0  0  0  0  0  0  0  0
    3.0776    1.5902   -0.0459 H   0  0  0  0  0  0  0  0  0  0  0  0
    4.3965    2.3635   -0.9378 H   0  0  0  0  0  0  0  0  0  0  0  0
    3.1064   -0.8591    0.3775 H   0  0  0  0  0  0  0  0  0  0  0  0
    4.5604   -2.8597    0.6438 H   0  0  0  0  0  0  0  0  0  0  0  0
    6.8684   -2.8217   -0.3116 H   0  0  0  0  0  0  0  0  0  0  0  0
    7.6253   -0.7650   -1.5069 H   0  0  0  0  0  0  0  0  0  0  0  0
    0.1368    2.7505    0.0818 H   0  0  0  0  0  0  0  0  0  0  0  0
   -1.5648    1.4175    1.1959 H   0  0  0  0  0  0  0  0  0  0  0  0
  1  2  2  0
  2  3  1  0
  3  4  1  0
  4  5  1  0
  5  6  1  0
  2  7  1  0
  7  8  1  0
  8  9  1  0
  9 10  1  0
 10 11  2  0
 11 12  1  0
 12 13  1  0
 13 14  2  0
 13 15  2  0
 13 16  1  0
 16 17  1  0
 17 18  1  0
 18 19  2  0
 19 20  1  0
 20 21  2  0
 21 22  1  0
 22 23  2  0
 12 24  2  0
 24 25  1  0
 25 26  2  0
  6  3  1  0
 26  7  1  0
 26 10  1  0
 23 18  1  0
  3 27  1  0
  4 28  1  0
  4 29  1  0
  5 30  1  0
  5 31  1  0
  6 32  1  0
  6 33  1  0
  8 34  1  0
  8 35  1  0
  9 36  1  0
  9 37  1  0
 11 38  1  0
 16 39  1  0
 17 40  1  0
 17 41  1  0
 19 42  1  0
 20 43  1  0
 21 44  1  0
 22 45  1  0
 24 46  1  0
 25 47  1  0
M  END
$$$$
