
     RDKit          3D

 45 47  0  0  0  0  0  0  0  0999 V2000
    1.9493    2.6995   -0.0363 O   0  0  0  0  0  0  0  0  0  0  0  0
    1.3559    1.7908   -0.6255 C   0  0  0  0  0  0  0  0  0  0  0  0
    1.7186    1.4675   -2.0678 C   0  0  0  0  0  0  0  0  0  0  0  0
    2.6888   -0.0735   -2.1784 S   0  0  0  0  0  0  0  0  0  0  0  0
    4.3482    0.5785   -2.1420 C   0  0  0  0  0  0  0  0  0  0  0  0
    5.1881    0.3466   -3.2372 C   0  0  0  0  0  0  0  0  0  0  0  0
    6.4999    0.8295   -3.2397 C   0  0  0  0  0  0  0  0  0  0  0  0
    6.9759    1.5392   -2.1395 C   0  0  0  0  0  0  0  0  0  0  0  0
    8.7489    2.1933   -2.1392 Br  0  0  0  0  0  0  0  0  0  0  0  0
    6.1546    1.7649   -1.0378 C   0  0  0  0  0  0  0  0  0  0  0  0
    4.8434    1.2794   -1.0381 C   0  0  0  0  0  0  0  0  0  0  0  0
    0.3508    1.0641   -0.0018 N   0  0  0  0  0  0  0  0  0  0  0  0
   -0.4132   -0.0332   -0.6073 C   0  0  0  0  0  0  0  0  0  0  0  0
   -1.7775   -0.2347    0.0687 C   0  0  0  0  0  0  0  0  0  0  0  0
   -1.6442   -0.5213    1.5348 N   0  0  0  0  0  0  0  0  0  0  0  0
   -3.0664   -0.2702    2.4512 S   0  0  0  0  0  6  0  0  0  0  0  0
   -2.8265   -0.7493    3.7955 O   0  0  0  0  0  0  0  0  0  0  0  0
   -3.4937    1.0916    2.2055 O   0  0  0  0  0  0  0  0  0  0  0  0
   -4.2233   -1.3786    1.6898 C   0  0  0  0  0  0  0  0  0  0  0  0
   -5.3180   -0.8742    0.9823 C   0  0  0  0  0  0  0  0  0  0  0  0
   -6.2159   -1.7623    0.3898 C   0  0  0  0  0  0  0  0  0  0  0  0
   -6.0199   -3.1401    0.5099 C   0  0  0  0  0  0  0  0  0  0  0  0
   -4.9291   -3.6375    1.2261 C   0  0  0  0  0  0  0  0  0  0  0  0
   -4.0271   -2.7571    1.8223 C   0  0  0  0  0  0  0  0  0  0  0  0
   -0.4209    0.0924    2.1562 C   0  0  0  0  0  0  0  0  0  0  0  0
    0.0522    1.3429    1.4077 C   0  0  0  0  0  0  0  0  0  0  0  0
    2.2811    2.3075   -2.4906 H   0  0  0  0  0  0  0  0  0  0  0  0
    0.8132    1.3786   -2.6732 H   0  0  0  0  0  0  0  0  0  0  0  0
    4.8292   -0.2115   -4.0994 H   0  0  0  0  0  0  0  0  0  0  0  0
    7.1378    0.6441   -4.0996 H   0  0  0  0  0  0  0  0  0  0  0  0
    6.5205    2.3132   -0.1731 H   0  0  0  0  0  0  0  0  0  0  0  0
    4.2239    1.4546   -0.1618 H   0  0  0  0  0  0  0  0  0  0  0  0
    0.1906   -0.9418   -0.5016 H   0  0  0  0  0  0  0  0  0  0  0  0
   -0.5634    0.1517   -1.6732 H   0  0  0  0  0  0  0  0  0  0  0  0
   -2.3826    0.6656   -0.0874 H   0  0  0  0  0  0  0  0  0  0  0  0
   -2.2841   -1.0799   -0.4087 H   0  0  0  0  0  0  0  0  0  0  0  0
   -5.4808    0.1974    0.8929 H   0  0  0  0  0  0  0  0  0  0  0  0
   -7.0736   -1.3826   -0.1604 H   0  0  0  0  0  0  0  0  0  0  0  0
   -6.7251   -3.8295    0.0507 H   0  0  0  0  0  0  0  0  0  0  0  0
   -4.7873   -4.7113    1.3246 H   0  0  0  0  0  0  0  0  0  0  0  0
   -3.1811   -3.1428    2.3874 H   0  0  0  0  0  0  0  0  0  0  0  0
   -0.5906    0.3427    3.2083 H   0  0  0  0  0  0  0  0  0  0  0  0
    0.3647   -0.6733    2.1423 H   0  0  0  0  0  0  0  0  0  0  0  0
   -0.7269    2.1142    1.4214 H   0  0  0  0  0  0  0  0  0  0  0  0
    0.9356    1.7548    1.9069 H   0  0  0  0  0  0  0  0  0  0  0  0
  1  2  2  0
  2  3  1  0
  3  4  1  0
  4  5  1  0
  5  6  2  0
  6  7  1  0
  7  8  2  0
  8  9  1  0
  8 10  1  0
 10 11  2  0
  2 12  1  0
 12 13  1  0
 13 14  1  0
 14 15  1  0
 15 16  1  0
 16 17  2  0
 16 18  2  0
 16 19  1  0
 19 20  2  0
 20 21  1  0
 21 22  2  0
 22 23  1  0
 23 24  2  0
 15 25  1  0
 25 26  1  0
 11  5  1  0
 26 12  1  0
 24 19  1  0
  3 27  1  0
  3 28  1  0
  6 29  1  0
  7 30  1  0
 10 31  1  0
 11 32  1  0
 13 33  1  0
 13 34  1  0
 14 35  1  0
 14 36  1  0
 20 37  1  0
 21 38  1  0
 22 39  1  0
 23 40  1  0
 24 41  1  0
 25 42  1  0
 25 43  1  0
 26 44  1  0
 26 45  1  0
M  END
$$$$
