
     RDKit          3D

 29 30  0  0  0  0  0  0  0  0999 V2000
   -1.1099    1.1204   -1.7956 O   0  0  0  0  0  0  0  0  0  0  0  0
   -0.7424    0.5826   -0.7535 C   0  0  0  0  0  0  0  0  0  0  0  0
    0.5888    0.2419   -0.6441 N   0  0  0  0  0  0  0  0  0  0  0  0
    1.2547   -0.3091    0.4370 C   0  0  0  0  0  0  0  0  0  0  0  0
    0.7224   -0.5497    1.5162 O   0  0  0  0  0  0  0  0  0  0  0  0
    2.7065   -0.5745    0.2461 C   0  0  0  0  0  0  0  0  0  0  0  0
    3.2444   -0.9128   -1.0031 C   0  0  0  0  0  0  0  0  0  0  0  0
    4.6150   -1.1525   -1.1294 C   0  0  0  0  0  0  0  0  0  0  0  0
    5.4476   -1.0640   -0.0137 C   0  0  0  0  0  0  0  0  0  0  0  0
    4.9135   -0.7451    1.2340 C   0  0  0  0  0  0  0  0  0  0  0  0
    3.5449   -0.5056    1.3661 C   0  0  0  0  0  0  0  0  0  0  0  0
   -1.5220    0.2798    0.3204 N   0  0  0  0  0  0  0  0  0  0  0  0
   -2.8875    0.4895    0.4991 C   0  0  0  0  0  0  0  0  0  0  0  0
   -3.7214    1.0505   -0.4618 C   0  0  0  0  0  0  0  0  0  0  0  0
   -5.0793    1.2128   -0.1739 C   0  0  0  0  0  0  0  0  0  0  0  0
   -5.5636    0.8104    1.0616 C   0  0  0  0  0  0  0  0  0  0  0  0
   -7.2224    0.9907    1.4570 Cl  0  0  0  0  0  0  0  0  0  0  0  0
   -4.6688    0.2602    1.9619 C   0  0  0  0  0  0  0  0  0  0  0  0
   -3.3476    0.0922    1.7062 N   0  0  0  0  0  0  0  0  0  0  0  0
    1.1140    0.5202   -1.4587 H   0  0  0  0  0  0  0  0  0  0  0  0
    2.6162   -1.0258   -1.8821 H   0  0  0  0  0  0  0  0  0  0  0  0
    5.0348   -1.4197   -2.0967 H   0  0  0  0  0  0  0  0  0  0  0  0
    6.5137   -1.2547   -0.1143 H   0  0  0  0  0  0  0  0  0  0  0  0
    5.5614   -0.6872    2.1055 H   0  0  0  0  0  0  0  0  0  0  0  0
    3.1348   -0.2633    2.3450 H   0  0  0  0  0  0  0  0  0  0  0  0
   -1.0636   -0.1316    1.1305 H   0  0  0  0  0  0  0  0  0  0  0  0
   -3.3539    1.3673   -1.4305 H   0  0  0  0  0  0  0  0  0  0  0  0
   -5.7405    1.6501   -0.9162 H   0  0  0  0  0  0  0  0  0  0  0  0
   -4.9897   -0.0733    2.9444 H   0  0  0  0  0  0  0  0  0  0  0  0
  1  2  2  0
  2  3  1  0
  3  4  1  0
  4  5  2  0
  4  6  1  0
  6  7  2  0
  7  8  1  0
  8  9  2  0
  9 10  1  0
 10 11  2  0
  2 12  1  0
 12 13  1  0
 13 14  2  0
 14 15  1  0
 15 16  2  0
 16 17  1  0
 16 18  1  0
 18 19  2  0
 11  6  1  0
 19 13  1  0
  3 20  1  0
  7 21  1  0
  8 22  1  0
  9 23  1  0
 10 24  1  0
 11 25  1  0
 12 26  1  0
 14 27  1  0
 15 28  1  0
 18 29  1  0
M  END
$$$$
