
     RDKit          3D

 43 45  0  0  0  0  0  0  0  0999 V2000
    6.5105    0.4560    1.2439 C   0  0  0  0  0  0  0  0  0  0  0  0
    6.2165   -0.6815    0.4425 O   0  0  0  0  0  0  0  0  0  0  0  0
    4.9470   -0.7748   -0.0551 C   0  0  0  0  0  0  0  0  0  0  0  0
    3.9192    0.1459    0.1356 C   0  0  0  0  0  0  0  0  0  0  0  0
    2.6581   -0.0763   -0.4342 C   0  0  0  0  0  0  0  0  0  0  0  0
    2.4033   -1.2127   -1.2101 C   0  0  0  0  0  0  0  0  0  0  0  0
    1.1335   -1.5053   -1.7659 N   0  0  0  0  0  0  0  0  0  0  0  0
   -0.0735   -0.9402   -1.5141 C   0  0  0  0  0  0  0  0  0  0  0  0
   -1.0339   -0.6338   -2.4970 C   0  0  0  0  0  0  0  0  0  0  0  0
   -2.1320   -0.0988   -1.8557 C   0  0  0  0  0  0  0  0  0  0  0  0
   -3.3073    0.2698   -2.3615 O   0  0  0  0  0  0  0  0  0  0  0  0
   -1.8634   -0.0519   -0.4869 N   0  0  0  0  0  0  0  0  0  0  0  0
   -2.7425    0.4256    0.5346 C   0  0  0  0  0  0  0  0  0  0  0  0
   -2.9352   -0.3906    1.6647 C   0  0  0  0  0  0  0  0  0  0  0  0
   -3.8221    0.0071    2.6712 C   0  0  0  0  0  0  0  0  0  0  0  0
   -4.0352   -0.8563    3.8386 N   0  0  0  0  0  4  0  0  0  0  0  0
   -4.7217   -0.4077    4.7688 O   0  0  0  0  0  0  0  0  0  0  0  0
   -3.5225   -1.9846    3.8281 O   0  0  0  0  0  1  0  0  0  0  0  0
   -4.5199    1.2128    2.5688 C   0  0  0  0  0  0  0  0  0  0  0  0
   -4.3111    2.0319    1.4584 C   0  0  0  0  0  0  0  0  0  0  0  0
   -3.4084    1.6679    0.4396 C   0  0  0  0  0  0  0  0  0  0  0  0
   -3.1853    2.6692   -0.6630 C   0  0  0  0  0  0  0  0  0  0  0  0
   -0.6210   -0.6514   -0.2800 C   0  0  0  0  0  0  0  0  0  0  0  0
   -0.1207   -0.8484    0.9416 O   0  0  0  0  0  0  0  0  0  0  0  0
    3.4415   -2.1357   -1.3867 C   0  0  0  0  0  0  0  0  0  0  0  0
    4.7003   -1.9157   -0.8188 C   0  0  0  0  0  0  0  0  0  0  0  0
    7.5530    0.3769    1.5668 H   0  0  0  0  0  0  0  0  0  0  0  0
    6.4098    1.3814    0.6672 H   0  0  0  0  0  0  0  0  0  0  0  0
    5.8844    0.4789    2.1420 H   0  0  0  0  0  0  0  0  0  0  0  0
    4.0596    1.0494    0.7195 H   0  0  0  0  0  0  0  0  0  0  0  0
    1.8833    0.6708   -0.2773 H   0  0  0  0  0  0  0  0  0  0  0  0
    1.2633   -1.9285   -2.6836 H   0  0  0  0  0  0  0  0  0  0  0  0
   -0.9436   -0.7905   -3.5628 H   0  0  0  0  0  0  0  0  0  0  0  0
   -3.2885    0.0928   -3.3184 H   0  0  0  0  0  0  0  0  0  0  0  0
   -2.4226   -1.3480    1.7415 H   0  0  0  0  0  0  0  0  0  0  0  0
   -5.2183    1.5317    3.3394 H   0  0  0  0  0  0  0  0  0  0  0  0
   -4.8467    2.9787    1.3979 H   0  0  0  0  0  0  0  0  0  0  0  0
   -3.2538    3.6903   -0.2694 H   0  0  0  0  0  0  0  0  0  0  0  0
   -3.9437    2.5571   -1.4428 H   0  0  0  0  0  0  0  0  0  0  0  0
   -2.1858    2.5842   -1.0989 H   0  0  0  0  0  0  0  0  0  0  0  0
    0.7042   -1.3552    0.8103 H   0  0  0  0  0  0  0  0  0  0  0  0
    3.2782   -3.0455   -1.9588 H   0  0  0  0  0  0  0  0  0  0  0  0
    5.4930   -2.6449   -0.9680 H   0  0  0  0  0  0  0  0  0  0  0  0
  1  2  1  0
  2  3  1  0
  3  4  2  0
  4  5  1  0
  5  6  2  0
  6  7  1  0
  7  8  1  0
  8  9  1  0
  9 10  2  0
 10 11  1  0
 10 12  1  0
 12 13  1  0
 13 14  2  0
 14 15  1  0
 15 16  1  0
 16 17  2  0
 16 18  1  0
 15 19  2  0
 19 20  1  0
 20 21  2  0
 21 22  1  0
 12 23  1  0
 23 24  1  0
  6 25  1  0
 25 26  2  0
 26  3  1  0
 23  8  2  0
 21 13  1  0
  1 27  1  0
  1 28  1  0
  1 29  1  0
  4 30  1  0
  5 31  1  0
  7 32  1  0
  9 33  1  0
 11 34  1  0
 14 35  1  0
 19 36  1  0
 20 37  1  0
 22 38  1  0
 22 39  1  0
 22 40  1  0
 24 41  1  0
 25 42  1  0
 26 43  1  0
M  CHG  2  16   1  18  -1
M  END
$$$$
