
     RDKit          3D

 39 40  0  0  0  0  0  0  0  0999 V2000
   -3.9123   -1.7686   -0.4814 C   0  0  0  0  0  0  0  0  0  0  0  0
   -3.3814   -1.1335    0.7948 C   0  0  0  0  0  0  0  0  0  0  0  0
   -2.9270    0.2466    0.5992 N   0  0  0  0  0  0  0  0  0  0  0  0
   -3.8663    1.3198    0.9395 C   0  0  0  0  0  0  0  0  0  0  0  0
   -4.7455    1.7302   -0.2304 C   0  0  0  0  0  0  0  0  0  0  0  0
   -1.6695    0.4408    0.0319 C   0  0  0  0  0  0  0  0  0  0  0  0
   -0.9192   -0.5137   -0.2077 O   0  0  0  0  0  0  0  0  0  0  0  0
   -1.1886    1.8582   -0.2562 C   0  0  0  0  0  0  0  0  0  0  0  0
    0.0169    2.3420    1.0186 S   0  0  0  0  0  0  0  0  0  0  0  0
    1.4734    1.8411    0.2288 C   0  0  0  0  0  0  0  0  0  0  0  0
    2.1432    2.5395   -0.6534 N   0  0  0  0  0  0  0  0  0  0  0  0
    3.2105    1.7697   -1.0543 N   0  0  0  0  0  0  0  0  0  0  0  0
    3.1828    0.6132   -0.4019 C   0  0  0  0  0  0  0  0  0  0  0  0
    4.1562   -0.4698   -0.5840 C   0  0  0  0  0  0  0  0  0  0  0  0
    4.4217   -1.4337    0.3904 C   0  0  0  0  0  0  0  0  0  0  0  0
    5.3685   -2.4114    0.1240 C   0  0  0  0  0  0  0  0  0  0  0  0
    6.0663   -2.4905   -1.0274 N   0  0  0  0  0  0  0  0  0  0  0  0
    5.8103   -1.5442   -1.9529 C   0  0  0  0  0  0  0  0  0  0  0  0
    4.8829   -0.5304   -1.7789 C   0  0  0  0  0  0  0  0  0  0  0  0
    2.0691    0.6186    0.4209 N   0  0  0  0  0  0  0  0  0  0  0  0
    1.5627   -0.4617    1.2358 N   0  0  0  0  0  0  0  0  0  0  0  0
   -4.1985   -2.8083   -0.2938 H   0  0  0  0  0  0  0  0  0  0  0  0
   -4.7936   -1.2400   -0.8539 H   0  0  0  0  0  0  0  0  0  0  0  0
   -3.1590   -1.7617   -1.2754 H   0  0  0  0  0  0  0  0  0  0  0  0
   -2.5374   -1.7294    1.1622 H   0  0  0  0  0  0  0  0  0  0  0  0
   -4.1468   -1.1576    1.5779 H   0  0  0  0  0  0  0  0  0  0  0  0
   -4.4885    0.9936    1.7804 H   0  0  0  0  0  0  0  0  0  0  0  0
   -3.3056    2.1866    1.3015 H   0  0  0  0  0  0  0  0  0  0  0  0
   -5.4197    0.9198   -0.5208 H   0  0  0  0  0  0  0  0  0  0  0  0
   -4.1508    2.0001   -1.1083 H   0  0  0  0  0  0  0  0  0  0  0  0
   -5.3615    2.5920    0.0451 H   0  0  0  0  0  0  0  0  0  0  0  0
   -1.9970    2.5878   -0.2772 H   0  0  0  0  0  0  0  0  0  0  0  0
   -0.7415    1.8735   -1.2565 H   0  0  0  0  0  0  0  0  0  0  0  0
    3.9222   -1.4374    1.3521 H   0  0  0  0  0  0  0  0  0  0  0  0
    5.5990   -3.1784    0.8579 H   0  0  0  0  0  0  0  0  0  0  0  0
    6.3886   -1.6211   -2.8691 H   0  0  0  0  0  0  0  0  0  0  0  0
    4.7303    0.2016   -2.5668 H   0  0  0  0  0  0  0  0  0  0  0  0
    1.1283   -0.0851    2.0781 H   0  0  0  0  0  0  0  0  0  0  0  0
    0.7770   -0.8981    0.7320 H   0  0  0  0  0  0  0  0  0  0  0  0
  1  2  1  0
  2  3  1  0
  3  4  1  0
  4  5  1  0
  3  6  1  0
  6  7  2  0
  6  8  1  0
  8  9  1  0
  9 10  1  0
 10 11  2  0
 11 12  1  0
 12 13  2  0
 13 14  1  0
 14 15  2  0
 15 16  1  0
 16 17  2  0
 17 18  1  0
 18 19  2  0
 13 20  1  0
 20 21  1  0
 20 10  1  0
 19 14  1  0
  1 22  1  0
  1 23  1  0
  1 24  1  0
  2 25  1  0
  2 26  1  0
  4 27  1  0
  4 28  1  0
  5 29  1  0
  5 30  1  0
  5 31  1  0
  8 32  1  0
  8 33  1  0
 15 34  1  0
 16 35  1  0
 18 36  1  0
 19 37  1  0
 21 38  1  0
 21 39  1  0
M  END
$$$$
