
     RDKit          3D

 58 60  0  0  0  0  0  0  0  0999 V2000
   10.0599    1.4735   -0.6811 C   0  0  0  0  0  0  0  0  0  0  0  0
    8.7001    1.0832   -0.1259 C   0  0  0  0  0  0  0  0  0  0  0  0
    7.9134    0.2384   -1.1296 C   0  0  0  0  0  0  0  0  0  0  0  0
    6.5375   -0.1671   -0.6008 C   0  0  0  0  0  0  0  0  0  0  0  0
    5.7559    1.0097   -0.4006 O   0  0  0  0  0  0  0  0  0  0  0  0
    4.4319    0.8362   -0.1065 C   0  0  0  0  0  0  0  0  0  0  0  0
    3.8135   -0.3746    0.2074 C   0  0  0  0  0  0  0  0  0  0  0  0
    2.4393   -0.4165    0.4763 C   0  0  0  0  0  0  0  0  0  0  0  0
    1.6740    0.7567    0.4405 C   0  0  0  0  0  0  0  0  0  0  0  0
    0.2011    0.7362    0.6980 C   0  0  0  0  0  0  0  0  0  0  0  0
   -0.4341    1.7794    0.6175 O   0  0  0  0  0  0  0  0  0  0  0  0
   -0.3343   -0.5001    0.9715 N   0  0  0  0  0  0  0  0  0  0  0  0
   -1.5357   -0.5866    1.4662 C   0  0  0  0  0  0  0  0  0  0  0  0
   -2.1335   -1.9491    1.7442 C   0  0  0  0  0  0  0  0  0  0  0  0
   -3.3763   -2.2079    0.9251 C   0  0  0  0  0  0  0  0  0  0  0  0
   -3.2821   -2.3574   -0.4681 C   0  0  0  0  0  0  0  0  0  0  0  0
   -4.4340   -2.4970   -1.2448 C   0  0  0  0  0  0  0  0  0  0  0  0
   -5.6880   -2.4963   -0.6228 C   0  0  0  0  0  0  0  0  0  0  0  0
   -6.9026   -2.6075   -1.4372 N   0  0  0  0  0  4  0  0  0  0  0  0
   -6.7850   -2.4942   -2.6662 O   0  0  0  0  0  0  0  0  0  0  0  0
   -7.9766   -2.8096   -0.8508 O   0  0  0  0  0  1  0  0  0  0  0  0
   -5.7961   -2.3721    0.7673 C   0  0  0  0  0  0  0  0  0  0  0  0
   -4.6396   -2.2278    1.5373 C   0  0  0  0  0  0  0  0  0  0  0  0
   -2.4353    0.5815    1.8209 C   0  0  0  0  0  0  0  0  0  0  0  0
   -2.4627    1.0534    2.9411 O   0  0  0  0  0  0  0  0  0  0  0  0
   -3.1924    0.8770    0.7521 O   0  0  0  0  0  0  0  0  0  0  0  0
   -4.1798    1.8825    0.9741 C   0  0  0  0  0  0  0  0  0  0  0  0
   -5.2772    1.5854    0.0189 C   0  0  0  0  0  0  0  0  0  0  0  0
   -5.3545    1.5639   -1.3587 C   0  0  0  0  0  0  0  0  0  0  0  0
   -6.6794    1.1845   -1.6808 C   0  0  0  0  0  0  0  0  0  0  0  0
   -7.3288    1.0065   -0.4819 C   0  0  0  0  0  0  0  0  0  0  0  0
   -6.4846    1.2417    0.5559 O   0  0  0  0  0  0  0  0  0  0  0  0
    2.3007    1.9720    0.1409 C   0  0  0  0  0  0  0  0  0  0  0  0
    3.6723    2.0074   -0.1240 C   0  0  0  0  0  0  0  0  0  0  0  0
   10.6611    0.5874   -0.9040 H   0  0  0  0  0  0  0  0  0  0  0  0
   10.6065    2.0834    0.0435 H   0  0  0  0  0  0  0  0  0  0  0  0
    9.9517    2.0544   -1.6020 H   0  0  0  0  0  0  0  0  0  0  0  0
    8.1446    1.9936    0.1236 H   0  0  0  0  0  0  0  0  0  0  0  0
    8.8373    0.5225    0.8056 H   0  0  0  0  0  0  0  0  0  0  0  0
    7.7864    0.8132   -2.0547 H   0  0  0  0  0  0  0  0  0  0  0  0
    8.4830   -0.6648   -1.3762 H   0  0  0  0  0  0  0  0  0  0  0  0
    6.6484   -0.7108    0.3440 H   0  0  0  0  0  0  0  0  0  0  0  0
    6.0617   -0.8161   -1.3465 H   0  0  0  0  0  0  0  0  0  0  0  0
    4.3705   -1.3050    0.2524 H   0  0  0  0  0  0  0  0  0  0  0  0
    1.9788   -1.3719    0.7128 H   0  0  0  0  0  0  0  0  0  0  0  0
   -2.3537   -2.0125    2.8167 H   0  0  0  0  0  0  0  0  0  0  0  0
   -1.3922   -2.7284    1.5297 H   0  0  0  0  0  0  0  0  0  0  0  0
   -2.3105   -2.3356   -0.9597 H   0  0  0  0  0  0  0  0  0  0  0  0
   -4.3386   -2.5912   -2.3245 H   0  0  0  0  0  0  0  0  0  0  0  0
   -6.7672   -2.3626    1.2599 H   0  0  0  0  0  0  0  0  0  0  0  0
   -4.7370   -2.1063    2.6152 H   0  0  0  0  0  0  0  0  0  0  0  0
   -3.7442    2.8626    0.7567 H   0  0  0  0  0  0  0  0  0  0  0  0
   -4.5587    1.8707    2.0018 H   0  0  0  0  0  0  0  0  0  0  0  0
   -4.5467    1.7854   -2.0427 H   0  0  0  0  0  0  0  0  0  0  0  0
   -7.1100    1.0552   -2.6639 H   0  0  0  0  0  0  0  0  0  0  0  0
   -8.3356    0.7197   -0.2102 H   0  0  0  0  0  0  0  0  0  0  0  0
    1.7265    2.8960    0.1054 H   0  0  0  0  0  0  0  0  0  0  0  0
    4.1510    2.9556   -0.3583 H   0  0  0  0  0  0  0  0  0  0  0  0
  1  2  1  0
  2  3  1  0
  3  4  1  0
  4  5  1  0
  5  6  1  0
  6  7  2  0
  7  8  1  0
  8  9  2  0
  9 10  1  0
 10 11  2  0
 10 12  1  0
 12 13  2  3
 13 14  1  0
 14 15  1  0
 15 16  2  0
 16 17  1  0
 17 18  2  0
 18 19  1  0
 19 20  2  0
 19 21  1  0
 18 22  1  0
 22 23  2  0
 13 24  1  0
 24 25  2  0
 24 26  1  0
 26 27  1  0
 27 28  1  0
 28 29  2  0
 29 30  1  0
 30 31  2  0
 31 32  1  0
  9 33  1  0
 33 34  2  0
 34  6  1  0
 23 15  1  0
 32 28  1  0
  1 35  1  0
  1 36  1  0
  1 37  1  0
  2 38  1  0
  2 39  1  0
  3 40  1  0
  3 41  1  0
  4 42  1  0
  4 43  1  0
  7 44  1  0
  8 45  1  0
 14 46  1  0
 14 47  1  0
 16 48  1  0
 17 49  1  0
 22 50  1  0
 23 51  1  0
 27 52  1  0
 27 53  1  0
 29 54  1  0
 30 55  1  0
 31 56  1  0
 33 57  1  0
 34 58  1  0
M  CHG  2  19   1  21  -1
M  END
$$$$
