
     RDKit          3D

 42 44  0  0  0  0  0  0  0  0999 V2000
    3.8934   -0.6046    4.3685 N   0  0  0  0  0  0  0  0  0  0  0  0
    4.1197   -0.9198    3.2745 C   0  0  0  0  0  0  0  0  0  0  0  0
    4.3856   -1.2996    1.9255 C   0  0  0  0  0  0  0  0  0  0  0  0
    5.6902   -1.8119    1.6611 C   0  0  0  0  0  0  0  0  0  0  0  0
    6.7489   -2.2287    1.4317 N   0  0  0  0  0  0  0  0  0  0  0  0
    3.4603   -1.1741    0.9396 C   0  0  0  0  0  0  0  0  0  0  0  0
    2.1187   -0.6240    1.1681 C   0  0  0  0  0  0  0  0  0  0  0  0
    1.1455   -0.6069    0.2369 C   0  0  0  0  0  0  0  0  0  0  0  0
   -0.1611   -0.0346    0.5319 C   0  0  0  0  0  0  0  0  0  0  0  0
   -1.2313   -0.0876   -0.2905 C   0  0  0  0  0  0  0  0  0  0  0  0
   -2.4878    0.4816    0.0001 N   0  0  0  0  0  0  0  0  0  0  0  0
   -3.3881    0.9887   -1.0553 C   0  0  0  0  0  0  0  0  0  0  0  0
   -3.2340    2.5078   -1.1574 C   0  0  0  0  0  0  0  0  0  0  0  0
   -3.4982    3.1847    0.1889 C   0  0  0  0  0  0  0  0  0  0  0  0
   -2.6713    2.5478    1.3076 C   0  0  0  0  0  0  0  0  0  0  0  0
   -2.8510    1.0305    1.3202 C   0  0  0  0  0  0  0  0  0  0  0  0
   -1.1084   -0.8485   -1.6062 C   0  0  0  0  0  0  0  0  0  0  0  0
    0.0529   -1.8431   -1.6414 C   0  0  0  0  0  0  0  0  0  0  0  0
    1.3403   -1.1827   -1.1480 C   0  0  0  0  0  0  0  0  0  0  0  0
    2.5042   -2.1793   -1.1797 C   0  0  0  0  0  0  0  0  0  0  0  0
    3.7373   -1.5832   -0.5023 C   0  0  0  0  0  0  0  0  0  0  0  0
    1.8968   -0.2096    2.1511 H   0  0  0  0  0  0  0  0  0  0  0  0
   -0.2392    0.4844    1.4818 H   0  0  0  0  0  0  0  0  0  0  0  0
   -3.1943    0.5373   -2.0326 H   0  0  0  0  0  0  0  0  0  0  0  0
   -4.4241    0.7322   -0.8008 H   0  0  0  0  0  0  0  0  0  0  0  0
   -2.2175    2.7522   -1.4905 H   0  0  0  0  0  0  0  0  0  0  0  0
   -3.9252    2.9019   -1.9105 H   0  0  0  0  0  0  0  0  0  0  0  0
   -3.2718    4.2544    0.1199 H   0  0  0  0  0  0  0  0  0  0  0  0
   -4.5641    3.0976    0.4334 H   0  0  0  0  0  0  0  0  0  0  0  0
   -1.6132    2.7968    1.1616 H   0  0  0  0  0  0  0  0  0  0  0  0
   -2.9728    2.9670    2.2738 H   0  0  0  0  0  0  0  0  0  0  0  0
   -3.8997    0.7847    1.5325 H   0  0  0  0  0  0  0  0  0  0  0  0
   -2.2749    0.5757    2.1325 H   0  0  0  0  0  0  0  0  0  0  0  0
   -0.9875   -0.1240   -2.4215 H   0  0  0  0  0  0  0  0  0  0  0  0
   -2.0289   -1.4135   -1.7984 H   0  0  0  0  0  0  0  0  0  0  0  0
   -0.1934   -2.7123   -1.0163 H   0  0  0  0  0  0  0  0  0  0  0  0
    0.1820   -2.2158   -2.6647 H   0  0  0  0  0  0  0  0  0  0  0  0
    1.5823   -0.3489   -1.8231 H   0  0  0  0  0  0  0  0  0  0  0  0
    2.7438   -2.4380   -2.2182 H   0  0  0  0  0  0  0  0  0  0  0  0
    2.2256   -3.1146   -0.6755 H   0  0  0  0  0  0  0  0  0  0  0  0
    4.5423   -2.3226   -0.5709 H   0  0  0  0  0  0  0  0  0  0  0  0
    4.0681   -0.6975   -1.0607 H   0  0  0  0  0  0  0  0  0  0  0  0
  1  2  3  0
  2  3  1  0
  3  4  1  0
  4  5  3  0
  3  6  2  3
  6  7  1  0
  7  8  2  0
  8  9  1  0
  9 10  2  0
 10 11  1  0
 11 12  1  0
 12 13  1  0
 13 14  1  0
 14 15  1  0
 15 16  1  0
 10 17  1  0
 17 18  1  0
 18 19  1  0
 19 20  1  0
 20 21  1  0
 21  6  1  0
 19  8  1  0
 16 11  1  0
  7 22  1  0
  9 23  1  0
 12 24  1  0
 12 25  1  0
 13 26  1  0
 13 27  1  0
 14 28  1  0
 14 29  1  0
 15 30  1  0
 15 31  1  0
 16 32  1  0
 16 33  1  0
 17 34  1  0
 17 35  1  0
 18 36  1  0
 18 37  1  0
 19 38  1  0
 20 39  1  0
 20 40  1  0
 21 41  1  0
 21 42  1  0
M  END
$$$$
