
     RDKit          3D

 55 59  0  0  0  0  0  0  0  0999 V2000
   -8.1200    3.6617    0.7874 C   0  0  0  0  0  0  0  0  0  0  0  0
   -7.0739    2.5870    0.7766 C   0  0  0  0  0  0  0  0  0  0  0  0
   -6.9955    1.6930   -0.2957 C   0  0  0  0  0  0  0  0  0  0  0  0
   -6.0050    0.7085   -0.3281 C   0  0  0  0  0  0  0  0  0  0  0  0
   -5.0739    0.6011    0.7119 C   0  0  0  0  0  0  0  0  0  0  0  0
   -3.9867   -0.4428    0.6637 C   0  0  0  0  0  0  0  0  0  0  0  0
   -2.4896    0.2194   -0.1259 S   0  0  0  0  0  0  0  0  0  0  0  0
   -1.3651   -1.0916    0.2084 C   0  0  0  0  0  0  0  0  0  0  0  0
   -1.8431   -2.2978    0.3344 N   0  0  0  0  0  0  0  0  0  0  0  0
   -0.9630   -3.3730    0.5982 C   0  0  0  0  0  0  0  0  0  0  0  0
   -1.4863   -4.6618    0.7117 C   0  0  0  0  0  0  0  0  0  0  0  0
   -0.6443   -5.7462    0.9743 C   0  0  0  0  0  0  0  0  0  0  0  0
    0.7295   -5.5481    1.1252 C   0  0  0  0  0  0  0  0  0  0  0  0
    1.2671   -4.2656    1.0129 C   0  0  0  0  0  0  0  0  0  0  0  0
    0.4229   -3.1843    0.7498 C   0  0  0  0  0  0  0  0  0  0  0  0
    0.9135   -1.8265    0.6098 C   0  0  0  0  0  0  0  0  0  0  0  0
    2.1447   -1.3731    0.7177 N   0  0  0  0  0  0  0  0  0  0  0  0
    2.0562   -0.0239    0.4571 C   0  0  0  0  0  0  0  0  0  0  0  0
    3.2729    0.8285    0.4541 C   0  0  0  0  0  0  0  0  0  0  0  0
    4.0060    0.7463   -0.8744 C   0  0  0  0  0  0  0  0  0  0  0  0
    3.4485    0.8426   -1.9650 O   0  0  0  0  0  0  0  0  0  0  0  0
    5.3713    0.5764   -0.7516 N   0  0  0  0  0  0  0  0  0  0  0  0
    6.2429    0.6018   -1.9024 C   0  0  0  0  0  0  0  0  0  0  0  0
    6.8144    1.9638   -2.0254 C   0  0  0  0  0  0  0  0  0  0  0  0
    6.4857    3.0614   -2.7927 C   0  0  0  0  0  0  0  0  0  0  0  0
    7.4131    4.0755   -2.4565 C   0  0  0  0  0  0  0  0  0  0  0  0
    8.2468    3.5329   -1.5061 C   0  0  0  0  0  0  0  0  0  0  0  0
    7.8867    2.2535   -1.2311 O   0  0  0  0  0  0  0  0  0  0  0  0
    0.7425    0.3545    0.2396 C   0  0  0  0  0  0  0  0  0  0  0  0
    0.2439    1.5657   -0.0043 O   0  0  0  0  0  0  0  0  0  0  0  0
    0.0101   -0.8208    0.3291 N   0  0  0  0  0  0  0  0  0  0  0  0
   -5.1450    1.5082    1.7794 C   0  0  0  0  0  0  0  0  0  0  0  0
   -6.1354    2.4930    1.8100 C   0  0  0  0  0  0  0  0  0  0  0  0
   -9.0889    3.2582    0.4766 H   0  0  0  0  0  0  0  0  0  0  0  0
   -8.2471    4.0804    1.7905 H   0  0  0  0  0  0  0  0  0  0  0  0
   -7.8324    4.4717    0.1089 H   0  0  0  0  0  0  0  0  0  0  0  0
   -7.7006    1.7639   -1.1208 H   0  0  0  0  0  0  0  0  0  0  0  0
   -5.9584    0.0322   -1.1791 H   0  0  0  0  0  0  0  0  0  0  0  0
   -3.7560   -0.7737    1.6843 H   0  0  0  0  0  0  0  0  0  0  0  0
   -4.3417   -1.3190    0.1105 H   0  0  0  0  0  0  0  0  0  0  0  0
   -2.5544   -4.8218    0.5913 H   0  0  0  0  0  0  0  0  0  0  0  0
   -1.0610   -6.7471    1.0592 H   0  0  0  0  0  0  0  0  0  0  0  0
    1.3833   -6.3934    1.3273 H   0  0  0  0  0  0  0  0  0  0  0  0
    2.3380   -4.1091    1.1250 H   0  0  0  0  0  0  0  0  0  0  0  0
    3.0185    1.8792    0.6302 H   0  0  0  0  0  0  0  0  0  0  0  0
    3.9305    0.5143    1.2724 H   0  0  0  0  0  0  0  0  0  0  0  0
    5.8075    0.7045    0.1507 H   0  0  0  0  0  0  0  0  0  0  0  0
    7.0350   -0.1331   -1.7311 H   0  0  0  0  0  0  0  0  0  0  0  0
    5.7001    0.3195   -2.8095 H   0  0  0  0  0  0  0  0  0  0  0  0
    5.6708    3.1162   -3.5020 H   0  0  0  0  0  0  0  0  0  0  0  0
    7.4682    5.0780   -2.8557 H   0  0  0  0  0  0  0  0  0  0  0  0
    9.0953    3.9090   -0.9511 H   0  0  0  0  0  0  0  0  0  0  0  0
   -0.7094    1.5087   -0.2097 H   0  0  0  0  0  0  0  0  0  0  0  0
   -4.4251    1.4593    2.5953 H   0  0  0  0  0  0  0  0  0  0  0  0
   -6.1639    3.1914    2.6449 H   0  0  0  0  0  0  0  0  0  0  0  0
  1  2  1  0
  2  3  2  0
  3  4  1  0
  4  5  2  0
  5  6  1  0
  6  7  1  0
  7  8  1  0
  8  9  2  0
  9 10  1  0
 10 11  2  0
 11 12  1  0
 12 13  2  0
 13 14  1  0
 14 15  2  0
 15 16  1  0
 16 17  2  0
 17 18  1  0
 18 19  1  0
 19 20  1  0
 20 21  2  0
 20 22  1  0
 22 23  1  0
 23 24  1  0
 24 25  2  0
 25 26  1  0
 26 27  2  0
 27 28  1  0
 18 29  2  0
 29 30  1  0
 29 31  1  0
  5 32  1  0
 32 33  2  0
 33  2  1  0
 31  8  1  0
 15 10  1  0
 31 16  1  0
 28 24  1  0
  1 34  1  0
  1 35  1  0
  1 36  1  0
  3 37  1  0
  4 38  1  0
  6 39  1  0
  6 40  1  0
 11 41  1  0
 12 42  1  0
 13 43  1  0
 14 44  1  0
 19 45  1  0
 19 46  1  0
 22 47  1  0
 23 48  1  0
 23 49  1  0
 25 50  1  0
 26 51  1  0
 27 52  1  0
 30 53  1  0
 32 54  1  0
 33 55  1  0
M  END
$$$$
