
     RDKit          3D

 63 66  0  0  0  0  0  0  0  0999 V2000
    8.2214    3.4039    1.2959 C   0  0  0  0  0  0  0  0  0  0  0  0
    8.2158    2.7243    0.0398 O   0  0  0  0  0  0  0  0  0  0  0  0
    7.2232    1.7803    0.0058 C   0  0  0  0  0  0  0  0  0  0  0  0
    5.9060    2.1815   -0.2077 C   0  0  0  0  0  0  0  0  0  0  0  0
    4.8934    1.2221   -0.2914 C   0  0  0  0  0  0  0  0  0  0  0  0
    5.1873   -0.1438   -0.1779 C   0  0  0  0  0  0  0  0  0  0  0  0
    4.1018   -1.0387   -0.2757 N   0  0  0  0  0  0  0  0  0  0  0  0
    4.1344   -2.4163   -0.2033 C   0  0  0  0  0  0  0  0  0  0  0  0
    5.1198   -3.1236   -0.0322 O   0  0  0  0  0  0  0  0  0  0  0  0
    2.8089   -3.0360   -0.3602 C   0  0  0  0  0  0  0  0  0  0  0  0
    2.5145   -4.3453   -0.2876 C   0  0  0  0  0  0  0  0  0  0  0  0
    1.1799   -4.6359   -0.4934 N   0  0  0  0  0  0  0  0  0  0  0  0
    0.5565   -3.3971   -0.5995 N   0  0  0  0  0  0  0  0  0  0  0  0
   -0.7897   -3.1934   -0.7230 C   0  0  0  0  0  0  0  0  0  0  0  0
   -1.6643   -4.0493   -0.7010 O   0  0  0  0  0  0  0  0  0  0  0  0
   -1.1115   -1.7530   -0.8725 C   0  0  0  0  0  0  0  0  0  0  0  0
   -0.1312   -0.8261   -0.8389 C   0  0  0  0  0  0  0  0  0  0  0  0
   -0.3960    0.6765   -1.0011 C   0  0  0  0  0  0  0  0  0  0  0  0
   -1.6069    1.0553   -1.8858 C   0  0  0  0  0  0  0  0  0  0  0  0
   -2.8022    1.6056   -1.1023 C   0  0  0  0  0  0  0  0  0  0  0  0
   -2.9403    0.9664    0.1989 N   0  0  0  0  0  0  0  0  0  0  0  0
   -4.1572    0.5684    0.7337 C   0  0  0  0  0  0  0  0  0  0  0  0
   -4.2790    0.1555    1.8807 O   0  0  0  0  0  0  0  0  0  0  0  0
   -5.1738    0.6826   -0.1573 O   0  0  0  0  0  0  0  0  0  0  0  0
   -6.5274    0.2997    0.1976 C   0  0  0  0  0  0  0  0  0  0  0  0
   -6.6191   -1.1974    0.5113 C   0  0  0  0  0  0  0  0  0  0  0  0
   -7.0723    1.1607    1.3423 C   0  0  0  0  0  0  0  0  0  0  0  0
   -7.3556    0.5869   -1.0643 C   0  0  0  0  0  0  0  0  0  0  0  0
   -1.7892    1.0055    1.0922 C   0  0  0  0  0  0  0  0  0  0  0  0
   -0.4897    1.3612    0.3718 C   0  0  0  0  0  0  0  0  0  0  0  0
    1.2135   -1.1337   -0.6638 N   0  0  0  0  0  0  0  0  0  0  0  0
    1.4962   -2.3893   -0.5606 C   0  0  0  0  0  0  0  0  0  0  0  0
    6.5137   -0.5387    0.0155 C   0  0  0  0  0  0  0  0  0  0  0  0
    7.5300    0.4201    0.0995 C   0  0  0  0  0  0  0  0  0  0  0  0
    9.1565   -0.1132    0.3322 Cl  0  0  0  0  0  0  0  0  0  0  0  0
    9.1255    4.0209    1.3391 H   0  0  0  0  0  0  0  0  0  0  0  0
    7.3543    4.0695    1.3831 H   0  0  0  0  0  0  0  0  0  0  0  0
    8.2499    2.6986    2.1375 H   0  0  0  0  0  0  0  0  0  0  0  0
    5.6659    3.2343   -0.3230 H   0  0  0  0  0  0  0  0  0  0  0  0
    3.8713    1.5589   -0.4548 H   0  0  0  0  0  0  0  0  0  0  0  0
    3.1875   -0.6132   -0.4281 H   0  0  0  0  0  0  0  0  0  0  0  0
    3.2058   -5.1553   -0.0903 H   0  0  0  0  0  0  0  0  0  0  0  0
    0.7554   -5.2593    0.1952 H   0  0  0  0  0  0  0  0  0  0  0  0
   -2.1618   -1.5225   -0.9914 H   0  0  0  0  0  0  0  0  0  0  0  0
    0.4884    1.0863   -1.5135 H   0  0  0  0  0  0  0  0  0  0  0  0
   -1.2971    1.8270   -2.6035 H   0  0  0  0  0  0  0  0  0  0  0  0
   -1.9266    0.2099   -2.5070 H   0  0  0  0  0  0  0  0  0  0  0  0
   -2.6718    2.6802   -0.9171 H   0  0  0  0  0  0  0  0  0  0  0  0
   -3.7074    1.5030   -1.7095 H   0  0  0  0  0  0  0  0  0  0  0  0
   -6.1479   -1.7902   -0.2807 H   0  0  0  0  0  0  0  0  0  0  0  0
   -6.1045   -1.4543    1.4420 H   0  0  0  0  0  0  0  0  0  0  0  0
   -7.6613   -1.5196    0.6153 H   0  0  0  0  0  0  0  0  0  0  0  0
   -8.1461    0.9986    1.4866 H   0  0  0  0  0  0  0  0  0  0  0  0
   -6.9044    2.2247    1.1427 H   0  0  0  0  0  0  0  0  0  0  0  0
   -6.5794    0.9379    2.2933 H   0  0  0  0  0  0  0  0  0  0  0  0
   -8.4115    0.3313   -0.9235 H   0  0  0  0  0  0  0  0  0  0  0  0
   -6.9720    0.0191   -1.9199 H   0  0  0  0  0  0  0  0  0  0  0  0
   -7.2894    1.6452   -1.3426 H   0  0  0  0  0  0  0  0  0  0  0  0
   -1.9905    1.7417    1.8818 H   0  0  0  0  0  0  0  0  0  0  0  0
   -1.7041    0.0277    1.5842 H   0  0  0  0  0  0  0  0  0  0  0  0
   -0.4494    2.4490    0.2229 H   0  0  0  0  0  0  0  0  0  0  0  0
    0.3674    1.1102    1.0081 H   0  0  0  0  0  0  0  0  0  0  0  0
    6.7866   -1.5854    0.0978 H   0  0  0  0  0  0  0  0  0  0  0  0
  1  2  1  0
  2  3  1  0
  3  4  2  0
  4  5  1  0
  5  6  2  0
  6  7  1  0
  7  8  1  0
  8  9  2  0
  8 10  1  0
 10 11  2  0
 11 12  1  0
 12 13  1  0
 13 14  1  0
 14 15  2  0
 14 16  1  0
 16 17  2  0
 17 18  1  0
 18 19  1  0
 19 20  1  0
 20 21  1  0
 21 22  1  0
 22 23  2  0
 22 24  1  0
 24 25  1  0
 25 26  1  0
 25 27  1  0
 25 28  1  0
 21 29  1  0
 29 30  1  0
 17 31  1  0
 31 32  2  0
  6 33  1  0
 33 34  2  0
 34 35  1  0
 34  3  1  0
 32 10  1  0
 32 13  1  0
 30 18  1  0
  1 36  1  0
  1 37  1  0
  1 38  1  0
  4 39  1  0
  5 40  1  0
  7 41  1  0
 11 42  1  0
 12 43  1  0
 16 44  1  0
 18 45  1  0
 19 46  1  0
 19 47  1  0
 20 48  1  0
 20 49  1  0
 26 50  1  0
 26 51  1  0
 26 52  1  0
 27 53  1  0
 27 54  1  0
 27 55  1  0
 28 56  1  0
 28 57  1  0
 28 58  1  0
 29 59  1  0
 29 60  1  0
 30 61  1  0
 30 62  1  0
 33 63  1  0
M  END
$$$$
