
     RDKit          3D

 35 37  0  0  0  0  0  0  0  0999 V2000
   -1.9981   -2.5477   -0.3976 C   0  0  0  0  0  0  0  0  0  0  0  0
   -1.2012   -1.3108   -0.1506 C   0  0  0  0  0  0  0  0  0  0  0  0
    0.1070   -1.2933   -0.1991 N   0  0  0  0  0  0  0  0  0  0  0  0
    0.4743    0.0073    0.1340 N   0  0  0  0  0  0  0  0  0  0  0  0
    1.7961    0.3749    0.1943 C   0  0  0  0  0  0  0  0  0  0  0  0
    2.3269    1.5415    0.4892 N   0  0  0  0  0  0  0  0  0  0  0  0
    3.6862    1.3648    0.4030 C   0  0  0  0  0  0  0  0  0  0  0  0
    4.7256    2.2810    0.6171 C   0  0  0  0  0  0  0  0  0  0  0  0
    6.0478    1.8445    0.4628 C   0  0  0  0  0  0  0  0  0  0  0  0
    6.3285    0.5235    0.1028 C   0  0  0  0  0  0  0  0  0  0  0  0
    5.3042   -0.4057   -0.1153 C   0  0  0  0  0  0  0  0  0  0  0  0
    3.9973    0.0577    0.0458 C   0  0  0  0  0  0  0  0  0  0  0  0
    2.7764   -0.5465   -0.0798 N   0  0  0  0  0  0  0  0  0  0  0  0
   -0.5830    0.8786    0.4116 C   0  0  0  0  0  0  0  0  0  0  0  0
   -0.6310    2.0489    0.7415 O   0  0  0  0  0  0  0  0  0  0  0  0
   -1.7628    0.0055    0.1861 C   0  0  0  0  0  0  0  0  0  0  0  0
   -3.0179    0.4483    0.3137 C   0  0  0  0  0  0  0  0  0  0  0  0
   -4.2384   -0.1852    0.0840 N   0  0  0  0  0  0  0  0  0  0  0  0
   -4.5983   -0.5549   -1.2952 C   0  0  0  0  0  0  0  0  0  0  0  0
   -5.4107    0.2717    0.8499 C   0  0  0  0  0  0  0  0  0  0  0  0
   -2.9139   -2.5552    0.1963 H   0  0  0  0  0  0  0  0  0  0  0  0
   -1.4056   -3.4240   -0.1173 H   0  0  0  0  0  0  0  0  0  0  0  0
   -2.2402   -2.6199   -1.4606 H   0  0  0  0  0  0  0  0  0  0  0  0
    4.4986    3.3038    0.8964 H   0  0  0  0  0  0  0  0  0  0  0  0
    6.8633    2.5451    0.6261 H   0  0  0  0  0  0  0  0  0  0  0  0
    7.3647    0.2107   -0.0102 H   0  0  0  0  0  0  0  0  0  0  0  0
    5.5223   -1.4305   -0.3943 H   0  0  0  0  0  0  0  0  0  0  0  0
    2.5851   -1.5049   -0.3284 H   0  0  0  0  0  0  0  0  0  0  0  0
   -3.1606    1.4705    0.6725 H   0  0  0  0  0  0  0  0  0  0  0  0
   -3.7252   -0.8612   -1.8781 H   0  0  0  0  0  0  0  0  0  0  0  0
   -5.0613    0.2943   -1.8103 H   0  0  0  0  0  0  0  0  0  0  0  0
   -5.3066   -1.3899   -1.2881 H   0  0  0  0  0  0  0  0  0  0  0  0
   -5.1635    0.3554    1.9139 H   0  0  0  0  0  0  0  0  0  0  0  0
   -5.7534    1.2479    0.4901 H   0  0  0  0  0  0  0  0  0  0  0  0
   -6.2327   -0.4463    0.7583 H   0  0  0  0  0  0  0  0  0  0  0  0
  1  2  1  0
  2  3  2  0
  3  4  1  0
  4  5  1  0
  5  6  2  0
  6  7  1  0
  7  8  2  0
  8  9  1  0
  9 10  2  0
 10 11  1  0
 11 12  2  0
 12 13  1  0
  4 14  1  0
 14 15  2  0
 14 16  1  0
 16 17  2  3
 17 18  1  0
 18 19  1  0
 18 20  1  0
 16  2  1  0
 13  5  1  0
 12  7  1  0
  1 21  1  0
  1 22  1  0
  1 23  1  0
  8 24  1  0
  9 25  1  0
 10 26  1  0
 11 27  1  0
 13 28  1  0
 17 29  1  0
 19 30  1  0
 19 31  1  0
 19 32  1  0
 20 33  1  0
 20 34  1  0
 20 35  1  0
M  END
$$$$
