
     RDKit          3D

 55 58  0  0  0  0  0  0  0  0999 V2000
   -6.6098   -3.4923    1.8078 C   0  0  0  0  0  0  0  0  0  0  0  0
   -7.3639   -2.2809    1.2712 C   0  0  0  0  0  0  0  0  0  0  0  0
   -8.1206   -2.6366   -0.0030 C   0  0  0  0  0  0  0  0  0  0  0  0
   -6.4249   -1.2445    0.9292 O   0  0  0  0  0  0  0  0  0  0  0  0
   -6.0305   -0.4351    1.9437 C   0  0  0  0  0  0  0  0  0  0  0  0
   -6.4078   -0.5005    3.1037 O   0  0  0  0  0  0  0  0  0  0  0  0
   -5.0477    0.5707    1.4556 C   0  0  0  0  0  0  0  0  0  0  0  0
   -4.5412    1.5003    2.3733 C   0  0  0  0  0  0  0  0  0  0  0  0
   -3.6071    2.4573    1.9677 C   0  0  0  0  0  0  0  0  0  0  0  0
   -3.1715    2.5042    0.6368 C   0  0  0  0  0  0  0  0  0  0  0  0
   -2.1367    3.5113    0.2045 C   0  0  0  0  0  0  0  0  0  0  0  0
   -0.8344    3.0195    0.5428 O   0  0  0  0  0  0  0  0  0  0  0  0
   -0.1682    2.3896   -0.4541 C   0  0  0  0  0  0  0  0  0  0  0  0
   -0.5533    2.2520   -1.6038 O   0  0  0  0  0  0  0  0  0  0  0  0
    1.1341    1.8650    0.0410 C   0  0  0  0  0  0  0  0  0  0  0  0
    1.5284    1.9813    1.3790 C   0  0  0  0  0  0  0  0  0  0  0  0
    2.7560    1.4658    1.7938 C   0  0  0  0  0  0  0  0  0  0  0  0
    3.5946    0.8297    0.8760 C   0  0  0  0  0  0  0  0  0  0  0  0
    3.2196    0.6981   -0.4690 C   0  0  0  0  0  0  0  0  0  0  0  0
    4.0751    0.0315   -1.4428 C   0  0  0  0  0  0  0  0  0  0  0  0
    3.8922   -0.1752   -2.7309 N   0  0  0  0  0  0  0  0  0  0  0  0
    5.0030   -0.8598   -3.1808 N   0  0  0  0  0  0  0  0  0  0  0  0
    5.7896   -1.0262   -2.1365 C   0  0  0  0  0  0  0  0  0  0  0  0
    7.0866   -1.6828   -2.0342 C   0  0  0  0  0  0  0  0  0  0  0  0
    7.6595   -2.2679   -3.1738 C   0  0  0  0  0  0  0  0  0  0  0  0
    8.9019   -2.9036   -3.1049 C   0  0  0  0  0  0  0  0  0  0  0  0
    9.5887   -2.9614   -1.8947 C   0  0  0  0  0  0  0  0  0  0  0  0
    9.0349   -2.3859   -0.7535 C   0  0  0  0  0  0  0  0  0  0  0  0
    7.7913   -1.7509   -0.8224 C   0  0  0  0  0  0  0  0  0  0  0  0
    5.2639   -0.4820   -0.9922 O   0  0  0  0  0  0  0  0  0  0  0  0
    1.9823    1.2235   -0.8745 C   0  0  0  0  0  0  0  0  0  0  0  0
   -3.6730    1.5677   -0.2773 C   0  0  0  0  0  0  0  0  0  0  0  0
   -4.6075    0.6095    0.1264 C   0  0  0  0  0  0  0  0  0  0  0  0
   -7.2918   -4.3210    2.0228 H   0  0  0  0  0  0  0  0  0  0  0  0
   -6.0740   -3.2408    2.7284 H   0  0  0  0  0  0  0  0  0  0  0  0
   -5.8565   -3.8335    1.0895 H   0  0  0  0  0  0  0  0  0  0  0  0
   -8.0849   -1.9189    2.0146 H   0  0  0  0  0  0  0  0  0  0  0  0
   -8.6486   -1.7570   -0.3873 H   0  0  0  0  0  0  0  0  0  0  0  0
   -7.4330   -2.9608   -0.7923 H   0  0  0  0  0  0  0  0  0  0  0  0
   -8.8518   -3.4308    0.1759 H   0  0  0  0  0  0  0  0  0  0  0  0
   -4.8679    1.4787    3.4116 H   0  0  0  0  0  0  0  0  0  0  0  0
   -3.2163    3.1621    2.6989 H   0  0  0  0  0  0  0  0  0  0  0  0
   -2.2852    4.4513    0.7486 H   0  0  0  0  0  0  0  0  0  0  0  0
   -2.2334    3.7605   -0.8593 H   0  0  0  0  0  0  0  0  0  0  0  0
    0.8878    2.4660    2.1117 H   0  0  0  0  0  0  0  0  0  0  0  0
    3.0591    1.5559    2.8339 H   0  0  0  0  0  0  0  0  0  0  0  0
    4.5461    0.4341    1.2266 H   0  0  0  0  0  0  0  0  0  0  0  0
    7.1376   -2.2305   -4.1296 H   0  0  0  0  0  0  0  0  0  0  0  0
    9.3320   -3.3515   -3.9974 H   0  0  0  0  0  0  0  0  0  0  0  0
   10.5559   -3.4551   -1.8412 H   0  0  0  0  0  0  0  0  0  0  0  0
    9.5711   -2.4297    0.1914 H   0  0  0  0  0  0  0  0  0  0  0  0
    7.3812   -1.3092    0.0826 H   0  0  0  0  0  0  0  0  0  0  0  0
    1.6724    1.1290   -1.9157 H   0  0  0  0  0  0  0  0  0  0  0  0
   -3.3283    1.5729   -1.3111 H   0  0  0  0  0  0  0  0  0  0  0  0
   -4.9750   -0.1040   -0.6071 H   0  0  0  0  0  0  0  0  0  0  0  0
  1  2  1  0
  2  3  1  0
  2  4  1  0
  4  5  1  0
  5  6  2  0
  5  7  1  0
  7  8  2  0
  8  9  1  0
  9 10  2  0
 10 11  1  0
 11 12  1  0
 12 13  1  0
 13 14  2  0
 13 15  1  0
 15 16  2  0
 16 17  1  0
 17 18  2  0
 18 19  1  0
 19 20  1  0
 20 21  2  0
 21 22  1  0
 22 23  2  0
 23 24  1  0
 24 25  2  0
 25 26  1  0
 26 27  2  0
 27 28  1  0
 28 29  2  0
 23 30  1  0
 19 31  2  0
 10 32  1  0
 32 33  2  0
 33  7  1  0
 31 15  1  0
 30 20  1  0
 29 24  1  0
  1 34  1  0
  1 35  1  0
  1 36  1  0
  2 37  1  0
  3 38  1  0
  3 39  1  0
  3 40  1  0
  8 41  1  0
  9 42  1  0
 11 43  1  0
 11 44  1  0
 16 45  1  0
 17 46  1  0
 18 47  1  0
 25 48  1  0
 26 49  1  0
 27 50  1  0
 28 51  1  0
 29 52  1  0
 31 53  1  0
 32 54  1  0
 33 55  1  0
M  END
$$$$
