
     RDKit          3D

 32 32  0  0  0  0  0  0  0  0999 V2000
    5.2431   -0.3368    0.5680 C   0  0  0  0  0  0  0  0  0  0  0  0
    4.8223   -0.7348   -0.8365 C   0  0  0  0  0  0  0  0  0  0  0  0
    3.9987    0.6322   -1.7053 S   0  0  0  0  0  0  0  0  0  0  0  0
    2.4110    0.6134   -0.9738 C   0  0  0  0  0  0  0  0  0  0  0  0
    1.9813   -0.3669   -0.2110 N   0  0  0  0  0  0  0  0  0  0  0  0
    0.7030   -0.1392    0.2518 N   0  0  0  0  0  0  0  0  0  0  0  0
    0.1975    0.9922   -0.1861 C   0  0  0  0  0  0  0  0  0  0  0  0
   -1.0441    1.4638    0.0671 N   0  0  0  0  0  0  0  0  0  0  0  0
   -2.1018    0.6023    0.6783 C   0  0  0  0  0  0  0  0  0  0  0  0
   -2.2222   -0.5778   -0.2192 N   0  0  0  0  0  0  0  0  0  0  0  0
   -2.7302   -0.5077   -1.4861 C   0  0  0  0  0  0  0  0  0  0  0  0
   -2.6253   -1.7853   -2.2732 C   0  0  0  0  0  0  0  0  0  0  0  0
   -3.2106    0.5147   -1.9568 O   0  0  0  0  0  0  0  0  0  0  0  0
   -1.8060    0.1466    2.1418 C   0  0  0  0  0  0  0  0  0  0  0  0
   -0.8755   -0.8413    2.1809 F   0  0  0  0  0  0  0  0  0  0  0  0
   -2.9040   -0.3714    2.7456 F   0  0  0  0  0  0  0  0  0  0  0  0
   -1.3487    1.1502    2.9239 F   0  0  0  0  0  0  0  0  0  0  0  0
   -3.4188    1.4271    0.8797 C   0  0  0  0  0  0  0  0  0  0  0  0
   -4.5026    0.6325    1.0408 F   0  0  0  0  0  0  0  0  0  0  0  0
   -3.3556    2.2428    1.9608 F   0  0  0  0  0  0  0  0  0  0  0  0
   -3.6702    2.2474   -0.1711 F   0  0  0  0  0  0  0  0  0  0  0  0
    1.2693    1.8667   -1.2123 S   0  0  0  0  0  0  0  0  0  0  0  0
    4.3849   -0.0854    1.1987 H   0  0  0  0  0  0  0  0  0  0  0  0
    5.7702   -1.1688    1.0468 H   0  0  0  0  0  0  0  0  0  0  0  0
    5.9253    0.5201    0.5531 H   0  0  0  0  0  0  0  0  0  0  0  0
    4.1821   -1.6225   -0.8178 H   0  0  0  0  0  0  0  0  0  0  0  0
    5.7150   -0.9977   -1.4139 H   0  0  0  0  0  0  0  0  0  0  0  0
   -1.4309    2.0964   -0.6360 H   0  0  0  0  0  0  0  0  0  0  0  0
   -1.5480   -1.3150   -0.0313 H   0  0  0  0  0  0  0  0  0  0  0  0
   -3.5870   -1.9911   -2.7512 H   0  0  0  0  0  0  0  0  0  0  0  0
   -1.8491   -1.6728   -3.0348 H   0  0  0  0  0  0  0  0  0  0  0  0
   -2.3729   -2.6339   -1.6314 H   0  0  0  0  0  0  0  0  0  0  0  0
  1  2  1  0
  2  3  1  0
  3  4  1  0
  4  5  2  0
  5  6  1  0
  6  7  2  0
  7  8  1  0
  8  9  1  0
  9 10  1  0
 10 11  1  0
 11 12  1  0
 11 13  2  0
  9 14  1  0
 14 15  1  0
 14 16  1  0
 14 17  1  0
  9 18  1  0
 18 19  1  0
 18 20  1  0
 18 21  1  0
  7 22  1  0
 22  4  1  0
  1 23  1  0
  1 24  1  0
  1 25  1  0
  2 26  1  0
  2 27  1  0
  8 28  1  0
 10 29  1  0
 12 30  1  0
 12 31  1  0
 12 32  1  0
M  END
$$$$
