
     RDKit          3D

 39 41  0  0  0  0  0  0  0  0999 V2000
   -1.1736   -2.8530    0.5737 C   0  0  0  0  0  0  0  0  0  0  0  0
   -1.5635   -2.1895   -0.7405 C   0  0  0  0  0  0  0  0  0  0  0  0
   -1.9457   -0.7857   -0.5491 N   0  0  0  0  0  0  0  0  0  0  0  0
   -1.0343    0.2577   -0.5444 C   0  0  0  0  0  0  0  0  0  0  0  0
    0.3828   -0.0711   -0.8383 C   0  0  0  0  0  0  0  0  0  0  0  0
    1.3225    0.2808    0.0518 C   0  0  0  0  0  0  0  0  0  0  0  0
    2.7547    0.0072   -0.1232 C   0  0  0  0  0  0  0  0  0  0  0  0
    3.3887    0.1231   -1.3721 C   0  0  0  0  0  0  0  0  0  0  0  0
    4.7577   -0.1255   -1.5032 C   0  0  0  0  0  0  0  0  0  0  0  0
    5.4915   -0.4781   -0.3821 C   0  0  0  0  0  0  0  0  0  0  0  0
    6.8286   -0.7211   -0.5095 O   0  0  0  0  0  0  0  0  0  0  0  0
    4.8812   -0.5789    0.8645 C   0  0  0  0  0  0  0  0  0  0  0  0
    5.6677   -0.9230    1.9298 O   0  0  0  0  0  0  0  0  0  0  0  0
    3.5185   -0.3334    1.0043 C   0  0  0  0  0  0  0  0  0  0  0  0
   -1.3490    1.4935   -0.3079 N   0  0  0  0  0  0  0  0  0  0  0  0
   -2.6841    1.8092   -0.0442 C   0  0  0  0  0  0  0  0  0  0  0  0
   -3.0301    3.1431    0.1857 C   0  0  0  0  0  0  0  0  0  0  0  0
   -4.3543    3.4996    0.4561 C   0  0  0  0  0  0  0  0  0  0  0  0
   -5.3460    2.5202    0.4997 C   0  0  0  0  0  0  0  0  0  0  0  0
   -5.0120    1.1858    0.2720 C   0  0  0  0  0  0  0  0  0  0  0  0
   -3.6819    0.8418    0.0001 C   0  0  0  0  0  0  0  0  0  0  0  0
   -3.2890   -0.5554   -0.2426 C   0  0  0  0  0  0  0  0  0  0  0  0
   -4.1379   -1.4405   -0.1541 O   0  0  0  0  0  0  0  0  0  0  0  0
   -0.9001   -3.8989    0.4034 H   0  0  0  0  0  0  0  0  0  0  0  0
   -2.0026   -2.8293    1.2885 H   0  0  0  0  0  0  0  0  0  0  0  0
   -0.3204   -2.3488    1.0379 H   0  0  0  0  0  0  0  0  0  0  0  0
   -0.7376   -2.2678   -1.4525 H   0  0  0  0  0  0  0  0  0  0  0  0
   -2.4019   -2.7389   -1.1844 H   0  0  0  0  0  0  0  0  0  0  0  0
    0.6032   -0.5702   -1.7724 H   0  0  0  0  0  0  0  0  0  0  0  0
    1.0386    0.7829    0.9752 H   0  0  0  0  0  0  0  0  0  0  0  0
    2.8286    0.4221   -2.2551 H   0  0  0  0  0  0  0  0  0  0  0  0
    5.2460   -0.0368   -2.4689 H   0  0  0  0  0  0  0  0  0  0  0  0
    7.1257   -0.9385    0.3965 H   0  0  0  0  0  0  0  0  0  0  0  0
    5.1114   -0.9353    2.7276 H   0  0  0  0  0  0  0  0  0  0  0  0
    3.0424   -0.4113    1.9771 H   0  0  0  0  0  0  0  0  0  0  0  0
   -2.2583    3.9082    0.1522 H   0  0  0  0  0  0  0  0  0  0  0  0
   -4.6090    4.5418    0.6324 H   0  0  0  0  0  0  0  0  0  0  0  0
   -6.3765    2.7955    0.7105 H   0  0  0  0  0  0  0  0  0  0  0  0
   -5.7821    0.4185    0.3057 H   0  0  0  0  0  0  0  0  0  0  0  0
  1  2  1  0
  2  3  1  0
  3  4  1  0
  4  5  1  0
  5  6  2  3
  6  7  1  0
  7  8  2  0
  8  9  1  0
  9 10  2  0
 10 11  1  0
 10 12  1  0
 12 13  1  0
 12 14  2  0
  4 15  2  0
 15 16  1  0
 16 17  2  0
 17 18  1  0
 18 19  2  0
 19 20  1  0
 20 21  2  0
 21 22  1  0
 22 23  2  0
 22  3  1  0
 14  7  1  0
 21 16  1  0
  1 24  1  0
  1 25  1  0
  1 26  1  0
  2 27  1  0
  2 28  1  0
  5 29  1  0
  6 30  1  0
  8 31  1  0
  9 32  1  0
 11 33  1  0
 13 34  1  0
 14 35  1  0
 17 36  1  0
 18 37  1  0
 19 38  1  0
 20 39  1  0
M  END
$$$$
