
     RDKit          3D

 48 48  0  0  0  0  0  0  0  0999 V2000
   -6.4856    0.1746    2.3482 C   0  0  0  0  0  0  0  0  0  0  0  0
   -6.2602    0.3357    0.8529 C   0  0  0  0  0  0  0  0  0  0  0  0
   -5.0840    1.2526    0.5078 C   0  0  0  0  0  0  0  0  0  0  0  0
   -3.7166    0.7956    1.0252 C   0  0  0  0  0  0  0  0  0  0  0  0
   -3.2607   -0.5921    0.5620 C   0  0  0  0  0  0  0  0  0  0  0  0
   -3.2305   -0.8232   -0.9537 C   0  0  0  0  0  0  0  0  0  0  0  0
   -2.3805    0.1500   -1.7777 C   0  0  0  0  0  0  0  0  0  0  0  0
   -0.9073   -0.2377   -1.9416 C   0  0  0  0  0  0  0  0  0  0  0  0
   -0.0956   -0.2104   -0.6507 C   0  0  0  0  0  0  0  0  0  0  0  0
    1.4001   -0.3125   -0.9052 C   0  0  0  0  0  0  0  0  0  0  0  0
    1.8817   -0.5134   -2.0156 O   0  0  0  0  0  0  0  0  0  0  0  0
    2.1302   -0.1494    0.2778 N   0  0  0  0  0  0  0  0  0  0  0  0
    3.4601   -0.4757    0.3226 N   0  0  0  0  0  0  0  0  0  0  0  0
    4.3066    0.2240   -0.3822 C   0  0  0  0  0  0  0  0  0  0  0  0
    3.9565    1.4948   -1.1352 C   0  0  0  0  0  0  0  0  0  0  0  0
    5.7286   -0.2297   -0.4242 C   0  0  0  0  0  0  0  0  0  0  0  0
    6.2231   -1.0992    0.5518 C   0  0  0  0  0  0  0  0  0  0  0  0
    7.5525   -1.5136    0.4980 C   0  0  0  0  0  0  0  0  0  0  0  0
    8.3457   -1.0453   -0.5365 C   0  0  0  0  0  0  0  0  0  0  0  0
    7.9024   -0.2116   -1.5021 N   0  0  0  0  0  0  0  0  0  0  0  0
    6.6019    0.1695   -1.4290 C   0  0  0  0  0  0  0  0  0  0  0  0
   -6.6039    1.1477    2.8351 H   0  0  0  0  0  0  0  0  0  0  0  0
   -5.6541   -0.3527    2.8248 H   0  0  0  0  0  0  0  0  0  0  0  0
   -7.3946   -0.4077    2.5302 H   0  0  0  0  0  0  0  0  0  0  0  0
   -7.1686    0.7604    0.4087 H   0  0  0  0  0  0  0  0  0  0  0  0
   -6.1252   -0.6503    0.3958 H   0  0  0  0  0  0  0  0  0  0  0  0
   -5.2866    2.2526    0.9120 H   0  0  0  0  0  0  0  0  0  0  0  0
   -5.0409    1.3728   -0.5810 H   0  0  0  0  0  0  0  0  0  0  0  0
   -2.9674    1.5409    0.7333 H   0  0  0  0  0  0  0  0  0  0  0  0
   -3.7222    0.8084    2.1219 H   0  0  0  0  0  0  0  0  0  0  0  0
   -3.9182   -1.3492    1.0072 H   0  0  0  0  0  0  0  0  0  0  0  0
   -2.2725   -0.7848    0.9893 H   0  0  0  0  0  0  0  0  0  0  0  0
   -4.2611   -0.7686   -1.3257 H   0  0  0  0  0  0  0  0  0  0  0  0
   -2.9024   -1.8517   -1.1484 H   0  0  0  0  0  0  0  0  0  0  0  0
   -2.4583    1.1734   -1.3983 H   0  0  0  0  0  0  0  0  0  0  0  0
   -2.8093    0.1770   -2.7886 H   0  0  0  0  0  0  0  0  0  0  0  0
   -0.8359   -1.2327   -2.3986 H   0  0  0  0  0  0  0  0  0  0  0  0
   -0.4606    0.4589   -2.6631 H   0  0  0  0  0  0  0  0  0  0  0  0
   -0.2886    0.7199   -0.1042 H   0  0  0  0  0  0  0  0  0  0  0  0
   -0.3730   -1.0589   -0.0175 H   0  0  0  0  0  0  0  0  0  0  0  0
    1.6357   -0.4340    1.1189 H   0  0  0  0  0  0  0  0  0  0  0  0
    3.0786    1.9838   -0.7055 H   0  0  0  0  0  0  0  0  0  0  0  0
    3.7675    1.2641   -2.1866 H   0  0  0  0  0  0  0  0  0  0  0  0
    4.7773    2.2158   -1.0708 H   0  0  0  0  0  0  0  0  0  0  0  0
    5.5812   -1.4554    1.3533 H   0  0  0  0  0  0  0  0  0  0  0  0
    7.9574   -2.1874    1.2449 H   0  0  0  0  0  0  0  0  0  0  0  0
    9.3882   -1.3398   -0.6208 H   0  0  0  0  0  0  0  0  0  0  0  0
    6.2888    0.8146   -2.2441 H   0  0  0  0  0  0  0  0  0  0  0  0
  1  2  1  0
  2  3  1  0
  3  4  1  0
  4  5  1  0
  5  6  1  0
  6  7  1  0
  7  8  1  0
  8  9  1  0
  9 10  1  0
 10 11  2  0
 10 12  1  0
 12 13  1  0
 13 14  2  3
 14 15  1  0
 14 16  1  0
 16 17  2  0
 17 18  1  0
 18 19  2  0
 19 20  1  0
 20 21  2  0
 21 16  1  0
  1 22  1  0
  1 23  1  0
  1 24  1  0
  2 25  1  0
  2 26  1  0
  3 27  1  0
  3 28  1  0
  4 29  1  0
  4 30  1  0
  5 31  1  0
  5 32  1  0
  6 33  1  0
  6 34  1  0
  7 35  1  0
  7 36  1  0
  8 37  1  0
  8 38  1  0
  9 39  1  0
  9 40  1  0
 12 41  1  0
 15 42  1  0
 15 43  1  0
 15 44  1  0
 17 45  1  0
 18 46  1  0
 19 47  1  0
 21 48  1  0
M  END
$$$$
