
     RDKit          3D

 34 36  0  0  0  0  0  0  0  0999 V2000
   -0.1481    0.8632    1.1143 O   0  0  0  0  0  0  0  0  0  0  0  0
   -0.2916   -0.2366    0.5885 C   0  0  0  0  0  0  0  0  0  0  0  0
   -1.6351   -0.9563    0.6383 C   0  0  0  0  0  0  0  0  0  0  0  0
   -2.7904   -0.2263   -0.0235 C   0  0  0  0  0  0  0  0  0  0  0  0
   -2.5623    0.7252   -1.0343 C   0  0  0  0  0  0  0  0  0  0  0  0
   -3.6234    1.3997   -1.6497 C   0  0  0  0  0  0  0  0  0  0  0  0
   -4.9401    1.1346   -1.2819 C   0  0  0  0  0  0  0  0  0  0  0  0
   -5.2038    0.1824   -0.3020 C   0  0  0  0  0  0  0  0  0  0  0  0
   -4.1366   -0.4958    0.3091 C   0  0  0  0  0  0  0  0  0  0  0  0
   -4.4844   -1.5200    1.2913 N   0  0  0  0  0  4  0  0  0  0  0  0
   -3.9305   -2.6235    1.1849 O   0  0  0  0  0  0  0  0  0  0  0  0
   -5.3256   -1.2223    2.1498 O   0  0  0  0  0  1  0  0  0  0  0  0
    0.6778   -0.9460   -0.1030 N   0  0  0  0  0  0  0  0  0  0  0  0
    2.0119   -0.5568   -0.3528 C   0  0  0  0  0  0  0  0  0  0  0  0
    2.8124   -1.4669   -1.0816 C   0  0  0  0  0  0  0  0  0  0  0  0
    4.1477   -1.1781   -1.3858 C   0  0  0  0  0  0  0  0  0  0  0  0
    4.6546    0.0240   -0.9504 C   0  0  0  0  0  0  0  0  0  0  0  0
    3.8848    0.9145   -0.2421 C   0  0  0  0  0  0  0  0  0  0  0  0
    2.5645    0.6556    0.0723 C   0  0  0  0  0  0  0  0  0  0  0  0
    4.5736    2.0397    0.0923 O   0  0  0  0  0  0  0  0  0  0  0  0
    5.8642    1.7511   -0.4824 C   0  0  0  0  0  0  0  0  0  0  0  0
    5.9213    0.4733   -1.1508 O   0  0  0  0  0  0  0  0  0  0  0  0
   -1.5510   -1.9488    0.1813 H   0  0  0  0  0  0  0  0  0  0  0  0
   -1.8406   -1.0975    1.7067 H   0  0  0  0  0  0  0  0  0  0  0  0
   -1.5514    0.9773   -1.3530 H   0  0  0  0  0  0  0  0  0  0  0  0
   -3.4152    2.1434   -2.4168 H   0  0  0  0  0  0  0  0  0  0  0  0
   -5.7577    1.6680   -1.7612 H   0  0  0  0  0  0  0  0  0  0  0  0
   -6.2347   -0.0297   -0.0249 H   0  0  0  0  0  0  0  0  0  0  0  0
    0.4122   -1.8514   -0.4707 H   0  0  0  0  0  0  0  0  0  0  0  0
    2.4028   -2.4155   -1.4210 H   0  0  0  0  0  0  0  0  0  0  0  0
    4.7632   -1.8747   -1.9436 H   0  0  0  0  0  0  0  0  0  0  0  0
    2.0076    1.3951    0.6338 H   0  0  0  0  0  0  0  0  0  0  0  0
    6.1094    2.5365   -1.2066 H   0  0  0  0  0  0  0  0  0  0  0  0
    6.6148    1.7626    0.3164 H   0  0  0  0  0  0  0  0  0  0  0  0
  1  2  2  0
  2  3  1  0
  3  4  1  0
  4  5  2  0
  5  6  1  0
  6  7  2  0
  7  8  1  0
  8  9  2  0
  9 10  1  0
 10 11  2  0
 10 12  1  0
  2 13  1  0
 13 14  1  0
 14 15  2  0
 15 16  1  0
 16 17  2  0
 17 18  1  0
 18 19  2  0
 18 20  1  0
 20 21  1  0
 21 22  1  0
  9  4  1  0
 19 14  1  0
 22 17  1  0
  3 23  1  0
  3 24  1  0
  5 25  1  0
  6 26  1  0
  7 27  1  0
  8 28  1  0
 13 29  1  0
 15 30  1  0
 16 31  1  0
 19 32  1  0
 21 33  1  0
 21 34  1  0
M  CHG  2  10   1  12  -1
M  END
$$$$
