
     RDKit          3D

 42 45  0  0  0  0  0  0  0  0999 V2000
   -3.6903    3.8123   -0.9965 C   0  0  0  0  0  0  0  0  0  0  0  0
   -2.4805    3.0592   -0.5266 C   0  0  0  0  0  0  0  0  0  0  0  0
   -1.3107    3.7517   -0.1708 C   0  0  0  0  0  0  0  0  0  0  0  0
   -0.1629    3.0660    0.2453 C   0  0  0  0  0  0  0  0  0  0  0  0
   -0.1824    1.6807    0.2845 C   0  0  0  0  0  0  0  0  0  0  0  0
   -1.3374    0.9898   -0.0823 C   0  0  0  0  0  0  0  0  0  0  0  0
   -2.4875    1.6606   -0.4879 C   0  0  0  0  0  0  0  0  0  0  0  0
   -1.1593   -0.4943    0.0519 C   0  0  0  0  0  0  0  0  0  0  0  0
   -1.4471   -1.2482   -1.2519 C   0  0  0  0  0  0  0  0  0  0  0  0
   -0.9282   -2.6197   -1.2777 N   0  0  0  0  0  0  0  0  0  0  0  0
   -1.8173   -3.5687   -0.6139 C   0  0  0  0  0  0  0  0  0  0  0  0
    0.4544   -2.7413   -0.7969 C   0  0  0  0  0  0  0  0  0  0  0  0
    1.1410   -1.4008   -0.5332 C   0  0  0  0  0  0  0  0  0  0  0  0
    0.3242   -0.6035    0.4937 C   0  0  0  0  0  0  0  0  0  0  0  0
    0.8353    0.7825    0.6874 N   0  0  0  0  0  0  0  0  0  0  0  0
    2.0890    1.1746    1.1716 C   0  0  0  0  0  0  0  0  0  0  0  0
    2.4955    2.3346    1.0788 O   0  0  0  0  0  0  0  0  0  0  0  0
    2.9552    0.1824    1.8002 C   0  0  0  0  0  0  0  0  0  0  0  0
    4.3115    0.2512    2.0783 C   0  0  0  0  0  0  0  0  0  0  0  0
    4.6655   -0.9533    2.7322 C   0  0  0  0  0  0  0  0  0  0  0  0
    3.5054   -1.6823    2.8347 C   0  0  0  0  0  0  0  0  0  0  0  0
    3.3504   -3.4036    3.6272 Br  0  0  0  0  0  0  0  0  0  0  0  0
    2.4672   -0.9999    2.2863 O   0  0  0  0  0  0  0  0  0  0  0  0
   -3.6400    3.9624   -2.0792 H   0  0  0  0  0  0  0  0  0  0  0  0
   -3.7571    4.7890   -0.5056 H   0  0  0  0  0  0  0  0  0  0  0  0
   -4.6084    3.2656   -0.7571 H   0  0  0  0  0  0  0  0  0  0  0  0
   -1.2861    4.8390   -0.2106 H   0  0  0  0  0  0  0  0  0  0  0  0
    0.7131    3.6411    0.5232 H   0  0  0  0  0  0  0  0  0  0  0  0
   -3.3799    1.1067   -0.7658 H   0  0  0  0  0  0  0  0  0  0  0  0
   -1.8062   -0.8607    0.8592 H   0  0  0  0  0  0  0  0  0  0  0  0
   -2.5247   -1.2414   -1.4631 H   0  0  0  0  0  0  0  0  0  0  0  0
   -1.0046   -0.7090   -2.1015 H   0  0  0  0  0  0  0  0  0  0  0  0
   -1.9156   -3.3632    0.4578 H   0  0  0  0  0  0  0  0  0  0  0  0
   -1.4466   -4.5926   -0.7368 H   0  0  0  0  0  0  0  0  0  0  0  0
   -2.8163   -3.5430   -1.0630 H   0  0  0  0  0  0  0  0  0  0  0  0
    0.5012   -3.3297    0.1297 H   0  0  0  0  0  0  0  0  0  0  0  0
    1.0301   -3.2984   -1.5449 H   0  0  0  0  0  0  0  0  0  0  0  0
    2.1591   -1.5870   -0.1791 H   0  0  0  0  0  0  0  0  0  0  0  0
    1.2517   -0.8337   -1.4666 H   0  0  0  0  0  0  0  0  0  0  0  0
    0.3408   -1.1149    1.4625 H   0  0  0  0  0  0  0  0  0  0  0  0
    4.9557    1.0851    1.8312 H   0  0  0  0  0  0  0  0  0  0  0  0
    5.6429   -1.2455    3.0896 H   0  0  0  0  0  0  0  0  0  0  0  0
  1  2  1  0
  2  3  2  0
  3  4  1  0
  4  5  2  0
  5  6  1  0
  6  7  2  0
  6  8  1  0
  8  9  1  0
  9 10  1  0
 10 11  1  0
 10 12  1  0
 12 13  1  0
 13 14  1  0
 14 15  1  0
 15 16  1  0
 16 17  2  0
 16 18  1  0
 18 19  2  0
 19 20  1  0
 20 21  2  0
 21 22  1  0
 21 23  1  0
  7  2  1  0
 14  8  1  0
 23 18  1  0
 15  5  1  0
  1 24  1  0
  1 25  1  0
  1 26  1  0
  3 27  1  0
  4 28  1  0
  7 29  1  0
  8 30  1  0
  9 31  1  0
  9 32  1  0
 11 33  1  0
 11 34  1  0
 11 35  1  0
 12 36  1  0
 12 37  1  0
 13 38  1  0
 13 39  1  0
 14 40  1  0
 19 41  1  0
 20 42  1  0
M  END
$$$$
