
     RDKit          3D

 48 50  0  0  0  0  0  0  0  0999 V2000
    3.7328    3.2943   -0.6777 C   0  0  0  0  0  0  0  0  0  0  0  0
    2.8495    2.0945   -0.7434 C   0  0  0  0  0  0  0  0  0  0  0  0
    1.4859    2.0609   -0.5339 C   0  0  0  0  0  0  0  0  0  0  0  0
    1.0521    0.7132   -0.5722 C   0  0  0  0  0  0  0  0  0  0  0  0
   -0.3209    0.2776   -0.3594 C   0  0  0  0  0  0  0  0  0  0  0  0
   -0.6044   -0.9845   -0.3094 N   0  0  0  0  0  0  0  0  0  0  0  0
   -1.9036   -1.3532   -0.0608 N   0  0  0  0  0  0  0  0  0  0  0  0
   -2.7828   -0.6769    0.7907 C   0  0  0  0  0  0  0  0  0  0  0  0
   -2.5375    0.3845    1.3517 O   0  0  0  0  0  0  0  0  0  0  0  0
   -4.0655   -1.4613    0.9792 C   0  0  0  0  0  0  0  0  0  0  0  0
   -5.2274   -0.6860    1.5961 C   0  0  0  0  0  0  0  0  0  0  0  0
   -4.9612   -0.1487    3.0007 C   0  0  0  0  0  0  0  0  0  0  0  0
   -6.3354   -1.6155    1.7182 O   0  0  0  0  0  0  0  0  0  0  0  0
   -7.3105   -1.1664    0.7765 C   0  0  0  0  0  0  0  0  0  0  0  0
   -7.0463    0.3082    0.6655 C   0  0  0  0  0  0  0  0  0  0  0  0
   -5.6236    0.3805    0.7177 O   0  0  0  0  0  0  0  0  0  0  0  0
    2.1736   -0.0564   -0.8690 C   0  0  0  0  0  0  0  0  0  0  0  0
    2.2313   -1.5211   -1.1734 C   0  0  0  0  0  0  0  0  0  0  0  0
    3.2870    0.7851   -0.9173 N   0  0  0  0  0  0  0  0  0  0  0  0
    4.6422    0.3733   -1.0862 C   0  0  0  0  0  0  0  0  0  0  0  0
    5.4837    1.0529   -1.9734 C   0  0  0  0  0  0  0  0  0  0  0  0
    6.8110    0.6433   -2.1285 C   0  0  0  0  0  0  0  0  0  0  0  0
    7.3049   -0.4416   -1.3984 C   0  0  0  0  0  0  0  0  0  0  0  0
    8.9551   -0.8902   -1.6436 Cl  0  0  0  0  0  0  0  0  0  0  0  0
    6.4654   -1.1210   -0.5088 C   0  0  0  0  0  0  0  0  0  0  0  0
    7.0087   -2.4651    0.4321 Cl  0  0  0  0  0  0  0  0  0  0  0  0
    5.1356   -0.7146   -0.3532 C   0  0  0  0  0  0  0  0  0  0  0  0
    3.2230    4.1158   -0.1618 H   0  0  0  0  0  0  0  0  0  0  0  0
    4.6532    3.0918   -0.1221 H   0  0  0  0  0  0  0  0  0  0  0  0
    3.9834    3.6471   -1.6823 H   0  0  0  0  0  0  0  0  0  0  0  0
    0.8660    2.9268   -0.3324 H   0  0  0  0  0  0  0  0  0  0  0  0
   -1.0701    1.0815   -0.2676 H   0  0  0  0  0  0  0  0  0  0  0  0
   -2.0714   -2.3423   -0.2220 H   0  0  0  0  0  0  0  0  0  0  0  0
   -4.3771   -1.8359   -0.0055 H   0  0  0  0  0  0  0  0  0  0  0  0
   -3.8362   -2.3419    1.5927 H   0  0  0  0  0  0  0  0  0  0  0  0
   -4.2754    0.7021    3.0016 H   0  0  0  0  0  0  0  0  0  0  0  0
   -4.5690   -0.9332    3.6562 H   0  0  0  0  0  0  0  0  0  0  0  0
   -5.8930    0.2067    3.4568 H   0  0  0  0  0  0  0  0  0  0  0  0
   -8.3198   -1.4030    1.1220 H   0  0  0  0  0  0  0  0  0  0  0  0
   -7.1231   -1.6802   -0.1725 H   0  0  0  0  0  0  0  0  0  0  0  0
   -7.4531    0.8603    1.5196 H   0  0  0  0  0  0  0  0  0  0  0  0
   -7.4230    0.7476   -0.2613 H   0  0  0  0  0  0  0  0  0  0  0  0
    3.0867   -1.7843   -1.8020 H   0  0  0  0  0  0  0  0  0  0  0  0
    1.3472   -1.8372   -1.7359 H   0  0  0  0  0  0  0  0  0  0  0  0
    2.2776   -2.1024   -0.2476 H   0  0  0  0  0  0  0  0  0  0  0  0
    5.1164    1.8728   -2.5853 H   0  0  0  0  0  0  0  0  0  0  0  0
    7.4540    1.1710   -2.8295 H   0  0  0  0  0  0  0  0  0  0  0  0
    4.5041   -1.2288    0.3679 H   0  0  0  0  0  0  0  0  0  0  0  0
  1  2  1  0
  2  3  2  0
  3  4  1  0
  4  5  1  0
  5  6  2  3
  6  7  1  0
  7  8  1  0
  8  9  2  0
  8 10  1  0
 10 11  1  0
 11 12  1  0
 11 13  1  0
 13 14  1  0
 14 15  1  0
 15 16  1  0
  4 17  2  0
 17 18  1  0
 17 19  1  0
 19 20  1  0
 20 21  2  0
 21 22  1  0
 22 23  2  0
 23 24  1  0
 23 25  1  0
 25 26  1  0
 25 27  2  0
 19  2  1  0
 27 20  1  0
 16 11  1  0
  1 28  1  0
  1 29  1  0
  1 30  1  0
  3 31  1  0
  5 32  1  0
  7 33  1  0
 10 34  1  0
 10 35  1  0
 12 36  1  0
 12 37  1  0
 12 38  1  0
 14 39  1  0
 14 40  1  0
 15 41  1  0
 15 42  1  0
 18 43  1  0
 18 44  1  0
 18 45  1  0
 21 46  1  0
 22 47  1  0
 27 48  1  0
M  END
$$$$
