
     RDKit          3D

 44 47  0  0  0  0  0  0  0  0999 V2000
    0.0965    0.3362   -3.0501 O   0  0  0  0  0  0  0  0  0  0  0  0
    0.1303    0.0268   -1.8576 C   0  0  0  0  0  0  0  0  0  0  0  0
    1.4274   -0.0551   -1.0577 C   0  0  0  0  0  0  0  0  0  0  0  0
    2.8951    0.2734   -2.0772 S   0  0  0  0  0  0  0  0  0  0  0  0
    4.1261    0.0995   -0.8873 C   0  0  0  0  0  0  0  0  0  0  0  0
    3.9773   -0.2023    0.3789 N   0  0  0  0  0  0  0  0  0  0  0  0
    5.2556   -0.2157    0.8861 C   0  0  0  0  0  0  0  0  0  0  0  0
    5.6950   -0.4786    2.1905 C   0  0  0  0  0  0  0  0  0  0  0  0
    7.0686   -0.4266    2.4448 C   0  0  0  0  0  0  0  0  0  0  0  0
    7.6414   -0.7453    4.0388 Cl  0  0  0  0  0  0  0  0  0  0  0  0
    7.9875   -0.1224    1.4365 C   0  0  0  0  0  0  0  0  0  0  0  0
    7.5650    0.1428    0.1285 C   0  0  0  0  0  0  0  0  0  0  0  0
    6.1898    0.0855   -0.1036 C   0  0  0  0  0  0  0  0  0  0  0  0
    5.4321    0.2825   -1.2303 N   0  0  0  0  0  0  0  0  0  0  0  0
   -1.0462   -0.2901   -1.1640 N   0  0  0  0  0  0  0  0  0  0  0  0
   -1.1272   -0.3075    0.3101 C   0  0  0  0  0  0  0  0  0  0  0  0
   -2.3145   -1.1414    0.8140 C   0  0  0  0  0  0  0  0  0  0  0  0
   -3.5552   -0.7389    0.1553 N   0  0  0  0  0  0  0  0  0  0  0  0
   -4.3038    0.2807    0.7653 C   0  0  0  0  0  0  0  0  0  0  0  0
   -3.8646    0.8596    1.7616 O   0  0  0  0  0  0  0  0  0  0  0  0
   -5.6032    0.6236    0.2120 C   0  0  0  0  0  0  0  0  0  0  0  0
   -6.3765    1.7575    0.3926 C   0  0  0  0  0  0  0  0  0  0  0  0
   -7.5784    1.5577   -0.3269 C   0  0  0  0  0  0  0  0  0  0  0  0
   -7.4821    0.3068   -0.8864 C   0  0  0  0  0  0  0  0  0  0  0  0
   -6.2984   -0.2714   -0.5593 O   0  0  0  0  0  0  0  0  0  0  0  0
   -3.4844   -0.8800   -1.3036 C   0  0  0  0  0  0  0  0  0  0  0  0
   -2.3168   -0.0522   -1.8690 C   0  0  0  0  0  0  0  0  0  0  0  0
    1.3882    0.6866   -0.2538 H   0  0  0  0  0  0  0  0  0  0  0  0
    1.5145   -1.0635   -0.6411 H   0  0  0  0  0  0  0  0  0  0  0  0
    4.9796   -0.7139    2.9696 H   0  0  0  0  0  0  0  0  0  0  0  0
    9.0509   -0.0894    1.6655 H   0  0  0  0  0  0  0  0  0  0  0  0
    8.2748    0.3795   -0.6570 H   0  0  0  0  0  0  0  0  0  0  0  0
    5.7628    0.5206   -2.1533 H   0  0  0  0  0  0  0  0  0  0  0  0
   -1.2240    0.7363    0.6316 H   0  0  0  0  0  0  0  0  0  0  0  0
   -0.2057   -0.7040    0.7430 H   0  0  0  0  0  0  0  0  0  0  0  0
   -2.1524   -2.2008    0.5813 H   0  0  0  0  0  0  0  0  0  0  0  0
   -2.4074   -1.0554    1.9020 H   0  0  0  0  0  0  0  0  0  0  0  0
   -6.0935    2.6187    0.9831 H   0  0  0  0  0  0  0  0  0  0  0  0
   -8.4164    2.2349   -0.4148 H   0  0  0  0  0  0  0  0  0  0  0  0
   -8.1384   -0.2896   -1.5051 H   0  0  0  0  0  0  0  0  0  0  0  0
   -4.4021   -0.5699   -1.8027 H   0  0  0  0  0  0  0  0  0  0  0  0
   -3.3289   -1.9437   -1.5187 H   0  0  0  0  0  0  0  0  0  0  0  0
   -2.5342    1.0187   -1.7708 H   0  0  0  0  0  0  0  0  0  0  0  0
   -2.2041   -0.2703   -2.9365 H   0  0  0  0  0  0  0  0  0  0  0  0
  1  2  2  0
  2  3  1  0
  3  4  1  0
  4  5  1  0
  5  6  2  0
  6  7  1  0
  7  8  2  0
  8  9  1  0
  9 10  1  0
  9 11  2  0
 11 12  1  0
 12 13  2  0
 13 14  1  0
  2 15  1  0
 15 16  1  0
 16 17  1  0
 17 18  1  0
 18 19  1  0
 19 20  2  0
 19 21  1  0
 21 22  2  0
 22 23  1  0
 23 24  2  0
 24 25  1  0
 18 26  1  0
 26 27  1  0
 14  5  1  0
 27 15  1  0
 13  7  1  0
 25 21  1  0
  3 28  1  0
  3 29  1  0
  8 30  1  0
 11 31  1  0
 12 32  1  0
 14 33  1  0
 16 34  1  0
 16 35  1  0
 17 36  1  0
 17 37  1  0
 22 38  1  0
 23 39  1  0
 24 40  1  0
 26 41  1  0
 26 42  1  0
 27 43  1  0
 27 44  1  0
M  END
$$$$
