
     RDKit          3D

 51 54  0  0  0  0  0  0  0  0999 V2000
    6.0375   -0.0497    3.2179 C   0  0  0  0  0  0  0  0  0  0  0  0
    5.3894    0.0152    1.8666 C   0  0  0  0  0  0  0  0  0  0  0  0
    6.1707    0.1034    0.7090 C   0  0  0  0  0  0  0  0  0  0  0  0
    5.5705    0.1303   -0.5525 C   0  0  0  0  0  0  0  0  0  0  0  0
    4.1772    0.0644   -0.6772 C   0  0  0  0  0  0  0  0  0  0  0  0
    3.5188    0.0758   -2.0337 C   0  0  0  0  0  0  0  0  0  0  0  0
    3.0107   -1.2465   -2.3689 N   0  0  0  0  0  0  0  0  0  0  0  0
    1.8009   -1.3790   -3.5079 S   0  0  0  0  0  6  0  0  0  0  0  0
    2.0003   -0.3367   -4.4906 O   0  0  0  0  0  0  0  0  0  0  0  0
    1.7229   -2.7742   -3.8766 O   0  0  0  0  0  0  0  0  0  0  0  0
    0.3557   -0.9975   -2.5507 C   0  0  0  0  0  0  0  0  0  0  0  0
    0.0000   -1.8476   -1.4895 C   0  0  0  0  0  0  0  0  0  0  0  0
   -1.1206   -1.5589   -0.7038 C   0  0  0  0  0  0  0  0  0  0  0  0
   -1.8685   -0.4301   -1.0012 C   0  0  0  0  0  0  0  0  0  0  0  0
   -1.5119    0.4029   -2.0657 C   0  0  0  0  0  0  0  0  0  0  0  0
   -0.4005    0.1381   -2.8532 C   0  0  0  0  0  0  0  0  0  0  0  0
   -2.4441    1.5646   -2.1855 C   0  0  0  0  0  0  0  0  0  0  0  0
   -3.4905    1.2469   -1.1108 C   0  0  0  0  0  0  0  0  0  0  0  0
   -3.0261    0.0630   -0.3697 N   0  0  0  0  0  0  0  0  0  0  0  0
   -3.6529   -0.4914    0.7427 C   0  0  0  0  0  0  0  0  0  0  0  0
   -3.2186   -1.4873    1.3333 O   0  0  0  0  0  0  0  0  0  0  0  0
   -4.9522    0.2276    1.2114 C   0  0  0  0  0  0  0  0  0  0  0  0
   -5.7851   -0.4488    2.3408 C   0  0  0  0  0  0  0  0  0  0  0  0
   -6.0914    0.9627    2.8729 C   0  0  0  0  0  0  0  0  0  0  0  0
   -4.7902    1.4239    2.1918 C   0  0  0  0  0  0  0  0  0  0  0  0
    3.3974   -0.0455    0.4829 C   0  0  0  0  0  0  0  0  0  0  0  0
    3.9988   -0.0732    1.7429 C   0  0  0  0  0  0  0  0  0  0  0  0
    6.9712    0.5224    3.2307 H   0  0  0  0  0  0  0  0  0  0  0  0
    6.2557   -1.0898    3.4786 H   0  0  0  0  0  0  0  0  0  0  0  0
    5.3843    0.3784    3.9855 H   0  0  0  0  0  0  0  0  0  0  0  0
    7.2551    0.1504    0.7825 H   0  0  0  0  0  0  0  0  0  0  0  0
    6.2017    0.1998   -1.4357 H   0  0  0  0  0  0  0  0  0  0  0  0
    4.2412    0.3851   -2.7976 H   0  0  0  0  0  0  0  0  0  0  0  0
    2.7161    0.8220   -2.0223 H   0  0  0  0  0  0  0  0  0  0  0  0
    3.6403   -2.0436   -2.3104 H   0  0  0  0  0  0  0  0  0  0  0  0
    0.5941   -2.7331   -1.2717 H   0  0  0  0  0  0  0  0  0  0  0  0
   -1.3838   -2.2238    0.1122 H   0  0  0  0  0  0  0  0  0  0  0  0
   -0.1293    0.7959   -3.6739 H   0  0  0  0  0  0  0  0  0  0  0  0
   -2.8990    1.6241   -3.1786 H   0  0  0  0  0  0  0  0  0  0  0  0
   -1.9243    2.5014   -1.9609 H   0  0  0  0  0  0  0  0  0  0  0  0
   -3.6285    2.0876   -0.4237 H   0  0  0  0  0  0  0  0  0  0  0  0
   -4.4596    1.0121   -1.5659 H   0  0  0  0  0  0  0  0  0  0  0  0
   -5.6105    0.4743    0.3657 H   0  0  0  0  0  0  0  0  0  0  0  0
   -5.2029   -1.0609    3.0392 H   0  0  0  0  0  0  0  0  0  0  0  0
   -6.6540   -1.0230    2.0080 H   0  0  0  0  0  0  0  0  0  0  0  0
   -6.9959    1.4092    2.4441 H   0  0  0  0  0  0  0  0  0  0  0  0
   -6.1226    1.0661    3.9602 H   0  0  0  0  0  0  0  0  0  0  0  0
   -3.9054    1.3603    2.8360 H   0  0  0  0  0  0  0  0  0  0  0  0
   -4.8290    2.4189    1.7408 H   0  0  0  0  0  0  0  0  0  0  0  0
    2.3139   -0.1191    0.4097 H   0  0  0  0  0  0  0  0  0  0  0  0
    3.3729   -0.1672    2.6277 H   0  0  0  0  0  0  0  0  0  0  0  0
  1  2  1  0
  2  3  2  0
  3  4  1  0
  4  5  2  0
  5  6  1  0
  6  7  1  0
  7  8  1  0
  8  9  2  0
  8 10  2  0
  8 11  1  0
 11 12  2  0
 12 13  1  0
 13 14  2  0
 14 15  1  0
 15 16  2  0
 15 17  1  0
 17 18  1  0
 18 19  1  0
 19 20  1  0
 20 21  2  0
 20 22  1  0
 22 23  1  0
 23 24  1  0
 24 25  1  0
  5 26  1  0
 26 27  2  0
 27  2  1  0
 16 11  1  0
 25 22  1  0
 19 14  1  0
  1 28  1  0
  1 29  1  0
  1 30  1  0
  3 31  1  0
  4 32  1  0
  6 33  1  0
  6 34  1  0
  7 35  1  0
 12 36  1  0
 13 37  1  0
 16 38  1  0
 17 39  1  0
 17 40  1  0
 18 41  1  0
 18 42  1  0
 22 43  1  0
 23 44  1  0
 23 45  1  0
 24 46  1  0
 24 47  1  0
 25 48  1  0
 25 49  1  0
 26 50  1  0
 27 51  1  0
M  END
$$$$
