
     RDKit          3D

 51 54  0  0  0  0  0  0  0  0999 V2000
   -0.6845   -2.4594    1.5128 O   0  0  0  0  0  0  0  0  0  0  0  0
   -0.8964   -1.3690    0.9764 C   0  0  0  0  0  0  0  0  0  0  0  0
    0.2109   -0.4181    0.8052 C   0  0  0  0  0  0  0  0  0  0  0  0
    1.5911   -0.7488    0.7384 C   0  0  0  0  0  0  0  0  0  0  0  0
    2.2405    0.4563    0.6343 C   0  0  0  0  0  0  0  0  0  0  0  0
    3.6583    0.8717    0.5339 C   0  0  0  0  0  0  0  0  0  0  0  0
    4.3218   -0.1064   -0.2661 O   0  0  0  0  0  0  0  0  0  0  0  0
    5.6598    0.0711   -0.4835 C   0  0  0  0  0  0  0  0  0  0  0  0
    6.4424    1.1160    0.0076 C   0  0  0  0  0  0  0  0  0  0  0  0
    7.8047    1.1753   -0.2981 C   0  0  0  0  0  0  0  0  0  0  0  0
    8.3915    0.1907   -1.0930 C   0  0  0  0  0  0  0  0  0  0  0  0
    7.6223   -0.8715   -1.5863 C   0  0  0  0  0  0  0  0  0  0  0  0
    8.2429   -1.9280   -2.4647 C   0  0  0  0  0  0  0  0  0  0  0  0
    9.5540   -2.1590   -2.1748 F   0  0  0  0  0  0  0  0  0  0  0  0
    7.6245   -3.1381   -2.3695 F   0  0  0  0  0  0  0  0  0  0  0  0
    8.2062   -1.5912   -3.7833 F   0  0  0  0  0  0  0  0  0  0  0  0
    6.2531   -0.9140   -1.2787 C   0  0  0  0  0  0  0  0  0  0  0  0
    1.3198    1.4556    0.6640 O   0  0  0  0  0  0  0  0  0  0  0  0
    0.0546    0.9178    0.7926 N   0  0  0  0  0  0  0  0  0  0  0  0
   -2.1864   -1.0236    0.5528 N   0  0  0  0  0  0  0  0  0  0  0  0
   -2.5067   -0.0281   -0.4650 C   0  0  0  0  0  0  0  0  0  0  0  0
   -3.5943    0.9210    0.0340 C   0  0  0  0  0  0  0  0  0  0  0  0
   -4.6746    0.1961    0.8690 C   0  0  0  0  0  0  0  0  0  0  0  0
   -6.0462    0.8082    0.6633 C   0  0  0  0  0  0  0  0  0  0  0  0
   -6.7537    0.6566   -0.5341 C   0  0  0  0  0  0  0  0  0  0  0  0
   -8.0022    1.2493   -0.6548 C   0  0  0  0  0  0  0  0  0  0  0  0
   -8.5876    1.9759    0.3192 N   0  0  0  0  0  0  0  0  0  0  0  0
   -7.8899    2.1181    1.4651 C   0  0  0  0  0  0  0  0  0  0  0  0
   -6.6366    1.5644    1.6811 C   0  0  0  0  0  0  0  0  0  0  0  0
   -4.6581   -1.3223    0.6213 C   0  0  0  0  0  0  0  0  0  0  0  0
   -3.2810   -1.9034    0.9487 C   0  0  0  0  0  0  0  0  0  0  0  0
    2.0354   -1.7334    0.7640 H   0  0  0  0  0  0  0  0  0  0  0  0
    4.0920    0.9033    1.5404 H   0  0  0  0  0  0  0  0  0  0  0  0
    3.7260    1.8579    0.0592 H   0  0  0  0  0  0  0  0  0  0  0  0
    6.0294    1.9040    0.6291 H   0  0  0  0  0  0  0  0  0  0  0  0
    8.4104    1.9942    0.0843 H   0  0  0  0  0  0  0  0  0  0  0  0
    9.4539    0.2535   -1.3252 H   0  0  0  0  0  0  0  0  0  0  0  0
    5.6369   -1.7268   -1.6618 H   0  0  0  0  0  0  0  0  0  0  0  0
   -1.6377    0.5263   -0.8195 H   0  0  0  0  0  0  0  0  0  0  0  0
   -2.8682   -0.5808   -1.3423 H   0  0  0  0  0  0  0  0  0  0  0  0
   -4.0203    1.4458   -0.8296 H   0  0  0  0  0  0  0  0  0  0  0  0
   -3.1396    1.6980    0.6627 H   0  0  0  0  0  0  0  0  0  0  0  0
   -4.4053    0.3343    1.9267 H   0  0  0  0  0  0  0  0  0  0  0  0
   -6.3488    0.0938   -1.3679 H   0  0  0  0  0  0  0  0  0  0  0  0
   -8.5806    1.1521   -1.5691 H   0  0  0  0  0  0  0  0  0  0  0  0
   -8.3791    2.7094    2.2340 H   0  0  0  0  0  0  0  0  0  0  0  0
   -6.1365    1.7259    2.6306 H   0  0  0  0  0  0  0  0  0  0  0  0
   -4.8969   -1.5393   -0.4277 H   0  0  0  0  0  0  0  0  0  0  0  0
   -5.4231   -1.8297    1.2216 H   0  0  0  0  0  0  0  0  0  0  0  0
   -3.1509   -2.8691    0.4464 H   0  0  0  0  0  0  0  0  0  0  0  0
   -3.1970   -2.0825    2.0275 H   0  0  0  0  0  0  0  0  0  0  0  0
  1  2  2  0
  2  3  1  0
  3  4  1  0
  4  5  2  0
  5  6  1  0
  6  7  1  0
  7  8  1  0
  8  9  2  0
  9 10  1  0
 10 11  2  0
 11 12  1  0
 12 13  1  0
 13 14  1  0
 13 15  1  0
 13 16  1  0
 12 17  2  0
  5 18  1  0
 18 19  1  0
  2 20  1  0
 20 21  1  0
 21 22  1  0
 22 23  1  0
 23 24  1  0
 24 25  2  0
 25 26  1  0
 26 27  2  0
 27 28  1  0
 28 29  2  0
 23 30  1  0
 30 31  1  0
 19  3  2  0
 31 20  1  0
 17  8  1  0
 29 24  1  0
  4 32  1  0
  6 33  1  0
  6 34  1  0
  9 35  1  0
 10 36  1  0
 11 37  1  0
 17 38  1  0
 21 39  1  0
 21 40  1  0
 22 41  1  0
 22 42  1  0
 23 43  1  0
 25 44  1  0
 26 45  1  0
 28 46  1  0
 29 47  1  0
 30 48  1  0
 30 49  1  0
 31 50  1  0
 31 51  1  0
M  END
$$$$
