
     RDKit          3D

 46 49  0  0  0  0  0  0  0  0999 V2000
   -2.8385    1.1660    0.5441 O   0  0  0  0  0  0  0  0  0  0  0  0
   -3.2408    0.2277   -0.1342 C   0  0  0  0  0  0  0  0  0  0  0  0
   -2.4456   -0.6728   -0.8183 N   0  0  0  0  0  0  0  0  0  0  0  0
   -1.0359   -0.7078   -0.8785 C   0  0  0  0  0  0  0  0  0  0  0  0
   -0.4624   -1.7252   -1.6534 C   0  0  0  0  0  0  0  0  0  0  0  0
    0.9266   -1.8390   -1.7717 C   0  0  0  0  0  0  0  0  0  0  0  0
    1.7686   -0.9399   -1.1203 C   0  0  0  0  0  0  0  0  0  0  0  0
    3.1517   -1.0941   -1.2589 N   0  0  0  0  0  0  0  0  0  0  0  0
    3.9272   -0.2392   -0.6739 C   0  0  0  0  0  0  0  0  0  0  0  0
    3.4700    0.8235    0.0839 N   0  0  0  0  0  0  0  0  0  0  0  0
    2.1118    1.0064    0.3284 C   0  0  0  0  0  0  0  0  0  0  0  0
    1.6591    1.8754    1.0684 O   0  0  0  0  0  0  0  0  0  0  0  0
    1.1975    0.0698   -0.3511 C   0  0  0  0  0  0  0  0  0  0  0  0
   -0.1952    0.1930   -0.2239 C   0  0  0  0  0  0  0  0  0  0  0  0
    4.4099    1.7225    0.7448 C   0  0  0  0  0  0  0  0  0  0  0  0
    5.0792    1.0763    1.9573 C   0  0  0  0  0  0  0  0  0  0  0  0
    5.4420   -0.4007    1.7957 C   0  0  0  0  0  0  0  0  0  0  0  0
    6.1509   -0.7671    0.4923 C   0  0  0  0  0  0  0  0  0  0  0  0
    5.4294   -0.4183   -0.8124 C   0  0  0  0  0  0  0  0  0  0  0  0
   -4.7209    0.0347   -0.2364 C   0  0  0  0  0  0  0  0  0  0  0  0
   -5.5588    0.9326    0.4502 C   0  0  0  0  0  0  0  0  0  0  0  0
   -6.9524    0.7864    0.3804 C   0  0  0  0  0  0  0  0  0  0  0  0
   -7.8243    1.7266    1.0990 N   0  0  0  0  0  4  0  0  0  0  0  0
   -9.0480    1.5552    1.0083 O   0  0  0  0  0  0  0  0  0  0  0  0
   -7.2858    2.6310    1.7500 O   0  0  0  0  0  1  0  0  0  0  0  0
   -7.5236   -0.2504   -0.3702 C   0  0  0  0  0  0  0  0  0  0  0  0
   -6.6930   -1.1407   -1.0510 C   0  0  0  0  0  0  0  0  0  0  0  0
   -5.3069   -0.9944   -0.9810 C   0  0  0  0  0  0  0  0  0  0  0  0
   -4.5524   -1.8766   -1.6541 F   0  0  0  0  0  0  0  0  0  0  0  0
   -2.9186   -1.3996   -1.3453 H   0  0  0  0  0  0  0  0  0  0  0  0
   -1.0851   -2.4464   -2.1774 H   0  0  0  0  0  0  0  0  0  0  0  0
    1.3575   -2.6343   -2.3747 H   0  0  0  0  0  0  0  0  0  0  0  0
   -0.5870    0.9983    0.3901 H   0  0  0  0  0  0  0  0  0  0  0  0
    5.1708    2.0350    0.0222 H   0  0  0  0  0  0  0  0  0  0  0  0
    3.9084    2.6447    1.0600 H   0  0  0  0  0  0  0  0  0  0  0  0
    4.4076    1.1620    2.8211 H   0  0  0  0  0  0  0  0  0  0  0  0
    5.9776    1.6522    2.2101 H   0  0  0  0  0  0  0  0  0  0  0  0
    6.0801   -0.6950    2.6384 H   0  0  0  0  0  0  0  0  0  0  0  0
    4.5330   -1.0085    1.8929 H   0  0  0  0  0  0  0  0  0  0  0  0
    6.3249   -1.8510    0.5061 H   0  0  0  0  0  0  0  0  0  0  0  0
    7.1473   -0.3084    0.4764 H   0  0  0  0  0  0  0  0  0  0  0  0
    5.8528    0.4951   -1.2451 H   0  0  0  0  0  0  0  0  0  0  0  0
    5.6288   -1.2049   -1.5512 H   0  0  0  0  0  0  0  0  0  0  0  0
   -5.1162    1.7399    1.0348 H   0  0  0  0  0  0  0  0  0  0  0  0
   -8.6034   -0.3761   -0.4334 H   0  0  0  0  0  0  0  0  0  0  0  0
   -7.1177   -1.9510   -1.6383 H   0  0  0  0  0  0  0  0  0  0  0  0
  1  2  2  0
  2  3  1  0
  3  4  1  0
  4  5  2  0
  5  6  1  0
  6  7  2  0
  7  8  1  0
  8  9  2  0
  9 10  1  0
 10 11  1  0
 11 12  2  0
 11 13  1  0
 13 14  2  0
 10 15  1  0
 15 16  1  0
 16 17  1  0
 17 18  1  0
 18 19  1  0
  2 20  1  0
 20 21  2  0
 21 22  1  0
 22 23  1  0
 23 24  2  0
 23 25  1  0
 22 26  2  0
 26 27  1  0
 27 28  2  0
 28 29  1  0
 14  4  1  0
 28 20  1  0
 13  7  1  0
 19  9  1  0
  3 30  1  0
  5 31  1  0
  6 32  1  0
 14 33  1  0
 15 34  1  0
 15 35  1  0
 16 36  1  0
 16 37  1  0
 17 38  1  0
 17 39  1  0
 18 40  1  0
 18 41  1  0
 19 42  1  0
 19 43  1  0
 21 44  1  0
 26 45  1  0
 27 46  1  0
M  CHG  2  23   1  25  -1
M  END
$$$$
