
     RDKit          3D

 29 31  0  0  0  0  0  0  0  0999 V2000
    0.1665   -1.3065   -0.9433 O   0  0  0  0  0  0  0  0  0  0  0  0
   -0.0956   -0.4213   -0.1369 C   0  0  0  0  0  0  0  0  0  0  0  0
   -1.5033   -0.0125    0.1419 C   0  0  0  0  0  0  0  0  0  0  0  0
   -2.5171   -0.6319   -0.4774 C   0  0  0  0  0  0  0  0  0  0  0  0
   -3.9067   -0.3557   -0.3404 C   0  0  0  0  0  0  0  0  0  0  0  0
   -4.6669    0.1897    0.6904 C   0  0  0  0  0  0  0  0  0  0  0  0
   -6.0224    0.2110    0.2803 C   0  0  0  0  0  0  0  0  0  0  0  0
   -6.0396   -0.3354   -0.9748 C   0  0  0  0  0  0  0  0  0  0  0  0
   -4.7883   -0.6868   -1.3510 O   0  0  0  0  0  0  0  0  0  0  0  0
   -1.5268    1.2967    1.2404 S   0  0  0  0  0  0  0  0  0  0  0  0
    0.2228    1.2841    1.4591 C   0  0  0  0  0  0  0  0  0  0  0  0
    0.9078    2.2437    2.6488 S   0  0  0  0  0  0  0  0  0  0  0  0
    0.7998    0.3535    0.6022 N   0  0  0  0  0  0  0  0  0  0  0  0
    2.2127    0.1436    0.4568 C   0  0  0  0  0  0  0  0  0  0  0  0
    2.7343   -1.1533    0.3166 C   0  0  0  0  0  0  0  0  0  0  0  0
    4.1085   -1.3681    0.1709 C   0  0  0  0  0  0  0  0  0  0  0  0
    4.9768   -0.2874    0.1517 C   0  0  0  0  0  0  0  0  0  0  0  0
    6.3073   -0.5412    0.0096 O   0  0  0  0  0  0  0  0  0  0  0  0
    4.4918    1.0077    0.2669 C   0  0  0  0  0  0  0  0  0  0  0  0
    3.1152    1.2193    0.4131 C   0  0  0  0  0  0  0  0  0  0  0  0
   -2.2855   -1.4153   -1.1982 H   0  0  0  0  0  0  0  0  0  0  0  0
   -4.2965    0.5274    1.6477 H   0  0  0  0  0  0  0  0  0  0  0  0
   -6.8764    0.5708    0.8363 H   0  0  0  0  0  0  0  0  0  0  0  0
   -6.8199   -0.5400   -1.6945 H   0  0  0  0  0  0  0  0  0  0  0  0
    2.0877   -2.0278    0.3419 H   0  0  0  0  0  0  0  0  0  0  0  0
    4.4951   -2.3790    0.0731 H   0  0  0  0  0  0  0  0  0  0  0  0
    6.7901    0.3015    0.0179 H   0  0  0  0  0  0  0  0  0  0  0  0
    5.1590    1.8637    0.2357 H   0  0  0  0  0  0  0  0  0  0  0  0
    2.7696    2.2492    0.4472 H   0  0  0  0  0  0  0  0  0  0  0  0
  1  2  2  0
  2  3  1  0
  3  4  2  3
  4  5  1  0
  5  6  2  0
  6  7  1  0
  7  8  2  0
  8  9  1  0
  3 10  1  0
 10 11  1  0
 11 12  2  0
 11 13  1  0
 13 14  1  0
 14 15  2  0
 15 16  1  0
 16 17  2  0
 17 18  1  0
 17 19  1  0
 19 20  2  0
 13  2  1  0
 20 14  1  0
  9  5  1  0
  4 21  1  0
  6 22  1  0
  7 23  1  0
  8 24  1  0
 15 25  1  0
 16 26  1  0
 18 27  1  0
 19 28  1  0
 20 29  1  0
M  END
$$$$
