
     RDKit          3D

 59 62  0  0  0  0  0  0  0  0999 V2000
   -6.0979   -1.1600    1.9304 C   0  0  0  0  0  0  0  0  0  0  0  0
   -6.2602   -1.0153    0.4272 C   0  0  0  0  0  0  0  0  0  0  0  0
   -5.4478    0.0560   -0.1166 N   0  0  0  0  0  0  0  0  0  0  0  0
   -4.0923    0.0375   -0.3901 C   0  0  0  0  0  0  0  0  0  0  0  0
   -3.2184   -1.1126   -0.1887 C   0  0  0  0  0  0  0  0  0  0  0  0
   -3.6104   -2.2654   -0.3663 O   0  0  0  0  0  0  0  0  0  0  0  0
   -1.8954   -0.8473    0.2003 N   0  0  0  0  0  0  0  0  0  0  0  0
   -1.6191    0.1407    1.2408 C   0  0  0  0  0  0  0  0  0  0  0  0
   -0.1806    0.6349    1.1753 C   0  0  0  0  0  0  0  0  0  0  0  0
    0.8014   -0.5329    1.2342 C   0  0  0  0  0  0  0  0  0  0  0  0
    0.5105   -1.5711    0.1421 C   0  0  0  0  0  0  0  0  0  0  0  0
    0.9679   -1.0890   -1.2350 C   0  0  0  0  0  0  0  0  0  0  0  0
    0.2033   -0.8172   -2.1537 O   0  0  0  0  0  0  0  0  0  0  0  0
    2.3410   -0.9942   -1.3601 N   0  0  0  0  0  0  0  0  0  0  0  0
    2.9359   -0.3866   -2.5383 C   0  0  0  0  0  0  0  0  0  0  0  0
    4.4275   -0.7039   -2.6761 C   0  0  0  0  0  0  0  0  0  0  0  0
    5.2538   -0.2026   -1.5135 C   0  0  0  0  0  0  0  0  0  0  0  0
    5.8344   -1.1056   -0.6140 C   0  0  0  0  0  0  0  0  0  0  0  0
    6.5797   -0.6438    0.4733 C   0  0  0  0  0  0  0  0  0  0  0  0
    6.7503    0.7283    0.6857 C   0  0  0  0  0  0  0  0  0  0  0  0
    7.5810    1.2230    1.8325 C   0  0  0  0  0  0  0  0  0  0  0  0
    6.1876    1.6307   -0.2231 C   0  0  0  0  0  0  0  0  0  0  0  0
    5.4428    1.1701   -1.3112 C   0  0  0  0  0  0  0  0  0  0  0  0
   -0.9684   -1.9767    0.1378 C   0  0  0  0  0  0  0  0  0  0  0  0
   -3.7540    1.2674   -0.9446 C   0  0  0  0  0  0  0  0  0  0  0  0
   -4.9316    2.0601   -0.9279 C   0  0  0  0  0  0  0  0  0  0  0  0
   -5.4435    3.6563   -1.3604 S   0  0  0  0  0  0  0  0  0  0  0  0
   -7.0351    3.2860   -0.8247 C   0  0  0  0  0  0  0  0  0  0  0  0
   -7.1849    2.0035   -0.3416 C   0  0  0  0  0  0  0  0  0  0  0  0
   -5.9449    1.3084   -0.4147 C   0  0  0  0  0  0  0  0  0  0  0  0
   -6.7390   -1.9637    2.3054 H   0  0  0  0  0  0  0  0  0  0  0  0
   -6.3733   -0.2342    2.4468 H   0  0  0  0  0  0  0  0  0  0  0  0
   -5.0635   -1.3968    2.2002 H   0  0  0  0  0  0  0  0  0  0  0  0
   -7.3078   -0.8079    0.1830 H   0  0  0  0  0  0  0  0  0  0  0  0
   -6.0004   -1.9426   -0.0906 H   0  0  0  0  0  0  0  0  0  0  0  0
   -2.3010    0.9915    1.1909 H   0  0  0  0  0  0  0  0  0  0  0  0
   -1.8107   -0.3471    2.2053 H   0  0  0  0  0  0  0  0  0  0  0  0
    0.0125    1.3207    2.0077 H   0  0  0  0  0  0  0  0  0  0  0  0
   -0.0261    1.2004    0.2484 H   0  0  0  0  0  0  0  0  0  0  0  0
    0.7179   -1.0179    2.2153 H   0  0  0  0  0  0  0  0  0  0  0  0
    1.8234   -0.1457    1.1642 H   0  0  0  0  0  0  0  0  0  0  0  0
    1.0997   -2.4747    0.3516 H   0  0  0  0  0  0  0  0  0  0  0  0
    2.8964   -0.9855   -0.5136 H   0  0  0  0  0  0  0  0  0  0  0  0
    2.4024   -0.7457   -3.4258 H   0  0  0  0  0  0  0  0  0  0  0  0
    2.7633    0.6935   -2.4677 H   0  0  0  0  0  0  0  0  0  0  0  0
    4.5593   -1.7880   -2.7835 H   0  0  0  0  0  0  0  0  0  0  0  0
    4.8145   -0.2546   -3.5991 H   0  0  0  0  0  0  0  0  0  0  0  0
    5.7155   -2.1778   -0.7549 H   0  0  0  0  0  0  0  0  0  0  0  0
    7.0304   -1.3639    1.1529 H   0  0  0  0  0  0  0  0  0  0  0  0
    7.5179    0.5380    2.6845 H   0  0  0  0  0  0  0  0  0  0  0  0
    8.6278    1.3110    1.5258 H   0  0  0  0  0  0  0  0  0  0  0  0
    7.2290    2.2014    2.1762 H   0  0  0  0  0  0  0  0  0  0  0  0
    6.3277    2.7014   -0.0910 H   0  0  0  0  0  0  0  0  0  0  0  0
    5.0148    1.8934   -2.0022 H   0  0  0  0  0  0  0  0  0  0  0  0
   -1.1941   -2.5818   -0.7491 H   0  0  0  0  0  0  0  0  0  0  0  0
   -1.1774   -2.6060    1.0131 H   0  0  0  0  0  0  0  0  0  0  0  0
   -2.7769    1.5550   -1.3109 H   0  0  0  0  0  0  0  0  0  0  0  0
   -7.7980    4.0489   -0.8986 H   0  0  0  0  0  0  0  0  0  0  0  0
   -8.1168    1.5999    0.0315 H   0  0  0  0  0  0  0  0  0  0  0  0
  1  2  1  0
  2  3  1  0
  3  4  1  0
  4  5  1  0
  5  6  2  0
  5  7  1  0
  7  8  1  0
  8  9  1  0
  9 10  1  0
 10 11  1  0
 11 12  1  0
 12 13  2  0
 12 14  1  0
 14 15  1  0
 15 16  1  0
 16 17  1  0
 17 18  2  0
 18 19  1  0
 19 20  2  0
 20 21  1  0
 20 22  1  0
 22 23  2  0
 11 24  1  0
  4 25  2  0
 25 26  1  0
 26 27  1  0
 27 28  1  0
 28 29  2  0
 29 30  1  0
 30  3  1  0
 24  7  1  0
 30 26  2  0
 23 17  1  0
  1 31  1  0
  1 32  1  0
  1 33  1  0
  2 34  1  0
  2 35  1  0
  8 36  1  0
  8 37  1  0
  9 38  1  0
  9 39  1  0
 10 40  1  0
 10 41  1  0
 11 42  1  0
 14 43  1  0
 15 44  1  0
 15 45  1  0
 16 46  1  0
 16 47  1  0
 18 48  1  0
 19 49  1  0
 21 50  1  0
 21 51  1  0
 21 52  1  0
 22 53  1  0
 23 54  1  0
 24 55  1  0
 24 56  1  0
 25 57  1  0
 28 58  1  0
 29 59  1  0
M  END
$$$$
