
     RDKit          3D

 44 46  0  0  0  0  0  0  0  0999 V2000
    0.5632    0.3745   -0.5027 O   0  0  0  0  0  0  0  0  0  0  0  0
    0.8146   -0.8046   -0.7499 C   0  0  0  0  0  0  0  0  0  0  0  0
   -0.1836   -1.9455   -0.5524 C   0  0  0  0  0  0  0  0  0  0  0  0
   -1.2638   -1.6190    0.3209 O   0  0  0  0  0  0  0  0  0  0  0  0
   -0.9097   -1.5106    1.6313 C   0  0  0  0  0  0  0  0  0  0  0  0
    0.2127   -1.7581    2.0602 O   0  0  0  0  0  0  0  0  0  0  0  0
   -2.0783   -1.1298    2.5334 C   0  0  0  0  0  0  0  0  0  0  0  0
   -3.3131   -0.8471    1.8122 N   0  0  0  0  0  0  0  0  0  0  0  0
   -4.1841   -1.8663    1.5147 C   0  0  0  0  0  0  0  0  0  0  0  0
   -5.2848   -1.7321    0.8562 N   0  0  0  0  0  0  0  0  0  0  0  0
   -5.6142   -0.4469    0.3999 C   0  0  0  0  0  0  0  0  0  0  0  0
   -6.7982   -0.2692   -0.3191 C   0  0  0  0  0  0  0  0  0  0  0  0
   -7.1601    0.9950   -0.7941 C   0  0  0  0  0  0  0  0  0  0  0  0
   -6.3373    2.0956   -0.5534 C   0  0  0  0  0  0  0  0  0  0  0  0
   -5.1525    1.9330    0.1633 C   0  0  0  0  0  0  0  0  0  0  0  0
   -4.8007    0.6631    0.6349 C   0  0  0  0  0  0  0  0  0  0  0  0
   -3.5562    0.4536    1.3985 C   0  0  0  0  0  0  0  0  0  0  0  0
   -2.8101    1.3974    1.6403 O   0  0  0  0  0  0  0  0  0  0  0  0
    2.0310   -1.2107   -1.2700 N   0  0  0  0  0  0  0  0  0  0  0  0
    3.0631   -0.2583   -1.2675 N   0  0  0  0  0  0  0  0  0  0  0  0
    4.3561   -0.7136   -1.1093 C   0  0  0  0  0  0  0  0  0  0  0  0
    4.6360   -1.9105   -1.1352 O   0  0  0  0  0  0  0  0  0  0  0  0
    5.4172    0.3141   -0.9232 C   0  0  0  0  0  0  0  0  0  0  0  0
    6.7321   -0.0274   -1.2719 C   0  0  0  0  0  0  0  0  0  0  0  0
    7.7681    0.8971   -1.1164 C   0  0  0  0  0  0  0  0  0  0  0  0
    7.4915    2.1623   -0.6028 C   0  0  0  0  0  0  0  0  0  0  0  0
    8.8908    3.4147   -0.3891 Br  0  0  0  0  0  0  0  0  0  0  0  0
    6.1911    2.5090   -0.2379 C   0  0  0  0  0  0  0  0  0  0  0  0
    5.1523    1.5848   -0.3938 C   0  0  0  0  0  0  0  0  0  0  0  0
   -0.6177   -2.1712   -1.5324 H   0  0  0  0  0  0  0  0  0  0  0  0
    0.3255   -2.8519   -0.2036 H   0  0  0  0  0  0  0  0  0  0  0  0
   -1.7812   -0.2525    3.1168 H   0  0  0  0  0  0  0  0  0  0  0  0
   -2.2547   -1.9725    3.2108 H   0  0  0  0  0  0  0  0  0  0  0  0
   -3.8810   -2.8583    1.8864 H   0  0  0  0  0  0  0  0  0  0  0  0
   -7.4416   -1.1245   -0.5099 H   0  0  0  0  0  0  0  0  0  0  0  0
   -8.0848    1.1184   -1.3528 H   0  0  0  0  0  0  0  0  0  0  0  0
   -6.6185    3.0785   -0.9240 H   0  0  0  0  0  0  0  0  0  0  0  0
   -4.5072    2.7879    0.3522 H   0  0  0  0  0  0  0  0  0  0  0  0
    2.3491   -2.1761   -1.1718 H   0  0  0  0  0  0  0  0  0  0  0  0
    2.7714    0.7127   -1.1790 H   0  0  0  0  0  0  0  0  0  0  0  0
    6.9532   -1.0169   -1.6691 H   0  0  0  0  0  0  0  0  0  0  0  0
    8.7813    0.6186   -1.3949 H   0  0  0  0  0  0  0  0  0  0  0  0
    5.9767    3.4913    0.1768 H   0  0  0  0  0  0  0  0  0  0  0  0
    4.1561    1.8718   -0.0692 H   0  0  0  0  0  0  0  0  0  0  0  0
  1  2  2  0
  2  3  1  0
  3  4  1  0
  4  5  1  0
  5  6  2  0
  5  7  1  0
  7  8  1  0
  8  9  1  0
  9 10  2  0
 10 11  1  0
 11 12  2  0
 12 13  1  0
 13 14  2  0
 14 15  1  0
 15 16  2  0
 16 17  1  0
 17 18  2  0
  2 19  1  0
 19 20  1  0
 20 21  1  0
 21 22  2  0
 21 23  1  0
 23 24  2  0
 24 25  1  0
 25 26  2  0
 26 27  1  0
 26 28  1  0
 28 29  2  0
 17  8  1  0
 29 23  1  0
 16 11  1  0
  3 30  1  0
  3 31  1  0
  7 32  1  0
  7 33  1  0
  9 34  1  0
 12 35  1  0
 13 36  1  0
 14 37  1  0
 15 38  1  0
 19 39  1  0
 20 40  1  0
 24 41  1  0
 25 42  1  0
 28 43  1  0
 29 44  1  0
M  END
$$$$
