
     RDKit          3D

 62 65  0  0  0  0  0  0  0  0999 V2000
   -0.5221    3.3314    0.3871 C   0  0  0  0  0  0  0  0  0  0  0  0
   -1.3199    2.0871    0.6873 C   0  0  0  0  0  0  0  0  0  0  0  0
   -2.2555    2.1617    1.7378 C   0  0  0  0  0  0  0  0  0  0  0  0
   -3.0360    1.0609    2.0898 C   0  0  0  0  0  0  0  0  0  0  0  0
   -3.9200    1.1624    3.1270 O   0  0  0  0  0  0  0  0  0  0  0  0
   -2.9236   -0.1458    1.4038 C   0  0  0  0  0  0  0  0  0  0  0  0
   -3.7425   -1.3688    1.7936 C   0  0  0  0  0  0  0  0  0  0  0  0
   -2.8365   -2.4987    2.2976 C   0  0  0  0  0  0  0  0  0  0  0  0
   -4.6351   -1.8551    0.6444 C   0  0  0  0  0  0  0  0  0  0  0  0
   -2.0063   -0.2104    0.3370 C   0  0  0  0  0  0  0  0  0  0  0  0
   -1.1977    0.8846   -0.0577 C   0  0  0  0  0  0  0  0  0  0  0  0
   -0.1963    0.7379   -1.2453 C   0  0  0  0  0  0  0  0  0  0  0  0
    1.2924    0.6737   -0.8097 C   0  0  0  0  0  0  0  0  0  0  0  0
    1.6042    0.1397    0.4700 C   0  0  0  0  0  0  0  0  0  0  0  0
    2.9191    0.0195    0.9580 C   0  0  0  0  0  0  0  0  0  0  0  0
    3.1290   -0.5332    2.3604 C   0  0  0  0  0  0  0  0  0  0  0  0
    3.8300    0.4637    3.2900 C   0  0  0  0  0  0  0  0  0  0  0  0
    3.8416   -1.8908    2.3487 C   0  0  0  0  0  0  0  0  0  0  0  0
    3.9580    0.4137    0.1170 C   0  0  0  0  0  0  0  0  0  0  0  0
    5.2525    0.2931    0.5362 O   0  0  0  0  0  0  0  0  0  0  0  0
    3.6967    0.9224   -1.1556 C   0  0  0  0  0  0  0  0  0  0  0  0
    2.3786    1.0586   -1.6364 C   0  0  0  0  0  0  0  0  0  0  0  0
    2.2175    1.6146   -3.0289 C   0  0  0  0  0  0  0  0  0  0  0  0
   -0.4664    1.9088   -2.0732 O   0  0  0  0  0  0  0  0  0  0  0  0
   -1.1966    1.6130   -3.1844 C   0  0  0  0  0  0  0  0  0  0  0  0
   -1.6856    2.4052   -3.9637 O   0  0  0  0  0  0  0  0  0  0  0  0
   -1.1889    0.1651   -3.3062 C   0  0  0  0  0  0  0  0  0  0  0  0
   -1.6618   -0.6068   -4.3552 C   0  0  0  0  0  0  0  0  0  0  0  0
   -1.4412   -1.9834   -4.2950 C   0  0  0  0  0  0  0  0  0  0  0  0
   -0.7431   -2.5411   -3.2118 C   0  0  0  0  0  0  0  0  0  0  0  0
   -0.2774   -1.7337   -2.1662 C   0  0  0  0  0  0  0  0  0  0  0  0
   -0.5299   -0.3666   -2.2158 C   0  0  0  0  0  0  0  0  0  0  0  0
   -0.4927    3.9988    1.2566 H   0  0  0  0  0  0  0  0  0  0  0  0
   -0.9768    3.8808   -0.4429 H   0  0  0  0  0  0  0  0  0  0  0  0
    0.5185    3.1014    0.1492 H   0  0  0  0  0  0  0  0  0  0  0  0
   -2.3604    3.0943    2.2875 H   0  0  0  0  0  0  0  0  0  0  0  0
   -3.9266    2.0799    3.4428 H   0  0  0  0  0  0  0  0  0  0  0  0
   -4.4211   -1.1133    2.6197 H   0  0  0  0  0  0  0  0  0  0  0  0
   -3.4377   -3.3371    2.6690 H   0  0  0  0  0  0  0  0  0  0  0  0
   -2.1980   -2.1540    3.1188 H   0  0  0  0  0  0  0  0  0  0  0  0
   -2.1824   -2.8845    1.5073 H   0  0  0  0  0  0  0  0  0  0  0  0
   -5.2329   -2.7215    0.9563 H   0  0  0  0  0  0  0  0  0  0  0  0
   -5.3276   -1.0626    0.3411 H   0  0  0  0  0  0  0  0  0  0  0  0
   -4.0592   -2.1543   -0.2363 H   0  0  0  0  0  0  0  0  0  0  0  0
   -1.9281   -1.1602   -0.1862 H   0  0  0  0  0  0  0  0  0  0  0  0
    0.7976   -0.1884    1.1267 H   0  0  0  0  0  0  0  0  0  0  0  0
    2.1393   -0.7124    2.8077 H   0  0  0  0  0  0  0  0  0  0  0  0
    4.8582    0.6775    2.9817 H   0  0  0  0  0  0  0  0  0  0  0  0
    3.8700    0.0665    4.3101 H   0  0  0  0  0  0  0  0  0  0  0  0
    3.2829    1.4121    3.3253 H   0  0  0  0  0  0  0  0  0  0  0  0
    3.2906   -2.6145    1.7346 H   0  0  0  0  0  0  0  0  0  0  0  0
    3.9052   -2.2975    3.3649 H   0  0  0  0  0  0  0  0  0  0  0  0
    4.8623   -1.8250    1.9528 H   0  0  0  0  0  0  0  0  0  0  0  0
    5.8469    0.5986   -0.1710 H   0  0  0  0  0  0  0  0  0  0  0  0
    4.5276    1.2154   -1.7962 H   0  0  0  0  0  0  0  0  0  0  0  0
    1.7145    2.5864   -3.0031 H   0  0  0  0  0  0  0  0  0  0  0  0
    3.1869    1.7808   -3.5100 H   0  0  0  0  0  0  0  0  0  0  0  0
    1.6713    0.9149   -3.6667 H   0  0  0  0  0  0  0  0  0  0  0  0
   -2.1722   -0.1529   -5.1988 H   0  0  0  0  0  0  0  0  0  0  0  0
   -1.7966   -2.6244   -5.1004 H   0  0  0  0  0  0  0  0  0  0  0  0
   -0.5619   -3.6142   -3.1870 H   0  0  0  0  0  0  0  0  0  0  0  0
    0.2657   -2.1734   -1.3342 H   0  0  0  0  0  0  0  0  0  0  0  0
  1  2  1  0
  2  3  2  0
  3  4  1  0
  4  5  1  0
  4  6  2  0
  6  7  1  0
  7  8  1  0
  7  9  1  0
  6 10  1  0
 10 11  2  0
 11 12  1  0
 12 13  1  0
 13 14  2  0
 14 15  1  0
 15 16  1  0
 16 17  1  0
 16 18  1  0
 15 19  2  0
 19 20  1  0
 19 21  1  0
 21 22  2  0
 22 23  1  0
 12 24  1  0
 24 25  1  0
 25 26  2  0
 25 27  1  0
 27 28  2  0
 28 29  1  0
 29 30  2  0
 30 31  1  0
 31 32  2  0
 11  2  1  0
 32 12  1  0
 22 13  1  0
 32 27  1  0
  1 33  1  0
  1 34  1  0
  1 35  1  0
  3 36  1  0
  5 37  1  0
  7 38  1  0
  8 39  1  0
  8 40  1  0
  8 41  1  0
  9 42  1  0
  9 43  1  0
  9 44  1  0
 10 45  1  0
 14 46  1  0
 16 47  1  0
 17 48  1  0
 17 49  1  0
 17 50  1  0
 18 51  1  0
 18 52  1  0
 18 53  1  0
 20 54  1  0
 21 55  1  0
 23 56  1  0
 23 57  1  0
 23 58  1  0
 28 59  1  0
 29 60  1  0
 30 61  1  0
 31 62  1  0
M  END
$$$$
