
     RDKit          3D

 40 41  0  0  0  0  0  0  0  0999 V2000
    0.0310    2.0056   -3.1943 C   0  0  0  0  0  0  0  0  0  0  0  0
   -0.5125    0.5891   -3.0649 C   0  0  0  0  0  0  0  0  0  0  0  0
   -0.8413    0.2090   -1.6355 C   0  0  0  0  0  0  0  0  0  0  0  0
   -2.1152    0.4510   -1.1186 C   0  0  0  0  0  0  0  0  0  0  0  0
   -3.2157    1.0803   -1.9255 C   0  0  0  0  0  0  0  0  0  0  0  0
   -2.4693    0.1214    0.1434 N   0  0  0  0  0  0  0  0  0  0  0  0
   -1.6020   -0.4916    0.9717 C   0  0  0  0  0  0  0  0  0  0  0  0
   -2.0153   -0.8507    2.2725 C   0  0  0  0  0  0  0  0  0  0  0  0
   -3.3134   -0.5134    2.5987 O   0  0  0  0  0  0  0  0  0  0  0  0
   -3.8104   -0.9161    3.8658 C   0  0  0  0  0  0  0  0  0  0  0  0
   -1.1476   -1.5020    3.1562 C   0  0  0  0  0  0  0  0  0  0  0  0
    0.1415   -1.8128    2.7543 C   0  0  0  0  0  0  0  0  0  0  0  0
    0.5635   -1.4631    1.4755 C   0  0  0  0  0  0  0  0  0  0  0  0
   -0.2869   -0.7861    0.5603 C   0  0  0  0  0  0  0  0  0  0  0  0
    0.0936   -0.3886   -0.7600 C   0  0  0  0  0  0  0  0  0  0  0  0
    1.7940   -0.6659   -1.3363 S   0  0  0  0  0  0  0  0  0  0  0  0
    2.6314    0.6828   -0.4235 C   0  0  0  0  0  0  0  0  0  0  0  0
    4.1014    0.7825   -0.8051 C   0  0  0  0  0  0  0  0  0  0  0  0
    4.9249   -0.3890   -0.3511 C   0  0  0  0  0  0  0  0  0  0  0  0
    5.7915   -0.9479   -1.0033 O   0  0  0  0  0  0  0  0  0  0  0  0
    4.6977   -0.7514    0.9250 O   0  0  0  0  0  0  0  0  0  0  0  0
    0.9785    2.1261   -2.6627 H   0  0  0  0  0  0  0  0  0  0  0  0
    0.2081    2.2441   -4.2480 H   0  0  0  0  0  0  0  0  0  0  0  0
   -0.6700    2.7450   -2.7947 H   0  0  0  0  0  0  0  0  0  0  0  0
   -1.4043    0.4910   -3.6946 H   0  0  0  0  0  0  0  0  0  0  0  0
    0.1928   -0.1232   -3.5067 H   0  0  0  0  0  0  0  0  0  0  0  0
   -2.9056    2.0519   -2.3197 H   0  0  0  0  0  0  0  0  0  0  0  0
   -3.5084    0.4231   -2.7499 H   0  0  0  0  0  0  0  0  0  0  0  0
   -4.1036    1.2479   -1.3059 H   0  0  0  0  0  0  0  0  0  0  0  0
   -3.7882   -2.0056    3.9727 H   0  0  0  0  0  0  0  0  0  0  0  0
   -3.2633   -0.4259    4.6776 H   0  0  0  0  0  0  0  0  0  0  0  0
   -4.8554   -0.5981    3.9316 H   0  0  0  0  0  0  0  0  0  0  0  0
   -1.4504   -1.7818    4.1590 H   0  0  0  0  0  0  0  0  0  0  0  0
    0.8186   -2.3280    3.4307 H   0  0  0  0  0  0  0  0  0  0  0  0
    1.5780   -1.7380    1.1949 H   0  0  0  0  0  0  0  0  0  0  0  0
    2.5177    0.5261    0.6530 H   0  0  0  0  0  0  0  0  0  0  0  0
    2.1358    1.6270   -0.6701 H   0  0  0  0  0  0  0  0  0  0  0  0
    4.2098    0.8850   -1.8913 H   0  0  0  0  0  0  0  0  0  0  0  0
    4.5400    1.6791   -0.3519 H   0  0  0  0  0  0  0  0  0  0  0  0
    5.3288   -1.4885    1.0706 H   0  0  0  0  0  0  0  0  0  0  0  0
  1  2  1  0
  2  3  1  0
  3  4  2  0
  4  5  1  0
  4  6  1  0
  6  7  2  0
  7  8  1  0
  8  9  1  0
  9 10  1  0
  8 11  2  0
 11 12  1  0
 12 13  2  0
 13 14  1  0
 14 15  2  0
 15 16  1  0
 16 17  1  0
 17 18  1  0
 18 19  1  0
 19 20  2  0
 19 21  1  0
 15  3  1  0
 14  7  1  0
  1 22  1  0
  1 23  1  0
  1 24  1  0
  2 25  1  0
  2 26  1  0
  5 27  1  0
  5 28  1  0
  5 29  1  0
 10 30  1  0
 10 31  1  0
 10 32  1  0
 11 33  1  0
 12 34  1  0
 13 35  1  0
 17 36  1  0
 17 37  1  0
 18 38  1  0
 18 39  1  0
 21 40  1  0
M  END
$$$$
