
     RDKit          3D

 33 34  0  0  0  0  0  0  0  0999 V2000
    6.4211    1.2122   -0.3970 C   0  0  0  0  0  0  0  0  0  0  0  0
    5.4777    0.9640    0.7722 C   0  0  0  0  0  0  0  0  0  0  0  0
    5.3933   -0.5025    1.2003 C   0  0  0  0  0  0  0  0  0  0  0  0
    4.6947   -1.6079   -0.0668 S   0  0  0  0  0  0  0  0  0  0  0  0
    2.9925   -1.2207    0.0284 C   0  0  0  0  0  0  0  0  0  0  0  0
    2.4743   -0.4695    0.9751 N   0  0  0  0  0  0  0  0  0  0  0  0
    1.1073   -0.3143    0.8248 N   0  0  0  0  0  0  0  0  0  0  0  0
    0.6600   -0.9595   -0.2238 C   0  0  0  0  0  0  0  0  0  0  0  0
   -0.6070   -1.0807   -0.7270 N   0  0  0  0  0  0  0  0  0  0  0  0
   -1.6754   -0.3847   -0.1968 C   0  0  0  0  0  0  0  0  0  0  0  0
   -1.5951    0.4196    0.7210 O   0  0  0  0  0  0  0  0  0  0  0  0
   -2.8497   -0.7279   -0.8561 N   0  0  0  0  0  0  0  0  0  0  0  0
   -4.1369   -0.1811   -0.6632 C   0  0  0  0  0  0  0  0  0  0  0  0
   -4.4095    0.9079    0.1663 C   0  0  0  0  0  0  0  0  0  0  0  0
   -5.7154    1.3931    0.2946 C   0  0  0  0  0  0  0  0  0  0  0  0
   -6.7593    0.7962   -0.4076 C   0  0  0  0  0  0  0  0  0  0  0  0
   -6.4988   -0.2870   -1.2416 C   0  0  0  0  0  0  0  0  0  0  0  0
   -5.1941   -0.7717   -1.3697 C   0  0  0  0  0  0  0  0  0  0  0  0
    1.8490   -1.8077   -1.1095 S   0  0  0  0  0  0  0  0  0  0  0  0
    6.5124    2.2874   -0.5821 H   0  0  0  0  0  0  0  0  0  0  0  0
    7.4211    0.8208   -0.1845 H   0  0  0  0  0  0  0  0  0  0  0  0
    6.0560    0.7489   -1.3182 H   0  0  0  0  0  0  0  0  0  0  0  0
    5.8384    1.5465    1.6290 H   0  0  0  0  0  0  0  0  0  0  0  0
    4.4847    1.3586    0.5294 H   0  0  0  0  0  0  0  0  0  0  0  0
    4.8146   -0.5929    2.1258 H   0  0  0  0  0  0  0  0  0  0  0  0
    6.4003   -0.8692    1.4287 H   0  0  0  0  0  0  0  0  0  0  0  0
   -0.7087   -1.6079   -1.5760 H   0  0  0  0  0  0  0  0  0  0  0  0
   -2.8045   -1.5229   -1.4733 H   0  0  0  0  0  0  0  0  0  0  0  0
   -3.6277    1.4096    0.7284 H   0  0  0  0  0  0  0  0  0  0  0  0
   -5.9113    2.2408    0.9468 H   0  0  0  0  0  0  0  0  0  0  0  0
   -7.7721    1.1764   -0.3040 H   0  0  0  0  0  0  0  0  0  0  0  0
   -7.3104   -0.7552   -1.7922 H   0  0  0  0  0  0  0  0  0  0  0  0
   -5.0215   -1.6186   -2.0281 H   0  0  0  0  0  0  0  0  0  0  0  0
  1  2  1  0
  2  3  1  0
  3  4  1  0
  4  5  1  0
  5  6  2  0
  6  7  1  0
  7  8  2  0
  8  9  1  0
  9 10  1  0
 10 11  2  0
 10 12  1  0
 12 13  1  0
 13 14  2  0
 14 15  1  0
 15 16  2  0
 16 17  1  0
 17 18  2  0
  8 19  1  0
 19  5  1  0
 18 13  1  0
  1 20  1  0
  1 21  1  0
  1 22  1  0
  2 23  1  0
  2 24  1  0
  3 25  1  0
  3 26  1  0
  9 27  1  0
 12 28  1  0
 14 29  1  0
 15 30  1  0
 16 31  1  0
 17 32  1  0
 18 33  1  0
M  END
$$$$
