
     RDKit          3D

 57 58  0  0  0  0  0  0  0  0999 V2000
    7.2403   -3.4509    1.2964 C   0  0  0  0  0  0  0  0  0  0  0  0
    5.9311   -2.7087    1.0729 C   0  0  0  0  0  0  0  0  0  0  0  0
    5.6303   -2.5448   -0.4198 C   0  0  0  0  0  0  0  0  0  0  0  0
    4.3116   -1.8101   -0.6614 C   0  0  0  0  0  0  0  0  0  0  0  0
    4.4434   -0.4674   -0.1868 O   0  0  0  0  0  0  0  0  0  0  0  0
    3.3570    0.3503   -0.3258 C   0  0  0  0  0  0  0  0  0  0  0  0
    3.5351    1.6423    0.1698 C   0  0  0  0  0  0  0  0  0  0  0  0
    2.5070    2.5862    0.0946 C   0  0  0  0  0  0  0  0  0  0  0  0
    1.2793    2.2579   -0.4951 C   0  0  0  0  0  0  0  0  0  0  0  0
    0.1130    3.2306   -0.5690 C   0  0  0  0  0  0  0  0  0  0  0  0
    0.5330    4.6944   -0.7402 C   0  0  0  0  0  0  0  0  0  0  0  0
   -0.7215    3.0523    0.6100 N   0  0  0  0  0  0  0  0  0  0  0  0
   -2.0361    3.4461    0.6180 C   0  0  0  0  0  0  0  0  0  0  0  0
   -2.5646    4.1178   -0.2609 O   0  0  0  0  0  0  0  0  0  0  0  0
   -2.8146    2.9915    1.8317 C   0  0  0  0  0  0  0  0  0  0  0  0
   -4.0439    2.2115    1.3934 C   0  0  0  0  0  0  0  0  0  0  0  0
   -3.6080    0.5615    0.8633 S   0  0  0  0  0  6  0  0  0  0  0  0
   -3.1813   -0.1557    2.0519 O   0  0  0  0  0  0  0  0  0  0  0  0
   -2.7315    0.6729   -0.2875 O   0  0  0  0  0  0  0  0  0  0  0  0
   -5.1896   -0.0876    0.3284 C   0  0  0  0  0  0  0  0  0  0  0  0
   -5.0106   -1.4895   -0.1938 C   0  0  0  0  0  0  0  0  0  0  0  0
   -5.0054   -2.5850    0.6831 C   0  0  0  0  0  0  0  0  0  0  0  0
   -4.8416   -3.8837    0.1969 C   0  0  0  0  0  0  0  0  0  0  0  0
   -4.6812   -4.1033   -1.1710 C   0  0  0  0  0  0  0  0  0  0  0  0
   -4.6784   -3.0210   -2.0477 C   0  0  0  0  0  0  0  0  0  0  0  0
   -4.4780   -3.2897   -3.7366 Cl  0  0  0  0  0  0  0  0  0  0  0  0
   -4.8393   -1.7205   -1.5680 C   0  0  0  0  0  0  0  0  0  0  0  0
    1.1034    0.9492   -0.9737 C   0  0  0  0  0  0  0  0  0  0  0  0
    2.1338    0.0054   -0.8954 C   0  0  0  0  0  0  0  0  0  0  0  0
    7.4324   -3.5667    2.3664 H   0  0  0  0  0  0  0  0  0  0  0  0
    8.0796   -2.9034    0.8605 H   0  0  0  0  0  0  0  0  0  0  0  0
    7.2100   -4.4460    0.8472 H   0  0  0  0  0  0  0  0  0  0  0  0
    5.1161   -3.2628    1.5559 H   0  0  0  0  0  0  0  0  0  0  0  0
    5.9907   -1.7270    1.5597 H   0  0  0  0  0  0  0  0  0  0  0  0
    5.5842   -3.5320   -0.8975 H   0  0  0  0  0  0  0  0  0  0  0  0
    6.4502   -1.9850   -0.8888 H   0  0  0  0  0  0  0  0  0  0  0  0
    4.1065   -1.8076   -1.7396 H   0  0  0  0  0  0  0  0  0  0  0  0
    3.4992   -2.3248   -0.1289 H   0  0  0  0  0  0  0  0  0  0  0  0
    4.4842    1.9161    0.6273 H   0  0  0  0  0  0  0  0  0  0  0  0
    2.6851    3.5749    0.5099 H   0  0  0  0  0  0  0  0  0  0  0  0
   -0.4925    2.9687   -1.4469 H   0  0  0  0  0  0  0  0  0  0  0  0
    1.0106    5.0900    0.1630 H   0  0  0  0  0  0  0  0  0  0  0  0
   -0.3354    5.3303   -0.9413 H   0  0  0  0  0  0  0  0  0  0  0  0
    1.2300    4.8099   -1.5777 H   0  0  0  0  0  0  0  0  0  0  0  0
   -0.4419    2.3121    1.2429 H   0  0  0  0  0  0  0  0  0  0  0  0
   -2.1874    2.4025    2.5092 H   0  0  0  0  0  0  0  0  0  0  0  0
   -3.1179    3.8957    2.3721 H   0  0  0  0  0  0  0  0  0  0  0  0
   -4.5681    2.6963    0.5641 H   0  0  0  0  0  0  0  0  0  0  0  0
   -4.7375    2.0988    2.2331 H   0  0  0  0  0  0  0  0  0  0  0  0
   -5.8744   -0.0722    1.1828 H   0  0  0  0  0  0  0  0  0  0  0  0
   -5.5827    0.5763   -0.4487 H   0  0  0  0  0  0  0  0  0  0  0  0
   -5.1152   -2.4349    1.7567 H   0  0  0  0  0  0  0  0  0  0  0  0
   -4.8329   -4.7239    0.8861 H   0  0  0  0  0  0  0  0  0  0  0  0
   -4.5539   -5.1157   -1.5447 H   0  0  0  0  0  0  0  0  0  0  0  0
   -4.8223   -0.8877   -2.2678 H   0  0  0  0  0  0  0  0  0  0  0  0
    0.1490    0.6527   -1.4073 H   0  0  0  0  0  0  0  0  0  0  0  0
    1.9416   -0.9867   -1.2845 H   0  0  0  0  0  0  0  0  0  0  0  0
  1  2  1  0
  2  3  1  0
  3  4  1  0
  4  5  1  0
  5  6  1  0
  6  7  2  0
  7  8  1  0
  8  9  2  0
  9 10  1  0
 10 11  1  0
 10 12  1  0
 12 13  1  0
 13 14  2  0
 13 15  1  0
 15 16  1  0
 16 17  1  0
 17 18  2  0
 17 19  2  0
 17 20  1  0
 20 21  1  0
 21 22  2  0
 22 23  1  0
 23 24  2  0
 24 25  1  0
 25 26  1  0
 25 27  2  0
  9 28  1  0
 28 29  2  0
 29  6  1  0
 27 21  1  0
  1 30  1  0
  1 31  1  0
  1 32  1  0
  2 33  1  0
  2 34  1  0
  3 35  1  0
  3 36  1  0
  4 37  1  0
  4 38  1  0
  7 39  1  0
  8 40  1  0
 10 41  1  0
 11 42  1  0
 11 43  1  0
 11 44  1  0
 12 45  1  0
 15 46  1  0
 15 47  1  0
 16 48  1  0
 16 49  1  0
 20 50  1  0
 20 51  1  0
 22 52  1  0
 23 53  1  0
 24 54  1  0
 27 55  1  0
 28 56  1  0
 29 57  1  0
M  END
$$$$
