
     RDKit          3D

 43 45  0  0  0  0  0  0  0  0999 V2000
   -6.7755    1.2431   -0.2434 C   0  0  0  0  0  0  0  0  0  0  0  0
   -6.9733   -0.1696    0.2868 C   0  0  0  0  0  0  0  0  0  0  0  0
   -6.3300   -0.3851    1.6555 C   0  0  0  0  0  0  0  0  0  0  0  0
   -4.8316   -0.3880    1.5775 C   0  0  0  0  0  0  0  0  0  0  0  0
   -4.1468   -1.2988    0.9610 N   0  0  0  0  0  0  0  0  0  0  0  0
   -2.8078   -1.0009    1.0793 N   0  0  0  0  0  0  0  0  0  0  0  0
   -1.8301   -1.8006    0.5302 C   0  0  0  0  0  0  0  0  0  0  0  0
   -1.9987   -2.8374   -0.1035 O   0  0  0  0  0  0  0  0  0  0  0  0
   -0.4560   -1.3027    0.7719 C   0  0  0  0  0  0  0  0  0  0  0  0
   -0.2670   -0.1685    1.4696 C   0  0  0  0  0  0  0  0  0  0  0  0
    1.1316    0.3442    1.7427 C   0  0  0  0  0  0  0  0  0  0  0  0
    1.4564    1.9475    0.9219 S   0  0  0  0  0  0  0  0  0  0  0  0
    1.3766    1.4394   -0.8244 C   0  0  0  0  0  0  0  0  0  0  0  0
    2.4575    0.4187   -1.1406 C   0  0  0  0  0  0  0  0  0  0  0  0
    2.1678   -0.7579   -1.3376 O   0  0  0  0  0  0  0  0  0  0  0  0
    3.7285    0.9693   -1.1477 N   0  0  0  0  0  0  0  0  0  0  0  0
    4.9461    0.3201   -1.4302 C   0  0  0  0  0  0  0  0  0  0  0  0
    6.1210    1.0708   -1.2725 C   0  0  0  0  0  0  0  0  0  0  0  0
    7.3694    0.5012   -1.5357 C   0  0  0  0  0  0  0  0  0  0  0  0
    7.4428   -0.8185   -1.9594 C   0  0  0  0  0  0  0  0  0  0  0  0
    8.6384   -1.3657   -2.2127 F   0  0  0  0  0  0  0  0  0  0  0  0
    6.2915   -1.5761   -2.1253 C   0  0  0  0  0  0  0  0  0  0  0  0
    5.0415   -1.0064   -1.8617 C   0  0  0  0  0  0  0  0  0  0  0  0
   -1.3006    0.5721    2.0103 N   0  0  0  0  0  0  0  0  0  0  0  0
   -2.4898    0.1271    1.7858 C   0  0  0  0  0  0  0  0  0  0  0  0
   -3.9358    0.8952    2.3549 S   0  0  0  0  0  0  0  0  0  0  0  0
   -7.1605    1.9856    0.4628 H   0  0  0  0  0  0  0  0  0  0  0  0
   -7.3103    1.3674   -1.1904 H   0  0  0  0  0  0  0  0  0  0  0  0
   -5.7181    1.4560   -0.4273 H   0  0  0  0  0  0  0  0  0  0  0  0
   -8.0492   -0.3634    0.3708 H   0  0  0  0  0  0  0  0  0  0  0  0
   -6.5751   -0.8858   -0.4414 H   0  0  0  0  0  0  0  0  0  0  0  0
   -6.6359   -1.3651    2.0412 H   0  0  0  0  0  0  0  0  0  0  0  0
   -6.6834    0.3675    2.3685 H   0  0  0  0  0  0  0  0  0  0  0  0
    0.3509   -1.8927    0.3535 H   0  0  0  0  0  0  0  0  0  0  0  0
    1.9024   -0.3771    1.4523 H   0  0  0  0  0  0  0  0  0  0  0  0
    1.2479    0.4981    2.8216 H   0  0  0  0  0  0  0  0  0  0  0  0
    1.5244    2.3217   -1.4562 H   0  0  0  0  0  0  0  0  0  0  0  0
    0.3919    1.0312   -1.0694 H   0  0  0  0  0  0  0  0  0  0  0  0
    3.7951    1.9330   -0.8370 H   0  0  0  0  0  0  0  0  0  0  0  0
    6.0826    2.1053   -0.9407 H   0  0  0  0  0  0  0  0  0  0  0  0
    8.2808    1.0774   -1.4129 H   0  0  0  0  0  0  0  0  0  0  0  0
    6.3677   -2.6058   -2.4604 H   0  0  0  0  0  0  0  0  0  0  0  0
    4.1626   -1.6260   -2.0096 H   0  0  0  0  0  0  0  0  0  0  0  0
  1  2  1  0
  2  3  1  0
  3  4  1  0
  4  5  2  0
  5  6  1  0
  6  7  1  0
  7  8  2  0
  7  9  1  0
  9 10  2  0
 10 11  1  0
 11 12  1  0
 12 13  1  0
 13 14  1  0
 14 15  2  0
 14 16  1  0
 16 17  1  0
 17 18  2  0
 18 19  1  0
 19 20  2  0
 20 21  1  0
 20 22  1  0
 22 23  2  0
 10 24  1  0
 24 25  2  0
 25 26  1  0
 26  4  1  0
 25  6  1  0
 23 17  1  0
  1 27  1  0
  1 28  1  0
  1 29  1  0
  2 30  1  0
  2 31  1  0
  3 32  1  0
  3 33  1  0
  9 34  1  0
 11 35  1  0
 11 36  1  0
 13 37  1  0
 13 38  1  0
 16 39  1  0
 18 40  1  0
 19 41  1  0
 22 42  1  0
 23 43  1  0
M  END
$$$$
