
     RDKit          3D

 30 31  0  0  0  0  0  0  0  0999 V2000
    0.8641    1.5450    1.9464 O   0  0  0  0  0  0  0  0  0  0  0  0
    0.5549    1.6331    0.7614 C   0  0  0  0  0  0  0  0  0  0  0  0
   -0.6498    2.4471    0.2842 C   0  0  0  0  0  0  0  0  0  0  0  0
   -1.2807    1.9290   -0.8785 O   0  0  0  0  0  0  0  0  0  0  0  0
   -2.0533    0.8021   -0.7683 C   0  0  0  0  0  0  0  0  0  0  0  0
   -2.3358    0.1401    0.4315 C   0  0  0  0  0  0  0  0  0  0  0  0
   -3.1334   -1.0100    0.4329 C   0  0  0  0  0  0  0  0  0  0  0  0
   -3.6524   -1.5031   -0.7618 C   0  0  0  0  0  0  0  0  0  0  0  0
   -4.6293   -2.9184   -0.7478 Cl  0  0  0  0  0  0  0  0  0  0  0  0
   -3.3837   -0.8592   -1.9640 C   0  0  0  0  0  0  0  0  0  0  0  0
   -2.5873    0.2883   -1.9645 C   0  0  0  0  0  0  0  0  0  0  0  0
   -2.2698    1.0490   -3.4858 Cl  0  0  0  0  0  0  0  0  0  0  0  0
    1.2700    1.0301   -0.2463 N   0  0  0  0  0  0  0  0  0  0  0  0
    2.4970    0.2967    0.0116 C   0  0  0  0  0  0  0  0  0  0  0  0
    2.2449   -1.0537    0.6783 C   0  0  0  0  0  0  0  0  0  0  0  0
    3.5277   -1.8549    0.5529 C   0  0  0  0  0  0  0  0  0  0  0  0
    4.0628   -1.5806   -1.1581 S   0  0  0  0  0  0  0  0  0  0  0  0
    3.2201   -0.0395   -1.2845 C   0  0  0  0  0  0  0  0  0  0  0  0
    3.2353    0.6525   -2.2918 O   0  0  0  0  0  0  0  0  0  0  0  0
   -1.3672    2.5870    1.1005 H   0  0  0  0  0  0  0  0  0  0  0  0
   -0.2711    3.4432    0.0276 H   0  0  0  0  0  0  0  0  0  0  0  0
   -1.9566    0.4839    1.3893 H   0  0  0  0  0  0  0  0  0  0  0  0
   -3.3454   -1.5148    1.3730 H   0  0  0  0  0  0  0  0  0  0  0  0
   -3.7885   -1.2460   -2.8952 H   0  0  0  0  0  0  0  0  0  0  0  0
    1.0278    1.2522   -1.2110 H   0  0  0  0  0  0  0  0  0  0  0  0
    3.1585    0.9194    0.6261 H   0  0  0  0  0  0  0  0  0  0  0  0
    1.4173   -1.5825    0.1853 H   0  0  0  0  0  0  0  0  0  0  0  0
    1.9609   -0.9384    1.7299 H   0  0  0  0  0  0  0  0  0  0  0  0
    4.2964   -1.4789    1.2353 H   0  0  0  0  0  0  0  0  0  0  0  0
    3.3667   -2.9184    0.7479 H   0  0  0  0  0  0  0  0  0  0  0  0
  1  2  2  0
  2  3  1  0
  3  4  1  0
  4  5  1  0
  5  6  2  0
  6  7  1  0
  7  8  2  0
  8  9  1  0
  8 10  1  0
 10 11  2  0
 11 12  1  0
  2 13  1  0
 13 14  1  0
 14 15  1  0
 15 16  1  0
 16 17  1  0
 17 18  1  0
 18 19  2  0
 11  5  1  0
 18 14  1  0
  3 20  1  0
  3 21  1  0
  6 22  1  0
  7 23  1  0
 10 24  1  0
 13 25  1  0
 14 26  1  0
 15 27  1  0
 15 28  1  0
 16 29  1  0
 16 30  1  0
M  END
$$$$
