
     RDKit          3D

 37 38  0  0  0  0  0  0  0  0999 V2000
    5.5912    1.3321   -0.6310 C   0  0  0  0  0  0  0  0  0  0  0  0
    4.1764    1.1951   -0.6374 O   0  0  0  0  0  0  0  0  0  0  0  0
    3.6334    0.0478   -0.1195 C   0  0  0  0  0  0  0  0  0  0  0  0
    4.3948   -0.9292    0.5410 C   0  0  0  0  0  0  0  0  0  0  0  0
    3.8105   -2.1170    0.9805 C   0  0  0  0  0  0  0  0  0  0  0  0
    2.4558   -2.3426    0.7674 C   0  0  0  0  0  0  0  0  0  0  0  0
    1.6714   -1.3648    0.1393 C   0  0  0  0  0  0  0  0  0  0  0  0
    0.2414   -1.6960   -0.0539 C   0  0  0  0  0  0  0  0  0  0  0  0
   -0.1311   -2.8108   -0.3959 O   0  0  0  0  0  0  0  0  0  0  0  0
   -0.5162   -0.6196    0.3034 O   0  0  0  0  0  0  0  0  0  0  0  0
   -1.8858   -0.9401    0.2180 N   0  0  0  0  0  0  0  0  0  0  0  0
   -2.6248    0.1169    0.3833 C   0  0  0  0  0  0  0  0  0  0  0  0
   -2.1024    1.3744    0.6042 N   0  0  0  0  0  0  0  0  0  0  0  0
   -4.1081   -0.0463    0.3011 C   0  0  0  0  0  0  0  0  0  0  0  0
   -4.9598    0.9038    0.8656 C   0  0  0  0  0  0  0  0  0  0  0  0
   -6.3232    0.7070    0.7401 C   0  0  0  0  0  0  0  0  0  0  0  0
   -6.8734   -0.3476    0.1020 N   0  0  0  0  0  0  0  0  0  0  0  0
   -6.0229   -1.2637   -0.4155 C   0  0  0  0  0  0  0  0  0  0  0  0
   -4.6471   -1.1596   -0.3440 C   0  0  0  0  0  0  0  0  0  0  0  0
    2.2463   -0.1547   -0.2972 C   0  0  0  0  0  0  0  0  0  0  0  0
    1.4122    0.7109   -0.9649 O   0  0  0  0  0  0  0  0  0  0  0  0
    1.6318    2.1024   -0.7465 C   0  0  0  0  0  0  0  0  0  0  0  0
    5.8381    2.2503   -1.1730 H   0  0  0  0  0  0  0  0  0  0  0  0
    5.9688    1.4399    0.3923 H   0  0  0  0  0  0  0  0  0  0  0  0
    6.0764    0.5004   -1.1511 H   0  0  0  0  0  0  0  0  0  0  0  0
    5.4592   -0.8031    0.7135 H   0  0  0  0  0  0  0  0  0  0  0  0
    4.4184   -2.8759    1.4682 H   0  0  0  0  0  0  0  0  0  0  0  0
    2.0075   -3.2818    1.0876 H   0  0  0  0  0  0  0  0  0  0  0  0
   -1.1041    1.3799    0.4184 H   0  0  0  0  0  0  0  0  0  0  0  0
   -2.5722    2.1231    0.1085 H   0  0  0  0  0  0  0  0  0  0  0  0
   -4.5848    1.7629    1.4085 H   0  0  0  0  0  0  0  0  0  0  0  0
   -7.0329    1.4081    1.1703 H   0  0  0  0  0  0  0  0  0  0  0  0
   -6.4934   -2.1124   -0.9062 H   0  0  0  0  0  0  0  0  0  0  0  0
   -4.0159   -1.9234   -0.7862 H   0  0  0  0  0  0  0  0  0  0  0  0
    1.9992    2.3211    0.2624 H   0  0  0  0  0  0  0  0  0  0  0  0
    0.6679    2.6078   -0.8571 H   0  0  0  0  0  0  0  0  0  0  0  0
    2.2978    2.5044   -1.5142 H   0  0  0  0  0  0  0  0  0  0  0  0
  1  2  1  0
  2  3  1  0
  3  4  2  0
  4  5  1  0
  5  6  2  0
  6  7  1  0
  7  8  1  0
  8  9  2  0
  8 10  1  0
 10 11  1  0
 11 12  2  3
 12 13  1  0
 12 14  1  0
 14 15  2  0
 15 16  1  0
 16 17  2  0
 17 18  1  0
 18 19  2  0
  7 20  2  0
 20 21  1  0
 21 22  1  0
 20  3  1  0
 19 14  1  0
  1 23  1  0
  1 24  1  0
  1 25  1  0
  4 26  1  0
  5 27  1  0
  6 28  1  0
 13 29  1  0
 13 30  1  0
 15 31  1  0
 16 32  1  0
 18 33  1  0
 19 34  1  0
 22 35  1  0
 22 36  1  0
 22 37  1  0
M  END
$$$$
