
     RDKit          3D

 60 63  0  0  0  0  0  0  0  0999 V2000
   -4.1797   -3.0986    0.9028 C   0  0  0  0  0  0  0  0  0  0  0  0
   -3.8866   -2.4689   -0.3350 O   0  0  0  0  0  0  0  0  0  0  0  0
   -3.1065   -1.3428   -0.3058 C   0  0  0  0  0  0  0  0  0  0  0  0
   -2.5232   -0.7957    0.8400 C   0  0  0  0  0  0  0  0  0  0  0  0
   -1.7238    0.3545    0.7553 C   0  0  0  0  0  0  0  0  0  0  0  0
   -1.0719    0.8946    1.8344 O   0  0  0  0  0  0  0  0  0  0  0  0
   -1.6852    0.6885    3.1059 C   0  0  0  0  0  0  0  0  0  0  0  0
   -1.4929    0.9784   -0.4886 C   0  0  0  0  0  0  0  0  0  0  0  0
   -0.5700    2.1890   -0.5827 C   0  0  0  0  0  0  0  0  0  0  0  0
    0.7577    1.9481   -1.3251 C   0  0  0  0  0  0  0  0  0  0  0  0
    1.3398    0.5961   -0.9402 C   0  0  0  0  0  0  0  0  0  0  0  0
    1.3163   -0.3502   -1.7193 O   0  0  0  0  0  0  0  0  0  0  0  0
    1.8589    0.5831    0.3471 N   0  0  0  0  0  0  0  0  0  0  0  0
    2.4495   -0.5056    1.0359 C   0  0  0  0  0  0  0  0  0  0  0  0
    2.6328   -1.7620    0.4473 C   0  0  0  0  0  0  0  0  0  0  0  0
    3.2361   -2.8088    1.1519 C   0  0  0  0  0  0  0  0  0  0  0  0
    3.6569   -2.6272    2.4685 C   0  0  0  0  0  0  0  0  0  0  0  0
    4.3379   -3.7346    3.2150 C   0  0  0  0  0  0  0  0  0  0  0  0
    3.4822   -1.3754    3.0635 C   0  0  0  0  0  0  0  0  0  0  0  0
    2.8793   -0.3109    2.3676 C   0  0  0  0  0  0  0  0  0  0  0  0
    2.7279    1.0056    3.0834 C   0  0  0  0  0  0  0  0  0  0  0  0
    0.6167    2.2241   -2.8239 C   0  0  0  0  0  0  0  0  0  0  0  0
    1.5670    1.5679   -3.7991 C   0  0  0  0  0  0  0  0  0  0  0  0
   -0.2333    3.0744   -3.3208 N   0  0  0  0  0  0  0  0  0  0  0  0
   -1.0460    3.7400   -2.4657 C   0  0  0  0  0  0  0  0  0  0  0  0
   -1.7549    4.8331   -2.6497 N   0  0  0  0  0  0  0  0  0  0  0  0
   -2.3461    5.0510   -1.4353 C   0  0  0  0  0  0  0  0  0  0  0  0
   -2.0447    4.1629   -0.4838 N   0  0  0  0  0  0  0  0  0  0  0  0
   -1.2598    3.3204   -1.1796 N   0  0  0  0  0  0  0  0  0  0  0  0
   -2.0931    0.4293   -1.6343 C   0  0  0  0  0  0  0  0  0  0  0  0
   -2.8691   -0.7280   -1.5408 C   0  0  0  0  0  0  0  0  0  0  0  0
   -3.4415   -1.2499   -2.6755 O   0  0  0  0  0  0  0  0  0  0  0  0
   -2.4483   -1.8711   -3.4932 C   0  0  0  0  0  0  0  0  0  0  0  0
   -4.8337   -3.9520    0.6996 H   0  0  0  0  0  0  0  0  0  0  0  0
   -3.2684   -3.4827    1.3723 H   0  0  0  0  0  0  0  0  0  0  0  0
   -4.7168   -2.4221    1.5759 H   0  0  0  0  0  0  0  0  0  0  0  0
   -2.6581   -1.2831    1.7966 H   0  0  0  0  0  0  0  0  0  0  0  0
   -2.7587    0.9000    3.0766 H   0  0  0  0  0  0  0  0  0  0  0  0
   -1.4894   -0.3245    3.4726 H   0  0  0  0  0  0  0  0  0  0  0  0
   -1.2273    1.3877    3.8098 H   0  0  0  0  0  0  0  0  0  0  0  0
   -0.3122    2.5410    0.4256 H   0  0  0  0  0  0  0  0  0  0  0  0
    1.4822    2.7113   -0.9989 H   0  0  0  0  0  0  0  0  0  0  0  0
    1.7661    1.4305    0.8887 H   0  0  0  0  0  0  0  0  0  0  0  0
    2.3212   -1.9701   -0.5713 H   0  0  0  0  0  0  0  0  0  0  0  0
    3.3755   -3.7650    0.6535 H   0  0  0  0  0  0  0  0  0  0  0  0
    4.0407   -4.7135    2.8267 H   0  0  0  0  0  0  0  0  0  0  0  0
    4.0678   -3.7111    4.2758 H   0  0  0  0  0  0  0  0  0  0  0  0
    5.4234   -3.6360    3.1223 H   0  0  0  0  0  0  0  0  0  0  0  0
    3.8249   -1.2244    4.0859 H   0  0  0  0  0  0  0  0  0  0  0  0
    3.0785    0.9497    4.1190 H   0  0  0  0  0  0  0  0  0  0  0  0
    3.3113    1.7799    2.5745 H   0  0  0  0  0  0  0  0  0  0  0  0
    1.6742    1.3005    3.1175 H   0  0  0  0  0  0  0  0  0  0  0  0
    1.1854    0.5806   -4.0682 H   0  0  0  0  0  0  0  0  0  0  0  0
    1.6454    2.1687   -4.7104 H   0  0  0  0  0  0  0  0  0  0  0  0
    2.5625    1.4809   -3.3563 H   0  0  0  0  0  0  0  0  0  0  0  0
   -3.0007    5.8879   -1.2381 H   0  0  0  0  0  0  0  0  0  0  0  0
   -1.9647    0.8838   -2.6147 H   0  0  0  0  0  0  0  0  0  0  0  0
   -1.7360   -2.4611   -2.9038 H   0  0  0  0  0  0  0  0  0  0  0  0
   -2.9584   -2.5493   -4.1840 H   0  0  0  0  0  0  0  0  0  0  0  0
   -1.9177   -1.1190   -4.0868 H   0  0  0  0  0  0  0  0  0  0  0  0
  1  2  1  0
  2  3  1  0
  3  4  2  0
  4  5  1  0
  5  6  1  0
  6  7  1  0
  5  8  2  0
  8  9  1  0
  9 10  1  0
 10 11  1  0
 11 12  2  0
 11 13  1  0
 13 14  1  0
 14 15  2  0
 15 16  1  0
 16 17  2  0
 17 18  1  0
 17 19  1  0
 19 20  2  0
 20 21  1  0
 10 22  1  0
 22 23  1  0
 22 24  2  0
 24 25  1  0
 25 26  2  0
 26 27  1  0
 27 28  2  0
 28 29  1  0
  8 30  1  0
 30 31  2  0
 31 32  1  0
 32 33  1  0
 31  3  1  0
 29  9  1  0
 20 14  1  0
 29 25  1  0
  1 34  1  0
  1 35  1  0
  1 36  1  0
  4 37  1  0
  7 38  1  0
  7 39  1  0
  7 40  1  0
  9 41  1  0
 10 42  1  0
 13 43  1  0
 15 44  1  0
 16 45  1  0
 18 46  1  0
 18 47  1  0
 18 48  1  0
 19 49  1  0
 21 50  1  0
 21 51  1  0
 21 52  1  0
 23 53  1  0
 23 54  1  0
 23 55  1  0
 27 56  1  0
 30 57  1  0
 33 58  1  0
 33 59  1  0
 33 60  1  0
M  END
$$$$
