
     RDKit          3D

 38 40  0  0  0  0  0  0  0  0999 V2000
   -2.9777    2.1635    1.6817 C   0  0  0  0  0  0  0  0  0  0  0  0
   -3.5356    1.2810    0.6155 C   0  0  0  0  0  0  0  0  0  0  0  0
   -4.8581    1.2008    0.2229 C   0  0  0  0  0  0  0  0  0  0  0  0
   -4.9665    0.1660   -0.7192 C   0  0  0  0  0  0  0  0  0  0  0  0
   -3.7056   -0.3640   -0.9151 C   0  0  0  0  0  0  0  0  0  0  0  0
   -3.3268   -1.4152   -1.9032 C   0  0  0  0  0  0  0  0  0  0  0  0
   -2.8100    0.3204   -0.0914 N   0  0  0  0  0  0  0  0  0  0  0  0
   -1.4130    0.0804    0.0093 C   0  0  0  0  0  0  0  0  0  0  0  0
   -0.8970   -1.2092    0.0495 C   0  0  0  0  0  0  0  0  0  0  0  0
    0.4849   -1.3876    0.1534 C   0  0  0  0  0  0  0  0  0  0  0  0
    1.3394   -0.2848    0.2031 C   0  0  0  0  0  0  0  0  0  0  0  0
    2.7141   -0.4531    0.3302 N   0  0  0  0  0  0  0  0  0  0  0  0
    3.3798   -1.4875   -0.4813 C   0  0  0  0  0  0  0  0  0  0  0  0
    4.5583   -0.8927   -1.2715 C   0  0  0  0  0  0  0  0  0  0  0  0
    5.5436   -0.2581   -0.4451 O   0  0  0  0  0  0  0  0  0  0  0  0
    4.9800    0.4170    0.6921 C   0  0  0  0  0  0  0  0  0  0  0  0
    3.4952    0.7790    0.5318 C   0  0  0  0  0  0  0  0  0  0  0  0
    0.8327    0.9672    0.1789 N   0  0  0  0  0  0  0  0  0  0  0  0
   -0.5106    1.1279    0.0766 C   0  0  0  0  0  0  0  0  0  0  0  0
   -2.5210    3.0569    1.2461 H   0  0  0  0  0  0  0  0  0  0  0  0
   -3.7755    2.4994    2.3537 H   0  0  0  0  0  0  0  0  0  0  0  0
   -2.2410    1.6407    2.2989 H   0  0  0  0  0  0  0  0  0  0  0  0
   -5.6651    1.8146    0.6034 H   0  0  0  0  0  0  0  0  0  0  0  0
   -5.8685   -0.1528   -1.2268 H   0  0  0  0  0  0  0  0  0  0  0  0
   -2.3818   -1.1827   -2.4031 H   0  0  0  0  0  0  0  0  0  0  0  0
   -3.2530   -2.3936   -1.4198 H   0  0  0  0  0  0  0  0  0  0  0  0
   -4.0898   -1.4949   -2.6858 H   0  0  0  0  0  0  0  0  0  0  0  0
   -1.5399   -2.0831    0.0600 H   0  0  0  0  0  0  0  0  0  0  0  0
    0.8812   -2.3945    0.2326 H   0  0  0  0  0  0  0  0  0  0  0  0
    3.7536   -2.2583    0.2025 H   0  0  0  0  0  0  0  0  0  0  0  0
    2.7004   -1.9677   -1.1947 H   0  0  0  0  0  0  0  0  0  0  0  0
    5.0647   -1.6815   -1.8371 H   0  0  0  0  0  0  0  0  0  0  0  0
    4.1997   -0.1533   -1.9975 H   0  0  0  0  0  0  0  0  0  0  0  0
    5.5734    1.3205    0.8643 H   0  0  0  0  0  0  0  0  0  0  0  0
    5.1188   -0.2374    1.5606 H   0  0  0  0  0  0  0  0  0  0  0  0
    3.3781    1.4496   -0.3293 H   0  0  0  0  0  0  0  0  0  0  0  0
    3.1593    1.3014    1.4354 H   0  0  0  0  0  0  0  0  0  0  0  0
   -0.8204    2.1656    0.0093 H   0  0  0  0  0  0  0  0  0  0  0  0
  1  2  1  0
  2  3  2  0
  3  4  1  0
  4  5  2  0
  5  6  1  0
  5  7  1  0
  7  8  1  0
  8  9  2  0
  9 10  1  0
 10 11  2  0
 11 12  1  0
 12 13  1  0
 13 14  1  0
 14 15  1  0
 15 16  1  0
 16 17  1  0
 11 18  1  0
 18 19  2  0
  7  2  1  0
 19  8  1  0
 17 12  1  0
  1 20  1  0
  1 21  1  0
  1 22  1  0
  3 23  1  0
  4 24  1  0
  6 25  1  0
  6 26  1  0
  6 27  1  0
  9 28  1  0
 10 29  1  0
 13 30  1  0
 13 31  1  0
 14 32  1  0
 14 33  1  0
 16 34  1  0
 16 35  1  0
 17 36  1  0
 17 37  1  0
 19 38  1  0
M  END
$$$$
