
     RDKit          3D

 55 57  0  0  0  0  0  0  0  0999 V2000
    1.7025   -1.3895    0.8426 O   0  0  0  0  0  0  0  0  0  0  0  0
    1.9075   -0.3374    0.2427 C   0  0  0  0  0  0  0  0  0  0  0  0
    0.7796    0.4948   -0.3723 C   0  0  0  0  0  0  0  0  0  0  0  0
   -0.5024    0.1331    0.1385 O   0  0  0  0  0  0  0  0  0  0  0  0
   -0.7454    0.5990    1.4018 C   0  0  0  0  0  0  0  0  0  0  0  0
   -0.0060    1.3659    2.0086 O   0  0  0  0  0  0  0  0  0  0  0  0
   -2.0871    0.0857    1.9422 C   0  0  0  0  0  0  0  0  0  0  0  0
   -3.0202    1.2744    2.2404 C   0  0  0  0  0  0  0  0  0  0  0  0
   -3.4266    2.0658    1.0142 C   0  0  0  0  0  0  0  0  0  0  0  0
   -2.6759    3.1755    0.6011 C   0  0  0  0  0  0  0  0  0  0  0  0
   -3.0384    3.8883   -0.5427 C   0  0  0  0  0  0  0  0  0  0  0  0
   -4.1537    3.5010   -1.2829 C   0  0  0  0  0  0  0  0  0  0  0  0
   -4.9105    2.4034   -0.8779 C   0  0  0  0  0  0  0  0  0  0  0  0
   -4.5506    1.6899    0.2659 C   0  0  0  0  0  0  0  0  0  0  0  0
   -2.6973   -0.9039    1.0501 N   0  0  0  0  0  0  0  0  0  0  0  0
   -3.6671   -1.7839    1.4773 C   0  0  0  0  0  0  0  0  0  0  0  0
   -4.0564   -1.7586    2.6436 O   0  0  0  0  0  0  0  0  0  0  0  0
   -4.1789   -2.6925    0.4565 C   0  0  0  0  0  0  0  0  0  0  0  0
   -3.8079   -2.8658   -0.8678 C   0  0  0  0  0  0  0  0  0  0  0  0
   -4.5728   -3.8737   -1.5282 C   0  0  0  0  0  0  0  0  0  0  0  0
   -5.5044   -4.4439   -0.6919 C   0  0  0  0  0  0  0  0  0  0  0  0
   -5.4580   -3.7656    0.8743 S   0  0  0  0  0  0  0  0  0  0  0  0
    3.1673    0.1935    0.0449 N   0  0  0  0  0  0  0  0  0  0  0  0
    4.3710   -0.5007    0.4905 C   0  0  0  0  0  0  0  0  0  0  0  0
    5.5170    0.4913    0.7282 C   0  0  0  0  0  0  0  0  0  0  0  0
    6.1040    1.0483   -0.5691 C   0  0  0  0  0  0  0  0  0  0  0  0
    6.5062   -0.0640   -1.5323 C   0  0  0  0  0  0  0  0  0  0  0  0
    5.3502   -1.0216   -1.8028 C   0  0  0  0  0  0  0  0  0  0  0  0
    4.7811   -1.5951   -0.5055 C   0  0  0  0  0  0  0  0  0  0  0  0
    0.9669    1.5671   -0.2413 H   0  0  0  0  0  0  0  0  0  0  0  0
    0.7701    0.2906   -1.4483 H   0  0  0  0  0  0  0  0  0  0  0  0
   -1.8597   -0.4355    2.8807 H   0  0  0  0  0  0  0  0  0  0  0  0
   -3.9295    0.9228    2.7444 H   0  0  0  0  0  0  0  0  0  0  0  0
   -2.5372    1.9550    2.9542 H   0  0  0  0  0  0  0  0  0  0  0  0
   -1.8061    3.4973    1.1714 H   0  0  0  0  0  0  0  0  0  0  0  0
   -2.4541    4.7510   -0.8520 H   0  0  0  0  0  0  0  0  0  0  0  0
   -4.4389    4.0601   -2.1701 H   0  0  0  0  0  0  0  0  0  0  0  0
   -5.7867    2.1063   -1.4485 H   0  0  0  0  0  0  0  0  0  0  0  0
   -5.1581    0.8412    0.5745 H   0  0  0  0  0  0  0  0  0  0  0  0
   -2.3964   -0.8873    0.0854 H   0  0  0  0  0  0  0  0  0  0  0  0
   -3.0205   -2.3092   -1.3603 H   0  0  0  0  0  0  0  0  0  0  0  0
   -4.4415   -4.1677   -2.5627 H   0  0  0  0  0  0  0  0  0  0  0  0
   -6.2121   -5.2289   -0.9225 H   0  0  0  0  0  0  0  0  0  0  0  0
    3.2698    0.9934   -0.5659 H   0  0  0  0  0  0  0  0  0  0  0  0
    4.1281   -0.9811    1.4467 H   0  0  0  0  0  0  0  0  0  0  0  0
    6.3160   -0.0192    1.2813 H   0  0  0  0  0  0  0  0  0  0  0  0
    5.1764    1.3216    1.3587 H   0  0  0  0  0  0  0  0  0  0  0  0
    6.9790    1.6667   -0.3378 H   0  0  0  0  0  0  0  0  0  0  0  0
    5.3746    1.7068   -1.0557 H   0  0  0  0  0  0  0  0  0  0  0  0
    7.3511   -0.6227   -1.1106 H   0  0  0  0  0  0  0  0  0  0  0  0
    6.8524    0.3726   -2.4760 H   0  0  0  0  0  0  0  0  0  0  0  0
    5.6952   -1.8406   -2.4442 H   0  0  0  0  0  0  0  0  0  0  0  0
    4.5605   -0.4978   -2.3549 H   0  0  0  0  0  0  0  0  0  0  0  0
    3.9298   -2.2448   -0.7400 H   0  0  0  0  0  0  0  0  0  0  0  0
    5.5438   -2.2311   -0.0381 H   0  0  0  0  0  0  0  0  0  0  0  0
  1  2  2  0
  2  3  1  0
  3  4  1  0
  4  5  1  0
  5  6  2  0
  5  7  1  0
  7  8  1  0
  8  9  1  0
  9 10  2  0
 10 11  1  0
 11 12  2  0
 12 13  1  0
 13 14  2  0
  7 15  1  0
 15 16  1  0
 16 17  2  0
 16 18  1  0
 18 19  2  0
 19 20  1  0
 20 21  2  0
 21 22  1  0
  2 23  1  0
 23 24  1  0
 24 25  1  0
 25 26  1  0
 26 27  1  0
 27 28  1  0
 28 29  1  0
 14  9  1  0
 22 18  1  0
 29 24  1  0
  3 30  1  0
  3 31  1  0
  7 32  1  0
  8 33  1  0
  8 34  1  0
 10 35  1  0
 11 36  1  0
 12 37  1  0
 13 38  1  0
 14 39  1  0
 15 40  1  0
 19 41  1  0
 20 42  1  0
 21 43  1  0
 23 44  1  0
 24 45  1  0
 25 46  1  0
 25 47  1  0
 26 48  1  0
 26 49  1  0
 27 50  1  0
 27 51  1  0
 28 52  1  0
 28 53  1  0
 29 54  1  0
 29 55  1  0
M  END
$$$$
