
     RDKit          3D

 56 59  0  0  0  0  0  0  0  0999 V2000
    3.0518   -5.3496   -0.8147 C   0  0  0  0  0  0  0  0  0  0  0  0
    3.2667   -4.0087   -1.2367 O   0  0  0  0  0  0  0  0  0  0  0  0
    2.9636   -3.0225   -0.3409 C   0  0  0  0  0  0  0  0  0  0  0  0
    3.1167   -1.7227   -0.8255 C   0  0  0  0  0  0  0  0  0  0  0  0
    2.8312   -0.6155   -0.0188 C   0  0  0  0  0  0  0  0  0  0  0  0
    2.3789   -0.7987    1.2858 C   0  0  0  0  0  0  0  0  0  0  0  0
    2.0367    0.2622    2.1697 N   0  0  0  0  0  0  0  0  0  0  0  0
    1.7128    1.8457    1.7075 S   0  0  0  0  0  6  0  0  0  0  0  0
    2.8859    2.3272    1.0104 O   0  0  0  0  0  0  0  0  0  0  0  0
    1.2329    2.4949    2.9124 O   0  0  0  0  0  0  0  0  0  0  0  0
    0.3148    1.7408    0.6001 C   0  0  0  0  0  0  0  0  0  0  0  0
   -0.5339    0.6227    0.7565 C   0  0  0  0  0  0  0  0  0  0  0  0
   -1.5302    0.3332   -0.1738 C   0  0  0  0  0  0  0  0  0  0  0  0
   -2.2826   -0.8415    0.0324 N   0  0  0  0  0  0  0  0  0  0  0  0
   -3.2690   -1.3640   -0.7816 C   0  0  0  0  0  0  0  0  0  0  0  0
   -3.7205   -0.8420   -1.7956 O   0  0  0  0  0  0  0  0  0  0  0  0
   -3.8716   -2.6530   -0.3517 C   0  0  0  0  0  0  0  0  0  0  0  0
   -5.2239   -2.8682   -0.6550 C   0  0  0  0  0  0  0  0  0  0  0  0
   -5.8462   -4.0558   -0.2769 C   0  0  0  0  0  0  0  0  0  0  0  0
   -5.0939   -5.0026    0.3946 C   0  0  0  0  0  0  0  0  0  0  0  0
   -3.7886   -4.8406    0.6965 N   0  0  0  0  0  0  0  0  0  0  0  0
   -3.2048   -3.6792    0.3069 C   0  0  0  0  0  0  0  0  0  0  0  0
   -1.5309   -3.6515    0.7187 Cl  0  0  0  0  0  0  0  0  0  0  0  0
   -1.6922    1.1933   -1.2476 C   0  0  0  0  0  0  0  0  0  0  0  0
   -0.8826    2.3334   -1.3723 C   0  0  0  0  0  0  0  0  0  0  0  0
    0.1251    2.6647   -0.4459 C   0  0  0  0  0  0  0  0  0  0  0  0
    0.8367    3.8437   -0.5815 N   0  0  0  0  0  0  0  0  0  0  0  0
    0.8489    4.8121    0.5303 C   0  0  0  0  0  0  0  0  0  0  0  0
    0.9457    6.1782   -0.1494 C   0  0  0  0  0  0  0  0  0  0  0  0
    1.6526    5.8625   -1.4559 C   0  0  0  0  0  0  0  0  0  0  0  0
    0.9965    4.5463   -1.8575 C   0  0  0  0  0  0  0  0  0  0  0  0
    2.2531   -2.1007    1.7807 C   0  0  0  0  0  0  0  0  0  0  0  0
    2.5367   -3.2082    0.9718 C   0  0  0  0  0  0  0  0  0  0  0  0
    3.3031   -6.0079   -1.6519 H   0  0  0  0  0  0  0  0  0  0  0  0
    3.7092   -5.6088    0.0217 H   0  0  0  0  0  0  0  0  0  0  0  0
    2.0006   -5.5209   -0.5599 H   0  0  0  0  0  0  0  0  0  0  0  0
    3.4623   -1.5653   -1.8449 H   0  0  0  0  0  0  0  0  0  0  0  0
    2.9774    0.3721   -0.4457 H   0  0  0  0  0  0  0  0  0  0  0  0
    1.8526    0.0733    3.1517 H   0  0  0  0  0  0  0  0  0  0  0  0
   -0.3906   -0.0441    1.6015 H   0  0  0  0  0  0  0  0  0  0  0  0
   -2.0179   -1.3849    0.8460 H   0  0  0  0  0  0  0  0  0  0  0  0
   -5.7950   -2.1087   -1.1870 H   0  0  0  0  0  0  0  0  0  0  0  0
   -6.8921   -4.2355   -0.5041 H   0  0  0  0  0  0  0  0  0  0  0  0
   -5.5319   -5.9453    0.7126 H   0  0  0  0  0  0  0  0  0  0  0  0
   -2.4449    1.0239   -2.0111 H   0  0  0  0  0  0  0  0  0  0  0  0
   -1.0904    2.9783   -2.2216 H   0  0  0  0  0  0  0  0  0  0  0  0
   -0.0492    4.7556    1.1554 H   0  0  0  0  0  0  0  0  0  0  0  0
    1.7329    4.6629    1.1564 H   0  0  0  0  0  0  0  0  0  0  0  0
    1.4823    6.9111    0.4596 H   0  0  0  0  0  0  0  0  0  0  0  0
   -0.0589    6.5696   -0.3502 H   0  0  0  0  0  0  0  0  0  0  0  0
    2.7258    5.7189   -1.2822 H   0  0  0  0  0  0  0  0  0  0  0  0
    1.5228    6.6440   -2.2095 H   0  0  0  0  0  0  0  0  0  0  0  0
    1.6206    3.9811   -2.5566 H   0  0  0  0  0  0  0  0  0  0  0  0
    0.0316    4.7676   -2.3267 H   0  0  0  0  0  0  0  0  0  0  0  0
    1.9201   -2.2752    2.8004 H   0  0  0  0  0  0  0  0  0  0  0  0
    2.4134   -4.1979    1.3987 H   0  0  0  0  0  0  0  0  0  0  0  0
  1  2  1  0
  2  3  1  0
  3  4  2  0
  4  5  1  0
  5  6  2  0
  6  7  1  0
  7  8  1  0
  8  9  2  0
  8 10  2  0
  8 11  1  0
 11 12  2  0
 12 13  1  0
 13 14  1  0
 14 15  1  0
 15 16  2  0
 15 17  1  0
 17 18  2  0
 18 19  1  0
 19 20  2  0
 20 21  1  0
 21 22  2  0
 22 23  1  0
 13 24  2  0
 24 25  1  0
 25 26  2  0
 26 27  1  0
 27 28  1  0
 28 29  1  0
 29 30  1  0
 30 31  1  0
  6 32  1  0
 32 33  2  0
 33  3  1  0
 26 11  1  0
 31 27  1  0
 22 17  1  0
  1 34  1  0
  1 35  1  0
  1 36  1  0
  4 37  1  0
  5 38  1  0
  7 39  1  0
 12 40  1  0
 14 41  1  0
 18 42  1  0
 19 43  1  0
 20 44  1  0
 24 45  1  0
 25 46  1  0
 28 47  1  0
 28 48  1  0
 29 49  1  0
 29 50  1  0
 30 51  1  0
 30 52  1  0
 31 53  1  0
 31 54  1  0
 32 55  1  0
 33 56  1  0
M  END
$$$$
