
     RDKit          3D

 55 57  0  0  0  0  0  0  0  0999 V2000
   -7.9842    0.8422    0.4603 C   0  0  0  0  0  0  0  0  0  0  0  0
   -6.7519    0.0321    0.1839 C   0  0  0  0  0  0  0  0  0  0  0  0
   -6.7314   -1.3396    0.4499 C   0  0  0  0  0  0  0  0  0  0  0  0
   -5.5783   -2.0920    0.2139 C   0  0  0  0  0  0  0  0  0  0  0  0
   -4.4109   -1.4873   -0.2752 C   0  0  0  0  0  0  0  0  0  0  0  0
   -3.1917   -2.3348   -0.5124 C   0  0  0  0  0  0  0  0  0  0  0  0
   -4.4283   -0.1046   -0.5344 C   0  0  0  0  0  0  0  0  0  0  0  0
   -3.2244    0.5882   -1.0665 C   0  0  0  0  0  0  0  0  0  0  0  0
   -2.5987    0.1020   -2.0062 O   0  0  0  0  0  0  0  0  0  0  0  0
   -2.8277    1.9019   -0.3984 C   0  0  0  0  0  0  0  0  0  0  0  0
   -1.4548    2.2245   -0.6296 O   0  0  0  0  0  0  0  0  0  0  0  0
   -0.5849    1.4578    0.0736 C   0  0  0  0  0  0  0  0  0  0  0  0
   -0.8866    0.6348    0.9237 O   0  0  0  0  0  0  0  0  0  0  0  0
    0.8177    1.7584   -0.3166 C   0  0  0  0  0  0  0  0  0  0  0  0
    1.1355    2.5525   -1.4218 C   0  0  0  0  0  0  0  0  0  0  0  0
    2.4725    2.7951   -1.7533 C   0  0  0  0  0  0  0  0  0  0  0  0
    3.5242    2.2484   -0.9965 C   0  0  0  0  0  0  0  0  0  0  0  0
    4.9335    2.5691   -1.4074 C   0  0  0  0  0  0  0  0  0  0  0  0
    3.1952    1.4294    0.0984 C   0  0  0  0  0  0  0  0  0  0  0  0
    4.4114    0.6219    1.1267 S   0  0  0  0  0  6  0  0  0  0  0  0
    4.2484    1.1575    2.4612 O   0  0  0  0  0  0  0  0  0  0  0  0
    5.7030    0.6180    0.4755 O   0  0  0  0  0  0  0  0  0  0  0  0
    3.8775   -1.0029    1.1381 N   0  0  0  0  0  0  0  0  0  0  0  0
    3.8502   -1.6771   -0.2047 C   0  0  0  0  0  0  0  0  0  0  0  0
    3.8128   -3.1994   -0.0364 C   0  0  0  0  0  0  0  0  0  0  0  0
    4.9828   -3.7197    0.6100 O   0  0  0  0  0  0  0  0  0  0  0  0
    5.5733   -2.7980    1.5385 C   0  0  0  0  0  0  0  0  0  0  0  0
    4.5521   -1.8531    2.1775 C   0  0  0  0  0  0  0  0  0  0  0  0
    1.8503    1.1996    0.4417 C   0  0  0  0  0  0  0  0  0  0  0  0
   -5.5908    0.6474   -0.2996 C   0  0  0  0  0  0  0  0  0  0  0  0
   -8.8855    0.2269    0.3729 H   0  0  0  0  0  0  0  0  0  0  0  0
   -8.0799    1.6623   -0.2590 H   0  0  0  0  0  0  0  0  0  0  0  0
   -7.9384    1.2596    1.4711 H   0  0  0  0  0  0  0  0  0  0  0  0
   -7.6172   -1.8377    0.8391 H   0  0  0  0  0  0  0  0  0  0  0  0
   -5.5966   -3.1603    0.4218 H   0  0  0  0  0  0  0  0  0  0  0  0
   -3.0443   -2.4955   -1.5848 H   0  0  0  0  0  0  0  0  0  0  0  0
   -3.2925   -3.3167   -0.0370 H   0  0  0  0  0  0  0  0  0  0  0  0
   -2.3008   -1.8657   -0.0826 H   0  0  0  0  0  0  0  0  0  0  0  0
   -3.0383    1.8794    0.6768 H   0  0  0  0  0  0  0  0  0  0  0  0
   -3.4219    2.7039   -0.8474 H   0  0  0  0  0  0  0  0  0  0  0  0
    0.3537    2.9875   -2.0408 H   0  0  0  0  0  0  0  0  0  0  0  0
    2.6870    3.4237   -2.6174 H   0  0  0  0  0  0  0  0  0  0  0  0
    4.9566    3.3443   -2.1822 H   0  0  0  0  0  0  0  0  0  0  0  0
    5.5041    2.9612   -0.5596 H   0  0  0  0  0  0  0  0  0  0  0  0
    5.4219    1.6822   -1.8225 H   0  0  0  0  0  0  0  0  0  0  0  0
    2.9571   -1.3535   -0.7474 H   0  0  0  0  0  0  0  0  0  0  0  0
    4.7385   -1.4024   -0.7840 H   0  0  0  0  0  0  0  0  0  0  0  0
    3.7350   -3.6862   -1.0137 H   0  0  0  0  0  0  0  0  0  0  0  0
    2.9390   -3.5027    0.5519 H   0  0  0  0  0  0  0  0  0  0  0  0
    6.3476   -2.2332    1.0064 H   0  0  0  0  0  0  0  0  0  0  0  0
    6.0735   -3.3906    2.3110 H   0  0  0  0  0  0  0  0  0  0  0  0
    5.0410   -1.2406    2.9407 H   0  0  0  0  0  0  0  0  0  0  0  0
    3.7660   -2.4274    2.6817 H   0  0  0  0  0  0  0  0  0  0  0  0
    1.6101    0.5761    1.3036 H   0  0  0  0  0  0  0  0  0  0  0  0
   -5.6116    1.7133   -0.5126 H   0  0  0  0  0  0  0  0  0  0  0  0
  1  2  1  0
  2  3  2  0
  3  4  1  0
  4  5  2  0
  5  6  1  0
  5  7  1  0
  7  8  1  0
  8  9  2  0
  8 10  1  0
 10 11  1  0
 11 12  1  0
 12 13  2  0
 12 14  1  0
 14 15  2  0
 15 16  1  0
 16 17  2  0
 17 18  1  0
 17 19  1  0
 19 20  1  0
 20 21  2  0
 20 22  2  0
 20 23  1  0
 23 24  1  0
 24 25  1  0
 25 26  1  0
 26 27  1  0
 27 28  1  0
 19 29  2  0
  7 30  2  0
 30  2  1  0
 29 14  1  0
 28 23  1  0
  1 31  1  0
  1 32  1  0
  1 33  1  0
  3 34  1  0
  4 35  1  0
  6 36  1  0
  6 37  1  0
  6 38  1  0
 10 39  1  0
 10 40  1  0
 15 41  1  0
 16 42  1  0
 18 43  1  0
 18 44  1  0
 18 45  1  0
 24 46  1  0
 24 47  1  0
 25 48  1  0
 25 49  1  0
 27 50  1  0
 27 51  1  0
 28 52  1  0
 28 53  1  0
 29 54  1  0
 30 55  1  0
M  END
$$$$
