
     RDKit          3D

 50 52  0  0  0  0  0  0  0  0999 V2000
   -8.7628    1.5250   -0.3028 C   0  0  0  0  0  0  0  0  0  0  0  0
   -7.9978    0.4115   -0.7408 O   0  0  0  0  0  0  0  0  0  0  0  0
   -6.6437    0.4365   -0.5192 C   0  0  0  0  0  0  0  0  0  0  0  0
   -5.9646    1.4895    0.1038 C   0  0  0  0  0  0  0  0  0  0  0  0
   -4.5804    1.4285    0.2907 C   0  0  0  0  0  0  0  0  0  0  0  0
   -3.8673    0.3051   -0.1382 C   0  0  0  0  0  0  0  0  0  0  0  0
   -2.3944    0.1939    0.0381 C   0  0  0  0  0  0  0  0  0  0  0  0
   -1.7236   -0.4438   -0.7689 O   0  0  0  0  0  0  0  0  0  0  0  0
   -1.8639    0.8032    1.1678 N   0  0  0  0  0  0  0  0  0  0  0  0
   -0.5362    0.9192    1.5624 C   0  0  0  0  0  0  0  0  0  0  0  0
   -0.2953    1.7118    3.0119 S   0  0  0  0  0  0  0  0  0  0  0  0
    0.3674    0.3599    0.6916 N   0  0  0  0  0  0  0  0  0  0  0  0
    1.7759    0.2730    0.6632 C   0  0  0  0  0  0  0  0  0  0  0  0
    2.3272   -0.4560   -0.3947 C   0  0  0  0  0  0  0  0  0  0  0  0
    3.7158   -0.6092   -0.5293 C   0  0  0  0  0  0  0  0  0  0  0  0
    4.6162   -0.0433    0.3800 C   0  0  0  0  0  0  0  0  0  0  0  0
    5.9754   -0.1925    0.2507 N   0  0  0  0  0  0  0  0  0  0  0  0
    6.6292   -0.8313   -0.8885 C   0  0  0  0  0  0  0  0  0  0  0  0
    8.1050   -0.4864   -0.7052 C   0  0  0  0  0  0  0  0  0  0  0  0
    8.2530   -0.4071    0.8039 C   0  0  0  0  0  0  0  0  0  0  0  0
    6.9493    0.2545    1.2439 C   0  0  0  0  0  0  0  0  0  0  0  0
    4.0436    0.6877    1.4293 C   0  0  0  0  0  0  0  0  0  0  0  0
    2.6528    0.8474    1.5724 C   0  0  0  0  0  0  0  0  0  0  0  0
   -4.5372   -0.7441   -0.7808 C   0  0  0  0  0  0  0  0  0  0  0  0
   -5.9219   -0.6879   -0.9715 C   0  0  0  0  0  0  0  0  0  0  0  0
   -6.6605   -1.6734   -1.5785 O   0  0  0  0  0  0  0  0  0  0  0  0
   -5.9610   -2.7842   -2.1225 C   0  0  0  0  0  0  0  0  0  0  0  0
   -8.4601    2.4404   -0.8216 H   0  0  0  0  0  0  0  0  0  0  0  0
   -8.6991    1.6453    0.7837 H   0  0  0  0  0  0  0  0  0  0  0  0
   -9.8100    1.3314   -0.5545 H   0  0  0  0  0  0  0  0  0  0  0  0
   -6.4849    2.3781    0.4471 H   0  0  0  0  0  0  0  0  0  0  0  0
   -4.0809    2.2802    0.7449 H   0  0  0  0  0  0  0  0  0  0  0  0
   -2.5023    1.2038    1.8412 H   0  0  0  0  0  0  0  0  0  0  0  0
   -0.0868   -0.1141   -0.0915 H   0  0  0  0  0  0  0  0  0  0  0  0
    1.6860   -0.9257   -1.1374 H   0  0  0  0  0  0  0  0  0  0  0  0
    4.0748   -1.1970   -1.3690 H   0  0  0  0  0  0  0  0  0  0  0  0
    6.2699   -0.4506   -1.8505 H   0  0  0  0  0  0  0  0  0  0  0  0
    6.4805   -1.9165   -0.8482 H   0  0  0  0  0  0  0  0  0  0  0  0
    8.3216    0.4909   -1.1535 H   0  0  0  0  0  0  0  0  0  0  0  0
    8.7679   -1.2271   -1.1609 H   0  0  0  0  0  0  0  0  0  0  0  0
    8.3233   -1.4171    1.2256 H   0  0  0  0  0  0  0  0  0  0  0  0
    9.1355    0.1574    1.1173 H   0  0  0  0  0  0  0  0  0  0  0  0
    6.6921   -0.0607    2.2608 H   0  0  0  0  0  0  0  0  0  0  0  0
    7.0431    1.3460    1.2139 H   0  0  0  0  0  0  0  0  0  0  0  0
    4.6747    1.1703    2.1705 H   0  0  0  0  0  0  0  0  0  0  0  0
    2.3183    1.4413    2.4113 H   0  0  0  0  0  0  0  0  0  0  0  0
   -3.9554   -1.5971   -1.1176 H   0  0  0  0  0  0  0  0  0  0  0  0
   -5.2513   -2.4667   -2.8936 H   0  0  0  0  0  0  0  0  0  0  0  0
   -6.6956   -3.4415   -2.5977 H   0  0  0  0  0  0  0  0  0  0  0  0
   -5.4617   -3.3585   -1.3354 H   0  0  0  0  0  0  0  0  0  0  0  0
  1  2  1  0
  2  3  1  0
  3  4  2  0
  4  5  1  0
  5  6  2  0
  6  7  1  0
  7  8  2  0
  7  9  1  0
  9 10  1  0
 10 11  2  0
 10 12  1  0
 12 13  1  0
 13 14  2  0
 14 15  1  0
 15 16  2  0
 16 17  1  0
 17 18  1  0
 18 19  1  0
 19 20  1  0
 20 21  1  0
 16 22  1  0
 22 23  2  0
  6 24  1  0
 24 25  2  0
 25 26  1  0
 26 27  1  0
 25  3  1  0
 23 13  1  0
 21 17  1  0
  1 28  1  0
  1 29  1  0
  1 30  1  0
  4 31  1  0
  5 32  1  0
  9 33  1  0
 12 34  1  0
 14 35  1  0
 15 36  1  0
 18 37  1  0
 18 38  1  0
 19 39  1  0
 19 40  1  0
 20 41  1  0
 20 42  1  0
 21 43  1  0
 21 44  1  0
 22 45  1  0
 23 46  1  0
 24 47  1  0
 27 48  1  0
 27 49  1  0
 27 50  1  0
M  END
$$$$
