
     RDKit          3D

 48 50  0  0  0  0  0  0  0  0999 V2000
   -3.6618   -1.7665   -2.1064 C   0  0  0  0  0  0  0  0  0  0  0  0
   -2.2470   -2.1837   -1.7564 C   0  0  0  0  0  0  0  0  0  0  0  0
   -1.7165   -1.3439   -0.7198 O   0  0  0  0  0  0  0  0  0  0  0  0
   -1.0999   -0.2011   -1.1271 C   0  0  0  0  0  0  0  0  0  0  0  0
   -0.9922    0.1605   -2.2909 O   0  0  0  0  0  0  0  0  0  0  0  0
   -0.4878    0.5215    0.0491 C   0  0  0  0  0  0  0  0  0  0  0  0
    0.7248    1.3258   -0.3825 C   0  0  0  0  0  0  0  0  0  0  0  0
    2.0152    0.6131   -0.7104 C   0  0  0  0  0  0  0  0  0  0  0  0
    2.6030   -0.3130    0.6750 S   0  0  0  0  0  6  0  0  0  0  0  0
    2.5257    0.5214    1.8588 O   0  0  0  0  0  0  0  0  0  0  0  0
    1.9422   -1.6054    0.6507 O   0  0  0  0  0  0  0  0  0  0  0  0
    4.3179   -0.5781    0.3064 C   0  0  0  0  0  0  0  0  0  0  0  0
    4.7103   -1.7428   -0.3588 C   0  0  0  0  0  0  0  0  0  0  0  0
    6.0610   -1.9467   -0.6403 C   0  0  0  0  0  0  0  0  0  0  0  0
    7.0078   -0.9976   -0.2507 C   0  0  0  0  0  0  0  0  0  0  0  0
    6.6103    0.1560    0.4278 C   0  0  0  0  0  0  0  0  0  0  0  0
    5.2621    0.3683    0.7140 C   0  0  0  0  0  0  0  0  0  0  0  0
    0.7124    2.6098   -0.5723 N   0  0  0  0  0  0  0  0  0  0  0  0
   -0.4250    3.3504   -0.4259 C   0  0  0  0  0  0  0  0  0  0  0  0
   -0.4824    4.5436   -0.6956 O   0  0  0  0  0  0  0  0  0  0  0  0
   -1.5409    2.7249    0.0432 N   0  0  0  0  0  0  0  0  0  0  0  0
   -1.4282    1.4851    0.7615 C   0  0  0  0  0  0  0  0  0  0  0  0
   -2.7799    0.9093    1.1349 C   0  0  0  0  0  0  0  0  0  0  0  0
   -2.9112    0.1650    2.3187 C   0  0  0  0  0  0  0  0  0  0  0  0
   -4.1418   -0.3847    2.6825 C   0  0  0  0  0  0  0  0  0  0  0  0
   -5.2568   -0.2008    1.8686 C   0  0  0  0  0  0  0  0  0  0  0  0
   -5.1420    0.5283    0.6878 C   0  0  0  0  0  0  0  0  0  0  0  0
   -3.9115    1.0755    0.3193 C   0  0  0  0  0  0  0  0  0  0  0  0
   -3.6901   -0.7346   -2.4699 H   0  0  0  0  0  0  0  0  0  0  0  0
   -4.3047   -1.8146   -1.2221 H   0  0  0  0  0  0  0  0  0  0  0  0
   -4.0791   -2.4206   -2.8771 H   0  0  0  0  0  0  0  0  0  0  0  0
   -1.5990   -2.1792   -2.6404 H   0  0  0  0  0  0  0  0  0  0  0  0
   -2.2505   -3.2074   -1.3679 H   0  0  0  0  0  0  0  0  0  0  0  0
   -0.1672   -0.2415    0.7645 H   0  0  0  0  0  0  0  0  0  0  0  0
    1.8680   -0.0673   -1.5528 H   0  0  0  0  0  0  0  0  0  0  0  0
    2.7806    1.3507   -0.9711 H   0  0  0  0  0  0  0  0  0  0  0  0
    3.9821   -2.4951   -0.6538 H   0  0  0  0  0  0  0  0  0  0  0  0
    6.3794   -2.8494   -1.1570 H   0  0  0  0  0  0  0  0  0  0  0  0
    8.0609   -1.1619   -0.4683 H   0  0  0  0  0  0  0  0  0  0  0  0
    7.3544    0.8858    0.7389 H   0  0  0  0  0  0  0  0  0  0  0  0
    4.9628    1.2640    1.2545 H   0  0  0  0  0  0  0  0  0  0  0  0
   -2.2662    3.3840    0.2977 H   0  0  0  0  0  0  0  0  0  0  0  0
   -0.9424    1.7789    1.7052 H   0  0  0  0  0  0  0  0  0  0  0  0
   -2.0545    0.0066    2.9717 H   0  0  0  0  0  0  0  0  0  0  0  0
   -4.2303   -0.9570    3.6027 H   0  0  0  0  0  0  0  0  0  0  0  0
   -6.2147   -0.6285    2.1532 H   0  0  0  0  0  0  0  0  0  0  0  0
   -6.0104    0.6664    0.0483 H   0  0  0  0  0  0  0  0  0  0  0  0
   -3.8468    1.6264   -0.6177 H   0  0  0  0  0  0  0  0  0  0  0  0
  1  2  1  0
  2  3  1  0
  3  4  1  0
  4  5  2  0
  4  6  1  0
  6  7  1  0
  7  8  1  0
  8  9  1  0
  9 10  2  0
  9 11  2  0
  9 12  1  0
 12 13  2  0
 13 14  1  0
 14 15  2  0
 15 16  1  0
 16 17  2  0
  7 18  2  0
 18 19  1  0
 19 20  2  0
 19 21  1  0
 21 22  1  0
 22 23  1  0
 23 24  2  0
 24 25  1  0
 25 26  2  0
 26 27  1  0
 27 28  2  0
 22  6  1  0
 28 23  1  0
 17 12  1  0
  1 29  1  0
  1 30  1  0
  1 31  1  0
  2 32  1  0
  2 33  1  0
  6 34  1  0
  8 35  1  0
  8 36  1  0
 13 37  1  0
 14 38  1  0
 15 39  1  0
 16 40  1  0
 17 41  1  0
 21 42  1  0
 22 43  1  0
 24 44  1  0
 25 45  1  0
 26 46  1  0
 27 47  1  0
 28 48  1  0
M  END
$$$$
