
     RDKit          3D

 48 50  0  0  0  0  0  0  0  0999 V2000
    6.9566    0.9088    2.0045 C   0  0  0  0  0  0  0  0  0  0  0  0
    7.2715   -0.3027    1.1387 C   0  0  0  0  0  0  0  0  0  0  0  0
    6.8450   -0.1052   -0.3135 C   0  0  0  0  0  0  0  0  0  0  0  0
    5.4336    0.1399   -0.4097 O   0  0  0  0  0  0  0  0  0  0  0  0
    4.6454   -0.9634   -0.4537 C   0  0  0  0  0  0  0  0  0  0  0  0
    5.0298   -2.1212   -0.4224 O   0  0  0  0  0  0  0  0  0  0  0  0
    3.2113   -0.5745   -0.5426 C   0  0  0  0  0  0  0  0  0  0  0  0
    2.7904    0.7597   -0.5478 C   0  0  0  0  0  0  0  0  0  0  0  0
    1.4269    1.0672   -0.6312 C   0  0  0  0  0  0  0  0  0  0  0  0
    0.4640    0.0522   -0.7093 C   0  0  0  0  0  0  0  0  0  0  0  0
   -0.8857    0.4531   -0.7902 N   0  0  0  0  0  0  0  0  0  0  0  0
   -2.0082   -0.3609   -0.8614 C   0  0  0  0  0  0  0  0  0  0  0  0
   -2.0088   -1.5845   -0.8194 O   0  0  0  0  0  0  0  0  0  0  0  0
   -3.3005    0.4651   -0.9061 C   0  0  0  0  0  0  0  0  0  0  0  0
   -3.6891    0.8728    0.5397 C   0  0  0  0  0  0  0  0  0  0  0  0
   -4.7371    1.9987    0.4835 C   0  0  0  0  0  0  0  0  0  0  0  0
   -6.0060    1.2688    0.0173 C   0  0  0  0  0  0  0  0  0  0  0  0
   -5.5192   -0.1808   -0.1769 C   0  0  0  0  0  0  0  0  0  0  0  0
   -4.5401   -0.3172    0.9883 C   0  0  0  0  0  0  0  0  0  0  0  0
   -4.5900   -0.2200   -1.4175 C   0  0  0  0  0  0  0  0  0  0  0  0
   -4.4004   -1.5746   -2.0549 C   0  0  0  0  0  0  0  0  0  0  0  0
   -3.9099   -1.7535   -3.1601 O   0  0  0  0  0  0  0  0  0  0  0  0
   -4.8129   -2.6126   -1.3109 O   0  0  0  0  0  0  0  0  0  0  0  0
    0.8882   -1.2772   -0.7049 C   0  0  0  0  0  0  0  0  0  0  0  0
    2.2515   -1.5894   -0.6214 C   0  0  0  0  0  0  0  0  0  0  0  0
    5.8797    1.0997    2.0460 H   0  0  0  0  0  0  0  0  0  0  0  0
    7.4508    1.8056    1.6175 H   0  0  0  0  0  0  0  0  0  0  0  0
    7.3080    0.7425    3.0277 H   0  0  0  0  0  0  0  0  0  0  0  0
    6.7601   -1.1735    1.5640 H   0  0  0  0  0  0  0  0  0  0  0  0
    8.3481   -0.5030    1.1744 H   0  0  0  0  0  0  0  0  0  0  0  0
    7.3507    0.7693   -0.7374 H   0  0  0  0  0  0  0  0  0  0  0  0
    7.1352   -0.9655   -0.9284 H   0  0  0  0  0  0  0  0  0  0  0  0
    3.5096    1.5728   -0.4873 H   0  0  0  0  0  0  0  0  0  0  0  0
    1.1338    2.1143   -0.6332 H   0  0  0  0  0  0  0  0  0  0  0  0
   -1.0469    1.4522   -0.7968 H   0  0  0  0  0  0  0  0  0  0  0  0
   -3.1061    1.3543   -1.5206 H   0  0  0  0  0  0  0  0  0  0  0  0
   -2.8440    1.0993    1.1942 H   0  0  0  0  0  0  0  0  0  0  0  0
   -4.4508    2.8057   -0.1982 H   0  0  0  0  0  0  0  0  0  0  0  0
   -4.8974    2.4323    1.4771 H   0  0  0  0  0  0  0  0  0  0  0  0
   -6.7757    1.3182    0.7962 H   0  0  0  0  0  0  0  0  0  0  0  0
   -6.4212    1.7047   -0.8967 H   0  0  0  0  0  0  0  0  0  0  0  0
   -6.3349   -0.9069   -0.1863 H   0  0  0  0  0  0  0  0  0  0  0  0
   -3.9989   -1.2676    0.9970 H   0  0  0  0  0  0  0  0  0  0  0  0
   -5.0103   -0.1635    1.9657 H   0  0  0  0  0  0  0  0  0  0  0  0
   -5.0499    0.3926   -2.2057 H   0  0  0  0  0  0  0  0  0  0  0  0
   -4.4881   -3.3934   -1.8063 H   0  0  0  0  0  0  0  0  0  0  0  0
    0.1864   -2.1033   -0.7681 H   0  0  0  0  0  0  0  0  0  0  0  0
    2.5555   -2.6351   -0.6199 H   0  0  0  0  0  0  0  0  0  0  0  0
  1  2  1  0
  2  3  1  0
  3  4  1  0
  4  5  1  0
  5  6  2  0
  5  7  1  0
  7  8  2  0
  8  9  1  0
  9 10  2  0
 10 11  1  0
 11 12  1  0
 12 13  2  0
 12 14  1  0
 14 15  1  0
 15 16  1  0
 16 17  1  0
 17 18  1  0
 18 19  1  0
 18 20  1  0
 20 21  1  0
 21 22  2  0
 21 23  1  0
 10 24  1  0
 24 25  2  0
 25  7  1  0
 20 14  1  0
 19 15  1  0
  1 26  1  0
  1 27  1  0
  1 28  1  0
  2 29  1  0
  2 30  1  0
  3 31  1  0
  3 32  1  0
  8 33  1  0
  9 34  1  0
 11 35  1  0
 14 36  1  0
 15 37  1  0
 16 38  1  0
 16 39  1  0
 17 40  1  0
 17 41  1  0
 18 42  1  0
 19 43  1  0
 19 44  1  0
 20 45  1  0
 23 46  1  0
 24 47  1  0
 25 48  1  0
M  END
$$$$
