
     RDKit          3D

 67 71  0  0  0  0  0  0  0  0999 V2000
    8.7819   -1.5391    0.4991 O   0  0  0  0  0  0  0  0  0  0  0  0
    7.9565   -2.2283   -0.0784 C   0  0  0  0  0  0  0  0  0  0  0  0
    7.9805   -3.7399   -0.1459 C   0  0  0  0  0  0  0  0  0  0  0  0
    6.6229   -4.0827   -0.7434 C   0  0  0  0  0  0  0  0  0  0  0  0
    6.3008   -2.8680   -1.5886 C   0  0  0  0  0  0  0  0  0  0  0  0
    6.8696   -1.7777   -0.8282 N   0  0  0  0  0  0  0  0  0  0  0  0
    6.7557   -0.4079   -1.3086 C   0  0  0  0  0  0  0  0  0  0  0  0
    6.7340    0.6676   -0.2198 C   0  0  0  0  0  0  0  0  0  0  0  0
    5.6413    0.4732    0.8268 C   0  0  0  0  0  0  0  0  0  0  0  0
    4.2999    0.3671    0.2452 N   0  0  0  0  0  0  0  0  0  0  0  0
    3.4619    1.4556    0.1537 C   0  0  0  0  0  0  0  0  0  0  0  0
    3.8059    2.6288   -0.7091 C   0  0  0  0  0  0  0  0  0  0  0  0
    2.9277    3.6326   -0.8071 C   0  0  0  0  0  0  0  0  0  0  0  0
    1.7254    3.5586   -0.0788 C   0  0  0  0  0  0  0  0  0  0  0  0
    0.6872    4.3573    0.0139 N   0  0  0  0  0  0  0  0  0  0  0  0
   -0.2049    3.7844    0.8950 N   0  0  0  0  0  0  0  0  0  0  0  0
    0.3139    2.6522    1.3257 C   0  0  0  0  0  0  0  0  0  0  0  0
   -0.2852    1.6994    2.3028 C   0  0  0  0  0  0  0  0  0  0  0  0
   -1.4306    0.9067    1.6738 C   0  0  0  0  0  0  0  0  0  0  0  0
   -2.7890    1.5737    1.8418 C   0  0  0  0  0  0  0  0  0  0  0  0
   -2.9566    2.4943    2.6415 O   0  0  0  0  0  0  0  0  0  0  0  0
   -3.8509    1.0318    1.1209 N   0  0  0  0  0  0  0  0  0  0  0  0
   -5.1049    1.7972    1.0934 C   0  0  0  0  0  0  0  0  0  0  0  0
   -6.3526    0.9313    0.8427 C   0  0  0  0  0  0  0  0  0  0  0  0
   -6.1526    0.0220   -0.3155 N   0  0  0  0  0  0  0  0  0  0  0  0
   -7.3387   -0.6287   -0.7036 C   0  0  0  0  0  0  0  0  0  0  0  0
   -7.5370   -2.0145   -0.6025 C   0  0  0  0  0  0  0  0  0  0  0  0
   -8.7368   -2.6109   -1.0090 C   0  0  0  0  0  0  0  0  0  0  0  0
   -9.7633   -1.8318   -1.5355 C   0  0  0  0  0  0  0  0  0  0  0  0
   -9.5882   -0.4570   -1.6570 C   0  0  0  0  0  0  0  0  0  0  0  0
   -8.3888    0.1326   -1.2467 C   0  0  0  0  0  0  0  0  0  0  0  0
   -4.9423   -0.8084   -0.1720 C   0  0  0  0  0  0  0  0  0  0  0  0
   -3.6957    0.0724    0.0215 C   0  0  0  0  0  0  0  0  0  0  0  0
    1.5262    2.4458    0.7069 N   0  0  0  0  0  0  0  0  0  0  0  0
    2.3476    1.3604    0.8354 N   0  0  0  0  0  0  0  0  0  0  0  0
    8.7994   -4.0460   -0.8084 H   0  0  0  0  0  0  0  0  0  0  0  0
    8.1099   -4.1781    0.8486 H   0  0  0  0  0  0  0  0  0  0  0  0
    5.8838   -4.1816    0.0613 H   0  0  0  0  0  0  0  0  0  0  0  0
    6.6253   -5.0155   -1.3131 H   0  0  0  0  0  0  0  0  0  0  0  0
    5.2231   -2.7258   -1.7192 H   0  0  0  0  0  0  0  0  0  0  0  0
    6.7970   -2.9104   -2.5671 H   0  0  0  0  0  0  0  0  0  0  0  0
    7.6033   -0.2265   -1.9803 H   0  0  0  0  0  0  0  0  0  0  0  0
    5.8424   -0.3354   -1.9114 H   0  0  0  0  0  0  0  0  0  0  0  0
    6.6298    1.6457   -0.7014 H   0  0  0  0  0  0  0  0  0  0  0  0
    7.7006    0.6990    0.2975 H   0  0  0  0  0  0  0  0  0  0  0  0
    5.6686    1.2867    1.5660 H   0  0  0  0  0  0  0  0  0  0  0  0
    5.8415   -0.4512    1.3868 H   0  0  0  0  0  0  0  0  0  0  0  0
    3.7928   -0.3575    0.7545 H   0  0  0  0  0  0  0  0  0  0  0  0
    4.7294    2.6216   -1.2692 H   0  0  0  0  0  0  0  0  0  0  0  0
    3.1109    4.4949   -1.4366 H   0  0  0  0  0  0  0  0  0  0  0  0
   -0.6016    2.2506    3.1950 H   0  0  0  0  0  0  0  0  0  0  0  0
    0.4789    0.9903    2.6446 H   0  0  0  0  0  0  0  0  0  0  0  0
   -1.2206    0.7348    0.6127 H   0  0  0  0  0  0  0  0  0  0  0  0
   -1.5031   -0.0663    2.1767 H   0  0  0  0  0  0  0  0  0  0  0  0
   -5.0009    2.5438    0.2987 H   0  0  0  0  0  0  0  0  0  0  0  0
   -5.2404    2.3396    2.0336 H   0  0  0  0  0  0  0  0  0  0  0  0
   -7.2042    1.6076    0.6871 H   0  0  0  0  0  0  0  0  0  0  0  0
   -6.5631    0.3334    1.7419 H   0  0  0  0  0  0  0  0  0  0  0  0
   -6.7700   -2.6650   -0.1933 H   0  0  0  0  0  0  0  0  0  0  0  0
   -8.8613   -3.6867   -0.9173 H   0  0  0  0  0  0  0  0  0  0  0  0
  -10.6903   -2.2945   -1.8610 H   0  0  0  0  0  0  0  0  0  0  0  0
  -10.3768    0.1603   -2.0805 H   0  0  0  0  0  0  0  0  0  0  0  0
   -8.2641    1.2048   -1.3810 H   0  0  0  0  0  0  0  0  0  0  0  0
   -5.0387   -1.4726    0.6961 H   0  0  0  0  0  0  0  0  0  0  0  0
   -4.7914   -1.4224   -1.0675 H   0  0  0  0  0  0  0  0  0  0  0  0
   -2.8388   -0.5823    0.1990 H   0  0  0  0  0  0  0  0  0  0  0  0
   -3.4920    0.6547   -0.8837 H   0  0  0  0  0  0  0  0  0  0  0  0
  1  2  2  0
  2  3  1  0
  3  4  1  0
  4  5  1  0
  5  6  1  0
  6  7  1  0
  7  8  1  0
  8  9  1  0
  9 10  1  0
 10 11  1  0
 11 12  1  0
 12 13  2  0
 13 14  1  0
 14 15  2  0
 15 16  1  0
 16 17  2  0
 17 18  1  0
 18 19  1  0
 19 20  1  0
 20 21  2  0
 20 22  1  0
 22 23  1  0
 23 24  1  0
 24 25  1  0
 25 26  1  0
 26 27  2  0
 27 28  1  0
 28 29  2  0
 29 30  1  0
 30 31  2  0
 25 32  1  0
 32 33  1  0
 17 34  1  0
 34 35  1  0
  6  2  1  0
 35 11  2  0
 34 14  1  0
 33 22  1  0
 31 26  1  0
  3 36  1  0
  3 37  1  0
  4 38  1  0
  4 39  1  0
  5 40  1  0
  5 41  1  0
  7 42  1  0
  7 43  1  0
  8 44  1  0
  8 45  1  0
  9 46  1  0
  9 47  1  0
 10 48  1  0
 12 49  1  0
 13 50  1  0
 18 51  1  0
 18 52  1  0
 19 53  1  0
 19 54  1  0
 23 55  1  0
 23 56  1  0
 24 57  1  0
 24 58  1  0
 27 59  1  0
 28 60  1  0
 29 61  1  0
 30 62  1  0
 31 63  1  0
 32 64  1  0
 32 65  1  0
 33 66  1  0
 33 67  1  0
M  END
$$$$
