
     RDKit          3D

 32 32  0  0  0  0  0  0  0  0999 V2000
    5.6684    0.6682    0.2408 C   0  0  0  0  0  0  0  0  0  0  0  0
    5.2411   -0.4636    1.1600 C   0  0  0  0  0  0  0  0  0  0  0  0
    4.3429   -1.7591    0.2566 S   0  0  0  0  0  0  0  0  0  0  0  0
    2.7593   -1.0391    0.0815 C   0  0  0  0  0  0  0  0  0  0  0  0
    2.4098    0.0856    0.6639 N   0  0  0  0  0  0  0  0  0  0  0  0
    1.1108    0.4406    0.3663 N   0  0  0  0  0  0  0  0  0  0  0  0
    0.5141   -0.4274   -0.4158 C   0  0  0  0  0  0  0  0  0  0  0  0
   -0.7562   -0.3512   -0.8726 N   0  0  0  0  0  0  0  0  0  0  0  0
   -1.7855    0.4157   -0.1198 C   0  0  0  0  0  0  0  0  0  0  0  0
   -3.0010    0.2938   -1.0083 N   0  0  0  0  0  0  0  0  0  0  0  0
   -3.5316   -0.9085   -1.3947 C   0  0  0  0  0  0  0  0  0  0  0  0
   -4.8751   -0.8294   -2.0661 C   0  0  0  0  0  0  0  0  0  0  0  0
   -2.9338   -1.9677   -1.2373 O   0  0  0  0  0  0  0  0  0  0  0  0
   -1.4840    1.9301    0.0850 C   0  0  0  0  0  0  0  0  0  0  0  0
   -1.0270    2.5035   -1.0584 F   0  0  0  0  0  0  0  0  0  0  0  0
   -2.6486    2.5838    0.3726 F   0  0  0  0  0  0  0  0  0  0  0  0
   -0.6240    2.2333    1.0708 F   0  0  0  0  0  0  0  0  0  0  0  0
   -2.0734   -0.1042    1.3189 C   0  0  0  0  0  0  0  0  0  0  0  0
   -2.3269   -1.4359    1.3359 F   0  0  0  0  0  0  0  0  0  0  0  0
   -3.1756    0.4981    1.8365 F   0  0  0  0  0  0  0  0  0  0  0  0
   -1.0636    0.1012    2.1886 F   0  0  0  0  0  0  0  0  0  0  0  0
    1.5200   -1.7531   -0.8595 S   0  0  0  0  0  0  0  0  0  0  0  0
    6.2416    1.4093    0.8079 H   0  0  0  0  0  0  0  0  0  0  0  0
    4.8109    1.1849   -0.2013 H   0  0  0  0  0  0  0  0  0  0  0  0
    6.3100    0.3052   -0.5693 H   0  0  0  0  0  0  0  0  0  0  0  0
    4.6421   -0.0865    1.9950 H   0  0  0  0  0  0  0  0  0  0  0  0
    6.1344   -0.9262    1.5926 H   0  0  0  0  0  0  0  0  0  0  0  0
   -1.1447   -1.2429   -1.1953 H   0  0  0  0  0  0  0  0  0  0  0  0
   -3.6299    1.0907   -0.9831 H   0  0  0  0  0  0  0  0  0  0  0  0
   -5.5966   -1.4143   -1.4896 H   0  0  0  0  0  0  0  0  0  0  0  0
   -5.2353    0.2007   -2.1345 H   0  0  0  0  0  0  0  0  0  0  0  0
   -4.7924   -1.2358   -3.0777 H   0  0  0  0  0  0  0  0  0  0  0  0
  1  2  1  0
  2  3  1  0
  3  4  1  0
  4  5  2  0
  5  6  1  0
  6  7  2  0
  7  8  1  0
  8  9  1  0
  9 10  1  0
 10 11  1  0
 11 12  1  0
 11 13  2  0
  9 14  1  0
 14 15  1  0
 14 16  1  0
 14 17  1  0
  9 18  1  0
 18 19  1  0
 18 20  1  0
 18 21  1  0
  7 22  1  0
 22  4  1  0
  1 23  1  0
  1 24  1  0
  1 25  1  0
  2 26  1  0
  2 27  1  0
  8 28  1  0
 10 29  1  0
 12 30  1  0
 12 31  1  0
 12 32  1  0
M  END
$$$$
