
     RDKit          3D

 36 38  0  0  0  0  0  0  0  0999 V2000
   -2.4565    0.9121    0.1667 C   0  0  0  0  0  0  0  0  0  0  0  0
   -1.9666   -0.4089    0.7268 C   0  0  0  0  0  0  0  0  0  0  0  0
   -0.7128   -0.7678    0.7189 N   0  0  0  0  0  0  0  0  0  0  0  0
    0.2025    0.0845    0.1838 N   0  0  0  0  0  0  0  0  0  0  0  0
    1.5228   -0.3881    0.0079 C   0  0  0  0  0  0  0  0  0  0  0  0
    1.8810   -1.6012    0.5085 N   0  0  0  0  0  0  0  0  0  0  0  0
    3.1139   -2.0666    0.2874 C   0  0  0  0  0  0  0  0  0  0  0  0
    4.0950   -1.4693   -0.3867 N   0  0  0  0  0  0  0  0  0  0  0  0
    3.7330   -0.2612   -0.8488 C   0  0  0  0  0  0  0  0  0  0  0  0
    4.8479    0.6668   -1.7320 S   0  0  0  0  0  0  0  0  0  0  0  0
    3.7353    1.9464   -1.9301 C   0  0  0  0  0  0  0  0  0  0  0  0
    4.1555    3.1646   -2.6881 C   0  0  0  0  0  0  0  0  0  0  0  0
    2.5202    1.6881   -1.3069 C   0  0  0  0  0  0  0  0  0  0  0  0
    1.3839    2.6633   -1.2662 C   0  0  0  0  0  0  0  0  0  0  0  0
    2.5021    0.3610   -0.6966 C   0  0  0  0  0  0  0  0  0  0  0  0
   -2.9824   -1.3423    1.3108 C   0  0  0  0  0  0  0  0  0  0  0  0
   -2.5734   -2.5043    1.9585 C   0  0  0  0  0  0  0  0  0  0  0  0
   -3.5448   -3.3425    2.4992 C   0  0  0  0  0  0  0  0  0  0  0  0
   -4.8852   -2.9953    2.3780 C   0  0  0  0  0  0  0  0  0  0  0  0
   -5.2018   -1.8245    1.7090 C   0  0  0  0  0  0  0  0  0  0  0  0
   -4.2850   -0.9913    1.1703 N   0  0  0  0  0  0  0  0  0  0  0  0
   -1.8360    1.7262    0.5562 H   0  0  0  0  0  0  0  0  0  0  0  0
   -3.4884    1.1363    0.4404 H   0  0  0  0  0  0  0  0  0  0  0  0
   -2.3816    0.8894   -0.9241 H   0  0  0  0  0  0  0  0  0  0  0  0
   -0.0799    0.7008   -0.5688 H   0  0  0  0  0  0  0  0  0  0  0  0
    3.3374   -3.0458    0.7009 H   0  0  0  0  0  0  0  0  0  0  0  0
    4.3301    3.9943   -1.9950 H   0  0  0  0  0  0  0  0  0  0  0  0
    3.3754    3.4600   -3.3976 H   0  0  0  0  0  0  0  0  0  0  0  0
    5.0741    3.0033   -3.2623 H   0  0  0  0  0  0  0  0  0  0  0  0
    0.5822    2.3402   -1.9376 H   0  0  0  0  0  0  0  0  0  0  0  0
    0.9860    2.7519   -0.2500 H   0  0  0  0  0  0  0  0  0  0  0  0
    1.6937    3.6662   -1.5759 H   0  0  0  0  0  0  0  0  0  0  0  0
   -1.5200   -2.7531    2.0476 H   0  0  0  0  0  0  0  0  0  0  0  0
   -3.2559   -4.2539    3.0164 H   0  0  0  0  0  0  0  0  0  0  0  0
   -5.6651   -3.6235    2.7939 H   0  0  0  0  0  0  0  0  0  0  0  0
   -6.2366   -1.5157    1.5857 H   0  0  0  0  0  0  0  0  0  0  0  0
  1  2  1  0
  2  3  2  3
  3  4  1  0
  4  5  1  0
  5  6  2  0
  6  7  1  0
  7  8  2  0
  8  9  1  0
  9 10  1  0
 10 11  1  0
 11 12  1  0
 11 13  2  0
 13 14  1  0
 13 15  1  0
  2 16  1  0
 16 17  2  0
 17 18  1  0
 18 19  2  0
 19 20  1  0
 20 21  2  0
 15  5  1  0
 21 16  1  0
 15  9  2  0
  1 22  1  0
  1 23  1  0
  1 24  1  0
  4 25  1  0
  7 26  1  0
 12 27  1  0
 12 28  1  0
 12 29  1  0
 14 30  1  0
 14 31  1  0
 14 32  1  0
 17 33  1  0
 18 34  1  0
 19 35  1  0
 20 36  1  0
M  END
$$$$
