
     RDKit          3D

 46 48  0  0  0  0  0  0  0  0999 V2000
    7.7924    1.8128    1.5660 C   0  0  0  0  0  0  0  0  0  0  0  0
    6.6057    0.9399    1.8364 C   0  0  0  0  0  0  0  0  0  0  0  0
    6.6467   -0.1147    2.4534 O   0  0  0  0  0  0  0  0  0  0  0  0
    5.4845    1.4962    1.2999 O   0  0  0  0  0  0  0  0  0  0  0  0
    4.2945    0.7179    1.4918 C   0  0  0  0  0  0  0  0  0  0  0  0
    3.1180    1.5103    0.9317 C   0  0  0  0  0  0  0  0  0  0  0  0
    1.7828    0.7926    1.1158 C   0  0  0  0  0  0  0  0  0  0  0  0
    1.6310   -0.2811    0.1351 N   0  0  0  0  0  0  0  0  0  0  0  0
    0.5159   -1.1409    0.1549 C   0  0  0  0  0  0  0  0  0  0  0  0
   -0.6720   -0.7905    0.8635 C   0  0  0  0  0  0  0  0  0  0  0  0
   -1.8591   -1.5656    0.8837 C   0  0  0  0  0  0  0  0  0  0  0  0
   -3.2949   -1.1005    1.7978 S   0  0  0  0  0  0  0  0  0  0  0  0
   -4.1561   -0.1517    0.5584 C   0  0  0  0  0  0  0  0  0  0  0  0
   -4.9811   -0.7874   -0.3729 C   0  0  0  0  0  0  0  0  0  0  0  0
   -5.6481   -0.0418   -1.3483 C   0  0  0  0  0  0  0  0  0  0  0  0
   -5.5118    1.3504   -1.3936 C   0  0  0  0  0  0  0  0  0  0  0  0
   -6.2026    2.1466   -2.4611 C   0  0  0  0  0  0  0  0  0  0  0  0
   -4.6812    1.9833   -0.4617 C   0  0  0  0  0  0  0  0  0  0  0  0
   -4.0134    1.2376    0.5135 C   0  0  0  0  0  0  0  0  0  0  0  0
   -1.8250   -2.7582    0.1267 C   0  0  0  0  0  0  0  0  0  0  0  0
   -2.7541   -3.7092   -0.0462 N   0  0  0  0  0  0  0  0  0  0  0  0
   -2.1916   -4.6502   -0.8841 O   0  0  0  0  0  0  0  0  0  0  0  0
   -0.9039   -4.3068   -1.2432 N   0  0  0  0  0  0  0  0  0  0  0  0
   -0.6464   -3.1352   -0.6447 C   0  0  0  0  0  0  0  0  0  0  0  0
    0.4967   -2.3139   -0.6466 C   0  0  0  0  0  0  0  0  0  0  0  0
    1.6162   -2.7200   -1.4504 N   0  0  0  0  0  4  0  0  0  0  0  0
    1.4098   -2.9844   -2.6413 O   0  0  0  0  0  0  0  0  0  0  0  0
    2.7261   -2.7334   -0.8953 O   0  0  0  0  0  1  0  0  0  0  0  0
    7.6478    2.7900    2.0336 H   0  0  0  0  0  0  0  0  0  0  0  0
    8.6870    1.3505    1.9928 H   0  0  0  0  0  0  0  0  0  0  0  0
    7.9365    1.9190    0.4879 H   0  0  0  0  0  0  0  0  0  0  0  0
    4.1445    0.5328    2.5621 H   0  0  0  0  0  0  0  0  0  0  0  0
    4.4050   -0.2372    0.9668 H   0  0  0  0  0  0  0  0  0  0  0  0
    3.2954    1.7423   -0.1260 H   0  0  0  0  0  0  0  0  0  0  0  0
    3.0785    2.4780    1.4481 H   0  0  0  0  0  0  0  0  0  0  0  0
    0.9864    1.5307    0.9655 H   0  0  0  0  0  0  0  0  0  0  0  0
    1.7027    0.4008    2.1367 H   0  0  0  0  0  0  0  0  0  0  0  0
    2.5037   -0.7895   -0.0464 H   0  0  0  0  0  0  0  0  0  0  0  0
   -0.6944    0.1347    1.4387 H   0  0  0  0  0  0  0  0  0  0  0  0
   -5.1113   -1.8672   -0.3506 H   0  0  0  0  0  0  0  0  0  0  0  0
   -6.2781   -0.5567   -2.0706 H   0  0  0  0  0  0  0  0  0  0  0  0
   -5.5605    2.2247   -3.3438 H   0  0  0  0  0  0  0  0  0  0  0  0
   -6.4394    3.1547   -2.1049 H   0  0  0  0  0  0  0  0  0  0  0  0
   -7.1474    1.6747   -2.7508 H   0  0  0  0  0  0  0  0  0  0  0  0
   -4.5521    3.0632   -0.4866 H   0  0  0  0  0  0  0  0  0  0  0  0
   -3.3834    1.7526    1.2341 H   0  0  0  0  0  0  0  0  0  0  0  0
  1  2  1  0
  2  3  2  0
  2  4  1  0
  4  5  1  0
  5  6  1  0
  6  7  1  0
  7  8  1  0
  8  9  1  0
  9 10  1  0
 10 11  2  0
 11 12  1  0
 12 13  1  0
 13 14  2  0
 14 15  1  0
 15 16  2  0
 16 17  1  0
 16 18  1  0
 18 19  2  0
 11 20  1  0
 20 21  2  0
 21 22  1  0
 22 23  1  0
 23 24  2  0
 24 25  1  0
 25 26  1  0
 26 27  2  0
 26 28  1  0
 25  9  2  0
 19 13  1  0
 24 20  1  0
  1 29  1  0
  1 30  1  0
  1 31  1  0
  5 32  1  0
  5 33  1  0
  6 34  1  0
  6 35  1  0
  7 36  1  0
  7 37  1  0
  8 38  1  0
 10 39  1  0
 14 40  1  0
 15 41  1  0
 17 42  1  0
 17 43  1  0
 17 44  1  0
 18 45  1  0
 19 46  1  0
M  CHG  2  26   1  28  -1
M  END
$$$$
