
     RDKit          3D

 49 52  0  0  0  0  0  0  0  0999 V2000
   -5.7137   -2.1369   -1.2442 C   0  0  0  0  0  0  0  0  0  0  0  0
   -5.1037   -1.0350   -0.4265 C   0  0  0  0  0  0  0  0  0  0  0  0
   -5.9005   -0.3006    0.4594 C   0  0  0  0  0  0  0  0  0  0  0  0
   -5.3501    0.7322    1.2227 C   0  0  0  0  0  0  0  0  0  0  0  0
   -6.1988    1.5277    2.1700 C   0  0  0  0  0  0  0  0  0  0  0  0
   -3.9942    1.0505    1.0632 C   0  0  0  0  0  0  0  0  0  0  0  0
   -3.1808    0.3475    0.1554 C   0  0  0  0  0  0  0  0  0  0  0  0
   -1.8061    0.7237    0.0332 N   0  0  0  0  0  0  0  0  0  0  0  0
   -1.2745    1.5879    0.9494 N   0  0  0  0  0  0  0  0  0  0  0  0
    0.0173    1.6831    0.6458 C   0  0  0  0  0  0  0  0  0  0  0  0
    0.3559    0.9305   -0.4831 C   0  0  0  0  0  0  0  0  0  0  0  0
   -0.8380    0.3626   -0.8959 C   0  0  0  0  0  0  0  0  0  0  0  0
   -0.9871   -0.4426   -2.1416 C   0  0  0  0  0  0  0  0  0  0  0  0
    0.2277   -0.2258   -3.0661 C   0  0  0  0  0  0  0  0  0  0  0  0
    1.5565   -0.2998   -2.2975 C   0  0  0  0  0  0  0  0  0  0  0  0
    1.6528    0.7922   -1.2074 C   0  0  0  0  0  0  0  0  0  0  0  0
    2.6830    0.4773   -0.2520 N   0  0  0  0  0  0  0  0  0  0  0  0
    4.0192    0.6692   -0.5169 C   0  0  0  0  0  0  0  0  0  0  0  0
    4.4404    1.2333   -1.5222 O   0  0  0  0  0  0  0  0  0  0  0  0
    4.8992    0.1172    0.5245 C   0  0  0  0  0  0  0  0  0  0  0  0
    6.3153    0.1753    0.5671 C   0  0  0  0  0  0  0  0  0  0  0  0
    6.6781   -0.4709    1.7271 C   0  0  0  0  0  0  0  0  0  0  0  0
    7.9977   -0.7370    2.3403 C   0  0  0  0  0  0  0  0  0  0  0  0
    5.5061   -0.8729    2.3033 N   0  0  0  0  0  0  0  0  0  0  0  0
    4.4117   -0.5411    1.5976 N   0  0  0  0  0  0  0  0  0  0  0  0
   -3.7468   -0.7024   -0.5767 C   0  0  0  0  0  0  0  0  0  0  0  0
   -4.9541   -2.8552   -1.5702 H   0  0  0  0  0  0  0  0  0  0  0  0
   -6.4525   -2.6906   -0.6552 H   0  0  0  0  0  0  0  0  0  0  0  0
   -6.2024   -1.7180   -2.1292 H   0  0  0  0  0  0  0  0  0  0  0  0
   -6.9567   -0.5431    0.5605 H   0  0  0  0  0  0  0  0  0  0  0  0
   -7.1513    1.0252    2.3700 H   0  0  0  0  0  0  0  0  0  0  0  0
   -5.6862    1.6517    3.1299 H   0  0  0  0  0  0  0  0  0  0  0  0
   -6.4108    2.5138    1.7455 H   0  0  0  0  0  0  0  0  0  0  0  0
   -3.5802    1.8713    1.6484 H   0  0  0  0  0  0  0  0  0  0  0  0
    0.6557    2.3101    1.2555 H   0  0  0  0  0  0  0  0  0  0  0  0
   -1.8907   -0.1617   -2.6923 H   0  0  0  0  0  0  0  0  0  0  0  0
   -1.0449   -1.5060   -1.8827 H   0  0  0  0  0  0  0  0  0  0  0  0
    0.1503    0.7555   -3.5518 H   0  0  0  0  0  0  0  0  0  0  0  0
    0.2153   -0.9778   -3.8634 H   0  0  0  0  0  0  0  0  0  0  0  0
    2.3966   -0.2011   -2.9949 H   0  0  0  0  0  0  0  0  0  0  0  0
    1.6462   -1.2965   -1.8445 H   0  0  0  0  0  0  0  0  0  0  0  0
    1.8955    1.7496   -1.6858 H   0  0  0  0  0  0  0  0  0  0  0  0
    2.4821   -0.1070    0.5556 H   0  0  0  0  0  0  0  0  0  0  0  0
    6.9685    0.6376   -0.1610 H   0  0  0  0  0  0  0  0  0  0  0  0
    8.8041   -0.5770    1.6172 H   0  0  0  0  0  0  0  0  0  0  0  0
    8.0635   -1.7709    2.6950 H   0  0  0  0  0  0  0  0  0  0  0  0
    8.1651   -0.0681    3.1906 H   0  0  0  0  0  0  0  0  0  0  0  0
    5.3808   -1.3777    3.1749 H   0  0  0  0  0  0  0  0  0  0  0  0
   -3.1602   -1.3093   -1.2527 H   0  0  0  0  0  0  0  0  0  0  0  0
  1  2  1  0
  2  3  2  0
  3  4  1  0
  4  5  1  0
  4  6  2  0
  6  7  1  0
  7  8  1  0
  8  9  1  0
  9 10  2  0
 10 11  1  0
 11 12  2  0
 12 13  1  0
 13 14  1  0
 14 15  1  0
 15 16  1  0
 16 17  1  0
 17 18  1  0
 18 19  2  0
 18 20  1  0
 20 21  1  0
 21 22  2  0
 22 23  1  0
 22 24  1  0
 24 25  1  0
  7 26  2  0
 26  2  1  0
 12  8  1  0
 25 20  2  0
 16 11  1  0
  1 27  1  0
  1 28  1  0
  1 29  1  0
  3 30  1  0
  5 31  1  0
  5 32  1  0
  5 33  1  0
  6 34  1  0
 10 35  1  0
 13 36  1  0
 13 37  1  0
 14 38  1  0
 14 39  1  0
 15 40  1  0
 15 41  1  0
 16 42  1  0
 17 43  1  0
 21 44  1  0
 23 45  1  0
 23 46  1  0
 23 47  1  0
 24 48  1  0
 26 49  1  0
M  END
$$$$
