
     RDKit          3D

 44 46  0  0  0  0  0  0  0  0999 V2000
    1.9373   -1.1257    1.2609 C   0  0  0  0  0  0  0  0  0  0  0  0
    1.6980    0.3246    0.8910 C   0  0  0  0  0  0  0  0  0  0  0  0
    2.6393    1.1609    0.5683 N   0  0  0  0  0  0  0  0  0  0  0  0
    4.0355    0.7209    0.4805 C   0  0  0  0  0  0  0  0  0  0  0  0
    4.3513   -0.0370   -0.7772 C   0  0  0  0  0  0  0  0  0  0  0  0
    5.0510   -1.2462   -0.7495 C   0  0  0  0  0  0  0  0  0  0  0  0
    5.3380   -1.9056   -1.9417 C   0  0  0  0  0  0  0  0  0  0  0  0
    4.9221   -1.3270   -3.1291 C   0  0  0  0  0  0  0  0  0  0  0  0
    4.2551   -0.1563   -3.1987 N   0  0  0  0  0  0  0  0  0  0  0  0
    3.9865    0.4603   -2.0249 C   0  0  0  0  0  0  0  0  0  0  0  0
    0.2832    0.8277    0.9160 C   0  0  0  0  0  0  0  0  0  0  0  0
    0.0539    2.1064    1.2454 C   0  0  0  0  0  0  0  0  0  0  0  0
    1.0158    3.0460    1.5123 O   0  0  0  0  0  0  0  0  0  0  0  0
   -1.1998    2.5947    1.3622 N   0  0  0  0  0  0  0  0  0  0  0  0
   -2.3450    1.8732    1.1747 C   0  0  0  0  0  0  0  0  0  0  0  0
   -3.4193    2.4125    1.4368 O   0  0  0  0  0  0  0  0  0  0  0  0
   -2.1644    0.5598    0.7371 N   0  0  0  0  0  0  0  0  0  0  0  0
   -3.3280   -0.2471    0.4854 C   0  0  0  0  0  0  0  0  0  0  0  0
   -3.4327   -1.4993    1.1215 C   0  0  0  0  0  0  0  0  0  0  0  0
   -4.5605   -2.3047    0.9560 C   0  0  0  0  0  0  0  0  0  0  0  0
   -5.6047   -1.8743    0.1482 C   0  0  0  0  0  0  0  0  0  0  0  0
   -5.5109   -0.6497   -0.5102 C   0  0  0  0  0  0  0  0  0  0  0  0
   -4.3715    0.1668   -0.3727 C   0  0  0  0  0  0  0  0  0  0  0  0
   -4.3316    1.4305   -1.1906 C   0  0  0  0  0  0  0  0  0  0  0  0
   -0.9001   -0.0288    0.6149 C   0  0  0  0  0  0  0  0  0  0  0  0
   -0.7024   -1.1845    0.2349 O   0  0  0  0  0  0  0  0  0  0  0  0
    2.8345   -1.2340    1.8734 H   0  0  0  0  0  0  0  0  0  0  0  0
    1.1129   -1.5209    1.8605 H   0  0  0  0  0  0  0  0  0  0  0  0
    2.0426   -1.7225    0.3512 H   0  0  0  0  0  0  0  0  0  0  0  0
    4.6654    1.6196    0.4899 H   0  0  0  0  0  0  0  0  0  0  0  0
    4.3347    0.1641    1.3752 H   0  0  0  0  0  0  0  0  0  0  0  0
    5.3731   -1.6814    0.1928 H   0  0  0  0  0  0  0  0  0  0  0  0
    5.8746   -2.8476   -1.9457 H   0  0  0  0  0  0  0  0  0  0  0  0
    5.1220   -1.8032   -4.0846 H   0  0  0  0  0  0  0  0  0  0  0  0
    3.4482    1.4004   -2.1181 H   0  0  0  0  0  0  0  0  0  0  0  0
    1.8764    2.6690    1.2172 H   0  0  0  0  0  0  0  0  0  0  0  0
   -1.3147    3.5541    1.6655 H   0  0  0  0  0  0  0  0  0  0  0  0
   -2.6429   -1.8549    1.7794 H   0  0  0  0  0  0  0  0  0  0  0  0
   -4.6234   -3.2628    1.4649 H   0  0  0  0  0  0  0  0  0  0  0  0
   -6.4885   -2.4940    0.0214 H   0  0  0  0  0  0  0  0  0  0  0  0
   -6.3313   -0.3359   -1.1533 H   0  0  0  0  0  0  0  0  0  0  0  0
   -4.8096    1.2703   -2.1639 H   0  0  0  0  0  0  0  0  0  0  0  0
   -4.8638    2.2364   -0.6774 H   0  0  0  0  0  0  0  0  0  0  0  0
   -3.3059    1.7450   -1.4051 H   0  0  0  0  0  0  0  0  0  0  0  0
  1  2  1  0
  2  3  2  3
  3  4  1  0
  4  5  1  0
  5  6  2  0
  6  7  1  0
  7  8  2  0
  8  9  1  0
  9 10  2  0
  2 11  1  0
 11 12  2  0
 12 13  1  0
 12 14  1  0
 14 15  1  0
 15 16  2  0
 15 17  1  0
 17 18  1  0
 18 19  2  0
 19 20  1  0
 20 21  2  0
 21 22  1  0
 22 23  2  0
 23 24  1  0
 17 25  1  0
 25 26  2  0
 10  5  1  0
 25 11  1  0
 23 18  1  0
  1 27  1  0
  1 28  1  0
  1 29  1  0
  4 30  1  0
  4 31  1  0
  6 32  1  0
  7 33  1  0
  8 34  1  0
 10 35  1  0
 13 36  1  0
 14 37  1  0
 19 38  1  0
 20 39  1  0
 21 40  1  0
 22 41  1  0
 24 42  1  0
 24 43  1  0
 24 44  1  0
M  END
$$$$
