
     RDKit          3D

 48 51  0  0  0  0  0  0  0  0999 V2000
   -0.8929   -1.1254    1.5902 O   0  0  0  0  0  0  0  0  0  0  0  0
    0.1550   -0.6179    1.1937 C   0  0  0  0  0  0  0  0  0  0  0  0
    1.5106   -0.9871    1.8134 C   0  0  0  0  0  0  0  0  0  0  0  0
    2.6404   -0.3298    1.1023 N   0  0  0  0  0  0  0  0  0  0  0  0
    3.2924    0.7882    1.7965 C   0  0  0  0  0  0  0  0  0  0  0  0
    4.5811    0.3357    2.4597 C   0  0  0  0  0  0  0  0  0  0  0  0
    5.5434   -0.1468    1.3834 C   0  0  0  0  0  0  0  0  0  0  0  0
    4.8718   -1.1034    0.4306 C   0  0  0  0  0  0  0  0  0  0  0  0
    5.6774   -1.9253   -0.3761 C   0  0  0  0  0  0  0  0  0  0  0  0
    5.1015   -2.8272   -1.2662 C   0  0  0  0  0  0  0  0  0  0  0  0
    3.7180   -2.9086   -1.3634 C   0  0  0  0  0  0  0  0  0  0  0  0
    2.9117   -2.0857   -0.5725 C   0  0  0  0  0  0  0  0  0  0  0  0
    3.4664   -1.1681    0.3362 C   0  0  0  0  0  0  0  0  0  0  0  0
    0.2753    0.3297    0.1786 N   0  0  0  0  0  0  0  0  0  0  0  0
   -0.7106    0.6875   -0.7029 N   0  0  0  0  0  0  0  0  0  0  0  0
   -1.9250    0.7788   -0.2479 C   0  0  0  0  0  0  0  0  0  0  0  0
   -3.0633    1.1201   -1.1407 C   0  0  0  0  0  0  0  0  0  0  0  0
   -2.8011    1.6324   -2.4238 C   0  0  0  0  0  0  0  0  0  0  0  0
   -1.5394    1.8004   -2.9314 O   0  0  0  0  0  0  0  0  0  0  0  0
   -3.8389    2.0153   -3.2612 C   0  0  0  0  0  0  0  0  0  0  0  0
   -5.1556    1.8868   -2.8304 C   0  0  0  0  0  0  0  0  0  0  0  0
   -5.4541    1.3624   -1.5639 C   0  0  0  0  0  0  0  0  0  0  0  0
   -6.7965    1.2358   -1.1699 C   0  0  0  0  0  0  0  0  0  0  0  0
   -7.1357    0.7038    0.0715 C   0  0  0  0  0  0  0  0  0  0  0  0
   -6.1347    0.2842    0.9342 C   0  0  0  0  0  0  0  0  0  0  0  0
   -4.7936    0.4057    0.5593 C   0  0  0  0  0  0  0  0  0  0  0  0
   -4.4084    0.9578   -0.6912 C   0  0  0  0  0  0  0  0  0  0  0  0
    1.4848   -0.6711    2.8630 H   0  0  0  0  0  0  0  0  0  0  0  0
    1.6036   -2.0797    1.8090 H   0  0  0  0  0  0  0  0  0  0  0  0
    2.6194    1.2264    2.5428 H   0  0  0  0  0  0  0  0  0  0  0  0
    3.4982    1.5843    1.0693 H   0  0  0  0  0  0  0  0  0  0  0  0
    5.0338    1.1597    3.0219 H   0  0  0  0  0  0  0  0  0  0  0  0
    4.3739   -0.4733    3.1717 H   0  0  0  0  0  0  0  0  0  0  0  0
    6.4013   -0.6311    1.8646 H   0  0  0  0  0  0  0  0  0  0  0  0
    5.9198    0.7083    0.8085 H   0  0  0  0  0  0  0  0  0  0  0  0
    6.7613   -1.8657   -0.3075 H   0  0  0  0  0  0  0  0  0  0  0  0
    5.7308   -3.4614   -1.8847 H   0  0  0  0  0  0  0  0  0  0  0  0
    3.2605   -3.6044   -2.0619 H   0  0  0  0  0  0  0  0  0  0  0  0
    1.8345   -2.1593   -0.6986 H   0  0  0  0  0  0  0  0  0  0  0  0
    1.2350    0.4309   -0.1652 H   0  0  0  0  0  0  0  0  0  0  0  0
   -2.1446    0.6533    0.8214 H   0  0  0  0  0  0  0  0  0  0  0  0
   -0.9091    1.4202   -2.2803 H   0  0  0  0  0  0  0  0  0  0  0  0
   -3.6218    2.4157   -4.2477 H   0  0  0  0  0  0  0  0  0  0  0  0
   -5.9537    2.1956   -3.5030 H   0  0  0  0  0  0  0  0  0  0  0  0
   -7.5977    1.5496   -1.8365 H   0  0  0  0  0  0  0  0  0  0  0  0
   -8.1798    0.6100    0.3580 H   0  0  0  0  0  0  0  0  0  0  0  0
   -6.3907   -0.1453    1.8997 H   0  0  0  0  0  0  0  0  0  0  0  0
   -4.0546    0.0378    1.2673 H   0  0  0  0  0  0  0  0  0  0  0  0
  1  2  2  0
  2  3  1  0
  3  4  1  0
  4  5  1  0
  5  6  1  0
  6  7  1  0
  7  8  1  0
  8  9  2  0
  9 10  1  0
 10 11  2  0
 11 12  1  0
 12 13  2  0
  2 14  1  0
 14 15  1  0
 15 16  2  3
 16 17  1  0
 17 18  2  0
 18 19  1  0
 18 20  1  0
 20 21  2  0
 21 22  1  0
 22 23  2  0
 23 24  1  0
 24 25  2  0
 25 26  1  0
 26 27  2  0
 13  4  1  0
 27 17  1  0
 13  8  1  0
 27 22  1  0
  3 28  1  0
  3 29  1  0
  5 30  1  0
  5 31  1  0
  6 32  1  0
  6 33  1  0
  7 34  1  0
  7 35  1  0
  9 36  1  0
 10 37  1  0
 11 38  1  0
 12 39  1  0
 14 40  1  0
 16 41  1  0
 19 42  1  0
 20 43  1  0
 21 44  1  0
 23 45  1  0
 24 46  1  0
 25 47  1  0
 26 48  1  0
M  END
$$$$
