
     RDKit          3D

 44 46  0  0  0  0  0  0  0  0999 V2000
   -2.5377    2.2553    1.0068 O   0  0  0  0  0  0  0  0  0  0  0  0
   -1.9852    1.1766    0.8071 C   0  0  0  0  0  0  0  0  0  0  0  0
   -0.5810    1.0756    0.2402 C   0  0  0  0  0  0  0  0  0  0  0  0
   -0.6459    0.3828   -1.4445 S   0  0  0  0  0  0  0  0  0  0  0  0
    1.0841    0.4062   -1.8524 C   0  0  0  0  0  0  0  0  0  0  0  0
    1.4884    0.1796   -3.1563 C   0  0  0  0  0  0  0  0  0  0  0  0
    2.8519    0.1880   -3.4535 C   0  0  0  0  0  0  0  0  0  0  0  0
    3.7733    0.4151   -2.4376 C   0  0  0  0  0  0  0  0  0  0  0  0
    5.2332    0.4480   -2.6445 C   0  0  0  0  0  0  0  0  0  0  0  0
    5.8675   -0.3341   -3.6287 C   0  0  0  0  0  0  0  0  0  0  0  0
    7.2535   -0.2876   -3.8145 C   0  0  0  0  0  0  0  0  0  0  0  0
    8.0376    0.5407   -3.0175 C   0  0  0  0  0  0  0  0  0  0  0  0
    7.4386    1.3179   -2.0313 C   0  0  0  0  0  0  0  0  0  0  0  0
    6.0534    1.2690   -1.8471 C   0  0  0  0  0  0  0  0  0  0  0  0
    3.3373    0.6329   -1.1748 N   0  0  0  0  0  0  0  0  0  0  0  0
    1.9898    0.6249   -0.8809 N   0  0  0  0  0  0  0  0  0  0  0  0
   -2.5705   -0.0403    1.1011 N   0  0  0  0  0  0  0  0  0  0  0  0
   -3.8708   -0.1383    1.7463 C   0  0  0  0  0  0  0  0  0  0  0  0
   -3.7344    0.0274    3.2655 C   0  0  0  0  0  0  0  0  0  0  0  0
   -5.0759   -0.1421    3.9737 C   0  0  0  0  0  0  0  0  0  0  0  0
   -5.7388   -1.4692    3.6159 C   0  0  0  0  0  0  0  0  0  0  0  0
   -5.8791   -1.6375    2.1060 C   0  0  0  0  0  0  0  0  0  0  0  0
   -4.5380   -1.4733    1.3961 C   0  0  0  0  0  0  0  0  0  0  0  0
    0.0178    0.4399    0.9011 H   0  0  0  0  0  0  0  0  0  0  0  0
   -0.1405    2.0778    0.2193 H   0  0  0  0  0  0  0  0  0  0  0  0
    0.7622    0.0052   -3.9441 H   0  0  0  0  0  0  0  0  0  0  0  0
    3.1720    0.0345   -4.4789 H   0  0  0  0  0  0  0  0  0  0  0  0
    5.2921   -1.0101   -4.2573 H   0  0  0  0  0  0  0  0  0  0  0  0
    7.7198   -0.9040   -4.5791 H   0  0  0  0  0  0  0  0  0  0  0  0
    9.1145    0.5764   -3.1597 H   0  0  0  0  0  0  0  0  0  0  0  0
    8.0456    1.9633   -1.4009 H   0  0  0  0  0  0  0  0  0  0  0  0
    5.6105    1.8889   -1.0680 H   0  0  0  0  0  0  0  0  0  0  0  0
   -2.0179   -0.8817    0.9846 H   0  0  0  0  0  0  0  0  0  0  0  0
   -4.4967    0.6781    1.3622 H   0  0  0  0  0  0  0  0  0  0  0  0
   -3.3205    1.0148    3.5037 H   0  0  0  0  0  0  0  0  0  0  0  0
   -3.0205   -0.7089    3.6573 H   0  0  0  0  0  0  0  0  0  0  0  0
   -4.9297   -0.0830    5.0583 H   0  0  0  0  0  0  0  0  0  0  0  0
   -5.7412    0.6845    3.6956 H   0  0  0  0  0  0  0  0  0  0  0  0
   -6.7266   -1.5266    4.0866 H   0  0  0  0  0  0  0  0  0  0  0  0
   -5.1425   -2.2960    4.0213 H   0  0  0  0  0  0  0  0  0  0  0  0
   -6.2965   -2.6259    1.8821 H   0  0  0  0  0  0  0  0  0  0  0  0
   -6.5893   -0.8955    1.7203 H   0  0  0  0  0  0  0  0  0  0  0  0
   -4.6866   -1.5433    0.3116 H   0  0  0  0  0  0  0  0  0  0  0  0
   -3.8773   -2.3060    1.6721 H   0  0  0  0  0  0  0  0  0  0  0  0
  1  2  2  0
  2  3  1  0
  3  4  1  0
  4  5  1  0
  5  6  2  0
  6  7  1  0
  7  8  2  0
  8  9  1  0
  9 10  2  0
 10 11  1  0
 11 12  2  0
 12 13  1  0
 13 14  2  0
  8 15  1  0
 15 16  2  0
  2 17  1  0
 17 18  1  0
 18 19  1  0
 19 20  1  0
 20 21  1  0
 21 22  1  0
 22 23  1  0
 16  5  1  0
 23 18  1  0
 14  9  1  0
  3 24  1  0
  3 25  1  0
  6 26  1  0
  7 27  1  0
 10 28  1  0
 11 29  1  0
 12 30  1  0
 13 31  1  0
 14 32  1  0
 17 33  1  0
 18 34  1  0
 19 35  1  0
 19 36  1  0
 20 37  1  0
 20 38  1  0
 21 39  1  0
 21 40  1  0
 22 41  1  0
 22 42  1  0
 23 43  1  0
 23 44  1  0
M  END
$$$$
