
     RDKit          3D

 49 51  0  0  0  0  0  0  0  0999 V2000
    6.9654   -1.2630    0.9161 C   0  0  0  0  0  0  0  0  0  0  0  0
    6.2645   -0.1923    0.2970 O   0  0  0  0  0  0  0  0  0  0  0  0
    4.8949   -0.2661    0.3117 C   0  0  0  0  0  0  0  0  0  0  0  0
    4.1635   -0.9955    1.2568 C   0  0  0  0  0  0  0  0  0  0  0  0
    2.7621   -1.0257    1.2060 C   0  0  0  0  0  0  0  0  0  0  0  0
    2.0814   -0.2984    0.2194 C   0  0  0  0  0  0  0  0  0  0  0  0
    2.8213    0.4466   -0.7200 C   0  0  0  0  0  0  0  0  0  0  0  0
    4.2199    0.4704   -0.6800 C   0  0  0  0  0  0  0  0  0  0  0  0
    5.0140    1.1696   -1.5570 O   0  0  0  0  0  0  0  0  0  0  0  0
    4.3735    1.8731   -2.6171 C   0  0  0  0  0  0  0  0  0  0  0  0
    0.5690   -0.2894    0.1356 C   0  0  0  0  0  0  0  0  0  0  0  0
   -0.1396   -1.0351    1.1955 N   0  0  0  0  0  0  0  0  0  0  0  0
   -1.5494   -0.9453    1.3543 C   0  0  0  0  0  0  0  0  0  0  0  0
   -2.4340   -1.9078    2.4212 S   0  0  0  0  0  0  0  0  0  0  0  0
   -2.1181    0.0697    0.5910 N   0  0  0  0  0  0  0  0  0  0  0  0
   -3.4276    0.1999    0.0572 C   0  0  0  0  0  0  0  0  0  0  0  0
   -4.2473   -0.9117   -0.1860 C   0  0  0  0  0  0  0  0  0  0  0  0
   -5.5185   -0.7664   -0.7500 C   0  0  0  0  0  0  0  0  0  0  0  0
   -5.9953    0.4963   -1.1011 C   0  0  0  0  0  0  0  0  0  0  0  0
   -7.3443    0.6390   -1.7400 C   0  0  0  0  0  0  0  0  0  0  0  0
   -5.1657    1.6085   -0.9068 C   0  0  0  0  0  0  0  0  0  0  0  0
   -3.8852    1.4789   -0.3297 C   0  0  0  0  0  0  0  0  0  0  0  0
   -3.0499    2.7245   -0.1577 C   0  0  0  0  0  0  0  0  0  0  0  0
    0.6109   -2.1982    1.7078 C   0  0  0  0  0  0  0  0  0  0  0  0
    1.9828   -1.7942    2.2408 C   0  0  0  0  0  0  0  0  0  0  0  0
    6.9142   -1.1812    2.0074 H   0  0  0  0  0  0  0  0  0  0  0  0
    8.0195   -1.1845    0.6271 H   0  0  0  0  0  0  0  0  0  0  0  0
    6.5977   -2.2382    0.5734 H   0  0  0  0  0  0  0  0  0  0  0  0
    4.6643   -1.5431    2.0510 H   0  0  0  0  0  0  0  0  0  0  0  0
    2.2776    1.0066   -1.4761 H   0  0  0  0  0  0  0  0  0  0  0  0
    3.8061    1.1883   -3.2603 H   0  0  0  0  0  0  0  0  0  0  0  0
    3.7377    2.6783   -2.2307 H   0  0  0  0  0  0  0  0  0  0  0  0
    5.1513    2.3302   -3.2356 H   0  0  0  0  0  0  0  0  0  0  0  0
    0.2622    0.7619    0.1660 H   0  0  0  0  0  0  0  0  0  0  0  0
    0.2592   -0.7189   -0.8288 H   0  0  0  0  0  0  0  0  0  0  0  0
   -1.5826    0.9262    0.5882 H   0  0  0  0  0  0  0  0  0  0  0  0
   -3.9091   -1.9226    0.0215 H   0  0  0  0  0  0  0  0  0  0  0  0
   -6.1287   -1.6541   -0.9178 H   0  0  0  0  0  0  0  0  0  0  0  0
   -7.2851    0.3804   -2.8036 H   0  0  0  0  0  0  0  0  0  0  0  0
   -7.7198    1.6642   -1.6481 H   0  0  0  0  0  0  0  0  0  0  0  0
   -8.0717   -0.0206   -1.2487 H   0  0  0  0  0  0  0  0  0  0  0  0
   -5.5213    2.5939   -1.2088 H   0  0  0  0  0  0  0  0  0  0  0  0
   -2.1525    2.6648   -0.7864 H   0  0  0  0  0  0  0  0  0  0  0  0
   -3.5984    3.6232   -0.4545 H   0  0  0  0  0  0  0  0  0  0  0  0
   -2.7599    2.8529    0.8919 H   0  0  0  0  0  0  0  0  0  0  0  0
    0.7117   -2.9032    0.8688 H   0  0  0  0  0  0  0  0  0  0  0  0
    0.0826   -2.7286    2.5050 H   0  0  0  0  0  0  0  0  0  0  0  0
    1.8685   -1.1635    3.1330 H   0  0  0  0  0  0  0  0  0  0  0  0
    2.5285   -2.7000    2.5338 H   0  0  0  0  0  0  0  0  0  0  0  0
  1  2  1  0
  2  3  1  0
  3  4  2  0
  4  5  1  0
  5  6  2  0
  6  7  1  0
  7  8  2  0
  8  9  1  0
  9 10  1  0
  6 11  1  0
 11 12  1  0
 12 13  1  0
 13 14  2  0
 13 15  1  0
 15 16  1  0
 16 17  2  0
 17 18  1  0
 18 19  2  0
 19 20  1  0
 19 21  1  0
 21 22  2  0
 22 23  1  0
 12 24  1  0
 24 25  1  0
  8  3  1  0
 22 16  1  0
 25  5  1  0
  1 26  1  0
  1 27  1  0
  1 28  1  0
  4 29  1  0
  7 30  1  0
 10 31  1  0
 10 32  1  0
 10 33  1  0
 11 34  1  0
 11 35  1  0
 15 36  1  0
 17 37  1  0
 18 38  1  0
 20 39  1  0
 20 40  1  0
 20 41  1  0
 21 42  1  0
 23 43  1  0
 23 44  1  0
 23 45  1  0
 24 46  1  0
 24 47  1  0
 25 48  1  0
 25 49  1  0
M  END
$$$$
