
     RDKit          3D

 43 45  0  0  0  0  0  0  0  0999 V2000
    6.5918   -2.6184   -0.3610 C   0  0  0  0  0  0  0  0  0  0  0  0
    5.2522   -2.3446   -0.7484 O   0  0  0  0  0  0  0  0  0  0  0  0
    4.6722   -1.2172   -0.2301 C   0  0  0  0  0  0  0  0  0  0  0  0
    5.2826   -0.3096    0.6334 C   0  0  0  0  0  0  0  0  0  0  0  0
    4.5949    0.8159    1.1056 C   0  0  0  0  0  0  0  0  0  0  0  0
    3.2747    1.0012    0.6815 C   0  0  0  0  0  0  0  0  0  0  0  0
    2.3805    1.9984    0.9858 N   0  0  0  0  0  0  0  0  0  0  0  0
    1.1936    1.7820    0.3403 C   0  0  0  0  0  0  0  0  0  0  0  0
    1.2973    0.6162   -0.4002 C   0  0  0  0  0  0  0  0  0  0  0  0
    0.2454    0.0202   -1.2345 C   0  0  0  0  0  0  0  0  0  0  0  0
    0.4120   -1.0650   -1.7983 O   0  0  0  0  0  0  0  0  0  0  0  0
   -1.0823    0.7667   -1.4152 C   0  0  0  0  0  0  0  0  0  0  0  0
   -1.9379    0.6983   -0.2083 N   0  0  0  0  0  0  0  0  0  0  0  0
   -2.2546   -0.6996    0.1415 C   0  0  0  0  0  0  0  0  0  0  0  0
   -3.4958   -0.8011    1.0266 C   0  0  0  0  0  0  0  0  0  0  0  0
   -4.7448   -0.3043    0.2815 C   0  0  0  0  0  0  0  0  0  0  0  0
   -5.8025    0.1748    1.2757 C   0  0  0  0  0  0  0  0  0  0  0  0
   -4.3920    0.7864   -0.7435 C   0  0  0  0  0  0  0  0  0  0  0  0
   -3.1292    1.5499   -0.3462 C   0  0  0  0  0  0  0  0  0  0  0  0
    2.6270    0.1172   -0.1819 C   0  0  0  0  0  0  0  0  0  0  0  0
    3.3477   -1.0079   -0.6390 C   0  0  0  0  0  0  0  0  0  0  0  0
    6.8991   -3.5463   -0.8530 H   0  0  0  0  0  0  0  0  0  0  0  0
    7.2692   -1.8253   -0.6945 H   0  0  0  0  0  0  0  0  0  0  0  0
    6.6666   -2.7748    0.7202 H   0  0  0  0  0  0  0  0  0  0  0  0
    6.3064   -0.4461    0.9666 H   0  0  0  0  0  0  0  0  0  0  0  0
    5.0781    1.5164    1.7792 H   0  0  0  0  0  0  0  0  0  0  0  0
    2.5756    2.7744    1.6036 H   0  0  0  0  0  0  0  0  0  0  0  0
    0.3683    2.4684    0.4784 H   0  0  0  0  0  0  0  0  0  0  0  0
   -1.6002    0.3457   -2.2867 H   0  0  0  0  0  0  0  0  0  0  0  0
   -0.8424    1.8075   -1.6654 H   0  0  0  0  0  0  0  0  0  0  0  0
   -1.4037   -1.1368    0.6765 H   0  0  0  0  0  0  0  0  0  0  0  0
   -2.4214   -1.3062   -0.7588 H   0  0  0  0  0  0  0  0  0  0  0  0
   -3.3327   -0.2232    1.9459 H   0  0  0  0  0  0  0  0  0  0  0  0
   -3.6470   -1.8413    1.3393 H   0  0  0  0  0  0  0  0  0  0  0  0
   -5.1786   -1.1477   -0.2722 H   0  0  0  0  0  0  0  0  0  0  0  0
   -6.7238    0.4578    0.7558 H   0  0  0  0  0  0  0  0  0  0  0  0
   -6.0514   -0.6180    1.9890 H   0  0  0  0  0  0  0  0  0  0  0  0
   -5.4533    1.0448    1.8419 H   0  0  0  0  0  0  0  0  0  0  0  0
   -4.2295    0.3189   -1.7237 H   0  0  0  0  0  0  0  0  0  0  0  0
   -5.2269    1.4847   -0.8749 H   0  0  0  0  0  0  0  0  0  0  0  0
   -3.3035    2.0371    0.6218 H   0  0  0  0  0  0  0  0  0  0  0  0
   -2.9563    2.3704   -1.0535 H   0  0  0  0  0  0  0  0  0  0  0  0
    2.8747   -1.7194   -1.3118 H   0  0  0  0  0  0  0  0  0  0  0  0
  1  2  1  0
  2  3  1  0
  3  4  2  0
  4  5  1  0
  5  6  2  0
  6  7  1  0
  7  8  1  0
  8  9  2  0
  9 10  1  0
 10 11  2  0
 10 12  1  0
 12 13  1  0
 13 14  1  0
 14 15  1  0
 15 16  1  0
 16 17  1  0
 16 18  1  0
 18 19  1  0
  9 20  1  0
 20 21  2  0
 21  3  1  0
 20  6  1  0
 19 13  1  0
  1 22  1  0
  1 23  1  0
  1 24  1  0
  4 25  1  0
  5 26  1  0
  7 27  1  0
  8 28  1  0
 12 29  1  0
 12 30  1  0
 14 31  1  0
 14 32  1  0
 15 33  1  0
 15 34  1  0
 16 35  1  0
 17 36  1  0
 17 37  1  0
 17 38  1  0
 18 39  1  0
 18 40  1  0
 19 41  1  0
 19 42  1  0
 21 43  1  0
M  END
$$$$
