
     RDKit          3D

 52 54  0  0  0  0  0  0  0  0999 V2000
    3.2327   -0.6865    1.0869 C   0  0  0  0  0  0  0  0  0  0  0  0
    1.9932   -1.1527    0.3312 C   0  0  0  0  0  0  0  0  0  0  0  0
    1.0682   -0.0275    0.0936 N   0  0  0  0  0  0  0  0  0  0  0  0
    1.1502    0.4681   -1.2942 C   0  0  0  0  0  0  0  0  0  0  0  0
    2.4208    1.2323   -1.5945 C   0  0  0  0  0  0  0  0  0  0  0  0
    3.3325    0.7555   -2.5471 C   0  0  0  0  0  0  0  0  0  0  0  0
    4.4982    1.4694   -2.8304 C   0  0  0  0  0  0  0  0  0  0  0  0
    4.7637    2.6659   -2.1666 C   0  0  0  0  0  0  0  0  0  0  0  0
    3.8654    3.1502   -1.2178 C   0  0  0  0  0  0  0  0  0  0  0  0
    2.6992    2.4384   -0.9333 C   0  0  0  0  0  0  0  0  0  0  0  0
   -0.3421   -0.3232    0.4740 C   0  0  0  0  0  0  0  0  0  0  0  0
   -0.4776   -0.5342    1.9878 C   0  0  0  0  0  0  0  0  0  0  0  0
   -0.2259    0.5438    2.8509 C   0  0  0  0  0  0  0  0  0  0  0  0
   -0.3549    0.3588    4.2181 C   0  0  0  0  0  0  0  0  0  0  0  0
   -0.7149   -0.8104    4.7847 N   0  0  0  0  0  0  0  0  0  0  0  0
   -0.9310   -1.8463    3.9480 C   0  0  0  0  0  0  0  0  0  0  0  0
   -0.8261   -1.7615    2.5675 C   0  0  0  0  0  0  0  0  0  0  0  0
   -1.0200   -1.3798   -0.3641 C   0  0  0  0  0  0  0  0  0  0  0  0
   -0.4686   -2.5146   -0.7643 N   0  0  0  0  0  0  0  0  0  0  0  0
   -1.4050   -3.1770   -1.4965 N   0  0  0  0  0  0  0  0  0  0  0  0
   -2.5250   -2.4832   -1.5612 N   0  0  0  0  0  0  0  0  0  0  0  0
   -2.3163   -1.3557   -0.8458 N   0  0  0  0  0  0  0  0  0  0  0  0
   -3.3929   -0.3570   -0.7568 C   0  0  0  0  0  0  0  0  0  0  0  0
   -4.7305   -0.9199   -1.3130 C   0  0  0  0  0  0  0  0  0  0  0  0
   -3.0390    0.8783   -1.6053 C   0  0  0  0  0  0  0  0  0  0  0  0
   -3.6762    0.0551    0.7002 C   0  0  0  0  0  0  0  0  0  0  0  0
    2.9611   -0.2023    2.0309 H   0  0  0  0  0  0  0  0  0  0  0  0
    3.8675   -1.5465    1.3252 H   0  0  0  0  0  0  0  0  0  0  0  0
    3.8359    0.0128    0.5031 H   0  0  0  0  0  0  0  0  0  0  0  0
    1.5368   -1.9391    0.9421 H   0  0  0  0  0  0  0  0  0  0  0  0
    2.2909   -1.6469   -0.6020 H   0  0  0  0  0  0  0  0  0  0  0  0
    1.0160   -0.3471   -2.0174 H   0  0  0  0  0  0  0  0  0  0  0  0
    0.3321    1.1742   -1.4914 H   0  0  0  0  0  0  0  0  0  0  0  0
    3.1427   -0.1788   -3.0708 H   0  0  0  0  0  0  0  0  0  0  0  0
    5.2009    1.0899   -3.5677 H   0  0  0  0  0  0  0  0  0  0  0  0
    5.6732    3.2187   -2.3862 H   0  0  0  0  0  0  0  0  0  0  0  0
    4.0752    4.0798   -0.6955 H   0  0  0  0  0  0  0  0  0  0  0  0
    2.0100    2.8187   -0.1832 H   0  0  0  0  0  0  0  0  0  0  0  0
   -0.8798    0.6140    0.2979 H   0  0  0  0  0  0  0  0  0  0  0  0
    0.0817    1.5106    2.4641 H   0  0  0  0  0  0  0  0  0  0  0  0
   -0.1631    1.1710    4.9135 H   0  0  0  0  0  0  0  0  0  0  0  0
   -1.1971   -2.7829    4.4304 H   0  0  0  0  0  0  0  0  0  0  0  0
   -1.0025   -2.6527    1.9726 H   0  0  0  0  0  0  0  0  0  0  0  0
   -5.5360   -0.1800   -1.2346 H   0  0  0  0  0  0  0  0  0  0  0  0
   -4.6475   -1.1914   -2.3721 H   0  0  0  0  0  0  0  0  0  0  0  0
   -5.0483   -1.8120   -0.7601 H   0  0  0  0  0  0  0  0  0  0  0  0
   -2.1541    1.4008   -1.2332 H   0  0  0  0  0  0  0  0  0  0  0  0
   -2.8359    0.5971   -2.6454 H   0  0  0  0  0  0  0  0  0  0  0  0
   -3.8614    1.6031   -1.6095 H   0  0  0  0  0  0  0  0  0  0  0  0
   -4.5970    0.6462    0.7719 H   0  0  0  0  0  0  0  0  0  0  0  0
   -2.8856    0.6797    1.1201 H   0  0  0  0  0  0  0  0  0  0  0  0
   -3.7942   -0.8230    1.3452 H   0  0  0  0  0  0  0  0  0  0  0  0
  1  2  1  0
  2  3  1  0
  3  4  1  0
  4  5  1  0
  5  6  2  0
  6  7  1  0
  7  8  2  0
  8  9  1  0
  9 10  2  0
  3 11  1  0
 11 12  1  0
 12 13  2  0
 13 14  1  0
 14 15  2  0
 15 16  1  0
 16 17  2  0
 11 18  1  0
 18 19  2  0
 19 20  1  0
 20 21  2  0
 21 22  1  0
 22 23  1  0
 23 24  1  0
 23 25  1  0
 23 26  1  0
 10  5  1  0
 17 12  1  0
 22 18  1  0
  1 27  1  0
  1 28  1  0
  1 29  1  0
  2 30  1  0
  2 31  1  0
  4 32  1  0
  4 33  1  0
  6 34  1  0
  7 35  1  0
  8 36  1  0
  9 37  1  0
 10 38  1  0
 11 39  1  0
 13 40  1  0
 14 41  1  0
 16 42  1  0
 17 43  1  0
 24 44  1  0
 24 45  1  0
 24 46  1  0
 25 47  1  0
 25 48  1  0
 25 49  1  0
 26 50  1  0
 26 51  1  0
 26 52  1  0
M  END
$$$$
