
     RDKit          3D

 64 68  0  0  0  0  0  0  0  0999 V2000
   -4.4435    0.1330   -4.2920 C   0  0  0  0  0  0  0  0  0  0  0  0
   -4.7086   -0.6683   -3.0039 C   0  0  0  0  0  0  0  0  0  0  0  0
   -4.8253    0.3273   -1.8402 C   0  0  0  0  0  0  0  0  0  0  0  0
   -6.0274   -1.4395   -3.1574 C   0  0  0  0  0  0  0  0  0  0  0  0
   -3.5627   -1.6917   -2.8386 C   0  0  0  0  0  0  0  0  0  0  0  0
   -3.1152   -2.3262   -3.7967 O   0  0  0  0  0  0  0  0  0  0  0  0
   -3.0086   -1.9886   -1.4862 C   0  0  0  0  0  0  0  0  0  0  0  0
   -3.8858   -2.6970   -0.6232 C   0  0  0  0  0  0  0  0  0  0  0  0
   -4.6456   -3.2349    0.0686 N   0  0  0  0  0  0  0  0  0  0  0  0
   -1.7802   -1.5336   -1.1484 C   0  0  0  0  0  0  0  0  0  0  0  0
   -0.9121   -0.4043   -2.1709 S   0  0  0  0  0  0  0  0  0  0  0  0
    0.1480    0.0439   -0.8843 C   0  0  0  0  0  0  0  0  0  0  0  0
    1.0257    1.0518   -1.0105 C   0  0  0  0  0  0  0  0  0  0  0  0
    1.9306    1.5503   -0.0293 C   0  0  0  0  0  0  0  0  0  0  0  0
    1.5543    2.1384    1.1547 C   0  0  0  0  0  0  0  0  0  0  0  0
    2.7074    2.5542    1.7788 N   0  0  0  0  0  0  0  0  0  0  0  0
    2.8341    3.2131    3.0348 C   0  0  0  0  0  0  0  0  0  0  0  0
    4.1066    3.5969    3.4868 C   0  0  0  0  0  0  0  0  0  0  0  0
    4.2519    4.2527    4.7110 C   0  0  0  0  0  0  0  0  0  0  0  0
    3.1318    4.5274    5.4926 C   0  0  0  0  0  0  0  0  0  0  0  0
    1.8653    4.1464    5.0527 C   0  0  0  0  0  0  0  0  0  0  0  0
    1.7116    3.4900    3.8282 C   0  0  0  0  0  0  0  0  0  0  0  0
    3.7998    2.3000    1.0151 N   0  0  0  0  0  0  0  0  0  0  0  0
    3.3478    1.6525   -0.0699 C   0  0  0  0  0  0  0  0  0  0  0  0
    4.2820    1.1828   -1.0896 C   0  0  0  0  0  0  0  0  0  0  0  0
    5.4291    1.9153   -1.4100 C   0  0  0  0  0  0  0  0  0  0  0  0
    6.3066    1.4444   -2.3853 C   0  0  0  0  0  0  0  0  0  0  0  0
    6.0092    0.2467   -3.0133 C   0  0  0  0  0  0  0  0  0  0  0  0
    4.9182   -0.4964   -2.7304 N   0  0  0  0  0  0  0  0  0  0  0  0
    4.0903   -0.0170   -1.7678 C   0  0  0  0  0  0  0  0  0  0  0  0
   -0.0242   -0.8547    0.2929 C   0  0  0  0  0  0  0  0  0  0  0  0
    0.7102   -0.8267    1.2708 O   0  0  0  0  0  0  0  0  0  0  0  0
   -1.0936   -1.7418    0.0528 N   0  0  0  0  0  0  0  0  0  0  0  0
   -1.2390   -2.8696    0.9248 C   0  0  0  0  0  0  0  0  0  0  0  0
   -1.3833   -4.1640    0.3944 C   0  0  0  0  0  0  0  0  0  0  0  0
   -1.4997   -5.2699    1.2406 C   0  0  0  0  0  0  0  0  0  0  0  0
   -1.4617   -5.0888    2.6160 C   0  0  0  0  0  0  0  0  0  0  0  0
   -1.5654   -6.1517    3.4250 F   0  0  0  0  0  0  0  0  0  0  0  0
   -1.3000   -3.8233    3.1630 C   0  0  0  0  0  0  0  0  0  0  0  0
   -1.1807   -2.7162    2.3187 C   0  0  0  0  0  0  0  0  0  0  0  0
   -5.2034    0.9072   -4.4412 H   0  0  0  0  0  0  0  0  0  0  0  0
   -4.4505   -0.5129   -5.1771 H   0  0  0  0  0  0  0  0  0  0  0  0
   -3.4656    0.6253   -4.2566 H   0  0  0  0  0  0  0  0  0  0  0  0
   -3.8854    0.8637   -1.6772 H   0  0  0  0  0  0  0  0  0  0  0  0
   -5.0955   -0.1655   -0.9009 H   0  0  0  0  0  0  0  0  0  0  0  0
   -5.6003    1.0772   -2.0410 H   0  0  0  0  0  0  0  0  0  0  0  0
   -6.8646   -0.7593   -3.3529 H   0  0  0  0  0  0  0  0  0  0  0  0
   -6.2668   -2.0101   -2.2529 H   0  0  0  0  0  0  0  0  0  0  0  0
   -5.9754   -2.1549   -3.9870 H   0  0  0  0  0  0  0  0  0  0  0  0
    1.0735    1.5718   -1.9682 H   0  0  0  0  0  0  0  0  0  0  0  0
    0.5795    2.2898    1.5897 H   0  0  0  0  0  0  0  0  0  0  0  0
    4.9971    3.3894    2.8954 H   0  0  0  0  0  0  0  0  0  0  0  0
    5.2416    4.5446    5.0535 H   0  0  0  0  0  0  0  0  0  0  0  0
    3.2447    5.0357    6.4474 H   0  0  0  0  0  0  0  0  0  0  0  0
    0.9952    4.3582    5.6691 H   0  0  0  0  0  0  0  0  0  0  0  0
    0.7074    3.2071    3.5305 H   0  0  0  0  0  0  0  0  0  0  0  0
    5.6440    2.8500   -0.8972 H   0  0  0  0  0  0  0  0  0  0  0  0
    7.2017    1.9985   -2.6440 H   0  0  0  0  0  0  0  0  0  0  0  0
    6.6632   -0.1607   -3.7788 H   0  0  0  0  0  0  0  0  0  0  0  0
    3.2505   -0.6684   -1.5491 H   0  0  0  0  0  0  0  0  0  0  0  0
   -1.3695   -4.3401   -0.6790 H   0  0  0  0  0  0  0  0  0  0  0  0
   -1.6063   -6.2715    0.8341 H   0  0  0  0  0  0  0  0  0  0  0  0
   -1.2594   -3.7045    4.2416 H   0  0  0  0  0  0  0  0  0  0  0  0
   -1.0541   -1.7340    2.7676 H   0  0  0  0  0  0  0  0  0  0  0  0
  1  2  1  0
  2  3  1  0
  2  4  1  0
  2  5  1  0
  5  6  2  0
  5  7  1  0
  7  8  1  0
  8  9  3  0
  7 10  2  3
 10 11  1  0
 11 12  1  0
 12 13  2  3
 13 14  1  0
 14 15  2  0
 15 16  1  0
 16 17  1  0
 17 18  2  0
 18 19  1  0
 19 20  2  0
 20 21  1  0
 21 22  2  0
 16 23  1  0
 23 24  2  0
 24 25  1  0
 25 26  2  0
 26 27  1  0
 27 28  2  0
 28 29  1  0
 29 30  2  0
 12 31  1  0
 31 32  2  0
 31 33  1  0
 33 34  1  0
 34 35  2  0
 35 36  1  0
 36 37  2  0
 37 38  1  0
 37 39  1  0
 39 40  2  0
 33 10  1  0
 40 34  1  0
 24 14  1  0
 30 25  1  0
 22 17  1  0
  1 41  1  0
  1 42  1  0
  1 43  1  0
  3 44  1  0
  3 45  1  0
  3 46  1  0
  4 47  1  0
  4 48  1  0
  4 49  1  0
 13 50  1  0
 15 51  1  0
 18 52  1  0
 19 53  1  0
 20 54  1  0
 21 55  1  0
 22 56  1  0
 26 57  1  0
 27 58  1  0
 28 59  1  0
 30 60  1  0
 35 61  1  0
 36 62  1  0
 39 63  1  0
 40 64  1  0
M  END
$$$$
