
     RDKit          3D

 57 60  0  0  0  0  0  0  0  0999 V2000
    4.5921    0.7668   -2.0245 O   0  0  0  0  0  0  0  0  0  0  0  0
    4.0814    1.5298   -0.9081 S   0  0  0  0  0  6  0  0  0  0  0  0
    3.7797    2.9393   -1.0222 O   0  0  0  0  0  0  0  0  0  0  0  0
    5.1408    1.3740    0.3788 N   0  0  0  0  0  0  0  0  0  0  0  0
    5.8838    0.1320    0.5636 C   0  0  0  0  0  0  0  0  0  0  0  0
    7.2160    0.1559   -0.1790 C   0  0  0  0  0  0  0  0  0  0  0  0
    8.1579   -0.7282    0.6403 C   0  0  0  0  0  0  0  0  0  0  0  0
    7.4284   -1.0409    1.9442 C   0  0  0  0  0  0  0  0  0  0  0  0
    6.3035   -0.0212    2.0200 C   0  0  0  0  0  0  0  0  0  0  0  0
    2.6267    0.7226   -0.2838 C   0  0  0  0  0  0  0  0  0  0  0  0
    1.8002    1.4062    0.6159 C   0  0  0  0  0  0  0  0  0  0  0  0
    0.6452    0.7874    1.0938 C   0  0  0  0  0  0  0  0  0  0  0  0
    0.3231   -0.5029    0.6563 C   0  0  0  0  0  0  0  0  0  0  0  0
   -1.1517   -1.2738    1.2773 S   0  0  0  0  0  6  0  0  0  0  0  0
   -1.1785   -1.0546    2.7075 O   0  0  0  0  0  0  0  0  0  0  0  0
   -1.2454   -2.6079    0.7237 O   0  0  0  0  0  0  0  0  0  0  0  0
   -2.3924   -0.3399    0.5715 N   0  0  0  0  0  0  0  0  0  0  0  0
   -2.4045   -0.3346   -0.9351 C   0  0  0  0  0  0  0  0  0  0  0  0
   -3.7377    0.1913   -1.5004 C   0  0  0  0  0  0  0  0  0  0  0  0
   -4.8885   -0.6365   -1.0590 N   0  0  0  0  0  0  0  0  0  0  0  0
   -6.1234   -0.0065   -1.2703 C   0  0  0  0  0  0  0  0  0  0  0  0
   -6.5149    0.3148   -2.5819 C   0  0  0  0  0  0  0  0  0  0  0  0
   -7.7313    0.9492   -2.8536 C   0  0  0  0  0  0  0  0  0  0  0  0
   -8.5891    1.2795   -1.8112 C   0  0  0  0  0  0  0  0  0  0  0  0
   -8.2282    0.9720   -0.5034 C   0  0  0  0  0  0  0  0  0  0  0  0
   -7.0095    0.3346   -0.2387 C   0  0  0  0  0  0  0  0  0  0  0  0
   -4.6543   -1.4002    0.1847 C   0  0  0  0  0  0  0  0  0  0  0  0
   -3.7544   -0.6211    1.1569 C   0  0  0  0  0  0  0  0  0  0  0  0
    1.1471   -1.1866   -0.2441 C   0  0  0  0  0  0  0  0  0  0  0  0
    2.3023   -0.5665   -0.7229 C   0  0  0  0  0  0  0  0  0  0  0  0
    5.5562    2.2558    0.6769 H   0  0  0  0  0  0  0  0  0  0  0  0
    5.2887   -0.7388    0.2653 H   0  0  0  0  0  0  0  0  0  0  0  0
    7.6243    1.1736   -0.2349 H   0  0  0  0  0  0  0  0  0  0  0  0
    7.1164   -0.2065   -1.2078 H   0  0  0  0  0  0  0  0  0  0  0  0
    8.4070   -1.6510    0.1052 H   0  0  0  0  0  0  0  0  0  0  0  0
    9.0973   -0.1989    0.8346 H   0  0  0  0  0  0  0  0  0  0  0  0
    7.0113   -2.0542    1.8997 H   0  0  0  0  0  0  0  0  0  0  0  0
    8.0924   -0.9920    2.8123 H   0  0  0  0  0  0  0  0  0  0  0  0
    5.4799   -0.3592    2.6569 H   0  0  0  0  0  0  0  0  0  0  0  0
    6.6779    0.9252    2.4314 H   0  0  0  0  0  0  0  0  0  0  0  0
    2.0522    2.4126    0.9445 H   0  0  0  0  0  0  0  0  0  0  0  0
   -0.0005    1.3079    1.7989 H   0  0  0  0  0  0  0  0  0  0  0  0
   -2.2266   -1.3454   -1.3196 H   0  0  0  0  0  0  0  0  0  0  0  0
   -1.5972    0.3160   -1.2877 H   0  0  0  0  0  0  0  0  0  0  0  0
   -3.8713    1.2308   -1.1698 H   0  0  0  0  0  0  0  0  0  0  0  0
   -3.6748    0.1878   -2.5948 H   0  0  0  0  0  0  0  0  0  0  0  0
   -5.8748    0.0438   -3.4180 H   0  0  0  0  0  0  0  0  0  0  0  0
   -8.0065    1.1759   -3.8800 H   0  0  0  0  0  0  0  0  0  0  0  0
   -9.5359    1.7715   -2.0169 H   0  0  0  0  0  0  0  0  0  0  0  0
   -8.8926    1.2298    0.3173 H   0  0  0  0  0  0  0  0  0  0  0  0
   -6.7658    0.1375    0.8002 H   0  0  0  0  0  0  0  0  0  0  0  0
   -5.5870   -1.7013    0.6742 H   0  0  0  0  0  0  0  0  0  0  0  0
   -4.1571   -2.3393   -0.0912 H   0  0  0  0  0  0  0  0  0  0  0  0
   -4.2047    0.3470    1.4080 H   0  0  0  0  0  0  0  0  0  0  0  0
   -3.6722   -1.1796    2.0954 H   0  0  0  0  0  0  0  0  0  0  0  0
    0.8978   -2.1925   -0.5763 H   0  0  0  0  0  0  0  0  0  0  0  0
    2.9416   -1.0906   -1.4309 H   0  0  0  0  0  0  0  0  0  0  0  0
  1  2  2  0
  2  3  2  0
  2  4  1  0
  4  5  1  0
  5  6  1  0
  6  7  1  0
  7  8  1  0
  8  9  1  0
  2 10  1  0
 10 11  2  0
 11 12  1  0
 12 13  2  0
 13 14  1  0
 14 15  2  0
 14 16  2  0
 14 17  1  0
 17 18  1  0
 18 19  1  0
 19 20  1  0
 20 21  1  0
 21 22  2  0
 22 23  1  0
 23 24  2  0
 24 25  1  0
 25 26  2  0
 20 27  1  0
 27 28  1  0
 13 29  1  0
 29 30  2  0
  9  5  1  0
 30 10  1  0
 28 17  1  0
 26 21  1  0
  4 31  1  0
  5 32  1  0
  6 33  1  0
  6 34  1  0
  7 35  1  0
  7 36  1  0
  8 37  1  0
  8 38  1  0
  9 39  1  0
  9 40  1  0
 11 41  1  0
 12 42  1  0
 18 43  1  0
 18 44  1  0
 19 45  1  0
 19 46  1  0
 22 47  1  0
 23 48  1  0
 24 49  1  0
 25 50  1  0
 26 51  1  0
 27 52  1  0
 27 53  1  0
 28 54  1  0
 28 55  1  0
 29 56  1  0
 30 57  1  0
M  END
$$$$
