
     RDKit          3D

 40 41  0  0  0  0  0  0  0  0999 V2000
    6.6171    0.1034   -0.3735 C   0  0  0  0  0  0  0  0  0  0  0  0
    5.2218   -0.4939   -0.4044 C   0  0  0  0  0  0  0  0  0  0  0  0
    4.4365    0.1714    0.5835 O   0  0  0  0  0  0  0  0  0  0  0  0
    3.1408   -0.2390    0.7321 C   0  0  0  0  0  0  0  0  0  0  0  0
    2.4991   -1.2231   -0.0231 C   0  0  0  0  0  0  0  0  0  0  0  0
    1.1622   -1.5461    0.2330 C   0  0  0  0  0  0  0  0  0  0  0  0
    0.4634   -0.8699    1.2371 C   0  0  0  0  0  0  0  0  0  0  0  0
   -1.2295   -1.3071    1.5847 S   0  0  0  0  0  6  0  0  0  0  0  0
   -1.4222   -2.6720    1.1409 O   0  0  0  0  0  0  0  0  0  0  0  0
   -1.5056   -0.9206    2.9526 O   0  0  0  0  0  0  0  0  0  0  0  0
   -2.1124   -0.2811    0.5548 N   0  0  0  0  0  0  0  0  0  0  0  0
   -2.2089    1.1442    0.9601 C   0  0  0  0  0  0  0  0  0  0  0  0
   -2.9371    2.0299   -0.0521 C   0  0  0  0  0  0  0  0  0  0  0  0
   -4.3592    1.5954   -0.4003 C   0  0  0  0  0  0  0  0  0  0  0  0
   -4.5664    0.1072   -0.6743 C   0  0  0  0  0  0  0  0  0  0  0  0
   -3.4688   -0.5693   -1.4975 C   0  0  0  0  0  0  0  0  0  0  0  0
   -2.0591   -0.5487   -0.8948 C   0  0  0  0  0  0  0  0  0  0  0  0
    1.1046    0.0957    2.0151 C   0  0  0  0  0  0  0  0  0  0  0  0
    2.4382    0.4132    1.7509 C   0  0  0  0  0  0  0  0  0  0  0  0
    7.0673   -0.0196    0.6171 H   0  0  0  0  0  0  0  0  0  0  0  0
    7.2622   -0.3740   -1.1165 H   0  0  0  0  0  0  0  0  0  0  0  0
    6.5806    1.1791   -0.5757 H   0  0  0  0  0  0  0  0  0  0  0  0
    5.2862   -1.5653   -0.1819 H   0  0  0  0  0  0  0  0  0  0  0  0
    4.7891   -0.3407   -1.3998 H   0  0  0  0  0  0  0  0  0  0  0  0
    3.0120   -1.7638   -0.8119 H   0  0  0  0  0  0  0  0  0  0  0  0
    0.6798   -2.3298   -0.3471 H   0  0  0  0  0  0  0  0  0  0  0  0
   -1.2052    1.5553    1.1056 H   0  0  0  0  0  0  0  0  0  0  0  0
   -2.7413    1.1992    1.9165 H   0  0  0  0  0  0  0  0  0  0  0  0
   -2.9786    3.0512    0.3478 H   0  0  0  0  0  0  0  0  0  0  0  0
   -2.3506    2.1111   -0.9749 H   0  0  0  0  0  0  0  0  0  0  0  0
   -4.6817    2.1663   -1.2802 H   0  0  0  0  0  0  0  0  0  0  0  0
   -5.0338    1.8908    0.4131 H   0  0  0  0  0  0  0  0  0  0  0  0
   -5.5247   -0.0187   -1.1939 H   0  0  0  0  0  0  0  0  0  0  0  0
   -4.6840   -0.4229    0.2796 H   0  0  0  0  0  0  0  0  0  0  0  0
   -3.7639   -1.6180   -1.6353 H   0  0  0  0  0  0  0  0  0  0  0  0
   -3.4342   -0.1363   -2.5046 H   0  0  0  0  0  0  0  0  0  0  0  0
   -1.4265    0.1928   -1.3950 H   0  0  0  0  0  0  0  0  0  0  0  0
   -1.5899   -1.5144   -1.1102 H   0  0  0  0  0  0  0  0  0  0  0  0
    0.5817    0.5991    2.8250 H   0  0  0  0  0  0  0  0  0  0  0  0
    2.9409    1.1689    2.3508 H   0  0  0  0  0  0  0  0  0  0  0  0
  1  2  1  0
  2  3  1  0
  3  4  1  0
  4  5  2  0
  5  6  1  0
  6  7  2  0
  7  8  1  0
  8  9  2  0
  8 10  2  0
  8 11  1  0
 11 12  1  0
 12 13  1  0
 13 14  1  0
 14 15  1  0
 15 16  1  0
 16 17  1  0
  7 18  1  0
 18 19  2  0
 19  4  1  0
 17 11  1  0
  1 20  1  0
  1 21  1  0
  1 22  1  0
  2 23  1  0
  2 24  1  0
  5 25  1  0
  6 26  1  0
 12 27  1  0
 12 28  1  0
 13 29  1  0
 13 30  1  0
 14 31  1  0
 14 32  1  0
 15 33  1  0
 15 34  1  0
 16 35  1  0
 16 36  1  0
 17 37  1  0
 17 38  1  0
 18 39  1  0
 19 40  1  0
M  END
$$$$
