
     RDKit          3D

 46 49  0  0  0  0  0  0  0  0999 V2000
    6.0790    2.4117   -1.4491 C   0  0  0  0  0  0  0  0  0  0  0  0
    5.8559    1.0565   -0.8389 C   0  0  0  0  0  0  0  0  0  0  0  0
    4.4311    0.7002   -0.5818 C   0  0  0  0  0  0  0  0  0  0  0  0
    3.4731    1.5677   -0.6546 N   0  0  0  0  0  0  0  0  0  0  0  0
    2.2277    1.0746   -0.4044 N   0  0  0  0  0  0  0  0  0  0  0  0
    1.1035    1.8836   -0.4409 C   0  0  0  0  0  0  0  0  0  0  0  0
    1.0888    3.0876   -0.6795 O   0  0  0  0  0  0  0  0  0  0  0  0
   -0.1241    1.1240   -0.1505 C   0  0  0  0  0  0  0  0  0  0  0  0
   -1.4487    1.6284   -0.1090 C   0  0  0  0  0  0  0  0  0  0  0  0
   -2.2622    0.5539    0.1906 C   0  0  0  0  0  0  0  0  0  0  0  0
   -3.7080    0.4552    0.3778 C   0  0  0  0  0  0  0  0  0  0  0  0
   -4.4218    1.5323    0.9136 C   0  0  0  0  0  0  0  0  0  0  0  0
   -5.8040    1.4494    1.1054 C   0  0  0  0  0  0  0  0  0  0  0  0
   -6.5069    0.2870    0.7600 C   0  0  0  0  0  0  0  0  0  0  0  0
   -7.8952    0.1886    0.9461 C   0  0  0  0  0  0  0  0  0  0  0  0
   -8.5812   -0.9738    0.5916 C   0  0  0  0  0  0  0  0  0  0  0  0
   -7.8888   -2.0505    0.0462 C   0  0  0  0  0  0  0  0  0  0  0  0
   -6.5084   -1.9678   -0.1445 C   0  0  0  0  0  0  0  0  0  0  0  0
   -5.8018   -0.8061    0.2093 C   0  0  0  0  0  0  0  0  0  0  0  0
   -4.4102   -0.7070    0.0244 C   0  0  0  0  0  0  0  0  0  0  0  0
   -1.3991   -0.5021    0.3292 N   0  0  0  0  0  0  0  0  0  0  0  0
   -0.1045   -0.1985    0.1208 N   0  0  0  0  0  0  0  0  0  0  0  0
    6.8787    0.2179   -0.5954 C   0  0  0  0  0  0  0  0  0  0  0  0
    6.7822   -1.0578    0.0221 C   0  0  0  0  0  0  0  0  0  0  0  0
    6.1302   -1.4595    1.1843 C   0  0  0  0  0  0  0  0  0  0  0  0
    6.3810   -2.8394    1.3720 C   0  0  0  0  0  0  0  0  0  0  0  0
    7.1904   -3.2155    0.3319 C   0  0  0  0  0  0  0  0  0  0  0  0
    7.4481   -2.1569   -0.4726 O   0  0  0  0  0  0  0  0  0  0  0  0
    5.5253    2.5072   -2.3891 H   0  0  0  0  0  0  0  0  0  0  0  0
    7.1361    2.5926   -1.6720 H   0  0  0  0  0  0  0  0  0  0  0  0
    5.7486    3.2002   -0.7647 H   0  0  0  0  0  0  0  0  0  0  0  0
    4.2234   -0.3541   -0.3352 H   0  0  0  0  0  0  0  0  0  0  0  0
    2.0746    0.0896   -0.1979 H   0  0  0  0  0  0  0  0  0  0  0  0
   -1.7524    2.6510   -0.2906 H   0  0  0  0  0  0  0  0  0  0  0  0
   -3.9097    2.4485    1.1998 H   0  0  0  0  0  0  0  0  0  0  0  0
   -6.3272    2.3043    1.5284 H   0  0  0  0  0  0  0  0  0  0  0  0
   -8.4541    1.0208    1.3683 H   0  0  0  0  0  0  0  0  0  0  0  0
   -9.6562   -1.0362    0.7398 H   0  0  0  0  0  0  0  0  0  0  0  0
   -8.4227   -2.9553   -0.2327 H   0  0  0  0  0  0  0  0  0  0  0  0
   -5.9878   -2.8205   -0.5745 H   0  0  0  0  0  0  0  0  0  0  0  0
   -3.8825   -1.5460   -0.4230 H   0  0  0  0  0  0  0  0  0  0  0  0
   -1.6332   -1.4565    0.5797 H   0  0  0  0  0  0  0  0  0  0  0  0
    7.8833    0.5095   -0.8925 H   0  0  0  0  0  0  0  0  0  0  0  0
    5.5480   -0.8167    1.8313 H   0  0  0  0  0  0  0  0  0  0  0  0
    6.0281   -3.4744    2.1722 H   0  0  0  0  0  0  0  0  0  0  0  0
    7.6536   -4.1478    0.0402 H   0  0  0  0  0  0  0  0  0  0  0  0
  1  2  1  0
  2  3  1  0
  3  4  2  3
  4  5  1  0
  5  6  1  0
  6  7  2  0
  6  8  1  0
  8  9  1  0
  9 10  2  0
 10 11  1  0
 11 12  2  0
 12 13  1  0
 13 14  2  0
 14 15  1  0
 15 16  2  0
 16 17  1  0
 17 18  2  0
 18 19  1  0
 19 20  2  0
 10 21  1  0
 21 22  1  0
  2 23  2  3
 23 24  1  0
 24 25  2  0
 25 26  1  0
 26 27  2  0
 27 28  1  0
 22  8  2  0
 28 24  1  0
 20 11  1  0
 19 14  1  0
  1 29  1  0
  1 30  1  0
  1 31  1  0
  3 32  1  0
  5 33  1  0
  9 34  1  0
 12 35  1  0
 13 36  1  0
 15 37  1  0
 16 38  1  0
 17 39  1  0
 18 40  1  0
 20 41  1  0
 21 42  1  0
 23 43  1  0
 25 44  1  0
 26 45  1  0
 27 46  1  0
M  END
$$$$
