
     RDKit          3D

 54 57  0  0  0  0  0  0  0  0999 V2000
   -2.9992    5.4808   -1.3894 C   0  0  0  0  0  0  0  0  0  0  0  0
   -3.1483    5.0012   -0.0589 O   0  0  0  0  0  0  0  0  0  0  0  0
   -2.4844    3.8484    0.2582 C   0  0  0  0  0  0  0  0  0  0  0  0
   -1.6508    3.1209   -0.5890 C   0  0  0  0  0  0  0  0  0  0  0  0
   -1.0296    1.9525   -0.1329 C   0  0  0  0  0  0  0  0  0  0  0  0
   -1.2364    1.4860    1.1747 C   0  0  0  0  0  0  0  0  0  0  0  0
   -0.5542    0.2337    1.7063 C   0  0  0  0  0  0  0  0  0  0  0  0
    0.8643    0.5471    2.1863 C   0  0  0  0  0  0  0  0  0  0  0  0
    1.6703   -0.1693    1.1379 C   0  0  0  0  0  0  0  0  0  0  0  0
    3.1435   -0.0336    1.0579 C   0  0  0  0  0  0  0  0  0  0  0  0
    3.8605    0.7111    1.9985 C   0  0  0  0  0  0  0  0  0  0  0  0
    5.2483    0.8170    1.8895 C   0  0  0  0  0  0  0  0  0  0  0  0
    5.9256    0.1816    0.8450 C   0  0  0  0  0  0  0  0  0  0  0  0
    5.2181   -0.5655   -0.0970 C   0  0  0  0  0  0  0  0  0  0  0  0
    5.7573   -1.2330   -1.1618 O   0  0  0  0  0  0  0  0  0  0  0  0
    7.1697   -1.1740   -1.3138 C   0  0  0  0  0  0  0  0  0  0  0  0
    3.8286   -0.6695    0.0149 C   0  0  0  0  0  0  0  0  0  0  0  0
    0.9822   -0.9284    0.3403 N   0  0  0  0  0  0  0  0  0  0  0  0
   -0.3328   -0.7896    0.6825 N   0  0  0  0  0  0  0  0  0  0  0  0
   -1.3046   -1.6272    0.1376 C   0  0  0  0  0  0  0  0  0  0  0  0
   -2.6631   -1.5332    0.4851 C   0  0  0  0  0  0  0  0  0  0  0  0
   -3.6279   -2.3806   -0.0747 C   0  0  0  0  0  0  0  0  0  0  0  0
   -3.2433   -3.3415   -1.0078 C   0  0  0  0  0  0  0  0  0  0  0  0
   -4.4494   -4.4333   -1.6951 S   0  0  0  0  0  6  0  0  0  0  0  0
   -4.9102   -3.6136   -3.0860 N   0  0  0  0  0  0  0  0  0  0  0  0
   -3.8015   -5.6434   -2.1447 O   0  0  0  0  0  0  0  0  0  0  0  0
   -5.6169   -4.4527   -0.8444 O   0  0  0  0  0  0  0  0  0  0  0  0
   -1.9049   -3.4734   -1.3678 C   0  0  0  0  0  0  0  0  0  0  0  0
   -0.9546   -2.6173   -0.8004 C   0  0  0  0  0  0  0  0  0  0  0  0
   -2.0706    2.2305    2.0215 C   0  0  0  0  0  0  0  0  0  0  0  0
   -2.6879    3.3976    1.5636 C   0  0  0  0  0  0  0  0  0  0  0  0
   -3.3777    4.7545   -2.1164 H   0  0  0  0  0  0  0  0  0  0  0  0
   -1.9574    5.7452   -1.5989 H   0  0  0  0  0  0  0  0  0  0  0  0
   -3.5989    6.3910   -1.4856 H   0  0  0  0  0  0  0  0  0  0  0  0
   -1.4602    3.4294   -1.6115 H   0  0  0  0  0  0  0  0  0  0  0  0
   -0.3851    1.3991   -0.8155 H   0  0  0  0  0  0  0  0  0  0  0  0
   -1.1349   -0.1807    2.5405 H   0  0  0  0  0  0  0  0  0  0  0  0
    1.0609    0.0821    3.1583 H   0  0  0  0  0  0  0  0  0  0  0  0
    1.0984    1.6143    2.2282 H   0  0  0  0  0  0  0  0  0  0  0  0
    3.3663    1.2135    2.8243 H   0  0  0  0  0  0  0  0  0  0  0  0
    5.8070    1.3962    2.6212 H   0  0  0  0  0  0  0  0  0  0  0  0
    7.0042    0.2891    0.7960 H   0  0  0  0  0  0  0  0  0  0  0  0
    7.5056   -0.1454   -1.4819 H   0  0  0  0  0  0  0  0  0  0  0  0
    7.6786   -1.6211   -0.4534 H   0  0  0  0  0  0  0  0  0  0  0  0
    7.4355   -1.7598   -2.1990 H   0  0  0  0  0  0  0  0  0  0  0  0
    3.2817   -1.2539   -0.7229 H   0  0  0  0  0  0  0  0  0  0  0  0
   -3.0041   -0.7897    1.1995 H   0  0  0  0  0  0  0  0  0  0  0  0
   -4.6689   -2.2779    0.2226 H   0  0  0  0  0  0  0  0  0  0  0  0
   -5.8975   -3.3647   -3.0305 H   0  0  0  0  0  0  0  0  0  0  0  0
   -4.6648   -4.1640   -3.9089 H   0  0  0  0  0  0  0  0  0  0  0  0
   -1.5871   -4.2289   -2.0817 H   0  0  0  0  0  0  0  0  0  0  0  0
    0.0871   -2.7295   -1.0962 H   0  0  0  0  0  0  0  0  0  0  0  0
   -2.2509    1.9098    3.0452 H   0  0  0  0  0  0  0  0  0  0  0  0
   -3.3356    3.9620    2.2304 H   0  0  0  0  0  0  0  0  0  0  0  0
  1  2  1  0
  2  3  1  0
  3  4  2  0
  4  5  1  0
  5  6  2  0
  6  7  1  0
  7  8  1  0
  8  9  1  0
  9 10  1  0
 10 11  2  0
 11 12  1  0
 12 13  2  0
 13 14  1  0
 14 15  1  0
 15 16  1  0
 14 17  2  0
  9 18  2  0
 18 19  1  0
 19 20  1  0
 20 21  2  0
 21 22  1  0
 22 23  2  0
 23 24  1  0
 24 25  1  0
 24 26  2  0
 24 27  2  0
 23 28  1  0
 28 29  2  0
  6 30  1  0
 30 31  2  0
 31  3  1  0
 19  7  1  0
 29 20  1  0
 17 10  1  0
  1 32  1  0
  1 33  1  0
  1 34  1  0
  4 35  1  0
  5 36  1  0
  7 37  1  0
  8 38  1  0
  8 39  1  0
 11 40  1  0
 12 41  1  0
 13 42  1  0
 16 43  1  0
 16 44  1  0
 16 45  1  0
 17 46  1  0
 21 47  1  0
 22 48  1  0
 25 49  1  0
 25 50  1  0
 28 51  1  0
 29 52  1  0
 30 53  1  0
 31 54  1  0
M  END
$$$$
