
     RDKit          3D

 55 57  0  0  0  0  0  0  0  0999 V2000
    2.8941    2.8197   -0.1986 O   0  0  0  0  0  0  0  0  0  0  0  0
    2.5526    1.7033    0.1721 C   0  0  0  0  0  0  0  0  0  0  0  0
    3.0313    1.0050    1.2653 N   0  0  0  0  0  0  0  0  0  0  0  0
    4.0608    1.3941    2.1476 C   0  0  0  0  0  0  0  0  0  0  0  0
    4.3469    0.5325    3.2157 C   0  0  0  0  0  0  0  0  0  0  0  0
    5.3554    0.8418    4.1324 C   0  0  0  0  0  0  0  0  0  0  0  0
    6.0892    2.0158    3.9893 C   0  0  0  0  0  0  0  0  0  0  0  0
    5.8137    2.8772    2.9303 C   0  0  0  0  0  0  0  0  0  0  0  0
    4.8044    2.5676    2.0124 C   0  0  0  0  0  0  0  0  0  0  0  0
    1.4538    0.9771   -0.5633 C   0  0  0  0  0  0  0  0  0  0  0  0
    1.5851   -0.3300   -0.8536 C   0  0  0  0  0  0  0  0  0  0  0  0
    0.5750   -1.0820   -1.6741 C   0  0  0  0  0  0  0  0  0  0  0  0
   -0.1385   -2.1776   -0.8910 C   0  0  0  0  0  0  0  0  0  0  0  0
   -0.5348   -2.0203    0.4462 C   0  0  0  0  0  0  0  0  0  0  0  0
   -1.2070   -3.0453    1.1188 C   0  0  0  0  0  0  0  0  0  0  0  0
   -1.5103   -4.2494    0.4683 C   0  0  0  0  0  0  0  0  0  0  0  0
   -2.2141   -5.3626    1.2052 C   0  0  0  0  0  0  0  0  0  0  0  0
   -2.9156   -6.1926    0.3841 F   0  0  0  0  0  0  0  0  0  0  0  0
   -3.1097   -4.9066    2.1255 F   0  0  0  0  0  0  0  0  0  0  0  0
   -1.3464   -6.1571    1.8901 F   0  0  0  0  0  0  0  0  0  0  0  0
   -1.1169   -4.4106   -0.8662 C   0  0  0  0  0  0  0  0  0  0  0  0
   -0.4457   -3.3854   -1.5380 C   0  0  0  0  0  0  0  0  0  0  0  0
   -0.4146   -0.1205   -2.3355 C   0  0  0  0  0  0  0  0  0  0  0  0
   -0.7784    1.0159   -1.3859 C   0  0  0  0  0  0  0  0  0  0  0  0
   -1.6855    1.8708   -2.0989 O   0  0  0  0  0  0  0  0  0  0  0  0
   -2.2702    2.8857   -1.2838 C   0  0  0  0  0  0  0  0  0  0  0  0
   -3.5220    2.3852   -0.5644 C   0  0  0  0  0  0  0  0  0  0  0  0
   -4.7141    2.0785   -1.4834 C   0  0  0  0  0  0  0  0  0  0  0  0
   -4.5408    0.8521   -2.3743 C   0  0  0  0  0  0  0  0  0  0  0  0
   -3.8136    1.1641   -3.5521 O   0  0  0  0  0  0  0  0  0  0  0  0
    0.3805    1.7426   -0.9741 O   0  0  0  0  0  0  0  0  0  0  0  0
    2.5740    0.1318    1.4873 H   0  0  0  0  0  0  0  0  0  0  0  0
    3.7911   -0.3911    3.3518 H   0  0  0  0  0  0  0  0  0  0  0  0
    5.5679    0.1660    4.9569 H   0  0  0  0  0  0  0  0  0  0  0  0
    6.8745    2.2604    4.6997 H   0  0  0  0  0  0  0  0  0  0  0  0
    6.3838    3.7954    2.8122 H   0  0  0  0  0  0  0  0  0  0  0  0
    4.6263    3.2674    1.2016 H   0  0  0  0  0  0  0  0  0  0  0  0
    2.4763   -0.8820   -0.5644 H   0  0  0  0  0  0  0  0  0  0  0  0
    1.1400   -1.5735   -2.4791 H   0  0  0  0  0  0  0  0  0  0  0  0
   -0.3288   -1.0998    0.9878 H   0  0  0  0  0  0  0  0  0  0  0  0
   -1.4987   -2.8992    2.1585 H   0  0  0  0  0  0  0  0  0  0  0  0
   -1.3353   -5.3385   -1.3942 H   0  0  0  0  0  0  0  0  0  0  0  0
   -0.1641   -3.5393   -2.5788 H   0  0  0  0  0  0  0  0  0  0  0  0
   -1.3162   -0.6333   -2.6930 H   0  0  0  0  0  0  0  0  0  0  0  0
    0.0584    0.3136   -3.2282 H   0  0  0  0  0  0  0  0  0  0  0  0
   -1.2880    0.6243   -0.4987 H   0  0  0  0  0  0  0  0  0  0  0  0
   -1.5427    3.2751   -0.5628 H   0  0  0  0  0  0  0  0  0  0  0  0
   -2.5388    3.7166   -1.9451 H   0  0  0  0  0  0  0  0  0  0  0  0
   -3.2935    1.4928    0.0283 H   0  0  0  0  0  0  0  0  0  0  0  0
   -3.8371    3.1634    0.1417 H   0  0  0  0  0  0  0  0  0  0  0  0
   -5.5816    1.9029   -0.8353 H   0  0  0  0  0  0  0  0  0  0  0  0
   -4.9372    2.9603   -2.0954 H   0  0  0  0  0  0  0  0  0  0  0  0
   -5.5243    0.4950   -2.6962 H   0  0  0  0  0  0  0  0  0  0  0  0
   -4.0431    0.0301   -1.8495 H   0  0  0  0  0  0  0  0  0  0  0  0
   -2.9274    1.4727   -3.2714 H   0  0  0  0  0  0  0  0  0  0  0  0
  1  2  2  0
  2  3  1  0
  3  4  1  0
  4  5  2  0
  5  6  1  0
  6  7  2  0
  7  8  1  0
  8  9  2  0
  2 10  1  0
 10 11  2  0
 11 12  1  0
 12 13  1  0
 13 14  2  0
 14 15  1  0
 15 16  2  0
 16 17  1  0
 17 18  1  0
 17 19  1  0
 17 20  1  0
 16 21  1  0
 21 22  2  0
 12 23  1  0
 23 24  1  0
 24 25  1  0
 25 26  1  0
 26 27  1  0
 27 28  1  0
 28 29  1  0
 29 30  1  0
 24 31  1  0
  9  4  1  0
 31 10  1  0
 22 13  1  0
  3 32  1  0
  5 33  1  0
  6 34  1  0
  7 35  1  0
  8 36  1  0
  9 37  1  0
 11 38  1  0
 12 39  1  0
 14 40  1  0
 15 41  1  0
 21 42  1  0
 22 43  1  0
 23 44  1  0
 23 45  1  0
 24 46  1  0
 26 47  1  0
 26 48  1  0
 27 49  1  0
 27 50  1  0
 28 51  1  0
 28 52  1  0
 29 53  1  0
 29 54  1  0
 30 55  1  0
M  END
$$$$
