
     RDKit          3D

 60 64  0  0  0  0  0  0  0  0999 V2000
    4.7228    2.6308   -0.4399 C   0  0  0  0  0  0  0  0  0  0  0  0
    4.5368    1.2421   -0.1961 O   0  0  0  0  0  0  0  0  0  0  0  0
    5.5359    0.3810   -0.5736 C   0  0  0  0  0  0  0  0  0  0  0  0
    6.6886    0.7873   -1.2623 C   0  0  0  0  0  0  0  0  0  0  0  0
    7.6862   -0.1328   -1.5944 C   0  0  0  0  0  0  0  0  0  0  0  0
    7.5490   -1.4659   -1.2395 C   0  0  0  0  0  0  0  0  0  0  0  0
    6.4066   -1.8845   -0.5551 C   0  0  0  0  0  0  0  0  0  0  0  0
    5.3796   -0.9788   -0.2237 C   0  0  0  0  0  0  0  0  0  0  0  0
    4.2109   -1.5072    0.4853 C   0  0  0  0  0  0  0  0  0  0  0  0
    4.1234   -2.5883    1.2382 N   0  0  0  0  0  0  0  0  0  0  0  0
    2.7979   -2.6111    1.6115 C   0  0  0  0  0  0  0  0  0  0  0  0
    2.3046   -3.6221    2.4855 C   0  0  0  0  0  0  0  0  0  0  0  0
    1.8812   -4.4411    3.1936 N   0  0  0  0  0  0  0  0  0  0  0  0
    2.1025   -1.5598    1.0389 C   0  0  0  0  0  0  0  0  0  0  0  0
    0.8261   -1.0902    1.0266 N   0  0  0  0  0  0  0  0  0  0  0  0
    0.5165    0.1917    0.3845 C   0  0  0  0  0  0  0  0  0  0  0  0
   -0.7881    0.7893    0.9532 C   0  0  0  0  0  0  0  0  0  0  0  0
   -1.9983   -0.0649    0.8334 N   0  0  0  0  0  0  0  0  0  0  0  0
   -2.8240    0.2829   -0.3638 C   0  0  0  0  0  0  0  0  0  0  0  0
   -3.2986    1.7439   -0.3794 C   0  0  0  0  0  0  0  0  0  0  0  0
   -3.2707    2.4718   -1.5827 C   0  0  0  0  0  0  0  0  0  0  0  0
   -3.7028    3.7982   -1.6253 C   0  0  0  0  0  0  0  0  0  0  0  0
   -4.1742    4.4150   -0.4681 C   0  0  0  0  0  0  0  0  0  0  0  0
   -4.2180    3.7061    0.7311 C   0  0  0  0  0  0  0  0  0  0  0  0
   -3.7874    2.3801    0.7756 C   0  0  0  0  0  0  0  0  0  0  0  0
   -4.0310   -0.6448   -0.5647 C   0  0  0  0  0  0  0  0  0  0  0  0
   -4.2688   -1.2272   -1.8209 C   0  0  0  0  0  0  0  0  0  0  0  0
   -5.3716   -2.0587   -2.0235 C   0  0  0  0  0  0  0  0  0  0  0  0
   -6.2553   -2.3165   -0.9791 C   0  0  0  0  0  0  0  0  0  0  0  0
   -6.0379   -1.7437    0.2705 C   0  0  0  0  0  0  0  0  0  0  0  0
   -4.9348   -0.9132    0.4764 C   0  0  0  0  0  0  0  0  0  0  0  0
   -1.6071   -1.5018    0.8139 C   0  0  0  0  0  0  0  0  0  0  0  0
   -0.3058   -1.8394    1.5816 C   0  0  0  0  0  0  0  0  0  0  0  0
    3.0200   -0.8601    0.3025 O   0  0  0  0  0  0  0  0  0  0  0  0
    4.7666    2.8410   -1.5151 H   0  0  0  0  0  0  0  0  0  0  0  0
    3.8543    3.1576   -0.0338 H   0  0  0  0  0  0  0  0  0  0  0  0
    5.6136    3.0077    0.0760 H   0  0  0  0  0  0  0  0  0  0  0  0
    6.8457    1.8183   -1.5570 H   0  0  0  0  0  0  0  0  0  0  0  0
    8.5742    0.1956   -2.1307 H   0  0  0  0  0  0  0  0  0  0  0  0
    8.3260   -2.1816   -1.4986 H   0  0  0  0  0  0  0  0  0  0  0  0
    6.3139   -2.9339   -0.2811 H   0  0  0  0  0  0  0  0  0  0  0  0
    0.4260    0.0468   -0.6982 H   0  0  0  0  0  0  0  0  0  0  0  0
    1.3178    0.9197    0.5602 H   0  0  0  0  0  0  0  0  0  0  0  0
   -0.6341    0.9660    2.0271 H   0  0  0  0  0  0  0  0  0  0  0  0
   -0.9295    1.7850    0.5205 H   0  0  0  0  0  0  0  0  0  0  0  0
   -2.1635    0.1539   -1.2337 H   0  0  0  0  0  0  0  0  0  0  0  0
   -2.9158    2.0063   -2.4987 H   0  0  0  0  0  0  0  0  0  0  0  0
   -3.6745    4.3472   -2.5623 H   0  0  0  0  0  0  0  0  0  0  0  0
   -4.5129    5.4475   -0.4951 H   0  0  0  0  0  0  0  0  0  0  0  0
   -4.5906    4.1854    1.6329 H   0  0  0  0  0  0  0  0  0  0  0  0
   -3.8271    1.8447    1.7216 H   0  0  0  0  0  0  0  0  0  0  0  0
   -3.5974   -1.0333   -2.6526 H   0  0  0  0  0  0  0  0  0  0  0  0
   -5.5441   -2.5031   -2.9982 H   0  0  0  0  0  0  0  0  0  0  0  0
   -7.1156   -2.9607   -1.1378 H   0  0  0  0  0  0  0  0  0  0  0  0
   -6.7274   -1.9394    1.0856 H   0  0  0  0  0  0  0  0  0  0  0  0
   -4.7759   -0.4771    1.4611 H   0  0  0  0  0  0  0  0  0  0  0  0
   -1.4626   -1.8403   -0.2224 H   0  0  0  0  0  0  0  0  0  0  0  0
   -2.4183   -2.1009    1.2437 H   0  0  0  0  0  0  0  0  0  0  0  0
   -0.4176   -1.6009    2.6461 H   0  0  0  0  0  0  0  0  0  0  0  0
   -0.1452   -2.9192    1.4931 H   0  0  0  0  0  0  0  0  0  0  0  0
  1  2  1  0
  2  3  1  0
  3  4  2  0
  4  5  1  0
  5  6  2  0
  6  7  1  0
  7  8  2  0
  8  9  1  0
  9 10  2  0
 10 11  1  0
 11 12  1  0
 12 13  3  0
 11 14  2  0
 14 15  1  0
 15 16  1  0
 16 17  1  0
 17 18  1  0
 18 19  1  0
 19 20  1  0
 20 21  2  0
 21 22  1  0
 22 23  2  0
 23 24  1  0
 24 25  2  0
 19 26  1  0
 26 27  2  0
 27 28  1  0
 28 29  2  0
 29 30  1  0
 30 31  2  0
 18 32  1  0
 32 33  1  0
 14 34  1  0
  8  3  1  0
 34  9  1  0
 33 15  1  0
 25 20  1  0
 31 26  1  0
  1 35  1  0
  1 36  1  0
  1 37  1  0
  4 38  1  0
  5 39  1  0
  6 40  1  0
  7 41  1  0
 16 42  1  0
 16 43  1  0
 17 44  1  0
 17 45  1  0
 19 46  1  0
 21 47  1  0
 22 48  1  0
 23 49  1  0
 24 50  1  0
 25 51  1  0
 27 52  1  0
 28 53  1  0
 29 54  1  0
 30 55  1  0
 31 56  1  0
 32 57  1  0
 32 58  1  0
 33 59  1  0
 33 60  1  0
M  END
$$$$
