
     RDKit          3D

 47 48  0  0  0  0  0  0  0  0999 V2000
    3.2628   -1.0778    3.9605 C   0  0  0  0  0  0  0  0  0  0  0  0
    3.1093   -1.6045    2.5449 C   0  0  0  0  0  0  0  0  0  0  0  0
    2.6866   -0.5191    1.7118 O   0  0  0  0  0  0  0  0  0  0  0  0
    2.7174   -0.7797    0.3742 C   0  0  0  0  0  0  0  0  0  0  0  0
    3.0639   -1.8550   -0.1005 O   0  0  0  0  0  0  0  0  0  0  0  0
    2.2866    0.3527   -0.4503 C   0  0  0  0  0  0  0  0  0  0  0  0
    2.0464    1.6592   -0.0264 C   0  0  0  0  0  0  0  0  0  0  0  0
    2.0990    2.2859    1.3240 C   0  0  0  0  0  0  0  0  0  0  0  0
    1.7519    2.4179   -1.1321 N   0  0  0  0  0  0  0  0  0  0  0  0
    1.7596    1.6388   -2.2572 C   0  0  0  0  0  0  0  0  0  0  0  0
    1.4681    2.2102   -3.6009 C   0  0  0  0  0  0  0  0  0  0  0  0
    2.0605    0.3390   -1.8740 C   0  0  0  0  0  0  0  0  0  0  0  0
    2.1167   -0.7904   -2.8117 C   0  0  0  0  0  0  0  0  0  0  0  0
    2.7705   -0.7073   -3.8544 O   0  0  0  0  0  0  0  0  0  0  0  0
    1.3320   -2.0687   -2.4895 C   0  0  0  0  0  0  0  0  0  0  0  0
    0.3078   -1.9407   -1.5024 O   0  0  0  0  0  0  0  0  0  0  0  0
   -0.8020   -1.2887   -1.9283 C   0  0  0  0  0  0  0  0  0  0  0  0
   -1.0146   -0.8800   -3.0562 O   0  0  0  0  0  0  0  0  0  0  0  0
   -1.7140   -1.1379   -0.7759 C   0  0  0  0  0  0  0  0  0  0  0  0
   -2.8771   -0.4846   -0.9295 C   0  0  0  0  0  0  0  0  0  0  0  0
   -3.8494   -0.2530    0.1482 C   0  0  0  0  0  0  0  0  0  0  0  0
   -4.6303    0.9113    0.1096 C   0  0  0  0  0  0  0  0  0  0  0  0
   -5.5876    1.1632    1.0971 C   0  0  0  0  0  0  0  0  0  0  0  0
   -5.7781    0.2452    2.1270 C   0  0  0  0  0  0  0  0  0  0  0  0
   -6.9535    0.5546    3.3468 Cl  0  0  0  0  0  0  0  0  0  0  0  0
   -5.0236   -0.9245    2.1714 C   0  0  0  0  0  0  0  0  0  0  0  0
   -4.0654   -1.1745    1.1829 C   0  0  0  0  0  0  0  0  0  0  0  0
    3.5842   -1.8715    4.6415 H   0  0  0  0  0  0  0  0  0  0  0  0
    3.9989   -0.2672    3.9899 H   0  0  0  0  0  0  0  0  0  0  0  0
    2.3157   -0.6651    4.3214 H   0  0  0  0  0  0  0  0  0  0  0  0
    4.0696   -2.0054    2.1977 H   0  0  0  0  0  0  0  0  0  0  0  0
    2.3466   -2.3907    2.5239 H   0  0  0  0  0  0  0  0  0  0  0  0
    3.1125    2.2285    1.7324 H   0  0  0  0  0  0  0  0  0  0  0  0
    1.4123    1.7764    2.0106 H   0  0  0  0  0  0  0  0  0  0  0  0
    1.8094    3.3417    1.2915 H   0  0  0  0  0  0  0  0  0  0  0  0
    1.5598    3.4119   -1.1207 H   0  0  0  0  0  0  0  0  0  0  0  0
    0.8541    1.5260   -4.1928 H   0  0  0  0  0  0  0  0  0  0  0  0
    0.9288    3.1587   -3.5197 H   0  0  0  0  0  0  0  0  0  0  0  0
    2.4025    2.3970   -4.1410 H   0  0  0  0  0  0  0  0  0  0  0  0
    2.0420   -2.8243   -2.1399 H   0  0  0  0  0  0  0  0  0  0  0  0
    0.8982   -2.4582   -3.4187 H   0  0  0  0  0  0  0  0  0  0  0  0
   -1.3827   -1.5470    0.1704 H   0  0  0  0  0  0  0  0  0  0  0  0
   -3.1375   -0.0623   -1.9007 H   0  0  0  0  0  0  0  0  0  0  0  0
   -4.4965    1.6389   -0.6882 H   0  0  0  0  0  0  0  0  0  0  0  0
   -6.1794    2.0736    1.0552 H   0  0  0  0  0  0  0  0  0  0  0  0
   -5.1776   -1.6472    2.9681 H   0  0  0  0  0  0  0  0  0  0  0  0
   -3.5047   -2.1051    1.2273 H   0  0  0  0  0  0  0  0  0  0  0  0
  1  2  1  0
  2  3  1  0
  3  4  1  0
  4  5  2  0
  4  6  1  0
  6  7  2  0
  7  8  1  0
  7  9  1  0
  9 10  1  0
 10 11  1  0
 10 12  2  0
 12 13  1  0
 13 14  2  0
 13 15  1  0
 15 16  1  0
 16 17  1  0
 17 18  2  0
 17 19  1  0
 19 20  2  3
 20 21  1  0
 21 22  2  0
 22 23  1  0
 23 24  2  0
 24 25  1  0
 24 26  1  0
 26 27  2  0
 12  6  1  0
 27 21  1  0
  1 28  1  0
  1 29  1  0
  1 30  1  0
  2 31  1  0
  2 32  1  0
  8 33  1  0
  8 34  1  0
  8 35  1  0
  9 36  1  0
 11 37  1  0
 11 38  1  0
 11 39  1  0
 15 40  1  0
 15 41  1  0
 19 42  1  0
 20 43  1  0
 22 44  1  0
 23 45  1  0
 26 46  1  0
 27 47  1  0
M  END
$$$$
