
     RDKit          3D

 45 47  0  0  0  0  0  0  0  0999 V2000
    3.2493    0.7887   -0.9048 O   0  0  0  0  0  0  0  0  0  0  0  0
    3.1437    0.4705   -2.0846 C   0  0  0  0  0  0  0  0  0  0  0  0
    2.0507    0.9817   -3.0140 C   0  0  0  0  0  0  0  0  0  0  0  0
    0.8783    1.3744   -2.2446 N   0  0  0  0  0  0  0  0  0  0  0  0
   -0.1267    0.4575   -2.0099 C   0  0  0  0  0  0  0  0  0  0  0  0
   -0.1667   -0.6444   -2.5447 O   0  0  0  0  0  0  0  0  0  0  0  0
   -1.1676    0.8533   -1.0209 C   0  0  0  0  0  0  0  0  0  0  0  0
   -1.4829    2.1925   -0.7690 C   0  0  0  0  0  0  0  0  0  0  0  0
   -2.4710    2.5150    0.1689 C   0  0  0  0  0  0  0  0  0  0  0  0
   -3.1679    1.5133    0.8660 C   0  0  0  0  0  0  0  0  0  0  0  0
   -4.2075    1.8584    1.8495 C   0  0  0  0  0  0  0  0  0  0  0  0
   -5.5023    1.3218    1.7526 C   0  0  0  0  0  0  0  0  0  0  0  0
   -6.4903    1.6497    2.6852 C   0  0  0  0  0  0  0  0  0  0  0  0
   -6.1991    2.5199    3.7325 C   0  0  0  0  0  0  0  0  0  0  0  0
   -4.9220    3.0625    3.8477 C   0  0  0  0  0  0  0  0  0  0  0  0
   -3.9354    2.7345    2.9136 C   0  0  0  0  0  0  0  0  0  0  0  0
   -2.8490    0.1738    0.5900 C   0  0  0  0  0  0  0  0  0  0  0  0
   -1.8628   -0.1549   -0.3459 C   0  0  0  0  0  0  0  0  0  0  0  0
    4.0131   -0.3199   -2.7716 O   0  0  0  0  0  0  0  0  0  0  0  0
    5.0763   -0.8871   -1.9981 C   0  0  0  0  0  0  0  0  0  0  0  0
    4.6772   -2.2579   -1.5149 C   0  0  0  0  0  0  0  0  0  0  0  0
    4.1883   -2.4374   -0.2126 C   0  0  0  0  0  0  0  0  0  0  0  0
    3.7976   -3.7036    0.2289 C   0  0  0  0  0  0  0  0  0  0  0  0
    3.8870   -4.7948   -0.6322 C   0  0  0  0  0  0  0  0  0  0  0  0
    3.4073   -6.3552   -0.0880 Cl  0  0  0  0  0  0  0  0  0  0  0  0
    4.3591   -4.6302   -1.9326 C   0  0  0  0  0  0  0  0  0  0  0  0
    4.7493   -3.3638   -2.3746 C   0  0  0  0  0  0  0  0  0  0  0  0
    1.7834    0.2078   -3.7395 H   0  0  0  0  0  0  0  0  0  0  0  0
    2.4228    1.8691   -3.5333 H   0  0  0  0  0  0  0  0  0  0  0  0
    1.0358    2.0754   -1.5307 H   0  0  0  0  0  0  0  0  0  0  0  0
   -0.9940    2.9973   -1.3101 H   0  0  0  0  0  0  0  0  0  0  0  0
   -2.7117    3.5630    0.3401 H   0  0  0  0  0  0  0  0  0  0  0  0
   -5.7549    0.6479    0.9362 H   0  0  0  0  0  0  0  0  0  0  0  0
   -7.4867    1.2259    2.5906 H   0  0  0  0  0  0  0  0  0  0  0  0
   -6.9668    2.7743    4.4585 H   0  0  0  0  0  0  0  0  0  0  0  0
   -4.6902    3.7389    4.6663 H   0  0  0  0  0  0  0  0  0  0  0  0
   -2.9409    3.1605    3.0301 H   0  0  0  0  0  0  0  0  0  0  0  0
   -3.3641   -0.6304    1.1126 H   0  0  0  0  0  0  0  0  0  0  0  0
   -1.6357   -1.2013   -0.5414 H   0  0  0  0  0  0  0  0  0  0  0  0
    5.9511   -0.9702   -2.6537 H   0  0  0  0  0  0  0  0  0  0  0  0
    5.3850   -0.2379   -1.1694 H   0  0  0  0  0  0  0  0  0  0  0  0
    4.0992   -1.5878    0.4628 H   0  0  0  0  0  0  0  0  0  0  0  0
    3.4193   -3.8285    1.2398 H   0  0  0  0  0  0  0  0  0  0  0  0
    4.4193   -5.4795   -2.6076 H   0  0  0  0  0  0  0  0  0  0  0  0
    5.1033   -3.2429   -3.3963 H   0  0  0  0  0  0  0  0  0  0  0  0
  1  2  2  0
  2  3  1  0
  3  4  1  0
  4  5  1  0
  5  6  2  0
  5  7  1  0
  7  8  2  0
  8  9  1  0
  9 10  2  0
 10 11  1  0
 11 12  2  0
 12 13  1  0
 13 14  2  0
 14 15  1  0
 15 16  2  0
 10 17  1  0
 17 18  2  0
  2 19  1  0
 19 20  1  0
 20 21  1  0
 21 22  2  0
 22 23  1  0
 23 24  2  0
 24 25  1  0
 24 26  1  0
 26 27  2  0
 18  7  1  0
 27 21  1  0
 16 11  1  0
  3 28  1  0
  3 29  1  0
  4 30  1  0
  8 31  1  0
  9 32  1  0
 12 33  1  0
 13 34  1  0
 14 35  1  0
 15 36  1  0
 16 37  1  0
 17 38  1  0
 18 39  1  0
 20 40  1  0
 20 41  1  0
 22 42  1  0
 23 43  1  0
 26 44  1  0
 27 45  1  0
M  END
$$$$
