
     RDKit          3D

 64 67  0  0  0  0  0  0  0  0999 V2000
    8.5246   -2.3763    2.7461 C   0  0  0  0  0  0  0  0  0  0  0  0
    8.6811   -1.9572    1.2923 C   0  0  0  0  0  0  0  0  0  0  0  0
    7.3945   -1.4208    0.7189 C   0  0  0  0  0  0  0  0  0  0  0  0
    6.5034   -2.2677    0.0504 C   0  0  0  0  0  0  0  0  0  0  0  0
    5.3068   -1.7699   -0.4799 C   0  0  0  0  0  0  0  0  0  0  0  0
    4.9732   -0.4145   -0.3498 C   0  0  0  0  0  0  0  0  0  0  0  0
    3.7305    0.1248   -0.9191 C   0  0  0  0  0  0  0  0  0  0  0  0
    2.7735   -0.5422   -1.7392 C   0  0  0  0  0  0  0  0  0  0  0  0
    1.8151    0.4009   -2.0253 C   0  0  0  0  0  0  0  0  0  0  0  0
    0.6111    0.3883   -2.7987 C   0  0  0  0  0  0  0  0  0  0  0  0
    0.2078   -0.6147   -3.3785 O   0  0  0  0  0  0  0  0  0  0  0  0
   -0.0576    1.6282   -2.8348 N   0  0  0  0  0  0  0  0  0  0  0  0
   -1.2868    1.7493   -3.6217 C   0  0  0  0  0  0  0  0  0  0  0  0
   -2.5492    1.4933   -2.7979 C   0  0  0  0  0  0  0  0  0  0  0  0
   -3.6380    1.2925   -3.3304 O   0  0  0  0  0  0  0  0  0  0  0  0
   -2.3896    1.6099   -1.4332 N   0  0  0  0  0  0  0  0  0  0  0  0
   -3.5104    1.5852   -0.5093 C   0  0  0  0  0  0  0  0  0  0  0  0
   -4.1907    0.2045   -0.4102 C   0  0  0  0  0  0  0  0  0  0  0  0
   -5.1753    0.1385    0.6885 N   0  0  0  0  0  0  0  0  0  0  0  0
   -4.5285   -0.0792    1.9908 C   0  0  0  0  0  0  0  0  0  0  0  0
   -5.5417   -0.0040    3.1340 C   0  0  0  0  0  0  0  0  0  0  0  0
   -6.7006   -0.9697    2.9246 C   0  0  0  0  0  0  0  0  0  0  0  0
   -7.3071   -0.7787    1.5387 C   0  0  0  0  0  0  0  0  0  0  0  0
   -6.2515   -0.8400    0.4180 C   0  0  0  0  0  0  0  0  0  0  0  0
   -5.7803   -2.2851    0.1814 C   0  0  0  0  0  0  0  0  0  0  0  0
    0.3507    2.7723   -2.1340 N   0  0  0  0  0  0  0  0  0  0  0  0
    1.4603    2.7080   -1.4530 C   0  0  0  0  0  0  0  0  0  0  0  0
    2.0096    3.8643   -0.6805 C   0  0  0  0  0  0  0  0  0  0  0  0
    2.2052    1.5367   -1.3953 N   0  0  0  0  0  0  0  0  0  0  0  0
    3.3566    1.4032   -0.7106 N   0  0  0  0  0  0  0  0  0  0  0  0
    5.8655    0.4253    0.3342 C   0  0  0  0  0  0  0  0  0  0  0  0
    7.0608   -0.0707    0.8645 C   0  0  0  0  0  0  0  0  0  0  0  0
    8.2250   -1.5312    3.3749 H   0  0  0  0  0  0  0  0  0  0  0  0
    7.7683   -3.1610    2.8550 H   0  0  0  0  0  0  0  0  0  0  0  0
    9.4734   -2.7637    3.1305 H   0  0  0  0  0  0  0  0  0  0  0  0
    9.4675   -1.1967    1.2066 H   0  0  0  0  0  0  0  0  0  0  0  0
    9.0240   -2.8118    0.6961 H   0  0  0  0  0  0  0  0  0  0  0  0
    6.7355   -3.3244   -0.0667 H   0  0  0  0  0  0  0  0  0  0  0  0
    4.6486   -2.4654   -0.9936 H   0  0  0  0  0  0  0  0  0  0  0  0
    2.7813   -1.5659   -2.0896 H   0  0  0  0  0  0  0  0  0  0  0  0
   -1.2682    1.0308   -4.4477 H   0  0  0  0  0  0  0  0  0  0  0  0
   -1.3406    2.7625   -4.0339 H   0  0  0  0  0  0  0  0  0  0  0  0
   -1.5285    2.0605   -1.1363 H   0  0  0  0  0  0  0  0  0  0  0  0
   -4.2360    2.3425   -0.8286 H   0  0  0  0  0  0  0  0  0  0  0  0
   -3.1041    1.8965    0.4576 H   0  0  0  0  0  0  0  0  0  0  0  0
   -3.4342   -0.5842   -0.3064 H   0  0  0  0  0  0  0  0  0  0  0  0
   -4.6941    0.0214   -1.3675 H   0  0  0  0  0  0  0  0  0  0  0  0
   -4.0089   -1.0452    2.0199 H   0  0  0  0  0  0  0  0  0  0  0  0
   -3.7695    0.6895    2.1762 H   0  0  0  0  0  0  0  0  0  0  0  0
   -5.0435   -0.2261    4.0849 H   0  0  0  0  0  0  0  0  0  0  0  0
   -5.9316    1.0200    3.2106 H   0  0  0  0  0  0  0  0  0  0  0  0
   -6.3493   -2.0014    3.0423 H   0  0  0  0  0  0  0  0  0  0  0  0
   -7.4644   -0.8035    3.6926 H   0  0  0  0  0  0  0  0  0  0  0  0
   -8.0874   -1.5309    1.3706 H   0  0  0  0  0  0  0  0  0  0  0  0
   -7.8073    0.1986    1.5039 H   0  0  0  0  0  0  0  0  0  0  0  0
   -6.7675   -0.5214   -0.4979 H   0  0  0  0  0  0  0  0  0  0  0  0
   -5.2557   -2.7064    1.0449 H   0  0  0  0  0  0  0  0  0  0  0  0
   -5.1120   -2.3528   -0.6833 H   0  0  0  0  0  0  0  0  0  0  0  0
   -6.6415   -2.9319   -0.0289 H   0  0  0  0  0  0  0  0  0  0  0  0
    2.0604    3.6168    0.3847 H   0  0  0  0  0  0  0  0  0  0  0  0
    3.0096    4.1234   -1.0430 H   0  0  0  0  0  0  0  0  0  0  0  0
    1.3586    4.7355   -0.8042 H   0  0  0  0  0  0  0  0  0  0  0  0
    5.6401    1.4827    0.4588 H   0  0  0  0  0  0  0  0  0  0  0  0
    7.7291    0.6086    1.3894 H   0  0  0  0  0  0  0  0  0  0  0  0
  1  2  1  0
  2  3  1  0
  3  4  2  0
  4  5  1  0
  5  6  2  0
  6  7  1  0
  7  8  1  0
  8  9  2  0
  9 10  1  0
 10 11  2  0
 10 12  1  0
 12 13  1  0
 13 14  1  0
 14 15  2  0
 14 16  1  0
 16 17  1  0
 17 18  1  0
 18 19  1  0
 19 20  1  0
 20 21  1  0
 21 22  1  0
 22 23  1  0
 23 24  1  0
 24 25  1  0
 12 26  1  0
 26 27  2  0
 27 28  1  0
 27 29  1  0
 29 30  1  0
  6 31  1  0
 31 32  2  0
 32  3  1  0
 30  7  2  0
 29  9  1  0
 24 19  1  0
  1 33  1  0
  1 34  1  0
  1 35  1  0
  2 36  1  0
  2 37  1  0
  4 38  1  0
  5 39  1  0
  8 40  1  0
 13 41  1  0
 13 42  1  0
 16 43  1  0
 17 44  1  0
 17 45  1  0
 18 46  1  0
 18 47  1  0
 20 48  1  0
 20 49  1  0
 21 50  1  0
 21 51  1  0
 22 52  1  0
 22 53  1  0
 23 54  1  0
 23 55  1  0
 24 56  1  0
 25 57  1  0
 25 58  1  0
 25 59  1  0
 28 60  1  0
 28 61  1  0
 28 62  1  0
 31 63  1  0
 32 64  1  0
M  END
$$$$
