
     RDKit          3D

 55 58  0  0  0  0  0  0  0  0999 V2000
    2.3353   -3.2627    1.5807 C   0  0  0  0  0  0  0  0  0  0  0  0
    3.2854   -2.1648    2.0280 C   0  0  0  0  0  0  0  0  0  0  0  0
    3.9953   -1.6238    0.9146 O   0  0  0  0  0  0  0  0  0  0  0  0
    3.3825   -0.7185    0.0855 C   0  0  0  0  0  0  0  0  0  0  0  0
    2.1941   -0.0397    0.3782 C   0  0  0  0  0  0  0  0  0  0  0  0
    1.6526    0.8914   -0.5286 C   0  0  0  0  0  0  0  0  0  0  0  0
    0.4383    1.6660   -0.2226 C   0  0  0  0  0  0  0  0  0  0  0  0
   -0.7312    1.2254    0.2881 C   0  0  0  0  0  0  0  0  0  0  0  0
   -0.9978   -0.2071    0.6099 C   0  0  0  0  0  0  0  0  0  0  0  0
   -1.1694   -0.5152    1.7892 O   0  0  0  0  0  0  0  0  0  0  0  0
   -1.1006   -1.1066   -0.4303 N   0  0  0  0  0  0  0  0  0  0  0  0
   -1.1532   -0.7542   -1.8594 C   0  0  0  0  0  0  0  0  0  0  0  0
   -2.0691   -1.7220   -2.6230 C   0  0  0  0  0  0  0  0  0  0  0  0
   -1.6229   -3.0849   -2.5437 O   0  0  0  0  0  0  0  0  0  0  0  0
   -0.9739   -3.4206   -1.3045 C   0  0  0  0  0  0  0  0  0  0  0  0
   -1.3637   -2.5150   -0.1287 C   0  0  0  0  0  0  0  0  0  0  0  0
   -1.7216    2.1914    0.6228 C   0  0  0  0  0  0  0  0  0  0  0  0
   -2.0346    3.3401    0.0474 N   0  0  0  0  0  0  0  0  0  0  0  0
   -3.0320    3.8843    0.8203 C   0  0  0  0  0  0  0  0  0  0  0  0
   -3.7248    5.0939    0.6742 C   0  0  0  0  0  0  0  0  0  0  0  0
   -4.6905    5.4375    1.6305 C   0  0  0  0  0  0  0  0  0  0  0  0
   -4.9613    4.5923    2.7120 C   0  0  0  0  0  0  0  0  0  0  0  0
   -4.2881    3.3755    2.8682 C   0  0  0  0  0  0  0  0  0  0  0  0
   -3.3324    3.0591    1.9015 C   0  0  0  0  0  0  0  0  0  0  0  0
   -2.5018    1.9821    1.7415 N   0  0  0  0  0  0  0  0  0  0  0  0
    2.3361    1.1699   -1.7208 C   0  0  0  0  0  0  0  0  0  0  0  0
    3.5281    0.5066   -2.0183 C   0  0  0  0  0  0  0  0  0  0  0  0
    4.3353    0.8970   -3.4979 Cl  0  0  0  0  0  0  0  0  0  0  0  0
    4.0417   -0.4476   -1.1299 C   0  0  0  0  0  0  0  0  0  0  0  0
    5.2406   -1.0604   -1.4138 O   0  0  0  0  0  0  0  0  0  0  0  0
    5.0183   -2.3506   -1.9955 C   0  0  0  0  0  0  0  0  0  0  0  0
    1.5351   -2.8613    0.9558 H   0  0  0  0  0  0  0  0  0  0  0  0
    1.8837   -3.7635    2.4416 H   0  0  0  0  0  0  0  0  0  0  0  0
    2.8683   -4.0040    0.9750 H   0  0  0  0  0  0  0  0  0  0  0  0
    2.7870   -1.3943    2.6264 H   0  0  0  0  0  0  0  0  0  0  0  0
    4.0411   -2.6124    2.6845 H   0  0  0  0  0  0  0  0  0  0  0  0
    1.6889   -0.1989    1.3277 H   0  0  0  0  0  0  0  0  0  0  0  0
    0.5465    2.7385   -0.4226 H   0  0  0  0  0  0  0  0  0  0  0  0
   -1.4866    0.2759   -2.0046 H   0  0  0  0  0  0  0  0  0  0  0  0
   -0.1297   -0.8526   -2.2433 H   0  0  0  0  0  0  0  0  0  0  0  0
   -3.0968   -1.6819   -2.2369 H   0  0  0  0  0  0  0  0  0  0  0  0
   -2.1000   -1.4525   -3.6851 H   0  0  0  0  0  0  0  0  0  0  0  0
   -1.2238   -4.4605   -1.0730 H   0  0  0  0  0  0  0  0  0  0  0  0
    0.1080   -3.3798   -1.4747 H   0  0  0  0  0  0  0  0  0  0  0  0
   -0.8267   -2.8100    0.7816 H   0  0  0  0  0  0  0  0  0  0  0  0
   -2.4425   -2.6055    0.0746 H   0  0  0  0  0  0  0  0  0  0  0  0
   -3.5032    5.7506   -0.1616 H   0  0  0  0  0  0  0  0  0  0  0  0
   -5.2288    6.3777    1.5320 H   0  0  0  0  0  0  0  0  0  0  0  0
   -5.7120    4.8837    3.4441 H   0  0  0  0  0  0  0  0  0  0  0  0
   -4.4996    2.7195    3.7070 H   0  0  0  0  0  0  0  0  0  0  0  0
   -2.4274    1.1832    2.3610 H   0  0  0  0  0  0  0  0  0  0  0  0
    1.9451    1.9110   -2.4182 H   0  0  0  0  0  0  0  0  0  0  0  0
    4.5956   -3.0525   -1.2640 H   0  0  0  0  0  0  0  0  0  0  0  0
    4.3754   -2.2890   -2.8858 H   0  0  0  0  0  0  0  0  0  0  0  0
    5.9876   -2.7400   -2.3171 H   0  0  0  0  0  0  0  0  0  0  0  0
  1  2  1  0
  2  3  1  0
  3  4  1  0
  4  5  2  0
  5  6  1  0
  6  7  1  0
  7  8  2  3
  8  9  1  0
  9 10  2  0
  9 11  1  0
 11 12  1  0
 12 13  1  0
 13 14  1  0
 14 15  1  0
 15 16  1  0
  8 17  1  0
 17 18  2  0
 18 19  1  0
 19 20  2  0
 20 21  1  0
 21 22  2  0
 22 23  1  0
 23 24  2  0
 24 25  1  0
  6 26  2  0
 26 27  1  0
 27 28  1  0
 27 29  2  0
 29 30  1  0
 30 31  1  0
 29  4  1  0
 16 11  1  0
 25 17  1  0
 24 19  1  0
  1 32  1  0
  1 33  1  0
  1 34  1  0
  2 35  1  0
  2 36  1  0
  5 37  1  0
  7 38  1  0
 12 39  1  0
 12 40  1  0
 13 41  1  0
 13 42  1  0
 15 43  1  0
 15 44  1  0
 16 45  1  0
 16 46  1  0
 20 47  1  0
 21 48  1  0
 22 49  1  0
 23 50  1  0
 25 51  1  0
 26 52  1  0
 31 53  1  0
 31 54  1  0
 31 55  1  0
M  END
$$$$
