
     RDKit          3D

 49 51  0  0  0  0  0  0  0  0999 V2000
    8.4007   -1.9383    3.6510 N   0  0  0  0  0  0  0  0  0  0  0  0
    7.3991   -1.8499    3.0700 C   0  0  0  0  0  0  0  0  0  0  0  0
    6.1700   -1.7604    2.3384 C   0  0  0  0  0  0  0  0  0  0  0  0
    5.3487   -0.7310    2.6821 N   0  0  0  0  0  0  0  0  0  0  0  0
    4.1845   -0.6461    1.9856 C   0  0  0  0  0  0  0  0  0  0  0  0
    3.8268   -1.5336    0.9712 C   0  0  0  0  0  0  0  0  0  0  0  0
    2.5693   -1.4400    0.2036 C   0  0  0  0  0  0  0  0  0  0  0  0
    1.9638   -2.6006   -0.3137 C   0  0  0  0  0  0  0  0  0  0  0  0
    0.7775   -2.5363   -1.0458 C   0  0  0  0  0  0  0  0  0  0  0  0
    0.1668   -1.3053   -1.2638 C   0  0  0  0  0  0  0  0  0  0  0  0
    0.7483   -0.1232   -0.7906 C   0  0  0  0  0  0  0  0  0  0  0  0
    1.9436   -0.2013   -0.0622 C   0  0  0  0  0  0  0  0  0  0  0  0
    0.1162    1.0462   -1.1232 O   0  0  0  0  0  0  0  0  0  0  0  0
    0.3911    2.1892   -0.3131 C   0  0  0  0  0  0  0  0  0  0  0  0
   -0.5684    3.3227   -0.6933 C   0  0  0  0  0  0  0  0  0  0  0  0
   -1.9567    3.0155   -0.5406 O   0  0  0  0  0  0  0  0  0  0  0  0
   -2.3559    2.7312    0.8011 C   0  0  0  0  0  0  0  0  0  0  0  0
   -3.8844    2.6960    0.8941 C   0  0  0  0  0  0  0  0  0  0  0  0
   -4.4373    1.4676    0.4097 O   0  0  0  0  0  0  0  0  0  0  0  0
   -4.5831    1.4372   -1.0135 C   0  0  0  0  0  0  0  0  0  0  0  0
   -5.2981    0.1467   -1.4312 C   0  0  0  0  0  0  0  0  0  0  0  0
   -4.5413   -1.0419   -1.1783 O   0  0  0  0  0  0  0  0  0  0  0  0
   -3.3874   -1.1841   -2.0047 C   0  0  0  0  0  0  0  0  0  0  0  0
   -2.1264   -1.1669   -1.1471 C   0  0  0  0  0  0  0  0  0  0  0  0
   -0.9864   -1.2970   -2.0061 O   0  0  0  0  0  0  0  0  0  0  0  0
    4.6566   -2.5625    0.6498 N   0  0  0  0  0  0  0  0  0  0  0  0
    5.8281   -2.6599    1.3432 C   0  0  0  0  0  0  0  0  0  0  0  0
    6.6763   -3.7539    0.9737 C   0  0  0  0  0  0  0  0  0  0  0  0
    7.3780   -4.6349    0.6922 N   0  0  0  0  0  0  0  0  0  0  0  0
    3.5354    0.1687    2.2915 H   0  0  0  0  0  0  0  0  0  0  0  0
    2.4213   -3.5769   -0.1539 H   0  0  0  0  0  0  0  0  0  0  0  0
    0.3317   -3.4436   -1.4444 H   0  0  0  0  0  0  0  0  0  0  0  0
    2.4258    0.7124    0.2698 H   0  0  0  0  0  0  0  0  0  0  0  0
    1.4148    2.5345   -0.4985 H   0  0  0  0  0  0  0  0  0  0  0  0
    0.2775    1.9360    0.7468 H   0  0  0  0  0  0  0  0  0  0  0  0
   -0.3375    4.2258   -0.1171 H   0  0  0  0  0  0  0  0  0  0  0  0
   -0.4294    3.5641   -1.7529 H   0  0  0  0  0  0  0  0  0  0  0  0
   -1.9469    1.7624    1.1042 H   0  0  0  0  0  0  0  0  0  0  0  0
   -1.9748    3.5186    1.4605 H   0  0  0  0  0  0  0  0  0  0  0  0
   -4.3402    3.5476    0.3762 H   0  0  0  0  0  0  0  0  0  0  0  0
   -4.1662    2.7552    1.9506 H   0  0  0  0  0  0  0  0  0  0  0  0
   -5.1878    2.2941   -1.3306 H   0  0  0  0  0  0  0  0  0  0  0  0
   -3.6016    1.4969   -1.4872 H   0  0  0  0  0  0  0  0  0  0  0  0
   -5.5684    0.1804   -2.4928 H   0  0  0  0  0  0  0  0  0  0  0  0
   -6.2241    0.0474   -0.8550 H   0  0  0  0  0  0  0  0  0  0  0  0
   -3.4617   -2.1504   -2.5165 H   0  0  0  0  0  0  0  0  0  0  0  0
   -3.3365   -0.4244   -2.7946 H   0  0  0  0  0  0  0  0  0  0  0  0
   -2.1637   -1.9983   -0.4314 H   0  0  0  0  0  0  0  0  0  0  0  0
   -2.0875   -0.2355   -0.5716 H   0  0  0  0  0  0  0  0  0  0  0  0
  1  2  3  0
  2  3  1  0
  3  4  2  0
  4  5  1  0
  5  6  2  0
  6  7  1  0
  7  8  2  0
  8  9  1  0
  9 10  2  0
 10 11  1  0
 11 12  2  0
 11 13  1  0
 13 14  1  0
 14 15  1  0
 15 16  1  0
 16 17  1  0
 17 18  1  0
 18 19  1  0
 19 20  1  0
 20 21  1  0
 21 22  1  0
 22 23  1  0
 23 24  1  0
 24 25  1  0
  6 26  1  0
 26 27  2  0
 27 28  1  0
 28 29  3  0
 27  3  1  0
 12  7  1  0
 25 10  1  0
  5 30  1  0
  8 31  1  0
  9 32  1  0
 12 33  1  0
 14 34  1  0
 14 35  1  0
 15 36  1  0
 15 37  1  0
 17 38  1  0
 17 39  1  0
 18 40  1  0
 18 41  1  0
 20 42  1  0
 20 43  1  0
 21 44  1  0
 21 45  1  0
 23 46  1  0
 23 47  1  0
 24 48  1  0
 24 49  1  0
M  END
$$$$
