
     RDKit          3D

 50 52  0  0  0  0  0  0  0  0999 V2000
   -8.8319    0.9892    0.4970 C   0  0  0  0  0  0  0  0  0  0  0  0
   -8.0382    0.0893   -0.2627 O   0  0  0  0  0  0  0  0  0  0  0  0
   -6.6736    0.1995   -0.1667 C   0  0  0  0  0  0  0  0  0  0  0  0
   -6.0113    1.1347    0.6364 C   0  0  0  0  0  0  0  0  0  0  0  0
   -4.6143    1.1769    0.6706 C   0  0  0  0  0  0  0  0  0  0  0  0
   -3.8701    0.2861   -0.1087 C   0  0  0  0  0  0  0  0  0  0  0  0
   -2.3825    0.2920   -0.1061 C   0  0  0  0  0  0  0  0  0  0  0  0
   -1.7619   -0.7496   -0.3001 O   0  0  0  0  0  0  0  0  0  0  0  0
   -1.7739    1.5267    0.0787 N   0  0  0  0  0  0  0  0  0  0  0  0
   -0.4225    1.8331    0.1870 C   0  0  0  0  0  0  0  0  0  0  0  0
   -0.0785    3.4547    0.3861 S   0  0  0  0  0  0  0  0  0  0  0  0
    0.4153    0.7468    0.1130 N   0  0  0  0  0  0  0  0  0  0  0  0
    1.8139    0.5797    0.2041 C   0  0  0  0  0  0  0  0  0  0  0  0
    2.7446    1.5742    0.4696 C   0  0  0  0  0  0  0  0  0  0  0  0
    4.1178    1.2741    0.5379 C   0  0  0  0  0  0  0  0  0  0  0  0
    4.6188   -0.0204    0.3474 C   0  0  0  0  0  0  0  0  0  0  0  0
    5.9614   -0.3015    0.4162 N   0  0  0  0  0  0  0  0  0  0  0  0
    6.9846    0.6638    0.8104 C   0  0  0  0  0  0  0  0  0  0  0  0
    8.2347   -0.1888    1.0124 C   0  0  0  0  0  0  0  0  0  0  0  0
    8.0468   -1.3144    0.0108 C   0  0  0  0  0  0  0  0  0  0  0  0
    6.5487   -1.5981    0.0880 C   0  0  0  0  0  0  0  0  0  0  0  0
    3.6644   -1.0094    0.0852 C   0  0  0  0  0  0  0  0  0  0  0  0
    2.2927   -0.7201    0.0159 C   0  0  0  0  0  0  0  0  0  0  0  0
   -4.5259   -0.6662   -0.8997 C   0  0  0  0  0  0  0  0  0  0  0  0
   -5.9235   -0.7137   -0.9368 C   0  0  0  0  0  0  0  0  0  0  0  0
   -6.6481   -1.6031   -1.6911 O   0  0  0  0  0  0  0  0  0  0  0  0
   -5.9317   -2.5932   -2.4160 C   0  0  0  0  0  0  0  0  0  0  0  0
   -9.8829    0.7617    0.2942 H   0  0  0  0  0  0  0  0  0  0  0  0
   -8.6639    0.8541    1.5705 H   0  0  0  0  0  0  0  0  0  0  0  0
   -8.6522    2.0262    0.1950 H   0  0  0  0  0  0  0  0  0  0  0  0
   -6.5561    1.8396    1.2564 H   0  0  0  0  0  0  0  0  0  0  0  0
   -4.1336    1.8915    1.3335 H   0  0  0  0  0  0  0  0  0  0  0  0
   -2.3595    2.3497    0.1128 H   0  0  0  0  0  0  0  0  0  0  0  0
   -0.0887   -0.1234   -0.0682 H   0  0  0  0  0  0  0  0  0  0  0  0
    2.4662    2.6048    0.6384 H   0  0  0  0  0  0  0  0  0  0  0  0
    4.7939    2.1003    0.7409 H   0  0  0  0  0  0  0  0  0  0  0  0
    6.7343    1.1908    1.7373 H   0  0  0  0  0  0  0  0  0  0  0  0
    7.1431    1.3935    0.0081 H   0  0  0  0  0  0  0  0  0  0  0  0
    9.1572    0.3759    0.8521 H   0  0  0  0  0  0  0  0  0  0  0  0
    8.2527   -0.5949    2.0311 H   0  0  0  0  0  0  0  0  0  0  0  0
    8.6522   -2.1956    0.2400 H   0  0  0  0  0  0  0  0  0  0  0  0
    8.3124   -0.9671   -0.9951 H   0  0  0  0  0  0  0  0  0  0  0  0
    6.3349   -2.3201    0.8844 H   0  0  0  0  0  0  0  0  0  0  0  0
    6.1912   -1.9951   -0.8682 H   0  0  0  0  0  0  0  0  0  0  0  0
    3.9657   -2.0420   -0.0640 H   0  0  0  0  0  0  0  0  0  0  0  0
    1.6067   -1.5390   -0.1898 H   0  0  0  0  0  0  0  0  0  0  0  0
   -3.9222   -1.3558   -1.4824 H   0  0  0  0  0  0  0  0  0  0  0  0
   -5.3429   -3.2273   -1.7450 H   0  0  0  0  0  0  0  0  0  0  0  0
   -6.6627   -3.2324   -2.9205 H   0  0  0  0  0  0  0  0  0  0  0  0
   -5.3014   -2.1376   -3.1866 H   0  0  0  0  0  0  0  0  0  0  0  0
  1  2  1  0
  2  3  1  0
  3  4  2  0
  4  5  1  0
  5  6  2  0
  6  7  1  0
  7  8  2  0
  7  9  1  0
  9 10  1  0
 10 11  2  0
 10 12  1  0
 12 13  1  0
 13 14  2  0
 14 15  1  0
 15 16  2  0
 16 17  1  0
 17 18  1  0
 18 19  1  0
 19 20  1  0
 20 21  1  0
 16 22  1  0
 22 23  2  0
  6 24  1  0
 24 25  2  0
 25 26  1  0
 26 27  1  0
 25  3  1  0
 23 13  1  0
 21 17  1  0
  1 28  1  0
  1 29  1  0
  1 30  1  0
  4 31  1  0
  5 32  1  0
  9 33  1  0
 12 34  1  0
 14 35  1  0
 15 36  1  0
 18 37  1  0
 18 38  1  0
 19 39  1  0
 19 40  1  0
 20 41  1  0
 20 42  1  0
 21 43  1  0
 21 44  1  0
 22 45  1  0
 23 46  1  0
 24 47  1  0
 27 48  1  0
 27 49  1  0
 27 50  1  0
M  END
$$$$
