
     RDKit          3D

 55 57  0  0  0  0  0  0  0  0999 V2000
    0.0034   -0.1721   -1.6893 O   0  0  0  0  0  0  0  0  0  0  0  0
    0.0491    0.0969   -0.4941 C   0  0  0  0  0  0  0  0  0  0  0  0
   -0.8191   -0.4410    0.4347 N   0  0  0  0  0  0  0  0  0  0  0  0
   -1.9108   -1.3078    0.0336 C   0  0  0  0  0  0  0  0  0  0  0  0
   -3.1178   -0.5037   -0.4518 C   0  0  0  0  0  0  0  0  0  0  0  0
   -4.2734   -1.4268   -0.8381 C   0  0  0  0  0  0  0  0  0  0  0  0
   -5.5558   -0.7573   -1.3632 C   0  0  0  0  0  0  0  0  0  0  0  0
   -6.2200    0.2150   -0.3901 C   0  0  0  0  0  0  0  0  0  0  0  0
   -5.7062    1.6028   -0.7523 C   0  0  0  0  0  0  0  0  0  0  0  0
   -5.1869    1.5173   -2.1828 C   0  0  0  0  0  0  0  0  0  0  0  0
   -5.3718    0.0728   -2.6327 C   0  0  0  0  0  0  0  0  0  0  0  0
    1.0823    1.0367    0.1074 C   0  0  0  0  0  0  0  0  0  0  0  0
    1.8282    1.8224   -0.9645 C   0  0  0  0  0  0  0  0  0  0  0  0
    2.8004    2.7822   -0.3051 C   0  0  0  0  0  0  0  0  0  0  0  0
    3.6994    2.1510    0.7417 C   0  0  0  0  0  0  0  0  0  0  0  0
    4.7719    2.6856    1.0262 O   0  0  0  0  0  0  0  0  0  0  0  0
    3.2057    1.0443    1.4211 N   0  0  0  0  0  0  0  0  0  0  0  0
    4.0464    0.4382    2.4541 C   0  0  0  0  0  0  0  0  0  0  0  0
    4.8658   -0.7264    1.9442 C   0  0  0  0  0  0  0  0  0  0  0  0
    6.0071   -0.5016    1.1592 C   0  0  0  0  0  0  0  0  0  0  0  0
    6.7583   -1.5742    0.6736 C   0  0  0  0  0  0  0  0  0  0  0  0
    6.3719   -2.8787    0.9694 C   0  0  0  0  0  0  0  0  0  0  0  0
    7.2957   -4.2017    0.3721 Cl  0  0  0  0  0  0  0  0  0  0  0  0
    5.2410   -3.1201    1.7467 C   0  0  0  0  0  0  0  0  0  0  0  0
    4.4893   -2.0472    2.2325 C   0  0  0  0  0  0  0  0  0  0  0  0
    2.1076    0.2327    0.8955 C   0  0  0  0  0  0  0  0  0  0  0  0
   -0.8624   -0.0335    1.3599 H   0  0  0  0  0  0  0  0  0  0  0  0
   -1.5580   -1.9832   -0.7538 H   0  0  0  0  0  0  0  0  0  0  0  0
   -2.1767   -1.9106    0.9083 H   0  0  0  0  0  0  0  0  0  0  0  0
   -3.4282    0.1800    0.3454 H   0  0  0  0  0  0  0  0  0  0  0  0
   -2.8197    0.1088   -1.3087 H   0  0  0  0  0  0  0  0  0  0  0  0
   -4.5407   -2.0365    0.0350 H   0  0  0  0  0  0  0  0  0  0  0  0
   -3.9195   -2.1301   -1.6033 H   0  0  0  0  0  0  0  0  0  0  0  0
   -6.2558   -1.5762   -1.5761 H   0  0  0  0  0  0  0  0  0  0  0  0
   -7.3065    0.1906   -0.5432 H   0  0  0  0  0  0  0  0  0  0  0  0
   -6.0369   -0.0327    0.6601 H   0  0  0  0  0  0  0  0  0  0  0  0
   -4.9004    1.9090   -0.0767 H   0  0  0  0  0  0  0  0  0  0  0  0
   -6.4992    2.3523   -0.6576 H   0  0  0  0  0  0  0  0  0  0  0  0
   -5.7251    2.2041   -2.8449 H   0  0  0  0  0  0  0  0  0  0  0  0
   -4.1309    1.8058   -2.2193 H   0  0  0  0  0  0  0  0  0  0  0  0
   -6.2837    0.0075   -3.2399 H   0  0  0  0  0  0  0  0  0  0  0  0
   -4.5436   -0.2739   -3.2587 H   0  0  0  0  0  0  0  0  0  0  0  0
    0.5606    1.7412    0.7688 H   0  0  0  0  0  0  0  0  0  0  0  0
    2.3742    1.1403   -1.6294 H   0  0  0  0  0  0  0  0  0  0  0  0
    1.1254    2.3810   -1.5941 H   0  0  0  0  0  0  0  0  0  0  0  0
    2.2507    3.5929    0.1879 H   0  0  0  0  0  0  0  0  0  0  0  0
    3.4366    3.2315   -1.0761 H   0  0  0  0  0  0  0  0  0  0  0  0
    4.7197    1.1861    2.8900 H   0  0  0  0  0  0  0  0  0  0  0  0
    3.3882    0.1155    3.2702 H   0  0  0  0  0  0  0  0  0  0  0  0
    6.3166    0.5157    0.9222 H   0  0  0  0  0  0  0  0  0  0  0  0
    7.6393   -1.3826    0.0670 H   0  0  0  0  0  0  0  0  0  0  0  0
    4.9402   -4.1386    1.9766 H   0  0  0  0  0  0  0  0  0  0  0  0
    3.6080   -2.2507    2.8366 H   0  0  0  0  0  0  0  0  0  0  0  0
    1.6216   -0.2642    1.7436 H   0  0  0  0  0  0  0  0  0  0  0  0
    2.5447   -0.5498    0.2623 H   0  0  0  0  0  0  0  0  0  0  0  0
  1  2  2  0
  2  3  1  0
  3  4  1  0
  4  5  1  0
  5  6  1  0
  6  7  1  0
  7  8  1  0
  8  9  1  0
  9 10  1  0
 10 11  1  0
  2 12  1  0
 12 13  1  0
 13 14  1  0
 14 15  1  0
 15 16  2  0
 15 17  1  0
 17 18  1  0
 18 19  1  0
 19 20  2  0
 20 21  1  0
 21 22  2  0
 22 23  1  0
 22 24  1  0
 24 25  2  0
 17 26  1  0
 11  7  1  0
 26 12  1  0
 25 19  1  0
  3 27  1  0
  4 28  1  0
  4 29  1  0
  5 30  1  0
  5 31  1  0
  6 32  1  0
  6 33  1  0
  7 34  1  0
  8 35  1  0
  8 36  1  0
  9 37  1  0
  9 38  1  0
 10 39  1  0
 10 40  1  0
 11 41  1  0
 11 42  1  0
 12 43  1  0
 13 44  1  0
 13 45  1  0
 14 46  1  0
 14 47  1  0
 18 48  1  0
 18 49  1  0
 20 50  1  0
 21 51  1  0
 24 52  1  0
 25 53  1  0
 26 54  1  0
 26 55  1  0
M  END
$$$$
