
     RDKit          3D

 57 60  0  0  0  0  0  0  0  0999 V2000
   -2.6964   -0.8527   -1.4326 O   0  0  0  0  0  0  0  0  0  0  0  0
   -1.7598   -0.2921   -0.8842 C   0  0  0  0  0  0  0  0  0  0  0  0
   -1.6197    1.0473   -0.5862 N   0  0  0  0  0  0  0  0  0  0  0  0
   -2.5359    2.0953   -0.8332 C   0  0  0  0  0  0  0  0  0  0  0  0
   -3.7372    1.9146   -1.5214 C   0  0  0  0  0  0  0  0  0  0  0  0
   -4.6060    2.9917   -1.7294 C   0  0  0  0  0  0  0  0  0  0  0  0
   -4.2883    4.2574   -1.2442 C   0  0  0  0  0  0  0  0  0  0  0  0
   -3.0953    4.4550   -0.5538 C   0  0  0  0  0  0  0  0  0  0  0  0
   -2.2236    3.3818   -0.3541 C   0  0  0  0  0  0  0  0  0  0  0  0
   -0.7565    3.6686    0.5218 Cl  0  0  0  0  0  0  0  0  0  0  0  0
   -0.5885   -1.0894   -0.4713 C   0  0  0  0  0  0  0  0  0  0  0  0
    0.5155   -1.0205   -1.3394 C   0  0  0  0  0  0  0  0  0  0  0  0
    1.6745   -1.7328   -1.0400 C   0  0  0  0  0  0  0  0  0  0  0  0
    3.0742   -1.6529   -2.1392 S   0  0  0  0  0  6  0  0  0  0  0  0
    3.8759   -2.8350   -1.8969 O   0  0  0  0  0  0  0  0  0  0  0  0
    2.5699   -1.3439   -3.4607 O   0  0  0  0  0  0  0  0  0  0  0  0
    3.9237   -0.3042   -1.5605 N   0  0  0  0  0  0  0  0  0  0  0  0
    3.4029    1.0461   -1.8767 C   0  0  0  0  0  0  0  0  0  0  0  0
    3.3373    1.9277   -0.6367 C   0  0  0  0  0  0  0  0  0  0  0  0
    4.7007    2.0624    0.0326 C   0  0  0  0  0  0  0  0  0  0  0  0
    5.5232    0.7753   -0.0419 C   0  0  0  0  0  0  0  0  0  0  0  0
    4.6481   -0.4507   -0.2801 C   0  0  0  0  0  0  0  0  0  0  0  0
    1.7200   -2.5556    0.0838 C   0  0  0  0  0  0  0  0  0  0  0  0
    0.6090   -2.6260    0.9304 C   0  0  0  0  0  0  0  0  0  0  0  0
   -0.5701   -1.8894    0.6885 C   0  0  0  0  0  0  0  0  0  0  0  0
   -1.5917   -2.0516    1.6326 N   0  0  0  0  0  0  0  0  0  0  0  0
   -2.4271   -3.2495    1.3636 C   0  0  0  0  0  0  0  0  0  0  0  0
   -3.2896   -3.5549    2.6017 C   0  0  0  0  0  0  0  0  0  0  0  0
   -4.0940   -2.4289    2.9905 O   0  0  0  0  0  0  0  0  0  0  0  0
   -3.2631   -1.2834    3.2550 C   0  0  0  0  0  0  0  0  0  0  0  0
   -2.4337   -0.9004    2.0172 C   0  0  0  0  0  0  0  0  0  0  0  0
   -0.7864    1.3236   -0.0779 H   0  0  0  0  0  0  0  0  0  0  0  0
   -4.0311    0.9412   -1.9063 H   0  0  0  0  0  0  0  0  0  0  0  0
   -5.5428    2.8315   -2.2600 H   0  0  0  0  0  0  0  0  0  0  0  0
   -4.9726    5.0870   -1.4043 H   0  0  0  0  0  0  0  0  0  0  0  0
   -2.8513    5.4432   -0.1754 H   0  0  0  0  0  0  0  0  0  0  0  0
    0.4541   -0.4269   -2.2505 H   0  0  0  0  0  0  0  0  0  0  0  0
    2.4038    0.9967   -2.3209 H   0  0  0  0  0  0  0  0  0  0  0  0
    4.0630    1.4991   -2.6274 H   0  0  0  0  0  0  0  0  0  0  0  0
    2.6230    1.4963    0.0775 H   0  0  0  0  0  0  0  0  0  0  0  0
    2.9555    2.9213   -0.8978 H   0  0  0  0  0  0  0  0  0  0  0  0
    5.2699    2.8737   -0.4380 H   0  0  0  0  0  0  0  0  0  0  0  0
    4.5584    2.3584    1.0787 H   0  0  0  0  0  0  0  0  0  0  0  0
    6.1030    0.6538    0.8812 H   0  0  0  0  0  0  0  0  0  0  0  0
    6.2502    0.8623   -0.8604 H   0  0  0  0  0  0  0  0  0  0  0  0
    5.2933   -1.3343   -0.3195 H   0  0  0  0  0  0  0  0  0  0  0  0
    3.9413   -0.5770    0.5475 H   0  0  0  0  0  0  0  0  0  0  0  0
    2.6052   -3.1465    0.3098 H   0  0  0  0  0  0  0  0  0  0  0  0
    0.6630   -3.2645    1.8121 H   0  0  0  0  0  0  0  0  0  0  0  0
   -3.0766   -3.0568    0.5008 H   0  0  0  0  0  0  0  0  0  0  0  0
   -1.8088   -4.1254    1.1412 H   0  0  0  0  0  0  0  0  0  0  0  0
   -3.9683   -4.3878    2.3880 H   0  0  0  0  0  0  0  0  0  0  0  0
   -2.6603   -3.8457    3.4516 H   0  0  0  0  0  0  0  0  0  0  0  0
   -2.6174   -1.5018    4.1144 H   0  0  0  0  0  0  0  0  0  0  0  0
   -3.9224   -0.4562    3.5323 H   0  0  0  0  0  0  0  0  0  0  0  0
   -1.8107   -0.0300    2.2521 H   0  0  0  0  0  0  0  0  0  0  0  0
   -3.1335   -0.6448    1.2161 H   0  0  0  0  0  0  0  0  0  0  0  0
  1  2  2  0
  2  3  1  0
  3  4  1  0
  4  5  2  0
  5  6  1  0
  6  7  2  0
  7  8  1  0
  8  9  2  0
  9 10  1  0
  2 11  1  0
 11 12  2  0
 12 13  1  0
 13 14  1  0
 14 15  2  0
 14 16  2  0
 14 17  1  0
 17 18  1  0
 18 19  1  0
 19 20  1  0
 20 21  1  0
 21 22  1  0
 13 23  2  0
 23 24  1  0
 24 25  2  0
 25 26  1  0
 26 27  1  0
 27 28  1  0
 28 29  1  0
 29 30  1  0
 30 31  1  0
  9  4  1  0
 25 11  1  0
 31 26  1  0
 22 17  1  0
  3 32  1  0
  5 33  1  0
  6 34  1  0
  7 35  1  0
  8 36  1  0
 12 37  1  0
 18 38  1  0
 18 39  1  0
 19 40  1  0
 19 41  1  0
 20 42  1  0
 20 43  1  0
 21 44  1  0
 21 45  1  0
 22 46  1  0
 22 47  1  0
 23 48  1  0
 24 49  1  0
 27 50  1  0
 27 51  1  0
 28 52  1  0
 28 53  1  0
 30 54  1  0
 30 55  1  0
 31 56  1  0
 31 57  1  0
M  END
$$$$
