
     RDKit          3D

 38 41  0  0  0  0  0  0  0  0999 V2000
    8.1539    1.6641    0.3506 C   0  0  0  0  0  0  0  0  0  0  0  0
    6.6785    1.7749    0.4596 C   0  0  0  0  0  0  0  0  0  0  0  0
    6.0293    2.8287    0.9074 N   0  0  0  0  0  0  0  0  0  0  0  0
    4.6625    2.6350    0.8912 N   0  0  0  0  0  0  0  0  0  0  0  0
    4.3326    1.4474    0.4334 C   0  0  0  0  0  0  0  0  0  0  0  0
    3.0252    1.0485    0.3332 N   0  0  0  0  0  0  0  0  0  0  0  0
    2.5440   -0.1578   -0.1266 C   0  0  0  0  0  0  0  0  0  0  0  0
    3.2499   -1.0794   -0.5299 O   0  0  0  0  0  0  0  0  0  0  0  0
    1.0817   -0.2795   -0.1066 C   0  0  0  0  0  0  0  0  0  0  0  0
    0.0760    1.0531    0.2779 S   0  0  0  0  0  0  0  0  0  0  0  0
   -1.3420    0.1425    0.0663 C   0  0  0  0  0  0  0  0  0  0  0  0
   -2.5372    0.7283    0.2579 N   0  0  0  0  0  0  0  0  0  0  0  0
   -3.6095   -0.0688    0.0920 C   0  0  0  0  0  0  0  0  0  0  0  0
   -4.8933    0.6270    0.3195 C   0  0  0  0  0  0  0  0  0  0  0  0
   -5.0884    1.9339    0.7447 C   0  0  0  0  0  0  0  0  0  0  0  0
   -6.4623    2.2924    0.8592 C   0  0  0  0  0  0  0  0  0  0  0  0
   -7.2907    1.2508    0.5160 C   0  0  0  0  0  0  0  0  0  0  0  0
   -6.4125   -0.1400    0.0608 S   0  0  0  0  0  0  0  0  0  0  0  0
   -3.5047   -1.4119   -0.2492 C   0  0  0  0  0  0  0  0  0  0  0  0
   -2.2412   -2.0059   -0.4562 C   0  0  0  0  0  0  0  0  0  0  0  0
   -2.1646   -3.4725   -0.7848 C   0  0  0  0  0  0  0  0  0  0  0  0
   -3.3583   -3.9933   -1.1894 F   0  0  0  0  0  0  0  0  0  0  0  0
   -1.7755   -4.2286    0.2765 F   0  0  0  0  0  0  0  0  0  0  0  0
   -1.2906   -3.7553   -1.7929 F   0  0  0  0  0  0  0  0  0  0  0  0
   -1.1007   -1.1773   -0.2917 C   0  0  0  0  0  0  0  0  0  0  0  0
    0.3186   -1.3996   -0.3993 C   0  0  0  0  0  0  0  0  0  0  0  0
    0.8712   -2.5884   -0.7409 N   0  0  0  0  0  0  0  0  0  0  0  0
    5.6594    0.4772   -0.0121 S   0  0  0  0  0  0  0  0  0  0  0  0
    8.5292    0.8387    0.9638 H   0  0  0  0  0  0  0  0  0  0  0  0
    8.6339    2.5852    0.6962 H   0  0  0  0  0  0  0  0  0  0  0  0
    8.4566    1.4962   -0.6878 H   0  0  0  0  0  0  0  0  0  0  0  0
    2.3634    1.7472    0.6435 H   0  0  0  0  0  0  0  0  0  0  0  0
   -4.2674    2.6070    0.9656 H   0  0  0  0  0  0  0  0  0  0  0  0
   -6.8205    3.2642    1.1760 H   0  0  0  0  0  0  0  0  0  0  0  0
   -8.3722    1.2395    0.5093 H   0  0  0  0  0  0  0  0  0  0  0  0
   -4.3955   -2.0266   -0.3558 H   0  0  0  0  0  0  0  0  0  0  0  0
    0.3788   -3.2681   -1.3207 H   0  0  0  0  0  0  0  0  0  0  0  0
    1.8820   -2.6290   -0.9161 H   0  0  0  0  0  0  0  0  0  0  0  0
  1  2  1  0
  2  3  2  0
  3  4  1  0
  4  5  2  0
  5  6  1  0
  6  7  1  0
  7  8  2  0
  7  9  1  0
  9 10  1  0
 10 11  1  0
 11 12  2  0
 12 13  1  0
 13 14  1  0
 14 15  2  0
 15 16  1  0
 16 17  2  0
 17 18  1  0
 13 19  2  0
 19 20  1  0
 20 21  1  0
 21 22  1  0
 21 23  1  0
 21 24  1  0
 20 25  2  0
 25 26  1  0
 26 27  1  0
  5 28  1  0
 28  2  1  0
 26  9  2  0
 25 11  1  0
 18 14  1  0
  1 29  1  0
  1 30  1  0
  1 31  1  0
  6 32  1  0
 15 33  1  0
 16 34  1  0
 17 35  1  0
 19 36  1  0
 27 37  1  0
 27 38  1  0
M  END
$$$$
