
     RDKit          3D

 47 49  0  0  0  0  0  0  0  0999 V2000
    1.0342    1.2300   -1.4599 O   0  0  0  0  0  0  0  0  0  0  0  0
    0.6943    0.7058   -0.4046 C   0  0  0  0  0  0  0  0  0  0  0  0
    1.2696    1.1391    0.9346 C   0  0  0  0  0  0  0  0  0  0  0  0
    2.6017    1.8660    0.7985 C   0  0  0  0  0  0  0  0  0  0  0  0
    3.9635    0.6806    0.4996 S   0  0  0  0  0  0  0  0  0  0  0  0
    5.3090    1.8301    0.2882 C   0  0  0  0  0  0  0  0  0  0  0  0
    5.3454    2.7025   -0.8040 C   0  0  0  0  0  0  0  0  0  0  0  0
    6.4112    3.5913   -0.9602 C   0  0  0  0  0  0  0  0  0  0  0  0
    7.4490    3.6063   -0.0295 C   0  0  0  0  0  0  0  0  0  0  0  0
    7.4249    2.7295    1.0541 C   0  0  0  0  0  0  0  0  0  0  0  0
    6.3592    1.8403    1.2104 C   0  0  0  0  0  0  0  0  0  0  0  0
   -0.2839   -0.2591   -0.2523 N   0  0  0  0  0  0  0  0  0  0  0  0
   -0.9925   -0.9596   -1.2601 C   0  0  0  0  0  0  0  0  0  0  0  0
   -0.6804   -0.8434   -2.6189 C   0  0  0  0  0  0  0  0  0  0  0  0
   -1.3549   -1.6079   -3.5776 C   0  0  0  0  0  0  0  0  0  0  0  0
   -2.3426   -2.5097   -3.1925 C   0  0  0  0  0  0  0  0  0  0  0  0
   -2.6779   -2.6315   -1.8463 C   0  0  0  0  0  0  0  0  0  0  0  0
   -2.0337   -1.8376   -0.8846 C   0  0  0  0  0  0  0  0  0  0  0  0
   -2.4363   -1.9515    0.5432 C   0  0  0  0  0  0  0  0  0  0  0  0
   -1.5496   -2.0238    1.3944 O   0  0  0  0  0  0  0  0  0  0  0  0
   -3.7801   -1.9139    0.8749 N   0  0  0  0  0  0  0  0  0  0  0  0
   -4.1893   -2.0102    2.2661 C   0  0  0  0  0  0  0  0  0  0  0  0
   -5.7067   -1.9256    2.2217 C   0  0  0  0  0  0  0  0  0  0  0  0
   -5.9506   -1.0044    1.0336 C   0  0  0  0  0  0  0  0  0  0  0  0
   -4.8792   -1.4393    0.0407 C   0  0  0  0  0  0  0  0  0  0  0  0
    1.3563    0.2803    1.6109 H   0  0  0  0  0  0  0  0  0  0  0  0
    0.5374    1.8276    1.3751 H   0  0  0  0  0  0  0  0  0  0  0  0
    2.8213    2.3925    1.7336 H   0  0  0  0  0  0  0  0  0  0  0  0
    2.5642    2.6100   -0.0032 H   0  0  0  0  0  0  0  0  0  0  0  0
    4.5502    2.6902   -1.5462 H   0  0  0  0  0  0  0  0  0  0  0  0
    6.4330    4.2663   -1.8118 H   0  0  0  0  0  0  0  0  0  0  0  0
    8.2800    4.2960   -0.1530 H   0  0  0  0  0  0  0  0  0  0  0  0
    8.2375    2.7339    1.7759 H   0  0  0  0  0  0  0  0  0  0  0  0
    6.3557    1.1571    2.0561 H   0  0  0  0  0  0  0  0  0  0  0  0
   -0.4885   -0.5684    0.6998 H   0  0  0  0  0  0  0  0  0  0  0  0
    0.1082   -0.1831   -2.9674 H   0  0  0  0  0  0  0  0  0  0  0  0
   -1.0856   -1.5097   -4.6270 H   0  0  0  0  0  0  0  0  0  0  0  0
   -2.8429   -3.1208   -3.9396 H   0  0  0  0  0  0  0  0  0  0  0  0
   -3.4300   -3.3572   -1.5493 H   0  0  0  0  0  0  0  0  0  0  0  0
   -3.7594   -1.1615    2.8106 H   0  0  0  0  0  0  0  0  0  0  0  0
   -3.8229   -2.9401    2.7110 H   0  0  0  0  0  0  0  0  0  0  0  0
   -6.1361   -1.5471    3.1531 H   0  0  0  0  0  0  0  0  0  0  0  0
   -6.1350   -2.9147    2.0194 H   0  0  0  0  0  0  0  0  0  0  0  0
   -5.7845    0.0377    1.3323 H   0  0  0  0  0  0  0  0  0  0  0  0
   -6.9617   -1.0879    0.6261 H   0  0  0  0  0  0  0  0  0  0  0  0
   -4.5628   -0.6245   -0.6163 H   0  0  0  0  0  0  0  0  0  0  0  0
   -5.2385   -2.2809   -0.5597 H   0  0  0  0  0  0  0  0  0  0  0  0
  1  2  2  0
  2  3  1  0
  3  4  1  0
  4  5  1  0
  5  6  1  0
  6  7  2  0
  7  8  1  0
  8  9  2  0
  9 10  1  0
 10 11  2  0
  2 12  1  0
 12 13  1  0
 13 14  2  0
 14 15  1  0
 15 16  2  0
 16 17  1  0
 17 18  2  0
 18 19  1  0
 19 20  2  0
 19 21  1  0
 21 22  1  0
 22 23  1  0
 23 24  1  0
 24 25  1  0
 11  6  1  0
 18 13  1  0
 25 21  1  0
  3 26  1  0
  3 27  1  0
  4 28  1  0
  4 29  1  0
  7 30  1  0
  8 31  1  0
  9 32  1  0
 10 33  1  0
 11 34  1  0
 12 35  1  0
 14 36  1  0
 15 37  1  0
 16 38  1  0
 17 39  1  0
 22 40  1  0
 22 41  1  0
 23 42  1  0
 23 43  1  0
 24 44  1  0
 24 45  1  0
 25 46  1  0
 25 47  1  0
M  END
$$$$
