
     RDKit          3D

 56 60  0  0  0  0  0  0  0  0999 V2000
    1.6109    1.7893   -3.2445 C   0  0  0  0  0  0  0  0  0  0  0  0
    1.8128    0.8085   -2.1141 C   0  0  0  0  0  0  0  0  0  0  0  0
    0.7288    0.0671   -1.5718 C   0  0  0  0  0  0  0  0  0  0  0  0
   -0.5815    0.2381   -2.0523 C   0  0  0  0  0  0  0  0  0  0  0  0
   -1.6401   -0.4751   -1.5139 C   0  0  0  0  0  0  0  0  0  0  0  0
   -1.4303   -1.3472   -0.5126 N   0  0  0  0  0  4  0  0  0  0  0  0
   -2.5811   -2.0928    0.0657 C   0  0  0  0  0  0  0  0  0  0  0  0
   -3.2362   -1.2615    1.1824 C   0  0  0  0  0  0  0  0  0  0  0  0
   -3.8511   -0.0170    0.6851 N   0  0  0  0  0  0  0  0  0  0  0  0
   -5.1629   -0.2409    0.0407 C   0  0  0  0  0  0  0  0  0  0  0  0
   -6.3611    0.2022    0.8773 C   0  0  0  0  0  0  0  0  0  0  0  0
   -6.2767    1.6851    1.2306 C   0  0  0  0  0  0  0  0  0  0  0  0
   -4.8342    2.1557    1.4053 C   0  0  0  0  0  0  0  0  0  0  0  0
   -3.9102    0.9946    1.7612 C   0  0  0  0  0  0  0  0  0  0  0  0
   -0.1865   -1.5402   -0.0236 C   0  0  0  0  0  0  0  0  0  0  0  0
    0.9407   -0.8645   -0.5276 C   0  0  0  0  0  0  0  0  0  0  0  0
    2.2593   -1.0931   -0.0121 C   0  0  0  0  0  0  0  0  0  0  0  0
    2.4974   -2.1522    1.0404 C   0  0  0  0  0  0  0  0  0  0  0  0
    3.3310   -0.2855   -0.4912 C   0  0  0  0  0  0  0  0  0  0  0  0
    3.0788    0.6106   -1.5295 C   0  0  0  0  0  0  0  0  0  0  0  0
    4.2797    1.2157   -1.8361 N   0  0  0  0  0  0  0  0  0  0  0  0
    5.2847    0.7930   -1.0089 C   0  0  0  0  0  0  0  0  0  0  0  0
    6.6301    1.1812   -0.9750 C   0  0  0  0  0  0  0  0  0  0  0  0
    7.4463    0.6023   -0.0043 C   0  0  0  0  0  0  0  0  0  0  0  0
    6.9247   -0.3175    0.8910 C   0  0  0  0  0  0  0  0  0  0  0  0
    7.7768   -0.8350    1.8235 O   0  0  0  0  0  0  0  0  0  0  0  0
    5.5802   -0.6993    0.8476 C   0  0  0  0  0  0  0  0  0  0  0  0
    4.7293   -0.1414   -0.1377 C   0  0  0  0  0  0  0  0  0  0  0  0
    2.5488    2.2429   -3.5757 H   0  0  0  0  0  0  0  0  0  0  0  0
    0.9502    2.6022   -2.9260 H   0  0  0  0  0  0  0  0  0  0  0  0
    1.1780    1.2829   -4.1135 H   0  0  0  0  0  0  0  0  0  0  0  0
   -0.8056    0.9416   -2.8512 H   0  0  0  0  0  0  0  0  0  0  0  0
   -2.6581   -0.3423   -1.8677 H   0  0  0  0  0  0  0  0  0  0  0  0
   -2.2001   -3.0404    0.4628 H   0  0  0  0  0  0  0  0  0  0  0  0
   -3.2718   -2.3320   -0.7500 H   0  0  0  0  0  0  0  0  0  0  0  0
   -2.4477   -1.0175    1.9066 H   0  0  0  0  0  0  0  0  0  0  0  0
   -3.9761   -1.8698    1.7175 H   0  0  0  0  0  0  0  0  0  0  0  0
   -5.1652    0.3275   -0.8982 H   0  0  0  0  0  0  0  0  0  0  0  0
   -5.2958   -1.2894   -0.2509 H   0  0  0  0  0  0  0  0  0  0  0  0
   -6.4038   -0.3944    1.7976 H   0  0  0  0  0  0  0  0  0  0  0  0
   -7.2941    0.0061    0.3367 H   0  0  0  0  0  0  0  0  0  0  0  0
   -6.8460    1.8648    2.1504 H   0  0  0  0  0  0  0  0  0  0  0  0
   -6.7559    2.2870    0.4491 H   0  0  0  0  0  0  0  0  0  0  0  0
   -4.4872    2.6272    0.4767 H   0  0  0  0  0  0  0  0  0  0  0  0
   -4.7893    2.9291    2.1805 H   0  0  0  0  0  0  0  0  0  0  0  0
   -2.8996    1.3837    1.9330 H   0  0  0  0  0  0  0  0  0  0  0  0
   -4.2497    0.5449    2.7041 H   0  0  0  0  0  0  0  0  0  0  0  0
   -0.1196   -2.2434    0.7988 H   0  0  0  0  0  0  0  0  0  0  0  0
    3.5137   -2.5461    0.9850 H   0  0  0  0  0  0  0  0  0  0  0  0
    2.3202   -1.7398    2.0378 H   0  0  0  0  0  0  0  0  0  0  0  0
    1.8591   -3.0276    0.8879 H   0  0  0  0  0  0  0  0  0  0  0  0
    4.4102    1.9071   -2.5598 H   0  0  0  0  0  0  0  0  0  0  0  0
    7.0332    1.9099   -1.6716 H   0  0  0  0  0  0  0  0  0  0  0  0
    8.4962    0.8788    0.0559 H   0  0  0  0  0  0  0  0  0  0  0  0
    7.2969   -1.4688    2.3799 H   0  0  0  0  0  0  0  0  0  0  0  0
    5.1997   -1.4042    1.5747 H   0  0  0  0  0  0  0  0  0  0  0  0
  1  2  1  0
  2  3  2  0
  3  4  1  0
  4  5  2  0
  5  6  1  0
  6  7  1  0
  7  8  1  0
  8  9  1  0
  9 10  1  0
 10 11  1  0
 11 12  1  0
 12 13  1  0
 13 14  1  0
  6 15  2  0
 15 16  1  0
 16 17  2  0
 17 18  1  0
 17 19  1  0
 19 20  2  0
 20 21  1  0
 21 22  1  0
 22 23  2  0
 23 24  1  0
 24 25  2  0
 25 26  1  0
 25 27  1  0
 27 28  2  0
 20  2  1  0
 28 22  1  0
 16  3  1  0
 28 19  1  0
 14  9  1  0
  1 29  1  0
  1 30  1  0
  1 31  1  0
  4 32  1  0
  5 33  1  0
  7 34  1  0
  7 35  1  0
  8 36  1  0
  8 37  1  0
 10 38  1  0
 10 39  1  0
 11 40  1  0
 11 41  1  0
 12 42  1  0
 12 43  1  0
 13 44  1  0
 13 45  1  0
 14 46  1  0
 14 47  1  0
 15 48  1  0
 18 49  1  0
 18 50  1  0
 18 51  1  0
 21 52  1  0
 23 53  1  0
 24 54  1  0
 26 55  1  0
 27 56  1  0
M  CHG  1   6   1
M  END
$$$$
