
     RDKit          3D

 36 38  0  0  0  0  0  0  0  0999 V2000
   -2.5527    0.7320   -0.1702 C   0  0  0  0  0  0  0  0  0  0  0  0
   -2.0240   -0.5173    0.5076 C   0  0  0  0  0  0  0  0  0  0  0  0
   -0.7779   -0.8955    0.4381 N   0  0  0  0  0  0  0  0  0  0  0  0
    0.0926   -0.1182   -0.2612 N   0  0  0  0  0  0  0  0  0  0  0  0
    1.4449   -0.5253   -0.3037 C   0  0  0  0  0  0  0  0  0  0  0  0
    1.7848   -1.7719    0.1213 N   0  0  0  0  0  0  0  0  0  0  0  0
    3.0674   -2.1444    0.1145 C   0  0  0  0  0  0  0  0  0  0  0  0
    4.1151   -1.4224   -0.2756 N   0  0  0  0  0  0  0  0  0  0  0  0
    3.7598   -0.2054   -0.7162 C   0  0  0  0  0  0  0  0  0  0  0  0
    4.9553    0.8666   -1.2669 S   0  0  0  0  0  0  0  0  0  0  0  0
    3.8064    2.0703   -1.6432 C   0  0  0  0  0  0  0  0  0  0  0  0
    4.2736    3.3671   -2.2231 C   0  0  0  0  0  0  0  0  0  0  0  0
    2.5073    1.6636   -1.3633 C   0  0  0  0  0  0  0  0  0  0  0  0
    1.2988    2.5035   -1.6398 C   0  0  0  0  0  0  0  0  0  0  0  0
    2.4784    0.3234   -0.7815 C   0  0  0  0  0  0  0  0  0  0  0  0
   -2.9867   -1.3442    1.3023 C   0  0  0  0  0  0  0  0  0  0  0  0
   -2.5894   -2.5741    1.8184 C   0  0  0  0  0  0  0  0  0  0  0  0
   -3.5072   -3.3105    2.5622 C   0  0  0  0  0  0  0  0  0  0  0  0
   -4.7827   -2.7980    2.7684 C   0  0  0  0  0  0  0  0  0  0  0  0
   -5.0906   -1.5628    2.2214 C   0  0  0  0  0  0  0  0  0  0  0  0
   -4.2246   -0.8228    1.4948 N   0  0  0  0  0  0  0  0  0  0  0  0
   -2.1974    1.6116    0.3746 H   0  0  0  0  0  0  0  0  0  0  0  0
   -2.1900    0.7774   -1.2016 H   0  0  0  0  0  0  0  0  0  0  0  0
   -3.6431    0.7626   -0.2122 H   0  0  0  0  0  0  0  0  0  0  0  0
   -0.0016    0.8878   -0.1919 H   0  0  0  0  0  0  0  0  0  0  0  0
    3.2762   -3.1478    0.4707 H   0  0  0  0  0  0  0  0  0  0  0  0
    5.3629    3.4730   -2.1893 H   0  0  0  0  0  0  0  0  0  0  0  0
    3.8443    4.2080   -1.6684 H   0  0  0  0  0  0  0  0  0  0  0  0
    3.9591    3.4457   -3.2691 H   0  0  0  0  0  0  0  0  0  0  0  0
    0.5390    1.9240   -2.1735 H   0  0  0  0  0  0  0  0  0  0  0  0
    0.8735    2.8752   -0.7025 H   0  0  0  0  0  0  0  0  0  0  0  0
    1.5359    3.3699   -2.2649 H   0  0  0  0  0  0  0  0  0  0  0  0
   -1.5871   -2.9554    1.6456 H   0  0  0  0  0  0  0  0  0  0  0  0
   -3.2267   -4.2753    2.9754 H   0  0  0  0  0  0  0  0  0  0  0  0
   -5.5194   -3.3481    3.3436 H   0  0  0  0  0  0  0  0  0  0  0  0
   -6.0743   -1.1222    2.3591 H   0  0  0  0  0  0  0  0  0  0  0  0
  1  2  1  0
  2  3  2  3
  3  4  1  0
  4  5  1  0
  5  6  2  0
  6  7  1  0
  7  8  2  0
  8  9  1  0
  9 10  1  0
 10 11  1  0
 11 12  1  0
 11 13  2  0
 13 14  1  0
 13 15  1  0
  2 16  1  0
 16 17  2  0
 17 18  1  0
 18 19  2  0
 19 20  1  0
 20 21  2  0
 15  5  1  0
 21 16  1  0
 15  9  2  0
  1 22  1  0
  1 23  1  0
  1 24  1  0
  4 25  1  0
  7 26  1  0
 12 27  1  0
 12 28  1  0
 12 29  1  0
 14 30  1  0
 14 31  1  0
 14 32  1  0
 17 33  1  0
 18 34  1  0
 19 35  1  0
 20 36  1  0
M  END
$$$$
