
     RDKit          3D

 43 44  0  0  0  0  0  0  0  0999 V2000
    6.3539    0.8309    2.1380 C   0  0  0  0  0  0  0  0  0  0  0  0
    5.4901    0.9345    1.0051 O   0  0  0  0  0  0  0  0  0  0  0  0
    4.2525    0.4181    1.2077 C   0  0  0  0  0  0  0  0  0  0  0  0
    3.8555   -0.1021    2.2383 O   0  0  0  0  0  0  0  0  0  0  0  0
    3.4142    0.5652   -0.0125 C   0  0  0  0  0  0  0  0  0  0  0  0
    3.9111    1.1058   -1.2056 C   0  0  0  0  0  0  0  0  0  0  0  0
    3.0782    1.2321   -2.3215 C   0  0  0  0  0  0  0  0  0  0  0  0
    1.7537    0.7897   -2.2721 C   0  0  0  0  0  0  0  0  0  0  0  0
    0.8922    1.0538   -3.3522 N   0  0  0  0  0  0  0  0  0  0  0  0
    1.2452    0.2625   -1.0649 C   0  0  0  0  0  0  0  0  0  0  0  0
   -0.1053   -0.1341   -0.9923 N   0  0  0  0  0  0  0  0  0  0  0  0
   -0.3282   -1.4090   -0.9806 C   0  0  0  0  0  0  0  0  0  0  0  0
   -1.7256   -1.9468   -0.9016 C   0  0  0  0  0  0  0  0  0  0  0  0
   -2.0806   -2.3604    0.4979 C   0  0  0  0  0  0  0  0  0  0  0  0
   -1.3593   -3.1219    1.1432 O   0  0  0  0  0  0  0  0  0  0  0  0
   -3.3862   -1.8507    1.0627 C   0  0  0  0  0  0  0  0  0  0  0  0
   -3.5232   -0.3330    0.8493 C   0  0  0  0  0  0  0  0  0  0  0  0
   -4.9146    0.1040    1.3507 C   0  0  0  0  0  0  0  0  0  0  0  0
   -2.4704    0.4175    1.6908 C   0  0  0  0  0  0  0  0  0  0  0  0
   -3.3824    0.0447   -0.6445 C   0  0  0  0  0  0  0  0  0  0  0  0
   -2.7462   -1.0258   -1.5122 C   0  0  0  0  0  0  0  0  0  0  0  0
   -3.0081   -1.0930   -2.7166 O   0  0  0  0  0  0  0  0  0  0  0  0
    2.0778    0.1517    0.0536 C   0  0  0  0  0  0  0  0  0  0  0  0
    6.5513   -0.2201    2.3704 H   0  0  0  0  0  0  0  0  0  0  0  0
    5.9220    1.3456    3.0020 H   0  0  0  0  0  0  0  0  0  0  0  0
    7.3017    1.3143    1.8865 H   0  0  0  0  0  0  0  0  0  0  0  0
    4.9392    1.4521   -1.2783 H   0  0  0  0  0  0  0  0  0  0  0  0
    3.4658    1.6942   -3.2260 H   0  0  0  0  0  0  0  0  0  0  0  0
    0.0152    0.5412   -3.2695 H   0  0  0  0  0  0  0  0  0  0  0  0
    1.3205    0.9870   -4.2677 H   0  0  0  0  0  0  0  0  0  0  0  0
    0.4899   -2.1539   -0.9941 H   0  0  0  0  0  0  0  0  0  0  0  0
   -1.7513   -2.8697   -1.4968 H   0  0  0  0  0  0  0  0  0  0  0  0
   -3.4243   -2.0972    2.1307 H   0  0  0  0  0  0  0  0  0  0  0  0
   -4.1990   -2.3981    0.5702 H   0  0  0  0  0  0  0  0  0  0  0  0
   -5.0613    1.1821    1.2197 H   0  0  0  0  0  0  0  0  0  0  0  0
   -5.7130   -0.4109    0.8043 H   0  0  0  0  0  0  0  0  0  0  0  0
   -5.0429   -0.1241    2.4151 H   0  0  0  0  0  0  0  0  0  0  0  0
   -2.5864    1.5028    1.5902 H   0  0  0  0  0  0  0  0  0  0  0  0
   -2.5700    0.1731    2.7548 H   0  0  0  0  0  0  0  0  0  0  0  0
   -1.4488    0.1675    1.3921 H   0  0  0  0  0  0  0  0  0  0  0  0
   -2.8041    0.9673   -0.7693 H   0  0  0  0  0  0  0  0  0  0  0  0
   -4.3740    0.2304   -1.0775 H   0  0  0  0  0  0  0  0  0  0  0  0
    1.6751   -0.2471    0.9822 H   0  0  0  0  0  0  0  0  0  0  0  0
  1  2  1  0
  2  3  1  0
  3  4  2  0
  3  5  1  0
  5  6  2  0
  6  7  1  0
  7  8  2  0
  8  9  1  0
  8 10  1  0
 10 11  1  0
 11 12  2  3
 12 13  1  0
 13 14  1  0
 14 15  2  0
 14 16  1  0
 16 17  1  0
 17 18  1  0
 17 19  1  0
 17 20  1  0
 20 21  1  0
 21 22  2  0
 10 23  2  0
 23  5  1  0
 21 13  1  0
  1 24  1  0
  1 25  1  0
  1 26  1  0
  6 27  1  0
  7 28  1  0
  9 29  1  0
  9 30  1  0
 12 31  1  0
 13 32  1  0
 16 33  1  0
 16 34  1  0
 18 35  1  0
 18 36  1  0
 18 37  1  0
 19 38  1  0
 19 39  1  0
 19 40  1  0
 20 41  1  0
 20 42  1  0
 23 43  1  0
M  END
$$$$
