
     RDKit          3D

 37 39  0  0  0  0  0  0  0  0999 V2000
    3.9508   -2.2059    1.4098 C   0  0  0  0  0  0  0  0  0  0  0  0
    2.9010   -1.3748    0.7344 C   0  0  0  0  0  0  0  0  0  0  0  0
    2.1047   -1.9175   -0.2750 C   0  0  0  0  0  0  0  0  0  0  0  0
    1.0983   -1.1533   -0.8761 C   0  0  0  0  0  0  0  0  0  0  0  0
    0.8368    0.1544   -0.4588 C   0  0  0  0  0  0  0  0  0  0  0  0
    1.6908    0.7253    0.5030 C   0  0  0  0  0  0  0  0  0  0  0  0
    2.6863   -0.0495    1.1205 C   0  0  0  0  0  0  0  0  0  0  0  0
    1.5361    2.1736    0.8778 C   0  0  0  0  0  0  0  0  0  0  0  0
    1.1938    2.9441   -0.3844 C   0  0  0  0  0  0  0  0  0  0  0  0
   -0.0955    2.4009   -0.9810 C   0  0  0  0  0  0  0  0  0  0  0  0
   -0.2147    0.9402   -1.0201 N   0  0  0  0  0  0  0  0  0  0  0  0
   -1.4494    0.4736   -1.5004 C   0  0  0  0  0  0  0  0  0  0  0  0
   -2.1516    1.1985   -2.2185 O   0  0  0  0  0  0  0  0  0  0  0  0
   -2.0045   -0.8889   -0.9945 C   0  0  0  0  0  0  0  0  0  0  0  0
   -2.2188   -0.8909    0.5130 C   0  0  0  0  0  0  0  0  0  0  0  0
   -3.6180   -0.3393    0.6384 C   0  0  0  0  0  0  0  0  0  0  0  0
   -4.3081   -0.9353   -0.5670 C   0  0  0  0  0  0  0  0  0  0  0  0
   -3.3018   -1.1745   -1.5576 O   0  0  0  0  0  0  0  0  0  0  0  0
    4.3435   -2.9696    0.7302 H   0  0  0  0  0  0  0  0  0  0  0  0
    4.7970   -1.5860    1.7243 H   0  0  0  0  0  0  0  0  0  0  0  0
    3.5273   -2.7001    2.2895 H   0  0  0  0  0  0  0  0  0  0  0  0
    2.2723   -2.9365   -0.6182 H   0  0  0  0  0  0  0  0  0  0  0  0
    0.5786   -1.5917   -1.7217 H   0  0  0  0  0  0  0  0  0  0  0  0
    3.3123    0.3933    1.8932 H   0  0  0  0  0  0  0  0  0  0  0  0
    2.4675    2.5689    1.2989 H   0  0  0  0  0  0  0  0  0  0  0  0
    0.7505    2.2763    1.6352 H   0  0  0  0  0  0  0  0  0  0  0  0
    2.0066    2.8453   -1.1162 H   0  0  0  0  0  0  0  0  0  0  0  0
    1.0859    4.0125   -0.1675 H   0  0  0  0  0  0  0  0  0  0  0  0
   -0.9490    2.7780   -0.4012 H   0  0  0  0  0  0  0  0  0  0  0  0
   -0.2131    2.7860   -2.0015 H   0  0  0  0  0  0  0  0  0  0  0  0
   -1.3660   -1.7049   -1.3206 H   0  0  0  0  0  0  0  0  0  0  0  0
   -2.2014   -1.9225    0.8852 H   0  0  0  0  0  0  0  0  0  0  0  0
   -1.4934   -0.3115    1.0885 H   0  0  0  0  0  0  0  0  0  0  0  0
   -3.5979    0.7539    0.5565 H   0  0  0  0  0  0  0  0  0  0  0  0
   -4.1087   -0.5979    1.5805 H   0  0  0  0  0  0  0  0  0  0  0  0
   -4.7689   -1.8981   -0.3227 H   0  0  0  0  0  0  0  0  0  0  0  0
   -5.0791   -0.2761   -0.9759 H   0  0  0  0  0  0  0  0  0  0  0  0
  1  2  1  0
  2  3  2  0
  3  4  1  0
  4  5  2  0
  5  6  1  0
  6  7  2  0
  6  8  1  0
  8  9  1  0
  9 10  1  0
 10 11  1  0
 11 12  1  0
 12 13  2  0
 12 14  1  0
 14 15  1  0
 15 16  1  0
 16 17  1  0
 17 18  1  0
  7  2  1  0
 18 14  1  0
 11  5  1  0
  1 19  1  0
  1 20  1  0
  1 21  1  0
  3 22  1  0
  4 23  1  0
  7 24  1  0
  8 25  1  0
  8 26  1  0
  9 27  1  0
  9 28  1  0
 10 29  1  0
 10 30  1  0
 14 31  1  0
 15 32  1  0
 15 33  1  0
 16 34  1  0
 16 35  1  0
 17 36  1  0
 17 37  1  0
M  END
$$$$
