
     RDKit          3D

 50 52  0  0  0  0  0  0  0  0999 V2000
   -4.0898    1.3423    0.1091 O   0  0  0  0  0  0  0  0  0  0  0  0
   -4.3029    0.4438   -0.7004 C   0  0  0  0  0  0  0  0  0  0  0  0
   -3.2014   -0.3259   -1.4260 C   0  0  0  0  0  0  0  0  0  0  0  0
   -1.9172    0.1800   -1.0685 O   0  0  0  0  0  0  0  0  0  0  0  0
   -0.8866   -0.4682   -1.6559 C   0  0  0  0  0  0  0  0  0  0  0  0
   -0.9856   -1.4073   -2.4294 O   0  0  0  0  0  0  0  0  0  0  0  0
    0.4125    0.1186   -1.2265 C   0  0  0  0  0  0  0  0  0  0  0  0
    0.4890    1.2064   -0.3416 C   0  0  0  0  0  0  0  0  0  0  0  0
    1.7325    1.7232    0.0343 C   0  0  0  0  0  0  0  0  0  0  0  0
    2.8986    1.1453   -0.4738 C   0  0  0  0  0  0  0  0  0  0  0  0
    4.4904    1.7837   -0.0090 S   0  0  0  0  0  6  0  0  0  0  0  0
    5.2240    2.0175   -1.2341 O   0  0  0  0  0  0  0  0  0  0  0  0
    4.2987    2.8359    0.9671 O   0  0  0  0  0  0  0  0  0  0  0  0
    5.2041    0.4540    0.8072 N   0  0  0  0  0  0  0  0  0  0  0  0
    4.5339    0.0800    2.0860 C   0  0  0  0  0  0  0  0  0  0  0  0
    5.0930   -1.2516    2.5805 C   0  0  0  0  0  0  0  0  0  0  0  0
    6.6064   -1.1824    2.7591 C   0  0  0  0  0  0  0  0  0  0  0  0
    7.2780   -0.6961    1.4787 C   0  0  0  0  0  0  0  0  0  0  0  0
    6.6738    0.6214    0.9991 C   0  0  0  0  0  0  0  0  0  0  0  0
    2.8372    0.0667   -1.3611 C   0  0  0  0  0  0  0  0  0  0  0  0
    1.5929   -0.4459   -1.7343 C   0  0  0  0  0  0  0  0  0  0  0  0
   -5.5744    0.0254   -1.0311 N   0  0  0  0  0  0  0  0  0  0  0  0
   -6.7295    0.7376   -0.5361 C   0  0  0  0  0  0  0  0  0  0  0  0
   -7.9436   -0.0507   -0.8539 C   0  0  0  0  0  0  0  0  0  0  0  0
   -8.9516   -0.5926   -0.0836 C   0  0  0  0  0  0  0  0  0  0  0  0
   -9.8352   -1.2412   -0.9797 C   0  0  0  0  0  0  0  0  0  0  0  0
   -9.3112   -1.0564   -2.2372 C   0  0  0  0  0  0  0  0  0  0  0  0
   -8.1612   -0.3372   -2.1727 O   0  0  0  0  0  0  0  0  0  0  0  0
   -3.3563   -0.2092   -2.5049 H   0  0  0  0  0  0  0  0  0  0  0  0
   -3.2798   -1.3809   -1.1386 H   0  0  0  0  0  0  0  0  0  0  0  0
   -0.4130    1.6646    0.0612 H   0  0  0  0  0  0  0  0  0  0  0  0
    1.7794    2.5701    0.7160 H   0  0  0  0  0  0  0  0  0  0  0  0
    4.6930    0.8605    2.8392 H   0  0  0  0  0  0  0  0  0  0  0  0
    3.4570   -0.0370    1.9342 H   0  0  0  0  0  0  0  0  0  0  0  0
    4.6203   -1.5227    3.5309 H   0  0  0  0  0  0  0  0  0  0  0  0
    4.8489   -2.0422    1.8599 H   0  0  0  0  0  0  0  0  0  0  0  0
    6.8482   -0.4995    3.5827 H   0  0  0  0  0  0  0  0  0  0  0  0
    6.9956   -2.1691    3.0335 H   0  0  0  0  0  0  0  0  0  0  0  0
    7.1603   -1.4581    0.6979 H   0  0  0  0  0  0  0  0  0  0  0  0
    8.3531   -0.5712    1.6487 H   0  0  0  0  0  0  0  0  0  0  0  0
    7.1506    0.8900    0.0507 H   0  0  0  0  0  0  0  0  0  0  0  0
    6.8703    1.4202    1.7238 H   0  0  0  0  0  0  0  0  0  0  0  0
    3.7498   -0.3713   -1.7608 H   0  0  0  0  0  0  0  0  0  0  0  0
    1.5466   -1.2861   -2.4256 H   0  0  0  0  0  0  0  0  0  0  0  0
   -5.7112   -0.5327   -1.8654 H   0  0  0  0  0  0  0  0  0  0  0  0
   -6.6245    0.8934    0.5427 H   0  0  0  0  0  0  0  0  0  0  0  0
   -6.7650    1.7170   -1.0245 H   0  0  0  0  0  0  0  0  0  0  0  0
   -9.0362   -0.5269    0.9925 H   0  0  0  0  0  0  0  0  0  0  0  0
  -10.7425   -1.7777   -0.7398 H   0  0  0  0  0  0  0  0  0  0  0  0
   -9.6198   -1.3575   -3.2288 H   0  0  0  0  0  0  0  0  0  0  0  0
  1  2  2  0
  2  3  1  0
  3  4  1  0
  4  5  1  0
  5  6  2  0
  5  7  1  0
  7  8  2  0
  8  9  1  0
  9 10  2  0
 10 11  1  0
 11 12  2  0
 11 13  2  0
 11 14  1  0
 14 15  1  0
 15 16  1  0
 16 17  1  0
 17 18  1  0
 18 19  1  0
 10 20  1  0
 20 21  2  0
  2 22  1  0
 22 23  1  0
 23 24  1  0
 24 25  2  0
 25 26  1  0
 26 27  2  0
 27 28  1  0
 21  7  1  0
 28 24  1  0
 19 14  1  0
  3 29  1  0
  3 30  1  0
  8 31  1  0
  9 32  1  0
 15 33  1  0
 15 34  1  0
 16 35  1  0
 16 36  1  0
 17 37  1  0
 17 38  1  0
 18 39  1  0
 18 40  1  0
 19 41  1  0
 19 42  1  0
 20 43  1  0
 21 44  1  0
 22 45  1  0
 23 46  1  0
 23 47  1  0
 25 48  1  0
 26 49  1  0
 27 50  1  0
M  END
$$$$
