
     RDKit          3D

 32 34  0  0  0  0  0  0  0  0999 V2000
    0.2924   -2.8437    1.6994 N   0  0  0  0  0  0  0  0  0  0  0  0
    0.8518   -1.7291    1.0426 C   0  0  0  0  0  0  0  0  0  0  0  0
    2.0336   -1.8993    0.3105 C   0  0  0  0  0  0  0  0  0  0  0  0
    2.5604   -0.8508   -0.4447 C   0  0  0  0  0  0  0  0  0  0  0  0
    1.8776    0.3648   -0.5309 C   0  0  0  0  0  0  0  0  0  0  0  0
    0.6805    0.5431    0.1554 C   0  0  0  0  0  0  0  0  0  0  0  0
    0.1491   -0.5134    0.9093 C   0  0  0  0  0  0  0  0  0  0  0  0
   -1.1417   -0.3242    1.6195 C   0  0  0  0  0  0  0  0  0  0  0  0
   -1.2473   -0.7047    2.7840 O   0  0  0  0  0  0  0  0  0  0  0  0
   -2.3059    0.3102    0.9485 C   0  0  0  0  0  0  0  0  0  0  0  0
   -3.2265    1.0145    1.7357 C   0  0  0  0  0  0  0  0  0  0  0  0
   -4.3379    1.6183    1.1457 C   0  0  0  0  0  0  0  0  0  0  0  0
   -4.5389    1.5115   -0.2304 C   0  0  0  0  0  0  0  0  0  0  0  0
   -3.6314    0.7933   -1.0089 C   0  0  0  0  0  0  0  0  0  0  0  0
   -3.9171    0.6369   -2.8717 Br  0  0  0  0  0  0  0  0  0  0  0  0
   -2.5178    0.1855   -0.4293 C   0  0  0  0  0  0  0  0  0  0  0  0
    2.3229    1.4268   -1.2750 O   0  0  0  0  0  0  0  0  0  0  0  0
    3.3399    1.0269   -2.2018 C   0  0  0  0  0  0  0  0  0  0  0  0
    4.3610    0.1282   -1.5244 C   0  0  0  0  0  0  0  0  0  0  0  0
    3.7487   -1.0904   -1.0868 O   0  0  0  0  0  0  0  0  0  0  0  0
   -0.3542   -2.5492    2.4408 H   0  0  0  0  0  0  0  0  0  0  0  0
    0.9831   -3.4976    2.0544 H   0  0  0  0  0  0  0  0  0  0  0  0
    2.5604   -2.8495    0.3346 H   0  0  0  0  0  0  0  0  0  0  0  0
    0.1700    1.4999    0.0905 H   0  0  0  0  0  0  0  0  0  0  0  0
   -3.0782    1.0933    2.8115 H   0  0  0  0  0  0  0  0  0  0  0  0
   -5.0480    2.1668    1.7600 H   0  0  0  0  0  0  0  0  0  0  0  0
   -5.4079    1.9824   -0.6833 H   0  0  0  0  0  0  0  0  0  0  0  0
   -1.8371   -0.3930   -1.0480 H   0  0  0  0  0  0  0  0  0  0  0  0
    2.8594    0.5214   -3.0487 H   0  0  0  0  0  0  0  0  0  0  0  0
    3.8232    1.9349   -2.5758 H   0  0  0  0  0  0  0  0  0  0  0  0
    5.1589   -0.1347   -2.2260 H   0  0  0  0  0  0  0  0  0  0  0  0
    4.8170    0.6208   -0.6566 H   0  0  0  0  0  0  0  0  0  0  0  0
  1  2  1  0
  2  3  2  0
  3  4  1  0
  4  5  2  0
  5  6  1  0
  6  7  2  0
  7  8  1  0
  8  9  2  0
  8 10  1  0
 10 11  2  0
 11 12  1  0
 12 13  2  0
 13 14  1  0
 14 15  1  0
 14 16  2  0
  5 17  1  0
 17 18  1  0
 18 19  1  0
 19 20  1  0
  7  2  1  0
 16 10  1  0
 20  4  1  0
  1 21  1  0
  1 22  1  0
  3 23  1  0
  6 24  1  0
 11 25  1  0
 12 26  1  0
 13 27  1  0
 16 28  1  0
 18 29  1  0
 18 30  1  0
 19 31  1  0
 19 32  1  0
M  END
$$$$
