
     RDKit          3D

 48 50  0  0  0  0  0  0  0  0999 V2000
   -3.9935    4.5137   -1.7458 C   0  0  0  0  0  0  0  0  0  0  0  0
   -4.2473    3.0585   -2.0900 C   0  0  0  0  0  0  0  0  0  0  0  0
   -3.6637    2.2070   -1.0917 O   0  0  0  0  0  0  0  0  0  0  0  0
   -4.4443    1.9244   -0.0243 C   0  0  0  0  0  0  0  0  0  0  0  0
   -5.5637    2.3593    0.1923 O   0  0  0  0  0  0  0  0  0  0  0  0
   -3.7320    1.0725    0.9316 C   0  0  0  0  0  0  0  0  0  0  0  0
   -4.0040    1.2096    2.2739 C   0  0  0  0  0  0  0  0  0  0  0  0
   -3.4007    0.4830    3.2399 N   0  0  0  0  0  0  0  0  0  0  0  0
   -2.5047   -0.4310    2.8363 C   0  0  0  0  0  0  0  0  0  0  0  0
   -1.6999   -1.3751    4.1040 S   0  0  0  0  0  0  0  0  0  0  0  0
   -0.8139   -2.5879    3.0917 C   0  0  0  0  0  0  0  0  0  0  0  0
   -2.1831   -0.6541    1.5560 N   0  0  0  0  0  0  0  0  0  0  0  0
   -2.8039    0.1030    0.6205 C   0  0  0  0  0  0  0  0  0  0  0  0
   -2.5457   -0.1636   -0.7204 O   0  0  0  0  0  0  0  0  0  0  0  0
   -1.4723   -0.9744   -1.0021 C   0  0  0  0  0  0  0  0  0  0  0  0
   -1.7200   -2.1912   -1.6303 C   0  0  0  0  0  0  0  0  0  0  0  0
   -0.6504   -3.0203   -1.9578 C   0  0  0  0  0  0  0  0  0  0  0  0
    0.6611   -2.6268   -1.6676 C   0  0  0  0  0  0  0  0  0  0  0  0
    0.9166   -1.3978   -1.0541 C   0  0  0  0  0  0  0  0  0  0  0  0
    2.2093   -0.9281   -0.7364 N   0  0  0  0  0  0  0  0  0  0  0  0
    3.4050   -1.6098   -0.8723 C   0  0  0  0  0  0  0  0  0  0  0  0
    3.5557   -2.7703   -1.2332 O   0  0  0  0  0  0  0  0  0  0  0  0
    4.6164   -0.8307   -0.4878 C   0  0  0  0  0  0  0  0  0  0  0  0
    4.7285    0.5403   -0.7595 C   0  0  0  0  0  0  0  0  0  0  0  0
    5.8841    1.2328   -0.3852 C   0  0  0  0  0  0  0  0  0  0  0  0
    6.9262    0.5561    0.2496 C   0  0  0  0  0  0  0  0  0  0  0  0
    8.3450    1.4137    0.7079 Cl  0  0  0  0  0  0  0  0  0  0  0  0
    6.8292   -0.8104    0.5062 C   0  0  0  0  0  0  0  0  0  0  0  0
    5.6764   -1.5057    0.1324 C   0  0  0  0  0  0  0  0  0  0  0  0
   -0.1620   -0.5631   -0.7375 C   0  0  0  0  0  0  0  0  0  0  0  0
   -4.4696    4.7815   -0.7971 H   0  0  0  0  0  0  0  0  0  0  0  0
   -2.9209    4.6994   -1.6273 H   0  0  0  0  0  0  0  0  0  0  0  0
   -4.3814    5.1710   -2.5291 H   0  0  0  0  0  0  0  0  0  0  0  0
   -3.7636    2.8140   -3.0414 H   0  0  0  0  0  0  0  0  0  0  0  0
   -5.3178    2.8555   -2.2101 H   0  0  0  0  0  0  0  0  0  0  0  0
   -4.7333    1.9317    2.6353 H   0  0  0  0  0  0  0  0  0  0  0  0
   -0.2855   -3.2814    3.7517 H   0  0  0  0  0  0  0  0  0  0  0  0
   -0.0753   -2.0967    2.4520 H   0  0  0  0  0  0  0  0  0  0  0  0
   -1.5109   -3.1648    2.4769 H   0  0  0  0  0  0  0  0  0  0  0  0
   -2.7370   -2.4972   -1.8571 H   0  0  0  0  0  0  0  0  0  0  0  0
   -0.8304   -3.9773   -2.4413 H   0  0  0  0  0  0  0  0  0  0  0  0
    1.4643   -3.3036   -1.9432 H   0  0  0  0  0  0  0  0  0  0  0  0
    2.2451   -0.0225   -0.2875 H   0  0  0  0  0  0  0  0  0  0  0  0
    3.9436    1.0747   -1.2886 H   0  0  0  0  0  0  0  0  0  0  0  0
    5.9717    2.2949   -0.6011 H   0  0  0  0  0  0  0  0  0  0  0  0
    7.6454   -1.3412    0.9895 H   0  0  0  0  0  0  0  0  0  0  0  0
    5.6051   -2.5750    0.3247 H   0  0  0  0  0  0  0  0  0  0  0  0
    0.0019    0.4034   -0.2714 H   0  0  0  0  0  0  0  0  0  0  0  0
  1  2  1  0
  2  3  1  0
  3  4  1  0
  4  5  2  0
  4  6  1  0
  6  7  2  0
  7  8  1  0
  8  9  2  0
  9 10  1  0
 10 11  1  0
  9 12  1  0
 12 13  2  0
 13 14  1  0
 14 15  1  0
 15 16  2  0
 16 17  1  0
 17 18  2  0
 18 19  1  0
 19 20  1  0
 20 21  1  0
 21 22  2  0
 21 23  1  0
 23 24  2  0
 24 25  1  0
 25 26  2  0
 26 27  1  0
 26 28  1  0
 28 29  2  0
 19 30  2  0
 13  6  1  0
 30 15  1  0
 29 23  1  0
  1 31  1  0
  1 32  1  0
  1 33  1  0
  2 34  1  0
  2 35  1  0
  7 36  1  0
 11 37  1  0
 11 38  1  0
 11 39  1  0
 16 40  1  0
 17 41  1  0
 18 42  1  0
 20 43  1  0
 24 44  1  0
 25 45  1  0
 28 46  1  0
 29 47  1  0
 30 48  1  0
M  END
$$$$
