
     RDKit          3D

 39 40  0  0  0  0  0  0  0  0999 V2000
   -2.3359    2.6950   -0.4043 C   0  0  0  0  0  0  0  0  0  0  0  0
   -1.2842    1.6913    0.0328 C   0  0  0  0  0  0  0  0  0  0  0  0
   -1.7996    0.3212    0.0859 N   0  0  0  0  0  0  0  0  0  0  0  0
   -2.1726   -0.2030    1.4092 C   0  0  0  0  0  0  0  0  0  0  0  0
   -3.6277    0.0622    1.7603 C   0  0  0  0  0  0  0  0  0  0  0  0
   -1.9122   -0.3783   -1.1115 C   0  0  0  0  0  0  0  0  0  0  0  0
   -1.5189    0.1016   -2.1835 O   0  0  0  0  0  0  0  0  0  0  0  0
   -2.4661   -1.8051   -1.1007 C   0  0  0  0  0  0  0  0  0  0  0  0
   -1.1608   -3.0032   -1.5671 S   0  0  0  0  0  0  0  0  0  0  0  0
    0.1408   -2.4287   -0.5766 C   0  0  0  0  0  0  0  0  0  0  0  0
    0.2581   -2.5812    0.7202 N   0  0  0  0  0  0  0  0  0  0  0  0
    1.3334   -1.8216    1.1253 N   0  0  0  0  0  0  0  0  0  0  0  0
    1.8797   -1.2392    0.0606 C   0  0  0  0  0  0  0  0  0  0  0  0
    3.0318   -0.3278    0.0986 C   0  0  0  0  0  0  0  0  0  0  0  0
    3.8942   -0.1525   -0.9864 C   0  0  0  0  0  0  0  0  0  0  0  0
    4.9601    0.7289   -0.8579 C   0  0  0  0  0  0  0  0  0  0  0  0
    5.2307    1.4251    0.2666 N   0  0  0  0  0  0  0  0  0  0  0  0
    4.4058    1.2212    1.3153 C   0  0  0  0  0  0  0  0  0  0  0  0
    3.3111    0.3678    1.2791 C   0  0  0  0  0  0  0  0  0  0  0  0
    1.1369   -1.6010   -1.0510 N   0  0  0  0  0  0  0  0  0  0  0  0
    1.2603   -1.1032   -2.4074 N   0  0  0  0  0  0  0  0  0  0  0  0
   -3.2351    2.6321    0.2165 H   0  0  0  0  0  0  0  0  0  0  0  0
   -2.6365    2.5336   -1.4461 H   0  0  0  0  0  0  0  0  0  0  0  0
   -1.9378    3.7111   -0.3208 H   0  0  0  0  0  0  0  0  0  0  0  0
   -0.8889    1.9688    1.0135 H   0  0  0  0  0  0  0  0  0  0  0  0
   -0.4406    1.7197   -0.6727 H   0  0  0  0  0  0  0  0  0  0  0  0
   -1.5181    0.2401    2.1653 H   0  0  0  0  0  0  0  0  0  0  0  0
   -1.9843   -1.2761    1.4431 H   0  0  0  0  0  0  0  0  0  0  0  0
   -3.8906   -0.4522    2.6902 H   0  0  0  0  0  0  0  0  0  0  0  0
   -4.2987   -0.2928    0.9743 H   0  0  0  0  0  0  0  0  0  0  0  0
   -3.8148    1.1315    1.9099 H   0  0  0  0  0  0  0  0  0  0  0  0
   -3.2562   -1.8456   -1.8635 H   0  0  0  0  0  0  0  0  0  0  0  0
   -2.9290   -2.1038   -0.1540 H   0  0  0  0  0  0  0  0  0  0  0  0
    3.7610   -0.6812   -1.9221 H   0  0  0  0  0  0  0  0  0  0  0  0
    5.6453    0.9045   -1.6859 H   0  0  0  0  0  0  0  0  0  0  0  0
    4.6538    1.7818    2.2148 H   0  0  0  0  0  0  0  0  0  0  0  0
    2.6866    0.2513    2.1642 H   0  0  0  0  0  0  0  0  0  0  0  0
    0.5565   -0.3644   -2.5490 H   0  0  0  0  0  0  0  0  0  0  0  0
    0.9625   -1.8282   -3.0647 H   0  0  0  0  0  0  0  0  0  0  0  0
  1  2  1  0
  2  3  1  0
  3  4  1  0
  4  5  1  0
  3  6  1  0
  6  7  2  0
  6  8  1  0
  8  9  1  0
  9 10  1  0
 10 11  2  0
 11 12  1  0
 12 13  2  0
 13 14  1  0
 14 15  2  0
 15 16  1  0
 16 17  2  0
 17 18  1  0
 18 19  2  0
 13 20  1  0
 20 21  1  0
 20 10  1  0
 19 14  1  0
  1 22  1  0
  1 23  1  0
  1 24  1  0
  2 25  1  0
  2 26  1  0
  4 27  1  0
  4 28  1  0
  5 29  1  0
  5 30  1  0
  5 31  1  0
  8 32  1  0
  8 33  1  0
 15 34  1  0
 16 35  1  0
 18 36  1  0
 19 37  1  0
 21 38  1  0
 21 39  1  0
M  END
$$$$
