
     RDKit          3D

 58 61  0  0  0  0  0  0  0  0999 V2000
    4.4813    1.6179   -6.9954 C   0  0  0  0  0  0  0  0  0  0  0  0
    4.4835    0.4570   -6.1752 O   0  0  0  0  0  0  0  0  0  0  0  0
    3.4150    0.2874   -5.3386 C   0  0  0  0  0  0  0  0  0  0  0  0
    2.3288    1.1526   -5.2074 C   0  0  0  0  0  0  0  0  0  0  0  0
    1.2979    0.8587   -4.3066 C   0  0  0  0  0  0  0  0  0  0  0  0
    1.3367   -0.3077   -3.5313 C   0  0  0  0  0  0  0  0  0  0  0  0
    0.2458   -0.6138   -2.5393 C   0  0  0  0  0  0  0  0  0  0  0  0
    0.6140   -0.1442   -1.2226 N   0  0  0  0  0  0  0  0  0  0  0  0
    1.1482   -0.9936   -0.2622 C   0  0  0  0  0  0  0  0  0  0  0  0
    1.2489   -2.2027   -0.4568 O   0  0  0  0  0  0  0  0  0  0  0  0
    1.6475   -0.2827    0.9896 C   0  0  0  0  0  0  0  0  0  0  0  0
    2.2519   -1.2052    1.9631 C   0  0  0  0  0  0  0  0  0  0  0  0
    2.7663   -1.8757    2.7622 N   0  0  0  0  0  0  0  0  0  0  0  0
    0.5769    0.5911    1.6045 C   0  0  0  0  0  0  0  0  0  0  0  0
    0.7859    1.9396    1.5357 N   0  0  0  0  0  0  0  0  0  0  0  0
   -0.1577    2.7321    2.0746 C   0  0  0  0  0  0  0  0  0  0  0  0
    0.0083    4.1117    2.0549 C   0  0  0  0  0  0  0  0  0  0  0  0
   -0.9500    4.9659    2.6023 C   0  0  0  0  0  0  0  0  0  0  0  0
   -2.0942    4.4308    3.1788 C   0  0  0  0  0  0  0  0  0  0  0  0
   -2.2695    3.0464    3.2030 C   0  0  0  0  0  0  0  0  0  0  0  0
   -1.3215    2.1871    2.6610 C   0  0  0  0  0  0  0  0  0  0  0  0
   -1.5316    0.8582    2.7002 N   0  0  0  0  0  0  0  0  0  0  0  0
   -0.5876    0.0503    2.1686 C   0  0  0  0  0  0  0  0  0  0  0  0
   -0.7853   -1.3402    2.1890 N   0  0  0  0  0  0  0  0  0  0  0  0
   -0.8242   -1.8559    3.5854 C   0  0  0  0  0  0  0  0  0  0  0  0
   -2.2627   -2.1544    4.0627 C   0  0  0  0  0  0  0  0  0  0  0  0
   -2.9575   -3.1700    3.2364 N   0  0  0  0  0  0  0  0  0  0  0  0
   -4.4050   -3.0278    3.3633 C   0  0  0  0  0  0  0  0  0  0  0  0
   -2.5163   -3.1038    1.8253 C   0  0  0  0  0  0  0  0  0  0  0  0
   -1.9777   -1.7228    1.3908 C   0  0  0  0  0  0  0  0  0  0  0  0
    2.4337   -1.1679   -3.6622 C   0  0  0  0  0  0  0  0  0  0  0  0
    3.4607   -0.8712   -4.5609 C   0  0  0  0  0  0  0  0  0  0  0  0
    4.5013    2.5297   -6.3893 H   0  0  0  0  0  0  0  0  0  0  0  0
    3.6265    1.6163   -7.6798 H   0  0  0  0  0  0  0  0  0  0  0  0
    5.3926    1.6009   -7.6009 H   0  0  0  0  0  0  0  0  0  0  0  0
    2.2527    2.0649   -5.7892 H   0  0  0  0  0  0  0  0  0  0  0  0
    0.4626    1.5500   -4.2181 H   0  0  0  0  0  0  0  0  0  0  0  0
    0.0295   -1.6878   -2.5264 H   0  0  0  0  0  0  0  0  0  0  0  0
   -0.6805   -0.1005   -2.8201 H   0  0  0  0  0  0  0  0  0  0  0  0
    0.7005    0.8583   -1.0961 H   0  0  0  0  0  0  0  0  0  0  0  0
    2.4576    0.3756    0.6418 H   0  0  0  0  0  0  0  0  0  0  0  0
    0.9066    4.5302    1.6072 H   0  0  0  0  0  0  0  0  0  0  0  0
   -0.7985    6.0423    2.5787 H   0  0  0  0  0  0  0  0  0  0  0  0
   -2.8489    5.0834    3.6111 H   0  0  0  0  0  0  0  0  0  0  0  0
   -3.1646    2.6259    3.6553 H   0  0  0  0  0  0  0  0  0  0  0  0
   -0.2403   -2.7848    3.6116 H   0  0  0  0  0  0  0  0  0  0  0  0
   -0.3325   -1.1706    4.2888 H   0  0  0  0  0  0  0  0  0  0  0  0
   -2.2277   -2.5151    5.0971 H   0  0  0  0  0  0  0  0  0  0  0  0
   -2.8259   -1.2116    4.0706 H   0  0  0  0  0  0  0  0  0  0  0  0
   -4.9174   -3.8382    2.8331 H   0  0  0  0  0  0  0  0  0  0  0  0
   -4.7081   -3.0998    4.4139 H   0  0  0  0  0  0  0  0  0  0  0  0
   -4.7647   -2.0729    2.9635 H   0  0  0  0  0  0  0  0  0  0  0  0
   -1.7133   -3.8421    1.7017 H   0  0  0  0  0  0  0  0  0  0  0  0
   -3.3167   -3.4194    1.1447 H   0  0  0  0  0  0  0  0  0  0  0  0
   -2.7902   -0.9888    1.4764 H   0  0  0  0  0  0  0  0  0  0  0  0
   -1.6925   -1.7692    0.3333 H   0  0  0  0  0  0  0  0  0  0  0  0
    2.4961   -2.0742   -3.0611 H   0  0  0  0  0  0  0  0  0  0  0  0
    4.3055   -1.5497   -4.6536 H   0  0  0  0  0  0  0  0  0  0  0  0
  1  2  1  0
  2  3  1  0
  3  4  2  0
  4  5  1  0
  5  6  2  0
  6  7  1  0
  7  8  1  0
  8  9  1  0
  9 10  2  0
  9 11  1  0
 11 12  1  0
 12 13  3  0
 11 14  1  0
 14 15  2  0
 15 16  1  0
 16 17  2  0
 17 18  1  0
 18 19  2  0
 19 20  1  0
 20 21  2  0
 21 22  1  0
 22 23  2  0
 23 24  1  0
 24 25  1  0
 25 26  1  0
 26 27  1  0
 27 28  1  0
 27 29  1  0
 29 30  1  0
  6 31  1  0
 31 32  2  0
 32  3  1  0
 23 14  1  0
 30 24  1  0
 21 16  1  0
  1 33  1  0
  1 34  1  0
  1 35  1  0
  4 36  1  0
  5 37  1  0
  7 38  1  0
  7 39  1  0
  8 40  1  0
 11 41  1  0
 17 42  1  0
 18 43  1  0
 19 44  1  0
 20 45  1  0
 25 46  1  0
 25 47  1  0
 26 48  1  0
 26 49  1  0
 28 50  1  0
 28 51  1  0
 28 52  1  0
 29 53  1  0
 29 54  1  0
 30 55  1  0
 30 56  1  0
 31 57  1  0
 32 58  1  0
M  END
$$$$
