
     RDKit          3D

 47 49  0  0  0  0  0  0  0  0999 V2000
   -7.7729   -1.9023   -1.6006 C   0  0  0  0  0  0  0  0  0  0  0  0
   -6.7068   -0.8945   -1.2099 C   0  0  0  0  0  0  0  0  0  0  0  0
   -5.7089   -1.5801   -0.4553 O   0  0  0  0  0  0  0  0  0  0  0  0
   -4.6608   -0.8378    0.0142 C   0  0  0  0  0  0  0  0  0  0  0  0
   -4.4547    0.5259   -0.2099 C   0  0  0  0  0  0  0  0  0  0  0  0
   -3.3336    1.1663    0.3287 C   0  0  0  0  0  0  0  0  0  0  0  0
   -2.4193    0.4340    1.0890 C   0  0  0  0  0  0  0  0  0  0  0  0
   -0.9870    1.2267    1.7724 S   0  0  0  0  0  6  0  0  0  0  0  0
   -0.9656    0.9340    3.1890 O   0  0  0  0  0  0  0  0  0  0  0  0
   -0.9280    2.5872    1.2805 O   0  0  0  0  0  0  0  0  0  0  0  0
    0.2992    0.3770    1.0370 N   0  0  0  0  0  0  0  0  0  0  0  0
    0.4040    0.5274   -0.4543 C   0  0  0  0  0  0  0  0  0  0  0  0
    1.6477    1.3115   -0.8844 C   0  0  0  0  0  0  0  0  0  0  0  0
    2.8819    0.7063   -0.3798 N   0  0  0  0  0  0  0  0  0  0  0  0
    4.0704    0.9949   -1.0404 C   0  0  0  0  0  0  0  0  0  0  0  0
    4.1433    1.7789   -1.9831 O   0  0  0  0  0  0  0  0  0  0  0  0
    5.3161    0.3327   -0.6003 C   0  0  0  0  0  0  0  0  0  0  0  0
    6.4320    1.1215   -0.3312 C   0  0  0  0  0  0  0  0  0  0  0  0
    7.5898    0.4782    0.0602 C   0  0  0  0  0  0  0  0  0  0  0  0
    7.6951   -0.8637    0.1845 N   0  0  0  0  0  0  0  0  0  0  0  0
    6.6041   -1.6005   -0.1182 C   0  0  0  0  0  0  0  0  0  0  0  0
    5.3985   -1.0558   -0.5173 C   0  0  0  0  0  0  0  0  0  0  0  0
    2.7865    0.0511    0.9319 C   0  0  0  0  0  0  0  0  0  0  0  0
    1.6001    0.5685    1.7563 C   0  0  0  0  0  0  0  0  0  0  0  0
   -2.6180   -0.9271    1.3256 C   0  0  0  0  0  0  0  0  0  0  0  0
   -3.7387   -1.5570    0.7830 C   0  0  0  0  0  0  0  0  0  0  0  0
   -8.5652   -1.4254   -2.1843 H   0  0  0  0  0  0  0  0  0  0  0  0
   -8.2162   -2.3595   -0.7097 H   0  0  0  0  0  0  0  0  0  0  0  0
   -7.3375   -2.7144   -2.1924 H   0  0  0  0  0  0  0  0  0  0  0  0
   -7.1661   -0.1042   -0.6050 H   0  0  0  0  0  0  0  0  0  0  0  0
   -6.2684   -0.4672   -2.1191 H   0  0  0  0  0  0  0  0  0  0  0  0
   -5.1478    1.1200   -0.7968 H   0  0  0  0  0  0  0  0  0  0  0  0
   -3.1860    2.2297    0.1521 H   0  0  0  0  0  0  0  0  0  0  0  0
   -0.4856    1.0068   -0.8736 H   0  0  0  0  0  0  0  0  0  0  0  0
    0.4400   -0.4860   -0.8732 H   0  0  0  0  0  0  0  0  0  0  0  0
    1.6075    2.3375   -0.4991 H   0  0  0  0  0  0  0  0  0  0  0  0
    1.6903    1.3707   -1.9777 H   0  0  0  0  0  0  0  0  0  0  0  0
    6.3975    2.2010   -0.4289 H   0  0  0  0  0  0  0  0  0  0  0  0
    8.4930    1.0373    0.2883 H   0  0  0  0  0  0  0  0  0  0  0  0
    6.7350   -2.6757   -0.0332 H   0  0  0  0  0  0  0  0  0  0  0  0
    4.5605   -1.6934   -0.7719 H   0  0  0  0  0  0  0  0  0  0  0  0
    2.6649   -1.0217    0.7430 H   0  0  0  0  0  0  0  0  0  0  0  0
    3.7133    0.2001    1.4943 H   0  0  0  0  0  0  0  0  0  0  0  0
    1.5613    0.0202    2.7038 H   0  0  0  0  0  0  0  0  0  0  0  0
    1.7488    1.6331    1.9749 H   0  0  0  0  0  0  0  0  0  0  0  0
   -1.9123   -1.4947    1.9276 H   0  0  0  0  0  0  0  0  0  0  0  0
   -3.9012   -2.6175    0.9631 H   0  0  0  0  0  0  0  0  0  0  0  0
  1  2  1  0
  2  3  1  0
  3  4  1  0
  4  5  2  0
  5  6  1  0
  6  7  2  0
  7  8  1  0
  8  9  2  0
  8 10  2  0
  8 11  1  0
 11 12  1  0
 12 13  1  0
 13 14  1  0
 14 15  1  0
 15 16  2  0
 15 17  1  0
 17 18  2  0
 18 19  1  0
 19 20  2  0
 20 21  1  0
 21 22  2  0
 14 23  1  0
 23 24  1  0
  7 25  1  0
 25 26  2  0
 26  4  1  0
 24 11  1  0
 22 17  1  0
  1 27  1  0
  1 28  1  0
  1 29  1  0
  2 30  1  0
  2 31  1  0
  5 32  1  0
  6 33  1  0
 12 34  1  0
 12 35  1  0
 13 36  1  0
 13 37  1  0
 18 38  1  0
 19 39  1  0
 21 40  1  0
 22 41  1  0
 23 42  1  0
 23 43  1  0
 24 44  1  0
 24 45  1  0
 25 46  1  0
 26 47  1  0
M  END
$$$$
