
     RDKit          3D

 48 50  0  0  0  0  0  0  0  0999 V2000
    3.6528    3.0622   -0.7103 C   0  0  0  0  0  0  0  0  0  0  0  0
    2.7586    1.8861   -0.5044 C   0  0  0  0  0  0  0  0  0  0  0  0
    1.3817    1.8716   -0.5931 C   0  0  0  0  0  0  0  0  0  0  0  0
    0.9329    0.5367   -0.4525 C   0  0  0  0  0  0  0  0  0  0  0  0
   -0.4379    0.0653   -0.5061 C   0  0  0  0  0  0  0  0  0  0  0  0
   -1.3824    0.9120   -0.7585 N   0  0  0  0  0  0  0  0  0  0  0  0
   -2.6437    0.3904   -0.7879 N   0  0  0  0  0  0  0  0  0  0  0  0
   -3.7330    1.2269   -0.9796 C   0  0  0  0  0  0  0  0  0  0  0  0
   -3.6744    2.4269   -1.2404 O   0  0  0  0  0  0  0  0  0  0  0  0
   -5.0596    0.5088   -0.8684 C   0  0  0  0  0  0  0  0  0  0  0  0
   -5.2654   -0.1652    0.4828 C   0  0  0  0  0  0  0  0  0  0  0  0
   -5.1521    0.8038    1.6591 C   0  0  0  0  0  0  0  0  0  0  0  0
   -6.5902   -0.7381    0.5115 O   0  0  0  0  0  0  0  0  0  0  0  0
   -6.3921   -2.1512    0.4649 C   0  0  0  0  0  0  0  0  0  0  0  0
   -5.0577   -2.3337    1.1355 C   0  0  0  0  0  0  0  0  0  0  0  0
   -4.2970   -1.2313    0.6368 O   0  0  0  0  0  0  0  0  0  0  0  0
    2.0624   -0.2472   -0.2356 C   0  0  0  0  0  0  0  0  0  0  0  0
    2.1217   -1.7069    0.0889 C   0  0  0  0  0  0  0  0  0  0  0  0
    3.1888    0.5783   -0.3008 N   0  0  0  0  0  0  0  0  0  0  0  0
    4.5476    0.1535   -0.2036 C   0  0  0  0  0  0  0  0  0  0  0  0
    5.4502    0.8587    0.6016 C   0  0  0  0  0  0  0  0  0  0  0  0
    6.7838    0.4450    0.6825 C   0  0  0  0  0  0  0  0  0  0  0  0
    7.2228   -0.6697   -0.0401 C   0  0  0  0  0  0  0  0  0  0  0  0
    8.8844   -1.1199    0.1082 Cl  0  0  0  0  0  0  0  0  0  0  0  0
    6.3213   -1.3773   -0.8437 C   0  0  0  0  0  0  0  0  0  0  0  0
    6.7911   -2.7655   -1.7621 Cl  0  0  0  0  0  0  0  0  0  0  0  0
    4.9852   -0.9664   -0.9257 C   0  0  0  0  0  0  0  0  0  0  0  0
    3.1128    3.8697   -1.2171 H   0  0  0  0  0  0  0  0  0  0  0  0
    4.5104    2.8088   -1.3399 H   0  0  0  0  0  0  0  0  0  0  0  0
    4.0061    3.4575    0.2458 H   0  0  0  0  0  0  0  0  0  0  0  0
    0.7522    2.7364   -0.7767 H   0  0  0  0  0  0  0  0  0  0  0  0
   -0.6314   -1.0084   -0.3442 H   0  0  0  0  0  0  0  0  0  0  0  0
   -2.8088   -0.5299   -0.3859 H   0  0  0  0  0  0  0  0  0  0  0  0
   -5.1086   -0.2293   -1.6793 H   0  0  0  0  0  0  0  0  0  0  0  0
   -5.8621    1.2273   -1.0556 H   0  0  0  0  0  0  0  0  0  0  0  0
   -5.3474    0.2830    2.6037 H   0  0  0  0  0  0  0  0  0  0  0  0
   -4.1501    1.2335    1.7414 H   0  0  0  0  0  0  0  0  0  0  0  0
   -5.8870    1.6144    1.5827 H   0  0  0  0  0  0  0  0  0  0  0  0
   -6.3612   -2.4553   -0.5854 H   0  0  0  0  0  0  0  0  0  0  0  0
   -7.2071   -2.6737    0.9708 H   0  0  0  0  0  0  0  0  0  0  0  0
   -5.1320   -2.2314    2.2252 H   0  0  0  0  0  0  0  0  0  0  0  0
   -4.5710   -3.2820    0.8909 H   0  0  0  0  0  0  0  0  0  0  0  0
    1.2183   -2.0189    0.6240 H   0  0  0  0  0  0  0  0  0  0  0  0
    2.1909   -2.2990   -0.8306 H   0  0  0  0  0  0  0  0  0  0  0  0
    2.9671   -1.9568    0.7431 H   0  0  0  0  0  0  0  0  0  0  0  0
    5.1274    1.7061    1.2052 H   0  0  0  0  0  0  0  0  0  0  0  0
    7.4746    0.9946    1.3191 H   0  0  0  0  0  0  0  0  0  0  0  0
    4.3070   -1.5005   -1.5874 H   0  0  0  0  0  0  0  0  0  0  0  0
  1  2  1  0
  2  3  2  0
  3  4  1  0
  4  5  1  0
  5  6  2  3
  6  7  1  0
  7  8  1  0
  8  9  2  0
  8 10  1  0
 10 11  1  0
 11 12  1  0
 11 13  1  0
 13 14  1  0
 14 15  1  0
 15 16  1  0
  4 17  2  0
 17 18  1  0
 17 19  1  0
 19 20  1  0
 20 21  2  0
 21 22  1  0
 22 23  2  0
 23 24  1  0
 23 25  1  0
 25 26  1  0
 25 27  2  0
 19  2  1  0
 27 20  1  0
 16 11  1  0
  1 28  1  0
  1 29  1  0
  1 30  1  0
  3 31  1  0
  5 32  1  0
  7 33  1  0
 10 34  1  0
 10 35  1  0
 12 36  1  0
 12 37  1  0
 12 38  1  0
 14 39  1  0
 14 40  1  0
 15 41  1  0
 15 42  1  0
 18 43  1  0
 18 44  1  0
 18 45  1  0
 21 46  1  0
 22 47  1  0
 27 48  1  0
M  END
$$$$
