
     RDKit          3D

 36 38  0  0  0  0  0  0  0  0999 V2000
    0.1468   -1.1778   -0.8058 O   0  0  0  0  0  0  0  0  0  0  0  0
   -0.2109   -0.2341   -0.1104 C   0  0  0  0  0  0  0  0  0  0  0  0
   -1.6497    0.1117    0.0792 C   0  0  0  0  0  0  0  0  0  0  0  0
   -2.6197   -0.5578   -0.5600 C   0  0  0  0  0  0  0  0  0  0  0  0
   -4.0620   -0.3221   -0.4367 C   0  0  0  0  0  0  0  0  0  0  0  0
   -4.6450    0.8782   -0.8643 C   0  0  0  0  0  0  0  0  0  0  0  0
   -6.0243    1.0739   -0.7523 C   0  0  0  0  0  0  0  0  0  0  0  0
   -6.8172    0.0626   -0.2201 C   0  0  0  0  0  0  0  0  0  0  0  0
   -8.1662    0.2101   -0.0923 O   0  0  0  0  0  0  0  0  0  0  0  0
   -6.2554   -1.1378    0.1972 C   0  0  0  0  0  0  0  0  0  0  0  0
   -4.8773   -1.3328    0.0862 C   0  0  0  0  0  0  0  0  0  0  0  0
   -1.8245    1.3924    1.2105 S   0  0  0  0  0  0  0  0  0  0  0  0
   -0.0889    1.5365    1.4617 C   0  0  0  0  0  0  0  0  0  0  0  0
    0.5649    2.6395    2.5358 S   0  0  0  0  0  0  0  0  0  0  0  0
    0.5781    0.6401    0.6373 N   0  0  0  0  0  0  0  0  0  0  0  0
    1.9580    0.5566    0.7342 N   0  0  0  0  0  0  0  0  0  0  0  0
    2.6404    0.0315   -0.2312 C   0  0  0  0  0  0  0  0  0  0  0  0
    4.1098   -0.1099   -0.1390 C   0  0  0  0  0  0  0  0  0  0  0  0
    4.7960   -0.7064   -1.2013 C   0  0  0  0  0  0  0  0  0  0  0  0
    6.1832   -0.8469   -1.1346 C   0  0  0  0  0  0  0  0  0  0  0  0
    6.8706   -0.3928   -0.0132 C   0  0  0  0  0  0  0  0  0  0  0  0
    8.2242   -0.5515    0.0060 O   0  0  0  0  0  0  0  0  0  0  0  0
    6.1957    0.2016    1.0494 C   0  0  0  0  0  0  0  0  0  0  0  0
    4.8076    0.3437    0.9865 C   0  0  0  0  0  0  0  0  0  0  0  0
   -2.3577   -1.3793   -1.2262 H   0  0  0  0  0  0  0  0  0  0  0  0
   -4.0324    1.6698   -1.2894 H   0  0  0  0  0  0  0  0  0  0  0  0
   -6.4559    2.0126   -1.0847 H   0  0  0  0  0  0  0  0  0  0  0  0
   -8.4131    1.0962   -0.4040 H   0  0  0  0  0  0  0  0  0  0  0  0
   -6.8876   -1.9198    0.6082 H   0  0  0  0  0  0  0  0  0  0  0  0
   -4.4490   -2.2763    0.4165 H   0  0  0  0  0  0  0  0  0  0  0  0
    2.1939   -0.3064   -1.1803 H   0  0  0  0  0  0  0  0  0  0  0  0
    4.2669   -1.0669   -2.0794 H   0  0  0  0  0  0  0  0  0  0  0  0
    6.7277   -1.3098   -1.9532 H   0  0  0  0  0  0  0  0  0  0  0  0
    8.5684   -0.1962    0.8421 H   0  0  0  0  0  0  0  0  0  0  0  0
    6.7259    0.5581    1.9271 H   0  0  0  0  0  0  0  0  0  0  0  0
    4.2786    0.8093    1.8153 H   0  0  0  0  0  0  0  0  0  0  0  0
  1  2  2  0
  2  3  1  0
  3  4  2  3
  4  5  1  0
  5  6  2  0
  6  7  1  0
  7  8  2  0
  8  9  1  0
  8 10  1  0
 10 11  2  0
  3 12  1  0
 12 13  1  0
 13 14  2  0
 13 15  1  0
 15 16  1  0
 16 17  2  3
 17 18  1  0
 18 19  2  0
 19 20  1  0
 20 21  2  0
 21 22  1  0
 21 23  1  0
 23 24  2  0
 15  2  1  0
 24 18  1  0
 11  5  1  0
  4 25  1  0
  6 26  1  0
  7 27  1  0
  9 28  1  0
 10 29  1  0
 11 30  1  0
 17 31  1  0
 19 32  1  0
 20 33  1  0
 22 34  1  0
 23 35  1  0
 24 36  1  0
M  END
$$$$
