
     RDKit          3D

 47 48  0  0  0  0  0  0  0  0999 V2000
   -2.3947    1.2616   -3.3893 C   0  0  0  0  0  0  0  0  0  0  0  0
   -3.3179    0.1930   -2.2578 S   0  0  0  0  0  0  0  0  0  0  0  0
   -3.1100    1.1262   -0.7030 C   0  0  0  0  0  0  0  0  0  0  0  0
   -1.6758    1.2717   -0.1790 C   0  0  0  0  0  0  0  0  0  0  0  0
   -0.9604   -0.0064    0.2857 C   0  0  0  0  0  0  0  0  0  0  0  0
   -0.6899   -0.8919   -0.8648 N   0  0  0  0  0  0  0  0  0  0  0  0
    0.5512   -2.0125   -0.6994 S   0  0  0  0  0  6  0  0  0  0  0  0
    0.8543   -2.1689    0.7064 O   0  0  0  0  0  0  0  0  0  0  0  0
    0.2381   -3.1329   -1.5559 O   0  0  0  0  0  0  0  0  0  0  0  0
    1.8911   -1.1296   -1.4632 C   0  0  0  0  0  0  0  0  0  0  0  0
    2.9494   -0.6524   -0.6876 C   0  0  0  0  0  0  0  0  0  0  0  0
    3.9951    0.0367   -1.3046 C   0  0  0  0  0  0  0  0  0  0  0  0
    3.9843    0.2548   -2.6898 C   0  0  0  0  0  0  0  0  0  0  0  0
    5.1298    0.9616   -3.3538 C   0  0  0  0  0  0  0  0  0  0  0  0
    2.9256   -0.2505   -3.4574 C   0  0  0  0  0  0  0  0  0  0  0  0
    1.8772   -0.9404   -2.8475 C   0  0  0  0  0  0  0  0  0  0  0  0
   -1.7843   -0.7627    1.3416 C   0  0  0  0  0  0  0  0  0  0  0  0
   -2.6046   -1.6192    0.9995 O   0  0  0  0  0  0  0  0  0  0  0  0
   -1.6140   -0.4124    2.6633 N   0  0  0  0  0  0  0  0  0  0  0  0
   -0.5937    0.4622    3.2178 C   0  0  0  0  0  0  0  0  0  0  0  0
   -0.9479    0.5620    4.6937 C   0  0  0  0  0  0  0  0  0  0  0  0
   -1.5499   -0.8058    4.9866 C   0  0  0  0  0  0  0  0  0  0  0  0
   -2.3277   -1.1182    3.7155 C   0  0  0  0  0  0  0  0  0  0  0  0
   -1.3240    1.2174   -3.1765 H   0  0  0  0  0  0  0  0  0  0  0  0
   -2.7466    2.2939   -3.3174 H   0  0  0  0  0  0  0  0  0  0  0  0
   -2.5518    0.9137   -4.4139 H   0  0  0  0  0  0  0  0  0  0  0  0
   -3.7432    0.6519    0.0535 H   0  0  0  0  0  0  0  0  0  0  0  0
   -3.5319    2.1245   -0.8655 H   0  0  0  0  0  0  0  0  0  0  0  0
   -1.7261    1.9575    0.6769 H   0  0  0  0  0  0  0  0  0  0  0  0
   -1.0570    1.7817   -0.9272 H   0  0  0  0  0  0  0  0  0  0  0  0
    0.0032    0.3011    0.7057 H   0  0  0  0  0  0  0  0  0  0  0  0
   -1.5331   -1.3308   -1.2571 H   0  0  0  0  0  0  0  0  0  0  0  0
    2.9739   -0.8186    0.3866 H   0  0  0  0  0  0  0  0  0  0  0  0
    4.8242    0.3982   -0.6996 H   0  0  0  0  0  0  0  0  0  0  0  0
    5.5729    1.7038   -2.6815 H   0  0  0  0  0  0  0  0  0  0  0  0
    5.8997    0.2387   -3.6403 H   0  0  0  0  0  0  0  0  0  0  0  0
    4.7933    1.4949   -4.2491 H   0  0  0  0  0  0  0  0  0  0  0  0
    2.9155   -0.1141   -4.5369 H   0  0  0  0  0  0  0  0  0  0  0  0
    1.0600   -1.3318   -3.4496 H   0  0  0  0  0  0  0  0  0  0  0  0
    0.3803   -0.0179    3.0729 H   0  0  0  0  0  0  0  0  0  0  0  0
   -0.5933    1.4347    2.7195 H   0  0  0  0  0  0  0  0  0  0  0  0
   -0.0827    0.7931    5.3208 H   0  0  0  0  0  0  0  0  0  0  0  0
   -1.7047    1.3406    4.8481 H   0  0  0  0  0  0  0  0  0  0  0  0
   -0.7475   -1.5406    5.1245 H   0  0  0  0  0  0  0  0  0  0  0  0
   -2.1803   -0.8153    5.8799 H   0  0  0  0  0  0  0  0  0  0  0  0
   -3.3436   -0.7105    3.7579 H   0  0  0  0  0  0  0  0  0  0  0  0
   -2.3826   -2.1919    3.5112 H   0  0  0  0  0  0  0  0  0  0  0  0
  1  2  1  0
  2  3  1  0
  3  4  1  0
  4  5  1  0
  5  6  1  0
  6  7  1  0
  7  8  2  0
  7  9  2  0
  7 10  1  0
 10 11  2  0
 11 12  1  0
 12 13  2  0
 13 14  1  0
 13 15  1  0
 15 16  2  0
  5 17  1  0
 17 18  2  0
 17 19  1  0
 19 20  1  0
 20 21  1  0
 21 22  1  0
 22 23  1  0
 16 10  1  0
 23 19  1  0
  1 24  1  0
  1 25  1  0
  1 26  1  0
  3 27  1  0
  3 28  1  0
  4 29  1  0
  4 30  1  0
  5 31  1  0
  6 32  1  0
 11 33  1  0
 12 34  1  0
 14 35  1  0
 14 36  1  0
 14 37  1  0
 15 38  1  0
 16 39  1  0
 20 40  1  0
 20 41  1  0
 21 42  1  0
 21 43  1  0
 22 44  1  0
 22 45  1  0
 23 46  1  0
 23 47  1  0
M  END
$$$$
