
     RDKit          3D

 38 39  0  0  0  0  0  0  0  0999 V2000
   -4.9556   -3.0458    0.9260 O   0  0  0  0  0  0  0  0  0  0  0  0
   -3.9683   -3.4660    0.3473 C   0  0  0  0  0  0  0  0  0  0  0  0
   -3.9606   -4.7051   -0.1816 O   0  0  0  0  0  0  0  0  0  0  0  0
   -2.6716   -2.7462    0.1146 C   0  0  0  0  0  0  0  0  0  0  0  0
   -2.7118   -1.3403    0.7019 C   0  0  0  0  0  0  0  0  0  0  0  0
   -1.4521   -0.5758    0.3414 C   0  0  0  0  0  0  0  0  0  0  0  0
   -0.3091   -1.0534    0.7357 N   0  0  0  0  0  0  0  0  0  0  0  0
    0.8244   -0.3441    0.4717 N   0  0  0  0  0  0  0  0  0  0  0  0
    2.0514   -0.8073    0.9118 C   0  0  0  0  0  0  0  0  0  0  0  0
    2.2484   -1.8833    1.4695 O   0  0  0  0  0  0  0  0  0  0  0  0
    3.2193    0.0629    0.6006 C   0  0  0  0  0  0  0  0  0  0  0  0
    4.3854   -0.6048    0.1851 C   0  0  0  0  0  0  0  0  0  0  0  0
    5.5371    0.1076   -0.1515 C   0  0  0  0  0  0  0  0  0  0  0  0
    5.5402    1.4963   -0.0691 C   0  0  0  0  0  0  0  0  0  0  0  0
    4.3961    2.1713    0.3590 C   0  0  0  0  0  0  0  0  0  0  0  0
    3.2355    1.4619    0.7001 C   0  0  0  0  0  0  0  0  0  0  0  0
    1.7754    2.4996    1.3367 Br  0  0  0  0  0  0  0  0  0  0  0  0
   -1.6402    0.6662   -0.4379 C   0  0  0  0  0  0  0  0  0  0  0  0
   -2.2159    1.7816    0.1724 C   0  0  0  0  0  0  0  0  0  0  0  0
   -2.3704    2.9562   -0.5628 C   0  0  0  0  0  0  0  0  0  0  0  0
   -1.9531    3.0077   -1.8949 C   0  0  0  0  0  0  0  0  0  0  0  0
   -1.3798    1.8863   -2.4986 C   0  0  0  0  0  0  0  0  0  0  0  0
   -1.2212    0.7086   -1.7703 C   0  0  0  0  0  0  0  0  0  0  0  0
   -4.8402   -5.0702    0.0487 H   0  0  0  0  0  0  0  0  0  0  0  0
   -1.8657   -3.3282    0.5753 H   0  0  0  0  0  0  0  0  0  0  0  0
   -2.4934   -2.6956   -0.9656 H   0  0  0  0  0  0  0  0  0  0  0  0
   -2.7861   -1.3838    1.7953 H   0  0  0  0  0  0  0  0  0  0  0  0
   -3.5961   -0.8028    0.3399 H   0  0  0  0  0  0  0  0  0  0  0  0
    0.7491    0.5815    0.0641 H   0  0  0  0  0  0  0  0  0  0  0  0
    4.3947   -1.6928    0.1217 H   0  0  0  0  0  0  0  0  0  0  0  0
    6.4299   -0.4242   -0.4723 H   0  0  0  0  0  0  0  0  0  0  0  0
    6.4377    2.0545   -0.3259 H   0  0  0  0  0  0  0  0  0  0  0  0
    4.4252    3.2563    0.4358 H   0  0  0  0  0  0  0  0  0  0  0  0
   -2.5319    1.7456    1.2119 H   0  0  0  0  0  0  0  0  0  0  0  0
   -2.8149    3.8337   -0.0989 H   0  0  0  0  0  0  0  0  0  0  0  0
   -2.0770    3.9258   -2.4652 H   0  0  0  0  0  0  0  0  0  0  0  0
   -1.0599    1.9326   -3.5369 H   0  0  0  0  0  0  0  0  0  0  0  0
   -0.7750   -0.1666   -2.2368 H   0  0  0  0  0  0  0  0  0  0  0  0
  1  2  2  0
  2  3  1  0
  2  4  1  0
  4  5  1  0
  5  6  1  0
  6  7  2  3
  7  8  1  0
  8  9  1  0
  9 10  2  0
  9 11  1  0
 11 12  2  0
 12 13  1  0
 13 14  2  0
 14 15  1  0
 15 16  2  0
 16 17  1  0
  6 18  1  0
 18 19  2  0
 19 20  1  0
 20 21  2  0
 21 22  1  0
 22 23  2  0
 16 11  1  0
 23 18  1  0
  3 24  1  0
  4 25  1  0
  4 26  1  0
  5 27  1  0
  5 28  1  0
  8 29  1  0
 12 30  1  0
 13 31  1  0
 14 32  1  0
 15 33  1  0
 19 34  1  0
 20 35  1  0
 21 36  1  0
 22 37  1  0
 23 38  1  0
M  END
$$$$
