
     RDKit          3D

 40 41  0  0  0  0  0  0  0  0999 V2000
    1.9495   -0.8868   -3.8374 C   0  0  0  0  0  0  0  0  0  0  0  0
    0.6760   -0.8315   -3.0088 C   0  0  0  0  0  0  0  0  0  0  0  0
    0.9217   -0.5616   -1.5146 C   0  0  0  0  0  0  0  0  0  0  0  0
    1.6114   -1.7514   -0.8219 C   0  0  0  0  0  0  0  0  0  0  0  0
    1.9968   -1.4455    0.6086 C   0  0  0  0  0  0  0  0  0  0  0  0
    3.2004   -0.7869    0.8940 C   0  0  0  0  0  0  0  0  0  0  0  0
    3.5474   -0.4891    2.2127 C   0  0  0  0  0  0  0  0  0  0  0  0
    2.6947   -0.8433    3.2565 C   0  0  0  0  0  0  0  0  0  0  0  0
    1.4930   -1.4936    2.9832 C   0  0  0  0  0  0  0  0  0  0  0  0
    1.1442   -1.7924    1.6655 C   0  0  0  0  0  0  0  0  0  0  0  0
   -0.3652   -0.3806   -0.8778 O   0  0  0  0  0  0  0  0  0  0  0  0
   -0.8684    0.8769   -0.9099 C   0  0  0  0  0  0  0  0  0  0  0  0
   -0.4128    1.8422   -1.4976 O   0  0  0  0  0  0  0  0  0  0  0  0
   -2.1192    0.9051   -0.1287 C   0  0  0  0  0  0  0  0  0  0  0  0
   -3.0998   -0.0701   -0.3719 C   0  0  0  0  0  0  0  0  0  0  0  0
   -4.3276   -0.0103    0.2902 C   0  0  0  0  0  0  0  0  0  0  0  0
   -4.5862    1.0239    1.1890 C   0  0  0  0  0  0  0  0  0  0  0  0
   -3.6142    1.9956    1.4360 C   0  0  0  0  0  0  0  0  0  0  0  0
   -2.3755    1.9376    0.7789 C   0  0  0  0  0  0  0  0  0  0  0  0
   -1.3339    2.9228    1.1220 C   0  0  0  0  0  0  0  0  0  0  0  0
   -0.1607    2.6906    1.3331 O   0  0  0  0  0  0  0  0  0  0  0  0
   -1.8428    4.1651    1.2022 O   0  0  0  0  0  0  0  0  0  0  0  0
    2.5434    0.0230   -3.7049 H   0  0  0  0  0  0  0  0  0  0  0  0
    2.5690   -1.7477   -3.5720 H   0  0  0  0  0  0  0  0  0  0  0  0
    1.7010   -0.9761   -4.9000 H   0  0  0  0  0  0  0  0  0  0  0  0
    0.1131   -1.7654   -3.1305 H   0  0  0  0  0  0  0  0  0  0  0  0
    0.0289   -0.0472   -3.4198 H   0  0  0  0  0  0  0  0  0  0  0  0
    1.5330    0.3418   -1.3883 H   0  0  0  0  0  0  0  0  0  0  0  0
    0.9488   -2.6267   -0.8302 H   0  0  0  0  0  0  0  0  0  0  0  0
    2.5201   -2.0470   -1.3581 H   0  0  0  0  0  0  0  0  0  0  0  0
    3.8726   -0.4951    0.0907 H   0  0  0  0  0  0  0  0  0  0  0  0
    4.4800    0.0267    2.4248 H   0  0  0  0  0  0  0  0  0  0  0  0
    2.9630   -0.6047    4.2819 H   0  0  0  0  0  0  0  0  0  0  0  0
    0.8236   -1.7617    3.7959 H   0  0  0  0  0  0  0  0  0  0  0  0
    0.1976   -2.2891    1.4661 H   0  0  0  0  0  0  0  0  0  0  0  0
   -2.9163   -0.8681   -1.0883 H   0  0  0  0  0  0  0  0  0  0  0  0
   -5.0864   -0.7656    0.0978 H   0  0  0  0  0  0  0  0  0  0  0  0
   -5.5443    1.0721    1.7020 H   0  0  0  0  0  0  0  0  0  0  0  0
   -3.8197    2.7905    2.1501 H   0  0  0  0  0  0  0  0  0  0  0  0
   -1.0564    4.7234    1.3796 H   0  0  0  0  0  0  0  0  0  0  0  0
  1  2  1  0
  2  3  1  0
  3  4  1  0
  4  5  1  0
  5  6  2  0
  6  7  1  0
  7  8  2  0
  8  9  1  0
  9 10  2  0
  3 11  1  0
 11 12  1  0
 12 13  2  0
 12 14  1  0
 14 15  2  0
 15 16  1  0
 16 17  2  0
 17 18  1  0
 18 19  2  0
 19 20  1  0
 20 21  2  0
 20 22  1  0
 10  5  1  0
 19 14  1  0
  1 23  1  0
  1 24  1  0
  1 25  1  0
  2 26  1  0
  2 27  1  0
  3 28  1  0
  4 29  1  0
  4 30  1  0
  6 31  1  0
  7 32  1  0
  8 33  1  0
  9 34  1  0
 10 35  1  0
 15 36  1  0
 16 37  1  0
 17 38  1  0
 18 39  1  0
 22 40  1  0
M  END
$$$$
