
     RDKit          3D

 69 71  0  0  0  0  0  0  0  0999 V2000
    7.3923    1.1026    2.5297 C   0  0  0  0  0  0  0  0  0  0  0  0
    6.5995    0.6534    1.3138 C   0  0  0  0  0  0  0  0  0  0  0  0
    6.0256    1.8444    0.5463 C   0  0  0  0  0  0  0  0  0  0  0  0
    5.2027    1.3818   -0.6582 C   0  0  0  0  0  0  0  0  0  0  0  0
    4.6313    2.5689   -1.4330 C   0  0  0  0  0  0  0  0  0  0  0  0
    3.9089    2.1839   -2.7298 C   0  0  0  0  0  0  0  0  0  0  0  0
    2.6589    1.3186   -2.5293 C   0  0  0  0  0  0  0  0  0  0  0  0
    2.9308   -0.1765   -2.7261 C   0  0  0  0  0  0  0  0  0  0  0  0
    1.6871   -1.0458   -2.5352 C   0  0  0  0  0  0  0  0  0  0  0  0
    1.1740   -1.0670   -1.0984 C   0  0  0  0  0  0  0  0  0  0  0  0
    0.0790   -1.9967   -1.0342 O   0  0  0  0  0  0  0  0  0  0  0  0
   -0.5950   -1.9958    0.1476 C   0  0  0  0  0  0  0  0  0  0  0  0
   -0.3529   -1.2824    1.1128 O   0  0  0  0  0  0  0  0  0  0  0  0
   -1.7792   -2.9434    0.0879 C   0  0  0  0  0  0  0  0  0  0  0  0
   -2.9861   -2.2419   -0.3909 N   0  0  0  0  0  0  0  0  0  0  0  0
   -3.7782   -1.4420    0.3655 C   0  0  0  0  0  0  0  0  0  0  0  0
   -3.6528   -1.1315    1.8545 C   0  0  0  0  0  0  0  0  0  0  0  0
   -3.6197    0.2769    2.0415 O   0  0  0  0  0  0  0  0  0  0  0  0
   -3.5313    0.7266    3.3288 C   0  0  0  0  0  0  0  0  0  0  0  0
   -3.4170    2.1155    3.4516 C   0  0  0  0  0  0  0  0  0  0  0  0
   -3.3241    2.7139    4.7104 C   0  0  0  0  0  0  0  0  0  0  0  0
   -3.3479    1.9200    5.8527 C   0  0  0  0  0  0  0  0  0  0  0  0
   -3.2356    2.6479    7.4056 Cl  0  0  0  0  0  0  0  0  0  0  0  0
   -3.4638    0.5355    5.7422 C   0  0  0  0  0  0  0  0  0  0  0  0
   -3.5551   -0.0638    4.4801 C   0  0  0  0  0  0  0  0  0  0  0  0
   -4.7436   -0.9572   -0.4537 N   0  0  0  0  0  4  0  0  0  0  0  0
   -5.7913   -0.0297   -0.0227 C   0  0  0  0  0  0  0  0  0  0  0  0
   -4.5429   -1.4013   -1.7549 C   0  0  0  0  0  0  0  0  0  0  0  0
   -5.2353   -1.1490   -2.9379 C   0  0  0  0  0  0  0  0  0  0  0  0
   -4.7343   -1.7655   -4.0922 C   0  0  0  0  0  0  0  0  0  0  0  0
   -3.5940   -2.5883   -4.0547 C   0  0  0  0  0  0  0  0  0  0  0  0
   -2.9032   -2.8343   -2.8610 C   0  0  0  0  0  0  0  0  0  0  0  0
   -3.4128   -2.2213   -1.7170 C   0  0  0  0  0  0  0  0  0  0  0  0
    8.2180    1.7596    2.2396 H   0  0  0  0  0  0  0  0  0  0  0  0
    6.7530    1.6435    3.2343 H   0  0  0  0  0  0  0  0  0  0  0  0
    7.8142    0.2357    3.0493 H   0  0  0  0  0  0  0  0  0  0  0  0
    7.2510    0.0663    0.6564 H   0  0  0  0  0  0  0  0  0  0  0  0
    5.7877   -0.0069    1.6386 H   0  0  0  0  0  0  0  0  0  0  0  0
    5.3937    2.4426    1.2141 H   0  0  0  0  0  0  0  0  0  0  0  0
    6.8432    2.4922    0.2083 H   0  0  0  0  0  0  0  0  0  0  0  0
    4.3861    0.7450   -0.3001 H   0  0  0  0  0  0  0  0  0  0  0  0
    5.8310    0.7757   -1.3223 H   0  0  0  0  0  0  0  0  0  0  0  0
    5.4466    3.2561   -1.6917 H   0  0  0  0  0  0  0  0  0  0  0  0
    3.9445    3.1301   -0.7867 H   0  0  0  0  0  0  0  0  0  0  0  0
    3.5959    3.1202   -3.2103 H   0  0  0  0  0  0  0  0  0  0  0  0
    4.6092    1.7026   -3.4229 H   0  0  0  0  0  0  0  0  0  0  0  0
    2.2230    1.5173   -1.5451 H   0  0  0  0  0  0  0  0  0  0  0  0
    1.9087    1.6227   -3.2704 H   0  0  0  0  0  0  0  0  0  0  0  0
    3.7175   -0.5235   -2.0497 H   0  0  0  0  0  0  0  0  0  0  0  0
    3.3061   -0.3345   -3.7452 H   0  0  0  0  0  0  0  0  0  0  0  0
    1.9203   -2.0735   -2.8417 H   0  0  0  0  0  0  0  0  0  0  0  0
    0.8851   -0.7154   -3.2070 H   0  0  0  0  0  0  0  0  0  0  0  0
    1.9629   -1.4012   -0.4160 H   0  0  0  0  0  0  0  0  0  0  0  0
    0.8243   -0.0732   -0.8009 H   0  0  0  0  0  0  0  0  0  0  0  0
   -1.9647   -3.3575    1.0837 H   0  0  0  0  0  0  0  0  0  0  0  0
   -1.5480   -3.7967   -0.5573 H   0  0  0  0  0  0  0  0  0  0  0  0
   -4.5442   -1.5839    2.3021 H   0  0  0  0  0  0  0  0  0  0  0  0
   -2.7387   -1.6051    2.2154 H   0  0  0  0  0  0  0  0  0  0  0  0
   -3.3925    2.7435    2.5636 H   0  0  0  0  0  0  0  0  0  0  0  0
   -3.2304    3.7943    4.7913 H   0  0  0  0  0  0  0  0  0  0  0  0
   -3.4809   -0.0819    6.6374 H   0  0  0  0  0  0  0  0  0  0  0  0
   -3.6432   -1.1449    4.4462 H   0  0  0  0  0  0  0  0  0  0  0  0
   -6.5875    0.0314   -0.7698 H   0  0  0  0  0  0  0  0  0  0  0  0
   -6.2261   -0.3809    0.9172 H   0  0  0  0  0  0  0  0  0  0  0  0
   -5.3517    0.9618    0.1096 H   0  0  0  0  0  0  0  0  0  0  0  0
   -6.1090   -0.5106   -2.9710 H   0  0  0  0  0  0  0  0  0  0  0  0
   -5.2382   -1.6018   -5.0457 H   0  0  0  0  0  0  0  0  0  0  0  0
   -3.2393   -3.0432   -4.9808 H   0  0  0  0  0  0  0  0  0  0  0  0
   -2.0212   -3.4623   -2.8385 H   0  0  0  0  0  0  0  0  0  0  0  0
  1  2  1  0
  2  3  1  0
  3  4  1  0
  4  5  1  0
  5  6  1  0
  6  7  1  0
  7  8  1  0
  8  9  1  0
  9 10  1  0
 10 11  1  0
 11 12  1  0
 12 13  2  0
 12 14  1  0
 14 15  1  0
 15 16  1  0
 16 17  1  0
 17 18  1  0
 18 19  1  0
 19 20  2  0
 20 21  1  0
 21 22  2  0
 22 23  1  0
 22 24  1  0
 24 25  2  0
 16 26  2  0
 26 27  1  0
 26 28  1  0
 28 29  2  0
 29 30  1  0
 30 31  2  0
 31 32  1  0
 32 33  2  0
 33 15  1  0
 25 19  1  0
 33 28  1  0
  1 34  1  0
  1 35  1  0
  1 36  1  0
  2 37  1  0
  2 38  1  0
  3 39  1  0
  3 40  1  0
  4 41  1  0
  4 42  1  0
  5 43  1  0
  5 44  1  0
  6 45  1  0
  6 46  1  0
  7 47  1  0
  7 48  1  0
  8 49  1  0
  8 50  1  0
  9 51  1  0
  9 52  1  0
 10 53  1  0
 10 54  1  0
 14 55  1  0
 14 56  1  0
 17 57  1  0
 17 58  1  0
 20 59  1  0
 21 60  1  0
 24 61  1  0
 25 62  1  0
 27 63  1  0
 27 64  1  0
 27 65  1  0
 29 66  1  0
 30 67  1  0
 31 68  1  0
 32 69  1  0
M  CHG  1  26   1
M  END
$$$$
