
     RDKit          3D

 36 37  0  0  0  0  0  0  0  0999 V2000
   -2.2066    3.3698    0.7198 C   0  0  0  0  0  0  0  0  0  0  0  0
   -1.7525    2.0422    0.2287 C   0  0  0  0  0  0  0  0  0  0  0  0
   -0.4368    1.6641    0.4538 N   0  0  0  0  0  0  0  0  0  0  0  0
   -0.2013    0.4898   -0.0835 C   0  0  0  0  0  0  0  0  0  0  0  0
    1.0504   -0.0681    0.0095 N   0  0  0  0  0  0  0  0  0  0  0  0
    1.5800   -1.2672   -0.3949 C   0  0  0  0  0  0  0  0  0  0  0  0
    0.8614   -2.5819   -1.1380 S   0  0  0  0  0  0  0  0  0  0  0  0
    2.9359   -1.4159   -0.1360 N   0  0  0  0  0  0  0  0  0  0  0  0
    3.8309   -0.5432    0.4701 C   0  0  0  0  0  0  0  0  0  0  0  0
    3.4908    0.5552    0.9056 O   0  0  0  0  0  0  0  0  0  0  0  0
    5.1817   -1.0543    0.5426 C   0  0  0  0  0  0  0  0  0  0  0  0
    6.3396   -0.5050    1.0588 C   0  0  0  0  0  0  0  0  0  0  0  0
    7.3676   -1.4566    0.8548 C   0  0  0  0  0  0  0  0  0  0  0  0
    6.7784   -2.5286    0.2277 C   0  0  0  0  0  0  0  0  0  0  0  0
    5.4542   -2.2982    0.0328 O   0  0  0  0  0  0  0  0  0  0  0  0
   -1.5158   -0.2165   -0.8914 S   0  0  0  0  0  0  0  0  0  0  0  0
   -2.5136    1.1018   -0.4431 C   0  0  0  0  0  0  0  0  0  0  0  0
   -3.8939    1.2040   -0.8720 C   0  0  0  0  0  0  0  0  0  0  0  0
   -4.3059    2.2258   -1.4234 O   0  0  0  0  0  0  0  0  0  0  0  0
   -4.7572    0.1268   -0.6358 N   0  0  0  0  0  0  0  0  0  0  0  0
   -6.0738    0.1464   -1.2480 C   0  0  0  0  0  0  0  0  0  0  0  0
   -4.5303   -0.9107    0.3604 C   0  0  0  0  0  0  0  0  0  0  0  0
   -2.3721    4.0504   -0.1209 H   0  0  0  0  0  0  0  0  0  0  0  0
   -1.4570    3.8190    1.3790 H   0  0  0  0  0  0  0  0  0  0  0  0
   -3.1393    3.2764    1.2849 H   0  0  0  0  0  0  0  0  0  0  0  0
    1.6870    0.5639    0.4945 H   0  0  0  0  0  0  0  0  0  0  0  0
    3.3298   -2.2982   -0.4443 H   0  0  0  0  0  0  0  0  0  0  0  0
    6.4208    0.4684    1.5247 H   0  0  0  0  0  0  0  0  0  0  0  0
    8.4098   -1.3718    1.1305 H   0  0  0  0  0  0  0  0  0  0  0  0
    7.1461   -3.4820   -0.1275 H   0  0  0  0  0  0  0  0  0  0  0  0
   -6.3324   -0.8661   -1.5721 H   0  0  0  0  0  0  0  0  0  0  0  0
   -6.8002    0.4923   -0.5067 H   0  0  0  0  0  0  0  0  0  0  0  0
   -6.1058    0.8101   -2.1164 H   0  0  0  0  0  0  0  0  0  0  0  0
   -3.6896   -0.6813    1.0175 H   0  0  0  0  0  0  0  0  0  0  0  0
   -5.4238   -1.0017    0.9867 H   0  0  0  0  0  0  0  0  0  0  0  0
   -4.3567   -1.8587   -0.1562 H   0  0  0  0  0  0  0  0  0  0  0  0
  1  2  1  0
  2  3  1  0
  3  4  2  0
  4  5  1  0
  5  6  1  0
  6  7  2  0
  6  8  1  0
  8  9  1  0
  9 10  2  0
  9 11  1  0
 11 12  2  0
 12 13  1  0
 13 14  2  0
 14 15  1  0
  4 16  1  0
 16 17  1  0
 17 18  1  0
 18 19  2  0
 18 20  1  0
 20 21  1  0
 20 22  1  0
 17  2  2  0
 15 11  1  0
  1 23  1  0
  1 24  1  0
  1 25  1  0
  5 26  1  0
  8 27  1  0
 12 28  1  0
 13 29  1  0
 14 30  1  0
 21 31  1  0
 21 32  1  0
 21 33  1  0
 22 34  1  0
 22 35  1  0
 22 36  1  0
M  END
$$$$
