
     RDKit          3D

 92 93  0  0  0  0  0  0  0  0999 V2000
   12.5985   -0.3149    0.3742 C   0  0  0  0  0  0  0  0  0  0  0  0
   11.8384    0.6036    1.3177 C   0  0  0  0  0  0  0  0  0  0  0  0
   10.6638   -0.0792    2.0209 C   0  0  0  0  0  0  0  0  0  0  0  0
    9.5724   -0.6437    1.1051 C   0  0  0  0  0  0  0  0  0  0  0  0
    8.8876    0.4240    0.2476 C   0  0  0  0  0  0  0  0  0  0  0  0
    7.7480   -0.1256   -0.6194 C   0  0  0  0  0  0  0  0  0  0  0  0
    6.5455   -0.6049    0.1978 C   0  0  0  0  0  0  0  0  0  0  0  0
    5.3825   -1.1051   -0.6651 C   0  0  0  0  0  0  0  0  0  0  0  0
    4.6352    0.0182   -1.3881 C   0  0  0  0  0  0  0  0  0  0  0  0
    3.4660   -0.4802   -2.2466 C   0  0  0  0  0  0  0  0  0  0  0  0
    2.3855   -1.2781   -1.5097 C   0  0  0  0  0  0  0  0  0  0  0  0
    1.7043   -0.4937   -0.3857 C   0  0  0  0  0  0  0  0  0  0  0  0
    0.6375   -1.3422    0.3128 C   0  0  0  0  0  0  0  0  0  0  0  0
   -0.0405   -0.6149    1.4784 C   0  0  0  0  0  0  0  0  0  0  0  0
   -0.8537    0.6263    1.1055 C   0  0  0  0  0  0  0  0  0  0  0  0
   -1.9087    0.5083   -0.0020 C   0  0  0  0  0  0  0  0  0  0  0  0
   -3.2078   -0.2693    0.3293 N   0  0  0  0  0  4  0  0  0  0  0  0
   -3.7446    0.1108    1.7056 C   0  0  0  0  0  0  0  0  0  0  0  0
   -2.9916   -1.7728    0.2449 C   0  0  0  0  0  0  0  0  0  0  0  0
   -4.2426    0.1564   -0.7767 C   0  0  0  0  0  0  0  0  0  0  0  0
   -5.5831   -0.6128   -0.7628 C   0  0  0  0  0  0  0  0  0  0  0  0
   -6.5941    0.0029   -1.6202 N   0  0  0  0  0  0  0  0  0  0  0  0
   -7.2954    1.2375   -1.2552 C   0  0  0  0  0  0  0  0  0  0  0  0
   -7.4382    1.4236    0.2420 C   0  0  0  0  0  0  0  0  0  0  0  0
   -8.2934    0.5946    0.9833 C   0  0  0  0  0  0  0  0  0  0  0  0
   -8.4018    0.7362    2.3713 C   0  0  0  0  0  0  0  0  0  0  0  0
   -7.6652    1.7176    3.0325 C   0  0  0  0  0  0  0  0  0  0  0  0
   -7.6632    1.9472    4.3799 O   0  0  0  0  0  0  0  0  0  0  0  0
   -8.7148    1.3486    5.1313 C   0  0  0  0  0  0  0  0  0  0  0  0
   -6.8241    2.5556    2.2971 C   0  0  0  0  0  0  0  0  0  0  0  0
   -6.7143    2.4177    0.9124 C   0  0  0  0  0  0  0  0  0  0  0  0
   -6.4223   -0.1703   -2.9929 C   0  0  0  0  0  0  0  0  0  0  0  0
   -7.1760    0.5476   -3.8378 N   0  0  0  0  0  0  0  0  0  0  0  0
   -7.0109    0.3488   -5.1599 C   0  0  0  0  0  0  0  0  0  0  0  0
   -6.1024   -0.5332   -5.6814 C   0  0  0  0  0  0  0  0  0  0  0  0
   -5.3553   -1.2086   -4.7521 C   0  0  0  0  0  0  0  0  0  0  0  0
   -5.4843   -1.0360   -3.4197 N   0  0  0  0  0  0  0  0  0  0  0  0
   13.4843    0.1969   -0.0168 H   0  0  0  0  0  0  0  0  0  0  0  0
   11.9822   -0.6106   -0.4801 H   0  0  0  0  0  0  0  0  0  0  0  0
   12.9318   -1.2207    0.8914 H   0  0  0  0  0  0  0  0  0  0  0  0
   11.4968    1.4898    0.7717 H   0  0  0  0  0  0  0  0  0  0  0  0
   12.5336    0.9648    2.0853 H   0  0  0  0  0  0  0  0  0  0  0  0
   10.2082    0.6392    2.7142 H   0  0  0  0  0  0  0  0  0  0  0  0
   11.0513   -0.8986    2.6396 H   0  0  0  0  0  0  0  0  0  0  0  0
    9.9865   -1.4280    0.4612 H   0  0  0  0  0  0  0  0  0  0  0  0
    8.8321   -1.1314    1.7490 H   0  0  0  0  0  0  0  0  0  0  0  0
    8.5057    1.2284    0.8878 H   0  0  0  0  0  0  0  0  0  0  0  0
    9.6258    0.8763   -0.4244 H   0  0  0  0  0  0  0  0  0  0  0  0
    7.4347    0.6738   -1.2998 H   0  0  0  0  0  0  0  0  0  0  0  0
    8.1225   -0.9452   -1.2452 H   0  0  0  0  0  0  0  0  0  0  0  0
    6.1976    0.1971    0.8598 H   0  0  0  0  0  0  0  0  0  0  0  0
    6.8554   -1.4354    0.8416 H   0  0  0  0  0  0  0  0  0  0  0  0
    5.7467   -1.8413   -1.3913 H   0  0  0  0  0  0  0  0  0  0  0  0
    4.6891   -1.6316   -0.0003 H   0  0  0  0  0  0  0  0  0  0  0  0
    5.3249    0.5540   -2.0500 H   0  0  0  0  0  0  0  0  0  0  0  0
    4.2762    0.7540   -0.6598 H   0  0  0  0  0  0  0  0  0  0  0  0
    3.8647   -1.1049   -3.0558 H   0  0  0  0  0  0  0  0  0  0  0  0
    2.9984    0.3863   -2.7305 H   0  0  0  0  0  0  0  0  0  0  0  0
    1.6256   -1.5786   -2.2425 H   0  0  0  0  0  0  0  0  0  0  0  0
    2.8107   -2.2078   -1.1155 H   0  0  0  0  0  0  0  0  0  0  0  0
    2.4442   -0.1772    0.3576 H   0  0  0  0  0  0  0  0  0  0  0  0
    1.2535    0.4119   -0.8063 H   0  0  0  0  0  0  0  0  0  0  0  0
    1.1121   -2.2485    0.7103 H   0  0  0  0  0  0  0  0  0  0  0  0
   -0.1067   -1.6816   -0.4153 H   0  0  0  0  0  0  0  0  0  0  0  0
   -0.6693   -1.3187    2.0309 H   0  0  0  0  0  0  0  0  0  0  0  0
    0.7345   -0.3078    2.1939 H   0  0  0  0  0  0  0  0  0  0  0  0
   -0.1403    1.3936    0.7756 H   0  0  0  0  0  0  0  0  0  0  0  0
   -1.2966    1.0460    2.0160 H   0  0  0  0  0  0  0  0  0  0  0  0
   -2.2289    1.5295   -0.2459 H   0  0  0  0  0  0  0  0  0  0  0  0
   -1.4944    0.0732   -0.9182 H   0  0  0  0  0  0  0  0  0  0  0  0
   -3.8588    1.1976    1.7448 H   0  0  0  0  0  0  0  0  0  0  0  0
   -4.7014   -0.3876    1.8713 H   0  0  0  0  0  0  0  0  0  0  0  0
   -3.0376   -0.2352    2.4644 H   0  0  0  0  0  0  0  0  0  0  0  0
   -2.6510   -2.0208   -0.7641 H   0  0  0  0  0  0  0  0  0  0  0  0
   -3.9333   -2.2814    0.4717 H   0  0  0  0  0  0  0  0  0  0  0  0
   -2.2564   -2.0750    0.9873 H   0  0  0  0  0  0  0  0  0  0  0  0
   -4.4097    1.2304   -0.6364 H   0  0  0  0  0  0  0  0  0  0  0  0
   -3.7316    0.0179   -1.7365 H   0  0  0  0  0  0  0  0  0  0  0  0
   -5.9718   -0.6985    0.2531 H   0  0  0  0  0  0  0  0  0  0  0  0
   -5.4205   -1.6553   -1.0663 H   0  0  0  0  0  0  0  0  0  0  0  0
   -8.3084    1.2477   -1.6802 H   0  0  0  0  0  0  0  0  0  0  0  0
   -6.7655    2.1060   -1.6706 H   0  0  0  0  0  0  0  0  0  0  0  0
   -8.8752   -0.1760    0.4790 H   0  0  0  0  0  0  0  0  0  0  0  0
   -9.0691    0.0651    2.9043 H   0  0  0  0  0  0  0  0  0  0  0  0
   -8.6500    1.7284    6.1561 H   0  0  0  0  0  0  0  0  0  0  0  0
   -9.6961    1.6267    4.7327 H   0  0  0  0  0  0  0  0  0  0  0  0
   -8.5975    0.2609    5.1705 H   0  0  0  0  0  0  0  0  0  0  0  0
   -6.2702    3.3398    2.8094 H   0  0  0  0  0  0  0  0  0  0  0  0
   -6.0713    3.1034    0.3646 H   0  0  0  0  0  0  0  0  0  0  0  0
   -7.6580    0.9398   -5.8016 H   0  0  0  0  0  0  0  0  0  0  0  0
   -5.9877   -0.6849   -6.7455 H   0  0  0  0  0  0  0  0  0  0  0  0
   -4.6088   -1.9360   -5.0583 H   0  0  0  0  0  0  0  0  0  0  0  0
  1  2  1  0
  2  3  1  0
  3  4  1  0
  4  5  1  0
  5  6  1  0
  6  7  1  0
  7  8  1  0
  8  9  1  0
  9 10  1  0
 10 11  1  0
 11 12  1  0
 12 13  1  0
 13 14  1  0
 14 15  1  0
 15 16  1  0
 16 17  1  0
 17 18  1  0
 17 19  1  0
 17 20  1  0
 20 21  1  0
 21 22  1  0
 22 23  1  0
 23 24  1  0
 24 25  2  0
 25 26  1  0
 26 27  2  0
 27 28  1  0
 28 29  1  0
 27 30  1  0
 30 31  2  0
 22 32  1  0
 32 33  2  0
 33 34  1  0
 34 35  2  0
 35 36  1  0
 36 37  2  0
 31 24  1  0
 37 32  1  0
  1 38  1  0
  1 39  1  0
  1 40  1  0
  2 41  1  0
  2 42  1  0
  3 43  1  0
  3 44  1  0
  4 45  1  0
  4 46  1  0
  5 47  1  0
  5 48  1  0
  6 49  1  0
  6 50  1  0
  7 51  1  0
  7 52  1  0
  8 53  1  0
  8 54  1  0
  9 55  1  0
  9 56  1  0
 10 57  1  0
 10 58  1  0
 11 59  1  0
 11 60  1  0
 12 61  1  0
 12 62  1  0
 13 63  1  0
 13 64  1  0
 14 65  1  0
 14 66  1  0
 15 67  1  0
 15 68  1  0
 16 69  1  0
 16 70  1  0
 18 71  1  0
 18 72  1  0
 18 73  1  0
 19 74  1  0
 19 75  1  0
 19 76  1  0
 20 77  1  0
 20 78  1  0
 21 79  1  0
 21 80  1  0
 23 81  1  0
 23 82  1  0
 25 83  1  0
 26 84  1  0
 29 85  1  0
 29 86  1  0
 29 87  1  0
 30 88  1  0
 31 89  1  0
 34 90  1  0
 35 91  1  0
 36 92  1  0
M  CHG  1  17   1
M  END
$$$$
