
     RDKit          3D

 62 65  0  0  0  0  0  0  0  0999 V2000
    0.9306    0.4359    2.4080 C   0  0  0  0  0  0  0  0  0  0  0  0
   -0.3382    0.7467    1.6565 C   0  0  0  0  0  0  0  0  0  0  0  0
   -1.0763    1.8569    2.1132 C   0  0  0  0  0  0  0  0  0  0  0  0
   -2.2535    2.2584    1.4823 C   0  0  0  0  0  0  0  0  0  0  0  0
   -2.9371    3.3381    1.9635 O   0  0  0  0  0  0  0  0  0  0  0  0
   -2.7386    1.5744    0.3705 C   0  0  0  0  0  0  0  0  0  0  0  0
   -4.0161    1.9530   -0.3638 C   0  0  0  0  0  0  0  0  0  0  0  0
   -3.9266    3.3376   -1.0113 C   0  0  0  0  0  0  0  0  0  0  0  0
   -5.2588    1.8302    0.5220 C   0  0  0  0  0  0  0  0  0  0  0  0
   -1.9913    0.4766   -0.0973 C   0  0  0  0  0  0  0  0  0  0  0  0
   -0.7815    0.0454    0.5074 C   0  0  0  0  0  0  0  0  0  0  0  0
   -0.0486   -1.1907   -0.0954 C   0  0  0  0  0  0  0  0  0  0  0  0
    1.4788   -0.9958   -0.2768 C   0  0  0  0  0  0  0  0  0  0  0  0
    1.8644    0.2169   -0.9232 C   0  0  0  0  0  0  0  0  0  0  0  0
    3.1989    0.5907   -1.1575 C   0  0  0  0  0  0  0  0  0  0  0  0
    3.5300    1.9117   -1.8323 C   0  0  0  0  0  0  0  0  0  0  0  0
    3.0417    1.9304   -3.2838 C   0  0  0  0  0  0  0  0  0  0  0  0
    2.9669    3.1055   -1.0532 C   0  0  0  0  0  0  0  0  0  0  0  0
    4.1894   -0.2990   -0.7604 C   0  0  0  0  0  0  0  0  0  0  0  0
    5.5013    0.0188   -0.9702 O   0  0  0  0  0  0  0  0  0  0  0  0
    3.8593   -1.5133   -0.1605 C   0  0  0  0  0  0  0  0  0  0  0  0
    2.5168   -1.8883    0.0770 C   0  0  0  0  0  0  0  0  0  0  0  0
    2.3178   -3.2398    0.7056 C   0  0  0  0  0  0  0  0  0  0  0  0
   -0.4693   -1.3600   -1.4970 O   0  0  0  0  0  0  0  0  0  0  0  0
   -0.9834   -2.5880   -1.7644 C   0  0  0  0  0  0  0  0  0  0  0  0
   -1.3225   -3.0185   -2.8477 O   0  0  0  0  0  0  0  0  0  0  0  0
   -1.1075   -3.2629   -0.4876 C   0  0  0  0  0  0  0  0  0  0  0  0
   -1.6965   -4.4942   -0.2439 C   0  0  0  0  0  0  0  0  0  0  0  0
   -1.7897   -4.9156    1.0802 C   0  0  0  0  0  0  0  0  0  0  0  0
   -1.3156   -4.0959    2.1144 C   0  0  0  0  0  0  0  0  0  0  0  0
   -0.7281   -2.8556    1.8339 C   0  0  0  0  0  0  0  0  0  0  0  0
   -0.5971   -2.4520    0.5089 C   0  0  0  0  0  0  0  0  0  0  0  0
    1.7696    0.9903    1.9775 H   0  0  0  0  0  0  0  0  0  0  0  0
    1.1632   -0.6292    2.4151 H   0  0  0  0  0  0  0  0  0  0  0  0
    0.8377    0.7269    3.4607 H   0  0  0  0  0  0  0  0  0  0  0  0
   -0.7161    2.4098    2.9781 H   0  0  0  0  0  0  0  0  0  0  0  0
   -2.4426    3.7240    2.7038 H   0  0  0  0  0  0  0  0  0  0  0  0
   -4.1582    1.2397   -1.1873 H   0  0  0  0  0  0  0  0  0  0  0  0
   -4.8086    3.5268   -1.6332 H   0  0  0  0  0  0  0  0  0  0  0  0
   -3.8700    4.1413   -0.2704 H   0  0  0  0  0  0  0  0  0  0  0  0
   -3.0423    3.4125   -1.6543 H   0  0  0  0  0  0  0  0  0  0  0  0
   -6.1669    1.9814   -0.0716 H   0  0  0  0  0  0  0  0  0  0  0  0
   -5.2705    2.5682    1.3298 H   0  0  0  0  0  0  0  0  0  0  0  0
   -5.3183    0.8353    0.9770 H   0  0  0  0  0  0  0  0  0  0  0  0
   -2.3697   -0.0546   -0.9711 H   0  0  0  0  0  0  0  0  0  0  0  0
    1.0797    0.8984   -1.2574 H   0  0  0  0  0  0  0  0  0  0  0  0
    4.6182    2.0463   -1.8604 H   0  0  0  0  0  0  0  0  0  0  0  0
    1.9499    1.8681   -3.3502 H   0  0  0  0  0  0  0  0  0  0  0  0
    3.4590    1.0886   -3.8479 H   0  0  0  0  0  0  0  0  0  0  0  0
    3.3521    2.8550   -3.7824 H   0  0  0  0  0  0  0  0  0  0  0  0
    3.3097    3.0906   -0.0122 H   0  0  0  0  0  0  0  0  0  0  0  0
    1.8715    3.1142   -1.0447 H   0  0  0  0  0  0  0  0  0  0  0  0
    3.3004    4.0474   -1.5023 H   0  0  0  0  0  0  0  0  0  0  0  0
    6.0560   -0.7299   -0.6998 H   0  0  0  0  0  0  0  0  0  0  0  0
    4.6577   -2.1942    0.1271 H   0  0  0  0  0  0  0  0  0  0  0  0
    1.6510   -3.8589    0.1019 H   0  0  0  0  0  0  0  0  0  0  0  0
    3.2598   -3.7977    0.7692 H   0  0  0  0  0  0  0  0  0  0  0  0
    1.9524   -3.1346    1.7294 H   0  0  0  0  0  0  0  0  0  0  0  0
   -2.0876   -5.0963   -1.0583 H   0  0  0  0  0  0  0  0  0  0  0  0
   -2.2504   -5.8724    1.3152 H   0  0  0  0  0  0  0  0  0  0  0  0
   -1.4158   -4.4234    3.1475 H   0  0  0  0  0  0  0  0  0  0  0  0
   -0.3906   -2.2308    2.6545 H   0  0  0  0  0  0  0  0  0  0  0  0
  1  2  1  0
  2  3  2  0
  3  4  1  0
  4  5  1  0
  4  6  2  0
  6  7  1  0
  7  8  1  0
  7  9  1  0
  6 10  1  0
 10 11  2  0
 11 12  1  0
 12 13  1  0
 13 14  2  0
 14 15  1  0
 15 16  1  0
 16 17  1  0
 16 18  1  0
 15 19  2  0
 19 20  1  0
 19 21  1  0
 21 22  2  0
 22 23  1  0
 12 24  1  0
 24 25  1  0
 25 26  2  0
 25 27  1  0
 27 28  2  0
 28 29  1  0
 29 30  2  0
 30 31  1  0
 31 32  2  0
 11  2  1  0
 32 12  1  0
 22 13  1  0
 32 27  1  0
  1 33  1  0
  1 34  1  0
  1 35  1  0
  3 36  1  0
  5 37  1  0
  7 38  1  0
  8 39  1  0
  8 40  1  0
  8 41  1  0
  9 42  1  0
  9 43  1  0
  9 44  1  0
 10 45  1  0
 14 46  1  0
 16 47  1  0
 17 48  1  0
 17 49  1  0
 17 50  1  0
 18 51  1  0
 18 52  1  0
 18 53  1  0
 20 54  1  0
 21 55  1  0
 23 56  1  0
 23 57  1  0
 23 58  1  0
 28 59  1  0
 29 60  1  0
 30 61  1  0
 31 62  1  0
M  END
$$$$
