
     RDKit          3D

 55 58  0  0  0  0  0  0  0  0999 V2000
    4.7952   -2.5745   -3.8236 C   0  0  0  0  0  0  0  0  0  0  0  0
    3.9603   -1.7616   -3.0109 O   0  0  0  0  0  0  0  0  0  0  0  0
    2.8049   -2.3213   -2.5281 C   0  0  0  0  0  0  0  0  0  0  0  0
    2.3901   -3.6282   -2.7898 C   0  0  0  0  0  0  0  0  0  0  0  0
    1.1845   -4.0986   -2.2713 C   0  0  0  0  0  0  0  0  0  0  0  0
    0.3729   -3.2604   -1.5077 C   0  0  0  0  0  0  0  0  0  0  0  0
    0.7469   -1.9311   -1.2397 C   0  0  0  0  0  0  0  0  0  0  0  0
   -0.1985   -1.0784   -0.4105 C   0  0  0  0  0  0  0  0  0  0  0  0
   -0.3981    0.3646   -0.8900 C   0  0  0  0  0  0  0  0  0  0  0  0
    0.2627    1.1751    0.1962 C   0  0  0  0  0  0  0  0  0  0  0  0
    0.4632    2.6378    0.0648 C   0  0  0  0  0  0  0  0  0  0  0  0
    0.0184    3.3405   -1.0605 C   0  0  0  0  0  0  0  0  0  0  0  0
    0.2205    4.7205   -1.1487 C   0  0  0  0  0  0  0  0  0  0  0  0
    0.8643    5.4024   -0.1171 C   0  0  0  0  0  0  0  0  0  0  0  0
    1.3089    4.7078    1.0061 C   0  0  0  0  0  0  0  0  0  0  0  0
    1.1093    3.3291    1.0981 C   0  0  0  0  0  0  0  0  0  0  0  0
    0.5940    0.5140    1.2637 N   0  0  0  0  0  0  0  0  0  0  0  0
    0.2656   -0.9259    0.9920 N   0  0  0  0  0  0  0  0  0  0  0  0
   -0.5918   -1.7982    2.1950 S   0  0  0  0  0  6  0  0  0  0  0  0
    0.0618   -1.6357    3.4781 O   0  0  0  0  0  0  0  0  0  0  0  0
   -0.8910   -3.1200    1.6757 O   0  0  0  0  0  0  0  0  0  0  0  0
   -2.1341   -0.9038    2.2766 C   0  0  0  0  0  0  0  0  0  0  0  0
   -2.1790    0.3166    2.9553 C   0  0  0  0  0  0  0  0  0  0  0  0
   -3.3802    1.0230    3.0238 C   0  0  0  0  0  0  0  0  0  0  0  0
   -4.5384    0.5135    2.4211 C   0  0  0  0  0  0  0  0  0  0  0  0
   -5.8374    1.2574    2.5312 C   0  0  0  0  0  0  0  0  0  0  0  0
   -4.4871   -0.7292    1.7741 C   0  0  0  0  0  0  0  0  0  0  0  0
   -3.2880   -1.4403    1.6999 C   0  0  0  0  0  0  0  0  0  0  0  0
    1.9939   -1.4921   -1.7239 C   0  0  0  0  0  0  0  0  0  0  0  0
    2.3948   -0.2055   -1.4473 O   0  0  0  0  0  0  0  0  0  0  0  0
    3.4250   -0.2059   -0.4539 C   0  0  0  0  0  0  0  0  0  0  0  0
    5.6631   -1.9751   -4.1152 H   0  0  0  0  0  0  0  0  0  0  0  0
    4.2792   -2.8792   -4.7400 H   0  0  0  0  0  0  0  0  0  0  0  0
    5.1636   -3.4428   -3.2675 H   0  0  0  0  0  0  0  0  0  0  0  0
    2.9831   -4.3099   -3.3897 H   0  0  0  0  0  0  0  0  0  0  0  0
    0.8741   -5.1231   -2.4631 H   0  0  0  0  0  0  0  0  0  0  0  0
   -0.5585   -3.6624   -1.1101 H   0  0  0  0  0  0  0  0  0  0  0  0
   -1.1887   -1.5486   -0.4468 H   0  0  0  0  0  0  0  0  0  0  0  0
    0.0085    0.5670   -1.8831 H   0  0  0  0  0  0  0  0  0  0  0  0
   -1.4650    0.6186   -0.8896 H   0  0  0  0  0  0  0  0  0  0  0  0
   -0.4855    2.8403   -1.8816 H   0  0  0  0  0  0  0  0  0  0  0  0
   -0.1230    5.2648   -2.0253 H   0  0  0  0  0  0  0  0  0  0  0  0
    1.0219    6.4758   -0.1893 H   0  0  0  0  0  0  0  0  0  0  0  0
    1.8133    5.2373    1.8106 H   0  0  0  0  0  0  0  0  0  0  0  0
    1.4652    2.8004    1.9803 H   0  0  0  0  0  0  0  0  0  0  0  0
   -1.2841    0.7183    3.4272 H   0  0  0  0  0  0  0  0  0  0  0  0
   -3.4080    1.9720    3.5557 H   0  0  0  0  0  0  0  0  0  0  0  0
   -5.6661    2.3384    2.5652 H   0  0  0  0  0  0  0  0  0  0  0  0
   -6.4765    1.0573    1.6648 H   0  0  0  0  0  0  0  0  0  0  0  0
   -6.3666    0.9535    3.4395 H   0  0  0  0  0  0  0  0  0  0  0  0
   -5.3860   -1.1536    1.3310 H   0  0  0  0  0  0  0  0  0  0  0  0
   -3.2675   -2.4072    1.2028 H   0  0  0  0  0  0  0  0  0  0  0  0
    3.4721    0.7990   -0.0236 H   0  0  0  0  0  0  0  0  0  0  0  0
    4.3993   -0.4200   -0.9028 H   0  0  0  0  0  0  0  0  0  0  0  0
    3.2186   -0.9125    0.3582 H   0  0  0  0  0  0  0  0  0  0  0  0
  1  2  1  0
  2  3  1  0
  3  4  2  0
  4  5  1  0
  5  6  2  0
  6  7  1  0
  7  8  1  0
  8  9  1  0
  9 10  1  0
 10 11  1  0
 11 12  2  0
 12 13  1  0
 13 14  2  0
 14 15  1  0
 15 16  2  0
 10 17  2  0
 17 18  1  0
 18 19  1  0
 19 20  2  0
 19 21  2  0
 19 22  1  0
 22 23  2  0
 23 24  1  0
 24 25  2  0
 25 26  1  0
 25 27  1  0
 27 28  2  0
  7 29  2  0
 29 30  1  0
 30 31  1  0
 29  3  1  0
 18  8  1  0
 28 22  1  0
 16 11  1  0
  1 32  1  0
  1 33  1  0
  1 34  1  0
  4 35  1  0
  5 36  1  0
  6 37  1  0
  8 38  1  0
  9 39  1  0
  9 40  1  0
 12 41  1  0
 13 42  1  0
 14 43  1  0
 15 44  1  0
 16 45  1  0
 23 46  1  0
 24 47  1  0
 26 48  1  0
 26 49  1  0
 26 50  1  0
 27 51  1  0
 28 52  1  0
 31 53  1  0
 31 54  1  0
 31 55  1  0
M  END
$$$$
