
     RDKit          3D

 54 57  0  0  0  0  0  0  0  0999 V2000
   -7.9329    0.2040    1.9959 C   0  0  0  0  0  0  0  0  0  0  0  0
   -7.4079    0.8997    0.8726 O   0  0  0  0  0  0  0  0  0  0  0  0
   -6.0900    0.6924    0.5761 C   0  0  0  0  0  0  0  0  0  0  0  0
   -5.2057   -0.1209    1.2821 C   0  0  0  0  0  0  0  0  0  0  0  0
   -3.8689   -0.2498    0.8709 C   0  0  0  0  0  0  0  0  0  0  0  0
   -3.4007    0.4288   -0.2586 C   0  0  0  0  0  0  0  0  0  0  0  0
   -2.0502    0.3329   -0.7201 N   0  0  0  0  0  0  0  0  0  0  0  0
   -1.6162    1.2135   -1.6703 N   0  0  0  0  0  0  0  0  0  0  0  0
   -0.3227    0.9521   -1.8369 C   0  0  0  0  0  0  0  0  0  0  0  0
    0.1125   -0.1115   -1.0401 C   0  0  0  0  0  0  0  0  0  0  0  0
   -1.0222   -0.5349   -0.3699 C   0  0  0  0  0  0  0  0  0  0  0  0
   -1.0742   -1.7356    0.5166 C   0  0  0  0  0  0  0  0  0  0  0  0
    0.1659   -2.6599    0.2989 C   0  0  0  0  0  0  0  0  0  0  0  0
    0.2901   -3.6110    1.5044 C   0  0  0  0  0  0  0  0  0  0  0  0
   -0.0200   -3.5203   -0.9677 C   0  0  0  0  0  0  0  0  0  0  0  0
    1.4658   -1.8085    0.1965 C   0  0  0  0  0  0  0  0  0  0  0  0
    1.4447   -0.7719   -0.9517 C   0  0  0  0  0  0  0  0  0  0  0  0
    2.4464    0.2475   -0.7393 N   0  0  0  0  0  0  0  0  0  0  0  0
    3.7810    0.0377   -1.0077 C   0  0  0  0  0  0  0  0  0  0  0  0
    4.2232   -0.9717   -1.5423 O   0  0  0  0  0  0  0  0  0  0  0  0
    4.6761    1.1485   -0.5806 C   0  0  0  0  0  0  0  0  0  0  0  0
    6.0375    1.0804   -0.8260 C   0  0  0  0  0  0  0  0  0  0  0  0
    6.8892    2.0696   -0.4512 N   0  0  0  0  0  0  0  0  0  0  0  0
    6.3251    3.1314    0.1782 C   0  0  0  0  0  0  0  0  0  0  0  0
    7.2219    4.2496    0.6083 C   0  0  0  0  0  0  0  0  0  0  0  0
    4.9538    3.1881    0.4212 C   0  0  0  0  0  0  0  0  0  0  0  0
    4.0946    2.2068    0.0549 N   0  0  0  0  0  0  0  0  0  0  0  0
   -4.2944    1.2610   -0.9532 C   0  0  0  0  0  0  0  0  0  0  0  0
   -5.6248    1.3846   -0.5402 C   0  0  0  0  0  0  0  0  0  0  0  0
   -7.8708   -0.8800    1.8539 H   0  0  0  0  0  0  0  0  0  0  0  0
   -7.4317    0.5116    2.9196 H   0  0  0  0  0  0  0  0  0  0  0  0
   -8.9910    0.4675    2.0878 H   0  0  0  0  0  0  0  0  0  0  0  0
   -5.5184   -0.6653    2.1674 H   0  0  0  0  0  0  0  0  0  0  0  0
   -3.2285   -0.8638    1.4893 H   0  0  0  0  0  0  0  0  0  0  0  0
    0.2460    1.5428   -2.5442 H   0  0  0  0  0  0  0  0  0  0  0  0
   -1.9872   -2.3147    0.3385 H   0  0  0  0  0  0  0  0  0  0  0  0
   -1.0816   -1.3888    1.5576 H   0  0  0  0  0  0  0  0  0  0  0  0
    0.4421   -3.0542    2.4359 H   0  0  0  0  0  0  0  0  0  0  0  0
   -0.6144   -4.2181    1.6235 H   0  0  0  0  0  0  0  0  0  0  0  0
    1.1386   -4.2939    1.3838 H   0  0  0  0  0  0  0  0  0  0  0  0
    0.8563   -4.1550   -1.1415 H   0  0  0  0  0  0  0  0  0  0  0  0
   -0.8909   -4.1785   -0.8696 H   0  0  0  0  0  0  0  0  0  0  0  0
   -0.1726   -2.9140   -1.8659 H   0  0  0  0  0  0  0  0  0  0  0  0
    2.3413   -2.4608    0.0794 H   0  0  0  0  0  0  0  0  0  0  0  0
    1.6121   -1.2835    1.1523 H   0  0  0  0  0  0  0  0  0  0  0  0
    1.6605   -1.2787   -1.9004 H   0  0  0  0  0  0  0  0  0  0  0  0
    2.2197    1.0753   -0.1931 H   0  0  0  0  0  0  0  0  0  0  0  0
    6.4874    0.2318   -1.3304 H   0  0  0  0  0  0  0  0  0  0  0  0
    7.1704    4.3800    1.6937 H   0  0  0  0  0  0  0  0  0  0  0  0
    8.2621    4.0400    0.3390 H   0  0  0  0  0  0  0  0  0  0  0  0
    6.9247    5.1825    0.1194 H   0  0  0  0  0  0  0  0  0  0  0  0
    4.5042    4.0384    0.9246 H   0  0  0  0  0  0  0  0  0  0  0  0
   -3.9745    1.8184   -1.8324 H   0  0  0  0  0  0  0  0  0  0  0  0
   -6.3009    2.0285   -1.0977 H   0  0  0  0  0  0  0  0  0  0  0  0
  1  2  1  0
  2  3  1  0
  3  4  2  0
  4  5  1  0
  5  6  2  0
  6  7  1  0
  7  8  1  0
  8  9  2  0
  9 10  1  0
 10 11  2  0
 11 12  1  0
 12 13  1  0
 13 14  1  0
 13 15  1  0
 13 16  1  0
 16 17  1  0
 17 18  1  0
 18 19  1  0
 19 20  2  0
 19 21  1  0
 21 22  2  0
 22 23  1  0
 23 24  2  0
 24 25  1  0
 24 26  1  0
 26 27  2  0
  6 28  1  0
 28 29  2  0
 29  3  1  0
 11  7  1  0
 27 21  1  0
 17 10  1  0
  1 30  1  0
  1 31  1  0
  1 32  1  0
  4 33  1  0
  5 34  1  0
  9 35  1  0
 12 36  1  0
 12 37  1  0
 14 38  1  0
 14 39  1  0
 14 40  1  0
 15 41  1  0
 15 42  1  0
 15 43  1  0
 16 44  1  0
 16 45  1  0
 17 46  1  0
 18 47  1  0
 22 48  1  0
 25 49  1  0
 25 50  1  0
 25 51  1  0
 26 52  1  0
 28 53  1  0
 29 54  1  0
M  END
$$$$
