
     RDKit          3D

 41 41  0  0  0  0  0  0  0  0999 V2000
    4.0129   -2.1919    2.7150 C   0  0  0  0  0  0  0  0  0  0  0  0
    3.3359   -1.4197    1.5943 C   0  0  0  0  0  0  0  0  0  0  0  0
    2.0070   -0.8184    2.0513 C   0  0  0  0  0  0  0  0  0  0  0  0
    1.3256   -0.0489    0.9169 C   0  0  0  0  0  0  0  0  0  0  0  0
    0.0026    0.5674    1.3845 C   0  0  0  0  0  0  0  0  0  0  0  0
   -0.8704    1.2289    0.2944 C   0  0  0  0  0  0  0  0  0  0  0  0
   -0.0696    2.0266   -0.7404 C   0  0  0  0  0  0  0  0  0  0  0  0
   -0.9879    2.7424   -1.7191 C   0  0  0  0  0  0  0  0  0  0  0  0
   -0.6760    3.8400   -2.3487 N   0  0  0  0  0  0  0  0  0  0  0  0
    0.6071    4.2852   -2.0161 O   0  0  0  0  0  0  0  0  0  0  0  0
   -2.3095    2.1284   -2.0198 C   0  0  0  0  0  0  0  0  0  0  0  0
   -2.7098    0.9892   -1.4291 C   0  0  0  0  0  0  0  0  0  0  0  0
   -4.0304    0.3592   -1.7763 C   0  0  0  0  0  0  0  0  0  0  0  0
   -1.8801    0.2690   -0.3768 C   0  0  0  0  0  0  0  0  0  0  0  0
   -1.2182   -0.9563   -1.0098 C   0  0  0  0  0  0  0  0  0  0  0  0
   -0.6634   -0.9797   -2.1004 O   0  0  0  0  0  0  0  0  0  0  0  0
   -1.3181   -2.0250   -0.1657 O   0  0  0  0  0  0  0  0  0  0  0  0
   -0.7126   -3.2185   -0.6643 C   0  0  0  0  0  0  0  0  0  0  0  0
    4.2232   -1.5408    3.5692 H   0  0  0  0  0  0  0  0  0  0  0  0
    4.9613   -2.6126    2.3666 H   0  0  0  0  0  0  0  0  0  0  0  0
    3.3816   -3.0172    3.0599 H   0  0  0  0  0  0  0  0  0  0  0  0
    4.0061   -0.6235    1.2499 H   0  0  0  0  0  0  0  0  0  0  0  0
    3.1678   -2.0920    0.7450 H   0  0  0  0  0  0  0  0  0  0  0  0
    2.1787   -0.1474    2.9013 H   0  0  0  0  0  0  0  0  0  0  0  0
    1.3438   -1.6194    2.3996 H   0  0  0  0  0  0  0  0  0  0  0  0
    1.1665   -0.7254    0.0736 H   0  0  0  0  0  0  0  0  0  0  0  0
    1.9987    0.7439    0.5694 H   0  0  0  0  0  0  0  0  0  0  0  0
   -0.5944   -0.1822    1.9187 H   0  0  0  0  0  0  0  0  0  0  0  0
    0.2467    1.3373    2.1293 H   0  0  0  0  0  0  0  0  0  0  0  0
   -1.4913    1.9616    0.8359 H   0  0  0  0  0  0  0  0  0  0  0  0
    0.5974    1.3857   -1.3273 H   0  0  0  0  0  0  0  0  0  0  0  0
    0.5474    2.7596   -0.2095 H   0  0  0  0  0  0  0  0  0  0  0  0
    0.7104    5.0671   -2.5893 H   0  0  0  0  0  0  0  0  0  0  0  0
   -2.9082    2.6401   -2.7660 H   0  0  0  0  0  0  0  0  0  0  0  0
   -3.8822   -0.6494   -2.1750 H   0  0  0  0  0  0  0  0  0  0  0  0
   -4.6642    0.2921   -0.8861 H   0  0  0  0  0  0  0  0  0  0  0  0
   -4.5766    0.9366   -2.5297 H   0  0  0  0  0  0  0  0  0  0  0  0
   -2.5721   -0.0830    0.4016 H   0  0  0  0  0  0  0  0  0  0  0  0
   -0.8419   -4.0023    0.0867 H   0  0  0  0  0  0  0  0  0  0  0  0
   -1.2031   -3.5391   -1.5885 H   0  0  0  0  0  0  0  0  0  0  0  0
    0.3593   -3.0679   -0.8254 H   0  0  0  0  0  0  0  0  0  0  0  0
  1  2  1  0
  2  3  1  0
  3  4  1  0
  4  5  1  0
  5  6  1  0
  6  7  1  0
  7  8  1  0
  8  9  2  3
  9 10  1  0
  8 11  1  0
 11 12  2  0
 12 13  1  0
 12 14  1  0
 14 15  1  0
 15 16  2  0
 15 17  1  0
 17 18  1  0
 14  6  1  0
  1 19  1  0
  1 20  1  0
  1 21  1  0
  2 22  1  0
  2 23  1  0
  3 24  1  0
  3 25  1  0
  4 26  1  0
  4 27  1  0
  5 28  1  0
  5 29  1  0
  6 30  1  0
  7 31  1  0
  7 32  1  0
 10 33  1  0
 11 34  1  0
 13 35  1  0
 13 36  1  0
 13 37  1  0
 14 38  1  0
 18 39  1  0
 18 40  1  0
 18 41  1  0
M  END
$$$$
