
     RDKit          3D

 49 51  0  0  0  0  0  0  0  0999 V2000
    8.9133   -2.7172    2.8341 N   0  0  0  0  0  0  0  0  0  0  0  0
    7.8669   -2.5594    2.3556 C   0  0  0  0  0  0  0  0  0  0  0  0
    6.5710   -2.3445    1.7827 C   0  0  0  0  0  0  0  0  0  0  0  0
    6.2057   -3.2145    0.8018 N   0  0  0  0  0  0  0  0  0  0  0  0
    4.9774   -3.0085    0.2575 C   0  0  0  0  0  0  0  0  0  0  0  0
    4.1176   -1.9870    0.6614 C   0  0  0  0  0  0  0  0  0  0  0  0
    2.7845   -1.7600    0.0749 C   0  0  0  0  0  0  0  0  0  0  0  0
    1.9895   -2.8088   -0.4093 C   0  0  0  0  0  0  0  0  0  0  0  0
    0.7357   -2.5604   -0.9800 C   0  0  0  0  0  0  0  0  0  0  0  0
    0.2238   -1.2590   -1.0576 C   0  0  0  0  0  0  0  0  0  0  0  0
    0.9983   -0.1917   -0.5913 C   0  0  0  0  0  0  0  0  0  0  0  0
    2.2598   -0.4580   -0.0308 C   0  0  0  0  0  0  0  0  0  0  0  0
    0.7154    1.1475   -0.6299 O   0  0  0  0  0  0  0  0  0  0  0  0
   -0.6489    1.5423   -0.7469 C   0  0  0  0  0  0  0  0  0  0  0  0
   -0.7399    3.0411   -0.4568 C   0  0  0  0  0  0  0  0  0  0  0  0
   -2.0889    3.5005   -0.5339 O   0  0  0  0  0  0  0  0  0  0  0  0
   -2.7621    3.4798    0.7290 C   0  0  0  0  0  0  0  0  0  0  0  0
   -4.2660    3.6911    0.5128 C   0  0  0  0  0  0  0  0  0  0  0  0
   -4.9635    2.4557    0.3032 O   0  0  0  0  0  0  0  0  0  0  0  0
   -4.7222    1.8671   -0.9758 C   0  0  0  0  0  0  0  0  0  0  0  0
   -4.2785    0.4195   -0.7782 C   0  0  0  0  0  0  0  0  0  0  0  0
   -3.7177   -0.0777   -1.9896 O   0  0  0  0  0  0  0  0  0  0  0  0
   -3.3404   -1.4551   -1.9285 C   0  0  0  0  0  0  0  0  0  0  0  0
   -2.0760   -1.7227   -1.1019 C   0  0  0  0  0  0  0  0  0  0  0  0
   -0.9632   -1.0443   -1.7067 O   0  0  0  0  0  0  0  0  0  0  0  0
    4.5023   -1.1244    1.6410 N   0  0  0  0  0  0  0  0  0  0  0  0
    5.7353   -1.3189    2.1926 C   0  0  0  0  0  0  0  0  0  0  0  0
    6.1045   -0.3939    3.2226 C   0  0  0  0  0  0  0  0  0  0  0  0
    6.4238    0.3433    4.0609 N   0  0  0  0  0  0  0  0  0  0  0  0
    4.7144   -3.6984   -0.5391 H   0  0  0  0  0  0  0  0  0  0  0  0
    2.3273   -3.8422   -0.3560 H   0  0  0  0  0  0  0  0  0  0  0  0
    0.1799   -3.3977   -1.3937 H   0  0  0  0  0  0  0  0  0  0  0  0
    2.8498    0.3880    0.3241 H   0  0  0  0  0  0  0  0  0  0  0  0
   -1.2707    0.9972   -0.0290 H   0  0  0  0  0  0  0  0  0  0  0  0
   -1.0180    1.3643   -1.7631 H   0  0  0  0  0  0  0  0  0  0  0  0
   -0.2848    3.2931    0.5092 H   0  0  0  0  0  0  0  0  0  0  0  0
   -0.1634    3.5829   -1.2156 H   0  0  0  0  0  0  0  0  0  0  0  0
   -2.5808    2.5297    1.2429 H   0  0  0  0  0  0  0  0  0  0  0  0
   -2.3600    4.3034    1.3290 H   0  0  0  0  0  0  0  0  0  0  0  0
   -4.6927    4.1183    1.4264 H   0  0  0  0  0  0  0  0  0  0  0  0
   -4.4741    4.3788   -0.3149 H   0  0  0  0  0  0  0  0  0  0  0  0
   -3.9947    2.4229   -1.5763 H   0  0  0  0  0  0  0  0  0  0  0  0
   -5.6618    1.8874   -1.5403 H   0  0  0  0  0  0  0  0  0  0  0  0
   -3.5422    0.3695    0.0291 H   0  0  0  0  0  0  0  0  0  0  0  0
   -5.1393   -0.1904   -0.4786 H   0  0  0  0  0  0  0  0  0  0  0  0
   -3.1557   -1.7642   -2.9634 H   0  0  0  0  0  0  0  0  0  0  0  0
   -4.1807   -2.0490   -1.5510 H   0  0  0  0  0  0  0  0  0  0  0  0
   -1.9131   -2.8057   -1.0881 H   0  0  0  0  0  0  0  0  0  0  0  0
   -2.1968   -1.3697   -0.0727 H   0  0  0  0  0  0  0  0  0  0  0  0
  1  2  3  0
  2  3  1  0
  3  4  2  0
  4  5  1  0
  5  6  2  0
  6  7  1  0
  7  8  2  0
  8  9  1  0
  9 10  2  0
 10 11  1  0
 11 12  2  0
 11 13  1  0
 13 14  1  0
 14 15  1  0
 15 16  1  0
 16 17  1  0
 17 18  1  0
 18 19  1  0
 19 20  1  0
 20 21  1  0
 21 22  1  0
 22 23  1  0
 23 24  1  0
 24 25  1  0
  6 26  1  0
 26 27  2  0
 27 28  1  0
 28 29  3  0
 27  3  1  0
 12  7  1  0
 25 10  1  0
  5 30  1  0
  8 31  1  0
  9 32  1  0
 12 33  1  0
 14 34  1  0
 14 35  1  0
 15 36  1  0
 15 37  1  0
 17 38  1  0
 17 39  1  0
 18 40  1  0
 18 41  1  0
 20 42  1  0
 20 43  1  0
 21 44  1  0
 21 45  1  0
 23 46  1  0
 23 47  1  0
 24 48  1  0
 24 49  1  0
M  END
$$$$
