
     RDKit          3D

 38 40  0  0  0  0  0  0  0  0999 V2000
    3.9664   -1.3246    2.3729 N   0  0  0  0  0  0  0  0  0  0  0  0
    3.5497   -0.8249    1.4116 C   0  0  0  0  0  0  0  0  0  0  0  0
    2.9784   -0.2361    0.2545 C   0  0  0  0  0  0  0  0  0  0  0  0
    3.6635    0.0404   -0.8736 C   0  0  0  0  0  0  0  0  0  0  0  0
    5.0479   -0.2361   -1.1002 C   0  0  0  0  0  0  0  0  0  0  0  0
    5.8870   -1.2387   -0.6320 C   0  0  0  0  0  0  0  0  0  0  0  0
    7.2214   -1.1379   -1.1342 C   0  0  0  0  0  0  0  0  0  0  0  0
    7.3514   -0.0724   -1.9838 C   0  0  0  0  0  0  0  0  0  0  0  0
    8.9864    0.3838   -2.8632 Br  0  0  0  0  0  0  0  0  0  0  0  0
    5.9180    0.7984   -2.1860 S   0  0  0  0  0  0  0  0  0  0  0  0
    1.5251    0.1412    0.2648 C   0  0  0  0  0  0  0  0  0  0  0  0
    1.0102    0.7477   -0.6708 O   0  0  0  0  0  0  0  0  0  0  0  0
    0.8011   -0.2427    1.3729 N   0  0  0  0  0  0  0  0  0  0  0  0
   -0.6199    0.0494    1.4864 C   0  0  0  0  0  0  0  0  0  0  0  0
   -1.4820   -0.9163    0.6679 C   0  0  0  0  0  0  0  0  0  0  0  0
   -2.9435   -0.6470    0.8321 C   0  0  0  0  0  0  0  0  0  0  0  0
   -3.8260   -1.3467    1.6322 C   0  0  0  0  0  0  0  0  0  0  0  0
   -5.0669   -0.7831    1.4978 N   0  0  0  0  0  0  0  0  0  0  0  0
   -5.0177    0.2753    0.6213 C   0  0  0  0  0  0  0  0  0  0  0  0
   -6.0344    1.1317    0.1822 C   0  0  0  0  0  0  0  0  0  0  0  0
   -5.6896    2.1298   -0.7338 C   0  0  0  0  0  0  0  0  0  0  0  0
   -4.3804    2.2629   -1.1902 C   0  0  0  0  0  0  0  0  0  0  0  0
   -3.3764    1.3975   -0.7413 C   0  0  0  0  0  0  0  0  0  0  0  0
   -3.6983    0.3817    0.1817 C   0  0  0  0  0  0  0  0  0  0  0  0
    3.1404    0.5376   -1.6917 H   0  0  0  0  0  0  0  0  0  0  0  0
    5.5765   -2.0329    0.0372 H   0  0  0  0  0  0  0  0  0  0  0  0
    8.0241   -1.8208   -0.8829 H   0  0  0  0  0  0  0  0  0  0  0  0
    1.2195   -0.7728    2.1280 H   0  0  0  0  0  0  0  0  0  0  0  0
   -0.7877    1.0846    1.1674 H   0  0  0  0  0  0  0  0  0  0  0  0
   -0.8757   -0.0140    2.5509 H   0  0  0  0  0  0  0  0  0  0  0  0
   -1.2193   -0.8529   -0.3948 H   0  0  0  0  0  0  0  0  0  0  0  0
   -1.2608   -1.9486    0.9702 H   0  0  0  0  0  0  0  0  0  0  0  0
   -3.6775   -2.2024    2.2787 H   0  0  0  0  0  0  0  0  0  0  0  0
   -5.9048   -1.0980    1.9666 H   0  0  0  0  0  0  0  0  0  0  0  0
   -7.0568    1.0271    0.5317 H   0  0  0  0  0  0  0  0  0  0  0  0
   -6.4572    2.8100   -1.0967 H   0  0  0  0  0  0  0  0  0  0  0  0
   -4.1334    3.0410   -1.9072 H   0  0  0  0  0  0  0  0  0  0  0  0
   -2.3587    1.5089   -1.1061 H   0  0  0  0  0  0  0  0  0  0  0  0
  1  2  3  0
  2  3  1  0
  3  4  2  3
  4  5  1  0
  5  6  2  0
  6  7  1  0
  7  8  2  0
  8  9  1  0
  8 10  1  0
  3 11  1  0
 11 12  2  0
 11 13  1  0
 13 14  1  0
 14 15  1  0
 15 16  1  0
 16 17  2  0
 17 18  1  0
 18 19  1  0
 19 20  2  0
 20 21  1  0
 21 22  2  0
 22 23  1  0
 23 24  2  0
 10  5  1  0
 24 16  1  0
 24 19  1  0
  4 25  1  0
  6 26  1  0
  7 27  1  0
 13 28  1  0
 14 29  1  0
 14 30  1  0
 15 31  1  0
 15 32  1  0
 17 33  1  0
 18 34  1  0
 20 35  1  0
 21 36  1  0
 22 37  1  0
 23 38  1  0
M  END
$$$$
