
     RDKit          3D

 54 56  0  0  0  0  0  0  0  0999 V2000
    8.5345    2.2339   -0.4981 C   0  0  0  0  0  0  0  0  0  0  0  0
    7.9592    1.1033   -1.1387 O   0  0  0  0  0  0  0  0  0  0  0  0
    6.7600    0.6635   -0.6501 C   0  0  0  0  0  0  0  0  0  0  0  0
    6.0387    1.2370    0.3960 C   0  0  0  0  0  0  0  0  0  0  0  0
    4.8205    0.6793    0.7977 C   0  0  0  0  0  0  0  0  0  0  0  0
    4.3085   -0.4612    0.1646 C   0  0  0  0  0  0  0  0  0  0  0  0
    2.9937   -1.0556    0.6086 C   0  0  0  0  0  0  0  0  0  0  0  0
    1.8747   -0.2033    0.2048 N   0  0  0  0  0  0  0  0  0  0  0  0
    0.5947   -0.8155    0.5614 C   0  0  0  0  0  0  0  0  0  0  0  0
   -0.5585    0.1009    0.1339 C   0  0  0  0  0  0  0  0  0  0  0  0
   -1.9388   -0.4518    0.5698 C   0  0  0  0  0  0  0  0  0  0  0  0
   -2.2838   -1.7899   -0.0802 C   0  0  0  0  0  0  0  0  0  0  0  0
   -2.6283   -2.8876    0.7303 C   0  0  0  0  0  0  0  0  0  0  0  0
   -2.9411   -4.1220    0.1585 C   0  0  0  0  0  0  0  0  0  0  0  0
   -2.9156   -4.2651   -1.2236 C   0  0  0  0  0  0  0  0  0  0  0  0
   -3.2115   -5.4516   -1.7704 F   0  0  0  0  0  0  0  0  0  0  0  0
   -2.5890   -3.1950   -2.0463 C   0  0  0  0  0  0  0  0  0  0  0  0
   -2.2773   -1.9584   -1.4774 C   0  0  0  0  0  0  0  0  0  0  0  0
   -3.0751    0.5572    0.4123 C   0  0  0  0  0  0  0  0  0  0  0  0
   -3.1781    1.4125   -0.6932 C   0  0  0  0  0  0  0  0  0  0  0  0
   -4.2437    2.3121   -0.7996 C   0  0  0  0  0  0  0  0  0  0  0  0
   -5.2316    2.3733    0.1860 C   0  0  0  0  0  0  0  0  0  0  0  0
   -6.2128    3.2991   -0.0416 O   0  0  0  0  0  0  0  0  0  0  0  0
   -7.2464    3.3915    0.9306 C   0  0  0  0  0  0  0  0  0  0  0  0
   -5.1471    1.5203    1.2819 C   0  0  0  0  0  0  0  0  0  0  0  0
   -4.0813    0.6184    1.3920 C   0  0  0  0  0  0  0  0  0  0  0  0
    5.0319   -1.0249   -0.8923 C   0  0  0  0  0  0  0  0  0  0  0  0
    6.2477   -0.4653   -1.2925 C   0  0  0  0  0  0  0  0  0  0  0  0
    9.4917    2.4419   -0.9848 H   0  0  0  0  0  0  0  0  0  0  0  0
    7.9008    3.1196   -0.6184 H   0  0  0  0  0  0  0  0  0  0  0  0
    8.7353    2.0297    0.5593 H   0  0  0  0  0  0  0  0  0  0  0  0
    6.3902    2.1195    0.9185 H   0  0  0  0  0  0  0  0  0  0  0  0
    4.2616    1.1425    1.6083 H   0  0  0  0  0  0  0  0  0  0  0  0
    2.8845   -2.0621    0.1834 H   0  0  0  0  0  0  0  0  0  0  0  0
    3.0141   -1.1692    1.7009 H   0  0  0  0  0  0  0  0  0  0  0  0
    1.9226   -0.0612   -0.8045 H   0  0  0  0  0  0  0  0  0  0  0  0
    0.5016   -1.7892    0.0707 H   0  0  0  0  0  0  0  0  0  0  0  0
    0.5500   -0.9741    1.6440 H   0  0  0  0  0  0  0  0  0  0  0  0
   -0.5144    0.2554   -0.9496 H   0  0  0  0  0  0  0  0  0  0  0  0
   -0.4130    1.0871    0.5933 H   0  0  0  0  0  0  0  0  0  0  0  0
   -1.8395   -0.6272    1.6516 H   0  0  0  0  0  0  0  0  0  0  0  0
   -2.6566   -2.7880    1.8148 H   0  0  0  0  0  0  0  0  0  0  0  0
   -3.2057   -4.9704    0.7812 H   0  0  0  0  0  0  0  0  0  0  0  0
   -2.5820   -3.3274   -3.1242 H   0  0  0  0  0  0  0  0  0  0  0  0
   -2.0357   -1.1280   -2.1365 H   0  0  0  0  0  0  0  0  0  0  0  0
   -2.4400    1.3901   -1.4934 H   0  0  0  0  0  0  0  0  0  0  0  0
   -4.3041    2.9709   -1.6631 H   0  0  0  0  0  0  0  0  0  0  0  0
   -7.7966    2.4490    1.0169 H   0  0  0  0  0  0  0  0  0  0  0  0
   -7.9516    4.1589    0.5961 H   0  0  0  0  0  0  0  0  0  0  0  0
   -6.8437    3.7074    1.9021 H   0  0  0  0  0  0  0  0  0  0  0  0
   -5.8925    1.5269    2.0733 H   0  0  0  0  0  0  0  0  0  0  0  0
   -4.0426   -0.0400    2.2599 H   0  0  0  0  0  0  0  0  0  0  0  0
    4.6588   -1.9037   -1.4116 H   0  0  0  0  0  0  0  0  0  0  0  0
    6.8027   -0.9137   -2.1126 H   0  0  0  0  0  0  0  0  0  0  0  0
  1  2  1  0
  2  3  1  0
  3  4  2  0
  4  5  1  0
  5  6  2  0
  6  7  1  0
  7  8  1  0
  8  9  1  0
  9 10  1  0
 10 11  1  0
 11 12  1  0
 12 13  2  0
 13 14  1  0
 14 15  2  0
 15 16  1  0
 15 17  1  0
 17 18  2  0
 11 19  1  0
 19 20  2  0
 20 21  1  0
 21 22  2  0
 22 23  1  0
 23 24  1  0
 22 25  1  0
 25 26  2  0
  6 27  1  0
 27 28  2  0
 28  3  1  0
 18 12  1  0
 26 19  1  0
  1 29  1  0
  1 30  1  0
  1 31  1  0
  4 32  1  0
  5 33  1  0
  7 34  1  0
  7 35  1  0
  8 36  1  0
  9 37  1  0
  9 38  1  0
 10 39  1  0
 10 40  1  0
 11 41  1  0
 13 42  1  0
 14 43  1  0
 17 44  1  0
 18 45  1  0
 20 46  1  0
 21 47  1  0
 24 48  1  0
 24 49  1  0
 24 50  1  0
 25 51  1  0
 26 52  1  0
 27 53  1  0
 28 54  1  0
M  END
$$$$
