
     RDKit          3D

 49 52  0  0  0  0  0  0  0  0999 V2000
   -3.6731   -5.1946   -1.3785 C   0  0  0  0  0  0  0  0  0  0  0  0
   -2.8651   -4.2066   -2.0052 O   0  0  0  0  0  0  0  0  0  0  0  0
   -2.4611   -3.1571   -1.2266 C   0  0  0  0  0  0  0  0  0  0  0  0
   -1.6679   -2.2143   -1.8821 C   0  0  0  0  0  0  0  0  0  0  0  0
   -1.1876   -1.0893   -1.2058 C   0  0  0  0  0  0  0  0  0  0  0  0
   -1.4887   -0.8873    0.1493 C   0  0  0  0  0  0  0  0  0  0  0  0
   -0.9897    0.3469    0.9069 C   0  0  0  0  0  0  0  0  0  0  0  0
    0.4731    0.4854    0.7352 N   0  0  0  0  0  0  0  0  0  0  0  0
    0.8953    1.4332   -0.0283 C   0  0  0  0  0  0  0  0  0  0  0  0
    2.2042    1.6837   -0.3553 N   0  0  0  0  0  0  0  0  0  0  0  0
    3.3395    0.8896   -0.0923 C   0  0  0  0  0  0  0  0  0  0  0  0
    4.6112    1.4777   -0.1917 C   0  0  0  0  0  0  0  0  0  0  0  0
    5.7768    0.7372    0.0363 C   0  0  0  0  0  0  0  0  0  0  0  0
    5.7007   -0.6209    0.3511 C   0  0  0  0  0  0  0  0  0  0  0  0
    6.9429   -1.4125    0.6309 C   0  0  0  0  0  0  0  0  0  0  0  0
    4.4414   -1.2162    0.4536 C   0  0  0  0  0  0  0  0  0  0  0  0
    3.2783   -0.4707    0.2248 C   0  0  0  0  0  0  0  0  0  0  0  0
    0.0387    2.3252   -0.5925 N   0  0  0  0  0  0  0  0  0  0  0  0
   -1.2740    2.4598   -0.2836 C   0  0  0  0  0  0  0  0  0  0  0  0
   -1.9584    3.4571   -0.7579 N   0  0  0  0  0  0  0  0  0  0  0  0
   -3.2667    3.5745   -0.3627 C   0  0  0  0  0  0  0  0  0  0  0  0
   -4.0220    4.7218   -0.9701 C   0  0  0  0  0  0  0  0  0  0  0  0
   -3.8494    2.7495    0.5146 C   0  0  0  0  0  0  0  0  0  0  0  0
   -3.0634    1.6340    1.0659 C   0  0  0  0  0  0  0  0  0  0  0  0
   -3.5760    0.9000    1.9063 O   0  0  0  0  0  0  0  0  0  0  0  0
   -1.7846    1.5213    0.5741 N   0  0  0  0  0  0  0  0  0  0  0  0
   -2.2900   -1.8397    0.7988 C   0  0  0  0  0  0  0  0  0  0  0  0
   -2.7719   -2.9646    0.1183 C   0  0  0  0  0  0  0  0  0  0  0  0
   -4.6204   -4.7686   -1.0320 H   0  0  0  0  0  0  0  0  0  0  0  0
   -3.1353   -5.6837   -0.5595 H   0  0  0  0  0  0  0  0  0  0  0  0
   -3.9062   -5.9590   -2.1262 H   0  0  0  0  0  0  0  0  0  0  0  0
   -1.4199   -2.3569   -2.9310 H   0  0  0  0  0  0  0  0  0  0  0  0
   -0.5703   -0.3778   -1.7473 H   0  0  0  0  0  0  0  0  0  0  0  0
   -1.1402    0.1645    1.9791 H   0  0  0  0  0  0  0  0  0  0  0  0
    2.4365    2.6415   -0.5731 H   0  0  0  0  0  0  0  0  0  0  0  0
    4.7145    2.5305   -0.4416 H   0  0  0  0  0  0  0  0  0  0  0  0
    6.7434    1.2305   -0.0356 H   0  0  0  0  0  0  0  0  0  0  0  0
    7.7903   -1.0267    0.0545 H   0  0  0  0  0  0  0  0  0  0  0  0
    6.8092   -2.4620    0.3480 H   0  0  0  0  0  0  0  0  0  0  0  0
    7.1873   -1.3613    1.6963 H   0  0  0  0  0  0  0  0  0  0  0  0
    4.3485   -2.2697    0.7087 H   0  0  0  0  0  0  0  0  0  0  0  0
    2.3246   -0.9871    0.2931 H   0  0  0  0  0  0  0  0  0  0  0  0
    0.3894    3.0241   -1.2273 H   0  0  0  0  0  0  0  0  0  0  0  0
   -3.5342    5.6705   -0.7228 H   0  0  0  0  0  0  0  0  0  0  0  0
   -4.0509    4.6213   -2.0602 H   0  0  0  0  0  0  0  0  0  0  0  0
   -5.0554    4.7732   -0.6112 H   0  0  0  0  0  0  0  0  0  0  0  0
   -4.8756    2.8422    0.8419 H   0  0  0  0  0  0  0  0  0  0  0  0
   -2.5581   -1.7044    1.8458 H   0  0  0  0  0  0  0  0  0  0  0  0
   -3.3898   -3.6644    0.6704 H   0  0  0  0  0  0  0  0  0  0  0  0
  1  2  1  0
  2  3  1  0
  3  4  2  0
  4  5  1  0
  5  6  2  0
  6  7  1  0
  7  8  1  0
  8  9  2  0
  9 10  1  0
 10 11  1  0
 11 12  2  0
 12 13  1  0
 13 14  2  0
 14 15  1  0
 14 16  1  0
 16 17  2  0
  9 18  1  0
 18 19  1  0
 19 20  2  0
 20 21  1  0
 21 22  1  0
 21 23  2  0
 23 24  1  0
 24 25  2  0
 24 26  1  0
  6 27  1  0
 27 28  2  0
 28  3  1  0
 26  7  1  0
 17 11  1  0
 26 19  1  0
  1 29  1  0
  1 30  1  0
  1 31  1  0
  4 32  1  0
  5 33  1  0
  7 34  1  0
 10 35  1  0
 12 36  1  0
 13 37  1  0
 15 38  1  0
 15 39  1  0
 15 40  1  0
 16 41  1  0
 17 42  1  0
 18 43  1  0
 22 44  1  0
 22 45  1  0
 22 46  1  0
 23 47  1  0
 27 48  1  0
 28 49  1  0
M  END
$$$$
