
     RDKit          3D

 37 40  0  0  0  0  0  0  0  0999 V2000
    5.6748   -1.9513   -1.1429 C   0  0  0  0  0  0  0  0  0  0  0  0
    4.4417   -1.1312   -0.8938 C   0  0  0  0  0  0  0  0  0  0  0  0
    3.9295   -0.3071   -1.8994 C   0  0  0  0  0  0  0  0  0  0  0  0
    2.8012    0.4893   -1.6656 C   0  0  0  0  0  0  0  0  0  0  0  0
    2.1973    0.5038   -0.3943 C   0  0  0  0  0  0  0  0  0  0  0  0
    1.0973    1.2583   -0.0265 N   0  0  0  0  0  0  0  0  0  0  0  0
    0.8062    1.0215    1.2279 C   0  0  0  0  0  0  0  0  0  0  0  0
   -0.2617    1.6455    1.8085 N   0  0  0  0  0  0  0  0  0  0  0  0
   -0.7672    1.4476    3.0799 C   0  0  0  0  0  0  0  0  0  0  0  0
   -0.3041    0.7160    3.9492 O   0  0  0  0  0  0  0  0  0  0  0  0
   -2.0291    2.2695    3.3386 C   0  0  0  0  0  0  0  0  0  0  0  0
   -3.4926    1.1973    3.3991 S   0  0  0  0  0  0  0  0  0  0  0  0
   -3.5524    0.6449    1.7472 C   0  0  0  0  0  0  0  0  0  0  0  0
   -2.8080    1.1488    0.7788 N   0  0  0  0  0  0  0  0  0  0  0  0
   -3.0997    0.3512   -0.3005 C   0  0  0  0  0  0  0  0  0  0  0  0
   -2.5799    0.3303   -1.6038 C   0  0  0  0  0  0  0  0  0  0  0  0
   -3.0873   -0.6220   -2.5021 C   0  0  0  0  0  0  0  0  0  0  0  0
   -4.0914   -1.5240   -2.1139 C   0  0  0  0  0  0  0  0  0  0  0  0
   -4.6147   -1.5148   -0.8152 C   0  0  0  0  0  0  0  0  0  0  0  0
   -4.0747   -0.5694    0.0461 C   0  0  0  0  0  0  0  0  0  0  0  0
   -4.3762   -0.3793    1.3597 O   0  0  0  0  0  0  0  0  0  0  0  0
    1.8220   -0.0674    2.0526 S   0  0  0  0  0  0  0  0  0  0  0  0
    2.7278   -0.3084    0.6086 C   0  0  0  0  0  0  0  0  0  0  0  0
    3.8419   -1.1371    0.3862 C   0  0  0  0  0  0  0  0  0  0  0  0
    6.5487   -1.4459   -0.7219 H   0  0  0  0  0  0  0  0  0  0  0  0
    5.8407   -2.1012   -2.2148 H   0  0  0  0  0  0  0  0  0  0  0  0
    5.5783   -2.9424   -0.6877 H   0  0  0  0  0  0  0  0  0  0  0  0
    4.4132   -0.2736   -2.8794 H   0  0  0  0  0  0  0  0  0  0  0  0
    2.3999    1.1085   -2.4581 H   0  0  0  0  0  0  0  0  0  0  0  0
   -0.8366    2.1326    1.1273 H   0  0  0  0  0  0  0  0  0  0  0  0
   -2.1749    3.0410    2.5775 H   0  0  0  0  0  0  0  0  0  0  0  0
   -1.9098    2.7894    4.2961 H   0  0  0  0  0  0  0  0  0  0  0  0
   -1.7913    1.0267   -1.8965 H   0  0  0  0  0  0  0  0  0  0  0  0
   -2.6893   -0.6656   -3.5179 H   0  0  0  0  0  0  0  0  0  0  0  0
   -4.4631   -2.2533   -2.8309 H   0  0  0  0  0  0  0  0  0  0  0  0
   -5.3769   -2.2117   -0.4921 H   0  0  0  0  0  0  0  0  0  0  0  0
    4.2602   -1.7164    1.2048 H   0  0  0  0  0  0  0  0  0  0  0  0
  1  2  1  0
  2  3  2  0
  3  4  1  0
  4  5  2  0
  5  6  1  0
  6  7  2  0
  7  8  1  0
  8  9  1  0
  9 10  2  0
  9 11  1  0
 11 12  1  0
 12 13  1  0
 13 14  2  0
 14 15  1  0
 15 16  2  0
 16 17  1  0
 17 18  2  0
 18 19  1  0
 19 20  2  0
 20 21  1  0
  7 22  1  0
 22 23  1  0
 23 24  2  0
 24  2  1  0
 23  5  1  0
 21 13  1  0
 20 15  1  0
  1 25  1  0
  1 26  1  0
  1 27  1  0
  3 28  1  0
  4 29  1  0
  8 30  1  0
 11 31  1  0
 11 32  1  0
 16 33  1  0
 17 34  1  0
 18 35  1  0
 19 36  1  0
 24 37  1  0
M  END
$$$$
