
     RDKit          3D

 57 59  0  0  0  0  0  0  0  0999 V2000
   -0.0262   -1.1952    4.3063 C   0  0  0  0  0  0  0  0  0  0  0  0
   -1.3533   -0.8944    3.6232 C   0  0  0  0  0  0  0  0  0  0  0  0
   -1.6206   -1.8167    2.4355 C   0  0  0  0  0  0  0  0  0  0  0  0
   -0.5739   -1.6798    1.4658 O   0  0  0  0  0  0  0  0  0  0  0  0
   -0.9938   -1.2398    0.2340 C   0  0  0  0  0  0  0  0  0  0  0  0
   -1.7448   -0.0632    0.0876 C   0  0  0  0  0  0  0  0  0  0  0  0
   -2.1097    0.4450   -1.1719 C   0  0  0  0  0  0  0  0  0  0  0  0
   -2.8650    1.6054   -1.3115 N   0  0  0  0  0  0  0  0  0  0  0  0
   -3.6147    2.1960   -0.1936 C   0  0  0  0  0  0  0  0  0  0  0  0
   -4.8201    1.3476    0.1872 C   0  0  0  0  0  0  0  0  0  0  0  0
   -2.8979    2.3451   -2.5819 C   0  0  0  0  0  0  0  0  0  0  0  0
   -4.1240    1.9759   -3.4034 C   0  0  0  0  0  0  0  0  0  0  0  0
   -1.6578   -0.2906   -2.2817 C   0  0  0  0  0  0  0  0  0  0  0  0
   -0.8822   -1.4518   -2.1529 C   0  0  0  0  0  0  0  0  0  0  0  0
   -0.5382   -1.9309   -0.8920 C   0  0  0  0  0  0  0  0  0  0  0  0
    0.2803   -3.1473   -0.7874 C   0  0  0  0  0  0  0  0  0  0  0  0
    1.6229   -3.2188   -0.6716 C   0  0  0  0  0  0  0  0  0  0  0  0
    2.2387   -4.5092   -0.6474 C   0  0  0  0  0  0  0  0  0  0  0  0
    2.6848   -5.5808   -0.6053 N   0  0  0  0  0  0  0  0  0  0  0  0
    2.4573   -2.0695   -0.6132 C   0  0  0  0  0  0  0  0  0  0  0  0
    3.5241   -1.7560   -1.3239 N   0  0  0  0  0  0  0  0  0  0  0  0
    3.9729   -0.5579   -0.8230 C   0  0  0  0  0  0  0  0  0  0  0  0
    5.0611    0.2319   -1.2213 C   0  0  0  0  0  0  0  0  0  0  0  0
    5.3194    1.4357   -0.5408 C   0  0  0  0  0  0  0  0  0  0  0  0
    6.4894    2.2794   -0.9568 C   0  0  0  0  0  0  0  0  0  0  0  0
    4.4953    1.8261    0.5254 C   0  0  0  0  0  0  0  0  0  0  0  0
    3.4053    1.0482    0.9374 C   0  0  0  0  0  0  0  0  0  0  0  0
    3.1817   -0.1361    0.2360 C   0  0  0  0  0  0  0  0  0  0  0  0
    2.2382   -1.1213    0.3618 N   0  0  0  0  0  0  0  0  0  0  0  0
    0.8167   -1.0428    3.6248 H   0  0  0  0  0  0  0  0  0  0  0  0
    0.0036   -2.2289    4.6650 H   0  0  0  0  0  0  0  0  0  0  0  0
    0.1144   -0.5334    5.1666 H   0  0  0  0  0  0  0  0  0  0  0  0
   -2.1662   -0.9964    4.3509 H   0  0  0  0  0  0  0  0  0  0  0  0
   -1.3377    0.1487    3.2878 H   0  0  0  0  0  0  0  0  0  0  0  0
   -1.6123   -2.8604    2.7706 H   0  0  0  0  0  0  0  0  0  0  0  0
   -2.6199   -1.6299    2.0224 H   0  0  0  0  0  0  0  0  0  0  0  0
   -2.0141    0.4804    0.9848 H   0  0  0  0  0  0  0  0  0  0  0  0
   -2.9658    2.3683    0.6717 H   0  0  0  0  0  0  0  0  0  0  0  0
   -3.9857    3.1902   -0.4725 H   0  0  0  0  0  0  0  0  0  0  0  0
   -5.3942    1.8438    0.9759 H   0  0  0  0  0  0  0  0  0  0  0  0
   -5.4832    1.1961   -0.6700 H   0  0  0  0  0  0  0  0  0  0  0  0
   -4.5275    0.3613    0.5589 H   0  0  0  0  0  0  0  0  0  0  0  0
   -2.9192    3.4238   -2.3802 H   0  0  0  0  0  0  0  0  0  0  0  0
   -1.9833    2.1940   -3.1674 H   0  0  0  0  0  0  0  0  0  0  0  0
   -4.1627    0.9028   -3.6147 H   0  0  0  0  0  0  0  0  0  0  0  0
   -5.0458    2.2452   -2.8777 H   0  0  0  0  0  0  0  0  0  0  0  0
   -4.1135    2.5116   -4.3579 H   0  0  0  0  0  0  0  0  0  0  0  0
   -1.9070    0.0174   -3.2933 H   0  0  0  0  0  0  0  0  0  0  0  0
   -0.5518   -1.9675   -3.0526 H   0  0  0  0  0  0  0  0  0  0  0  0
   -0.3064   -4.0644   -0.8404 H   0  0  0  0  0  0  0  0  0  0  0  0
    5.6852   -0.0973   -2.0450 H   0  0  0  0  0  0  0  0  0  0  0  0
    6.4217    2.5198   -2.0225 H   0  0  0  0  0  0  0  0  0  0  0  0
    7.4250    1.7444   -0.7661 H   0  0  0  0  0  0  0  0  0  0  0  0
    6.5203    3.2242   -0.4046 H   0  0  0  0  0  0  0  0  0  0  0  0
    4.6986    2.7559    1.0542 H   0  0  0  0  0  0  0  0  0  0  0  0
    2.7726    1.3569    1.7618 H   0  0  0  0  0  0  0  0  0  0  0  0
    1.4890   -1.1406    1.0413 H   0  0  0  0  0  0  0  0  0  0  0  0
  1  2  1  0
  2  3  1  0
  3  4  1  0
  4  5  1  0
  5  6  2  0
  6  7  1  0
  7  8  1  0
  8  9  1  0
  9 10  1  0
  8 11  1  0
 11 12  1  0
  7 13  2  0
 13 14  1  0
 14 15  2  0
 15 16  1  0
 16 17  2  3
 17 18  1  0
 18 19  3  0
 17 20  1  0
 20 21  2  0
 21 22  1  0
 22 23  2  0
 23 24  1  0
 24 25  1  0
 24 26  2  0
 26 27  1  0
 27 28  2  0
 28 29  1  0
 15  5  1  0
 29 20  1  0
 28 22  1  0
  1 30  1  0
  1 31  1  0
  1 32  1  0
  2 33  1  0
  2 34  1  0
  3 35  1  0
  3 36  1  0
  6 37  1  0
  9 38  1  0
  9 39  1  0
 10 40  1  0
 10 41  1  0
 10 42  1  0
 11 43  1  0
 11 44  1  0
 12 45  1  0
 12 46  1  0
 12 47  1  0
 13 48  1  0
 14 49  1  0
 16 50  1  0
 23 51  1  0
 25 52  1  0
 25 53  1  0
 25 54  1  0
 26 55  1  0
 27 56  1  0
 29 57  1  0
M  END
$$$$
