
     RDKit          3D

 47 49  0  0  0  0  0  0  0  0999 V2000
    1.7859   -0.8862   -2.3388 O   0  0  0  0  0  0  0  0  0  0  0  0
    0.8917   -0.0501   -2.2791 C   0  0  0  0  0  0  0  0  0  0  0  0
   -0.5568   -0.3929   -2.0179 C   0  0  0  0  0  0  0  0  0  0  0  0
   -0.7207   -1.8841   -1.7358 C   0  0  0  0  0  0  0  0  0  0  0  0
   -2.1231   -2.2427   -1.4978 N   0  0  0  0  0  0  0  0  0  0  0  0
   -2.6442   -2.0543   -0.2264 C   0  0  0  0  0  0  0  0  0  0  0  0
   -2.0313   -1.5707    0.7141 O   0  0  0  0  0  0  0  0  0  0  0  0
   -4.0710   -2.4849   -0.1810 C   0  0  0  0  0  0  0  0  0  0  0  0
   -4.9048   -2.4891    0.8691 C   0  0  0  0  0  0  0  0  0  0  0  0
   -4.5855   -2.0836    2.2404 C   0  0  0  0  0  0  0  0  0  0  0  0
   -3.6789   -2.8128    3.0219 C   0  0  0  0  0  0  0  0  0  0  0  0
   -3.4115   -2.4223    4.3357 C   0  0  0  0  0  0  0  0  0  0  0  0
   -4.0574   -1.3122    4.8661 C   0  0  0  0  0  0  0  0  0  0  0  0
   -3.8028   -0.9398    6.1272 F   0  0  0  0  0  0  0  0  0  0  0  0
   -4.9682   -0.5849    4.1089 C   0  0  0  0  0  0  0  0  0  0  0  0
   -5.2361   -0.9726    2.7945 C   0  0  0  0  0  0  0  0  0  0  0  0
   -4.5734   -2.9881   -1.7541 S   0  0  0  0  0  0  0  0  0  0  0  0
   -2.9965   -2.6844   -2.4681 C   0  0  0  0  0  0  0  0  0  0  0  0
   -2.7040   -2.9136   -4.0939 S   0  0  0  0  0  0  0  0  0  0  0  0
    1.1058    1.3004   -2.4608 N   0  0  0  0  0  0  0  0  0  0  0  0
    2.4354    1.8300   -2.6814 C   0  0  0  0  0  0  0  0  0  0  0  0
    3.1946    2.0108   -1.3712 C   0  0  0  0  0  0  0  0  0  0  0  0
    4.6188    2.4895   -1.6311 C   0  0  0  0  0  0  0  0  0  0  0  0
    5.3454    2.7329   -0.4021 N   0  0  0  0  0  0  0  0  0  0  0  0
    5.4630    3.9306    0.2443 C   0  0  0  0  0  0  0  0  0  0  0  0
    6.2525    3.6636    1.3387 C   0  0  0  0  0  0  0  0  0  0  0  0
    6.6157    2.3418    1.3659 N   0  0  0  0  0  0  0  0  0  0  0  0
    6.0557    1.8060    0.3046 C   0  0  0  0  0  0  0  0  0  0  0  0
   -0.9098    0.1977   -1.1647 H   0  0  0  0  0  0  0  0  0  0  0  0
   -1.1458   -0.1014   -2.8948 H   0  0  0  0  0  0  0  0  0  0  0  0
   -0.1385   -2.1571   -0.8464 H   0  0  0  0  0  0  0  0  0  0  0  0
   -0.3215   -2.4801   -2.5631 H   0  0  0  0  0  0  0  0  0  0  0  0
   -5.9379   -2.8075    0.7378 H   0  0  0  0  0  0  0  0  0  0  0  0
   -3.1673   -3.6813    2.6142 H   0  0  0  0  0  0  0  0  0  0  0  0
   -2.7027   -2.9742    4.9444 H   0  0  0  0  0  0  0  0  0  0  0  0
   -5.4617    0.2771    4.5457 H   0  0  0  0  0  0  0  0  0  0  0  0
   -5.9501   -0.3990    2.2080 H   0  0  0  0  0  0  0  0  0  0  0  0
    0.3484    1.9486   -2.2819 H   0  0  0  0  0  0  0  0  0  0  0  0
    2.3192    2.7905   -3.1944 H   0  0  0  0  0  0  0  0  0  0  0  0
    2.9784    1.1510   -3.3485 H   0  0  0  0  0  0  0  0  0  0  0  0
    3.2180    1.0668   -0.8122 H   0  0  0  0  0  0  0  0  0  0  0  0
    2.6619    2.7283   -0.7338 H   0  0  0  0  0  0  0  0  0  0  0  0
    4.6193    3.4243   -2.2039 H   0  0  0  0  0  0  0  0  0  0  0  0
    5.1841    1.7474   -2.2069 H   0  0  0  0  0  0  0  0  0  0  0  0
    4.9967    4.8397   -0.1075 H   0  0  0  0  0  0  0  0  0  0  0  0
    6.5800    4.3517    2.1072 H   0  0  0  0  0  0  0  0  0  0  0  0
    6.1311    0.7672    0.0091 H   0  0  0  0  0  0  0  0  0  0  0  0
  1  2  2  0
  2  3  1  0
  3  4  1  0
  4  5  1  0
  5  6  1  0
  6  7  2  0
  6  8  1  0
  8  9  2  3
  9 10  1  0
 10 11  2  0
 11 12  1  0
 12 13  2  0
 13 14  1  0
 13 15  1  0
 15 16  2  0
  8 17  1  0
 17 18  1  0
 18 19  2  0
  2 20  1  0
 20 21  1  0
 21 22  1  0
 22 23  1  0
 23 24  1  0
 24 25  1  0
 25 26  2  0
 26 27  1  0
 27 28  2  0
 18  5  1  0
 28 24  1  0
 16 10  1  0
  3 29  1  0
  3 30  1  0
  4 31  1  0
  4 32  1  0
  9 33  1  0
 11 34  1  0
 12 35  1  0
 15 36  1  0
 16 37  1  0
 20 38  1  0
 21 39  1  0
 21 40  1  0
 22 41  1  0
 22 42  1  0
 23 43  1  0
 23 44  1  0
 25 45  1  0
 26 46  1  0
 28 47  1  0
M  END
$$$$
