
     RDKit          3D

 42 43  0  0  0  0  0  0  0  0999 V2000
   -5.3029   -1.4147    2.7037 C   0  0  0  0  0  0  0  0  0  0  0  0
   -3.8183   -1.6864    2.9591 C   0  0  0  0  0  0  0  0  0  0  0  0
   -3.5060   -1.6447    4.4570 C   0  0  0  0  0  0  0  0  0  0  0  0
   -2.9329   -0.7315    2.1790 C   0  0  0  0  0  0  0  0  0  0  0  0
   -2.0317   -1.2322    1.2288 C   0  0  0  0  0  0  0  0  0  0  0  0
   -1.2005   -0.3731    0.4993 C   0  0  0  0  0  0  0  0  0  0  0  0
   -1.2617    1.0036    0.7047 C   0  0  0  0  0  0  0  0  0  0  0  0
   -0.5088    1.9486    0.0655 O   0  0  0  0  0  0  0  0  0  0  0  0
    0.1435    1.5682   -1.1331 C   0  0  0  0  0  0  0  0  0  0  0  0
    1.5194    0.9039   -0.9810 C   0  0  0  0  0  0  0  0  0  0  0  0
    2.0925    0.7474    0.0920 O   0  0  0  0  0  0  0  0  0  0  0  0
    2.0554    0.4818   -2.1880 N   0  0  0  0  0  0  0  0  0  0  0  0
    3.3964   -0.0801   -2.2559 C   0  0  0  0  0  0  0  0  0  0  0  0
    3.6241   -0.8213   -3.5697 C   0  0  0  0  0  0  0  0  0  0  0  0
    4.0042    0.2629   -4.5768 C   0  0  0  0  0  0  0  0  0  0  0  0
    4.4932    1.4574   -3.7576 C   0  0  0  0  0  0  0  0  0  0  0  0
    4.4675    1.0074   -2.2999 C   0  0  0  0  0  0  0  0  0  0  0  0
   -2.1449    1.5082    1.6600 C   0  0  0  0  0  0  0  0  0  0  0  0
   -2.9764    0.6530    2.3881 C   0  0  0  0  0  0  0  0  0  0  0  0
   -5.5296   -1.4547    1.6324 H   0  0  0  0  0  0  0  0  0  0  0  0
   -5.6092   -0.4300    3.0731 H   0  0  0  0  0  0  0  0  0  0  0  0
   -5.9232   -2.1652    3.2057 H   0  0  0  0  0  0  0  0  0  0  0  0
   -3.6156   -2.7096    2.6156 H   0  0  0  0  0  0  0  0  0  0  0  0
   -2.4463   -1.8531    4.6419 H   0  0  0  0  0  0  0  0  0  0  0  0
   -4.0942   -2.3969    4.9938 H   0  0  0  0  0  0  0  0  0  0  0  0
   -3.7355   -0.6678    4.8963 H   0  0  0  0  0  0  0  0  0  0  0  0
   -1.9583   -2.3035    1.0533 H   0  0  0  0  0  0  0  0  0  0  0  0
   -0.5030   -0.8187   -0.2011 H   0  0  0  0  0  0  0  0  0  0  0  0
    0.3156    2.4959   -1.6928 H   0  0  0  0  0  0  0  0  0  0  0  0
   -0.5061    0.9479   -1.7641 H   0  0  0  0  0  0  0  0  0  0  0  0
    1.6395    0.8285   -3.0432 H   0  0  0  0  0  0  0  0  0  0  0  0
    3.5378   -0.7412   -1.3941 H   0  0  0  0  0  0  0  0  0  0  0  0
    2.7540   -1.3982   -3.8989 H   0  0  0  0  0  0  0  0  0  0  0  0
    4.4653   -1.5166   -3.4583 H   0  0  0  0  0  0  0  0  0  0  0  0
    3.1349    0.5531   -5.1778 H   0  0  0  0  0  0  0  0  0  0  0  0
    4.7739   -0.0955   -5.2682 H   0  0  0  0  0  0  0  0  0  0  0  0
    5.4946    1.7790   -4.0608 H   0  0  0  0  0  0  0  0  0  0  0  0
    3.8173    2.3081   -3.9041 H   0  0  0  0  0  0  0  0  0  0  0  0
    5.4416    0.5762   -2.0378 H   0  0  0  0  0  0  0  0  0  0  0  0
    4.2748    1.8425   -1.6194 H   0  0  0  0  0  0  0  0  0  0  0  0
   -2.1875    2.5795    1.8403 H   0  0  0  0  0  0  0  0  0  0  0  0
   -3.6527    1.0819    3.1234 H   0  0  0  0  0  0  0  0  0  0  0  0
  1  2  1  0
  2  3  1  0
  2  4  1  0
  4  5  2  0
  5  6  1  0
  6  7  2  0
  7  8  1  0
  8  9  1  0
  9 10  1  0
 10 11  2  0
 10 12  1  0
 12 13  1  0
 13 14  1  0
 14 15  1  0
 15 16  1  0
 16 17  1  0
  7 18  1  0
 18 19  2  0
 19  4  1  0
 17 13  1  0
  1 20  1  0
  1 21  1  0
  1 22  1  0
  2 23  1  0
  3 24  1  0
  3 25  1  0
  3 26  1  0
  5 27  1  0
  6 28  1  0
  9 29  1  0
  9 30  1  0
 12 31  1  0
 13 32  1  0
 14 33  1  0
 14 34  1  0
 15 35  1  0
 15 36  1  0
 16 37  1  0
 16 38  1  0
 17 39  1  0
 17 40  1  0
 18 41  1  0
 19 42  1  0
M  END
$$$$
