
     RDKit          3D

 49 52  0  0  0  0  0  0  0  0999 V2000
    8.2717    0.4278   -0.3048 C   0  0  0  0  0  0  0  0  0  0  0  0
    7.4006   -0.3997    0.5285 N   0  0  0  0  0  0  0  0  0  0  0  0
    7.8054   -0.5179    1.9293 C   0  0  0  0  0  0  0  0  0  0  0  0
    6.0336   -0.4579    0.2213 C   0  0  0  0  0  0  0  0  0  0  0  0
    5.0849   -0.9732    1.1223 C   0  0  0  0  0  0  0  0  0  0  0  0
    3.7170   -1.0489    0.8151 C   0  0  0  0  0  0  0  0  0  0  0  0
    3.2429   -0.6068   -0.4165 C   0  0  0  0  0  0  0  0  0  0  0  0
    1.8309   -0.7153   -0.7927 C   0  0  0  0  0  0  0  0  0  0  0  0
    0.7805   -0.1717   -0.1610 C   0  0  0  0  0  0  0  0  0  0  0  0
   -0.5758   -0.3167   -0.5824 C   0  0  0  0  0  0  0  0  0  0  0  0
   -1.3059    0.3731    0.2920 C   0  0  0  0  0  0  0  0  0  0  0  0
   -2.7655    0.5558    0.3109 C   0  0  0  0  0  0  0  0  0  0  0  0
   -3.3376    1.5946    1.0563 C   0  0  0  0  0  0  0  0  0  0  0  0
   -4.7228    1.7767    1.0934 C   0  0  0  0  0  0  0  0  0  0  0  0
   -5.5760    0.9166    0.3924 C   0  0  0  0  0  0  0  0  0  0  0  0
   -5.0225   -0.1225   -0.3725 C   0  0  0  0  0  0  0  0  0  0  0  0
   -3.6267   -0.3005   -0.3929 C   0  0  0  0  0  0  0  0  0  0  0  0
   -5.8961   -1.0980   -1.1241 C   0  0  0  0  0  0  0  0  0  0  0  0
   -7.3215   -0.5917   -1.3369 C   0  0  0  0  0  0  0  0  0  0  0  0
   -7.8871   -0.0331   -0.0377 C   0  0  0  0  0  0  0  0  0  0  0  0
   -7.0639    1.1652    0.4309 C   0  0  0  0  0  0  0  0  0  0  0  0
   -0.5624    1.0091    1.3065 O   0  0  0  0  0  0  0  0  0  0  0  0
    0.7576    0.6921    1.0567 C   0  0  0  0  0  0  0  0  0  0  0  0
    1.6985    1.0693    1.7304 O   0  0  0  0  0  0  0  0  0  0  0  0
    4.1626   -0.1207   -1.3433 C   0  0  0  0  0  0  0  0  0  0  0  0
    5.5285   -0.0513   -1.0262 C   0  0  0  0  0  0  0  0  0  0  0  0
    9.3075    0.3960    0.0518 H   0  0  0  0  0  0  0  0  0  0  0  0
    7.9502    1.4752   -0.2942 H   0  0  0  0  0  0  0  0  0  0  0  0
    8.3006    0.0604   -1.3362 H   0  0  0  0  0  0  0  0  0  0  0  0
    8.8931   -0.4353    2.0352 H   0  0  0  0  0  0  0  0  0  0  0  0
    7.5403   -1.4988    2.3379 H   0  0  0  0  0  0  0  0  0  0  0  0
    7.3533    0.2719    2.5395 H   0  0  0  0  0  0  0  0  0  0  0  0
    5.3813   -1.3356    2.1016 H   0  0  0  0  0  0  0  0  0  0  0  0
    3.0365   -1.4543    1.5598 H   0  0  0  0  0  0  0  0  0  0  0  0
    1.6655   -1.2977   -1.6974 H   0  0  0  0  0  0  0  0  0  0  0  0
   -0.9147   -0.8683   -1.4430 H   0  0  0  0  0  0  0  0  0  0  0  0
   -2.7105    2.2844    1.6182 H   0  0  0  0  0  0  0  0  0  0  0  0
   -5.1321    2.5984    1.6776 H   0  0  0  0  0  0  0  0  0  0  0  0
   -3.2228   -1.1332   -0.9645 H   0  0  0  0  0  0  0  0  0  0  0  0
   -5.9259   -2.0351   -0.5540 H   0  0  0  0  0  0  0  0  0  0  0  0
   -5.4521   -1.3191   -2.1021 H   0  0  0  0  0  0  0  0  0  0  0  0
   -7.3293    0.1901   -2.1070 H   0  0  0  0  0  0  0  0  0  0  0  0
   -7.9516   -1.4099   -1.7032 H   0  0  0  0  0  0  0  0  0  0  0  0
   -8.9307    0.2699   -0.1784 H   0  0  0  0  0  0  0  0  0  0  0  0
   -7.8801   -0.8153    0.7321 H   0  0  0  0  0  0  0  0  0  0  0  0
   -7.3724    1.4268    1.4501 H   0  0  0  0  0  0  0  0  0  0  0  0
   -7.2805    2.0272   -0.2125 H   0  0  0  0  0  0  0  0  0  0  0  0
    3.8355    0.2140   -2.3246 H   0  0  0  0  0  0  0  0  0  0  0  0
    6.1879    0.3337   -1.7975 H   0  0  0  0  0  0  0  0  0  0  0  0
  1  2  1  0
  2  3  1  0
  2  4  1  0
  4  5  2  0
  5  6  1  0
  6  7  2  0
  7  8  1  0
  8  9  2  3
  9 10  1  0
 10 11  2  0
 11 12  1  0
 12 13  2  0
 13 14  1  0
 14 15  2  0
 15 16  1  0
 16 17  2  0
 16 18  1  0
 18 19  1  0
 19 20  1  0
 20 21  1  0
 11 22  1  0
 22 23  1  0
 23 24  2  0
  7 25  1  0
 25 26  2  0
 26  4  1  0
 23  9  1  0
 17 12  1  0
 21 15  1  0
  1 27  1  0
  1 28  1  0
  1 29  1  0
  3 30  1  0
  3 31  1  0
  3 32  1  0
  5 33  1  0
  6 34  1  0
  8 35  1  0
 10 36  1  0
 13 37  1  0
 14 38  1  0
 17 39  1  0
 18 40  1  0
 18 41  1  0
 19 42  1  0
 19 43  1  0
 20 44  1  0
 20 45  1  0
 21 46  1  0
 21 47  1  0
 25 48  1  0
 26 49  1  0
M  END
$$$$
