
     RDKit          3D

 52 54  0  0  0  0  0  0  0  0999 V2000
    6.2795   -1.7610   -2.7780 C   0  0  0  0  0  0  0  0  0  0  0  0
    5.9848   -0.7563   -1.7633 N   0  0  0  0  0  0  0  0  0  0  0  0
    7.1025    0.0887   -1.3182 C   0  0  0  0  0  0  0  0  0  0  0  0
    7.6258    1.0558   -2.3844 C   0  0  0  0  0  0  0  0  0  0  0  0
    6.6881    2.1586   -2.6152 C   0  0  0  0  0  0  0  0  0  0  0  0
    5.9479    3.0379   -2.7707 N   0  0  0  0  0  0  0  0  0  0  0  0
    4.6456   -0.5757   -1.4076 C   0  0  0  0  0  0  0  0  0  0  0  0
    3.7417   -1.2124   -1.9567 O   0  0  0  0  0  0  0  0  0  0  0  0
    4.3230    0.4442   -0.3040 C   0  0  0  0  0  0  0  0  0  0  0  0
    2.9541    0.3837    0.1068 O   0  0  0  0  0  0  0  0  0  0  0  0
    2.6640   -0.6709    0.9061 C   0  0  0  0  0  0  0  0  0  0  0  0
    3.4730   -1.4500    1.3848 O   0  0  0  0  0  0  0  0  0  0  0  0
    1.1978   -0.7567    1.1499 C   0  0  0  0  0  0  0  0  0  0  0  0
    0.7285   -1.7957    1.9944 C   0  0  0  0  0  0  0  0  0  0  0  0
   -0.6360   -1.9461    2.2703 C   0  0  0  0  0  0  0  0  0  0  0  0
   -1.4997   -1.0426    1.6847 C   0  0  0  0  0  0  0  0  0  0  0  0
   -1.0490   -0.0288    0.8610 C   0  0  0  0  0  0  0  0  0  0  0  0
    0.2915    0.1454    0.5699 C   0  0  0  0  0  0  0  0  0  0  0  0
   -2.2162    0.7345    0.4262 C   0  0  0  0  0  0  0  0  0  0  0  0
   -2.1522    1.7142   -0.2911 O   0  0  0  0  0  0  0  0  0  0  0  0
   -3.3133    0.1360    0.9896 N   0  0  0  0  0  0  0  0  0  0  0  0
   -4.6766    0.6300    0.8068 C   0  0  0  0  0  0  0  0  0  0  0  0
   -5.5927   -0.4298    0.1769 C   0  0  0  0  0  0  0  0  0  0  0  0
   -7.0105    0.1033   -0.0181 C   0  0  0  0  0  0  0  0  0  0  0  0
   -7.5940    0.6388    1.2865 C   0  0  0  0  0  0  0  0  0  0  0  0
   -6.6876    1.6906    1.9200 C   0  0  0  0  0  0  0  0  0  0  0  0
   -5.2679    1.1646    2.1199 C   0  0  0  0  0  0  0  0  0  0  0  0
   -2.9538   -0.9282    1.7741 C   0  0  0  0  0  0  0  0  0  0  0  0
   -3.6433   -1.6691    2.4480 O   0  0  0  0  0  0  0  0  0  0  0  0
    6.3488   -1.2688   -3.7521 H   0  0  0  0  0  0  0  0  0  0  0  0
    5.5008   -2.5272   -2.8263 H   0  0  0  0  0  0  0  0  0  0  0  0
    7.2293   -2.2492   -2.5415 H   0  0  0  0  0  0  0  0  0  0  0  0
    7.9107   -0.5924   -1.0249 H   0  0  0  0  0  0  0  0  0  0  0  0
    6.8290    0.6465   -0.4191 H   0  0  0  0  0  0  0  0  0  0  0  0
    7.8313    0.5326   -3.3238 H   0  0  0  0  0  0  0  0  0  0  0  0
    8.5792    1.4730   -2.0391 H   0  0  0  0  0  0  0  0  0  0  0  0
    4.9767    0.3035    0.5629 H   0  0  0  0  0  0  0  0  0  0  0  0
    4.4894    1.4479   -0.7039 H   0  0  0  0  0  0  0  0  0  0  0  0
    1.4388   -2.4950    2.4365 H   0  0  0  0  0  0  0  0  0  0  0  0
   -1.0022   -2.7391    2.9148 H   0  0  0  0  0  0  0  0  0  0  0  0
    0.6078    0.9499   -0.0870 H   0  0  0  0  0  0  0  0  0  0  0  0
   -4.6227    1.4736    0.1054 H   0  0  0  0  0  0  0  0  0  0  0  0
   -5.6350   -1.3268    0.8061 H   0  0  0  0  0  0  0  0  0  0  0  0
   -5.1845   -0.7476   -0.7903 H   0  0  0  0  0  0  0  0  0  0  0  0
   -6.9998    0.9029   -0.7690 H   0  0  0  0  0  0  0  0  0  0  0  0
   -7.6530   -0.6935   -0.4095 H   0  0  0  0  0  0  0  0  0  0  0  0
   -7.7362   -0.1909    1.9898 H   0  0  0  0  0  0  0  0  0  0  0  0
   -8.5833    1.0706    1.0977 H   0  0  0  0  0  0  0  0  0  0  0  0
   -6.6597    2.5814    1.2806 H   0  0  0  0  0  0  0  0  0  0  0  0
   -7.1037    2.0031    2.8844 H   0  0  0  0  0  0  0  0  0  0  0  0
   -5.2841    0.3763    2.8823 H   0  0  0  0  0  0  0  0  0  0  0  0
   -4.6328    1.9664    2.5158 H   0  0  0  0  0  0  0  0  0  0  0  0
  1  2  1  0
  2  3  1  0
  3  4  1  0
  4  5  1  0
  5  6  3  0
  2  7  1  0
  7  8  2  0
  7  9  1  0
  9 10  1  0
 10 11  1  0
 11 12  2  0
 11 13  1  0
 13 14  2  0
 14 15  1  0
 15 16  2  0
 16 17  1  0
 17 18  2  0
 17 19  1  0
 19 20  2  0
 19 21  1  0
 21 22  1  0
 22 23  1  0
 23 24  1  0
 24 25  1  0
 25 26  1  0
 26 27  1  0
 21 28  1  0
 28 29  2  0
 18 13  1  0
 27 22  1  0
 28 16  1  0
  1 30  1  0
  1 31  1  0
  1 32  1  0
  3 33  1  0
  3 34  1  0
  4 35  1  0
  4 36  1  0
  9 37  1  0
  9 38  1  0
 14 39  1  0
 15 40  1  0
 18 41  1  0
 22 42  1  0
 23 43  1  0
 23 44  1  0
 24 45  1  0
 24 46  1  0
 25 47  1  0
 25 48  1  0
 26 49  1  0
 26 50  1  0
 27 51  1  0
 27 52  1  0
M  END
$$$$
