
     RDKit          3D

 39 41  0  0  0  0  0  0  0  0999 V2000
    1.1380   -2.9298    2.3374 O   0  0  0  0  0  0  0  0  0  0  0  0
    1.2411   -2.5777    1.1764 C   0  0  0  0  0  0  0  0  0  0  0  0
    1.7132   -3.3353    0.1170 N   0  0  0  0  0  0  0  0  0  0  0  0
    1.3995   -2.6686   -1.0682 N   0  0  0  0  0  0  0  0  0  0  0  0
    0.9892   -1.3967   -0.6928 C   0  0  0  0  0  0  0  0  0  0  0  0
    0.7665   -0.3885   -1.7280 C   0  0  0  0  0  0  0  0  0  0  0  0
   -0.5038   -0.2819   -2.3090 C   0  0  0  0  0  0  0  0  0  0  0  0
   -0.7514    0.6705   -3.2993 C   0  0  0  0  0  0  0  0  0  0  0  0
    0.2702    1.5201   -3.7215 C   0  0  0  0  0  0  0  0  0  0  0  0
    1.5427    1.4198   -3.1579 C   0  0  0  0  0  0  0  0  0  0  0  0
    1.7857    0.4674   -2.1677 C   0  0  0  0  0  0  0  0  0  0  0  0
    3.0299    0.3730   -1.6047 O   0  0  0  0  0  0  0  0  0  0  0  0
    0.8544   -1.2475    0.6370 C   0  0  0  0  0  0  0  0  0  0  0  0
    0.4744   -0.1177    1.5488 C   0  0  0  0  0  0  0  0  0  0  0  0
    1.2998    1.1384    1.2490 C   0  0  0  0  0  0  0  0  0  0  0  0
    1.1533    2.1104    2.3806 N   0  0  0  0  0  4  0  0  0  0  0  0
    1.7285    1.8354    3.4413 O   0  0  0  0  0  0  0  0  0  0  0  0
    0.5032    3.1402    2.1596 O   0  0  0  0  0  1  0  0  0  0  0  0
   -1.0428    0.0594    1.5785 C   0  0  0  0  0  0  0  0  0  0  0  0
   -1.7257    0.9801    0.7698 C   0  0  0  0  0  0  0  0  0  0  0  0
   -3.1183    1.0836    0.8246 C   0  0  0  0  0  0  0  0  0  0  0  0
   -3.8500    0.2653    1.6809 C   0  0  0  0  0  0  0  0  0  0  0  0
   -3.1911   -0.6611    2.4831 C   0  0  0  0  0  0  0  0  0  0  0  0
   -1.8003   -0.7653    2.4307 C   0  0  0  0  0  0  0  0  0  0  0  0
    1.6325   -4.3449    0.1690 H   0  0  0  0  0  0  0  0  0  0  0  0
    2.1686   -2.6207   -1.7423 H   0  0  0  0  0  0  0  0  0  0  0  0
   -1.3093   -0.9410   -1.9883 H   0  0  0  0  0  0  0  0  0  0  0  0
   -1.7423    0.7469   -3.7411 H   0  0  0  0  0  0  0  0  0  0  0  0
    0.0734    2.2609   -4.4931 H   0  0  0  0  0  0  0  0  0  0  0  0
    2.3244    2.0917   -3.4997 H   0  0  0  0  0  0  0  0  0  0  0  0
    3.6371    0.9628   -2.0839 H   0  0  0  0  0  0  0  0  0  0  0  0
    0.7587   -0.4194    2.5681 H   0  0  0  0  0  0  0  0  0  0  0  0
    2.3726    0.9191    1.1902 H   0  0  0  0  0  0  0  0  0  0  0  0
    1.0054    1.6648    0.3375 H   0  0  0  0  0  0  0  0  0  0  0  0
   -1.1985    1.6348    0.0809 H   0  0  0  0  0  0  0  0  0  0  0  0
   -3.6322    1.8081    0.1977 H   0  0  0  0  0  0  0  0  0  0  0  0
   -4.9325    0.3498    1.7234 H   0  0  0  0  0  0  0  0  0  0  0  0
   -3.7575   -1.3043    3.1516 H   0  0  0  0  0  0  0  0  0  0  0  0
   -1.3066   -1.5024    3.0643 H   0  0  0  0  0  0  0  0  0  0  0  0
  1  2  2  0
  2  3  1  0
  3  4  1  0
  4  5  1  0
  5  6  1  0
  6  7  2  0
  7  8  1  0
  8  9  2  0
  9 10  1  0
 10 11  2  0
 11 12  1  0
  5 13  2  0
 13 14  1  0
 14 15  1  0
 15 16  1  0
 16 17  2  0
 16 18  1  0
 14 19  1  0
 19 20  2  0
 20 21  1  0
 21 22  2  0
 22 23  1  0
 23 24  2  0
 13  2  1  0
 24 19  1  0
 11  6  1  0
  3 25  1  0
  4 26  1  0
  7 27  1  0
  8 28  1  0
  9 29  1  0
 10 30  1  0
 12 31  1  0
 14 32  1  0
 15 33  1  0
 15 34  1  0
 20 35  1  0
 21 36  1  0
 22 37  1  0
 23 38  1  0
 24 39  1  0
M  CHG  2  16   1  18  -1
M  END
$$$$
