
     RDKit          3D

 56 59  0  0  0  0  0  0  0  0999 V2000
   -5.9279   -0.7609    0.5874 C   0  0  0  0  0  0  0  0  0  0  0  0
   -4.9345   -1.9026    0.4732 C   0  0  0  0  0  0  0  0  0  0  0  0
   -3.5533   -1.4710    0.7544 N   0  0  0  0  0  0  0  0  0  0  0  0
   -2.8551   -0.7034   -0.1917 C   0  0  0  0  0  0  0  0  0  0  0  0
   -2.2245   -1.1580   -1.2897 C   0  0  0  0  0  0  0  0  0  0  0  0
   -2.2308   -2.5757   -1.5466 N   0  0  0  0  0  0  0  0  0  0  0  0
   -1.1577   -3.4864   -0.5912 S   0  0  0  0  0  6  0  0  0  0  0  0
   -1.8054   -3.7129    0.6851 O   0  0  0  0  0  0  0  0  0  0  0  0
   -0.7214   -4.5906   -1.4177 O   0  0  0  0  0  0  0  0  0  0  0  0
    0.2448   -2.4279   -0.3254 C   0  0  0  0  0  0  0  0  0  0  0  0
    1.2032   -2.2953   -1.3315 C   0  0  0  0  0  0  0  0  0  0  0  0
    2.2833   -1.4323   -1.1405 C   0  0  0  0  0  0  0  0  0  0  0  0
    2.4225   -0.7081    0.0549 C   0  0  0  0  0  0  0  0  0  0  0  0
    3.5976    0.2404    0.2265 C   0  0  0  0  0  0  0  0  0  0  0  0
    4.5028   -0.1697    1.4011 C   0  0  0  0  0  0  0  0  0  0  0  0
    5.6822    0.7889    1.5571 C   0  0  0  0  0  0  0  0  0  0  0  0
    5.2174    2.2361    1.6931 C   0  0  0  0  0  0  0  0  0  0  0  0
    4.3163    2.6505    0.5335 C   0  0  0  0  0  0  0  0  0  0  0  0
    3.1315    1.6997    0.3723 C   0  0  0  0  0  0  0  0  0  0  0  0
    1.4617   -0.8783    1.0648 C   0  0  0  0  0  0  0  0  0  0  0  0
    0.3796   -1.7403    0.8824 C   0  0  0  0  0  0  0  0  0  0  0  0
   -1.5853   -0.2916   -2.3077 C   0  0  0  0  0  0  0  0  0  0  0  0
   -1.0918   -0.7873   -3.3187 O   0  0  0  0  0  0  0  0  0  0  0  0
   -1.5854    1.0667   -2.0677 O   0  0  0  0  0  0  0  0  0  0  0  0
   -2.1234    1.5751   -0.8724 C   0  0  0  0  0  0  0  0  0  0  0  0
   -1.9849    2.9507   -0.6760 C   0  0  0  0  0  0  0  0  0  0  0  0
   -2.4647    3.5252    0.4971 C   0  0  0  0  0  0  0  0  0  0  0  0
   -3.0696    2.7224    1.4621 C   0  0  0  0  0  0  0  0  0  0  0  0
   -3.2023    1.3455    1.2501 C   0  0  0  0  0  0  0  0  0  0  0  0
   -2.7425    0.7479    0.0676 C   0  0  0  0  0  0  0  0  0  0  0  0
   -6.9456   -1.1296    0.4243 H   0  0  0  0  0  0  0  0  0  0  0  0
   -5.7323    0.0181   -0.1559 H   0  0  0  0  0  0  0  0  0  0  0  0
   -5.8901   -0.3028    1.5808 H   0  0  0  0  0  0  0  0  0  0  0  0
   -4.9966   -2.3619   -0.5199 H   0  0  0  0  0  0  0  0  0  0  0  0
   -5.2021   -2.6759    1.2022 H   0  0  0  0  0  0  0  0  0  0  0  0
   -3.0362   -2.3530    0.8966 H   0  0  0  0  0  0  0  0  0  0  0  0
   -2.0018   -2.7817   -2.5270 H   0  0  0  0  0  0  0  0  0  0  0  0
    1.1113   -2.8413   -2.2684 H   0  0  0  0  0  0  0  0  0  0  0  0
    3.0164   -1.3248   -1.9382 H   0  0  0  0  0  0  0  0  0  0  0  0
    4.2112    0.1880   -0.6845 H   0  0  0  0  0  0  0  0  0  0  0  0
    4.8806   -1.1880    1.2470 H   0  0  0  0  0  0  0  0  0  0  0  0
    3.9354   -0.1861    2.3402 H   0  0  0  0  0  0  0  0  0  0  0  0
    6.2715    0.5071    2.4370 H   0  0  0  0  0  0  0  0  0  0  0  0
    6.3441    0.6979    0.6870 H   0  0  0  0  0  0  0  0  0  0  0  0
    6.0882    2.8998    1.7382 H   0  0  0  0  0  0  0  0  0  0  0  0
    4.6739    2.3571    2.6384 H   0  0  0  0  0  0  0  0  0  0  0  0
    3.9501    3.6702    0.6976 H   0  0  0  0  0  0  0  0  0  0  0  0
    4.9001    2.6665   -0.3952 H   0  0  0  0  0  0  0  0  0  0  0  0
    2.5445    1.9969   -0.5058 H   0  0  0  0  0  0  0  0  0  0  0  0
    2.4698    1.8092    1.2410 H   0  0  0  0  0  0  0  0  0  0  0  0
    1.5457   -0.3354    2.0042 H   0  0  0  0  0  0  0  0  0  0  0  0
   -0.3550   -1.8518    1.6775 H   0  0  0  0  0  0  0  0  0  0  0  0
   -1.5010    3.5668   -1.4287 H   0  0  0  0  0  0  0  0  0  0  0  0
   -2.3617    4.5945    0.6638 H   0  0  0  0  0  0  0  0  0  0  0  0
   -3.4377    3.1638    2.3853 H   0  0  0  0  0  0  0  0  0  0  0  0
   -3.6651    0.7396    2.0263 H   0  0  0  0  0  0  0  0  0  0  0  0
  1  2  1  0
  2  3  1  0
  3  4  1  0
  4  5  2  0
  5  6  1  0
  6  7  1  0
  7  8  2  0
  7  9  2  0
  7 10  1  0
 10 11  2  0
 11 12  1  0
 12 13  2  0
 13 14  1  0
 14 15  1  0
 15 16  1  0
 16 17  1  0
 17 18  1  0
 18 19  1  0
 13 20  1  0
 20 21  2  0
  5 22  1  0
 22 23  2  0
 22 24  1  0
 24 25  1  0
 25 26  2  0
 26 27  1  0
 27 28  2  0
 28 29  1  0
 29 30  2  0
 30  4  1  0
 21 10  1  0
 30 25  1  0
 19 14  1  0
  1 31  1  0
  1 32  1  0
  1 33  1  0
  2 34  1  0
  2 35  1  0
  3 36  1  0
  6 37  1  0
 11 38  1  0
 12 39  1  0
 14 40  1  0
 15 41  1  0
 15 42  1  0
 16 43  1  0
 16 44  1  0
 17 45  1  0
 17 46  1  0
 18 47  1  0
 18 48  1  0
 19 49  1  0
 19 50  1  0
 20 51  1  0
 21 52  1  0
 26 53  1  0
 27 54  1  0
 28 55  1  0
 29 56  1  0
M  END
$$$$
