
     RDKit          3D

 56 59  0  0  0  0  0  0  0  0999 V2000
    7.6681    1.1773   -1.7868 C   0  0  0  0  0  0  0  0  0  0  0  0
    7.7514    0.8359   -0.4071 O   0  0  0  0  0  0  0  0  0  0  0  0
    6.5189    0.6259    0.1761 C   0  0  0  0  0  0  0  0  0  0  0  0
    6.5269    0.2781    1.5145 C   0  0  0  0  0  0  0  0  0  0  0  0
    5.3052    0.0588    2.1448 C   0  0  0  0  0  0  0  0  0  0  0  0
    4.1089    0.1902    1.4258 C   0  0  0  0  0  0  0  0  0  0  0  0
    2.8332   -0.0582    2.1587 C   0  0  0  0  0  0  0  0  0  0  0  0
    2.8571   -0.2864    3.3652 O   0  0  0  0  0  0  0  0  0  0  0  0
    1.6601   -0.0244    1.4447 N   0  0  0  0  0  0  0  0  0  0  0  0
    0.3672   -0.1528    2.0819 C   0  0  0  0  0  0  0  0  0  0  0  0
   -0.0587    1.1822    2.7397 C   0  0  0  0  0  0  0  0  0  0  0  0
   -1.5767    1.2539    2.9852 C   0  0  0  0  0  0  0  0  0  0  0  0
   -2.3712    1.1593    1.6669 C   0  0  0  0  0  0  0  0  0  0  0  0
   -1.8492    0.0279    0.8472 C   0  0  0  0  0  0  0  0  0  0  0  0
   -0.6214   -0.5753    1.0480 C   0  0  0  0  0  0  0  0  0  0  0  0
   -0.6160   -1.6600    0.1642 C   0  0  0  0  0  0  0  0  0  0  0  0
   -1.7338   -1.7350   -0.5554 N   0  0  0  0  0  0  0  0  0  0  0  0
   -2.4960   -0.6769   -0.1591 N   0  0  0  0  0  0  0  0  0  0  0  0
   -3.7387   -0.3951   -0.8106 C   0  0  0  0  0  0  0  0  0  0  0  0
   -4.1177    0.9486   -0.9722 C   0  0  0  0  0  0  0  0  0  0  0  0
   -5.2847    1.2853   -1.6526 C   0  0  0  0  0  0  0  0  0  0  0  0
   -6.0791    0.2870   -2.2013 C   0  0  0  0  0  0  0  0  0  0  0  0
   -5.7245   -1.0649   -2.0734 C   0  0  0  0  0  0  0  0  0  0  0  0
   -6.6279   -2.0937   -2.7035 C   0  0  0  0  0  0  0  0  0  0  0  0
   -4.5627   -1.4258   -1.3410 C   0  0  0  0  0  0  0  0  0  0  0  0
   -4.2457   -2.8896   -1.1330 C   0  0  0  0  0  0  0  0  0  0  0  0
    4.2120    0.5436    0.0783 C   0  0  0  0  0  0  0  0  0  0  0  0
    3.0530    0.6947   -0.6610 O   0  0  0  0  0  0  0  0  0  0  0  0
    3.2811    0.9799   -2.0394 C   0  0  0  0  0  0  0  0  0  0  0  0
    5.3930    0.7644   -0.5536 N   0  0  0  0  0  0  0  0  0  0  0  0
    8.6875    1.3235   -2.1565 H   0  0  0  0  0  0  0  0  0  0  0  0
    7.2158    0.3672   -2.3686 H   0  0  0  0  0  0  0  0  0  0  0  0
    7.1236    2.1163   -1.9317 H   0  0  0  0  0  0  0  0  0  0  0  0
    7.4617    0.1798    2.0564 H   0  0  0  0  0  0  0  0  0  0  0  0
    5.2897   -0.2166    3.1981 H   0  0  0  0  0  0  0  0  0  0  0  0
    1.6869    0.2756    0.4755 H   0  0  0  0  0  0  0  0  0  0  0  0
    0.4255   -0.9284    2.8559 H   0  0  0  0  0  0  0  0  0  0  0  0
    0.4787    1.3144    3.6865 H   0  0  0  0  0  0  0  0  0  0  0  0
    0.2318    2.0272    2.1000 H   0  0  0  0  0  0  0  0  0  0  0  0
   -1.8275    2.1919    3.4936 H   0  0  0  0  0  0  0  0  0  0  0  0
   -1.8715    0.4359    3.6548 H   0  0  0  0  0  0  0  0  0  0  0  0
   -3.4342    1.0300    1.8963 H   0  0  0  0  0  0  0  0  0  0  0  0
   -2.2444    2.1003    1.1203 H   0  0  0  0  0  0  0  0  0  0  0  0
    0.1505   -2.4115    0.0228 H   0  0  0  0  0  0  0  0  0  0  0  0
   -3.4883    1.7643   -0.6342 H   0  0  0  0  0  0  0  0  0  0  0  0
   -5.5597    2.3291   -1.7795 H   0  0  0  0  0  0  0  0  0  0  0  0
   -6.9797    0.5698   -2.7433 H   0  0  0  0  0  0  0  0  0  0  0  0
   -7.2136   -2.6049   -1.9334 H   0  0  0  0  0  0  0  0  0  0  0  0
   -6.0442   -2.8250   -3.2716 H   0  0  0  0  0  0  0  0  0  0  0  0
   -7.3268   -1.6330   -3.4094 H   0  0  0  0  0  0  0  0  0  0  0  0
   -3.5313   -3.2355   -1.8863 H   0  0  0  0  0  0  0  0  0  0  0  0
   -5.1394   -3.5174   -1.1988 H   0  0  0  0  0  0  0  0  0  0  0  0
   -3.8552   -3.0716   -0.1262 H   0  0  0  0  0  0  0  0  0  0  0  0
    3.8452    0.1755   -2.5228 H   0  0  0  0  0  0  0  0  0  0  0  0
    3.7814    1.9462   -2.1657 H   0  0  0  0  0  0  0  0  0  0  0  0
    2.3055    1.0422   -2.5301 H   0  0  0  0  0  0  0  0  0  0  0  0
  1  2  1  0
  2  3  1  0
  3  4  2  0
  4  5  1  0
  5  6  2  0
  6  7  1  0
  7  8  2  0
  7  9  1  0
  9 10  1  0
 10 11  1  0
 11 12  1  0
 12 13  1  0
 13 14  1  0
 14 15  2  0
 15 16  1  0
 16 17  2  0
 17 18  1  0
 18 19  1  0
 19 20  2  0
 20 21  1  0
 21 22  2  0
 22 23  1  0
 23 24  1  0
 23 25  2  0
 25 26  1  0
  6 27  1  0
 27 28  1  0
 28 29  1  0
 27 30  2  0
 30  3  1  0
 15 10  1  0
 25 19  1  0
 18 14  1  0
  1 31  1  0
  1 32  1  0
  1 33  1  0
  4 34  1  0
  5 35  1  0
  9 36  1  0
 10 37  1  0
 11 38  1  0
 11 39  1  0
 12 40  1  0
 12 41  1  0
 13 42  1  0
 13 43  1  0
 16 44  1  0
 20 45  1  0
 21 46  1  0
 22 47  1  0
 24 48  1  0
 24 49  1  0
 24 50  1  0
 26 51  1  0
 26 52  1  0
 26 53  1  0
 29 54  1  0
 29 55  1  0
 29 56  1  0
M  END
$$$$
