
     RDKit          3D

 30 31  0  0  0  0  0  0  0  0999 V2000
    3.1542   -3.3140   -1.3819 N   0  0  0  0  0  0  0  0  0  0  0  0
    3.2427   -2.7436   -0.3746 C   0  0  0  0  0  0  0  0  0  0  0  0
    3.4269   -2.0219    0.8923 C   0  0  0  0  0  0  0  0  0  0  0  0
    3.4475   -0.5115    0.6708 C   0  0  0  0  0  0  0  0  0  0  0  0
    2.1452    0.1069    0.4902 N   0  0  0  0  0  0  0  0  0  0  0  0
    1.8902    1.4436    0.4798 C   0  0  0  0  0  0  0  0  0  0  0  0
    0.5378    1.5800    0.2190 C   0  0  0  0  0  0  0  0  0  0  0  0
   -0.1142    2.8599    0.0647 C   0  0  0  0  0  0  0  0  0  0  0  0
   -1.3574    2.9343   -0.2784 N   0  0  0  0  0  0  0  0  0  0  0  0
   -1.7323    4.2824   -0.3741 O   0  0  0  0  0  0  0  0  0  0  0  0
    0.0535    0.2362    0.1195 C   0  0  0  0  0  0  0  0  0  0  0  0
   -1.2928   -0.2617   -0.1561 C   0  0  0  0  0  0  0  0  0  0  0  0
   -2.3948    0.1679    0.5971 C   0  0  0  0  0  0  0  0  0  0  0  0
   -3.6749   -0.3195    0.3159 C   0  0  0  0  0  0  0  0  0  0  0  0
   -3.8542   -1.2442   -0.7130 C   0  0  0  0  0  0  0  0  0  0  0  0
   -5.4325   -1.8292   -1.0683 Cl  0  0  0  0  0  0  0  0  0  0  0  0
   -2.7650   -1.6954   -1.4571 C   0  0  0  0  0  0  0  0  0  0  0  0
   -1.4860   -1.2099   -1.1743 C   0  0  0  0  0  0  0  0  0  0  0  0
    1.0513   -0.6452    0.3084 N   0  0  0  0  0  0  0  0  0  0  0  0
    4.3938   -2.3234    1.3160 H   0  0  0  0  0  0  0  0  0  0  0  0
    2.6602   -2.3101    1.6214 H   0  0  0  0  0  0  0  0  0  0  0  0
    3.8951   -0.0211    1.5466 H   0  0  0  0  0  0  0  0  0  0  0  0
    4.0434   -0.2476   -0.2142 H   0  0  0  0  0  0  0  0  0  0  0  0
    2.6750    2.1766    0.6200 H   0  0  0  0  0  0  0  0  0  0  0  0
    0.4913    3.7670    0.2432 H   0  0  0  0  0  0  0  0  0  0  0  0
   -2.6782    4.2149   -0.6067 H   0  0  0  0  0  0  0  0  0  0  0  0
   -2.2674    0.8897    1.4037 H   0  0  0  0  0  0  0  0  0  0  0  0
   -4.5239    0.0302    0.9003 H   0  0  0  0  0  0  0  0  0  0  0  0
   -2.8989   -2.4196   -2.2568 H   0  0  0  0  0  0  0  0  0  0  0  0
   -0.6358   -1.5717   -1.7535 H   0  0  0  0  0  0  0  0  0  0  0  0
  1  2  3  0
  2  3  1  0
  3  4  1  0
  4  5  1  0
  5  6  1  0
  6  7  2  0
  7  8  1  0
  8  9  2  3
  9 10  1  0
  7 11  1  0
 11 12  1  0
 12 13  2  0
 13 14  1  0
 14 15  2  0
 15 16  1  0
 15 17  1  0
 17 18  2  0
 11 19  2  0
 19  5  1  0
 18 12  1  0
  3 20  1  0
  3 21  1  0
  4 22  1  0
  4 23  1  0
  6 24  1  0
  8 25  1  0
 10 26  1  0
 13 27  1  0
 14 28  1  0
 17 29  1  0
 18 30  1  0
M  END
$$$$
