
     RDKit          3D

 69 72  0  0  0  0  0  0  0  0999 V2000
   10.9042    1.3499   -0.1180 C   0  0  0  0  0  0  0  0  0  0  0  0
    9.8824    1.4999    0.8554 O   0  0  0  0  0  0  0  0  0  0  0  0
    8.6671    0.9140    0.6024 C   0  0  0  0  0  0  0  0  0  0  0  0
    8.3606    0.2037   -0.5630 C   0  0  0  0  0  0  0  0  0  0  0  0
    7.0928   -0.3566   -0.7393 C   0  0  0  0  0  0  0  0  0  0  0  0
    6.1119   -0.2151    0.2463 C   0  0  0  0  0  0  0  0  0  0  0  0
    4.7350   -0.7968    0.0414 C   0  0  0  0  0  0  0  0  0  0  0  0
    3.8279    0.1521   -0.7472 C   0  0  0  0  0  0  0  0  0  0  0  0
    2.5310   -0.4426   -1.0223 N   0  0  0  0  0  0  0  0  0  0  0  0
    1.5077   -0.4056   -0.0974 C   0  0  0  0  0  0  0  0  0  0  0  0
    1.6157    0.1533    0.9901 O   0  0  0  0  0  0  0  0  0  0  0  0
    0.2542   -1.1619   -0.5291 C   0  0  0  0  0  0  0  0  0  0  0  0
   -0.8158   -1.1184    0.5698 C   0  0  0  0  0  0  0  0  0  0  0  0
   -2.0793   -1.8482    0.1341 C   0  0  0  0  0  0  0  0  0  0  0  0
   -2.5985   -1.2326   -1.1182 N   0  0  0  0  0  0  0  0  0  0  0  0
   -4.1475   -1.7753   -1.5569 S   0  0  0  0  0  6  0  0  0  0  0  0
   -4.5280   -1.1486   -2.8013 O   0  0  0  0  0  0  0  0  0  0  0  0
   -4.1680   -3.2115   -1.4066 O   0  0  0  0  0  0  0  0  0  0  0  0
   -5.0720   -1.0754   -0.3205 N   0  0  0  0  0  0  0  0  0  0  0  0
   -5.0020    0.4165   -0.2593 C   0  0  0  0  0  0  0  0  0  0  0  0
   -6.0895    0.9604    0.6553 C   0  0  0  0  0  0  0  0  0  0  0  0
   -7.4697    0.6413    0.0787 C   0  0  0  0  0  0  0  0  0  0  0  0
   -7.4822   -0.6544   -0.7381 C   0  0  0  0  0  0  0  0  0  0  0  0
   -6.4523   -1.6275   -0.1916 C   0  0  0  0  0  0  0  0  0  0  0  0
   -8.4067    0.5172    1.1668 O   0  0  0  0  0  0  0  0  0  0  0  0
   -9.2423    1.6725    1.0722 C   0  0  0  0  0  0  0  0  0  0  0  0
   -9.2348    1.9908   -0.3972 C   0  0  0  0  0  0  0  0  0  0  0  0
   -7.8854    1.7257   -0.7753 O   0  0  0  0  0  0  0  0  0  0  0  0
   -1.6131   -1.3241   -2.2266 C   0  0  0  0  0  0  0  0  0  0  0  0
   -0.3229   -0.6077   -1.8373 C   0  0  0  0  0  0  0  0  0  0  0  0
    6.4162    0.4997    1.4160 C   0  0  0  0  0  0  0  0  0  0  0  0
    7.6858    1.0616    1.6036 C   0  0  0  0  0  0  0  0  0  0  0  0
    8.0632    1.7716    2.7177 O   0  0  0  0  0  0  0  0  0  0  0  0
    7.1259    1.8797    3.7790 C   0  0  0  0  0  0  0  0  0  0  0  0
   11.1660    0.2958   -0.2601 H   0  0  0  0  0  0  0  0  0  0  0  0
   11.7962    1.8667    0.2492 H   0  0  0  0  0  0  0  0  0  0  0  0
   10.6169    1.8173   -1.0647 H   0  0  0  0  0  0  0  0  0  0  0  0
    9.0864    0.0700   -1.3575 H   0  0  0  0  0  0  0  0  0  0  0  0
    6.8778   -0.9029   -1.6561 H   0  0  0  0  0  0  0  0  0  0  0  0
    4.2857   -1.0364    1.0137 H   0  0  0  0  0  0  0  0  0  0  0  0
    4.8213   -1.7578   -0.4838 H   0  0  0  0  0  0  0  0  0  0  0  0
    3.6822    1.0909   -0.1972 H   0  0  0  0  0  0  0  0  0  0  0  0
    4.2730    0.3996   -1.7173 H   0  0  0  0  0  0  0  0  0  0  0  0
    2.4537   -1.0595   -1.8199 H   0  0  0  0  0  0  0  0  0  0  0  0
    0.5510   -2.2091   -0.6825 H   0  0  0  0  0  0  0  0  0  0  0  0
   -1.0615   -0.0763    0.8134 H   0  0  0  0  0  0  0  0  0  0  0  0
   -0.4323   -1.5725    1.4905 H   0  0  0  0  0  0  0  0  0  0  0  0
   -2.8215   -1.7712    0.9373 H   0  0  0  0  0  0  0  0  0  0  0  0
   -1.8605   -2.9108   -0.0279 H   0  0  0  0  0  0  0  0  0  0  0  0
   -4.0262    0.7041    0.1466 H   0  0  0  0  0  0  0  0  0  0  0  0
   -5.0975    0.8576   -1.2584 H   0  0  0  0  0  0  0  0  0  0  0  0
   -5.9635    2.0434    0.7709 H   0  0  0  0  0  0  0  0  0  0  0  0
   -5.9815    0.5225    1.6569 H   0  0  0  0  0  0  0  0  0  0  0  0
   -7.2648   -0.4409   -1.7932 H   0  0  0  0  0  0  0  0  0  0  0  0
   -8.4762   -1.1174   -0.7101 H   0  0  0  0  0  0  0  0  0  0  0  0
   -6.6346   -1.8353    0.8713 H   0  0  0  0  0  0  0  0  0  0  0  0
   -6.5449   -2.5903   -0.7072 H   0  0  0  0  0  0  0  0  0  0  0  0
   -8.7838    2.4765    1.6589 H   0  0  0  0  0  0  0  0  0  0  0  0
  -10.2405    1.4626    1.4654 H   0  0  0  0  0  0  0  0  0  0  0  0
   -9.8889    1.3182   -0.9629 H   0  0  0  0  0  0  0  0  0  0  0  0
   -9.5034    3.0277   -0.6176 H   0  0  0  0  0  0  0  0  0  0  0  0
   -1.4090   -2.3755   -2.4650 H   0  0  0  0  0  0  0  0  0  0  0  0
   -2.0117   -0.8389   -3.1246 H   0  0  0  0  0  0  0  0  0  0  0  0
    0.3971   -0.7182   -2.6545 H   0  0  0  0  0  0  0  0  0  0  0  0
   -0.5135    0.4684   -1.7368 H   0  0  0  0  0  0  0  0  0  0  0  0
    5.6400    0.6071    2.1680 H   0  0  0  0  0  0  0  0  0  0  0  0
    6.2372    2.4374    3.4663 H   0  0  0  0  0  0  0  0  0  0  0  0
    7.6014    2.4446    4.5860 H   0  0  0  0  0  0  0  0  0  0  0  0
    6.8585    0.8946    4.1749 H   0  0  0  0  0  0  0  0  0  0  0  0
  1  2  1  0
  2  3  1  0
  3  4  2  0
  4  5  1  0
  5  6  2  0
  6  7  1  0
  7  8  1  0
  8  9  1  0
  9 10  1  0
 10 11  2  0
 10 12  1  0
 12 13  1  0
 13 14  1  0
 14 15  1  0
 15 16  1  0
 16 17  2  0
 16 18  2  0
 16 19  1  0
 19 20  1  0
 20 21  1  0
 21 22  1  0
 22 23  1  0
 23 24  1  0
 22 25  1  0
 25 26  1  0
 26 27  1  0
 27 28  1  0
 15 29  1  0
 29 30  1  0
  6 31  1  0
 31 32  2  0
 32 33  1  0
 33 34  1  0
 32  3  1  0
 30 12  1  0
 24 19  1  0
 28 22  1  0
  1 35  1  0
  1 36  1  0
  1 37  1  0
  4 38  1  0
  5 39  1  0
  7 40  1  0
  7 41  1  0
  8 42  1  0
  8 43  1  0
  9 44  1  0
 12 45  1  0
 13 46  1  0
 13 47  1  0
 14 48  1  0
 14 49  1  0
 20 50  1  0
 20 51  1  0
 21 52  1  0
 21 53  1  0
 23 54  1  0
 23 55  1  0
 24 56  1  0
 24 57  1  0
 26 58  1  0
 26 59  1  0
 27 60  1  0
 27 61  1  0
 29 62  1  0
 29 63  1  0
 30 64  1  0
 30 65  1  0
 31 66  1  0
 34 67  1  0
 34 68  1  0
 34 69  1  0
M  END
$$$$
