
     RDKit          3D

 49 52  0  0  0  0  0  0  0  0999 V2000
   -0.2990   -0.3375    2.1253 C   0  0  0  0  0  0  0  0  0  0  0  0
   -0.0045    0.3628    0.8012 C   0  0  0  0  0  0  0  0  0  0  0  0
    1.3939    0.2049    0.4430 N   0  0  0  0  0  0  0  0  0  0  0  0
    2.3807    0.9700    0.9919 C   0  0  0  0  0  0  0  0  0  0  0  0
    2.1771    1.8912    1.7741 O   0  0  0  0  0  0  0  0  0  0  0  0
    3.7583    0.6656    0.5428 C   0  0  0  0  0  0  0  0  0  0  0  0
    4.1804   -0.5643    0.2150 C   0  0  0  0  0  0  0  0  0  0  0  0
    5.5286   -0.7894   -0.1767 C   0  0  0  0  0  0  0  0  0  0  0  0
    6.1401   -1.9893   -0.5242 C   0  0  0  0  0  0  0  0  0  0  0  0
    7.4919   -1.7163   -0.8411 C   0  0  0  0  0  0  0  0  0  0  0  0
    7.6481   -0.3648   -0.6749 C   0  0  0  0  0  0  0  0  0  0  0  0
    6.4827    0.2004   -0.2791 O   0  0  0  0  0  0  0  0  0  0  0  0
   -0.7993   -0.2488   -0.3189 C   0  0  0  0  0  0  0  0  0  0  0  0
   -0.4516   -1.3673   -0.9355 N   0  0  0  0  0  0  0  0  0  0  0  0
   -1.3660   -1.5477   -1.9360 C   0  0  0  0  0  0  0  0  0  0  0  0
   -1.4434   -2.5729   -2.8904 C   0  0  0  0  0  0  0  0  0  0  0  0
   -2.4664   -2.5335   -3.8435 C   0  0  0  0  0  0  0  0  0  0  0  0
   -3.3932   -1.4917   -3.8464 C   0  0  0  0  0  0  0  0  0  0  0  0
   -3.3310   -0.4615   -2.9003 C   0  0  0  0  0  0  0  0  0  0  0  0
   -2.3027   -0.5199   -1.9478 C   0  0  0  0  0  0  0  0  0  0  0  0
   -1.9447    0.2865   -0.8810 N   0  0  0  0  0  0  0  0  0  0  0  0
   -2.5956    1.5552   -0.5456 C   0  0  0  0  0  0  0  0  0  0  0  0
   -3.1167    1.6560    0.8729 C   0  0  0  0  0  0  0  0  0  0  0  0
   -4.0767    0.7585    1.3846 C   0  0  0  0  0  0  0  0  0  0  0  0
   -4.7960   -0.4847    0.4244 Cl  0  0  0  0  0  0  0  0  0  0  0  0
   -4.5345    0.8545    2.7058 C   0  0  0  0  0  0  0  0  0  0  0  0
   -4.0696    1.8623    3.5417 C   0  0  0  0  0  0  0  0  0  0  0  0
   -3.1641    2.7925    3.0474 C   0  0  0  0  0  0  0  0  0  0  0  0
   -2.7047    2.7020    1.7270 C   0  0  0  0  0  0  0  0  0  0  0  0
   -1.6378    3.9626    1.2074 Cl  0  0  0  0  0  0  0  0  0  0  0  0
   -1.3593   -0.2766    2.3862 H   0  0  0  0  0  0  0  0  0  0  0  0
   -0.0302   -1.3998    2.0838 H   0  0  0  0  0  0  0  0  0  0  0  0
    0.2748    0.1123    2.9426 H   0  0  0  0  0  0  0  0  0  0  0  0
   -0.1996    1.4319    0.8928 H   0  0  0  0  0  0  0  0  0  0  0  0
    1.5917   -0.5097   -0.2475 H   0  0  0  0  0  0  0  0  0  0  0  0
    4.4307    1.5177    0.5651 H   0  0  0  0  0  0  0  0  0  0  0  0
    3.5173   -1.4221    0.2564 H   0  0  0  0  0  0  0  0  0  0  0  0
    5.6548   -2.9557   -0.5438 H   0  0  0  0  0  0  0  0  0  0  0  0
    8.2543   -2.4167   -1.1510 H   0  0  0  0  0  0  0  0  0  0  0  0
    8.4808    0.3146   -0.7914 H   0  0  0  0  0  0  0  0  0  0  0  0
   -0.7155   -3.3763   -2.8835 H   0  0  0  0  0  0  0  0  0  0  0  0
   -2.5366   -3.3230   -4.5876 H   0  0  0  0  0  0  0  0  0  0  0  0
   -4.1827   -1.4807   -4.5953 H   0  0  0  0  0  0  0  0  0  0  0  0
   -4.0671    0.3348   -2.9110 H   0  0  0  0  0  0  0  0  0  0  0  0
   -3.4318    1.7198   -1.2330 H   0  0  0  0  0  0  0  0  0  0  0  0
   -1.8514    2.3171   -0.7931 H   0  0  0  0  0  0  0  0  0  0  0  0
   -5.2667    0.1445    3.0863 H   0  0  0  0  0  0  0  0  0  0  0  0
   -4.4264    1.9345    4.5663 H   0  0  0  0  0  0  0  0  0  0  0  0
   -2.8211    3.5976    3.6949 H   0  0  0  0  0  0  0  0  0  0  0  0
  1  2  1  0
  2  3  1  0
  3  4  1  0
  4  5  2  0
  4  6  1  0
  6  7  2  3
  7  8  1  0
  8  9  2  0
  9 10  1  0
 10 11  2  0
 11 12  1  0
  2 13  1  0
 13 14  2  0
 14 15  1  0
 15 16  2  0
 16 17  1  0
 17 18  2  0
 18 19  1  0
 19 20  2  0
 20 21  1  0
 21 22  1  0
 22 23  1  0
 23 24  2  0
 24 25  1  0
 24 26  1  0
 26 27  2  0
 27 28  1  0
 28 29  2  0
 29 30  1  0
 12  8  1  0
 21 13  1  0
 29 23  1  0
 20 15  1  0
  1 31  1  0
  1 32  1  0
  1 33  1  0
  2 34  1  0
  3 35  1  0
  6 36  1  0
  7 37  1  0
  9 38  1  0
 10 39  1  0
 11 40  1  0
 16 41  1  0
 17 42  1  0
 18 43  1  0
 19 44  1  0
 22 45  1  0
 22 46  1  0
 26 47  1  0
 27 48  1  0
 28 49  1  0
M  END
$$$$
