
     RDKit          3D

 33 34  0  0  0  0  0  0  0  0999 V2000
   -5.4581    0.0012    1.0298 C   0  0  0  0  0  0  0  0  0  0  0  0
   -4.5693    0.8357    1.7626 O   0  0  0  0  0  0  0  0  0  0  0  0
   -3.2590    0.8393    1.3732 C   0  0  0  0  0  0  0  0  0  0  0  0
   -2.4303    1.6768    2.1227 C   0  0  0  0  0  0  0  0  0  0  0  0
   -1.0703    1.7885    1.8219 C   0  0  0  0  0  0  0  0  0  0  0  0
   -0.5190    1.0609    0.7592 C   0  0  0  0  0  0  0  0  0  0  0  0
    0.9300    1.2506    0.4843 C   0  0  0  0  0  0  0  0  0  0  0  0
    1.6840    1.4236    1.4440 O   0  0  0  0  0  0  0  0  0  0  0  0
    1.4206    1.3345   -0.9449 C   0  0  0  0  0  0  0  0  0  0  0  0
    2.4864    0.3181   -1.1588 C   0  0  0  0  0  0  0  0  0  0  0  0
    2.2759   -0.9196   -1.5585 N   0  0  0  0  0  0  0  0  0  0  0  0
    3.4443   -1.6430   -1.6693 N   0  0  0  0  0  0  0  0  0  0  0  0
    4.5035   -0.9238   -1.3653 C   0  0  0  0  0  0  0  0  0  0  0  0
    5.9022   -1.4181   -1.3839 C   0  0  0  0  0  0  0  0  0  0  0  0
    4.1493    0.6993   -0.9312 S   0  0  0  0  0  0  0  0  0  0  0  0
   -1.3409    0.1874    0.0411 C   0  0  0  0  0  0  0  0  0  0  0  0
   -0.8535   -0.5725   -0.9877 O   0  0  0  0  0  0  0  0  0  0  0  0
   -0.5710   -1.9026   -0.5397 C   0  0  0  0  0  0  0  0  0  0  0  0
   -2.7105    0.0964    0.3283 C   0  0  0  0  0  0  0  0  0  0  0  0
   -5.1739   -1.0525    1.1196 H   0  0  0  0  0  0  0  0  0  0  0  0
   -6.4567    0.1149    1.4627 H   0  0  0  0  0  0  0  0  0  0  0  0
   -5.5128    0.3086   -0.0197 H   0  0  0  0  0  0  0  0  0  0  0  0
   -2.8478    2.2518    2.9465 H   0  0  0  0  0  0  0  0  0  0  0  0
   -0.4455    2.4508    2.4187 H   0  0  0  0  0  0  0  0  0  0  0  0
    1.7986    2.3520   -1.1020 H   0  0  0  0  0  0  0  0  0  0  0  0
    0.6149    1.2055   -1.6709 H   0  0  0  0  0  0  0  0  0  0  0  0
    5.9326   -2.4710   -1.6820 H   0  0  0  0  0  0  0  0  0  0  0  0
    6.3579   -1.3361   -0.3920 H   0  0  0  0  0  0  0  0  0  0  0  0
    6.5074   -0.8491   -2.0967 H   0  0  0  0  0  0  0  0  0  0  0  0
    0.1521   -1.8982    0.2833 H   0  0  0  0  0  0  0  0  0  0  0  0
   -1.4879   -2.4198   -0.2374 H   0  0  0  0  0  0  0  0  0  0  0  0
   -0.1349   -2.4535   -1.3781 H   0  0  0  0  0  0  0  0  0  0  0  0
   -3.3182   -0.5655   -0.2795 H   0  0  0  0  0  0  0  0  0  0  0  0
  1  2  1  0
  2  3  1  0
  3  4  2  0
  4  5  1  0
  5  6  2  0
  6  7  1  0
  7  8  2  0
  7  9  1  0
  9 10  1  0
 10 11  2  0
 11 12  1  0
 12 13  2  0
 13 14  1  0
 13 15  1  0
  6 16  1  0
 16 17  1  0
 17 18  1  0
 16 19  2  0
 19  3  1  0
 15 10  1  0
  1 20  1  0
  1 21  1  0
  1 22  1  0
  4 23  1  0
  5 24  1  0
  9 25  1  0
  9 26  1  0
 14 27  1  0
 14 28  1  0
 14 29  1  0
 18 30  1  0
 18 31  1  0
 18 32  1  0
 19 33  1  0
M  END
$$$$
