
     RDKit          3D

 37 38  0  0  0  0  0  0  0  0999 V2000
   -3.6814   -1.4640    1.0550 C   0  0  0  0  0  0  0  0  0  0  0  0
   -4.0758   -0.8003   -0.2632 C   0  0  0  0  0  0  0  0  0  0  0  0
   -3.8462   -1.7794   -1.4194 C   0  0  0  0  0  0  0  0  0  0  0  0
   -3.4315    0.5835   -0.5528 C   0  0  0  0  0  0  0  0  0  0  0  0
   -3.8429    1.6744    0.4449 C   0  0  0  0  0  0  0  0  0  0  0  0
   -4.9080    1.7415    1.0394 O   0  0  0  0  0  0  0  0  0  0  0  0
   -2.9563    2.6888    0.5462 O   0  0  0  0  0  0  0  0  0  0  0  0
   -1.9783    0.5837   -0.8326 N   0  0  0  0  0  0  0  0  0  0  0  0
   -1.0844    0.3782    0.2055 C   0  0  0  0  0  0  0  0  0  0  0  0
   -1.3662    0.2284    1.3867 O   0  0  0  0  0  0  0  0  0  0  0  0
    0.3168    0.4121   -0.2905 C   0  0  0  0  0  0  0  0  0  0  0  0
    1.3579    0.1945    0.5257 C   0  0  0  0  0  0  0  0  0  0  0  0
    2.7613    0.2046    0.1585 C   0  0  0  0  0  0  0  0  0  0  0  0
    3.7436   -0.0241    1.0441 C   0  0  0  0  0  0  0  0  0  0  0  0
    5.1101   -0.0067    0.6476 C   0  0  0  0  0  0  0  0  0  0  0  0
    6.2404   -0.2185    1.4299 C   0  0  0  0  0  0  0  0  0  0  0  0
    7.3784   -0.1016    0.5969 C   0  0  0  0  0  0  0  0  0  0  0  0
    6.8962    0.1758   -0.6557 C   0  0  0  0  0  0  0  0  0  0  0  0
    5.5433    0.2351   -0.6390 O   0  0  0  0  0  0  0  0  0  0  0  0
    0.3378    0.7648   -1.9661 S   0  0  0  0  0  0  0  0  0  0  0  0
   -1.4167    0.8670   -2.0630 C   0  0  0  0  0  0  0  0  0  0  0  0
   -2.1786    1.2405   -3.5010 S   0  0  0  0  0  0  0  0  0  0  0  0
   -3.7742   -0.7736    1.8984 H   0  0  0  0  0  0  0  0  0  0  0  0
   -2.6619   -1.8591    1.0243 H   0  0  0  0  0  0  0  0  0  0  0  0
   -4.3425   -2.3141    1.2599 H   0  0  0  0  0  0  0  0  0  0  0  0
   -5.1608   -0.6335   -0.2019 H   0  0  0  0  0  0  0  0  0  0  0  0
   -4.3894   -2.7150   -1.2472 H   0  0  0  0  0  0  0  0  0  0  0  0
   -4.2064   -1.3599   -2.3642 H   0  0  0  0  0  0  0  0  0  0  0  0
   -2.7855   -2.0257   -1.5341 H   0  0  0  0  0  0  0  0  0  0  0  0
   -3.9306    0.9313   -1.4650 H   0  0  0  0  0  0  0  0  0  0  0  0
   -3.3621    3.2946    1.2027 H   0  0  0  0  0  0  0  0  0  0  0  0
    1.1468   -0.0122    1.5758 H   0  0  0  0  0  0  0  0  0  0  0  0
    3.0135    0.4075   -0.8813 H   0  0  0  0  0  0  0  0  0  0  0  0
    3.5213   -0.2282    2.0872 H   0  0  0  0  0  0  0  0  0  0  0  0
    6.2356   -0.4340    2.4897 H   0  0  0  0  0  0  0  0  0  0  0  0
    8.4172   -0.2065    0.8755 H   0  0  0  0  0  0  0  0  0  0  0  0
    7.3594    0.3501   -1.6167 H   0  0  0  0  0  0  0  0  0  0  0  0
  1  2  1  0
  2  3  1  0
  2  4  1  0
  4  5  1  0
  5  6  2  0
  5  7  1  0
  4  8  1  0
  8  9  1  0
  9 10  2  0
  9 11  1  0
 11 12  2  3
 12 13  1  0
 13 14  2  3
 14 15  1  0
 15 16  2  0
 16 17  1  0
 17 18  2  0
 18 19  1  0
 11 20  1  0
 20 21  1  0
 21 22  2  0
 21  8  1  0
 19 15  1  0
  1 23  1  0
  1 24  1  0
  1 25  1  0
  2 26  1  0
  3 27  1  0
  3 28  1  0
  3 29  1  0
  4 30  1  0
  7 31  1  0
 12 32  1  0
 13 33  1  0
 14 34  1  0
 16 35  1  0
 17 36  1  0
 18 37  1  0
M  END
$$$$
