
     RDKit          3D

 46 49  0  0  0  0  0  0  0  0999 V2000
    5.1929   -0.9922   -0.3300 C   0  0  0  0  0  0  0  0  0  0  0  0
    4.9657    0.4398   -0.5446 N   0  0  0  0  0  0  0  0  0  0  0  0
    6.0714    1.2249    0.0336 C   0  0  0  0  0  0  0  0  0  0  0  0
    5.7096    1.4547    1.4960 C   0  0  0  0  0  0  0  0  0  0  0  0
    4.2131    1.1819    1.5877 C   0  0  0  0  0  0  0  0  0  0  0  0
    3.7685    0.9749    0.1389 C   0  0  0  0  0  0  0  0  0  0  0  0
    2.4594    0.1851    0.0274 C   0  0  0  0  0  0  0  0  0  0  0  0
    1.9613    0.0975   -1.4169 C   0  0  0  0  0  0  0  0  0  0  0  0
    0.7103   -0.6558   -1.4967 N   0  0  0  0  0  0  0  0  0  0  0  0
   -0.5055   -0.1355   -1.0639 C   0  0  0  0  0  0  0  0  0  0  0  0
   -0.7717    1.2283   -0.9527 C   0  0  0  0  0  0  0  0  0  0  0  0
   -2.0389    1.6901   -0.5758 C   0  0  0  0  0  0  0  0  0  0  0  0
   -3.0907    0.7998   -0.3231 C   0  0  0  0  0  0  0  0  0  0  0  0
   -4.6416    1.5056    0.1561 S   0  0  0  0  0  0  0  0  0  0  0  0
   -5.7172    0.1014    0.2554 C   0  0  0  0  0  0  0  0  0  0  0  0
   -7.0682    0.3584    0.5462 C   0  0  0  0  0  0  0  0  0  0  0  0
   -7.9939   -0.6813    0.6546 C   0  0  0  0  0  0  0  0  0  0  0  0
   -7.5804   -1.9953    0.4751 C   0  0  0  0  0  0  0  0  0  0  0  0
   -6.2428   -2.2637    0.1869 C   0  0  0  0  0  0  0  0  0  0  0  0
   -5.3056   -1.2198    0.0744 C   0  0  0  0  0  0  0  0  0  0  0  0
   -3.9032   -1.5836   -0.2355 C   0  0  0  0  0  0  0  0  0  0  0  0
   -3.6024   -2.7746   -0.3075 O   0  0  0  0  0  0  0  0  0  0  0  0
   -2.8536   -0.5639   -0.4654 C   0  0  0  0  0  0  0  0  0  0  0  0
   -1.5735   -1.0157   -0.8458 C   0  0  0  0  0  0  0  0  0  0  0  0
    6.1290   -1.2999   -0.8103 H   0  0  0  0  0  0  0  0  0  0  0  0
    4.4060   -1.5894   -0.8006 H   0  0  0  0  0  0  0  0  0  0  0  0
    5.2499   -1.2692    0.7281 H   0  0  0  0  0  0  0  0  0  0  0  0
    7.0540    0.7551   -0.0862 H   0  0  0  0  0  0  0  0  0  0  0  0
    6.1210    2.1900   -0.4864 H   0  0  0  0  0  0  0  0  0  0  0  0
    6.2561    0.7665    2.1505 H   0  0  0  0  0  0  0  0  0  0  0  0
    5.9501    2.4771    1.8053 H   0  0  0  0  0  0  0  0  0  0  0  0
    4.0349    0.2882    2.1976 H   0  0  0  0  0  0  0  0  0  0  0  0
    3.6824    2.0167    2.0573 H   0  0  0  0  0  0  0  0  0  0  0  0
    3.5786    1.9691   -0.2923 H   0  0  0  0  0  0  0  0  0  0  0  0
    2.5687   -0.8217    0.4492 H   0  0  0  0  0  0  0  0  0  0  0  0
    1.7026    0.6828    0.6471 H   0  0  0  0  0  0  0  0  0  0  0  0
    2.6969   -0.4332   -2.0311 H   0  0  0  0  0  0  0  0  0  0  0  0
    1.8588    1.0908   -1.8671 H   0  0  0  0  0  0  0  0  0  0  0  0
    0.8286   -1.6396   -1.2654 H   0  0  0  0  0  0  0  0  0  0  0  0
   -0.0044    1.9677   -1.1604 H   0  0  0  0  0  0  0  0  0  0  0  0
   -2.1935    2.7646   -0.4912 H   0  0  0  0  0  0  0  0  0  0  0  0
   -7.4147    1.3803    0.6931 H   0  0  0  0  0  0  0  0  0  0  0  0
   -9.0348   -0.4623    0.8800 H   0  0  0  0  0  0  0  0  0  0  0  0
   -8.2935   -2.8117    0.5582 H   0  0  0  0  0  0  0  0  0  0  0  0
   -5.9304   -3.2979    0.0480 H   0  0  0  0  0  0  0  0  0  0  0  0
   -1.4095   -2.0851   -0.9741 H   0  0  0  0  0  0  0  0  0  0  0  0
  1  2  1  0
  2  3  1  0
  3  4  1  0
  4  5  1  0
  5  6  1  0
  6  7  1  0
  7  8  1  0
  8  9  1  0
  9 10  1  0
 10 11  2  0
 11 12  1  0
 12 13  2  0
 13 14  1  0
 14 15  1  0
 15 16  2  0
 16 17  1  0
 17 18  2  0
 18 19  1  0
 19 20  2  0
 20 21  1  0
 21 22  2  0
 21 23  1  0
 23 24  2  0
  6  2  1  0
 24 10  1  0
 23 13  1  0
 20 15  1  0
  1 25  1  0
  1 26  1  0
  1 27  1  0
  3 28  1  0
  3 29  1  0
  4 30  1  0
  4 31  1  0
  5 32  1  0
  5 33  1  0
  6 34  1  0
  7 35  1  0
  7 36  1  0
  8 37  1  0
  8 38  1  0
  9 39  1  0
 11 40  1  0
 12 41  1  0
 16 42  1  0
 17 43  1  0
 18 44  1  0
 19 45  1  0
 24 46  1  0
M  END
$$$$
