
     RDKit          3D

 50 53  0  0  0  0  0  0  0  0999 V2000
   -3.4957   -0.4494   -2.8809 C   0  0  0  0  0  0  0  0  0  0  0  0
   -3.9290   -0.8779   -1.4763 C   0  0  0  0  0  0  0  0  0  0  0  0
   -5.0872    0.0114   -0.9855 C   0  0  0  0  0  0  0  0  0  0  0  0
   -5.0223    0.2350    0.5268 C   0  0  0  0  0  0  0  0  0  0  0  0
   -6.2169    1.0514    1.0158 C   0  0  0  0  0  0  0  0  0  0  0  0
   -3.6982    0.9259    0.9029 C   0  0  0  0  0  0  0  0  0  0  0  0
   -2.5741    0.3980    0.1277 N   0  0  0  0  0  0  0  0  0  0  0  0
   -1.3175    0.7293    0.6143 C   0  0  0  0  0  0  0  0  0  0  0  0
   -1.1976    1.7986    1.4232 N   0  0  0  0  0  0  0  0  0  0  0  0
    0.0349    2.1264    1.8667 C   0  0  0  0  0  0  0  0  0  0  0  0
    1.1638    1.4254    1.5287 C   0  0  0  0  0  0  0  0  0  0  0  0
    0.9732    0.3485    0.6938 C   0  0  0  0  0  0  0  0  0  0  0  0
   -0.2519   -0.0070    0.2440 N   0  0  0  0  0  0  0  0  0  0  0  0
    2.1288   -0.5148    0.2667 C   0  0  0  0  0  0  0  0  0  0  0  0
    3.4325    0.2968    0.2367 C   0  0  0  0  0  0  0  0  0  0  0  0
    4.6153   -0.5493   -0.2020 C   0  0  0  0  0  0  0  0  0  0  0  0
    5.2965   -0.2283   -1.3872 C   0  0  0  0  0  0  0  0  0  0  0  0
    6.3863   -0.9921   -1.8134 C   0  0  0  0  0  0  0  0  0  0  0  0
    6.8042   -2.0841   -1.0584 C   0  0  0  0  0  0  0  0  0  0  0  0
    8.1453   -3.0250   -1.5827 Cl  0  0  0  0  0  0  0  0  0  0  0  0
    6.1414   -2.4186    0.1191 C   0  0  0  0  0  0  0  0  0  0  0  0
    5.0514   -1.6550    0.5457 C   0  0  0  0  0  0  0  0  0  0  0  0
    3.6770    0.9592    1.5985 C   0  0  0  0  0  0  0  0  0  0  0  0
    2.4956    1.8028    2.0252 C   0  0  0  0  0  0  0  0  0  0  0  0
    2.6141    2.7451    2.8019 O   0  0  0  0  0  0  0  0  0  0  0  0
   -2.7319   -0.9038   -0.5039 C   0  0  0  0  0  0  0  0  0  0  0  0
   -4.3473   -0.4601   -3.5696 H   0  0  0  0  0  0  0  0  0  0  0  0
   -3.0729    0.5610   -2.8766 H   0  0  0  0  0  0  0  0  0  0  0  0
   -2.7370   -1.1314   -3.2792 H   0  0  0  0  0  0  0  0  0  0  0  0
   -4.2982   -1.9091   -1.5579 H   0  0  0  0  0  0  0  0  0  0  0  0
   -5.0640    0.9855   -1.4925 H   0  0  0  0  0  0  0  0  0  0  0  0
   -6.0406   -0.4552   -1.2631 H   0  0  0  0  0  0  0  0  0  0  0  0
   -5.0628   -0.7441    1.0232 H   0  0  0  0  0  0  0  0  0  0  0  0
   -6.2479    2.0380    0.5411 H   0  0  0  0  0  0  0  0  0  0  0  0
   -7.1567    0.5376    0.7879 H   0  0  0  0  0  0  0  0  0  0  0  0
   -6.1683    1.1977    2.0999 H   0  0  0  0  0  0  0  0  0  0  0  0
   -3.5389    0.7851    1.9807 H   0  0  0  0  0  0  0  0  0  0  0  0
   -3.7796    2.0046    0.7154 H   0  0  0  0  0  0  0  0  0  0  0  0
    0.0755    2.9954    2.5178 H   0  0  0  0  0  0  0  0  0  0  0  0
    2.1990   -1.3578    0.9651 H   0  0  0  0  0  0  0  0  0  0  0  0
    1.9264   -0.9327   -0.7275 H   0  0  0  0  0  0  0  0  0  0  0  0
    3.2987    1.1054   -0.4980 H   0  0  0  0  0  0  0  0  0  0  0  0
    4.9861    0.6212   -1.9930 H   0  0  0  0  0  0  0  0  0  0  0  0
    6.9022   -0.7292   -2.7331 H   0  0  0  0  0  0  0  0  0  0  0  0
    6.4670   -3.2712    0.7095 H   0  0  0  0  0  0  0  0  0  0  0  0
    4.5507   -1.9379    1.4692 H   0  0  0  0  0  0  0  0  0  0  0  0
    3.8590    0.2215    2.3885 H   0  0  0  0  0  0  0  0  0  0  0  0
    4.5562    1.6119    1.5355 H   0  0  0  0  0  0  0  0  0  0  0  0
   -2.9032   -1.6614    0.2724 H   0  0  0  0  0  0  0  0  0  0  0  0
   -1.8415   -1.2232   -1.0591 H   0  0  0  0  0  0  0  0  0  0  0  0
  1  2  1  0
  2  3  1  0
  3  4  1  0
  4  5  1  0
  4  6  1  0
  6  7  1  0
  7  8  1  0
  8  9  2  0
  9 10  1  0
 10 11  2  0
 11 12  1  0
 12 13  2  0
 12 14  1  0
 14 15  1  0
 15 16  1  0
 16 17  2  0
 17 18  1  0
 18 19  2  0
 19 20  1  0
 19 21  1  0
 21 22  2  0
 15 23  1  0
 23 24  1  0
 24 25  2  0
  7 26  1  0
 26  2  1  0
 13  8  1  0
 22 16  1  0
 24 11  1  0
  1 27  1  0
  1 28  1  0
  1 29  1  0
  2 30  1  0
  3 31  1  0
  3 32  1  0
  4 33  1  0
  5 34  1  0
  5 35  1  0
  5 36  1  0
  6 37  1  0
  6 38  1  0
 10 39  1  0
 14 40  1  0
 14 41  1  0
 15 42  1  0
 17 43  1  0
 18 44  1  0
 21 45  1  0
 22 46  1  0
 23 47  1  0
 23 48  1  0
 26 49  1  0
 26 50  1  0
M  END
$$$$
