
     RDKit          3D

 48 51  0  0  0  0  0  0  0  0999 V2000
    5.0463   -0.0690    3.3202 C   0  0  0  0  0  0  0  0  0  0  0  0
    4.0875   -0.1236    2.1702 C   0  0  0  0  0  0  0  0  0  0  0  0
    2.8887   -0.8283    2.2667 C   0  0  0  0  0  0  0  0  0  0  0  0
    2.0117   -0.8796    1.1764 C   0  0  0  0  0  0  0  0  0  0  0  0
    2.2903   -0.2421   -0.0247 C   0  0  0  0  0  0  0  0  0  0  0  0
    1.4119   -0.3180   -1.0416 N   0  0  0  0  0  0  0  0  0  0  0  0
    1.6860    0.3456   -2.1919 C   0  0  0  0  0  0  0  0  0  0  0  0
    0.4668    0.2251   -3.5024 S   0  0  0  0  0  0  0  0  0  0  0  0
   -0.9238   -0.5494   -2.6166 C   0  0  0  0  0  0  0  0  0  0  0  0
   -1.5681    0.3586   -1.5682 C   0  0  0  0  0  0  0  0  0  0  0  0
   -1.3765    1.5778   -1.5649 O   0  0  0  0  0  0  0  0  0  0  0  0
   -2.4633   -0.2769   -0.7061 N   0  0  0  0  0  0  0  0  0  0  0  0
   -3.3223    0.3862    0.2008 C   0  0  0  0  0  0  0  0  0  0  0  0
   -3.3769    1.7272    0.5424 C   0  0  0  0  0  0  0  0  0  0  0  0
   -4.3354    2.1439    1.4737 C   0  0  0  0  0  0  0  0  0  0  0  0
   -5.2292    1.2256    2.0431 C   0  0  0  0  0  0  0  0  0  0  0  0
   -5.1787   -0.1213    1.6859 C   0  0  0  0  0  0  0  0  0  0  0  0
   -4.2203   -0.5215    0.7661 C   0  0  0  0  0  0  0  0  0  0  0  0
   -4.0429   -1.8856    0.1845 C   0  0  0  0  0  0  0  0  0  0  0  0
   -2.6974   -1.7388   -0.5591 C   0  0  0  0  0  0  0  0  0  0  0  0
   -1.5808   -2.4071    0.2526 C   0  0  0  0  0  0  0  0  0  0  0  0
    2.8667    1.0700   -2.3874 C   0  0  0  0  0  0  0  0  0  0  0  0
    3.1839    1.7947   -3.6638 C   0  0  0  0  0  0  0  0  0  0  0  0
    3.7775    1.1200   -1.3268 C   0  0  0  0  0  0  0  0  0  0  0  0
    3.5002    0.4672   -0.1231 C   0  0  0  0  0  0  0  0  0  0  0  0
    4.3930    0.5164    0.9644 C   0  0  0  0  0  0  0  0  0  0  0  0
    4.5869   -0.4425    4.2416 H   0  0  0  0  0  0  0  0  0  0  0  0
    5.3624    0.9624    3.5030 H   0  0  0  0  0  0  0  0  0  0  0  0
    5.9266   -0.6807    3.1036 H   0  0  0  0  0  0  0  0  0  0  0  0
    2.6177   -1.3384    3.1887 H   0  0  0  0  0  0  0  0  0  0  0  0
    1.0785   -1.4249    1.2776 H   0  0  0  0  0  0  0  0  0  0  0  0
   -0.5829   -1.4959   -2.1991 H   0  0  0  0  0  0  0  0  0  0  0  0
   -1.6946   -0.7748   -3.3626 H   0  0  0  0  0  0  0  0  0  0  0  0
   -2.6945    2.4566    0.1197 H   0  0  0  0  0  0  0  0  0  0  0  0
   -4.3859    3.1924    1.7564 H   0  0  0  0  0  0  0  0  0  0  0  0
   -5.9695    1.5686    2.7615 H   0  0  0  0  0  0  0  0  0  0  0  0
   -5.8818   -0.8294    2.1100 H   0  0  0  0  0  0  0  0  0  0  0  0
   -4.8522   -2.0910   -0.5235 H   0  0  0  0  0  0  0  0  0  0  0  0
   -4.0273   -2.6645    0.9535 H   0  0  0  0  0  0  0  0  0  0  0  0
   -2.7549   -2.2087   -1.5479 H   0  0  0  0  0  0  0  0  0  0  0  0
   -1.7954   -3.4714    0.4017 H   0  0  0  0  0  0  0  0  0  0  0  0
   -0.6137   -2.3336   -0.2503 H   0  0  0  0  0  0  0  0  0  0  0  0
   -1.4709   -1.9426    1.2388 H   0  0  0  0  0  0  0  0  0  0  0  0
    4.1738    2.2656   -3.6219 H   0  0  0  0  0  0  0  0  0  0  0  0
    2.4527    2.5894   -3.8483 H   0  0  0  0  0  0  0  0  0  0  0  0
    3.1967    1.0989   -4.5092 H   0  0  0  0  0  0  0  0  0  0  0  0
    4.7043    1.6825   -1.4353 H   0  0  0  0  0  0  0  0  0  0  0  0
    5.3294    1.0623    0.8718 H   0  0  0  0  0  0  0  0  0  0  0  0
  1  2  1  0
  2  3  2  0
  3  4  1  0
  4  5  2  0
  5  6  1  0
  6  7  2  0
  7  8  1  0
  8  9  1  0
  9 10  1  0
 10 11  2  0
 10 12  1  0
 12 13  1  0
 13 14  2  0
 14 15  1  0
 15 16  2  0
 16 17  1  0
 17 18  2  0
 18 19  1  0
 19 20  1  0
 20 21  1  0
  7 22  1  0
 22 23  1  0
 22 24  2  0
 24 25  1  0
 25 26  2  0
 26  2  1  0
 25  5  1  0
 20 12  1  0
 18 13  1  0
  1 27  1  0
  1 28  1  0
  1 29  1  0
  3 30  1  0
  4 31  1  0
  9 32  1  0
  9 33  1  0
 14 34  1  0
 15 35  1  0
 16 36  1  0
 17 37  1  0
 19 38  1  0
 19 39  1  0
 20 40  1  0
 21 41  1  0
 21 42  1  0
 21 43  1  0
 23 44  1  0
 23 45  1  0
 23 46  1  0
 24 47  1  0
 26 48  1  0
M  END
$$$$
