
     RDKit          3D

 50 51  0  0  0  0  0  0  0  0999 V2000
    8.9716   -1.3660    2.3566 C   0  0  0  0  0  0  0  0  0  0  0  0
    7.5658   -0.9126    2.7219 C   0  0  0  0  0  0  0  0  0  0  0  0
    6.7501   -0.4189    1.5236 C   0  0  0  0  0  0  0  0  0  0  0  0
    6.4427   -1.5242    0.5065 C   0  0  0  0  0  0  0  0  0  0  0  0
    5.5483   -1.0310   -0.6331 C   0  0  0  0  0  0  0  0  0  0  0  0
    4.0945   -0.8244   -0.2269 C   0  0  0  0  0  0  0  0  0  0  0  0
    3.6497   -1.2231    0.8429 O   0  0  0  0  0  0  0  0  0  0  0  0
    3.3790   -0.1796   -1.2250 N   0  0  0  0  0  0  0  0  0  0  0  0
    2.0214    0.1988   -1.2014 C   0  0  0  0  0  0  0  0  0  0  0  0
    1.5117    0.8203   -2.3485 C   0  0  0  0  0  0  0  0  0  0  0  0
    0.1752    1.2292   -2.4046 C   0  0  0  0  0  0  0  0  0  0  0  0
   -0.6734    1.0159   -1.3144 C   0  0  0  0  0  0  0  0  0  0  0  0
   -2.0902    1.4639   -1.4195 C   0  0  0  0  0  0  0  0  0  0  0  0
   -2.3613    2.4225   -2.1359 O   0  0  0  0  0  0  0  0  0  0  0  0
   -3.0073    0.7051   -0.7063 N   0  0  0  0  0  0  0  0  0  0  0  0
   -4.3314    1.0250   -0.7614 N   0  0  0  0  0  0  0  0  0  0  0  0
   -5.1303    0.2240   -0.1352 C   0  0  0  0  0  0  0  0  0  0  0  0
   -6.5897    0.4515   -0.1206 C   0  0  0  0  0  0  0  0  0  0  0  0
   -7.4110   -0.4707    0.5384 C   0  0  0  0  0  0  0  0  0  0  0  0
   -8.7963   -0.2795    0.5548 C   0  0  0  0  0  0  0  0  0  0  0  0
   -9.3512    0.8378   -0.0885 C   0  0  0  0  0  0  0  0  0  0  0  0
  -10.8072    1.0308   -0.0831 N   0  0  0  0  0  4  0  0  0  0  0  0
  -11.4937    0.2108    0.5447 O   0  0  0  0  0  0  0  0  0  0  0  0
  -11.2638    1.9957   -0.7108 O   0  0  0  0  0  1  0  0  0  0  0  0
   -8.5298    1.7625   -0.7474 C   0  0  0  0  0  0  0  0  0  0  0  0
   -7.1464    1.5643   -0.7627 C   0  0  0  0  0  0  0  0  0  0  0  0
   -0.1643    0.4148   -0.1586 C   0  0  0  0  0  0  0  0  0  0  0  0
    1.1751    0.0055   -0.1079 C   0  0  0  0  0  0  0  0  0  0  0  0
    9.5159   -0.5749    1.8274 H   0  0  0  0  0  0  0  0  0  0  0  0
    8.9547   -2.2602    1.7274 H   0  0  0  0  0  0  0  0  0  0  0  0
    9.5317   -1.6136    3.2645 H   0  0  0  0  0  0  0  0  0  0  0  0
    7.0363   -1.7327    3.2223 H   0  0  0  0  0  0  0  0  0  0  0  0
    7.6419   -0.0964    3.4516 H   0  0  0  0  0  0  0  0  0  0  0  0
    5.8117    0.0032    1.9043 H   0  0  0  0  0  0  0  0  0  0  0  0
    7.2835    0.4014    1.0288 H   0  0  0  0  0  0  0  0  0  0  0  0
    7.3810   -1.8832    0.0681 H   0  0  0  0  0  0  0  0  0  0  0  0
    5.9778   -2.3787    1.0137 H   0  0  0  0  0  0  0  0  0  0  0  0
    5.9474   -0.0970   -1.0468 H   0  0  0  0  0  0  0  0  0  0  0  0
    5.5514   -1.7827   -1.4333 H   0  0  0  0  0  0  0  0  0  0  0  0
    3.8870    0.0470   -2.0711 H   0  0  0  0  0  0  0  0  0  0  0  0
    2.1430    1.0009   -3.2152 H   0  0  0  0  0  0  0  0  0  0  0  0
   -0.2030    1.7180   -3.3019 H   0  0  0  0  0  0  0  0  0  0  0  0
   -2.7257   -0.1536   -0.2503 H   0  0  0  0  0  0  0  0  0  0  0  0
   -4.7582   -0.6631    0.4096 H   0  0  0  0  0  0  0  0  0  0  0  0
   -6.9886   -1.3443    1.0328 H   0  0  0  0  0  0  0  0  0  0  0  0
   -9.4263   -1.0079    1.0640 H   0  0  0  0  0  0  0  0  0  0  0  0
   -8.9447    2.6330   -1.2541 H   0  0  0  0  0  0  0  0  0  0  0  0
   -6.5071    2.2790   -1.2811 H   0  0  0  0  0  0  0  0  0  0  0  0
   -0.7766    0.2845    0.7290 H   0  0  0  0  0  0  0  0  0  0  0  0
    1.5294   -0.4505    0.8126 H   0  0  0  0  0  0  0  0  0  0  0  0
  1  2  1  0
  2  3  1  0
  3  4  1  0
  4  5  1  0
  5  6  1  0
  6  7  2  0
  6  8  1  0
  8  9  1  0
  9 10  2  0
 10 11  1  0
 11 12  2  0
 12 13  1  0
 13 14  2  0
 13 15  1  0
 15 16  1  0
 16 17  2  3
 17 18  1  0
 18 19  2  0
 19 20  1  0
 20 21  2  0
 21 22  1  0
 22 23  2  0
 22 24  1  0
 21 25  1  0
 25 26  2  0
 12 27  1  0
 27 28  2  0
 28  9  1  0
 26 18  1  0
  1 29  1  0
  1 30  1  0
  1 31  1  0
  2 32  1  0
  2 33  1  0
  3 34  1  0
  3 35  1  0
  4 36  1  0
  4 37  1  0
  5 38  1  0
  5 39  1  0
  8 40  1  0
 10 41  1  0
 11 42  1  0
 15 43  1  0
 17 44  1  0
 19 45  1  0
 20 46  1  0
 25 47  1  0
 26 48  1  0
 27 49  1  0
 28 50  1  0
M  CHG  2  22   1  24  -1
M  END
$$$$
