
     RDKit          3D

 34 35  0  0  0  0  0  0  0  0999 V2000
   -0.7850   -0.6138   -2.2483 C   0  0  0  0  0  0  0  0  0  0  0  0
   -0.8225   -0.4159   -0.7464 C   0  0  0  0  0  0  0  0  0  0  0  0
    0.2457   -0.1999   -0.0179 N   0  0  0  0  0  0  0  0  0  0  0  0
    1.4427   -0.1416   -0.6841 N   0  0  0  0  0  0  0  0  0  0  0  0
    1.9453    1.2149   -0.9414 C   0  0  0  0  0  0  0  0  0  0  0  0
    2.5748    1.8259    0.3088 C   0  0  0  0  0  0  0  0  0  0  0  0
    3.6496    0.9056    0.8896 C   0  0  0  0  0  0  0  0  0  0  0  0
    3.1077   -0.5073    1.1122 C   0  0  0  0  0  0  0  0  0  0  0  0
    2.4654   -1.0542   -0.1606 C   0  0  0  0  0  0  0  0  0  0  0  0
   -2.1452   -0.4672   -0.0536 C   0  0  0  0  0  0  0  0  0  0  0  0
   -2.3325    0.2428    1.0741 C   0  0  0  0  0  0  0  0  0  0  0  0
   -1.3769    0.9952    1.7101 O   0  0  0  0  0  0  0  0  0  0  0  0
   -3.5324    0.2718    1.7126 N   0  0  0  0  0  0  0  0  0  0  0  0
   -4.6428   -0.3891    1.2812 C   0  0  0  0  0  0  0  0  0  0  0  0
   -5.7074   -0.3580    1.8875 O   0  0  0  0  0  0  0  0  0  0  0  0
   -4.4854   -1.0983    0.1257 N   0  0  0  0  0  0  0  0  0  0  0  0
   -3.3052   -1.2512   -0.5514 C   0  0  0  0  0  0  0  0  0  0  0  0
   -3.2215   -2.0175   -1.5061 O   0  0  0  0  0  0  0  0  0  0  0  0
   -1.7530   -0.3878   -2.7021 H   0  0  0  0  0  0  0  0  0  0  0  0
   -0.5104   -1.6493   -2.4673 H   0  0  0  0  0  0  0  0  0  0  0  0
   -0.0577    0.0557   -2.7144 H   0  0  0  0  0  0  0  0  0  0  0  0
    1.1203    1.8372   -1.3050 H   0  0  0  0  0  0  0  0  0  0  0  0
    2.6849    1.1415   -1.7471 H   0  0  0  0  0  0  0  0  0  0  0  0
    3.0097    2.8021    0.0680 H   0  0  0  0  0  0  0  0  0  0  0  0
    1.7998    1.9950    1.0666 H   0  0  0  0  0  0  0  0  0  0  0  0
    4.5030    0.8637    0.2017 H   0  0  0  0  0  0  0  0  0  0  0  0
    4.0192    1.3159    1.8359 H   0  0  0  0  0  0  0  0  0  0  0  0
    3.9169   -1.1706    1.4364 H   0  0  0  0  0  0  0  0  0  0  0  0
    2.3652   -0.4836    1.9195 H   0  0  0  0  0  0  0  0  0  0  0  0
    2.0050   -2.0319    0.0206 H   0  0  0  0  0  0  0  0  0  0  0  0
    3.2196   -1.1846   -0.9454 H   0  0  0  0  0  0  0  0  0  0  0  0
   -0.5094    0.7787    1.2949 H   0  0  0  0  0  0  0  0  0  0  0  0
   -3.6106    0.8130    2.5646 H   0  0  0  0  0  0  0  0  0  0  0  0
   -5.2772   -1.6372   -0.1895 H   0  0  0  0  0  0  0  0  0  0  0  0
  1  2  1  0
  2  3  2  3
  3  4  1  0
  4  5  1  0
  5  6  1  0
  6  7  1  0
  7  8  1  0
  8  9  1  0
  2 10  1  0
 10 11  2  0
 11 12  1  0
 11 13  1  0
 13 14  1  0
 14 15  2  0
 14 16  1  0
 16 17  1  0
 17 18  2  0
  9  4  1  0
 17 10  1  0
  1 19  1  0
  1 20  1  0
  1 21  1  0
  5 22  1  0
  5 23  1  0
  6 24  1  0
  6 25  1  0
  7 26  1  0
  7 27  1  0
  8 28  1  0
  8 29  1  0
  9 30  1  0
  9 31  1  0
 12 32  1  0
 13 33  1  0
 16 34  1  0
M  END
$$$$
