
     RDKit          3D

 67 72  0  0  0  0  0  0  0  0999 V2000
    6.7648    1.5582    0.9690 C   0  0  0  0  0  0  0  0  0  0  0  0
    6.3457    0.0871    0.8740 C   0  0  0  0  0  0  0  0  0  0  0  0
    7.3001   -0.6318   -0.0923 C   0  0  0  0  0  0  0  0  0  0  0  0
    6.4061   -0.6168    2.2341 C   0  0  0  0  0  0  0  0  0  0  0  0
    5.0362   -0.0540    0.2669 O   0  0  0  0  0  0  0  0  0  0  0  0
    3.9317    0.4710    0.8546 C   0  0  0  0  0  0  0  0  0  0  0  0
    3.9358    1.1071    1.9010 O   0  0  0  0  0  0  0  0  0  0  0  0
    2.7837    0.2169    0.1314 N   0  0  0  0  0  0  0  0  0  0  0  0
    2.7768   -0.4586   -1.1773 C   0  0  0  0  0  0  0  0  0  0  0  0
    1.5072   -1.3155   -1.4500 C   0  0  0  0  0  0  0  0  0  0  0  0
    0.3514   -0.8700   -0.6967 N   0  0  0  0  0  0  0  0  0  0  0  0
    0.3679    0.5800   -0.3687 C   0  0  2  0  0  0  0  0  0  0  0  0
    1.5266    0.8261    0.5960 C   0  0  0  0  0  0  0  0  0  0  0  0
   -1.0083    0.7551    0.1443 C   0  0  0  0  0  0  0  0  0  0  0  0
   -1.8219   -0.3228   -0.2702 C   0  0  0  0  0  0  0  0  0  0  0  0
   -3.0847   -0.1225    0.2246 C   0  0  0  0  0  0  0  0  0  0  0  0
   -4.1936   -0.8496    0.1613 O   0  0  0  0  0  0  0  0  0  0  0  0
   -3.0532    1.0904    0.8990 N   0  0  0  0  0  0  0  0  0  0  0  0
   -4.1886    1.6851    1.5937 C   0  0  0  0  0  0  0  0  0  0  0  0
   -4.9789    2.6050    0.6953 C   0  0  0  0  0  0  0  0  0  0  0  0
   -4.6531    3.9660    0.6035 C   0  0  0  0  0  0  0  0  0  0  0  0
   -5.3810    4.8148   -0.2319 C   0  0  0  0  0  0  0  0  0  0  0  0
   -6.4386    4.3121   -0.9876 C   0  0  0  0  0  0  0  0  0  0  0  0
   -6.7666    2.9598   -0.9121 C   0  0  0  0  0  0  0  0  0  0  0  0
   -6.0394    2.1097   -0.0773 C   0  0  0  0  0  0  0  0  0  0  0  0
   -1.7710    1.6229    0.8770 C   0  0  0  0  0  0  0  0  0  0  0  0
   -1.4880    2.7658    1.4884 O   0  0  0  0  0  0  0  0  0  0  0  0
   -1.0151   -1.2876   -1.0635 C   0  0  1  0  0  0  0  0  0  0  0  0
   -1.3282   -1.2317   -2.5851 C   0  0  0  0  0  0  0  0  0  0  0  0
   -1.1296   -0.3202   -3.3747 O   0  0  0  0  0  0  0  0  0  0  0  0
   -1.8721   -2.4754   -2.9233 N   0  0  0  0  0  0  0  0  0  0  0  0
   -1.9107   -3.3264   -1.8256 C   0  0  0  0  0  0  0  0  0  0  0  0
   -2.3647   -4.6280   -1.8013 C   0  0  0  0  0  0  0  0  0  0  0  0
   -2.3028   -5.3060   -0.5813 C   0  0  0  0  0  0  0  0  0  0  0  0
   -1.7916   -4.6764    0.5687 C   0  0  0  0  0  0  0  0  0  0  0  0
   -1.3347   -3.3564    0.5200 C   0  0  0  0  0  0  0  0  0  0  0  0
   -1.4064   -2.6845   -0.6898 C   0  0  0  0  0  0  0  0  0  0  0  0
    6.6200    2.0668    0.0097 H   0  0  0  0  0  0  0  0  0  0  0  0
    6.1721    2.1059    1.7072 H   0  0  0  0  0  0  0  0  0  0  0  0
    7.8164    1.6549    1.2596 H   0  0  0  0  0  0  0  0  0  0  0  0
    8.3361   -0.6018    0.2612 H   0  0  0  0  0  0  0  0  0  0  0  0
    7.0077   -1.6805   -0.2206 H   0  0  0  0  0  0  0  0  0  0  0  0
    7.2609   -0.1768   -1.0890 H   0  0  0  0  0  0  0  0  0  0  0  0
    7.4311   -0.6534    2.6197 H   0  0  0  0  0  0  0  0  0  0  0  0
    6.0249   -1.6417    2.1583 H   0  0  0  0  0  0  0  0  0  0  0  0
    5.7924   -0.1094    2.9849 H   0  0  0  0  0  0  0  0  0  0  0  0
    2.8371    0.3426   -1.9246 H   0  0  0  0  0  0  0  0  0  0  0  0
    3.6668   -1.0833   -1.3020 H   0  0  0  0  0  0  0  0  0  0  0  0
    1.7219   -2.3516   -1.1638 H   0  0  0  0  0  0  0  0  0  0  0  0
    1.3318   -1.3149   -2.5313 H   0  0  0  0  0  0  0  0  0  0  0  0
    0.4903    1.1746   -1.2844 H   0  0  0  0  0  0  0  0  0  0  0  0
    1.6892    1.9028    0.7264 H   0  0  0  0  0  0  0  0  0  0  0  0
    1.3152    0.4137    1.5911 H   0  0  0  0  0  0  0  0  0  0  0  0
   -3.9704   -1.6865   -0.2841 H   0  0  0  0  0  0  0  0  0  0  0  0
   -3.8123    2.2231    2.4719 H   0  0  0  0  0  0  0  0  0  0  0  0
   -4.8199    0.8757    1.9789 H   0  0  0  0  0  0  0  0  0  0  0  0
   -3.8222    4.3688    1.1795 H   0  0  0  0  0  0  0  0  0  0  0  0
   -5.1181    5.8672   -0.2964 H   0  0  0  0  0  0  0  0  0  0  0  0
   -7.0025    4.9727   -1.6403 H   0  0  0  0  0  0  0  0  0  0  0  0
   -7.5848    2.5642   -1.5078 H   0  0  0  0  0  0  0  0  0  0  0  0
   -6.2973    1.0532   -0.0371 H   0  0  0  0  0  0  0  0  0  0  0  0
   -0.5500    2.9663    1.3281 H   0  0  0  0  0  0  0  0  0  0  0  0
   -2.1576   -2.7065   -3.8631 H   0  0  0  0  0  0  0  0  0  0  0  0
   -2.7534   -5.1159   -2.6879 H   0  0  0  0  0  0  0  0  0  0  0  0
   -2.6492   -6.3354   -0.5168 H   0  0  0  0  0  0  0  0  0  0  0  0
   -1.7497   -5.2247    1.5080 H   0  0  0  0  0  0  0  0  0  0  0  0
   -0.9377   -2.8686    1.4060 H   0  0  0  0  0  0  0  0  0  0  0  0
  1  2  1  0
  2  3  1  0
  2  4  1  0
  2  5  1  0
  5  6  1  0
  6  7  2  0
  6  8  1  0
  8  9  1  0
  9 10  1  0
 10 11  1  0
 11 12  1  0
 12 13  1  0
 12 14  1  0
 14 15  1  0
 15 16  2  0
 16 17  1  0
 16 18  1  0
 18 19  1  0
 19 20  1  0
 20 21  2  0
 21 22  1  0
 22 23  2  0
 23 24  1  0
 24 25  2  0
 18 26  1  0
 26 27  1  0
 15 28  1  0
 28 29  1  0
 29 30  2  0
 29 31  1  0
 31 32  1  0
 32 33  2  0
 33 34  1  0
 34 35  2  0
 35 36  1  0
 36 37  2  0
 13  8  1  0
 26 14  2  0
 37 28  1  0
 28 11  1  6
 37 32  1  0
 25 20  1  0
  1 38  1  0
  1 39  1  0
  1 40  1  0
  3 41  1  0
  3 42  1  0
  3 43  1  0
  4 44  1  0
  4 45  1  0
  4 46  1  0
  9 47  1  0
  9 48  1  0
 10 49  1  0
 10 50  1  0
 12 51  1  6
 13 52  1  0
 13 53  1  0
 17 54  1  0
 19 55  1  0
 19 56  1  0
 21 57  1  0
 22 58  1  0
 23 59  1  0
 24 60  1  0
 25 61  1  0
 27 62  1  0
 31 63  1  0
 33 64  1  0
 34 65  1  0
 35 66  1  0
 36 67  1  0
M  END
$$$$
