
     RDKit          3D

 49 52  0  0  0  0  0  0  0  0999 V2000
    0.8291   -1.1560    3.3041 N   0  0  0  0  0  0  0  0  0  0  0  0
   -0.3432   -1.1572    2.6424 C   0  0  0  0  0  0  0  0  0  0  0  0
   -1.3935   -1.7779    3.0896 N   0  0  0  0  0  0  0  0  0  0  0  0
   -2.4432   -1.4884    2.0736 C   0  0  0  0  0  0  0  0  0  0  0  0
   -1.7330   -0.8210    0.8773 C   0  0  0  0  0  0  0  0  0  0  0  0
   -2.4514    0.4318    0.3653 C   0  0  0  0  0  0  0  0  0  0  0  0
   -3.7459    0.1167   -0.3459 C   0  0  0  0  0  0  0  0  0  0  0  0
   -4.9774    0.3339    0.2873 C   0  0  0  0  0  0  0  0  0  0  0  0
   -6.1712    0.0283   -0.3676 C   0  0  0  0  0  0  0  0  0  0  0  0
   -6.1379   -0.4933   -1.6546 C   0  0  0  0  0  0  0  0  0  0  0  0
   -7.3280   -0.7773   -2.2559 O   0  0  0  0  0  0  0  0  0  0  0  0
   -4.9272   -0.7153   -2.3017 C   0  0  0  0  0  0  0  0  0  0  0  0
   -3.7320   -0.4098   -1.6465 C   0  0  0  0  0  0  0  0  0  0  0  0
   -0.4288   -0.4835    1.4616 N   0  0  0  0  0  0  0  0  0  0  0  0
    0.6973   -0.3345    0.5380 C   0  0  0  0  0  0  0  0  0  0  0  0
    1.4164    0.9972    0.7770 C   0  0  0  0  0  0  0  0  0  0  0  0
    2.5223    1.2374   -0.2320 C   0  0  0  0  0  0  0  0  0  0  0  0
    2.2384    2.0773   -1.3239 C   0  0  0  0  0  0  0  0  0  0  0  0
    3.1996    2.3315   -2.2952 C   0  0  0  0  0  0  0  0  0  0  0  0
    4.4587    1.7481   -2.1926 C   0  0  0  0  0  0  0  0  0  0  0  0
    4.7757    0.9021   -1.1203 C   0  0  0  0  0  0  0  0  0  0  0  0
    6.0527    0.3223   -1.0391 C   0  0  0  0  0  0  0  0  0  0  0  0
    6.3920   -0.5240    0.0144 C   0  0  0  0  0  0  0  0  0  0  0  0
    5.4570   -0.8014    1.0016 C   0  0  0  0  0  0  0  0  0  0  0  0
    4.1831   -0.2312    0.9359 C   0  0  0  0  0  0  0  0  0  0  0  0
    3.8066    0.6319   -0.1199 C   0  0  0  0  0  0  0  0  0  0  0  0
    0.6999   -1.5989    4.2091 H   0  0  0  0  0  0  0  0  0  0  0  0
    1.1924   -0.2213    3.4311 H   0  0  0  0  0  0  0  0  0  0  0  0
   -3.1981   -0.8403    2.5318 H   0  0  0  0  0  0  0  0  0  0  0  0
   -2.9307   -2.4198    1.7667 H   0  0  0  0  0  0  0  0  0  0  0  0
   -1.6032   -1.5645    0.0797 H   0  0  0  0  0  0  0  0  0  0  0  0
   -2.6339    1.1327    1.1908 H   0  0  0  0  0  0  0  0  0  0  0  0
   -1.8041    0.9783   -0.3335 H   0  0  0  0  0  0  0  0  0  0  0  0
   -5.0188    0.7416    1.2952 H   0  0  0  0  0  0  0  0  0  0  0  0
   -7.1245    0.1967    0.1255 H   0  0  0  0  0  0  0  0  0  0  0  0
   -7.1508   -1.1329   -3.1419 H   0  0  0  0  0  0  0  0  0  0  0  0
   -4.8931   -1.1215   -3.3076 H   0  0  0  0  0  0  0  0  0  0  0  0
   -2.7884   -0.5836   -2.1596 H   0  0  0  0  0  0  0  0  0  0  0  0
    1.3819   -1.1859    0.6308 H   0  0  0  0  0  0  0  0  0  0  0  0
    0.3369   -0.3577   -0.4989 H   0  0  0  0  0  0  0  0  0  0  0  0
    0.6868    1.8167    0.7219 H   0  0  0  0  0  0  0  0  0  0  0  0
    1.8239    1.0634    1.7915 H   0  0  0  0  0  0  0  0  0  0  0  0
    1.2595    2.5430   -1.4214 H   0  0  0  0  0  0  0  0  0  0  0  0
    2.9698    2.9851   -3.1326 H   0  0  0  0  0  0  0  0  0  0  0  0
    5.1972    1.9605   -2.9629 H   0  0  0  0  0  0  0  0  0  0  0  0
    6.7992    0.5274   -1.8037 H   0  0  0  0  0  0  0  0  0  0  0  0
    7.3841   -0.9646    0.0618 H   0  0  0  0  0  0  0  0  0  0  0  0
    5.7132   -1.4623    1.8257 H   0  0  0  0  0  0  0  0  0  0  0  0
    3.4847   -0.4798    1.7309 H   0  0  0  0  0  0  0  0  0  0  0  0
  1  2  1  0
  2  3  2  0
  3  4  1  0
  4  5  1  0
  5  6  1  0
  6  7  1  0
  7  8  2  0
  8  9  1  0
  9 10  2  0
 10 11  1  0
 10 12  1  0
 12 13  2  0
  5 14  1  0
 14 15  1  0
 15 16  1  0
 16 17  1  0
 17 18  2  0
 18 19  1  0
 19 20  2  0
 20 21  1  0
 21 22  2  0
 22 23  1  0
 23 24  2  0
 24 25  1  0
 25 26  2  0
 14  2  1  0
 26 17  1  0
 13  7  1  0
 26 21  1  0
  1 27  1  0
  1 28  1  0
  4 29  1  0
  4 30  1  0
  5 31  1  0
  6 32  1  0
  6 33  1  0
  8 34  1  0
  9 35  1  0
 11 36  1  0
 12 37  1  0
 13 38  1  0
 15 39  1  0
 15 40  1  0
 16 41  1  0
 16 42  1  0
 18 43  1  0
 19 44  1  0
 20 45  1  0
 22 46  1  0
 23 47  1  0
 24 48  1  0
 25 49  1  0
M  END
$$$$
