
     RDKit          3D

 41 42  0  0  0  0  0  0  0  0999 V2000
   -5.0740    3.9104   -0.5933 C   0  0  0  0  0  0  0  0  0  0  0  0
   -5.3559    2.9666   -2.1150 S   0  0  0  0  0  0  0  0  0  0  0  0
   -3.9644    1.8514   -2.0516 C   0  0  0  0  0  0  0  0  0  0  0  0
   -2.6510    2.3168   -1.9448 C   0  0  0  0  0  0  0  0  0  0  0  0
   -1.5818    1.4168   -1.9057 C   0  0  0  0  0  0  0  0  0  0  0  0
   -1.8098    0.0367   -1.9830 C   0  0  0  0  0  0  0  0  0  0  0  0
   -0.6532   -0.9392   -1.9418 C   0  0  0  0  0  0  0  0  0  0  0  0
   -0.6642   -1.8080   -0.7513 N   0  0  0  0  0  0  0  0  0  0  0  0
    0.3027   -2.8924   -0.9034 C   0  0  0  0  0  0  0  0  0  0  0  0
   -0.4867   -1.0645    0.5155 C   0  0  0  0  0  0  0  0  0  0  0  0
    0.8927   -0.3999    0.6650 C   0  0  0  0  0  0  0  0  0  0  0  0
    1.1633    0.6518    0.0915 O   0  0  0  0  0  0  0  0  0  0  0  0
    1.7498   -1.1281    1.4792 N   0  0  0  0  0  0  0  0  0  0  0  0
    3.0835   -0.8207    1.8211 C   0  0  0  0  0  0  0  0  0  0  0  0
    3.7513   -1.7311    2.6532 C   0  0  0  0  0  0  0  0  0  0  0  0
    5.0747   -1.5082    3.0424 C   0  0  0  0  0  0  0  0  0  0  0  0
    5.7453   -0.3703    2.6029 C   0  0  0  0  0  0  0  0  0  0  0  0
    5.0857    0.5369    1.7770 C   0  0  0  0  0  0  0  0  0  0  0  0
    5.9977    2.0839    1.1804 Br  0  0  0  0  0  0  0  0  0  0  0  0
    3.7621    0.3188    1.3850 C   0  0  0  0  0  0  0  0  0  0  0  0
   -3.1277   -0.4251   -2.1020 C   0  0  0  0  0  0  0  0  0  0  0  0
   -4.1953    0.4760   -2.1414 C   0  0  0  0  0  0  0  0  0  0  0  0
   -5.9292    4.5693   -0.4202 H   0  0  0  0  0  0  0  0  0  0  0  0
   -4.1771    4.5294   -0.6772 H   0  0  0  0  0  0  0  0  0  0  0  0
   -4.9757    3.2383    0.2637 H   0  0  0  0  0  0  0  0  0  0  0  0
   -2.4396    3.3816   -1.9011 H   0  0  0  0  0  0  0  0  0  0  0  0
   -0.5671    1.8004   -1.8103 H   0  0  0  0  0  0  0  0  0  0  0  0
    0.3030   -0.4135   -2.0522 H   0  0  0  0  0  0  0  0  0  0  0  0
   -0.7471   -1.5596   -2.8443 H   0  0  0  0  0  0  0  0  0  0  0  0
    0.2896   -3.5494   -0.0267 H   0  0  0  0  0  0  0  0  0  0  0  0
    1.3256   -2.5293   -1.0513 H   0  0  0  0  0  0  0  0  0  0  0  0
    0.0398   -3.5191   -1.7631 H   0  0  0  0  0  0  0  0  0  0  0  0
   -1.2497   -0.2868    0.6359 H   0  0  0  0  0  0  0  0  0  0  0  0
   -0.6601   -1.7505    1.3542 H   0  0  0  0  0  0  0  0  0  0  0  0
    1.3839   -1.9909    1.8617 H   0  0  0  0  0  0  0  0  0  0  0  0
    3.2523   -2.6280    3.0121 H   0  0  0  0  0  0  0  0  0  0  0  0
    5.5807   -2.2217    3.6880 H   0  0  0  0  0  0  0  0  0  0  0  0
    6.7745   -0.1987    2.9069 H   0  0  0  0  0  0  0  0  0  0  0  0
    3.2853    1.0510    0.7422 H   0  0  0  0  0  0  0  0  0  0  0  0
   -3.3256   -1.4933   -2.1603 H   0  0  0  0  0  0  0  0  0  0  0  0
   -5.2082    0.0925   -2.2375 H   0  0  0  0  0  0  0  0  0  0  0  0
  1  2  1  0
  2  3  1  0
  3  4  2  0
  4  5  1  0
  5  6  2  0
  6  7  1  0
  7  8  1  0
  8  9  1  0
  8 10  1  0
 10 11  1  0
 11 12  2  0
 11 13  1  0
 13 14  1  0
 14 15  2  0
 15 16  1  0
 16 17  2  0
 17 18  1  0
 18 19  1  0
 18 20  2  0
  6 21  1  0
 21 22  2  0
 22  3  1  0
 20 14  1  0
  1 23  1  0
  1 24  1  0
  1 25  1  0
  4 26  1  0
  5 27  1  0
  7 28  1  0
  7 29  1  0
  9 30  1  0
  9 31  1  0
  9 32  1  0
 10 33  1  0
 10 34  1  0
 13 35  1  0
 15 36  1  0
 16 37  1  0
 17 38  1  0
 20 39  1  0
 21 40  1  0
 22 41  1  0
M  END
$$$$
