
     RDKit          3D

 43 46  0  0  0  0  0  0  0  0999 V2000
    4.1176   -1.0494    1.2514 O   0  0  0  0  0  0  0  0  0  0  0  0
    3.1063   -0.6735    0.7024 C   0  0  0  0  0  0  0  0  0  0  0  0
    2.8082    0.5824   -0.0489 C   0  0  0  0  0  0  0  0  0  0  0  0
    3.5803    1.6400   -0.3232 C   0  0  0  0  0  0  0  0  0  0  0  0
    4.9240    1.8586    0.0774 C   0  0  0  0  0  0  0  0  0  0  0  0
    5.6405    1.4923    1.2112 C   0  0  0  0  0  0  0  0  0  0  0  0
    6.9525    2.0120    1.0962 C   0  0  0  0  0  0  0  0  0  0  0  0
    6.9789    2.6939   -0.0906 C   0  0  0  0  0  0  0  0  0  0  0  0
    5.7723    2.6240   -0.6998 O   0  0  0  0  0  0  0  0  0  0  0  0
    1.4882    0.5386   -0.5290 O   0  0  0  0  0  0  0  0  0  0  0  0
    0.9503   -0.6544   -0.1032 C   0  0  0  0  0  0  0  0  0  0  0  0
    1.8566   -1.4189    0.6267 C   0  0  0  0  0  0  0  0  0  0  0  0
    1.5431   -2.6626    1.1372 C   0  0  0  0  0  0  0  0  0  0  0  0
    0.2556   -3.1387    0.8933 C   0  0  0  0  0  0  0  0  0  0  0  0
   -0.6632   -2.3645    0.1620 C   0  0  0  0  0  0  0  0  0  0  0  0
   -1.9075   -2.9081   -0.0167 O   0  0  0  0  0  0  0  0  0  0  0  0
   -0.3407   -1.0949   -0.3528 C   0  0  0  0  0  0  0  0  0  0  0  0
   -1.2842   -0.2866   -1.2101 C   0  0  0  0  0  0  0  0  0  0  0  0
   -2.6918   -0.3654   -0.7616 N   0  0  0  0  0  0  0  0  0  0  0  0
   -3.6022    0.1212   -1.8041 C   0  0  0  0  0  0  0  0  0  0  0  0
   -5.0519   -0.2121   -1.4323 C   0  0  0  0  0  0  0  0  0  0  0  0
   -5.3379   -0.0734    0.0643 C   0  0  0  0  0  0  0  0  0  0  0  0
   -4.3345    0.8602    0.7235 C   0  0  0  0  0  0  0  0  0  0  0  0
   -2.8916    0.3827    0.5021 C   0  0  0  0  0  0  0  0  0  0  0  0
    3.1587    2.4197   -0.9528 H   0  0  0  0  0  0  0  0  0  0  0  0
    5.2612    0.9139    2.0423 H   0  0  0  0  0  0  0  0  0  0  0  0
    7.7684    1.9047    1.7964 H   0  0  0  0  0  0  0  0  0  0  0  0
    7.7368    3.2582   -0.6153 H   0  0  0  0  0  0  0  0  0  0  0  0
    2.2687   -3.2425    1.6972 H   0  0  0  0  0  0  0  0  0  0  0  0
   -0.0466   -4.1135    1.2696 H   0  0  0  0  0  0  0  0  0  0  0  0
   -2.4889   -2.1842   -0.3413 H   0  0  0  0  0  0  0  0  0  0  0  0
   -1.1979   -0.7036   -2.2224 H   0  0  0  0  0  0  0  0  0  0  0  0
   -0.9665    0.7618   -1.2737 H   0  0  0  0  0  0  0  0  0  0  0  0
   -3.4829    1.2023   -1.9540 H   0  0  0  0  0  0  0  0  0  0  0  0
   -3.3866   -0.3582   -2.7669 H   0  0  0  0  0  0  0  0  0  0  0  0
   -5.2946   -1.2359   -1.7428 H   0  0  0  0  0  0  0  0  0  0  0  0
   -5.7186    0.4504   -1.9975 H   0  0  0  0  0  0  0  0  0  0  0  0
   -6.3610    0.2863    0.2197 H   0  0  0  0  0  0  0  0  0  0  0  0
   -5.2765   -1.0610    0.5388 H   0  0  0  0  0  0  0  0  0  0  0  0
   -4.5381    0.9375    1.7975 H   0  0  0  0  0  0  0  0  0  0  0  0
   -4.4546    1.8673    0.3040 H   0  0  0  0  0  0  0  0  0  0  0  0
   -2.2402    1.2647    0.5563 H   0  0  0  0  0  0  0  0  0  0  0  0
   -2.6095   -0.2714    1.3356 H   0  0  0  0  0  0  0  0  0  0  0  0
  1  2  2  0
  2  3  1  0
  3  4  2  3
  4  5  1  0
  5  6  2  0
  6  7  1  0
  7  8  2  0
  8  9  1  0
  3 10  1  0
 10 11  1  0
 11 12  2  0
 12 13  1  0
 13 14  2  0
 14 15  1  0
 15 16  1  0
 15 17  2  0
 17 18  1  0
 18 19  1  0
 19 20  1  0
 20 21  1  0
 21 22  1  0
 22 23  1  0
 23 24  1  0
 12  2  1  0
 24 19  1  0
  9  5  1  0
 17 11  1  0
  4 25  1  0
  6 26  1  0
  7 27  1  0
  8 28  1  0
 13 29  1  0
 14 30  1  0
 16 31  1  0
 18 32  1  0
 18 33  1  0
 20 34  1  0
 20 35  1  0
 21 36  1  0
 21 37  1  0
 22 38  1  0
 22 39  1  0
 23 40  1  0
 23 41  1  0
 24 42  1  0
 24 43  1  0
M  END
$$$$
