
     RDKit          3D

 55 58  0  0  0  0  0  0  0  0999 V2000
   -4.5621   -4.1938    0.0030 C   0  0  0  0  0  0  0  0  0  0  0  0
   -3.8642   -3.8456    1.2449 N   0  0  0  0  0  0  0  0  0  0  0  0
   -3.2384   -4.9784    1.9267 C   0  0  0  0  0  0  0  0  0  0  0  0
   -3.1794   -2.6208    1.2165 C   0  0  0  0  0  0  0  0  0  0  0  0
   -1.8738   -2.4568    1.6879 C   0  0  0  0  0  0  0  0  0  0  0  0
   -1.2174   -1.2126    1.6493 C   0  0  0  0  0  0  0  0  0  0  0  0
   -1.8320   -0.0551    1.1567 C   0  0  0  0  0  0  0  0  0  0  0  0
   -1.1649    1.1877    1.1271 N   0  0  0  0  0  0  0  0  0  0  0  0
    0.2176    1.3696    1.1304 C   0  0  0  0  0  0  0  0  0  0  0  0
    1.1207    0.4706    0.9183 N   0  0  0  0  0  0  0  0  0  0  0  0
    2.4417    0.8133    1.0101 C   0  0  0  0  0  0  0  0  0  0  0  0
    3.0307    0.9694    2.0759 O   0  0  0  0  0  0  0  0  0  0  0  0
    3.1659    0.8715   -0.3122 C   0  0  0  0  0  0  0  0  0  0  0  0
    3.8172   -0.4765   -0.5900 C   0  0  0  0  0  0  0  0  0  0  0  0
    4.5939   -0.4598   -1.8819 C   0  0  0  0  0  0  0  0  0  0  0  0
    5.9261   -0.0222   -1.9008 C   0  0  0  0  0  0  0  0  0  0  0  0
    6.6406    0.0174   -3.0996 C   0  0  0  0  0  0  0  0  0  0  0  0
    6.0296   -0.3773   -4.2891 C   0  0  0  0  0  0  0  0  0  0  0  0
    4.7045   -0.8106   -4.2822 C   0  0  0  0  0  0  0  0  0  0  0  0
    3.9879   -0.8505   -3.0845 C   0  0  0  0  0  0  0  0  0  0  0  0
    0.5965    3.0909    1.4042 S   0  0  0  0  0  0  0  0  0  0  0  0
   -1.1100    3.4599    1.9176 C   0  0  0  0  0  0  0  0  0  0  0  0
   -1.5816    4.8563    1.5596 C   0  0  0  0  0  0  0  0  0  0  0  0
   -2.4637    4.7067    0.0208 S   0  0  0  0  0  6  0  0  0  0  0  0
   -1.7636    5.4422   -1.0090 O   0  0  0  0  0  0  0  0  0  0  0  0
   -3.8726    4.9043    0.2930 O   0  0  0  0  0  0  0  0  0  0  0  0
   -2.2081    2.9728   -0.2380 C   0  0  0  0  0  0  0  0  0  0  0  0
   -1.9589    2.4248    1.1639 C   0  0  0  0  0  0  0  0  0  0  0  0
   -3.1522   -0.2146    0.7162 C   0  0  0  0  0  0  0  0  0  0  0  0
   -3.8041   -1.4612    0.7447 C   0  0  0  0  0  0  0  0  0  0  0  0
   -5.0028   -5.1949    0.0735 H   0  0  0  0  0  0  0  0  0  0  0  0
   -5.3921   -3.5090   -0.2055 H   0  0  0  0  0  0  0  0  0  0  0  0
   -3.8718   -4.1958   -0.8496 H   0  0  0  0  0  0  0  0  0  0  0  0
   -2.9581   -4.7196    2.9549 H   0  0  0  0  0  0  0  0  0  0  0  0
   -3.9444   -5.8147    2.0013 H   0  0  0  0  0  0  0  0  0  0  0  0
   -2.3571   -5.3344    1.3827 H   0  0  0  0  0  0  0  0  0  0  0  0
   -1.3136   -3.2915    2.0978 H   0  0  0  0  0  0  0  0  0  0  0  0
   -0.2078   -1.1802    2.0539 H   0  0  0  0  0  0  0  0  0  0  0  0
    3.9110    1.6751   -0.2567 H   0  0  0  0  0  0  0  0  0  0  0  0
    2.4606    1.1473   -1.1068 H   0  0  0  0  0  0  0  0  0  0  0  0
    3.0564   -1.2675   -0.6271 H   0  0  0  0  0  0  0  0  0  0  0  0
    4.4877   -0.7563    0.2330 H   0  0  0  0  0  0  0  0  0  0  0  0
    6.4147    0.2913   -0.9802 H   0  0  0  0  0  0  0  0  0  0  0  0
    7.6739    0.3559   -3.1049 H   0  0  0  0  0  0  0  0  0  0  0  0
    6.5858   -0.3482   -5.2213 H   0  0  0  0  0  0  0  0  0  0  0  0
    4.2289   -1.1195   -5.2109 H   0  0  0  0  0  0  0  0  0  0  0  0
    2.9542   -1.1891   -3.0970 H   0  0  0  0  0  0  0  0  0  0  0  0
   -1.1523    3.2992    3.0005 H   0  0  0  0  0  0  0  0  0  0  0  0
   -2.3010    5.2187    2.3012 H   0  0  0  0  0  0  0  0  0  0  0  0
   -0.7763    5.5881    1.4571 H   0  0  0  0  0  0  0  0  0  0  0  0
   -1.3535    2.8480   -0.9107 H   0  0  0  0  0  0  0  0  0  0  0  0
   -3.0951    2.5480   -0.7128 H   0  0  0  0  0  0  0  0  0  0  0  0
   -2.9057    2.3068    1.7083 H   0  0  0  0  0  0  0  0  0  0  0  0
   -3.7289    0.6171    0.3271 H   0  0  0  0  0  0  0  0  0  0  0  0
   -4.8384   -1.4959    0.4131 H   0  0  0  0  0  0  0  0  0  0  0  0
  1  2  1  0
  2  3  1  0
  2  4  1  0
  4  5  2  0
  5  6  1  0
  6  7  2  0
  7  8  1  0
  8  9  1  0
  9 10  2  3
 10 11  1  0
 11 12  2  0
 11 13  1  0
 13 14  1  0
 14 15  1  0
 15 16  2  0
 16 17  1  0
 17 18  2  0
 18 19  1  0
 19 20  2  0
  9 21  1  0
 21 22  1  0
 22 23  1  0
 23 24  1  0
 24 25  2  0
 24 26  2  0
 24 27  1  0
 27 28  1  0
  7 29  1  0
 29 30  2  0
 30  4  1  0
 28  8  1  0
 20 15  1  0
 28 22  1  0
  1 31  1  0
  1 32  1  0
  1 33  1  0
  3 34  1  0
  3 35  1  0
  3 36  1  0
  5 37  1  0
  6 38  1  0
 13 39  1  0
 13 40  1  0
 14 41  1  0
 14 42  1  0
 16 43  1  0
 17 44  1  0
 18 45  1  0
 19 46  1  0
 20 47  1  0
 22 48  1  0
 23 49  1  0
 23 50  1  0
 27 51  1  0
 27 52  1  0
 28 53  1  0
 29 54  1  0
 30 55  1  0
M  END
$$$$
