
     RDKit          3D

 41 43  0  0  0  0  0  0  0  0999 V2000
   -4.2464   -1.4337   -0.6583 C   0  0  0  0  0  0  0  0  0  0  0  0
   -3.4160   -1.0917    0.5696 C   0  0  0  0  0  0  0  0  0  0  0  0
   -2.0841   -1.8468    0.5685 C   0  0  0  0  0  0  0  0  0  0  0  0
   -1.2463   -1.6231    1.8305 C   0  0  0  0  0  0  0  0  0  0  0  0
   -0.6802    0.0906    2.0561 S   0  0  0  0  0  0  0  0  0  0  0  0
    0.4758    0.2455    0.7673 C   0  0  0  0  0  0  0  0  0  0  0  0
    1.1043   -0.8009    0.3238 N   0  0  0  0  0  0  0  0  0  0  0  0
    2.0038   -0.2994   -0.5794 C   0  0  0  0  0  0  0  0  0  0  0  0
    2.8893   -0.9598   -1.3392 C   0  0  0  0  0  0  0  0  0  0  0  0
    3.1264   -2.3738   -1.4024 C   0  0  0  0  0  0  0  0  0  0  0  0
    2.5123   -3.3990   -0.6190 C   0  0  0  0  0  0  0  0  0  0  0  0
    2.9745   -4.6577   -0.9389 C   0  0  0  0  0  0  0  0  0  0  0  0
    4.1477   -4.6141   -2.1796 S   0  0  0  0  0  0  0  0  0  0  0  0
    4.0403   -2.9090   -2.2900 C   0  0  0  0  0  0  0  0  0  0  0  0
    1.8802    1.1856   -0.6376 C   0  0  0  0  0  0  0  0  0  0  0  0
    2.5463    1.9153   -1.3513 O   0  0  0  0  0  0  0  0  0  0  0  0
    0.8509    1.4531    0.2369 N   0  0  0  0  0  0  0  0  0  0  0  0
    0.3282    2.7596    0.4447 C   0  0  0  0  0  0  0  0  0  0  0  0
    1.1658    3.8829    0.3358 C   0  0  0  0  0  0  0  0  0  0  0  0
    0.6763    5.1796    0.5275 C   0  0  0  0  0  0  0  0  0  0  0  0
   -0.6672    5.3813    0.8195 C   0  0  0  0  0  0  0  0  0  0  0  0
   -1.5204    4.2873    0.9096 C   0  0  0  0  0  0  0  0  0  0  0  0
   -1.0274    2.9908    0.7181 C   0  0  0  0  0  0  0  0  0  0  0  0
   -5.1934   -0.8851   -0.6400 H   0  0  0  0  0  0  0  0  0  0  0  0
   -3.7158   -1.1652   -1.5774 H   0  0  0  0  0  0  0  0  0  0  0  0
   -4.4748   -2.5038   -0.6927 H   0  0  0  0  0  0  0  0  0  0  0  0
   -3.2466   -0.0101    0.5849 H   0  0  0  0  0  0  0  0  0  0  0  0
   -3.9867   -1.3456    1.4703 H   0  0  0  0  0  0  0  0  0  0  0  0
   -2.2923   -2.9219    0.4933 H   0  0  0  0  0  0  0  0  0  0  0  0
   -1.5096   -1.5846   -0.3278 H   0  0  0  0  0  0  0  0  0  0  0  0
   -1.8440   -1.8849    2.7107 H   0  0  0  0  0  0  0  0  0  0  0  0
   -0.3834   -2.2972    1.8334 H   0  0  0  0  0  0  0  0  0  0  0  0
    3.5086   -0.3507   -1.9987 H   0  0  0  0  0  0  0  0  0  0  0  0
    1.7664   -3.2377    0.1490 H   0  0  0  0  0  0  0  0  0  0  0  0
    2.6790   -5.6011   -0.5012 H   0  0  0  0  0  0  0  0  0  0  0  0
    4.6592   -2.3889   -3.0087 H   0  0  0  0  0  0  0  0  0  0  0  0
    2.2277    3.7753    0.1248 H   0  0  0  0  0  0  0  0  0  0  0  0
    1.3504    6.0290    0.4473 H   0  0  0  0  0  0  0  0  0  0  0  0
   -1.0500    6.3879    0.9662 H   0  0  0  0  0  0  0  0  0  0  0  0
   -2.5771    4.4391    1.1166 H   0  0  0  0  0  0  0  0  0  0  0  0
   -1.7519    2.1832    0.7379 H   0  0  0  0  0  0  0  0  0  0  0  0
  1  2  1  0
  2  3  1  0
  3  4  1  0
  4  5  1  0
  5  6  1  0
  6  7  2  0
  7  8  1  0
  8  9  2  3
  9 10  1  0
 10 11  1  0
 11 12  2  0
 12 13  1  0
 13 14  1  0
  8 15  1  0
 15 16  2  0
 15 17  1  0
 17 18  1  0
 18 19  2  0
 19 20  1  0
 20 21  2  0
 21 22  1  0
 22 23  2  0
 17  6  1  0
 23 18  1  0
 14 10  2  0
  1 24  1  0
  1 25  1  0
  1 26  1  0
  2 27  1  0
  2 28  1  0
  3 29  1  0
  3 30  1  0
  4 31  1  0
  4 32  1  0
  9 33  1  0
 11 34  1  0
 12 35  1  0
 14 36  1  0
 19 37  1  0
 20 38  1  0
 21 39  1  0
 22 40  1  0
 23 41  1  0
M  END
$$$$
