
     RDKit          3D

 47 50  0  0  0  0  0  0  0  0999 V2000
   -5.1403   -0.1347    0.9405 C   0  0  0  0  0  0  0  0  0  0  0  0
   -4.4730    1.1681    0.9795 N   0  0  0  0  0  0  0  0  0  0  0  0
   -3.7698    1.3588    2.2593 C   0  0  0  0  0  0  0  0  0  0  0  0
   -2.5219    0.4617    2.4801 C   0  0  0  0  0  0  0  0  0  0  0  0
   -1.8801   -0.0216    1.2396 N   0  0  0  0  0  0  0  0  0  0  0  0
   -0.4815   -0.3939    1.4855 C   0  0  0  0  0  0  0  0  0  0  0  0
    0.1032   -1.2237    0.3660 C   0  0  0  0  0  0  0  0  0  0  0  0
   -0.4531   -2.4687    0.0622 C   0  0  0  0  0  0  0  0  0  0  0  0
    0.0764   -3.2502   -0.9680 C   0  0  0  0  0  0  0  0  0  0  0  0
   -0.6900   -4.7767   -1.2643 Cl  0  0  0  0  0  0  0  0  0  0  0  0
    1.1817   -2.8060   -1.7365 C   0  0  0  0  0  0  0  0  0  0  0  0
    1.7610   -3.5401   -2.7963 C   0  0  0  0  0  0  0  0  0  0  0  0
    2.8401   -3.0309   -3.5083 C   0  0  0  0  0  0  0  0  0  0  0  0
    3.3183   -1.7906   -3.1488 C   0  0  0  0  0  0  0  0  0  0  0  0
    2.7971   -1.0514   -2.1480 N   0  0  0  0  0  0  0  0  0  0  0  0
    1.7539   -1.5501   -1.4451 C   0  0  0  0  0  0  0  0  0  0  0  0
    1.2071   -0.8051   -0.3907 C   0  0  0  0  0  0  0  0  0  0  0  0
    1.7692    0.4584   -0.1285 O   0  0  0  0  0  0  0  0  0  0  0  0
    2.9427    0.3718    0.6190 C   0  0  0  0  0  0  0  0  0  0  0  0
    3.3132   -0.6310    1.2225 O   0  0  0  0  0  0  0  0  0  0  0  0
    3.6000    1.6678    0.6197 C   0  0  0  0  0  0  0  0  0  0  0  0
    3.2762    2.8232   -0.0715 C   0  0  0  0  0  0  0  0  0  0  0  0
    4.1745    3.8961    0.2015 C   0  0  0  0  0  0  0  0  0  0  0  0
    5.1580    3.5285    1.0908 C   0  0  0  0  0  0  0  0  0  0  0  0
    4.9970    1.9014    1.5883 S   0  0  0  0  0  0  0  0  0  0  0  0
   -2.0269    0.9849    0.1772 C   0  0  0  0  0  0  0  0  0  0  0  0
   -3.5143    1.3038   -0.1397 C   0  0  0  0  0  0  0  0  0  0  0  0
   -4.4472   -0.9813    0.9819 H   0  0  0  0  0  0  0  0  0  0  0  0
   -5.8452   -0.2283    1.7744 H   0  0  0  0  0  0  0  0  0  0  0  0
   -5.7341   -0.2274    0.0241 H   0  0  0  0  0  0  0  0  0  0  0  0
   -3.4477    2.4084    2.2998 H   0  0  0  0  0  0  0  0  0  0  0  0
   -4.4644    1.2379    3.1000 H   0  0  0  0  0  0  0  0  0  0  0  0
   -1.8120    1.0319    3.0938 H   0  0  0  0  0  0  0  0  0  0  0  0
   -2.8200   -0.4184    3.0627 H   0  0  0  0  0  0  0  0  0  0  0  0
    0.1232    0.4978    1.6894 H   0  0  0  0  0  0  0  0  0  0  0  0
   -0.4168   -1.0117    2.3920 H   0  0  0  0  0  0  0  0  0  0  0  0
   -1.3116   -2.8242    0.6302 H   0  0  0  0  0  0  0  0  0  0  0  0
    1.3753   -4.5180   -3.0750 H   0  0  0  0  0  0  0  0  0  0  0  0
    3.2917   -3.5897   -4.3200 H   0  0  0  0  0  0  0  0  0  0  0  0
    4.1595   -1.3406   -3.6683 H   0  0  0  0  0  0  0  0  0  0  0  0
    2.4349    2.8977   -0.7514 H   0  0  0  0  0  0  0  0  0  0  0  0
    4.1045    4.8850   -0.2355 H   0  0  0  0  0  0  0  0  0  0  0  0
    5.9682    4.1352    1.4722 H   0  0  0  0  0  0  0  0  0  0  0  0
   -1.5581    0.6454   -0.7536 H   0  0  0  0  0  0  0  0  0  0  0  0
   -1.5177    1.9127    0.4719 H   0  0  0  0  0  0  0  0  0  0  0  0
   -3.8395    0.6950   -0.9937 H   0  0  0  0  0  0  0  0  0  0  0  0
   -3.5617    2.3427   -0.4899 H   0  0  0  0  0  0  0  0  0  0  0  0
  1  2  1  0
  2  3  1  0
  3  4  1  0
  4  5  1  0
  5  6  1  0
  6  7  1  0
  7  8  2  0
  8  9  1  0
  9 10  1  0
  9 11  2  0
 11 12  1  0
 12 13  2  0
 13 14  1  0
 14 15  2  0
 15 16  1  0
 16 17  2  0
 17 18  1  0
 18 19  1  0
 19 20  2  0
 19 21  1  0
 21 22  2  0
 22 23  1  0
 23 24  2  0
 24 25  1  0
  5 26  1  0
 26 27  1  0
 27  2  1  0
 17  7  1  0
 25 21  1  0
 16 11  1  0
  1 28  1  0
  1 29  1  0
  1 30  1  0
  3 31  1  0
  3 32  1  0
  4 33  1  0
  4 34  1  0
  6 35  1  0
  6 36  1  0
  8 37  1  0
 12 38  1  0
 13 39  1  0
 14 40  1  0
 22 41  1  0
 23 42  1  0
 24 43  1  0
 26 44  1  0
 26 45  1  0
 27 46  1  0
 27 47  1  0
M  END
$$$$
