
     RDKit          3D

 46 49  0  0  0  0  0  0  0  0999 V2000
    6.4211    0.0785    1.9793 N   0  0  0  0  0  0  0  0  0  0  0  0
    5.4090   -1.1908    2.4090 S   0  0  0  0  0  6  0  0  0  0  0  0
    5.2632   -1.1127    3.8439 O   0  0  0  0  0  0  0  0  0  0  0  0
    5.9430   -2.3592    1.7483 O   0  0  0  0  0  0  0  0  0  0  0  0
    3.8898   -0.7248    1.6382 C   0  0  0  0  0  0  0  0  0  0  0  0
    2.9839    0.0787    2.3253 C   0  0  0  0  0  0  0  0  0  0  0  0
    1.7718    0.4216    1.7162 C   0  0  0  0  0  0  0  0  0  0  0  0
    1.4290   -0.0274    0.4264 C   0  0  0  0  0  0  0  0  0  0  0  0
    0.2118    0.3315   -0.1502 N   0  0  0  0  0  0  0  0  0  0  0  0
   -0.6539    1.1625    0.5024 N   0  0  0  0  0  0  0  0  0  0  0  0
   -1.6015    1.4648   -0.3327 C   0  0  0  0  0  0  0  0  0  0  0  0
   -2.7470    2.3351    0.0220 C   0  0  0  0  0  0  0  0  0  0  0  0
   -3.6974    2.7192   -0.9307 C   0  0  0  0  0  0  0  0  0  0  0  0
   -4.7662    3.5403   -0.5608 C   0  0  0  0  0  0  0  0  0  0  0  0
   -4.8890    3.9802    0.7567 C   0  0  0  0  0  0  0  0  0  0  0  0
   -3.9440    3.6021    1.7086 C   0  0  0  0  0  0  0  0  0  0  0  0
   -2.8750    2.7821    1.3432 C   0  0  0  0  0  0  0  0  0  0  0  0
   -1.4389    0.8921   -1.7136 C   0  0  0  0  0  0  0  0  0  0  0  0
   -0.2569   -0.0516   -1.4834 C   0  0  0  0  0  0  0  0  0  0  0  0
   -0.6963   -1.5062   -1.5759 C   0  0  0  0  0  0  0  0  0  0  0  0
   -1.2964   -2.1757   -0.4960 C   0  0  0  0  0  0  0  0  0  0  0  0
   -1.7094   -3.5041   -0.6171 C   0  0  0  0  0  0  0  0  0  0  0  0
   -1.5368   -4.1826   -1.8220 C   0  0  0  0  0  0  0  0  0  0  0  0
   -0.9517   -3.5269   -2.9019 C   0  0  0  0  0  0  0  0  0  0  0  0
   -0.7204   -4.4414   -4.5406 Br  0  0  0  0  0  0  0  0  0  0  0  0
   -0.5355   -2.1994   -2.7880 C   0  0  0  0  0  0  0  0  0  0  0  0
    2.3630   -0.8470   -0.2300 C   0  0  0  0  0  0  0  0  0  0  0  0
    3.5812   -1.2002    0.3652 C   0  0  0  0  0  0  0  0  0  0  0  0
    7.1883   -0.2712    1.4053 H   0  0  0  0  0  0  0  0  0  0  0  0
    6.7231    0.5771    2.8164 H   0  0  0  0  0  0  0  0  0  0  0  0
    3.2024    0.4415    3.3264 H   0  0  0  0  0  0  0  0  0  0  0  0
    1.0751    1.0519    2.2659 H   0  0  0  0  0  0  0  0  0  0  0  0
   -3.6282    2.3975   -1.9651 H   0  0  0  0  0  0  0  0  0  0  0  0
   -5.5045    3.8385   -1.3014 H   0  0  0  0  0  0  0  0  0  0  0  0
   -5.7213    4.6190    1.0420 H   0  0  0  0  0  0  0  0  0  0  0  0
   -4.0374    3.9447    2.7362 H   0  0  0  0  0  0  0  0  0  0  0  0
   -2.1438    2.4938    2.0959 H   0  0  0  0  0  0  0  0  0  0  0  0
   -2.3479    0.3955   -2.0636 H   0  0  0  0  0  0  0  0  0  0  0  0
   -1.1666    1.7016   -2.3993 H   0  0  0  0  0  0  0  0  0  0  0  0
    0.5189    0.1514   -2.2327 H   0  0  0  0  0  0  0  0  0  0  0  0
   -1.4360   -1.6652    0.4569 H   0  0  0  0  0  0  0  0  0  0  0  0
   -2.1625   -4.0087    0.2328 H   0  0  0  0  0  0  0  0  0  0  0  0
   -1.8593   -5.2168   -1.9064 H   0  0  0  0  0  0  0  0  0  0  0  0
   -0.0825   -1.7036   -3.6437 H   0  0  0  0  0  0  0  0  0  0  0  0
    2.1586   -1.2399   -1.2214 H   0  0  0  0  0  0  0  0  0  0  0  0
    4.2728   -1.8456   -0.1713 H   0  0  0  0  0  0  0  0  0  0  0  0
  1  2  1  0
  2  3  2  0
  2  4  2  0
  2  5  1  0
  5  6  2  0
  6  7  1  0
  7  8  2  0
  8  9  1  0
  9 10  1  0
 10 11  2  0
 11 12  1  0
 12 13  2  0
 13 14  1  0
 14 15  2  0
 15 16  1  0
 16 17  2  0
 11 18  1  0
 18 19  1  0
 19 20  1  0
 20 21  2  0
 21 22  1  0
 22 23  2  0
 23 24  1  0
 24 25  1  0
 24 26  2  0
  8 27  1  0
 27 28  2  0
 28  5  1  0
 19  9  1  0
 26 20  1  0
 17 12  1  0
  1 29  1  0
  1 30  1  0
  6 31  1  0
  7 32  1  0
 13 33  1  0
 14 34  1  0
 15 35  1  0
 16 36  1  0
 17 37  1  0
 18 38  1  0
 18 39  1  0
 19 40  1  0
 21 41  1  0
 22 42  1  0
 23 43  1  0
 26 44  1  0
 27 45  1  0
 28 46  1  0
M  END
$$$$
