
     RDKit          3D

 33 35  0  0  0  0  0  0  0  0999 V2000
   -0.1825    2.4739    0.3551 O   0  0  0  0  0  0  0  0  0  0  0  0
    0.1237    1.6110   -0.4572 C   0  0  0  0  0  0  0  0  0  0  0  0
    1.2975    0.7044   -0.3465 C   0  0  0  0  0  0  0  0  0  0  0  0
    2.0443    0.7009    0.7657 C   0  0  0  0  0  0  0  0  0  0  0  0
    3.1686   -0.1422    1.0010 C   0  0  0  0  0  0  0  0  0  0  0  0
    4.2138   -0.5281    0.1781 C   0  0  0  0  0  0  0  0  0  0  0  0
    5.1489   -1.3886    0.8250 C   0  0  0  0  0  0  0  0  0  0  0  0
    4.8061   -1.6274    2.1344 C   0  0  0  0  0  0  0  0  0  0  0  0
    3.3743   -0.8123    2.5791 S   0  0  0  0  0  0  0  0  0  0  0  0
    1.4241   -0.2709   -1.7633 S   0  0  0  0  0  0  0  0  0  0  0  0
   -0.0104    0.4290   -2.5110 C   0  0  0  0  0  0  0  0  0  0  0  0
   -0.5405    0.0107   -4.0306 S   0  0  0  0  0  0  0  0  0  0  0  0
   -0.5549    1.3403   -1.6323 N   0  0  0  0  0  0  0  0  0  0  0  0
   -1.8122    2.1238   -1.9201 N   0  0  0  0  0  0  0  0  0  0  0  0
   -3.3004    1.4220   -1.4593 S   0  0  0  0  0  6  0  0  0  0  0  0
   -3.8329    0.7022   -2.5939 O   0  0  0  0  0  0  0  0  0  0  0  0
   -4.0524    2.4754   -0.8120 O   0  0  0  0  0  0  0  0  0  0  0  0
   -2.8632    0.2284   -0.2166 C   0  0  0  0  0  0  0  0  0  0  0  0
   -2.7362    0.6314    1.1159 C   0  0  0  0  0  0  0  0  0  0  0  0
   -2.3599   -0.3024    2.0807 C   0  0  0  0  0  0  0  0  0  0  0  0
   -2.1309   -1.6305    1.7167 C   0  0  0  0  0  0  0  0  0  0  0  0
   -2.2887   -2.0344    0.3900 C   0  0  0  0  0  0  0  0  0  0  0  0
   -2.6643   -1.1075   -0.5814 C   0  0  0  0  0  0  0  0  0  0  0  0
    1.7580    1.3628    1.5837 H   0  0  0  0  0  0  0  0  0  0  0  0
    4.3199   -0.2060   -0.8509 H   0  0  0  0  0  0  0  0  0  0  0  0
    6.0308   -1.8045    0.3529 H   0  0  0  0  0  0  0  0  0  0  0  0
    5.3330   -2.2362    2.8565 H   0  0  0  0  0  0  0  0  0  0  0  0
   -1.7840    3.0714   -1.5236 H   0  0  0  0  0  0  0  0  0  0  0  0
   -2.9111    1.6655    1.4074 H   0  0  0  0  0  0  0  0  0  0  0  0
   -2.2490    0.0033    3.1188 H   0  0  0  0  0  0  0  0  0  0  0  0
   -1.8422   -2.3570    2.4734 H   0  0  0  0  0  0  0  0  0  0  0  0
   -2.1279   -3.0751    0.1166 H   0  0  0  0  0  0  0  0  0  0  0  0
   -2.7994   -1.4333   -1.6114 H   0  0  0  0  0  0  0  0  0  0  0  0
  1  2  2  0
  2  3  1  0
  3  4  2  3
  4  5  1  0
  5  6  2  0
  6  7  1  0
  7  8  2  0
  8  9  1  0
  3 10  1  0
 10 11  1  0
 11 12  2  0
 11 13  1  0
 13 14  1  0
 14 15  1  0
 15 16  2  0
 15 17  2  0
 15 18  1  0
 18 19  2  0
 19 20  1  0
 20 21  2  0
 21 22  1  0
 22 23  2  0
 13  2  1  0
 23 18  1  0
  9  5  1  0
  4 24  1  0
  6 25  1  0
  7 26  1  0
  8 27  1  0
 14 28  1  0
 19 29  1  0
 20 30  1  0
 21 31  1  0
 22 32  1  0
 23 33  1  0
M  END
$$$$
