
     RDKit          3D

 33 35  0  0  0  0  0  0  0  0999 V2000
    0.4964   -0.3199   -2.4306 O   0  0  0  0  0  0  0  0  0  0  0  0
    0.9015    0.0760   -1.3476 C   0  0  0  0  0  0  0  0  0  0  0  0
    2.3003   -0.1077   -0.8597 C   0  0  0  0  0  0  0  0  0  0  0  0
    3.2137   -0.7064   -1.6367 C   0  0  0  0  0  0  0  0  0  0  0  0
    4.5774   -0.9245   -1.2855 C   0  0  0  0  0  0  0  0  0  0  0  0
    5.1588   -1.3640   -0.1075 C   0  0  0  0  0  0  0  0  0  0  0  0
    6.5797   -1.4562   -0.1837 C   0  0  0  0  0  0  0  0  0  0  0  0
    7.0509   -1.1018   -1.4253 C   0  0  0  0  0  0  0  0  0  0  0  0
    5.7879   -0.6721   -2.4899 S   0  0  0  0  0  0  0  0  0  0  0  0
    2.4821    0.5819    0.7127 S   0  0  0  0  0  0  0  0  0  0  0  0
    0.8073    1.0970    0.7943 C   0  0  0  0  0  0  0  0  0  0  0  0
    0.1310    1.8959    2.0924 S   0  0  0  0  0  0  0  0  0  0  0  0
    0.1780    0.7584   -0.3826 N   0  0  0  0  0  0  0  0  0  0  0  0
   -1.3139    0.9603   -0.5662 N   0  0  0  0  0  0  0  0  0  0  0  0
   -2.2209   -0.4727   -0.3426 S   0  0  0  0  0  6  0  0  0  0  0  0
   -2.7445   -0.8986   -1.6196 O   0  0  0  0  0  0  0  0  0  0  0  0
   -1.4408   -1.3549    0.5018 O   0  0  0  0  0  0  0  0  0  0  0  0
   -3.5797    0.1474    0.6193 C   0  0  0  0  0  0  0  0  0  0  0  0
   -3.5516    0.0442    2.0127 C   0  0  0  0  0  0  0  0  0  0  0  0
   -4.6220    0.5406    2.7562 C   0  0  0  0  0  0  0  0  0  0  0  0
   -5.7126    1.1247    2.1088 C   0  0  0  0  0  0  0  0  0  0  0  0
   -5.7415    1.2108    0.7157 C   0  0  0  0  0  0  0  0  0  0  0  0
   -4.6751    0.7186   -0.0359 C   0  0  0  0  0  0  0  0  0  0  0  0
    2.9131   -1.0313   -2.6335 H   0  0  0  0  0  0  0  0  0  0  0  0
    4.5942   -1.6215    0.7806 H   0  0  0  0  0  0  0  0  0  0  0  0
    7.2199   -1.7741    0.6301 H   0  0  0  0  0  0  0  0  0  0  0  0
    8.0778   -1.0830   -1.7638 H   0  0  0  0  0  0  0  0  0  0  0  0
   -1.6890    1.7462   -0.0274 H   0  0  0  0  0  0  0  0  0  0  0  0
   -2.7112   -0.4183    2.5260 H   0  0  0  0  0  0  0  0  0  0  0  0
   -4.6110    0.4675    3.8415 H   0  0  0  0  0  0  0  0  0  0  0  0
   -6.5479    1.5057    2.6924 H   0  0  0  0  0  0  0  0  0  0  0  0
   -6.6001    1.6550    0.2171 H   0  0  0  0  0  0  0  0  0  0  0  0
   -4.7082    0.7767   -1.1224 H   0  0  0  0  0  0  0  0  0  0  0  0
  1  2  2  0
  2  3  1  0
  3  4  2  3
  4  5  1  0
  5  6  2  0
  6  7  1  0
  7  8  2  0
  8  9  1  0
  3 10  1  0
 10 11  1  0
 11 12  2  0
 11 13  1  0
 13 14  1  0
 14 15  1  0
 15 16  2  0
 15 17  2  0
 15 18  1  0
 18 19  2  0
 19 20  1  0
 20 21  2  0
 21 22  1  0
 22 23  2  0
 13  2  1  0
 23 18  1  0
  9  5  1  0
  4 24  1  0
  6 25  1  0
  7 26  1  0
  8 27  1  0
 14 28  1  0
 19 29  1  0
 20 30  1  0
 21 31  1  0
 22 32  1  0
 23 33  1  0
M  END
$$$$
