
     RDKit          3D

 46 47  0  0  0  0  0  0  0  0999 V2000
    6.0305    1.4010   -0.2525 O   0  0  0  0  0  0  0  0  0  0  0  0
    6.8735    0.5898    0.0987 C   0  0  0  0  0  0  0  0  0  0  0  0
    8.0400    0.4684   -0.5587 O   0  0  0  0  0  0  0  0  0  0  0  0
    6.7530   -0.3845    1.2371 C   0  0  0  0  0  0  0  0  0  0  0  0
    5.6124   -0.0077    2.1754 C   0  0  0  0  0  0  0  0  0  0  0  0
    4.2889   -0.5817    1.7008 C   0  0  0  0  0  0  0  0  0  0  0  0
    3.8123   -1.5703    2.2486 O   0  0  0  0  0  0  0  0  0  0  0  0
    3.7513    0.1117    0.6340 N   0  0  0  0  0  0  0  0  0  0  0  0
    2.5480   -0.1521   -0.0498 C   0  0  0  0  0  0  0  0  0  0  0  0
    1.6677   -1.1844    0.2852 C   0  0  0  0  0  0  0  0  0  0  0  0
    0.4907   -1.3786   -0.4455 C   0  0  0  0  0  0  0  0  0  0  0  0
    0.1899   -0.5296   -1.5121 C   0  0  0  0  0  0  0  0  0  0  0  0
   -1.3061   -0.7863   -2.4293 S   0  0  0  0  0  6  0  0  0  0  0  0
   -1.3601    0.1661   -3.5163 O   0  0  0  0  0  0  0  0  0  0  0  0
   -1.4434   -2.2082   -2.6498 O   0  0  0  0  0  0  0  0  0  0  0  0
   -2.4736   -0.3591   -1.3042 N   0  0  0  0  0  0  0  0  0  0  0  0
   -2.8332    1.0588   -1.1661 C   0  0  0  0  0  0  0  0  0  0  0  0
   -3.4938    1.3107    0.1934 C   0  0  0  0  0  0  0  0  0  0  0  0
   -4.8168    0.5991    0.3569 C   0  0  0  0  0  0  0  0  0  0  0  0
   -5.9666    1.0749   -0.2881 C   0  0  0  0  0  0  0  0  0  0  0  0
   -7.1826    0.4042   -0.1503 C   0  0  0  0  0  0  0  0  0  0  0  0
   -7.2610   -0.7470    0.6314 C   0  0  0  0  0  0  0  0  0  0  0  0
   -6.1242   -1.2283    1.2769 C   0  0  0  0  0  0  0  0  0  0  0  0
   -4.9073   -0.5590    1.1413 C   0  0  0  0  0  0  0  0  0  0  0  0
    1.0611    0.5006   -1.8651 C   0  0  0  0  0  0  0  0  0  0  0  0
    2.2358    0.6860   -1.1308 C   0  0  0  0  0  0  0  0  0  0  0  0
    8.0011    1.1251   -1.2854 H   0  0  0  0  0  0  0  0  0  0  0  0
    7.6921   -0.3484    1.8009 H   0  0  0  0  0  0  0  0  0  0  0  0
    6.6213   -1.3904    0.8253 H   0  0  0  0  0  0  0  0  0  0  0  0
    5.8069   -0.4283    3.1698 H   0  0  0  0  0  0  0  0  0  0  0  0
    5.5157    1.0765    2.3054 H   0  0  0  0  0  0  0  0  0  0  0  0
    4.3041    0.8892    0.2718 H   0  0  0  0  0  0  0  0  0  0  0  0
    1.8689   -1.8609    1.1105 H   0  0  0  0  0  0  0  0  0  0  0  0
   -0.1818   -2.1906   -0.1774 H   0  0  0  0  0  0  0  0  0  0  0  0
   -3.2285   -1.0442   -1.2393 H   0  0  0  0  0  0  0  0  0  0  0  0
   -3.5098    1.3366   -1.9814 H   0  0  0  0  0  0  0  0  0  0  0  0
   -1.9353    1.6822   -1.2328 H   0  0  0  0  0  0  0  0  0  0  0  0
   -2.8105    1.0117    0.9986 H   0  0  0  0  0  0  0  0  0  0  0  0
   -3.6602    2.3878    0.3220 H   0  0  0  0  0  0  0  0  0  0  0  0
   -5.9242    1.9719   -0.9018 H   0  0  0  0  0  0  0  0  0  0  0  0
   -8.0701    0.7798   -0.6531 H   0  0  0  0  0  0  0  0  0  0  0  0
   -8.2086   -1.2684    0.7383 H   0  0  0  0  0  0  0  0  0  0  0  0
   -6.1852   -2.1257    1.8872 H   0  0  0  0  0  0  0  0  0  0  0  0
   -4.0288   -0.9491    1.6512 H   0  0  0  0  0  0  0  0  0  0  0  0
    0.8392    1.1575   -2.7029 H   0  0  0  0  0  0  0  0  0  0  0  0
    2.9071    1.4930   -1.4174 H   0  0  0  0  0  0  0  0  0  0  0  0
  1  2  2  0
  2  3  1  0
  2  4  1  0
  4  5  1  0
  5  6  1  0
  6  7  2  0
  6  8  1  0
  8  9  1  0
  9 10  2  0
 10 11  1  0
 11 12  2  0
 12 13  1  0
 13 14  2  0
 13 15  2  0
 13 16  1  0
 16 17  1  0
 17 18  1  0
 18 19  1  0
 19 20  2  0
 20 21  1  0
 21 22  2  0
 22 23  1  0
 23 24  2  0
 12 25  1  0
 25 26  2  0
 26  9  1  0
 24 19  1  0
  3 27  1  0
  4 28  1  0
  4 29  1  0
  5 30  1  0
  5 31  1  0
  8 32  1  0
 10 33  1  0
 11 34  1  0
 16 35  1  0
 17 36  1  0
 17 37  1  0
 18 38  1  0
 18 39  1  0
 20 40  1  0
 21 41  1  0
 22 42  1  0
 23 43  1  0
 24 44  1  0
 25 45  1  0
 26 46  1  0
M  END
$$$$
