
     RDKit          3D

 55 58  0  0  0  0  0  0  0  0999 V2000
   -3.9825    1.2435   -1.9594 C   0  0  0  0  0  0  0  0  0  0  0  0
   -3.2299    1.6424   -0.6904 C   0  0  0  0  0  0  0  0  0  0  0  0
   -3.6852    3.0027   -0.1566 C   0  0  0  0  0  0  0  0  0  0  0  0
   -3.2683    0.5937    0.3250 N   0  0  0  0  0  0  0  0  0  0  0  0
   -2.1764   -0.1276    0.7784 C   0  0  0  0  0  0  0  0  0  0  0  0
   -0.9424   -0.0242    0.2078 N   0  0  0  0  0  0  0  0  0  0  0  0
   -0.7961   -0.7096   -1.0999 C   0  0  0  0  0  0  0  0  0  0  0  0
    0.5711   -1.4171   -1.2569 C   0  0  0  0  0  0  0  0  0  0  0  0
    1.7548   -0.6163   -0.8733 N   0  0  0  0  0  0  0  0  0  0  0  0
    2.0537    0.3956   -1.9219 C   0  0  0  0  0  0  0  0  0  0  0  0
    3.4504    1.0007   -1.7301 C   0  0  0  0  0  0  0  0  0  0  0  0
    3.7289    2.1453   -2.0756 O   0  0  0  0  0  0  0  0  0  0  0  0
    4.3662    0.1267   -1.1949 N   0  0  0  0  0  0  0  0  0  0  0  0
    5.7102    0.5366   -0.8854 C   0  0  0  0  0  0  0  0  0  0  0  0
    6.4291   -0.6113   -0.2566 C   0  0  0  0  0  0  0  0  0  0  0  0
    6.5315   -0.9226    1.0861 C   0  0  0  0  0  0  0  0  0  0  0  0
    7.2988   -2.1015    1.3129 C   0  0  0  0  0  0  0  0  0  0  0  0
    7.7572   -2.6515    0.1372 C   0  0  0  0  0  0  0  0  0  0  0  0
    7.2632   -1.7505   -1.2297 S   0  0  0  0  0  0  0  0  0  0  0  0
    1.5208    0.0470    0.4422 C   0  0  0  0  0  0  0  0  0  0  0  0
    0.1786   -0.2858    1.1344 C   0  0  0  0  0  0  0  0  0  0  0  0
   -2.4976   -0.8718    1.8111 N   0  0  0  0  0  0  0  0  0  0  0  0
   -3.8450   -0.7094    1.9838 C   0  0  0  0  0  0  0  0  0  0  0  0
   -4.6928   -1.3127    2.9257 C   0  0  0  0  0  0  0  0  0  0  0  0
   -6.0559   -1.0002    2.9084 C   0  0  0  0  0  0  0  0  0  0  0  0
   -6.5652   -0.1028    1.9709 C   0  0  0  0  0  0  0  0  0  0  0  0
   -5.7332    0.5118    1.0269 C   0  0  0  0  0  0  0  0  0  0  0  0
   -4.3685    0.1895    1.0576 C   0  0  0  0  0  0  0  0  0  0  0  0
   -3.6196    0.2843   -2.3437 H   0  0  0  0  0  0  0  0  0  0  0  0
   -3.8395    1.9954   -2.7430 H   0  0  0  0  0  0  0  0  0  0  0  0
   -5.0586    1.1452   -1.7873 H   0  0  0  0  0  0  0  0  0  0  0  0
   -2.1799    1.7770   -0.9714 H   0  0  0  0  0  0  0  0  0  0  0  0
   -4.7528    3.0258    0.0783 H   0  0  0  0  0  0  0  0  0  0  0  0
   -3.1373    3.2671    0.7549 H   0  0  0  0  0  0  0  0  0  0  0  0
   -3.4971    3.7857   -0.8995 H   0  0  0  0  0  0  0  0  0  0  0  0
   -0.9056    0.0370   -1.8943 H   0  0  0  0  0  0  0  0  0  0  0  0
   -1.5862   -1.4584   -1.2459 H   0  0  0  0  0  0  0  0  0  0  0  0
    0.5693   -2.3211   -0.6333 H   0  0  0  0  0  0  0  0  0  0  0  0
    0.6759   -1.7875   -2.2843 H   0  0  0  0  0  0  0  0  0  0  0  0
    2.0666   -0.0762   -2.9122 H   0  0  0  0  0  0  0  0  0  0  0  0
    1.3109    1.2014   -1.9314 H   0  0  0  0  0  0  0  0  0  0  0  0
    3.9871   -0.7366   -0.8137 H   0  0  0  0  0  0  0  0  0  0  0  0
    5.6628    1.3892   -0.1984 H   0  0  0  0  0  0  0  0  0  0  0  0
    6.1965    0.8800   -1.8056 H   0  0  0  0  0  0  0  0  0  0  0  0
    6.0761   -0.3308    1.8715 H   0  0  0  0  0  0  0  0  0  0  0  0
    7.5045   -2.5248    2.2887 H   0  0  0  0  0  0  0  0  0  0  0  0
    8.3599   -3.5408    0.0124 H   0  0  0  0  0  0  0  0  0  0  0  0
    2.3379   -0.2446    1.1122 H   0  0  0  0  0  0  0  0  0  0  0  0
    1.5789    1.1393    0.3456 H   0  0  0  0  0  0  0  0  0  0  0  0
    0.1749   -1.3324    1.4684 H   0  0  0  0  0  0  0  0  0  0  0  0
    0.0845    0.3464    2.0272 H   0  0  0  0  0  0  0  0  0  0  0  0
   -4.2866   -2.0112    3.6488 H   0  0  0  0  0  0  0  0  0  0  0  0
   -6.7209   -1.4634    3.6328 H   0  0  0  0  0  0  0  0  0  0  0  0
   -7.6290    0.1265    1.9735 H   0  0  0  0  0  0  0  0  0  0  0  0
   -6.1481    1.2070    0.3066 H   0  0  0  0  0  0  0  0  0  0  0  0
  1  2  1  0
  2  3  1  0
  2  4  1  0
  4  5  1  0
  5  6  1  0
  6  7  1  0
  7  8  1  0
  8  9  1  0
  9 10  1  0
 10 11  1  0
 11 12  2  0
 11 13  1  0
 13 14  1  0
 14 15  1  0
 15 16  2  0
 16 17  1  0
 17 18  2  0
 18 19  1  0
  9 20  1  0
 20 21  1  0
  5 22  2  0
 22 23  1  0
 23 24  2  0
 24 25  1  0
 25 26  2  0
 26 27  1  0
 27 28  2  0
 28  4  1  0
 21  6  1  0
 28 23  1  0
 19 15  1  0
  1 29  1  0
  1 30  1  0
  1 31  1  0
  2 32  1  0
  3 33  1  0
  3 34  1  0
  3 35  1  0
  7 36  1  0
  7 37  1  0
  8 38  1  0
  8 39  1  0
 10 40  1  0
 10 41  1  0
 13 42  1  0
 14 43  1  0
 14 44  1  0
 16 45  1  0
 17 46  1  0
 18 47  1  0
 20 48  1  0
 20 49  1  0
 21 50  1  0
 21 51  1  0
 24 52  1  0
 25 53  1  0
 26 54  1  0
 27 55  1  0
M  END
$$$$
