
     RDKit          3D

 50 53  0  0  0  0  0  0  0  0999 V2000
    3.2754    3.0678    1.8150 C   0  0  0  0  0  0  0  0  0  0  0  0
    4.1499    1.8572    2.1092 C   0  0  0  0  0  0  0  0  0  0  0  0
    4.2125    0.9549    0.9517 N   0  0  0  0  0  0  0  0  0  0  0  0
    5.3103    1.2040    0.0083 C   0  0  0  0  0  0  0  0  0  0  0  0
    6.5248    0.3524    0.3490 C   0  0  0  0  0  0  0  0  0  0  0  0
    3.2670   -0.0432    0.7397 C   0  0  0  0  0  0  0  0  0  0  0  0
    3.3787   -0.9753   -0.3066 C   0  0  0  0  0  0  0  0  0  0  0  0
    2.4280   -1.9850   -0.5270 C   0  0  0  0  0  0  0  0  0  0  0  0
    1.3119   -2.0972    0.2973 C   0  0  0  0  0  0  0  0  0  0  0  0
    0.3543   -3.1817    0.0709 C   0  0  0  0  0  0  0  0  0  0  0  0
   -0.9465   -3.0555   -0.2321 C   0  0  0  0  0  0  0  0  0  0  0  0
   -1.9623   -4.4676   -0.4918 S   0  0  0  0  0  0  0  0  0  0  0  0
   -3.2917   -3.4405   -0.8239 C   0  0  0  0  0  0  0  0  0  0  0  0
   -4.5426   -3.6417   -1.1171 N   0  0  0  0  0  0  0  0  0  0  0  0
   -5.1042   -2.3822   -1.2473 N   0  0  0  0  0  0  0  0  0  0  0  0
   -4.1672   -1.4612   -1.0352 C   0  0  0  0  0  0  0  0  0  0  0  0
   -4.3680   -0.0121   -1.0667 C   0  0  0  0  0  0  0  0  0  0  0  0
   -3.5489    0.7886   -1.8806 C   0  0  0  0  0  0  0  0  0  0  0  0
   -3.7344    2.1703   -1.9494 C   0  0  0  0  0  0  0  0  0  0  0  0
   -4.7509    2.7711   -1.2161 C   0  0  0  0  0  0  0  0  0  0  0  0
   -5.5822    1.9918   -0.4131 C   0  0  0  0  0  0  0  0  0  0  0  0
   -5.4009    0.6006   -0.3234 C   0  0  0  0  0  0  0  0  0  0  0  0
   -6.3401   -0.1946    0.5454 C   0  0  0  0  0  0  0  0  0  0  0  0
   -2.9971   -2.1234   -0.7529 N   0  0  0  0  0  0  0  0  0  0  0  0
   -1.7089   -1.7780   -0.4182 C   0  0  0  0  0  0  0  0  0  0  0  0
   -1.3500   -0.6227   -0.3152 O   0  0  0  0  0  0  0  0  0  0  0  0
    1.1772   -1.2015    1.3531 C   0  0  0  0  0  0  0  0  0  0  0  0
    2.1354   -0.1957    1.5600 C   0  0  0  0  0  0  0  0  0  0  0  0
    3.2576    3.7394    2.6790 H   0  0  0  0  0  0  0  0  0  0  0  0
    3.6577    3.6301    0.9566 H   0  0  0  0  0  0  0  0  0  0  0  0
    2.2445    2.7793    1.5889 H   0  0  0  0  0  0  0  0  0  0  0  0
    5.1596    2.2116    2.3539 H   0  0  0  0  0  0  0  0  0  0  0  0
    3.8113    1.3383    3.0129 H   0  0  0  0  0  0  0  0  0  0  0  0
    5.0000    1.0482   -1.0310 H   0  0  0  0  0  0  0  0  0  0  0  0
    5.6059    2.2601    0.0552 H   0  0  0  0  0  0  0  0  0  0  0  0
    6.8810    0.5639    1.3627 H   0  0  0  0  0  0  0  0  0  0  0  0
    7.3417    0.5634   -0.3482 H   0  0  0  0  0  0  0  0  0  0  0  0
    6.2994   -0.7169    0.2937 H   0  0  0  0  0  0  0  0  0  0  0  0
    4.2250   -0.9532   -0.9859 H   0  0  0  0  0  0  0  0  0  0  0  0
    2.5806   -2.6751   -1.3533 H   0  0  0  0  0  0  0  0  0  0  0  0
    0.7972   -4.1740    0.1484 H   0  0  0  0  0  0  0  0  0  0  0  0
   -2.7533    0.3459   -2.4760 H   0  0  0  0  0  0  0  0  0  0  0  0
   -3.0857    2.7744   -2.5785 H   0  0  0  0  0  0  0  0  0  0  0  0
   -4.9005    3.8462   -1.2718 H   0  0  0  0  0  0  0  0  0  0  0  0
   -6.3789    2.4786    0.1460 H   0  0  0  0  0  0  0  0  0  0  0  0
   -6.9238    0.4591    1.2027 H   0  0  0  0  0  0  0  0  0  0  0  0
   -7.0424   -0.7601   -0.0749 H   0  0  0  0  0  0  0  0  0  0  0  0
   -5.7847   -0.8803    1.1936 H   0  0  0  0  0  0  0  0  0  0  0  0
    0.3273   -1.2575    2.0284 H   0  0  0  0  0  0  0  0  0  0  0  0
    1.9512    0.4789    2.3900 H   0  0  0  0  0  0  0  0  0  0  0  0
  1  2  1  0
  2  3  1  0
  3  4  1  0
  4  5  1  0
  3  6  1  0
  6  7  2  0
  7  8  1  0
  8  9  2  0
  9 10  1  0
 10 11  2  3
 11 12  1  0
 12 13  1  0
 13 14  2  0
 14 15  1  0
 15 16  2  0
 16 17  1  0
 17 18  2  0
 18 19  1  0
 19 20  2  0
 20 21  1  0
 21 22  2  0
 22 23  1  0
 16 24  1  0
 24 25  1  0
 25 26  2  0
  9 27  1  0
 27 28  2  0
 28  6  1  0
 25 11  1  0
 24 13  1  0
 22 17  1  0
  1 29  1  0
  1 30  1  0
  1 31  1  0
  2 32  1  0
  2 33  1  0
  4 34  1  0
  4 35  1  0
  5 36  1  0
  5 37  1  0
  5 38  1  0
  7 39  1  0
  8 40  1  0
 10 41  1  0
 18 42  1  0
 19 43  1  0
 20 44  1  0
 21 45  1  0
 23 46  1  0
 23 47  1  0
 23 48  1  0
 27 49  1  0
 28 50  1  0
M  END
$$$$
