
     RDKit          3D

 38 42  0  0  0  0  0  0  0  0999 V2000
    0.0229    1.9913   -1.5721 O   0  0  0  0  0  0  0  0  0  0  0  0
   -0.2991    0.8716   -0.9364 C   0  0  0  0  0  0  0  0  0  0  0  0
   -1.3980    0.5249   -0.1954 C   0  0  0  0  0  0  0  0  0  0  0  0
   -1.2305   -0.8351    0.2378 C   0  0  0  0  0  0  0  0  0  0  0  0
   -0.0329   -1.2897   -0.2480 C   0  0  0  0  0  0  0  0  0  0  0  0
    0.5721   -2.4671   -0.1521 O   0  0  0  0  0  0  0  0  0  0  0  0
    0.5429   -0.2323   -0.9394 N   0  0  0  0  0  0  0  0  0  0  0  0
    1.8262   -0.2936   -1.6281 C   0  0  0  0  0  0  0  0  0  0  0  0
    2.9669    0.1313   -0.7352 C   0  0  0  0  0  0  0  0  0  0  0  0
    3.6409   -0.8089    0.0578 C   0  0  0  0  0  0  0  0  0  0  0  0
    4.6927   -0.4147    0.8863 C   0  0  0  0  0  0  0  0  0  0  0  0
    5.0791    0.9233    0.9350 C   0  0  0  0  0  0  0  0  0  0  0  0
    4.4114    1.8690    0.1591 C   0  0  0  0  0  0  0  0  0  0  0  0
    3.3593    1.4761   -0.6698 C   0  0  0  0  0  0  0  0  0  0  0  0
   -2.3986   -1.3535    1.0616 C   0  0  0  0  0  0  0  0  0  0  0  0
   -2.5417   -0.3246    2.2201 C   0  0  0  0  0  0  0  0  0  0  0  0
   -2.7002    0.9626    1.8101 C   0  0  0  0  0  0  0  0  0  0  0  0
   -2.7066    1.1473    0.2651 C   0  0  0  0  0  0  0  0  0  0  0  0
   -3.8973    0.2636   -0.2309 C   0  0  0  0  0  0  0  0  0  0  0  0
   -3.8017   -0.8629   -1.2390 C   0  0  0  0  0  0  0  0  0  0  0  0
   -3.7170   -1.2000    0.2353 C   0  0  0  0  0  0  0  0  0  0  0  0
   -0.6972    2.6248   -1.4094 H   0  0  0  0  0  0  0  0  0  0  0  0
   -0.0001   -3.0343    0.3931 H   0  0  0  0  0  0  0  0  0  0  0  0
    1.7696    0.3415   -2.5200 H   0  0  0  0  0  0  0  0  0  0  0  0
    1.9739   -1.3173   -1.9917 H   0  0  0  0  0  0  0  0  0  0  0  0
    3.3406   -1.8547    0.0377 H   0  0  0  0  0  0  0  0  0  0  0  0
    5.2063   -1.1519    1.4974 H   0  0  0  0  0  0  0  0  0  0  0  0
    5.8958    1.2302    1.5825 H   0  0  0  0  0  0  0  0  0  0  0  0
    4.7053    2.9141    0.2026 H   0  0  0  0  0  0  0  0  0  0  0  0
    2.8378    2.2258   -1.2617 H   0  0  0  0  0  0  0  0  0  0  0  0
   -2.2523   -2.3738    1.4232 H   0  0  0  0  0  0  0  0  0  0  0  0
   -2.5001   -0.6311    3.2560 H   0  0  0  0  0  0  0  0  0  0  0  0
   -2.8002    1.8052    2.4800 H   0  0  0  0  0  0  0  0  0  0  0  0
   -2.8148    2.1930   -0.0314 H   0  0  0  0  0  0  0  0  0  0  0  0
   -4.8599    0.7294   -0.0602 H   0  0  0  0  0  0  0  0  0  0  0  0
   -4.7107   -1.1419   -1.7633 H   0  0  0  0  0  0  0  0  0  0  0  0
   -2.9220   -0.9539   -1.8649 H   0  0  0  0  0  0  0  0  0  0  0  0
   -4.5627   -1.6836    0.7084 H   0  0  0  0  0  0  0  0  0  0  0  0
  1  2  1  0
  2  3  2  0
  3  4  1  0
  4  5  2  0
  5  6  1  0
  5  7  1  0
  7  8  1  0
  8  9  1  0
  9 10  2  0
 10 11  1  0
 11 12  2  0
 12 13  1  0
 13 14  2  0
  4 15  1  0
 15 16  1  0
 16 17  2  0
 17 18  1  0
 18 19  1  0
 19 20  1  0
 20 21  1  0
  7  2  1  0
 14  9  1  0
 21 15  1  0
 18  3  1  0
 21 19  1  0
  1 22  1  0
  6 23  1  0
  8 24  1  0
  8 25  1  0
 10 26  1  0
 11 27  1  0
 12 28  1  0
 13 29  1  0
 14 30  1  0
 15 31  1  0
 16 32  1  0
 17 33  1  0
 18 34  1  0
 19 35  1  0
 20 36  1  0
 20 37  1  0
 21 38  1  0
M  END
$$$$
