
     RDKit          3D

 47 49  0  0  0  0  0  0  0  0999 V2000
    1.1004    0.8393   -2.9201 O   0  0  0  0  0  0  0  0  0  0  0  0
    0.8867    0.7589   -1.7158 C   0  0  0  0  0  0  0  0  0  0  0  0
    1.6204    1.6224   -0.7051 C   0  0  0  0  0  0  0  0  0  0  0  0
    2.6009    2.5621   -1.3956 C   0  0  0  0  0  0  0  0  0  0  0  0
    3.4473    3.6518   -0.1929 S   0  0  0  0  0  0  0  0  0  0  0  0
    4.5035    2.4742    0.6318 C   0  0  0  0  0  0  0  0  0  0  0  0
    4.3864    2.3073    2.0153 C   0  0  0  0  0  0  0  0  0  0  0  0
    5.2001    1.3925    2.6872 C   0  0  0  0  0  0  0  0  0  0  0  0
    6.1422    0.6471    1.9806 C   0  0  0  0  0  0  0  0  0  0  0  0
    6.2757    0.8202    0.6041 C   0  0  0  0  0  0  0  0  0  0  0  0
    5.4618    1.7348   -0.0682 C   0  0  0  0  0  0  0  0  0  0  0  0
   -0.0233   -0.0788   -1.0983 N   0  0  0  0  0  0  0  0  0  0  0  0
   -0.8375   -1.0797   -1.6849 C   0  0  0  0  0  0  0  0  0  0  0  0
   -0.7455   -1.4343   -3.0348 C   0  0  0  0  0  0  0  0  0  0  0  0
   -1.5168   -2.4802   -3.5554 C   0  0  0  0  0  0  0  0  0  0  0  0
   -2.3831   -3.1956   -2.7335 C   0  0  0  0  0  0  0  0  0  0  0  0
   -2.5018   -2.8487   -1.3903 C   0  0  0  0  0  0  0  0  0  0  0  0
   -1.7627   -1.7737   -0.8748 C   0  0  0  0  0  0  0  0  0  0  0  0
   -1.9325   -1.3975    0.5511 C   0  0  0  0  0  0  0  0  0  0  0  0
   -0.9187   -1.2830    1.2395 O   0  0  0  0  0  0  0  0  0  0  0  0
   -3.2019   -1.1233    1.0325 N   0  0  0  0  0  0  0  0  0  0  0  0
   -3.3842   -0.6937    2.4110 C   0  0  0  0  0  0  0  0  0  0  0  0
   -4.6779    0.1080    2.4003 C   0  0  0  0  0  0  0  0  0  0  0  0
   -5.4724   -0.5413    1.2771 C   0  0  0  0  0  0  0  0  0  0  0  0
   -4.4005   -0.8587    0.2438 C   0  0  0  0  0  0  0  0  0  0  0  0
    2.1426    0.9520   -0.0128 H   0  0  0  0  0  0  0  0  0  0  0  0
    0.8739    2.1959   -0.1420 H   0  0  0  0  0  0  0  0  0  0  0  0
    3.3365    2.0082   -1.9878 H   0  0  0  0  0  0  0  0  0  0  0  0
    2.0625    3.2138   -2.0930 H   0  0  0  0  0  0  0  0  0  0  0  0
    3.6588    2.8849    2.5804 H   0  0  0  0  0  0  0  0  0  0  0  0
    5.0994    1.2643    3.7618 H   0  0  0  0  0  0  0  0  0  0  0  0
    6.7765   -0.0640    2.5037 H   0  0  0  0  0  0  0  0  0  0  0  0
    7.0172    0.2471    0.0533 H   0  0  0  0  0  0  0  0  0  0  0  0
    5.5923    1.8688   -1.1390 H   0  0  0  0  0  0  0  0  0  0  0  0
   -0.0721   -0.0343   -0.0790 H   0  0  0  0  0  0  0  0  0  0  0  0
   -0.0608   -0.9317   -3.7112 H   0  0  0  0  0  0  0  0  0  0  0  0
   -1.4189   -2.7462   -4.6058 H   0  0  0  0  0  0  0  0  0  0  0  0
   -2.9588   -4.0240   -3.1387 H   0  0  0  0  0  0  0  0  0  0  0  0
   -3.1615   -3.4230   -0.7448 H   0  0  0  0  0  0  0  0  0  0  0  0
   -3.4804   -1.5955    3.0253 H   0  0  0  0  0  0  0  0  0  0  0  0
   -2.5346   -0.1063    2.7717 H   0  0  0  0  0  0  0  0  0  0  0  0
   -5.1966    0.0844    3.3625 H   0  0  0  0  0  0  0  0  0  0  0  0
   -4.4683    1.1544    2.1478 H   0  0  0  0  0  0  0  0  0  0  0  0
   -6.2616    0.1035    0.8812 H   0  0  0  0  0  0  0  0  0  0  0  0
   -5.9335   -1.4687    1.6379 H   0  0  0  0  0  0  0  0  0  0  0  0
   -4.1989    0.0013   -0.4044 H   0  0  0  0  0  0  0  0  0  0  0  0
   -4.6801   -1.7151   -0.3717 H   0  0  0  0  0  0  0  0  0  0  0  0
  1  2  2  0
  2  3  1  0
  3  4  1  0
  4  5  1  0
  5  6  1  0
  6  7  2  0
  7  8  1  0
  8  9  2  0
  9 10  1  0
 10 11  2  0
  2 12  1  0
 12 13  1  0
 13 14  2  0
 14 15  1  0
 15 16  2  0
 16 17  1  0
 17 18  2  0
 18 19  1  0
 19 20  2  0
 19 21  1  0
 21 22  1  0
 22 23  1  0
 23 24  1  0
 24 25  1  0
 11  6  1  0
 18 13  1  0
 25 21  1  0
  3 26  1  0
  3 27  1  0
  4 28  1  0
  4 29  1  0
  7 30  1  0
  8 31  1  0
  9 32  1  0
 10 33  1  0
 11 34  1  0
 12 35  1  0
 14 36  1  0
 15 37  1  0
 16 38  1  0
 17 39  1  0
 22 40  1  0
 22 41  1  0
 23 42  1  0
 23 43  1  0
 24 44  1  0
 24 45  1  0
 25 46  1  0
 25 47  1  0
M  END
$$$$
