
     RDKit          3D

 37 40  0  0  0  0  0  0  0  0999 V2000
    2.7082   -0.5037    1.5614 O   0  0  0  0  0  0  0  0  0  0  0  0
    2.1008   -0.0870    0.5861 C   0  0  0  0  0  0  0  0  0  0  0  0
    2.5201    0.8084   -0.3676 N   0  0  0  0  0  0  0  0  0  0  0  0
    3.7299    1.4500   -0.4225 C   0  0  0  0  0  0  0  0  0  0  0  0
    4.0121    2.2655   -1.4124 N   0  0  0  0  0  0  0  0  0  0  0  0
    5.2813    2.7825   -1.2347 C   0  0  0  0  0  0  0  0  0  0  0  0
    5.9432    2.3520   -0.1057 C   0  0  0  0  0  0  0  0  0  0  0  0
    4.9417    1.2645    0.7601 S   0  0  0  0  0  0  0  0  0  0  0  0
    0.7247   -0.5843    0.3531 C   0  0  0  0  0  0  0  0  0  0  0  0
   -0.3109    0.3528    0.3740 C   0  0  0  0  0  0  0  0  0  0  0  0
   -1.6034   -0.0876    0.1459 C   0  0  0  0  0  0  0  0  0  0  0  0
   -2.7729    0.8159    0.1439 C   0  0  0  0  0  0  0  0  0  0  0  0
   -3.8726    0.5627   -0.6977 C   0  0  0  0  0  0  0  0  0  0  0  0
   -4.9850    1.4092   -0.7227 C   0  0  0  0  0  0  0  0  0  0  0  0
   -5.0253    2.5293    0.1012 C   0  0  0  0  0  0  0  0  0  0  0  0
   -3.9578    2.7987    0.9523 C   0  0  0  0  0  0  0  0  0  0  0  0
   -2.8455    1.9501    0.9745 C   0  0  0  0  0  0  0  0  0  0  0  0
   -1.8666   -1.3928   -0.1105 N   0  0  0  0  0  0  0  0  0  0  0  0
   -0.8707   -2.2961   -0.1114 C   0  0  0  0  0  0  0  0  0  0  0  0
   -1.1858   -3.6254   -0.3607 C   0  0  0  0  0  0  0  0  0  0  0  0
   -0.2109   -4.6254   -0.3858 C   0  0  0  0  0  0  0  0  0  0  0  0
    1.1169   -4.2958   -0.1564 C   0  0  0  0  0  0  0  0  0  0  0  0
    1.4595   -2.9688    0.0948 C   0  0  0  0  0  0  0  0  0  0  0  0
    0.4717   -1.9517    0.1220 C   0  0  0  0  0  0  0  0  0  0  0  0
    1.9269    1.0256   -1.1568 H   0  0  0  0  0  0  0  0  0  0  0  0
    5.6792    3.4764   -1.9652 H   0  0  0  0  0  0  0  0  0  0  0  0
    6.9319    2.6144    0.2414 H   0  0  0  0  0  0  0  0  0  0  0  0
   -0.1012    1.3998    0.5651 H   0  0  0  0  0  0  0  0  0  0  0  0
   -3.8652   -0.3108   -1.3486 H   0  0  0  0  0  0  0  0  0  0  0  0
   -5.8187    1.1873   -1.3838 H   0  0  0  0  0  0  0  0  0  0  0  0
   -5.8910    3.1861    0.0861 H   0  0  0  0  0  0  0  0  0  0  0  0
   -3.9918    3.6658    1.6073 H   0  0  0  0  0  0  0  0  0  0  0  0
   -2.0431    2.1803    1.6718 H   0  0  0  0  0  0  0  0  0  0  0  0
   -2.2254   -3.8925   -0.5391 H   0  0  0  0  0  0  0  0  0  0  0  0
   -0.4949   -5.6563   -0.5805 H   0  0  0  0  0  0  0  0  0  0  0  0
    1.8843   -5.0656   -0.1671 H   0  0  0  0  0  0  0  0  0  0  0  0
    2.5062   -2.7334    0.2820 H   0  0  0  0  0  0  0  0  0  0  0  0
  1  2  2  0
  2  3  1  0
  3  4  1  0
  4  5  2  0
  5  6  1  0
  6  7  2  0
  7  8  1  0
  2  9  1  0
  9 10  2  0
 10 11  1  0
 11 12  1  0
 12 13  2  0
 13 14  1  0
 14 15  2  0
 15 16  1  0
 16 17  2  0
 11 18  2  0
 18 19  1  0
 19 20  2  0
 20 21  1  0
 21 22  2  0
 22 23  1  0
 23 24  2  0
  8  4  1  0
 24  9  1  0
 17 12  1  0
 24 19  1  0
  3 25  1  0
  6 26  1  0
  7 27  1  0
 10 28  1  0
 13 29  1  0
 14 30  1  0
 15 31  1  0
 16 32  1  0
 17 33  1  0
 20 34  1  0
 21 35  1  0
 22 36  1  0
 23 37  1  0
M  END
$$$$
