
     RDKit          3D

 48 49  0  0  0  0  0  0  0  0999 V2000
    0.9589    3.2423    1.4937 C   0  0  0  0  0  0  0  0  0  0  0  0
    1.6261    2.1192    0.9336 O   0  0  0  0  0  0  0  0  0  0  0  0
    0.9050    0.9603    0.8008 C   0  0  0  0  0  0  0  0  0  0  0  0
   -0.4865    0.8730    0.9265 C   0  0  0  0  0  0  0  0  0  0  0  0
   -1.1456   -0.3609    0.7905 C   0  0  0  0  0  0  0  0  0  0  0  0
   -2.6508   -0.4541    0.9155 C   0  0  0  0  0  0  0  0  0  0  0  0
   -3.2496   -0.6502   -0.3996 N   0  0  0  0  0  0  0  0  0  0  0  0
   -4.7241   -0.7719   -0.4341 C   0  0  0  0  0  0  0  0  0  0  0  0
   -5.2049   -1.9820    0.3883 C   0  0  0  0  0  0  0  0  0  0  0  0
   -5.0865   -1.0339   -1.9117 C   0  0  0  0  0  0  0  0  0  0  0  0
   -5.4409    0.5225    0.0443 C   0  0  0  0  0  0  0  0  0  0  0  0
   -6.8531    0.4336   -0.1177 O   0  0  0  0  0  0  0  0  0  0  0  0
   -0.3941   -1.5127    0.5155 C   0  0  0  0  0  0  0  0  0  0  0  0
    0.9920   -1.4350    0.3813 C   0  0  0  0  0  0  0  0  0  0  0  0
    1.9512   -3.0329    0.0228 Br  0  0  0  0  0  0  0  0  0  0  0  0
    1.6395   -0.2005    0.5021 C   0  0  0  0  0  0  0  0  0  0  0  0
    3.0099   -0.1439    0.4024 O   0  0  0  0  0  0  0  0  0  0  0  0
    3.3978    0.3319   -0.8894 C   0  0  0  0  0  0  0  0  0  0  0  0
    4.8924    0.1621   -1.0150 C   0  0  0  0  0  0  0  0  0  0  0  0
    5.4326   -0.9981   -1.5888 C   0  0  0  0  0  0  0  0  0  0  0  0
    6.8165   -1.1605   -1.6860 C   0  0  0  0  0  0  0  0  0  0  0  0
    7.6657   -0.1679   -1.2014 C   0  0  0  0  0  0  0  0  0  0  0  0
    9.3708   -0.3683   -1.3214 Cl  0  0  0  0  0  0  0  0  0  0  0  0
    7.1440    0.9834   -0.6156 C   0  0  0  0  0  0  0  0  0  0  0  0
    5.7604    1.1457   -0.5182 C   0  0  0  0  0  0  0  0  0  0  0  0
    0.2047    3.6325    0.8028 H   0  0  0  0  0  0  0  0  0  0  0  0
    1.7034    4.0288    1.6509 H   0  0  0  0  0  0  0  0  0  0  0  0
    0.5181    3.0015    2.4669 H   0  0  0  0  0  0  0  0  0  0  0  0
   -1.0837    1.7564    1.1291 H   0  0  0  0  0  0  0  0  0  0  0  0
   -2.8772   -1.2871    1.5903 H   0  0  0  0  0  0  0  0  0  0  0  0
   -3.0277    0.4578    1.3910 H   0  0  0  0  0  0  0  0  0  0  0  0
   -2.9516    0.1016   -1.0206 H   0  0  0  0  0  0  0  0  0  0  0  0
   -4.6563   -2.8912    0.1154 H   0  0  0  0  0  0  0  0  0  0  0  0
   -6.2690   -2.1818    0.2173 H   0  0  0  0  0  0  0  0  0  0  0  0
   -5.0767   -1.8203    1.4640 H   0  0  0  0  0  0  0  0  0  0  0  0
   -4.8002   -0.1888   -2.5491 H   0  0  0  0  0  0  0  0  0  0  0  0
   -4.5781   -1.9274   -2.2945 H   0  0  0  0  0  0  0  0  0  0  0  0
   -6.1628   -1.1945   -2.0412 H   0  0  0  0  0  0  0  0  0  0  0  0
   -5.2455    0.7115    1.1049 H   0  0  0  0  0  0  0  0  0  0  0  0
   -5.0905    1.3887   -0.5287 H   0  0  0  0  0  0  0  0  0  0  0  0
   -7.2318    1.2751    0.1893 H   0  0  0  0  0  0  0  0  0  0  0  0
   -0.9035   -2.4679    0.4003 H   0  0  0  0  0  0  0  0  0  0  0  0
    3.1429    1.3916   -1.0134 H   0  0  0  0  0  0  0  0  0  0  0  0
    2.8948   -0.2302   -1.6878 H   0  0  0  0  0  0  0  0  0  0  0  0
    4.7771   -1.7855   -1.9553 H   0  0  0  0  0  0  0  0  0  0  0  0
    7.2229   -2.0636   -2.1329 H   0  0  0  0  0  0  0  0  0  0  0  0
    7.8057    1.7525   -0.2273 H   0  0  0  0  0  0  0  0  0  0  0  0
    5.3583    2.0390   -0.0440 H   0  0  0  0  0  0  0  0  0  0  0  0
  1  2  1  0
  2  3  1  0
  3  4  2  0
  4  5  1  0
  5  6  1  0
  6  7  1  0
  7  8  1  0
  8  9  1  0
  8 10  1  0
  8 11  1  0
 11 12  1  0
  5 13  2  0
 13 14  1  0
 14 15  1  0
 14 16  2  0
 16 17  1  0
 17 18  1  0
 18 19  1  0
 19 20  2  0
 20 21  1  0
 21 22  2  0
 22 23  1  0
 22 24  1  0
 24 25  2  0
 16  3  1  0
 25 19  1  0
  1 26  1  0
  1 27  1  0
  1 28  1  0
  4 29  1  0
  6 30  1  0
  6 31  1  0
  7 32  1  0
  9 33  1  0
  9 34  1  0
  9 35  1  0
 10 36  1  0
 10 37  1  0
 10 38  1  0
 11 39  1  0
 11 40  1  0
 12 41  1  0
 13 42  1  0
 18 43  1  0
 18 44  1  0
 20 45  1  0
 21 46  1  0
 24 47  1  0
 25 48  1  0
M  END
$$$$
