
     RDKit          3D

 42 44  0  0  0  0  0  0  0  0999 V2000
   -6.9712    0.3267    1.2408 N   0  0  0  0  0  0  0  0  0  0  0  0
   -6.0501    0.7879    0.7058 C   0  0  0  0  0  0  0  0  0  0  0  0
   -4.9121    1.4129    0.0194 C   0  0  0  0  0  0  0  0  0  0  0  0
   -3.5671    0.9735    0.6151 C   0  0  0  0  0  0  0  0  0  0  0  0
   -3.2328   -0.4481    0.4203 N   0  0  0  0  0  0  0  0  0  0  0  0
   -3.1104   -0.8153   -1.0066 C   0  0  0  0  0  0  0  0  0  0  0  0
   -2.2095   -2.0385   -1.2660 C   0  0  0  0  0  0  0  0  0  0  0  0
   -0.8351   -1.8197   -0.7797 N   0  0  0  0  0  0  0  0  0  0  0  0
    0.2705   -2.5181   -1.2916 C   0  0  0  0  0  0  0  0  0  0  0  0
    0.1512   -3.8399   -2.3343 S   0  0  0  0  0  0  0  0  0  0  0  0
    1.6175   -2.0956   -0.9299 C   0  0  0  0  0  0  0  0  0  0  0  0
    2.8168   -2.7747   -0.7822 C   0  0  0  0  0  0  0  0  0  0  0  0
    3.8031   -1.8161   -0.4412 C   0  0  0  0  0  0  0  0  0  0  0  0
    3.1696   -0.5918   -0.4070 C   0  0  0  0  0  0  0  0  0  0  0  0
    3.5940    0.7778   -0.1268 C   0  0  0  0  0  0  0  0  0  0  0  0
    4.9056    1.0494    0.2880 C   0  0  0  0  0  0  0  0  0  0  0  0
    5.3154    2.3591    0.5625 C   0  0  0  0  0  0  0  0  0  0  0  0
    4.4184    3.4202    0.4268 C   0  0  0  0  0  0  0  0  0  0  0  0
    4.9894    5.0098    0.7855 Cl  0  0  0  0  0  0  0  0  0  0  0  0
    3.1083    3.1669    0.0128 C   0  0  0  0  0  0  0  0  0  0  0  0
    1.9365    4.4235   -0.1763 Cl  0  0  0  0  0  0  0  0  0  0  0  0
    2.7037    1.8551   -0.2625 C   0  0  0  0  0  0  0  0  0  0  0  0
    1.8492   -0.7614   -0.7067 O   0  0  0  0  0  0  0  0  0  0  0  0
   -0.7299   -0.9193    0.3808 C   0  0  0  0  0  0  0  0  0  0  0  0
   -2.0372   -0.8456    1.1930 C   0  0  0  0  0  0  0  0  0  0  0  0
   -4.9957    2.5017    0.1230 H   0  0  0  0  0  0  0  0  0  0  0  0
   -4.9556    1.2044   -1.0549 H   0  0  0  0  0  0  0  0  0  0  0  0
   -2.7714    1.6012    0.1927 H   0  0  0  0  0  0  0  0  0  0  0  0
   -3.5968    1.1888    1.6918 H   0  0  0  0  0  0  0  0  0  0  0  0
   -2.6952    0.0258   -1.5785 H   0  0  0  0  0  0  0  0  0  0  0  0
   -4.1089   -1.0235   -1.4068 H   0  0  0  0  0  0  0  0  0  0  0  0
   -2.6070   -2.9240   -0.7553 H   0  0  0  0  0  0  0  0  0  0  0  0
   -2.1963   -2.2433   -2.3411 H   0  0  0  0  0  0  0  0  0  0  0  0
    2.9626   -3.8399   -0.9043 H   0  0  0  0  0  0  0  0  0  0  0  0
    4.8502   -2.0056   -0.2524 H   0  0  0  0  0  0  0  0  0  0  0  0
    5.6293    0.2456    0.4066 H   0  0  0  0  0  0  0  0  0  0  0  0
    6.3386    2.5424    0.8835 H   0  0  0  0  0  0  0  0  0  0  0  0
    1.6815    1.6760   -0.5903 H   0  0  0  0  0  0  0  0  0  0  0  0
   -0.4744    0.0768    0.0015 H   0  0  0  0  0  0  0  0  0  0  0  0
    0.0751   -1.2589    1.0406 H   0  0  0  0  0  0  0  0  0  0  0  0
   -2.2402   -1.8455    1.5989 H   0  0  0  0  0  0  0  0  0  0  0  0
   -1.8895   -0.2004    2.0675 H   0  0  0  0  0  0  0  0  0  0  0  0
  1  2  3  0
  2  3  1  0
  3  4  1  0
  4  5  1  0
  5  6  1  0
  6  7  1  0
  7  8  1  0
  8  9  1  0
  9 10  2  0
  9 11  1  0
 11 12  2  0
 12 13  1  0
 13 14  2  0
 14 15  1  0
 15 16  2  0
 16 17  1  0
 17 18  2  0
 18 19  1  0
 18 20  1  0
 20 21  1  0
 20 22  2  0
 14 23  1  0
  8 24  1  0
 24 25  1  0
 25  5  1  0
 23 11  1  0
 22 15  1  0
  3 26  1  0
  3 27  1  0
  4 28  1  0
  4 29  1  0
  6 30  1  0
  6 31  1  0
  7 32  1  0
  7 33  1  0
 12 34  1  0
 13 35  1  0
 16 36  1  0
 17 37  1  0
 22 38  1  0
 24 39  1  0
 24 40  1  0
 25 41  1  0
 25 42  1  0
M  END
$$$$
