
     RDKit          3D

 36 37  0  0  0  0  0  0  0  0999 V2000
    3.1865   -2.4656   -0.9895 C   0  0  0  0  0  0  0  0  0  0  0  0
    3.9676   -1.2533   -1.1426 N   0  0  0  0  0  0  0  0  0  0  0  0
    3.7907   -0.0930   -0.4415 C   0  0  0  0  0  0  0  0  0  0  0  0
    5.1525    0.8468   -0.1811 S   0  0  0  0  0  0  0  0  0  0  0  0
    2.5045    0.1939   -0.0107 N   0  0  0  0  0  0  0  0  0  0  0  0
    2.2709    1.1144    1.1070 C   0  0  0  0  0  0  0  0  0  0  0  0
    0.9702    0.7708    1.8321 C   0  0  0  0  0  0  0  0  0  0  0  0
   -0.1859    0.5831    0.8825 C   0  0  0  0  0  0  0  0  0  0  0  0
   -1.5023    0.6343    1.3662 C   0  0  0  0  0  0  0  0  0  0  0  0
   -2.5889    0.4287    0.5091 C   0  0  0  0  0  0  0  0  0  0  0  0
   -3.9047    0.4670    0.9004 O   0  0  0  0  0  0  0  0  0  0  0  0
   -4.1799    0.7427    2.2658 C   0  0  0  0  0  0  0  0  0  0  0  0
   -2.3568    0.1607   -0.8535 C   0  0  0  0  0  0  0  0  0  0  0  0
   -3.4741   -0.0244   -1.6302 O   0  0  0  0  0  0  0  0  0  0  0  0
   -3.2840   -0.2812   -3.0135 C   0  0  0  0  0  0  0  0  0  0  0  0
   -1.0424    0.0975   -1.3308 C   0  0  0  0  0  0  0  0  0  0  0  0
    0.0502    0.2941   -0.4696 C   0  0  0  0  0  0  0  0  0  0  0  0
    1.4527    0.2460   -1.0322 C   0  0  0  0  0  0  0  0  0  0  0  0
    2.4027   -2.3582   -0.2367 H   0  0  0  0  0  0  0  0  0  0  0  0
    3.8656   -3.2651   -0.6807 H   0  0  0  0  0  0  0  0  0  0  0  0
    2.7555   -2.7216   -1.9602 H   0  0  0  0  0  0  0  0  0  0  0  0
    4.9284   -1.3884   -1.4377 H   0  0  0  0  0  0  0  0  0  0  0  0
    3.0954    1.0579    1.8258 H   0  0  0  0  0  0  0  0  0  0  0  0
    2.2417    2.1361    0.7070 H   0  0  0  0  0  0  0  0  0  0  0  0
    0.7444    1.5639    2.5543 H   0  0  0  0  0  0  0  0  0  0  0  0
    1.1010   -0.1656    2.3889 H   0  0  0  0  0  0  0  0  0  0  0  0
   -1.6518    0.8360    2.4220 H   0  0  0  0  0  0  0  0  0  0  0  0
   -3.7663   -0.0343    2.9170 H   0  0  0  0  0  0  0  0  0  0  0  0
   -5.2665    0.7398    2.3952 H   0  0  0  0  0  0  0  0  0  0  0  0
   -3.8147    1.7350    2.5504 H   0  0  0  0  0  0  0  0  0  0  0  0
   -2.7831    0.5584   -3.5065 H   0  0  0  0  0  0  0  0  0  0  0  0
   -2.7373   -1.2168   -3.1701 H   0  0  0  0  0  0  0  0  0  0  0  0
   -4.2714   -0.3935   -3.4718 H   0  0  0  0  0  0  0  0  0  0  0  0
   -0.8383   -0.1057   -2.3774 H   0  0  0  0  0  0  0  0  0  0  0  0
    1.5443   -0.5981   -1.7210 H   0  0  0  0  0  0  0  0  0  0  0  0
    1.6237    1.1577   -1.6200 H   0  0  0  0  0  0  0  0  0  0  0  0
  1  2  1  0
  2  3  1  0
  3  4  2  0
  3  5  1  0
  5  6  1  0
  6  7  1  0
  7  8  1  0
  8  9  2  0
  9 10  1  0
 10 11  1  0
 11 12  1  0
 10 13  2  0
 13 14  1  0
 14 15  1  0
 13 16  1  0
 16 17  2  0
 17 18  1  0
 18  5  1  0
 17  8  1  0
  1 19  1  0
  1 20  1  0
  1 21  1  0
  2 22  1  0
  6 23  1  0
  6 24  1  0
  7 25  1  0
  7 26  1  0
  9 27  1  0
 12 28  1  0
 12 29  1  0
 12 30  1  0
 15 31  1  0
 15 32  1  0
 15 33  1  0
 16 34  1  0
 18 35  1  0
 18 36  1  0
M  END
$$$$
