
     RDKit          3D

 60 64  0  0  0  0  0  0  0  0999 V2000
   -2.8214   -0.5435   -2.4099 O   0  0  0  0  0  0  0  0  0  0  0  0
   -2.7976   -0.2362   -1.2178 C   0  0  0  0  0  0  0  0  0  0  0  0
   -1.5083    0.2022   -0.5472 C   0  0  0  0  0  0  0  0  0  0  0  0
   -0.3523    0.2396   -1.5455 C   0  0  0  0  0  0  0  0  0  0  0  0
    0.8974    0.6733   -0.9164 N   0  0  0  0  0  0  0  0  0  0  0  0
    1.1236    2.0369   -0.8281 C   0  0  0  0  0  0  0  0  0  0  0  0
    0.3146    2.8892   -1.1888 O   0  0  0  0  0  0  0  0  0  0  0  0
    2.4020    2.4595   -0.2391 C   0  0  0  0  0  0  0  0  0  0  0  0
    2.7163    3.8285   -0.2071 C   0  0  0  0  0  0  0  0  0  0  0  0
    3.9160    4.2567    0.3495 C   0  0  0  0  0  0  0  0  0  0  0  0
    4.7952    3.3185    0.8749 C   0  0  0  0  0  0  0  0  0  0  0  0
    4.4760    1.9547    0.8424 C   0  0  0  0  0  0  0  0  0  0  0  0
    3.2724    1.4997    0.2787 C   0  0  0  0  0  0  0  0  0  0  0  0
    2.9002    0.1257    0.2348 N   0  0  0  0  0  0  0  0  0  0  0  0
    3.7657   -0.9262    0.7717 C   0  0  0  0  0  0  0  0  0  0  0  0
    4.5691   -1.6330   -0.3047 C   0  0  0  0  0  0  0  0  0  0  0  0
    5.6829   -1.0238   -0.9037 C   0  0  0  0  0  0  0  0  0  0  0  0
    6.4078   -1.6762   -1.9056 C   0  0  0  0  0  0  0  0  0  0  0  0
    6.0323   -2.9507   -2.3270 C   0  0  0  0  0  0  0  0  0  0  0  0
    4.9230   -3.5675   -1.7380 C   0  0  0  0  0  0  0  0  0  0  0  0
    4.5278   -4.9122   -2.1716 N   0  0  0  0  0  4  0  0  0  0  0  0
    3.7186   -5.5316   -1.4667 O   0  0  0  0  0  0  0  0  0  0  0  0
    5.0392   -5.3549   -3.2106 O   0  0  0  0  0  1  0  0  0  0  0  0
    4.1913   -2.9169   -0.7347 C   0  0  0  0  0  0  0  0  0  0  0  0
    1.6928   -0.2958   -0.3225 C   0  0  0  0  0  0  0  0  0  0  0  0
    1.3373   -1.4764   -0.2763 O   0  0  0  0  0  0  0  0  0  0  0  0
   -3.9335   -0.2897   -0.4137 N   0  0  0  0  0  0  0  0  0  0  0  0
   -5.2146   -0.5872   -1.0491 C   0  0  0  0  0  0  0  0  0  0  0  0
   -6.0947   -1.4494   -0.1492 C   0  0  0  0  0  0  0  0  0  0  0  0
   -6.2264   -0.8495    1.2260 C   0  0  0  0  0  0  0  0  0  0  0  0
   -7.3292   -1.1683    2.0297 C   0  0  0  0  0  0  0  0  0  0  0  0
   -7.4435   -0.6357    3.3130 C   0  0  0  0  0  0  0  0  0  0  0  0
   -6.4541    0.2106    3.8062 C   0  0  0  0  0  0  0  0  0  0  0  0
   -5.3455    0.5212    3.0182 C   0  0  0  0  0  0  0  0  0  0  0  0
   -5.2155   -0.0100    1.7252 C   0  0  0  0  0  0  0  0  0  0  0  0
   -3.9981    0.3451    0.9029 C   0  0  0  0  0  0  0  0  0  0  0  0
   -1.2759   -0.5008    0.2604 H   0  0  0  0  0  0  0  0  0  0  0  0
   -1.6504    1.1979   -0.1137 H   0  0  0  0  0  0  0  0  0  0  0  0
   -0.5901    0.9230   -2.3704 H   0  0  0  0  0  0  0  0  0  0  0  0
   -0.2060   -0.7507   -1.9942 H   0  0  0  0  0  0  0  0  0  0  0  0
    2.0239    4.5615   -0.6179 H   0  0  0  0  0  0  0  0  0  0  0  0
    4.1607    5.3158    0.3741 H   0  0  0  0  0  0  0  0  0  0  0  0
    5.7348    3.6452    1.3158 H   0  0  0  0  0  0  0  0  0  0  0  0
    5.2075    1.2814    1.2752 H   0  0  0  0  0  0  0  0  0  0  0  0
    3.1361   -1.6615    1.2910 H   0  0  0  0  0  0  0  0  0  0  0  0
    4.4311   -0.5577    1.5570 H   0  0  0  0  0  0  0  0  0  0  0  0
    5.9989   -0.0281   -0.6038 H   0  0  0  0  0  0  0  0  0  0  0  0
    7.2659   -1.1859   -2.3607 H   0  0  0  0  0  0  0  0  0  0  0  0
    6.6067   -3.4450   -3.1076 H   0  0  0  0  0  0  0  0  0  0  0  0
    3.3162   -3.3955   -0.2942 H   0  0  0  0  0  0  0  0  0  0  0  0
   -5.6989    0.3732   -1.2674 H   0  0  0  0  0  0  0  0  0  0  0  0
   -5.0687   -1.1010   -2.0051 H   0  0  0  0  0  0  0  0  0  0  0  0
   -7.0815   -1.5582   -0.6137 H   0  0  0  0  0  0  0  0  0  0  0  0
   -5.6558   -2.4494   -0.0458 H   0  0  0  0  0  0  0  0  0  0  0  0
   -8.1054   -1.8338    1.6585 H   0  0  0  0  0  0  0  0  0  0  0  0
   -8.3040   -0.8837    3.9290 H   0  0  0  0  0  0  0  0  0  0  0  0
   -6.5438    0.6255    4.8067 H   0  0  0  0  0  0  0  0  0  0  0  0
   -4.5788    1.1798    3.4207 H   0  0  0  0  0  0  0  0  0  0  0  0
   -3.9867    1.4290    0.7346 H   0  0  0  0  0  0  0  0  0  0  0  0
   -3.1028    0.0738    1.4715 H   0  0  0  0  0  0  0  0  0  0  0  0
  1  2  2  0
  2  3  1  0
  3  4  1  0
  4  5  1  0
  5  6  1  0
  6  7  2  0
  6  8  1  0
  8  9  2  0
  9 10  1  0
 10 11  2  0
 11 12  1  0
 12 13  2  0
 13 14  1  0
 14 15  1  0
 15 16  1  0
 16 17  2  0
 17 18  1  0
 18 19  2  0
 19 20  1  0
 20 21  1  0
 21 22  2  0
 21 23  1  0
 20 24  2  0
 14 25  1  0
 25 26  2  0
  2 27  1  0
 27 28  1  0
 28 29  1  0
 29 30  1  0
 30 31  2  0
 31 32  1  0
 32 33  2  0
 33 34  1  0
 34 35  2  0
 35 36  1  0
 25  5  1  0
 36 27  1  0
 13  8  1  0
 24 16  1  0
 35 30  1  0
  3 37  1  0
  3 38  1  0
  4 39  1  0
  4 40  1  0
  9 41  1  0
 10 42  1  0
 11 43  1  0
 12 44  1  0
 15 45  1  0
 15 46  1  0
 17 47  1  0
 18 48  1  0
 19 49  1  0
 24 50  1  0
 28 51  1  0
 28 52  1  0
 29 53  1  0
 29 54  1  0
 31 55  1  0
 32 56  1  0
 33 57  1  0
 34 58  1  0
 36 59  1  0
 36 60  1  0
M  CHG  2  21   1  23  -1
M  END
$$$$
