
     RDKit          3D

 39 41  0  0  0  0  0  0  0  0999 V2000
    3.0732    1.9696   -0.3613 O   0  0  0  0  0  0  0  0  0  0  0  0
    2.2133    1.1501   -0.0539 C   0  0  0  0  0  0  0  0  0  0  0  0
    2.4169   -0.2023    0.1016 N   0  0  0  0  0  0  0  0  0  0  0  0
    3.5931   -0.9510   -0.1404 C   0  0  0  0  0  0  0  0  0  0  0  0
    3.6156   -2.2553    0.3781 C   0  0  0  0  0  0  0  0  0  0  0  0
    2.5528   -2.7131    1.0590 F   0  0  0  0  0  0  0  0  0  0  0  0
    4.7127   -3.0964    0.2238 C   0  0  0  0  0  0  0  0  0  0  0  0
    5.8142   -2.6326   -0.4762 C   0  0  0  0  0  0  0  0  0  0  0  0
    6.8776   -3.4296   -0.6371 F   0  0  0  0  0  0  0  0  0  0  0  0
    5.8235   -1.3588   -1.0259 C   0  0  0  0  0  0  0  0  0  0  0  0
    4.7140   -0.5276   -0.8630 C   0  0  0  0  0  0  0  0  0  0  0  0
    4.7553    0.6532   -1.4904 F   0  0  0  0  0  0  0  0  0  0  0  0
    0.8136    1.6121    0.2358 C   0  0  0  0  0  0  0  0  0  0  0  0
    0.5252    2.9090    0.0178 C   0  0  0  0  0  0  0  0  0  0  0  0
   -0.7909    3.4412    0.2563 C   0  0  0  0  0  0  0  0  0  0  0  0
   -1.7610    2.6430    0.7111 C   0  0  0  0  0  0  0  0  0  0  0  0
   -1.5237    1.3033    0.9658 N   0  0  0  0  0  0  0  0  0  0  0  0
   -2.6243    0.4640    1.4425 C   0  0  0  0  0  0  0  0  0  0  0  0
   -3.5365    0.0153    0.3231 C   0  0  0  0  0  0  0  0  0  0  0  0
   -3.1453   -1.0200   -0.5388 C   0  0  0  0  0  0  0  0  0  0  0  0
   -3.9787   -1.4283   -1.5810 C   0  0  0  0  0  0  0  0  0  0  0  0
   -5.2103   -0.8060   -1.7742 C   0  0  0  0  0  0  0  0  0  0  0  0
   -5.6097    0.2253   -0.9262 C   0  0  0  0  0  0  0  0  0  0  0  0
   -4.7774    0.6356    0.1169 C   0  0  0  0  0  0  0  0  0  0  0  0
   -0.2745    0.7169    0.7488 C   0  0  0  0  0  0  0  0  0  0  0  0
   -0.0368   -0.4729    0.9636 O   0  0  0  0  0  0  0  0  0  0  0  0
    1.6502   -0.7341    0.5252 H   0  0  0  0  0  0  0  0  0  0  0  0
    4.7045   -4.0954    0.6437 H   0  0  0  0  0  0  0  0  0  0  0  0
    6.6806   -1.0124   -1.5934 H   0  0  0  0  0  0  0  0  0  0  0  0
    1.2763    3.6016   -0.3551 H   0  0  0  0  0  0  0  0  0  0  0  0
   -0.9727    4.4916    0.0519 H   0  0  0  0  0  0  0  0  0  0  0  0
   -2.7639    3.0191    0.8909 H   0  0  0  0  0  0  0  0  0  0  0  0
   -3.1888    1.0239    2.1996 H   0  0  0  0  0  0  0  0  0  0  0  0
   -2.2323   -0.4206    1.9592 H   0  0  0  0  0  0  0  0  0  0  0  0
   -2.1857   -1.5153   -0.4008 H   0  0  0  0  0  0  0  0  0  0  0  0
   -3.6654   -2.2320   -2.2424 H   0  0  0  0  0  0  0  0  0  0  0  0
   -5.8583   -1.1246   -2.5864 H   0  0  0  0  0  0  0  0  0  0  0  0
   -6.5703    0.7104   -1.0785 H   0  0  0  0  0  0  0  0  0  0  0  0
   -5.1061    1.4428    0.7673 H   0  0  0  0  0  0  0  0  0  0  0  0
  1  2  2  0
  2  3  1  0
  3  4  1  0
  4  5  2  0
  5  6  1  0
  5  7  1  0
  7  8  2  0
  8  9  1  0
  8 10  1  0
 10 11  2  0
 11 12  1  0
  2 13  1  0
 13 14  2  0
 14 15  1  0
 15 16  2  0
 16 17  1  0
 17 18  1  0
 18 19  1  0
 19 20  2  0
 20 21  1  0
 21 22  2  0
 22 23  1  0
 23 24  2  0
 17 25  1  0
 25 26  2  0
 11  4  1  0
 25 13  1  0
 24 19  1  0
  3 27  1  0
  7 28  1  0
 10 29  1  0
 14 30  1  0
 15 31  1  0
 16 32  1  0
 18 33  1  0
 18 34  1  0
 20 35  1  0
 21 36  1  0
 22 37  1  0
 23 38  1  0
 24 39  1  0
M  END
$$$$
