
     RDKit          3D

 44 46  0  0  0  0  0  0  0  0999 V2000
    2.8160    3.9340   -3.4424 C   0  0  0  0  0  0  0  0  0  0  0  0
    3.1141    3.0888   -2.2896 N   0  0  0  0  0  0  0  0  0  0  0  0
    3.0918    1.6615   -2.6729 C   0  0  0  0  0  0  0  0  0  0  0  0
    2.8037    0.7024   -1.4965 C   0  0  0  0  0  0  0  0  0  0  0  0
    1.4642    0.9543   -0.9117 N   0  0  0  0  0  0  0  0  0  0  0  0
    0.7054   -0.0450   -0.2755 C   0  0  0  0  0  0  0  0  0  0  0  0
   -0.6040    0.0910    0.0298 C   0  0  0  0  0  0  0  0  0  0  0  0
   -1.3828   -0.9355    0.7034 C   0  0  0  0  0  0  0  0  0  0  0  0
   -2.5108   -0.6306    1.3691 C   0  0  0  0  0  0  0  0  0  0  0  0
   -3.2177   -1.5987    2.2096 C   0  0  0  0  0  0  0  0  0  0  0  0
   -4.5027   -1.4370    2.6115 C   0  0  0  0  0  0  0  0  0  0  0  0
   -5.1426   -2.3849    3.4625 C   0  0  0  0  0  0  0  0  0  0  0  0
   -5.6523   -3.1634    4.1561 N   0  0  0  0  0  0  0  0  0  0  0  0
   -5.2879   -0.3183    2.2029 C   0  0  0  0  0  0  0  0  0  0  0  0
   -5.9153    0.5993    1.8687 N   0  0  0  0  0  0  0  0  0  0  0  0
   -2.3375   -2.7689    2.6291 C   0  0  0  0  0  0  0  0  0  0  0  0
   -1.6143   -3.3715    1.4284 C   0  0  0  0  0  0  0  0  0  0  0  0
   -0.8043   -2.3327    0.6386 C   0  0  0  0  0  0  0  0  0  0  0  0
    0.6588   -2.2510    1.0747 C   0  0  0  0  0  0  0  0  0  0  0  0
    1.4329   -1.3336    0.1150 C   0  0  0  0  0  0  0  0  0  0  0  0
    1.0103    2.3618   -1.0295 C   0  0  0  0  0  0  0  0  0  0  0  0
    2.1937    3.3474   -1.1639 C   0  0  0  0  0  0  0  0  0  0  0  0
    3.5199    3.7344   -4.2581 H   0  0  0  0  0  0  0  0  0  0  0  0
    1.7979    3.7801   -3.8177 H   0  0  0  0  0  0  0  0  0  0  0  0
    2.9305    4.9920   -3.1817 H   0  0  0  0  0  0  0  0  0  0  0  0
    2.3272    1.4820   -3.4416 H   0  0  0  0  0  0  0  0  0  0  0  0
    4.0610    1.4047   -3.1160 H   0  0  0  0  0  0  0  0  0  0  0  0
    2.8661   -0.3195   -1.8861 H   0  0  0  0  0  0  0  0  0  0  0  0
    3.5676    0.8119   -0.7173 H   0  0  0  0  0  0  0  0  0  0  0  0
   -1.1264    1.0132   -0.2048 H   0  0  0  0  0  0  0  0  0  0  0  0
   -2.8852    0.3920    1.3359 H   0  0  0  0  0  0  0  0  0  0  0  0
   -1.6031   -2.4162    3.3653 H   0  0  0  0  0  0  0  0  0  0  0  0
   -2.9072   -3.5657    3.1179 H   0  0  0  0  0  0  0  0  0  0  0  0
   -2.3664   -3.8111    0.7583 H   0  0  0  0  0  0  0  0  0  0  0  0
   -0.9745   -4.2008    1.7522 H   0  0  0  0  0  0  0  0  0  0  0  0
   -0.8193   -2.6642   -0.4106 H   0  0  0  0  0  0  0  0  0  0  0  0
    0.7350   -1.8654    2.1001 H   0  0  0  0  0  0  0  0  0  0  0  0
    1.1229   -3.2444    1.0725 H   0  0  0  0  0  0  0  0  0  0  0  0
    1.6464   -1.8988   -0.8012 H   0  0  0  0  0  0  0  0  0  0  0  0
    2.3949   -1.0928    0.5833 H   0  0  0  0  0  0  0  0  0  0  0  0
    0.4456    2.6524   -0.1358 H   0  0  0  0  0  0  0  0  0  0  0  0
    0.3439    2.4528   -1.8955 H   0  0  0  0  0  0  0  0  0  0  0  0
    1.8133    4.3762   -1.1915 H   0  0  0  0  0  0  0  0  0  0  0  0
    2.7912    3.2823   -0.2448 H   0  0  0  0  0  0  0  0  0  0  0  0
  1  2  1  0
  2  3  1  0
  3  4  1  0
  4  5  1  0
  5  6  1  0
  6  7  2  0
  7  8  1  0
  8  9  2  0
  9 10  1  0
 10 11  2  3
 11 12  1  0
 12 13  3  0
 11 14  1  0
 14 15  3  0
 10 16  1  0
 16 17  1  0
 17 18  1  0
 18 19  1  0
 19 20  1  0
  5 21  1  0
 21 22  1  0
 22  2  1  0
 20  6  1  0
 18  8  1  0
  1 23  1  0
  1 24  1  0
  1 25  1  0
  3 26  1  0
  3 27  1  0
  4 28  1  0
  4 29  1  0
  7 30  1  0
  9 31  1  0
 16 32  1  0
 16 33  1  0
 17 34  1  0
 17 35  1  0
 18 36  1  0
 19 37  1  0
 19 38  1  0
 20 39  1  0
 20 40  1  0
 21 41  1  0
 21 42  1  0
 22 43  1  0
 22 44  1  0
M  END
$$$$
