
     RDKit          3D

 50 53  0  0  0  0  0  0  0  0999 V2000
  -10.1448    1.0425   -0.9447 C   0  0  0  0  0  0  0  0  0  0  0  0
   -8.7311    0.5362   -0.9062 C   0  0  0  0  0  0  0  0  0  0  0  0
   -8.4036   -0.6896   -1.4911 C   0  0  0  0  0  0  0  0  0  0  0  0
   -7.0944   -1.1824   -1.4392 C   0  0  0  0  0  0  0  0  0  0  0  0
   -6.0921   -0.4433   -0.7814 C   0  0  0  0  0  0  0  0  0  0  0  0
   -4.7631   -0.8083   -0.6575 N   0  0  0  0  0  0  0  0  0  0  0  0
   -4.0932    0.0973    0.0289 C   0  0  0  0  0  0  0  0  0  0  0  0
   -2.6474    0.0017    0.3152 C   0  0  0  0  0  0  0  0  0  0  0  0
   -1.8636   -0.8862   -0.4377 C   0  0  0  0  0  0  0  0  0  0  0  0
   -0.4859   -1.0205   -0.2145 C   0  0  0  0  0  0  0  0  0  0  0  0
    0.1444   -0.2719    0.7759 C   0  0  0  0  0  0  0  0  0  0  0  0
    1.5227   -0.3416    1.0663 N   0  0  0  0  0  0  0  0  0  0  0  0
    2.4742   -1.1357    0.4489 C   0  0  0  0  0  0  0  0  0  0  0  0
    2.2897   -1.9208   -0.4732 O   0  0  0  0  0  0  0  0  0  0  0  0
    3.8534   -0.9112    1.0332 C   0  0  0  0  0  0  0  0  0  0  0  0
    4.8561   -1.9030    0.4671 C   0  0  0  0  0  0  0  0  0  0  0  0
    6.4987   -1.6303    1.0856 S   0  0  0  0  0  6  0  0  0  0  0  0
    6.4083   -1.4318    2.5209 O   0  0  0  0  0  0  0  0  0  0  0  0
    7.3687   -2.6513    0.5346 O   0  0  0  0  0  0  0  0  0  0  0  0
    6.9921   -0.0870    0.3543 C   0  0  0  0  0  0  0  0  0  0  0  0
    7.2908   -0.0466   -1.0108 C   0  0  0  0  0  0  0  0  0  0  0  0
    7.6727    1.1621   -1.5920 C   0  0  0  0  0  0  0  0  0  0  0  0
    7.7640    2.3153   -0.8105 C   0  0  0  0  0  0  0  0  0  0  0  0
    7.4820    2.2640    0.5560 C   0  0  0  0  0  0  0  0  0  0  0  0
    7.0987    1.0596    1.1458 C   0  0  0  0  0  0  0  0  0  0  0  0
   -0.6271    0.6097    1.5406 C   0  0  0  0  0  0  0  0  0  0  0  0
   -2.0046    0.7445    1.3149 C   0  0  0  0  0  0  0  0  0  0  0  0
   -5.0340    1.4466    0.5423 S   0  0  0  0  0  0  0  0  0  0  0  0
   -6.4346    0.7701   -0.1888 C   0  0  0  0  0  0  0  0  0  0  0  0
   -7.7452    1.2767   -0.2345 C   0  0  0  0  0  0  0  0  0  0  0  0
  -10.6550    0.7989   -0.0073 H   0  0  0  0  0  0  0  0  0  0  0  0
  -10.7025    0.5950   -1.7744 H   0  0  0  0  0  0  0  0  0  0  0  0
  -10.1615    2.1278   -1.0898 H   0  0  0  0  0  0  0  0  0  0  0  0
   -9.1652   -1.2784   -1.9991 H   0  0  0  0  0  0  0  0  0  0  0  0
   -6.8423   -2.1327   -1.8999 H   0  0  0  0  0  0  0  0  0  0  0  0
   -2.3250   -1.4888   -1.2203 H   0  0  0  0  0  0  0  0  0  0  0  0
    0.0575   -1.7228   -0.8385 H   0  0  0  0  0  0  0  0  0  0  0  0
    1.8432    0.2547    1.8199 H   0  0  0  0  0  0  0  0  0  0  0  0
    4.1514    0.1177    0.8042 H   0  0  0  0  0  0  0  0  0  0  0  0
    3.7946   -1.0125    2.1229 H   0  0  0  0  0  0  0  0  0  0  0  0
    4.9009   -1.8676   -0.6264 H   0  0  0  0  0  0  0  0  0  0  0  0
    4.5826   -2.9255    0.7523 H   0  0  0  0  0  0  0  0  0  0  0  0
    7.2411   -0.9459   -1.6216 H   0  0  0  0  0  0  0  0  0  0  0  0
    7.9098    1.2056   -2.6526 H   0  0  0  0  0  0  0  0  0  0  0  0
    8.0688    3.2550   -1.2657 H   0  0  0  0  0  0  0  0  0  0  0  0
    7.5712    3.1627    1.1622 H   0  0  0  0  0  0  0  0  0  0  0  0
    6.8956    1.0256    2.2138 H   0  0  0  0  0  0  0  0  0  0  0  0
   -0.1737    1.2081    2.3273 H   0  0  0  0  0  0  0  0  0  0  0  0
   -2.5581    1.4353    1.9463 H   0  0  0  0  0  0  0  0  0  0  0  0
   -7.9851    2.2233    0.2415 H   0  0  0  0  0  0  0  0  0  0  0  0
  1  2  1  0
  2  3  2  0
  3  4  1  0
  4  5  2  0
  5  6  1  0
  6  7  2  0
  7  8  1  0
  8  9  2  0
  9 10  1  0
 10 11  2  0
 11 12  1  0
 12 13  1  0
 13 14  2  0
 13 15  1  0
 15 16  1  0
 16 17  1  0
 17 18  2  0
 17 19  2  0
 17 20  1  0
 20 21  2  0
 21 22  1  0
 22 23  2  0
 23 24  1  0
 24 25  2  0
 11 26  1  0
 26 27  2  0
  7 28  1  0
 28 29  1  0
 29 30  2  0
 30  2  1  0
 29  5  1  0
 27  8  1  0
 25 20  1  0
  1 31  1  0
  1 32  1  0
  1 33  1  0
  3 34  1  0
  4 35  1  0
  9 36  1  0
 10 37  1  0
 12 38  1  0
 15 39  1  0
 15 40  1  0
 16 41  1  0
 16 42  1  0
 21 43  1  0
 22 44  1  0
 23 45  1  0
 24 46  1  0
 25 47  1  0
 26 48  1  0
 27 49  1  0
 30 50  1  0
M  END
$$$$
