
     RDKit          3D

 66 70  0  0  0  0  0  0  0  0999 V2000
    4.0788   -2.4498    0.9350 C   0  0  0  0  0  0  0  0  0  0  0  0
    3.8384   -1.3253   -0.0061 C   0  0  0  0  0  0  0  0  0  0  0  0
    2.6218   -0.7850   -0.3974 C   0  0  0  0  0  0  0  0  0  0  0  0
    1.2357   -1.2073    0.0240 C   0  0  0  0  0  0  0  0  0  0  0  0
    0.1347   -0.1523   -0.1145 C   0  0  0  0  0  0  0  0  0  0  0  0
   -1.0948   -0.6168    0.4688 O   0  0  0  0  0  0  0  0  0  0  0  0
   -1.8132   -1.4841   -0.3006 C   0  0  0  0  0  0  0  0  0  0  0  0
   -1.4360   -1.9328   -1.3746 O   0  0  0  0  0  0  0  0  0  0  0  0
   -3.1328   -1.8142    0.3550 C   0  0  0  0  0  0  0  0  0  0  0  0
   -4.3203   -0.9647   -0.1383 C   0  0  0  0  0  0  0  0  0  0  0  0
   -5.5873   -1.3839    0.6545 C   0  0  0  0  0  0  0  0  0  0  0  0
   -6.8115   -0.5730    0.2036 C   0  0  0  0  0  0  0  0  0  0  0  0
   -7.0545   -0.8142   -1.2932 C   0  0  0  0  0  0  0  0  0  0  0  0
   -5.8230   -0.3784   -2.1002 C   0  0  0  0  0  0  0  0  0  0  0  0
   -5.5583    1.1165   -1.8569 C   0  0  0  0  0  0  0  0  0  0  0  0
   -5.3065    1.3821   -0.3548 C   0  0  0  0  0  0  0  0  0  0  0  0
   -5.0476    2.8729   -0.1173 C   0  0  0  0  0  0  0  0  0  0  0  0
   -6.5454    0.9209    0.4447 C   0  0  0  0  0  0  0  0  0  0  0  0
   -4.0828    0.5489    0.0970 C   0  0  0  0  0  0  0  0  0  0  0  0
   -4.5986   -1.1913   -1.6453 C   0  0  0  0  0  0  0  0  0  0  0  0
    2.8903    0.4536   -1.5586 S   0  0  0  0  0  0  0  0  0  0  0  0
    4.5809    0.2534   -1.4841 C   0  0  0  0  0  0  0  0  0  0  0  0
    4.9167   -0.6964   -0.6265 N   0  0  0  0  0  4  0  0  0  0  0  0
    6.3312   -1.0494   -0.4288 C   0  0  0  0  0  0  0  0  0  0  0  0
    7.0733    0.0995    0.2229 C   0  0  0  0  0  0  0  0  0  0  0  0
    8.1148    0.7494   -0.4630 C   0  0  0  0  0  0  0  0  0  0  0  0
    8.8092    1.8084    0.1313 C   0  0  0  0  0  0  0  0  0  0  0  0
    8.4684    2.2227    1.4244 C   0  0  0  0  0  0  0  0  0  0  0  0
    9.1981    3.3322    2.0535 N   0  0  0  0  0  4  0  0  0  0  0  0
   10.0700    3.8965    1.3804 O   0  0  0  0  0  0  0  0  0  0  0  0
    8.8899    3.6326    3.2148 O   0  0  0  0  0  1  0  0  0  0  0  0
    7.4382    1.5816    2.1228 C   0  0  0  0  0  0  0  0  0  0  0  0
    6.7462    0.5243    1.5226 C   0  0  0  0  0  0  0  0  0  0  0  0
    3.1429   -2.8614    1.3228 H   0  0  0  0  0  0  0  0  0  0  0  0
    4.6705   -2.1183    1.7931 H   0  0  0  0  0  0  0  0  0  0  0  0
    4.6049   -3.2683    0.4331 H   0  0  0  0  0  0  0  0  0  0  0  0
    0.9686   -2.1085   -0.5412 H   0  0  0  0  0  0  0  0  0  0  0  0
    1.2634   -1.5218    1.0756 H   0  0  0  0  0  0  0  0  0  0  0  0
    0.4119    0.7565    0.4314 H   0  0  0  0  0  0  0  0  0  0  0  0
   -0.0366    0.1413   -1.1572 H   0  0  0  0  0  0  0  0  0  0  0  0
   -3.0120   -1.7134    1.4417 H   0  0  0  0  0  0  0  0  0  0  0  0
   -3.3202   -2.8816    0.1811 H   0  0  0  0  0  0  0  0  0  0  0  0
   -5.4264   -1.2352    1.7303 H   0  0  0  0  0  0  0  0  0  0  0  0
   -5.7845   -2.4546    0.5125 H   0  0  0  0  0  0  0  0  0  0  0  0
   -7.6925   -0.8864    0.7751 H   0  0  0  0  0  0  0  0  0  0  0  0
   -7.9379   -0.2546   -1.6243 H   0  0  0  0  0  0  0  0  0  0  0  0
   -7.2644   -1.8756   -1.4735 H   0  0  0  0  0  0  0  0  0  0  0  0
   -6.0026   -0.5514   -3.1673 H   0  0  0  0  0  0  0  0  0  0  0  0
   -6.4164    1.7043   -2.2075 H   0  0  0  0  0  0  0  0  0  0  0  0
   -4.6931    1.4392   -2.4502 H   0  0  0  0  0  0  0  0  0  0  0  0
   -4.1755    3.2176   -0.6838 H   0  0  0  0  0  0  0  0  0  0  0  0
   -4.8598    3.0780    0.9426 H   0  0  0  0  0  0  0  0  0  0  0  0
   -5.9072    3.4772   -0.4274 H   0  0  0  0  0  0  0  0  0  0  0  0
   -7.4271    1.5043    0.1495 H   0  0  0  0  0  0  0  0  0  0  0  0
   -6.3941    1.1002    1.5169 H   0  0  0  0  0  0  0  0  0  0  0  0
   -3.8771    0.7322    1.1600 H   0  0  0  0  0  0  0  0  0  0  0  0
   -3.1964    0.8844   -0.4566 H   0  0  0  0  0  0  0  0  0  0  0  0
   -4.7700   -2.2573   -1.8426 H   0  0  0  0  0  0  0  0  0  0  0  0
   -3.7318   -0.8939   -2.2476 H   0  0  0  0  0  0  0  0  0  0  0  0
    5.2773    0.8398   -2.0721 H   0  0  0  0  0  0  0  0  0  0  0  0
    6.4487   -1.9445    0.1875 H   0  0  0  0  0  0  0  0  0  0  0  0
    6.7591   -1.2888   -1.4106 H   0  0  0  0  0  0  0  0  0  0  0  0
    8.4121    0.4400   -1.4652 H   0  0  0  0  0  0  0  0  0  0  0  0
    9.6153    2.2941   -0.4191 H   0  0  0  0  0  0  0  0  0  0  0  0
    7.1695    1.8906    3.1331 H   0  0  0  0  0  0  0  0  0  0  0  0
    5.9573    0.0394    2.0956 H   0  0  0  0  0  0  0  0  0  0  0  0
  1  2  1  0
  2  3  2  0
  3  4  1  0
  4  5  1  0
  5  6  1  0
  6  7  1  0
  7  8  2  0
  7  9  1  0
  9 10  1  0
 10 11  1  0
 11 12  1  0
 12 13  1  0
 13 14  1  0
 14 15  1  0
 15 16  1  0
 16 17  1  0
 16 18  1  0
 16 19  1  0
 14 20  1  0
  3 21  1  0
 21 22  1  0
 22 23  2  0
 23 24  1  0
 24 25  1  0
 25 26  2  0
 26 27  1  0
 27 28  2  0
 28 29  1  0
 29 30  2  0
 29 31  1  0
 28 32  1  0
 32 33  2  0
 23  2  1  0
 33 25  1  0
 19 10  1  0
 20 10  1  0
 18 12  1  0
  1 34  1  0
  1 35  1  0
  1 36  1  0
  4 37  1  0
  4 38  1  0
  5 39  1  0
  5 40  1  0
  9 41  1  0
  9 42  1  0
 11 43  1  0
 11 44  1  0
 12 45  1  0
 13 46  1  0
 13 47  1  0
 14 48  1  0
 15 49  1  0
 15 50  1  0
 17 51  1  0
 17 52  1  0
 17 53  1  0
 18 54  1  0
 18 55  1  0
 19 56  1  0
 19 57  1  0
 20 58  1  0
 20 59  1  0
 22 60  1  0
 24 61  1  0
 24 62  1  0
 26 63  1  0
 27 64  1  0
 32 65  1  0
 33 66  1  0
M  CHG  3  23   1  29   1  31  -1
M  END
$$$$
