
     RDKit          3D

 61 64  0  0  0  0  0  0  0  0999 V2000
    7.4855   -0.6089    2.4688 C   0  0  0  0  0  0  0  0  0  0  0  0
    6.5353   -1.0557    1.3894 C   0  0  0  0  0  0  0  0  0  0  0  0
    6.6038   -2.3812    0.9454 C   0  0  0  0  0  0  0  0  0  0  0  0
    5.7608   -2.8276   -0.0628 C   0  0  0  0  0  0  0  0  0  0  0  0
    4.8249   -1.9599   -0.6259 C   0  0  0  0  0  0  0  0  0  0  0  0
    4.7041   -0.6269   -0.2040 C   0  0  0  0  0  0  0  0  0  0  0  0
    3.7275    0.2274   -0.7291 N   0  0  0  0  0  0  0  0  0  0  0  0
    2.6352    0.5779    0.2030 C   0  0  0  0  0  0  0  0  0  0  0  0
    1.4336   -0.3675    0.0519 C   0  0  0  0  0  0  0  0  0  0  0  0
    0.9655   -0.4541   -1.3408 N   0  0  0  0  0  0  0  0  0  0  0  0
   -0.3199   -0.8904   -1.6650 C   0  0  0  0  0  0  0  0  0  0  0  0
   -0.6009   -1.4767   -2.7066 O   0  0  0  0  0  0  0  0  0  0  0  0
   -1.4206   -0.6061   -0.7200 C   0  0  0  0  0  0  0  0  0  0  0  0
   -2.2121   -1.6611   -0.2597 C   0  0  0  0  0  0  0  0  0  0  0  0
   -3.2705   -1.4002    0.6124 C   0  0  0  0  0  0  0  0  0  0  0  0
   -3.5421   -0.0892    1.0079 C   0  0  0  0  0  0  0  0  0  0  0  0
   -4.6518    0.1882    1.8561 N   0  0  0  0  0  0  0  0  0  0  0  0
   -6.2010    0.0499    1.1834 S   0  0  0  0  0  6  0  0  0  0  0  0
   -6.3914   -1.2769    0.6451 O   0  0  0  0  0  0  0  0  0  0  0  0
   -7.1120    0.6161    2.1547 O   0  0  0  0  0  0  0  0  0  0  0  0
   -6.3049    1.1118   -0.1497 C   0  0  0  0  0  0  0  0  0  0  0  0
   -6.1811    0.8071   -1.5233 C   0  0  0  0  0  0  0  0  0  0  0  0
   -5.9680   -0.4974   -2.1943 C   0  0  0  0  0  0  0  0  0  0  0  0
   -6.2847    1.9207   -2.2640 N   0  0  0  0  0  0  0  0  0  0  0  0
   -6.4897    2.9568   -1.3743 O   0  0  0  0  0  0  0  0  0  0  0  0
   -6.4987    2.4717   -0.1043 C   0  0  0  0  0  0  0  0  0  0  0  0
   -6.7124    3.4591    0.9695 C   0  0  0  0  0  0  0  0  0  0  0  0
   -2.7668    0.9687    0.5265 C   0  0  0  0  0  0  0  0  0  0  0  0
   -1.7049    0.7116   -0.3431 C   0  0  0  0  0  0  0  0  0  0  0  0
    2.0221   -0.7620   -2.3098 C   0  0  0  0  0  0  0  0  0  0  0  0
    3.2896    0.0962   -2.1345 C   0  0  0  0  0  0  0  0  0  0  0  0
    5.6107   -0.1623    0.7883 C   0  0  0  0  0  0  0  0  0  0  0  0
    5.6139    1.2900    1.2118 C   0  0  0  0  0  0  0  0  0  0  0  0
    6.9530   -0.0518    3.2466 H   0  0  0  0  0  0  0  0  0  0  0  0
    7.9620   -1.4641    2.9604 H   0  0  0  0  0  0  0  0  0  0  0  0
    8.2744    0.0182    2.0419 H   0  0  0  0  0  0  0  0  0  0  0  0
    7.3225   -3.0730    1.3787 H   0  0  0  0  0  0  0  0  0  0  0  0
    5.8227   -3.8560   -0.4084 H   0  0  0  0  0  0  0  0  0  0  0  0
    4.1777   -2.3651   -1.3943 H   0  0  0  0  0  0  0  0  0  0  0  0
    2.9590    0.5798    1.2498 H   0  0  0  0  0  0  0  0  0  0  0  0
    2.3141    1.6013   -0.0277 H   0  0  0  0  0  0  0  0  0  0  0  0
    1.7067   -1.3848    0.3584 H   0  0  0  0  0  0  0  0  0  0  0  0
    0.6340   -0.0408    0.7192 H   0  0  0  0  0  0  0  0  0  0  0  0
   -2.0098   -2.6794   -0.5837 H   0  0  0  0  0  0  0  0  0  0  0  0
   -3.8828   -2.2245    0.9720 H   0  0  0  0  0  0  0  0  0  0  0  0
   -4.5841    1.0317    2.4240 H   0  0  0  0  0  0  0  0  0  0  0  0
   -6.8440   -1.1406   -2.0655 H   0  0  0  0  0  0  0  0  0  0  0  0
   -5.0928   -1.0088   -1.7869 H   0  0  0  0  0  0  0  0  0  0  0  0
   -5.8037   -0.3723   -3.2704 H   0  0  0  0  0  0  0  0  0  0  0  0
   -6.0118    3.2930    1.7946 H   0  0  0  0  0  0  0  0  0  0  0  0
   -6.5609    4.4806    0.6049 H   0  0  0  0  0  0  0  0  0  0  0  0
   -7.7319    3.3843    1.3588 H   0  0  0  0  0  0  0  0  0  0  0  0
   -2.9848    1.9959    0.8050 H   0  0  0  0  0  0  0  0  0  0  0  0
   -1.1120    1.5332   -0.7381 H   0  0  0  0  0  0  0  0  0  0  0  0
    1.6360   -0.6229   -3.3266 H   0  0  0  0  0  0  0  0  0  0  0  0
    2.2487   -1.8279   -2.2025 H   0  0  0  0  0  0  0  0  0  0  0  0
    4.0979   -0.2727   -2.7771 H   0  0  0  0  0  0  0  0  0  0  0  0
    3.0623    1.1097   -2.4901 H   0  0  0  0  0  0  0  0  0  0  0  0
    5.0834    1.4047    2.1621 H   0  0  0  0  0  0  0  0  0  0  0  0
    6.6377    1.6607    1.3267 H   0  0  0  0  0  0  0  0  0  0  0  0
    5.1480    1.9426    0.4674 H   0  0  0  0  0  0  0  0  0  0  0  0
  1  2  1  0
  2  3  2  0
  3  4  1  0
  4  5  2  0
  5  6  1  0
  6  7  1  0
  7  8  1  0
  8  9  1  0
  9 10  1  0
 10 11  1  0
 11 12  2  0
 11 13  1  0
 13 14  2  0
 14 15  1  0
 15 16  2  0
 16 17  1  0
 17 18  1  0
 18 19  2  0
 18 20  2  0
 18 21  1  0
 21 22  1  0
 22 23  1  0
 22 24  2  0
 24 25  1  0
 25 26  1  0
 26 27  1  0
 16 28  1  0
 28 29  2  0
 10 30  1  0
 30 31  1  0
  6 32  2  0
 32 33  1  0
 32  2  1  0
 31  7  1  0
 29 13  1  0
 26 21  2  0
  1 34  1  0
  1 35  1  0
  1 36  1  0
  3 37  1  0
  4 38  1  0
  5 39  1  0
  8 40  1  0
  8 41  1  0
  9 42  1  0
  9 43  1  0
 14 44  1  0
 15 45  1  0
 17 46  1  0
 23 47  1  0
 23 48  1  0
 23 49  1  0
 27 50  1  0
 27 51  1  0
 27 52  1  0
 28 53  1  0
 29 54  1  0
 30 55  1  0
 30 56  1  0
 31 57  1  0
 31 58  1  0
 33 59  1  0
 33 60  1  0
 33 61  1  0
M  END
$$$$
