
     RDKit          3D

 52 55  0  0  0  0  0  0  0  0999 V2000
   -5.1423   -0.0534    2.1216 C   0  0  0  0  0  0  0  0  0  0  0  0
   -4.4013    1.0227    1.3876 C   0  0  0  0  0  0  0  0  0  0  0  0
   -3.7381    0.7479    0.1845 C   0  0  0  0  0  0  0  0  0  0  0  0
   -3.0715    1.7767   -0.4941 C   0  0  0  0  0  0  0  0  0  0  0  0
   -2.2315    1.4283   -2.0211 S   0  0  0  0  0  6  0  0  0  0  0  0
   -2.6800    0.1425   -2.5050 O   0  0  0  0  0  0  0  0  0  0  0  0
   -2.2918    2.6170   -2.8415 O   0  0  0  0  0  0  0  0  0  0  0  0
   -0.6365    1.2762   -1.5351 N   0  0  0  0  0  0  0  0  0  0  0  0
   -0.2706    0.2596   -0.5314 C   0  0  0  0  0  0  0  0  0  0  0  0
    1.2133   -0.2124   -0.7002 C   0  0  0  0  0  0  0  0  0  0  0  0
    1.6760   -0.6959    0.6797 C   0  0  0  0  0  0  0  0  0  0  0  0
    1.2537   -1.9495    1.1900 C   0  0  0  0  0  0  0  0  0  0  0  0
    1.6534   -2.3864    2.4565 C   0  0  0  0  0  0  0  0  0  0  0  0
    2.4685   -1.5554    3.1921 C   0  0  0  0  0  0  0  0  0  0  0  0
    2.8831   -0.3366    2.7105 C   0  0  0  0  0  0  0  0  0  0  0  0
    2.5067    0.1229    1.4656 C   0  0  0  0  0  0  0  0  0  0  0  0
    3.6788    0.3266    3.5917 O   0  0  0  0  0  0  0  0  0  0  0  0
    3.7240   -0.6197    4.6807 C   0  0  0  0  0  0  0  0  0  0  0  0
    2.9520   -1.8134    4.4363 O   0  0  0  0  0  0  0  0  0  0  0  0
    1.4347   -1.2573   -1.7316 N   0  0  0  0  0  0  0  0  0  0  0  0
    0.7754   -0.9707   -3.0234 C   0  0  0  0  0  0  0  0  0  0  0  0
    1.3575   -1.8232   -4.1619 C   0  0  0  0  0  0  0  0  0  0  0  0
    2.7380   -1.5335   -4.4214 O   0  0  0  0  0  0  0  0  0  0  0  0
    3.4327   -1.0419   -3.2701 C   0  0  0  0  0  0  0  0  0  0  0  0
    2.8666   -1.5787   -1.9457 C   0  0  0  0  0  0  0  0  0  0  0  0
   -3.0890    3.0878   -0.0068 C   0  0  0  0  0  0  0  0  0  0  0  0
   -3.7619    3.3645    1.1824 C   0  0  0  0  0  0  0  0  0  0  0  0
   -4.4100    2.3373    1.8656 C   0  0  0  0  0  0  0  0  0  0  0  0
   -5.0572    2.6283    3.0028 F   0  0  0  0  0  0  0  0  0  0  0  0
   -4.7569   -1.0449    1.8614 H   0  0  0  0  0  0  0  0  0  0  0  0
   -6.2064   -0.0149    1.8693 H   0  0  0  0  0  0  0  0  0  0  0  0
   -5.0266    0.0650    3.2040 H   0  0  0  0  0  0  0  0  0  0  0  0
   -3.7422   -0.2626   -0.2213 H   0  0  0  0  0  0  0  0  0  0  0  0
   -0.1048    2.1438   -1.5736 H   0  0  0  0  0  0  0  0  0  0  0  0
   -0.4065    0.7249    0.4533 H   0  0  0  0  0  0  0  0  0  0  0  0
   -0.9420   -0.6054   -0.5801 H   0  0  0  0  0  0  0  0  0  0  0  0
    1.8138    0.6658   -0.9783 H   0  0  0  0  0  0  0  0  0  0  0  0
    0.6166   -2.5935    0.5845 H   0  0  0  0  0  0  0  0  0  0  0  0
    1.3366   -3.3475    2.8455 H   0  0  0  0  0  0  0  0  0  0  0  0
    2.8530    1.0899    1.1171 H   0  0  0  0  0  0  0  0  0  0  0  0
    4.7680   -0.9060    4.8531 H   0  0  0  0  0  0  0  0  0  0  0  0
    3.3395   -0.1323    5.5841 H   0  0  0  0  0  0  0  0  0  0  0  0
    0.9106    0.0833   -3.2948 H   0  0  0  0  0  0  0  0  0  0  0  0
   -0.2943   -1.1843   -2.9425 H   0  0  0  0  0  0  0  0  0  0  0  0
    1.2680   -2.8922   -3.9353 H   0  0  0  0  0  0  0  0  0  0  0  0
    0.8053   -1.6403   -5.0894 H   0  0  0  0  0  0  0  0  0  0  0  0
    4.4830   -1.3332   -3.3738 H   0  0  0  0  0  0  0  0  0  0  0  0
    3.3974    0.0537   -3.2896 H   0  0  0  0  0  0  0  0  0  0  0  0
    2.9425   -2.6733   -1.9597 H   0  0  0  0  0  0  0  0  0  0  0  0
    3.5040   -1.2377   -1.1231 H   0  0  0  0  0  0  0  0  0  0  0  0
   -2.5955    3.8916   -0.5485 H   0  0  0  0  0  0  0  0  0  0  0  0
   -3.7960    4.3747    1.5796 H   0  0  0  0  0  0  0  0  0  0  0  0
  1  2  1  0
  2  3  2  0
  3  4  1  0
  4  5  1  0
  5  6  2  0
  5  7  2  0
  5  8  1  0
  8  9  1  0
  9 10  1  0
 10 11  1  0
 11 12  2  0
 12 13  1  0
 13 14  2  0
 14 15  1  0
 15 16  2  0
 15 17  1  0
 17 18  1  0
 18 19  1  0
 10 20  1  0
 20 21  1  0
 21 22  1  0
 22 23  1  0
 23 24  1  0
 24 25  1  0
  4 26  2  0
 26 27  1  0
 27 28  2  0
 28 29  1  0
 28  2  1  0
 16 11  1  0
 25 20  1  0
 19 14  1  0
  1 30  1  0
  1 31  1  0
  1 32  1  0
  3 33  1  0
  8 34  1  0
  9 35  1  0
  9 36  1  0
 10 37  1  0
 12 38  1  0
 13 39  1  0
 16 40  1  0
 18 41  1  0
 18 42  1  0
 21 43  1  0
 21 44  1  0
 22 45  1  0
 22 46  1  0
 24 47  1  0
 24 48  1  0
 25 49  1  0
 25 50  1  0
 26 51  1  0
 27 52  1  0
M  END
$$$$
