
     RDKit          3D

 54 57  0  0  0  0  0  0  0  0999 V2000
   -2.2779    5.6716   -2.4252 C   0  0  0  0  0  0  0  0  0  0  0  0
   -2.4760    4.2428   -2.2680 N   0  0  0  0  0  0  0  0  0  0  0  0
   -1.4576    3.5077   -1.6754 C   0  0  0  0  0  0  0  0  0  0  0  0
   -0.4830    4.0274   -1.1442 O   0  0  0  0  0  0  0  0  0  0  0  0
   -1.6432    2.0550   -1.6284 C   0  0  0  0  0  0  0  0  0  0  0  0
   -0.6569    1.1236   -1.3558 C   0  0  0  0  0  0  0  0  0  0  0  0
    1.0856    1.4664   -1.2502 S   0  0  0  0  0  0  0  0  0  0  0  0
    1.2730    1.3250    0.5508 C   0  0  0  0  0  0  0  0  0  0  0  0
    2.7279    1.0520    0.8873 C   0  0  0  0  0  0  0  0  0  0  0  0
    3.5006    1.9328    1.2596 O   0  0  0  0  0  0  0  0  0  0  0  0
    3.1056   -0.2680    0.7494 N   0  0  0  0  0  0  0  0  0  0  0  0
    4.4199   -0.7257    1.1624 C   0  0  0  0  0  0  0  0  0  0  0  0
    4.5021   -0.9310    2.6789 C   0  0  0  0  0  0  0  0  0  0  0  0
    5.8901   -1.3273    3.1505 C   0  0  0  0  0  0  0  0  0  0  0  0
    5.5763   -2.0532    4.4360 C   0  0  0  0  0  0  0  0  0  0  0  0
    4.3088   -2.7968    4.0727 C   0  0  0  0  0  0  0  0  0  0  0  0
    3.6276   -2.0092    3.0860 O   0  0  0  0  0  0  0  0  0  0  0  0
   -0.9237   -0.1972   -1.2342 N   0  0  0  0  0  0  0  0  0  0  0  0
   -2.1916   -0.5921   -1.3842 C   0  0  0  0  0  0  0  0  0  0  0  0
   -2.4980   -2.0210   -1.2545 C   0  0  0  0  0  0  0  0  0  0  0  0
   -3.3296   -2.6385   -2.2168 C   0  0  0  0  0  0  0  0  0  0  0  0
   -3.6420   -3.9991   -2.1537 C   0  0  0  0  0  0  0  0  0  0  0  0
   -3.1339   -4.7786   -1.1199 C   0  0  0  0  0  0  0  0  0  0  0  0
   -2.3190   -4.1960   -0.1501 C   0  0  0  0  0  0  0  0  0  0  0  0
   -2.0063   -2.8302   -0.2122 C   0  0  0  0  0  0  0  0  0  0  0  0
   -1.0432   -2.2062    1.0873 Cl  0  0  0  0  0  0  0  0  0  0  0  0
   -3.1949    0.2354   -1.7136 N   0  0  0  0  0  0  0  0  0  0  0  0
   -2.9064    1.5511   -1.8364 C   0  0  0  0  0  0  0  0  0  0  0  0
   -3.9606    2.4169   -2.2039 N   0  0  0  0  0  0  0  0  0  0  0  0
   -5.2837    1.8327   -2.3786 C   0  0  0  0  0  0  0  0  0  0  0  0
   -3.7668    3.7636   -2.4520 C   0  0  0  0  0  0  0  0  0  0  0  0
   -4.6876    4.5049   -2.7966 O   0  0  0  0  0  0  0  0  0  0  0  0
   -1.2206    5.9361   -2.3982 H   0  0  0  0  0  0  0  0  0  0  0  0
   -2.7989    6.1915   -1.6153 H   0  0  0  0  0  0  0  0  0  0  0  0
   -2.6986    6.0004   -3.3774 H   0  0  0  0  0  0  0  0  0  0  0  0
    0.9586    2.2566    1.0343 H   0  0  0  0  0  0  0  0  0  0  0  0
    0.6595    0.5138    0.9568 H   0  0  0  0  0  0  0  0  0  0  0  0
    2.3829   -0.9713    0.6370 H   0  0  0  0  0  0  0  0  0  0  0  0
    4.5980   -1.6701    0.6350 H   0  0  0  0  0  0  0  0  0  0  0  0
    5.1643    0.0104    0.8359 H   0  0  0  0  0  0  0  0  0  0  0  0
    4.1662   -0.0315    3.2096 H   0  0  0  0  0  0  0  0  0  0  0  0
    6.3635   -2.0206    2.4444 H   0  0  0  0  0  0  0  0  0  0  0  0
    6.5530   -0.4696    3.2844 H   0  0  0  0  0  0  0  0  0  0  0  0
    6.3759   -2.7170    4.7723 H   0  0  0  0  0  0  0  0  0  0  0  0
    5.3714   -1.3297    5.2335 H   0  0  0  0  0  0  0  0  0  0  0  0
    3.6545   -2.9613    4.9349 H   0  0  0  0  0  0  0  0  0  0  0  0
    4.5371   -3.7664    3.6201 H   0  0  0  0  0  0  0  0  0  0  0  0
   -3.7358   -2.0487   -3.0382 H   0  0  0  0  0  0  0  0  0  0  0  0
   -4.2814   -4.4465   -2.9113 H   0  0  0  0  0  0  0  0  0  0  0  0
   -3.3727   -5.8375   -1.0654 H   0  0  0  0  0  0  0  0  0  0  0  0
   -1.9337   -4.8111    0.6608 H   0  0  0  0  0  0  0  0  0  0  0  0
   -5.2509    1.0953   -3.1895 H   0  0  0  0  0  0  0  0  0  0  0  0
   -6.0341    2.5879   -2.6358 H   0  0  0  0  0  0  0  0  0  0  0  0
   -5.5938    1.3504   -1.4469 H   0  0  0  0  0  0  0  0  0  0  0  0
  1  2  1  0
  2  3  1  0
  3  4  2  0
  3  5  1  0
  5  6  2  0
  6  7  1  0
  7  8  1  0
  8  9  1  0
  9 10  2  0
  9 11  1  0
 11 12  1  0
 12 13  1  0
 13 14  1  0
 14 15  1  0
 15 16  1  0
 16 17  1  0
  6 18  1  0
 18 19  2  0
 19 20  1  0
 20 21  2  0
 21 22  1  0
 22 23  2  0
 23 24  1  0
 24 25  2  0
 25 26  1  0
 19 27  1  0
 27 28  2  0
 28 29  1  0
 29 30  1  0
 29 31  1  0
 31 32  2  0
 31  2  1  0
 28  5  1  0
 17 13  1  0
 25 20  1  0
  1 33  1  0
  1 34  1  0
  1 35  1  0
  8 36  1  0
  8 37  1  0
 11 38  1  0
 12 39  1  0
 12 40  1  0
 13 41  1  0
 14 42  1  0
 14 43  1  0
 15 44  1  0
 15 45  1  0
 16 46  1  0
 16 47  1  0
 21 48  1  0
 22 49  1  0
 23 50  1  0
 24 51  1  0
 30 52  1  0
 30 53  1  0
 30 54  1  0
M  END
$$$$
