
     RDKit          3D

 56 59  0  0  0  0  0  0  0  0999 V2000
    5.2572   -4.6071   -0.3176 C   0  0  0  0  0  0  0  0  0  0  0  0
    4.3057   -3.7879   -0.9852 O   0  0  0  0  0  0  0  0  0  0  0  0
    3.9756   -2.6063   -0.3814 C   0  0  0  0  0  0  0  0  0  0  0  0
    4.5217   -2.1084    0.8028 C   0  0  0  0  0  0  0  0  0  0  0  0
    4.0930   -0.8769    1.3109 C   0  0  0  0  0  0  0  0  0  0  0  0
    3.1227   -0.1413    0.6333 C   0  0  0  0  0  0  0  0  0  0  0  0
    2.6712    1.0853    1.1765 N   0  0  0  0  0  0  0  0  0  0  0  0
    1.2526    1.1069    2.0876 S   0  0  0  0  0  6  0  0  0  0  0  0
    1.2401    2.3459    2.8390 O   0  0  0  0  0  0  0  0  0  0  0  0
    1.1536   -0.1566    2.7949 O   0  0  0  0  0  0  0  0  0  0  0  0
   -0.0512    1.1719    0.8811 C   0  0  0  0  0  0  0  0  0  0  0  0
   -1.0077    0.1390    0.9104 C   0  0  0  0  0  0  0  0  0  0  0  0
   -2.0534    0.1040   -0.0141 C   0  0  0  0  0  0  0  0  0  0  0  0
   -2.9634   -0.9698    0.0842 N   0  0  0  0  0  0  0  0  0  0  0  0
   -4.0586   -1.2213   -0.7206 C   0  0  0  0  0  0  0  0  0  0  0  0
   -4.4505   -0.5238   -1.6503 O   0  0  0  0  0  0  0  0  0  0  0  0
   -4.8680   -2.4191   -0.3834 C   0  0  0  0  0  0  0  0  0  0  0  0
   -6.2565   -2.3346   -0.5601 C   0  0  0  0  0  0  0  0  0  0  0  0
   -7.0669   -3.4264   -0.2577 C   0  0  0  0  0  0  0  0  0  0  0  0
   -6.4619   -4.5796    0.2092 C   0  0  0  0  0  0  0  0  0  0  0  0
   -5.1293   -4.7058    0.3801 N   0  0  0  0  0  0  0  0  0  0  0  0
   -4.3625   -3.6303    0.0705 C   0  0  0  0  0  0  0  0  0  0  0  0
   -2.6868   -3.9638    0.2855 Cl  0  0  0  0  0  0  0  0  0  0  0  0
   -2.1336    1.1159   -0.9648 C   0  0  0  0  0  0  0  0  0  0  0  0
   -1.1800    2.1426   -0.9928 C   0  0  0  0  0  0  0  0  0  0  0  0
   -0.1139    2.1940   -0.0785 C   0  0  0  0  0  0  0  0  0  0  0  0
    0.8256    3.2280   -0.1266 N   0  0  0  0  0  0  0  0  0  0  0  0
    1.4758    3.4908   -1.4245 C   0  0  0  0  0  0  0  0  0  0  0  0
    1.2195    4.9677   -1.7079 C   0  0  0  0  0  0  0  0  0  0  0  0
    1.1219    5.5659   -0.3168 C   0  0  0  0  0  0  0  0  0  0  0  0
    0.3337    4.5014    0.4375 C   0  0  0  0  0  0  0  0  0  0  0  0
    2.5661   -0.6356   -0.5427 C   0  0  0  0  0  0  0  0  0  0  0  0
    2.9978   -1.8633   -1.0492 C   0  0  0  0  0  0  0  0  0  0  0  0
    6.2279   -4.1053   -0.2462 H   0  0  0  0  0  0  0  0  0  0  0  0
    4.8941   -4.9103    0.6698 H   0  0  0  0  0  0  0  0  0  0  0  0
    5.3951   -5.5141   -0.9144 H   0  0  0  0  0  0  0  0  0  0  0  0
    5.2761   -2.6538    1.3598 H   0  0  0  0  0  0  0  0  0  0  0  0
    4.5098   -0.5099    2.2446 H   0  0  0  0  0  0  0  0  0  0  0  0
    3.3456    1.7732    1.5008 H   0  0  0  0  0  0  0  0  0  0  0  0
   -0.9240   -0.6433    1.6623 H   0  0  0  0  0  0  0  0  0  0  0  0
   -2.7624   -1.6384    0.8208 H   0  0  0  0  0  0  0  0  0  0  0  0
   -6.7075   -1.4162   -0.9326 H   0  0  0  0  0  0  0  0  0  0  0  0
   -8.1431   -3.3765   -0.3861 H   0  0  0  0  0  0  0  0  0  0  0  0
   -7.0483   -5.4594    0.4611 H   0  0  0  0  0  0  0  0  0  0  0  0
   -2.9263    1.1447   -1.7057 H   0  0  0  0  0  0  0  0  0  0  0  0
   -1.2892    2.9188   -1.7471 H   0  0  0  0  0  0  0  0  0  0  0  0
    1.1291    2.8560   -2.2472 H   0  0  0  0  0  0  0  0  0  0  0  0
    2.5514    3.3148   -1.3043 H   0  0  0  0  0  0  0  0  0  0  0  0
    2.0100    5.4211   -2.3119 H   0  0  0  0  0  0  0  0  0  0  0  0
    0.2677    5.0906   -2.2381 H   0  0  0  0  0  0  0  0  0  0  0  0
    0.6269    6.5407   -0.3060 H   0  0  0  0  0  0  0  0  0  0  0  0
    2.1222    5.6789    0.1181 H   0  0  0  0  0  0  0  0  0  0  0  0
    0.5172    4.5610    1.5143 H   0  0  0  0  0  0  0  0  0  0  0  0
   -0.7394    4.6445    0.2574 H   0  0  0  0  0  0  0  0  0  0  0  0
    1.8107   -0.0722   -1.0815 H   0  0  0  0  0  0  0  0  0  0  0  0
    2.5668   -2.2462   -1.9711 H   0  0  0  0  0  0  0  0  0  0  0  0
  1  2  1  0
  2  3  1  0
  3  4  2  0
  4  5  1  0
  5  6  2  0
  6  7  1  0
  7  8  1  0
  8  9  2  0
  8 10  2  0
  8 11  1  0
 11 12  2  0
 12 13  1  0
 13 14  1  0
 14 15  1  0
 15 16  2  0
 15 17  1  0
 17 18  2  0
 18 19  1  0
 19 20  2  0
 20 21  1  0
 21 22  2  0
 22 23  1  0
 13 24  2  0
 24 25  1  0
 25 26  2  0
 26 27  1  0
 27 28  1  0
 28 29  1  0
 29 30  1  0
 30 31  1  0
  6 32  1  0
 32 33  2  0
 33  3  1  0
 26 11  1  0
 31 27  1  0
 22 17  1  0
  1 34  1  0
  1 35  1  0
  1 36  1  0
  4 37  1  0
  5 38  1  0
  7 39  1  0
 12 40  1  0
 14 41  1  0
 18 42  1  0
 19 43  1  0
 20 44  1  0
 24 45  1  0
 25 46  1  0
 28 47  1  0
 28 48  1  0
 29 49  1  0
 29 50  1  0
 30 51  1  0
 30 52  1  0
 31 53  1  0
 31 54  1  0
 32 55  1  0
 33 56  1  0
M  END
$$$$
