
     RDKit          3D

 44 47  0  0  0  0  0  0  0  0999 V2000
    7.9099   -0.8777    0.8996 C   0  0  0  0  0  0  0  0  0  0  0  0
    7.2861   -1.5029   -0.3356 C   0  0  0  0  0  0  0  0  0  0  0  0
    6.5247   -0.5351   -1.0554 O   0  0  0  0  0  0  0  0  0  0  0  0
    5.1794   -0.4323   -0.8264 C   0  0  0  0  0  0  0  0  0  0  0  0
    4.5120   -0.9981    0.2632 C   0  0  0  0  0  0  0  0  0  0  0  0
    3.1323   -0.8208    0.4190 C   0  0  0  0  0  0  0  0  0  0  0  0
    2.4037   -0.0626   -0.5041 C   0  0  0  0  0  0  0  0  0  0  0  0
    0.9367    0.0942   -0.2953 C   0  0  0  0  0  0  0  0  0  0  0  0
    0.3292   -0.8330    0.2243 O   0  0  0  0  0  0  0  0  0  0  0  0
    0.4165    1.3152   -0.6842 N   0  0  0  0  0  0  0  0  0  0  0  0
   -0.9351    1.7224   -0.6440 C   0  0  0  0  0  0  0  0  0  0  0  0
   -1.2074    3.0480   -1.0042 C   0  0  0  0  0  0  0  0  0  0  0  0
   -2.5147    3.5330   -0.9971 C   0  0  0  0  0  0  0  0  0  0  0  0
   -3.5641    2.6921   -0.6317 C   0  0  0  0  0  0  0  0  0  0  0  0
   -3.3215    1.3584   -0.2716 C   0  0  0  0  0  0  0  0  0  0  0  0
   -4.4490    0.5040    0.1011 C   0  0  0  0  0  0  0  0  0  0  0  0
   -5.7337    0.8182    0.1637 N   0  0  0  0  0  0  0  0  0  0  0  0
   -6.3263   -0.3516    0.5601 C   0  0  0  0  0  0  0  0  0  0  0  0
   -7.6625   -0.6808    0.8089 C   0  0  0  0  0  0  0  0  0  0  0  0
   -7.9258   -1.9945    1.2063 C   0  0  0  0  0  0  0  0  0  0  0  0
   -6.8691   -2.8942    1.3330 C   0  0  0  0  0  0  0  0  0  0  0  0
   -5.5630   -2.6215    1.1033 N   0  0  0  0  0  0  0  0  0  0  0  0
   -5.3685   -1.3451    0.7248 C   0  0  0  0  0  0  0  0  0  0  0  0
   -4.1574   -0.7951    0.4289 O   0  0  0  0  0  0  0  0  0  0  0  0
   -1.9966    0.8855   -0.2834 C   0  0  0  0  0  0  0  0  0  0  0  0
    3.0576    0.4988   -1.6033 C   0  0  0  0  0  0  0  0  0  0  0  0
    4.4368    0.3197   -1.7540 C   0  0  0  0  0  0  0  0  0  0  0  0
    5.1920    1.0494   -3.1303 Cl  0  0  0  0  0  0  0  0  0  0  0  0
    8.5177   -0.0096    0.6234 H   0  0  0  0  0  0  0  0  0  0  0  0
    7.1462   -0.5195    1.5962 H   0  0  0  0  0  0  0  0  0  0  0  0
    8.5456   -1.6000    1.4196 H   0  0  0  0  0  0  0  0  0  0  0  0
    6.7123   -2.4067   -0.1026 H   0  0  0  0  0  0  0  0  0  0  0  0
    8.0921   -1.8237   -1.0054 H   0  0  0  0  0  0  0  0  0  0  0  0
    5.0319   -1.5769    1.0196 H   0  0  0  0  0  0  0  0  0  0  0  0
    2.6256   -1.2749    1.2701 H   0  0  0  0  0  0  0  0  0  0  0  0
    1.0755    2.0290   -0.9657 H   0  0  0  0  0  0  0  0  0  0  0  0
   -0.4067    3.7242   -1.2930 H   0  0  0  0  0  0  0  0  0  0  0  0
   -2.7171    4.5641   -1.2756 H   0  0  0  0  0  0  0  0  0  0  0  0
   -4.5816    3.0810   -0.6297 H   0  0  0  0  0  0  0  0  0  0  0  0
   -8.4505    0.0540    0.6965 H   0  0  0  0  0  0  0  0  0  0  0  0
   -8.9424   -2.3131    1.4147 H   0  0  0  0  0  0  0  0  0  0  0  0
   -7.0637   -3.9198    1.6419 H   0  0  0  0  0  0  0  0  0  0  0  0
   -1.8137   -0.1500   -0.0103 H   0  0  0  0  0  0  0  0  0  0  0  0
    2.5065    1.0483   -2.3610 H   0  0  0  0  0  0  0  0  0  0  0  0
  1  2  1  0
  2  3  1  0
  3  4  1  0
  4  5  2  0
  5  6  1  0
  6  7  2  0
  7  8  1  0
  8  9  2  0
  8 10  1  0
 10 11  1  0
 11 12  2  0
 12 13  1  0
 13 14  2  0
 14 15  1  0
 15 16  1  0
 16 17  2  0
 17 18  1  0
 18 19  2  0
 19 20  1  0
 20 21  2  0
 21 22  1  0
 22 23  2  0
 23 24  1  0
 15 25  2  0
  7 26  1  0
 26 27  2  0
 27 28  1  0
 27  4  1  0
 25 11  1  0
 24 16  1  0
 23 18  1  0
  1 29  1  0
  1 30  1  0
  1 31  1  0
  2 32  1  0
  2 33  1  0
  5 34  1  0
  6 35  1  0
 10 36  1  0
 12 37  1  0
 13 38  1  0
 14 39  1  0
 19 40  1  0
 20 41  1  0
 21 42  1  0
 25 43  1  0
 26 44  1  0
M  END
$$$$
