
     RDKit          3D

 49 51  0  0  0  0  0  0  0  0999 V2000
   -8.5839    1.2217    1.3460 C   0  0  0  0  0  0  0  0  0  0  0  0
   -7.8204    1.0981    0.1550 O   0  0  0  0  0  0  0  0  0  0  0  0
   -6.5507    0.5867    0.2619 C   0  0  0  0  0  0  0  0  0  0  0  0
   -5.9745    0.1458    1.4573 C   0  0  0  0  0  0  0  0  0  0  0  0
   -4.6726   -0.3619    1.4698 C   0  0  0  0  0  0  0  0  0  0  0  0
   -3.9286   -0.4274    0.2898 C   0  0  0  0  0  0  0  0  0  0  0  0
   -2.5666   -0.9726    0.2773 C   0  0  0  0  0  0  0  0  0  0  0  0
   -1.5007   -0.4517    0.9001 C   0  0  0  0  0  0  0  0  0  0  0  0
   -1.4153    0.9757    1.8542 S   0  0  0  0  0  0  0  0  0  0  0  0
    0.3062    0.7887    2.1302 C   0  0  0  0  0  0  0  0  0  0  0  0
    0.9767    1.6203    2.7204 O   0  0  0  0  0  0  0  0  0  0  0  0
    0.7492   -0.3751    1.5610 N   0  0  0  0  0  0  0  0  0  0  0  0
    2.1508   -0.7605    1.6243 C   0  0  0  0  0  0  0  0  0  0  0  0
    2.9584   -0.1462    0.4845 C   0  0  0  0  0  0  0  0  0  0  0  0
    4.4156   -0.5590    0.5624 C   0  0  0  0  0  0  0  0  0  0  0  0
    4.8287   -1.2988    1.4472 O   0  0  0  0  0  0  0  0  0  0  0  0
    5.1574    0.0007   -0.4650 N   0  0  0  0  0  0  0  0  0  0  0  0
    6.5366   -0.1585   -0.7154 C   0  0  0  0  0  0  0  0  0  0  0  0
    7.3893   -0.9390    0.0668 C   0  0  0  0  0  0  0  0  0  0  0  0
    8.7475   -1.0434   -0.2522 C   0  0  0  0  0  0  0  0  0  0  0  0
    9.2643   -0.3688   -1.3554 C   0  0  0  0  0  0  0  0  0  0  0  0
    8.4232    0.4123   -2.1424 C   0  0  0  0  0  0  0  0  0  0  0  0
    7.0665    0.5165   -1.8238 C   0  0  0  0  0  0  0  0  0  0  0  0
   -0.1554   -1.0800    0.8029 C   0  0  0  0  0  0  0  0  0  0  0  0
    0.0918   -2.0599    0.1146 O   0  0  0  0  0  0  0  0  0  0  0  0
   -4.5056    0.0012   -0.9123 C   0  0  0  0  0  0  0  0  0  0  0  0
   -5.8103    0.5109   -0.9353 C   0  0  0  0  0  0  0  0  0  0  0  0
   -6.4487    0.9574   -2.0666 O   0  0  0  0  0  0  0  0  0  0  0  0
   -5.7395    0.8965   -3.2952 C   0  0  0  0  0  0  0  0  0  0  0  0
   -8.7761    0.2416    1.7949 H   0  0  0  0  0  0  0  0  0  0  0  0
   -9.5507    1.6597    1.0796 H   0  0  0  0  0  0  0  0  0  0  0  0
   -8.0991    1.8965    2.0591 H   0  0  0  0  0  0  0  0  0  0  0  0
   -6.5126    0.1804    2.3985 H   0  0  0  0  0  0  0  0  0  0  0  0
   -4.2510   -0.7068    2.4115 H   0  0  0  0  0  0  0  0  0  0  0  0
   -2.4498   -1.8756   -0.3214 H   0  0  0  0  0  0  0  0  0  0  0  0
    2.5582   -0.4402    2.5908 H   0  0  0  0  0  0  0  0  0  0  0  0
    2.2142   -1.8547    1.5851 H   0  0  0  0  0  0  0  0  0  0  0  0
    2.5540   -0.4686   -0.4823 H   0  0  0  0  0  0  0  0  0  0  0  0
    2.9007    0.9479    0.5272 H   0  0  0  0  0  0  0  0  0  0  0  0
    4.6611    0.5965   -1.1157 H   0  0  0  0  0  0  0  0  0  0  0  0
    7.0320   -1.4826    0.9356 H   0  0  0  0  0  0  0  0  0  0  0  0
    9.3994   -1.6551    0.3666 H   0  0  0  0  0  0  0  0  0  0  0  0
   10.3201   -0.4526   -1.5993 H   0  0  0  0  0  0  0  0  0  0  0  0
    8.8221    0.9408   -3.0043 H   0  0  0  0  0  0  0  0  0  0  0  0
    6.4338    1.1336   -2.4561 H   0  0  0  0  0  0  0  0  0  0  0  0
   -3.9170   -0.0670   -1.8213 H   0  0  0  0  0  0  0  0  0  0  0  0
   -4.8441    1.5260   -3.2662 H   0  0  0  0  0  0  0  0  0  0  0  0
   -6.3947    1.2877   -4.0795 H   0  0  0  0  0  0  0  0  0  0  0  0
   -5.4897   -0.1371   -3.5565 H   0  0  0  0  0  0  0  0  0  0  0  0
  1  2  1  0
  2  3  1  0
  3  4  2  0
  4  5  1  0
  5  6  2  0
  6  7  1  0
  7  8  2  3
  8  9  1  0
  9 10  1  0
 10 11  2  0
 10 12  1  0
 12 13  1  0
 13 14  1  0
 14 15  1  0
 15 16  2  0
 15 17  1  0
 17 18  1  0
 18 19  2  0
 19 20  1  0
 20 21  2  0
 21 22  1  0
 22 23  2  0
 12 24  1  0
 24 25  2  0
  6 26  1  0
 26 27  2  0
 27 28  1  0
 28 29  1  0
 27  3  1  0
 24  8  1  0
 23 18  1  0
  1 30  1  0
  1 31  1  0
  1 32  1  0
  4 33  1  0
  5 34  1  0
  7 35  1  0
 13 36  1  0
 13 37  1  0
 14 38  1  0
 14 39  1  0
 17 40  1  0
 19 41  1  0
 20 42  1  0
 21 43  1  0
 22 44  1  0
 23 45  1  0
 26 46  1  0
 29 47  1  0
 29 48  1  0
 29 49  1  0
M  END
$$$$
