
     RDKit          3D

 57 61  0  0  0  0  0  0  0  0999 V2000
    6.3323    0.9377   -1.2520 C   0  0  0  0  0  0  0  0  0  0  0  0
    5.1578    0.5838   -0.3380 C   0  0  0  0  0  0  0  0  0  0  0  0
    5.5069    0.9156    1.1118 C   0  0  0  0  0  0  0  0  0  0  0  0
    3.9025    1.3549   -0.7548 C   0  0  0  0  0  0  0  0  0  0  0  0
    3.9984    2.4659   -1.2805 O   0  0  0  0  0  0  0  0  0  0  0  0
    2.6618    0.7861   -0.4731 N   0  0  0  0  0  0  0  0  0  0  0  0
    1.4593    1.5078   -0.8802 C   0  0  0  0  0  0  0  0  0  0  0  0
    0.4062    0.5755   -1.4732 C   0  0  0  0  0  0  0  0  0  0  0  0
    0.0181   -0.6077   -0.5348 C   0  0  0  0  0  0  0  0  0  0  0  0
    1.0504   -0.7479    0.6131 C   0  0  0  0  0  0  0  0  0  0  0  0
    2.4733   -0.5432    0.1019 C   0  0  0  0  0  0  0  0  0  0  0  0
    0.1519   -1.7786   -1.3937 O   0  0  0  0  0  0  0  0  0  0  0  0
   -0.4933   -2.9228   -1.0268 C   0  0  0  0  0  0  0  0  0  0  0  0
   -0.1553   -4.0732   -1.7392 C   0  0  0  0  0  0  0  0  0  0  0  0
   -0.7433   -5.2980   -1.4124 C   0  0  0  0  0  0  0  0  0  0  0  0
   -1.6707   -5.3686   -0.3725 C   0  0  0  0  0  0  0  0  0  0  0  0
   -2.3843   -6.8801    0.0318 Cl  0  0  0  0  0  0  0  0  0  0  0  0
   -2.0235   -4.2244    0.3374 C   0  0  0  0  0  0  0  0  0  0  0  0
   -1.4372   -3.0030   -0.0074 C   0  0  0  0  0  0  0  0  0  0  0  0
   -1.8009   -1.7713    0.7044 C   0  0  0  0  0  0  0  0  0  0  0  0
   -2.3422   -1.8349    1.8044 O   0  0  0  0  0  0  0  0  0  0  0  0
   -1.4378   -0.4725   -0.0041 C   0  0  0  0  0  0  0  0  0  0  0  0
   -1.7022    0.7383    0.8771 C   0  0  0  0  0  0  0  0  0  0  0  0
   -3.0870    1.0521    0.4192 C   0  0  0  0  0  0  0  0  0  0  0  0
   -3.9756    1.9758    1.1629 C   0  0  0  0  0  0  0  0  0  0  0  0
   -5.2935    2.1514    0.7184 C   0  0  0  0  0  0  0  0  0  0  0  0
   -6.1577    3.0171    1.3946 C   0  0  0  0  0  0  0  0  0  0  0  0
   -5.7048    3.7094    2.5148 C   0  0  0  0  0  0  0  0  0  0  0  0
   -6.7653    4.7759    3.3490 Cl  0  0  0  0  0  0  0  0  0  0  0  0
   -4.3953    3.5440    2.9636 C   0  0  0  0  0  0  0  0  0  0  0  0
   -3.5283    2.6778    2.2885 C   0  0  0  0  0  0  0  0  0  0  0  0
   -3.4305    0.4816   -0.6917 N   0  0  0  0  0  0  0  0  0  0  0  0
   -2.3500   -0.3272   -1.1065 O   0  0  0  0  0  0  0  0  0  0  0  0
    7.2152    0.3422   -0.9967 H   0  0  0  0  0  0  0  0  0  0  0  0
    6.6043    1.9960   -1.1718 H   0  0  0  0  0  0  0  0  0  0  0  0
    6.0808    0.7386   -2.2995 H   0  0  0  0  0  0  0  0  0  0  0  0
    4.9829   -0.4915   -0.4421 H   0  0  0  0  0  0  0  0  0  0  0  0
    4.6778    0.7000    1.7920 H   0  0  0  0  0  0  0  0  0  0  0  0
    6.3752    0.3368    1.4438 H   0  0  0  0  0  0  0  0  0  0  0  0
    5.7453    1.9794    1.2256 H   0  0  0  0  0  0  0  0  0  0  0  0
    1.0755    2.0169    0.0104 H   0  0  0  0  0  0  0  0  0  0  0  0
    1.6985    2.2875   -1.6109 H   0  0  0  0  0  0  0  0  0  0  0  0
    0.7987    0.1846   -2.4223 H   0  0  0  0  0  0  0  0  0  0  0  0
   -0.4699    1.1743   -1.7462 H   0  0  0  0  0  0  0  0  0  0  0  0
    0.9962   -1.7404    1.0745 H   0  0  0  0  0  0  0  0  0  0  0  0
    0.8506   -0.0152    1.4043 H   0  0  0  0  0  0  0  0  0  0  0  0
    2.7195   -1.2771   -0.6742 H   0  0  0  0  0  0  0  0  0  0  0  0
    3.1742   -0.6909    0.9269 H   0  0  0  0  0  0  0  0  0  0  0  0
    0.5701   -4.0199   -2.5478 H   0  0  0  0  0  0  0  0  0  0  0  0
   -0.4735   -6.1911   -1.9709 H   0  0  0  0  0  0  0  0  0  0  0  0
   -2.7537   -4.2761    1.1415 H   0  0  0  0  0  0  0  0  0  0  0  0
   -1.0731    1.5974    0.6331 H   0  0  0  0  0  0  0  0  0  0  0  0
   -1.6419    0.5345    1.9482 H   0  0  0  0  0  0  0  0  0  0  0  0
   -5.6579    1.6140   -0.1555 H   0  0  0  0  0  0  0  0  0  0  0  0
   -7.1779    3.1434    1.0415 H   0  0  0  0  0  0  0  0  0  0  0  0
   -4.0436    4.0862    3.8380 H   0  0  0  0  0  0  0  0  0  0  0  0
   -2.5136    2.5730    2.6602 H   0  0  0  0  0  0  0  0  0  0  0  0
  1  2  1  0
  2  3  1  0
  2  4  1  0
  4  5  2  0
  4  6  1  0
  6  7  1  0
  7  8  1  0
  8  9  1  0
  9 10  1  0
 10 11  1  0
  9 12  1  0
 12 13  1  0
 13 14  2  0
 14 15  1  0
 15 16  2  0
 16 17  1  0
 16 18  1  0
 18 19  2  0
 19 20  1  0
 20 21  2  0
 20 22  1  0
 22 23  1  0
 23 24  1  0
 24 25  1  0
 25 26  2  0
 26 27  1  0
 27 28  2  0
 28 29  1  0
 28 30  1  0
 30 31  2  0
 24 32  2  0
 32 33  1  0
 11  6  1  0
 19 13  1  0
 33 22  1  0
 22  9  1  0
 31 25  1  0
  1 34  1  0
  1 35  1  0
  1 36  1  0
  2 37  1  0
  3 38  1  0
  3 39  1  0
  3 40  1  0
  7 41  1  0
  7 42  1  0
  8 43  1  0
  8 44  1  0
 10 45  1  0
 10 46  1  0
 11 47  1  0
 11 48  1  0
 14 49  1  0
 15 50  1  0
 18 51  1  0
 23 52  1  0
 23 53  1  0
 26 54  1  0
 27 55  1  0
 30 56  1  0
 31 57  1  0
M  END
$$$$
