
     RDKit          3D

 62 64  0  0  0  0  0  0  0  0999 V2000
    7.8934    2.0815   -1.4512 C   0  0  0  0  0  0  0  0  0  0  0  0
    8.2421    1.0407   -0.4176 C   0  0  0  0  0  0  0  0  0  0  0  0
    9.4289    1.2157    0.3135 C   0  0  0  0  0  0  0  0  0  0  0  0
    9.7940    0.3088    1.3006 C   0  0  0  0  0  0  0  0  0  0  0  0
    8.9939   -0.8017    1.5452 C   0  0  0  0  0  0  0  0  0  0  0  0
    7.8139   -1.0272    0.8106 C   0  0  0  0  0  0  0  0  0  0  0  0
    7.0969   -2.3223    1.0822 C   0  0  0  0  0  0  0  0  0  0  0  0
    7.4053   -0.0711   -0.1445 C   0  0  0  0  0  0  0  0  0  0  0  0
    6.2116   -0.1898   -0.9003 N   0  0  0  0  0  0  0  0  0  0  0  0
    4.9719   -0.5692   -0.3979 C   0  0  0  0  0  0  0  0  0  0  0  0
    4.7187   -0.8280    0.7735 O   0  0  0  0  0  0  0  0  0  0  0  0
    3.8988   -0.5899   -1.4902 C   0  0  0  0  0  0  0  0  0  0  0  0
    2.6195   -0.9105   -0.9467 O   0  0  0  0  0  0  0  0  0  0  0  0
    1.5801   -0.6961   -1.7931 C   0  0  0  0  0  0  0  0  0  0  0  0
    1.6895   -0.3007   -2.9455 O   0  0  0  0  0  0  0  0  0  0  0  0
    0.2836   -1.0359   -1.1037 C   0  0  0  0  0  0  0  0  0  0  0  0
   -0.8991   -0.3752   -1.8065 C   0  0  0  0  0  0  0  0  0  0  0  0
   -2.2005   -0.6376   -1.0872 C   0  0  0  0  0  0  0  0  0  0  0  0
   -3.1217   -1.5642   -1.5975 C   0  0  0  0  0  0  0  0  0  0  0  0
   -4.3213   -1.8134   -0.9278 C   0  0  0  0  0  0  0  0  0  0  0  0
   -4.5951   -1.1355    0.2613 C   0  0  0  0  0  0  0  0  0  0  0  0
   -6.1187   -1.4247    1.1245 S   0  0  0  0  0  6  0  0  0  0  0  0
   -6.9979   -2.1933    0.2681 O   0  0  0  0  0  0  0  0  0  0  0  0
   -5.7710   -1.8826    2.4524 O   0  0  0  0  0  0  0  0  0  0  0  0
   -6.7886    0.1500    1.2509 N   0  0  0  0  0  0  0  0  0  0  0  0
   -7.1742    0.7657   -0.0506 C   0  0  0  0  0  0  0  0  0  0  0  0
   -7.4941    2.2429    0.1664 C   0  0  0  0  0  0  0  0  0  0  0  0
   -8.5948    2.4239    1.2073 C   0  0  0  0  0  0  0  0  0  0  0  0
   -8.2436    1.6920    2.4993 C   0  0  0  0  0  0  0  0  0  0  0  0
   -7.9048    0.2272    2.2350 C   0  0  0  0  0  0  0  0  0  0  0  0
   -3.6851   -0.2156    0.7881 C   0  0  0  0  0  0  0  0  0  0  0  0
   -2.4922    0.0336    0.1107 C   0  0  0  0  0  0  0  0  0  0  0  0
    7.9201    1.6430   -2.4548 H   0  0  0  0  0  0  0  0  0  0  0  0
    8.5991    2.9188   -1.4371 H   0  0  0  0  0  0  0  0  0  0  0  0
    6.8982    2.4968   -1.2566 H   0  0  0  0  0  0  0  0  0  0  0  0
   10.0721    2.0749    0.1279 H   0  0  0  0  0  0  0  0  0  0  0  0
   10.7062    0.4601    1.8720 H   0  0  0  0  0  0  0  0  0  0  0  0
    9.3057   -1.5157    2.3065 H   0  0  0  0  0  0  0  0  0  0  0  0
    6.5380   -2.6721    0.2108 H   0  0  0  0  0  0  0  0  0  0  0  0
    7.8186   -3.1165    1.3089 H   0  0  0  0  0  0  0  0  0  0  0  0
    6.4296   -2.2191    1.9420 H   0  0  0  0  0  0  0  0  0  0  0  0
    6.1743    0.3573   -1.7497 H   0  0  0  0  0  0  0  0  0  0  0  0
    4.1763   -1.3529   -2.2273 H   0  0  0  0  0  0  0  0  0  0  0  0
    3.8759    0.4030   -1.9580 H   0  0  0  0  0  0  0  0  0  0  0  0
    0.3441   -0.6872   -0.0656 H   0  0  0  0  0  0  0  0  0  0  0  0
    0.1725   -2.1258   -1.0959 H   0  0  0  0  0  0  0  0  0  0  0  0
   -0.9669   -0.7357   -2.8401 H   0  0  0  0  0  0  0  0  0  0  0  0
   -0.7476    0.7087   -1.8820 H   0  0  0  0  0  0  0  0  0  0  0  0
   -2.9097   -2.0991   -2.5214 H   0  0  0  0  0  0  0  0  0  0  0  0
   -5.0273   -2.5339   -1.3344 H   0  0  0  0  0  0  0  0  0  0  0  0
   -6.3514    0.6945   -0.7680 H   0  0  0  0  0  0  0  0  0  0  0  0
   -8.0432    0.2470   -0.4718 H   0  0  0  0  0  0  0  0  0  0  0  0
   -7.8018    2.6998   -0.7810 H   0  0  0  0  0  0  0  0  0  0  0  0
   -6.5903    2.7679    0.5001 H   0  0  0  0  0  0  0  0  0  0  0  0
   -8.7436    3.4897    1.4110 H   0  0  0  0  0  0  0  0  0  0  0  0
   -9.5410    2.0358    0.8115 H   0  0  0  0  0  0  0  0  0  0  0  0
   -7.3852    2.1859    2.9711 H   0  0  0  0  0  0  0  0  0  0  0  0
   -9.0811    1.7595    3.2024 H   0  0  0  0  0  0  0  0  0  0  0  0
   -8.7828   -0.3070    1.8539 H   0  0  0  0  0  0  0  0  0  0  0  0
   -7.6069   -0.2311    3.1833 H   0  0  0  0  0  0  0  0  0  0  0  0
   -3.9036    0.3038    1.7188 H   0  0  0  0  0  0  0  0  0  0  0  0
   -1.7879    0.7522    0.5250 H   0  0  0  0  0  0  0  0  0  0  0  0
  1  2  1  0
  2  3  2  0
  3  4  1  0
  4  5  2  0
  5  6  1  0
  6  7  1  0
  6  8  2  0
  8  9  1  0
  9 10  1  0
 10 11  2  0
 10 12  1  0
 12 13  1  0
 13 14  1  0
 14 15  2  0
 14 16  1  0
 16 17  1  0
 17 18  1  0
 18 19  2  0
 19 20  1  0
 20 21  2  0
 21 22  1  0
 22 23  2  0
 22 24  2  0
 22 25  1  0
 25 26  1  0
 26 27  1  0
 27 28  1  0
 28 29  1  0
 29 30  1  0
 21 31  1  0
 31 32  2  0
  8  2  1  0
 32 18  1  0
 30 25  1  0
  1 33  1  0
  1 34  1  0
  1 35  1  0
  3 36  1  0
  4 37  1  0
  5 38  1  0
  7 39  1  0
  7 40  1  0
  7 41  1  0
  9 42  1  0
 12 43  1  0
 12 44  1  0
 16 45  1  0
 16 46  1  0
 17 47  1  0
 17 48  1  0
 19 49  1  0
 20 50  1  0
 26 51  1  0
 26 52  1  0
 27 53  1  0
 27 54  1  0
 28 55  1  0
 28 56  1  0
 29 57  1  0
 29 58  1  0
 30 59  1  0
 30 60  1  0
 31 61  1  0
 32 62  1  0
M  END
$$$$
