
     RDKit          3D

 56 58  0  0  0  0  0  0  0  0999 V2000
   -8.8432    1.4055    0.9636 C   0  0  0  0  0  0  0  0  0  0  0  0
   -8.1501    0.5563    0.0609 O   0  0  0  0  0  0  0  0  0  0  0  0
   -6.8153    0.3332    0.2951 C   0  0  0  0  0  0  0  0  0  0  0  0
   -6.0985    0.8794    1.3645 C   0  0  0  0  0  0  0  0  0  0  0  0
   -4.7401    0.5959    1.5239 C   0  0  0  0  0  0  0  0  0  0  0  0
   -4.0774   -0.2376    0.6181 C   0  0  0  0  0  0  0  0  0  0  0  0
   -2.6041   -0.5183    0.7848 C   0  0  0  0  0  0  0  0  0  0  0  0
   -1.7439    0.6011    0.1927 C   0  0  0  0  0  0  0  0  0  0  0  0
   -0.3247    0.3257    0.3053 N   0  0  0  0  0  0  0  0  0  0  0  0
    0.3379    0.4676    1.4990 C   0  0  0  0  0  0  0  0  0  0  0  0
   -0.1907    0.7651    2.5616 O   0  0  0  0  0  0  0  0  0  0  0  0
    1.8069    0.2894    1.3921 C   0  0  0  0  0  0  0  0  0  0  0  0
    2.3276   -0.7908    0.7808 C   0  0  0  0  0  0  0  0  0  0  0  0
    3.8000   -1.0301    0.6272 C   0  0  0  0  0  0  0  0  0  0  0  0
    4.5934    0.1700    0.9831 N   0  0  0  0  0  0  0  0  0  0  0  0
    5.0053    1.2150   -0.2960 S   0  0  0  0  0  6  0  0  0  0  0  0
    5.7680    2.3209    0.2405 O   0  0  0  0  0  0  0  0  0  0  0  0
    3.8168    1.4346   -1.0937 O   0  0  0  0  0  0  0  0  0  0  0  0
    6.1373    0.2248   -1.2459 C   0  0  0  0  0  0  0  0  0  0  0  0
    5.8399   -0.1059   -2.5728 C   0  0  0  0  0  0  0  0  0  0  0  0
    6.7404   -0.8860   -3.2991 C   0  0  0  0  0  0  0  0  0  0  0  0
    7.9188   -1.3193   -2.6964 C   0  0  0  0  0  0  0  0  0  0  0  0
    8.7782   -2.0695   -3.3978 F   0  0  0  0  0  0  0  0  0  0  0  0
    8.2202   -0.9858   -1.3787 C   0  0  0  0  0  0  0  0  0  0  0  0
    7.3264   -0.2061   -0.6447 C   0  0  0  0  0  0  0  0  0  0  0  0
    4.0975    0.8334    2.2208 C   0  0  0  0  0  0  0  0  0  0  0  0
    2.6631    1.3300    2.0522 C   0  0  0  0  0  0  0  0  0  0  0  0
   -4.7932   -0.7836   -0.4574 C   0  0  0  0  0  0  0  0  0  0  0  0
   -6.1569   -0.5086   -0.6238 C   0  0  0  0  0  0  0  0  0  0  0  0
   -6.9283   -1.0027   -1.6475 O   0  0  0  0  0  0  0  0  0  0  0  0
   -6.3225   -1.9179   -2.5481 C   0  0  0  0  0  0  0  0  0  0  0  0
   -8.8466    0.9884    1.9762 H   0  0  0  0  0  0  0  0  0  0  0  0
   -9.8830    1.4715    0.6290 H   0  0  0  0  0  0  0  0  0  0  0  0
   -8.4263    2.4181    0.9532 H   0  0  0  0  0  0  0  0  0  0  0  0
   -6.5667    1.5313    2.0942 H   0  0  0  0  0  0  0  0  0  0  0  0
   -4.2004    1.0322    2.3632 H   0  0  0  0  0  0  0  0  0  0  0  0
   -2.3832   -0.6575    1.8504 H   0  0  0  0  0  0  0  0  0  0  0  0
   -2.3514   -1.4743    0.3081 H   0  0  0  0  0  0  0  0  0  0  0  0
   -1.9611    0.7284   -0.8738 H   0  0  0  0  0  0  0  0  0  0  0  0
   -1.9506    1.5559    0.6906 H   0  0  0  0  0  0  0  0  0  0  0  0
    0.2253    0.2763   -0.5436 H   0  0  0  0  0  0  0  0  0  0  0  0
    1.6750   -1.5534    0.3631 H   0  0  0  0  0  0  0  0  0  0  0  0
    4.1064   -1.8563    1.2791 H   0  0  0  0  0  0  0  0  0  0  0  0
    4.0113   -1.3510   -0.3975 H   0  0  0  0  0  0  0  0  0  0  0  0
    4.9230    0.2407   -3.0441 H   0  0  0  0  0  0  0  0  0  0  0  0
    6.5359   -1.1556   -4.3308 H   0  0  0  0  0  0  0  0  0  0  0  0
    9.1495   -1.3316   -0.9363 H   0  0  0  0  0  0  0  0  0  0  0  0
    7.5564    0.0667    0.3831 H   0  0  0  0  0  0  0  0  0  0  0  0
    4.7617    1.6534    2.5132 H   0  0  0  0  0  0  0  0  0  0  0  0
    4.1498    0.1036    3.0399 H   0  0  0  0  0  0  0  0  0  0  0  0
    2.6487    2.2394    1.4398 H   0  0  0  0  0  0  0  0  0  0  0  0
    2.2672    1.5974    3.0383 H   0  0  0  0  0  0  0  0  0  0  0  0
   -4.2633   -1.4224   -1.1563 H   0  0  0  0  0  0  0  0  0  0  0  0
   -5.9638   -2.8107   -2.0251 H   0  0  0  0  0  0  0  0  0  0  0  0
   -7.0856   -2.2376   -3.2645 H   0  0  0  0  0  0  0  0  0  0  0  0
   -5.5170   -1.4388   -3.1140 H   0  0  0  0  0  0  0  0  0  0  0  0
  1  2  1  0
  2  3  1  0
  3  4  2  0
  4  5  1  0
  5  6  2  0
  6  7  1  0
  7  8  1  0
  8  9  1  0
  9 10  1  0
 10 11  2  0
 10 12  1  0
 12 13  2  0
 13 14  1  0
 14 15  1  0
 15 16  1  0
 16 17  2  0
 16 18  2  0
 16 19  1  0
 19 20  2  0
 20 21  1  0
 21 22  2  0
 22 23  1  0
 22 24  1  0
 24 25  2  0
 15 26  1  0
 26 27  1  0
  6 28  1  0
 28 29  2  0
 29 30  1  0
 30 31  1  0
 29  3  1  0
 27 12  1  0
 25 19  1  0
  1 32  1  0
  1 33  1  0
  1 34  1  0
  4 35  1  0
  5 36  1  0
  7 37  1  0
  7 38  1  0
  8 39  1  0
  8 40  1  0
  9 41  1  0
 13 42  1  0
 14 43  1  0
 14 44  1  0
 20 45  1  0
 21 46  1  0
 24 47  1  0
 25 48  1  0
 26 49  1  0
 26 50  1  0
 27 51  1  0
 27 52  1  0
 28 53  1  0
 31 54  1  0
 31 55  1  0
 31 56  1  0
M  END
$$$$
