
     RDKit          3D

 68 72  0  0  0  0  0  0  0  0999 V2000
    9.7296    3.0154   -0.4312 C   0  0  0  0  0  0  0  0  0  0  0  0
    9.1573    1.7644   -0.7907 O   0  0  0  0  0  0  0  0  0  0  0  0
    7.8038    1.6424   -0.6473 C   0  0  0  0  0  0  0  0  0  0  0  0
    7.2825    0.4047   -1.0106 C   0  0  0  0  0  0  0  0  0  0  0  0
    5.9079    0.1483   -0.9096 C   0  0  0  0  0  0  0  0  0  0  0  0
    5.0038    1.1138   -0.4422 C   0  0  0  0  0  0  0  0  0  0  0  0
    3.6464    0.8578   -0.3466 N   0  0  0  0  0  0  0  0  0  0  0  0
    3.1299   -0.5191   -0.2553 C   0  0  0  0  0  0  0  0  0  0  0  0
    1.7983   -0.5668    0.5317 C   0  0  0  0  0  0  0  0  0  0  0  0
    0.7137    0.3109    0.0294 N   0  0  0  0  0  0  0  0  0  0  0  0
   -0.2403   -0.4104   -0.8288 C   0  0  0  0  0  0  0  0  0  0  0  0
   -1.0623   -1.4190   -0.0735 C   0  0  0  0  0  0  0  0  0  0  0  0
   -0.9968   -2.7302   -0.2572 N   0  0  0  0  0  0  0  0  0  0  0  0
   -1.8738   -3.2580    0.6338 C   0  0  0  0  0  0  0  0  0  0  0  0
   -2.4978   -2.2930    1.3700 C   0  0  0  0  0  0  0  0  0  0  0  0
   -3.4618   -2.6081    2.3687 C   0  0  0  0  0  0  0  0  0  0  0  0
   -4.0716   -1.7937    3.0523 O   0  0  0  0  0  0  0  0  0  0  0  0
   -3.6678   -3.9637    2.4966 N   0  0  0  0  0  0  0  0  0  0  0  0
   -3.0750   -4.9752    1.7646 C   0  0  0  0  0  0  0  0  0  0  0  0
   -3.4019   -6.1406    1.9891 O   0  0  0  0  0  0  0  0  0  0  0  0
   -2.1385   -4.5994    0.8091 N   0  0  0  0  0  0  0  0  0  0  0  0
   -1.4746   -5.5954   -0.0086 C   0  0  0  0  0  0  0  0  0  0  0  0
   -1.9918   -1.1055    0.9080 N   0  0  0  0  0  0  0  0  0  0  0  0
   -2.3370    0.2205    1.3872 C   0  0  0  0  0  0  0  0  0  0  0  0
   -3.3488    0.9559    0.5076 C   0  0  0  0  0  0  0  0  0  0  0  0
   -4.7518    0.3467    0.5644 C   0  0  0  0  0  0  0  0  0  0  0  0
   -5.7155    1.1097   -0.3108 C   0  0  0  0  0  0  0  0  0  0  0  0
   -5.8834    0.7563   -1.6567 C   0  0  0  0  0  0  0  0  0  0  0  0
   -6.7618    1.4727   -2.4712 C   0  0  0  0  0  0  0  0  0  0  0  0
   -7.4758    2.5501   -1.9497 C   0  0  0  0  0  0  0  0  0  0  0  0
   -7.3113    2.9131   -0.6140 C   0  0  0  0  0  0  0  0  0  0  0  0
   -6.4336    2.1979    0.2023 C   0  0  0  0  0  0  0  0  0  0  0  0
    1.2735    1.4681   -0.7069 C   0  0  0  0  0  0  0  0  0  0  0  0
    2.6580    1.9373   -0.2050 C   0  0  0  0  0  0  0  0  0  0  0  0
    5.5564    2.3544   -0.0864 C   0  0  0  0  0  0  0  0  0  0  0  0
    6.9325    2.6207   -0.1837 C   0  0  0  0  0  0  0  0  0  0  0  0
    9.5701    3.2330    0.6304 H   0  0  0  0  0  0  0  0  0  0  0  0
   10.8095    2.9494   -0.5983 H   0  0  0  0  0  0  0  0  0  0  0  0
    9.3429    3.8219   -1.0634 H   0  0  0  0  0  0  0  0  0  0  0  0
    7.9462   -0.3723   -1.3815 H   0  0  0  0  0  0  0  0  0  0  0  0
    5.5583   -0.8286   -1.2312 H   0  0  0  0  0  0  0  0  0  0  0  0
    3.8393   -1.1686    0.2719 H   0  0  0  0  0  0  0  0  0  0  0  0
    2.9824   -0.9211   -1.2650 H   0  0  0  0  0  0  0  0  0  0  0  0
    2.0082   -0.2391    1.5591 H   0  0  0  0  0  0  0  0  0  0  0  0
    1.4758   -1.6099    0.6258 H   0  0  0  0  0  0  0  0  0  0  0  0
    0.2852   -0.9173   -1.6489 H   0  0  0  0  0  0  0  0  0  0  0  0
   -0.9331    0.2992   -1.2967 H   0  0  0  0  0  0  0  0  0  0  0  0
   -4.3489   -4.2554    3.1795 H   0  0  0  0  0  0  0  0  0  0  0  0
   -0.3905   -5.4619    0.0660 H   0  0  0  0  0  0  0  0  0  0  0  0
   -1.7249   -6.6108    0.3112 H   0  0  0  0  0  0  0  0  0  0  0  0
   -1.7902   -5.4665   -1.0490 H   0  0  0  0  0  0  0  0  0  0  0  0
   -2.7004    0.1394    2.4160 H   0  0  0  0  0  0  0  0  0  0  0  0
   -1.4123    0.8014    1.4473 H   0  0  0  0  0  0  0  0  0  0  0  0
   -2.9995    0.9831   -0.5312 H   0  0  0  0  0  0  0  0  0  0  0  0
   -3.3975    1.9998    0.8434 H   0  0  0  0  0  0  0  0  0  0  0  0
   -4.7355   -0.7006    0.2413 H   0  0  0  0  0  0  0  0  0  0  0  0
   -5.1225    0.3443    1.5967 H   0  0  0  0  0  0  0  0  0  0  0  0
   -5.3332   -0.0818   -2.0783 H   0  0  0  0  0  0  0  0  0  0  0  0
   -6.8901    1.1889   -3.5126 H   0  0  0  0  0  0  0  0  0  0  0  0
   -8.1615    3.1065   -2.5838 H   0  0  0  0  0  0  0  0  0  0  0  0
   -7.8681    3.7530   -0.2064 H   0  0  0  0  0  0  0  0  0  0  0  0
   -6.3159    2.4937    1.2425 H   0  0  0  0  0  0  0  0  0  0  0  0
    0.5648    2.3014   -0.6332 H   0  0  0  0  0  0  0  0  0  0  0  0
    1.3770    1.2262   -1.7744 H   0  0  0  0  0  0  0  0  0  0  0  0
    2.5946    2.2519    0.8438 H   0  0  0  0  0  0  0  0  0  0  0  0
    2.9441    2.8077   -0.8078 H   0  0  0  0  0  0  0  0  0  0  0  0
    4.9242    3.1478    0.3021 H   0  0  0  0  0  0  0  0  0  0  0  0
    7.2807    3.6026    0.1172 H   0  0  0  0  0  0  0  0  0  0  0  0
  1  2  1  0
  2  3  1  0
  3  4  2  0
  4  5  1  0
  5  6  2  0
  6  7  1  0
  7  8  1  0
  8  9  1  0
  9 10  1  0
 10 11  1  0
 11 12  1  0
 12 13  2  0
 13 14  1  0
 14 15  2  0
 15 16  1  0
 16 17  2  0
 16 18  1  0
 18 19  1  0
 19 20  2  0
 19 21  1  0
 21 22  1  0
 15 23  1  0
 23 24  1  0
 24 25  1  0
 25 26  1  0
 26 27  1  0
 27 28  2  0
 28 29  1  0
 29 30  2  0
 30 31  1  0
 31 32  2  0
 10 33  1  0
 33 34  1  0
  6 35  1  0
 35 36  2  0
 36  3  1  0
 34  7  1  0
 23 12  1  0
 32 27  1  0
 21 14  1  0
  1 37  1  0
  1 38  1  0
  1 39  1  0
  4 40  1  0
  5 41  1  0
  8 42  1  0
  8 43  1  0
  9 44  1  0
  9 45  1  0
 11 46  1  0
 11 47  1  0
 18 48  1  0
 22 49  1  0
 22 50  1  0
 22 51  1  0
 24 52  1  0
 24 53  1  0
 25 54  1  0
 25 55  1  0
 26 56  1  0
 26 57  1  0
 28 58  1  0
 29 59  1  0
 30 60  1  0
 31 61  1  0
 32 62  1  0
 33 63  1  0
 33 64  1  0
 34 65  1  0
 34 66  1  0
 35 67  1  0
 36 68  1  0
M  END
$$$$
