
     RDKit          3D

 41 44  0  0  0  0  0  0  0  0999 V2000
    4.5165    2.8688   -0.0138 C   0  0  0  0  0  0  0  0  0  0  0  0
    4.4174    1.7734   -1.0645 C   0  0  0  0  0  0  0  0  0  0  0  0
    4.1381    0.4253   -0.4471 C   0  0  0  0  0  0  0  0  0  0  0  0
    5.1944   -0.3937   -0.0306 C   0  0  0  0  0  0  0  0  0  0  0  0
    4.9654   -1.6437    0.5573 C   0  0  0  0  0  0  0  0  0  0  0  0
    3.6368   -2.0491    0.7211 C   0  0  0  0  0  0  0  0  0  0  0  0
    3.1198   -3.2057    1.2621 N   0  0  0  0  0  0  0  0  0  0  0  0
    1.7514   -3.1839    1.2306 C   0  0  0  0  0  0  0  0  0  0  0  0
    1.0656   -4.2087    1.7231 O   0  0  0  0  0  0  0  0  0  0  0  0
    1.3779   -1.9927    0.6452 C   0  0  0  0  0  0  0  0  0  0  0  0
    0.0855   -1.5039    0.4017 N   0  0  0  0  0  0  0  0  0  0  0  0
   -0.7952   -2.3877    0.3646 N   0  0  0  0  0  0  0  0  0  0  0  0
   -2.0543   -1.9301    0.1135 C   0  0  0  0  0  0  0  0  0  0  0  0
   -2.4775   -0.6840    0.0112 N   0  0  0  0  0  0  0  0  0  0  0  0
   -3.8401   -0.6259   -0.2511 C   0  0  0  0  0  0  0  0  0  0  0  0
   -4.5182    0.6634   -0.4031 C   0  0  0  0  0  0  0  0  0  0  0  0
   -5.8707    0.7697   -0.7625 C   0  0  0  0  0  0  0  0  0  0  0  0
   -6.4801    2.0227   -0.8952 C   0  0  0  0  0  0  0  0  0  0  0  0
   -5.7473    3.1858   -0.6723 C   0  0  0  0  0  0  0  0  0  0  0  0
   -4.4041    3.0995   -0.3180 C   0  0  0  0  0  0  0  0  0  0  0  0
   -3.7956    1.8480   -0.1853 C   0  0  0  0  0  0  0  0  0  0  0  0
   -4.4508   -1.8613   -0.3402 C   0  0  0  0  0  0  0  0  0  0  0  0
   -3.3051   -3.1102   -0.0948 S   0  0  0  0  0  0  0  0  0  0  0  0
    2.5544   -1.2608    0.3255 C   0  0  0  0  0  0  0  0  0  0  0  0
    2.8119   -0.0047   -0.2636 C   0  0  0  0  0  0  0  0  0  0  0  0
    4.7227    3.8317   -0.4913 H   0  0  0  0  0  0  0  0  0  0  0  0
    3.5828    2.9627    0.5513 H   0  0  0  0  0  0  0  0  0  0  0  0
    5.3219    2.6649    0.6993 H   0  0  0  0  0  0  0  0  0  0  0  0
    3.6275    2.0211   -1.7841 H   0  0  0  0  0  0  0  0  0  0  0  0
    5.3490    1.7281   -1.6423 H   0  0  0  0  0  0  0  0  0  0  0  0
    6.2224   -0.0595   -0.1627 H   0  0  0  0  0  0  0  0  0  0  0  0
    5.7942   -2.2686    0.8736 H   0  0  0  0  0  0  0  0  0  0  0  0
    3.6636   -3.9670    1.6402 H   0  0  0  0  0  0  0  0  0  0  0  0
    0.1233   -3.9821    1.6045 H   0  0  0  0  0  0  0  0  0  0  0  0
   -6.4784   -0.1102   -0.9507 H   0  0  0  0  0  0  0  0  0  0  0  0
   -7.5289    2.0886   -1.1743 H   0  0  0  0  0  0  0  0  0  0  0  0
   -6.2217    4.1583   -0.7758 H   0  0  0  0  0  0  0  0  0  0  0  0
   -3.8255    4.0033   -0.1442 H   0  0  0  0  0  0  0  0  0  0  0  0
   -2.7434    1.8043    0.0926 H   0  0  0  0  0  0  0  0  0  0  0  0
   -5.4853   -2.1078   -0.5275 H   0  0  0  0  0  0  0  0  0  0  0  0
    1.9791    0.6218   -0.5730 H   0  0  0  0  0  0  0  0  0  0  0  0
  1  2  1  0
  2  3  1  0
  3  4  2  0
  4  5  1  0
  5  6  2  0
  6  7  1  0
  7  8  1  0
  8  9  1  0
  8 10  2  0
 10 11  1  0
 11 12  2  3
 12 13  1  0
 13 14  2  0
 14 15  1  0
 15 16  1  0
 16 17  2  0
 17 18  1  0
 18 19  2  0
 19 20  1  0
 20 21  2  0
 15 22  2  0
 22 23  1  0
 10 24  1  0
 24 25  2  0
 25  3  1  0
 24  6  1  0
 23 13  1  0
 21 16  1  0
  1 26  1  0
  1 27  1  0
  1 28  1  0
  2 29  1  0
  2 30  1  0
  4 31  1  0
  5 32  1  0
  7 33  1  0
  9 34  1  0
 17 35  1  0
 18 36  1  0
 19 37  1  0
 20 38  1  0
 21 39  1  0
 22 40  1  0
 25 41  1  0
M  END
$$$$
