
     RDKit          3D

 41 42  0  0  0  0  0  0  0  0999 V2000
   -6.6332    0.0482   -1.6874 C   0  0  0  0  0  0  0  0  0  0  0  0
   -5.9210   -0.3283   -0.5184 O   0  0  0  0  0  0  0  0  0  0  0  0
   -4.5663   -0.1076   -0.5010 C   0  0  0  0  0  0  0  0  0  0  0  0
   -3.8446    0.4793   -1.5449 C   0  0  0  0  0  0  0  0  0  0  0  0
   -2.4632    0.6667   -1.4360 C   0  0  0  0  0  0  0  0  0  0  0  0
   -1.7814    0.2803   -0.2774 C   0  0  0  0  0  0  0  0  0  0  0  0
   -0.2923    0.5057   -0.1485 C   0  0  0  0  0  0  0  0  0  0  0  0
    0.5488   -0.7519   -0.2280 C   0  0  0  0  0  0  0  0  0  0  0  0
    0.1205   -1.8977   -0.2872 O   0  0  0  0  0  0  0  0  0  0  0  0
    1.8717   -0.3663   -0.1912 O   0  0  0  0  0  0  0  0  0  0  0  0
    2.7113   -1.4877   -0.2964 N   0  0  0  0  0  0  0  0  0  0  0  0
    3.9757   -1.1748   -0.2456 C   0  0  0  0  0  0  0  0  0  0  0  0
    4.8880   -2.1829   -0.4308 N   0  0  0  0  0  0  0  0  0  0  0  0
    4.5068    0.1921    0.0097 C   0  0  0  0  0  0  0  0  0  0  0  0
    5.4391    0.7365   -0.8784 C   0  0  0  0  0  0  0  0  0  0  0  0
    5.9689    2.0036   -0.6323 C   0  0  0  0  0  0  0  0  0  0  0  0
    5.5762    2.7160    0.5024 C   0  0  0  0  0  0  0  0  0  0  0  0
    4.6563    2.1642    1.3959 C   0  0  0  0  0  0  0  0  0  0  0  0
    4.1226    0.8980    1.1539 C   0  0  0  0  0  0  0  0  0  0  0  0
   -2.5042   -0.3138    0.7684 C   0  0  0  0  0  0  0  0  0  0  0  0
   -3.8852   -0.5221    0.6584 C   0  0  0  0  0  0  0  0  0  0  0  0
   -4.6478   -1.0867    1.6524 O   0  0  0  0  0  0  0  0  0  0  0  0
   -3.9738   -1.9874    2.5223 C   0  0  0  0  0  0  0  0  0  0  0  0
   -6.2819   -0.5096   -2.5617 H   0  0  0  0  0  0  0  0  0  0  0  0
   -6.5734    1.1285   -1.8558 H   0  0  0  0  0  0  0  0  0  0  0  0
   -7.6866   -0.2054   -1.5337 H   0  0  0  0  0  0  0  0  0  0  0  0
   -4.3273    0.8022   -2.4610 H   0  0  0  0  0  0  0  0  0  0  0  0
   -1.9285    1.1224   -2.2669 H   0  0  0  0  0  0  0  0  0  0  0  0
    0.0422    1.1873   -0.9403 H   0  0  0  0  0  0  0  0  0  0  0  0
   -0.0949    0.9942    0.8136 H   0  0  0  0  0  0  0  0  0  0  0  0
    5.7558   -2.1001    0.0864 H   0  0  0  0  0  0  0  0  0  0  0  0
    4.4606   -3.1011   -0.3496 H   0  0  0  0  0  0  0  0  0  0  0  0
    5.7421    0.1828   -1.7637 H   0  0  0  0  0  0  0  0  0  0  0  0
    6.6872    2.4362   -1.3244 H   0  0  0  0  0  0  0  0  0  0  0  0
    5.9911    3.7033    0.6923 H   0  0  0  0  0  0  0  0  0  0  0  0
    4.3599    2.7193    2.2824 H   0  0  0  0  0  0  0  0  0  0  0  0
    3.4198    0.4617    1.8588 H   0  0  0  0  0  0  0  0  0  0  0  0
   -1.9718   -0.6067    1.6681 H   0  0  0  0  0  0  0  0  0  0  0  0
   -3.3657   -2.7103    1.9674 H   0  0  0  0  0  0  0  0  0  0  0  0
   -3.3679   -1.4406    3.2517 H   0  0  0  0  0  0  0  0  0  0  0  0
   -4.7333   -2.5474    3.0764 H   0  0  0  0  0  0  0  0  0  0  0  0
  1  2  1  0
  2  3  1  0
  3  4  2  0
  4  5  1  0
  5  6  2  0
  6  7  1  0
  7  8  1  0
  8  9  2  0
  8 10  1  0
 10 11  1  0
 11 12  2  3
 12 13  1  0
 12 14  1  0
 14 15  2  0
 15 16  1  0
 16 17  2  0
 17 18  1  0
 18 19  2  0
  6 20  1  0
 20 21  2  0
 21 22  1  0
 22 23  1  0
 21  3  1  0
 19 14  1  0
  1 24  1  0
  1 25  1  0
  1 26  1  0
  4 27  1  0
  5 28  1  0
  7 29  1  0
  7 30  1  0
 13 31  1  0
 13 32  1  0
 15 33  1  0
 16 34  1  0
 17 35  1  0
 18 36  1  0
 19 37  1  0
 20 38  1  0
 23 39  1  0
 23 40  1  0
 23 41  1  0
M  END
$$$$
