
     RDKit          3D

 49 52  0  0  0  0  0  0  0  0999 V2000
    3.2616    2.4191   -1.2285 O   0  0  0  0  0  0  0  0  0  0  0  0
    3.1931    1.6600   -0.2659 C   0  0  0  0  0  0  0  0  0  0  0  0
    1.9316    1.5714    0.5766 C   0  0  0  0  0  0  0  0  0  0  0  0
    1.0431    0.0380    0.1759 S   0  0  0  0  0  0  0  0  0  0  0  0
   -0.2740    0.1644    1.2865 C   0  0  0  0  0  0  0  0  0  0  0  0
   -0.2575    0.8395    2.4107 N   0  0  0  0  0  0  0  0  0  0  0  0
   -1.4853    0.6903    3.0038 N   0  0  0  0  0  0  0  0  0  0  0  0
   -2.2242   -0.0972    2.2443 C   0  0  0  0  0  0  0  0  0  0  0  0
   -3.6058   -0.4712    2.5202 C   0  0  0  0  0  0  0  0  0  0  0  0
   -3.9754   -1.8016    2.7229 C   0  0  0  0  0  0  0  0  0  0  0  0
   -5.3088   -2.0818    2.9713 C   0  0  0  0  0  0  0  0  0  0  0  0
   -6.2738   -1.1402    3.0303 N   0  0  0  0  0  0  0  0  0  0  0  0
   -5.8868    0.1433    2.8660 C   0  0  0  0  0  0  0  0  0  0  0  0
   -4.5802    0.5236    2.6148 C   0  0  0  0  0  0  0  0  0  0  0  0
   -1.4897   -0.4426    1.1252 N   0  0  0  0  0  0  0  0  0  0  0  0
   -1.9516   -1.2301   -0.0033 C   0  0  0  0  0  0  0  0  0  0  0  0
   -2.8078   -0.4189   -0.9743 C   0  0  0  0  0  0  0  0  0  0  0  0
   -3.4540   -1.2820   -2.0472 C   0  0  0  0  0  0  0  0  0  0  0  0
   -3.6656   -0.2818   -3.1564 C   0  0  0  0  0  0  0  0  0  0  0  0
   -2.4156    0.5662   -3.0578 C   0  0  0  0  0  0  0  0  0  0  0  0
   -2.0025    0.5399   -1.6831 O   0  0  0  0  0  0  0  0  0  0  0  0
    4.1986    0.8219    0.1875 N   0  0  0  0  0  0  0  0  0  0  0  0
    5.5066    0.6629   -0.3278 C   0  0  0  0  0  0  0  0  0  0  0  0
    6.0078    1.4138   -1.3946 C   0  0  0  0  0  0  0  0  0  0  0  0
    7.3142    1.2130   -1.8556 C   0  0  0  0  0  0  0  0  0  0  0  0
    8.1358    0.2607   -1.2567 C   0  0  0  0  0  0  0  0  0  0  0  0
    7.6533   -0.4960   -0.1915 C   0  0  0  0  0  0  0  0  0  0  0  0
    6.3490   -0.2954    0.2690 C   0  0  0  0  0  0  0  0  0  0  0  0
    5.7976   -1.2633    1.5969 Cl  0  0  0  0  0  0  0  0  0  0  0  0
    2.2077    1.5994    1.6361 H   0  0  0  0  0  0  0  0  0  0  0  0
    1.3011    2.4405    0.3621 H   0  0  0  0  0  0  0  0  0  0  0  0
   -3.2466   -2.6049    2.7097 H   0  0  0  0  0  0  0  0  0  0  0  0
   -5.6469   -3.1010    3.1391 H   0  0  0  0  0  0  0  0  0  0  0  0
   -6.6798    0.8821    2.9461 H   0  0  0  0  0  0  0  0  0  0  0  0
   -4.3268    1.5733    2.4981 H   0  0  0  0  0  0  0  0  0  0  0  0
   -2.5134   -2.0801    0.3947 H   0  0  0  0  0  0  0  0  0  0  0  0
   -1.0768   -1.6467   -0.5126 H   0  0  0  0  0  0  0  0  0  0  0  0
   -3.5813    0.1477   -0.4418 H   0  0  0  0  0  0  0  0  0  0  0  0
   -2.7669   -2.0670   -2.3867 H   0  0  0  0  0  0  0  0  0  0  0  0
   -4.3790   -1.7574   -1.7089 H   0  0  0  0  0  0  0  0  0  0  0  0
   -3.7959   -0.7375   -4.1417 H   0  0  0  0  0  0  0  0  0  0  0  0
   -4.5506    0.3295   -2.9420 H   0  0  0  0  0  0  0  0  0  0  0  0
   -1.6014    0.1452   -3.6573 H   0  0  0  0  0  0  0  0  0  0  0  0
   -2.5833    1.6002   -3.3731 H   0  0  0  0  0  0  0  0  0  0  0  0
    3.9664    0.2015    0.9588 H   0  0  0  0  0  0  0  0  0  0  0  0
    5.4083    2.1693   -1.8938 H   0  0  0  0  0  0  0  0  0  0  0  0
    7.6865    1.8072   -2.6877 H   0  0  0  0  0  0  0  0  0  0  0  0
    9.1497    0.1103   -1.6194 H   0  0  0  0  0  0  0  0  0  0  0  0
    8.2957   -1.2379    0.2761 H   0  0  0  0  0  0  0  0  0  0  0  0
  1  2  2  0
  2  3  1  0
  3  4  1  0
  4  5  1  0
  5  6  2  0
  6  7  1  0
  7  8  2  0
  8  9  1  0
  9 10  2  0
 10 11  1  0
 11 12  2  0
 12 13  1  0
 13 14  2  0
  8 15  1  0
 15 16  1  0
 16 17  1  0
 17 18  1  0
 18 19  1  0
 19 20  1  0
 20 21  1  0
  2 22  1  0
 22 23  1  0
 23 24  2  0
 24 25  1  0
 25 26  2  0
 26 27  1  0
 27 28  2  0
 28 29  1  0
 15  5  1  0
 21 17  1  0
 28 23  1  0
 14  9  1  0
  3 30  1  0
  3 31  1  0
 10 32  1  0
 11 33  1  0
 13 34  1  0
 14 35  1  0
 16 36  1  0
 16 37  1  0
 17 38  1  0
 18 39  1  0
 18 40  1  0
 19 41  1  0
 19 42  1  0
 20 43  1  0
 20 44  1  0
 22 45  1  0
 24 46  1  0
 25 47  1  0
 26 48  1  0
 27 49  1  0
M  END
$$$$
