
     RDKit          3D

 44 47  0  0  0  0  0  0  0  0999 V2000
    5.2388    0.5369   -1.9386 C   0  0  0  0  0  0  0  0  0  0  0  0
    5.8543    0.1512   -0.7163 O   0  0  0  0  0  0  0  0  0  0  0  0
    5.0297   -0.2445    0.2983 C   0  0  0  0  0  0  0  0  0  0  0  0
    5.6807   -0.6166    1.4685 C   0  0  0  0  0  0  0  0  0  0  0  0
    4.9478   -1.0379    2.5806 C   0  0  0  0  0  0  0  0  0  0  0  0
    3.5635   -1.1023    2.5612 C   0  0  0  0  0  0  0  0  0  0  0  0
    2.9332   -1.5156    3.6727 N   0  0  0  0  0  0  0  0  0  0  0  0
    1.5876   -1.5808    3.6557 C   0  0  0  0  0  0  0  0  0  0  0  0
    0.8182   -1.2461    2.5616 C   0  0  0  0  0  0  0  0  0  0  0  0
    1.4665   -0.8110    1.4039 C   0  0  0  0  0  0  0  0  0  0  0  0
    0.6465   -0.4767    0.2284 C   0  0  0  0  0  0  0  0  0  0  0  0
   -0.2567    0.5154    0.2463 C   0  0  0  0  0  0  0  0  0  0  0  0
   -1.0854    0.8407   -0.9246 C   0  0  0  0  0  0  0  0  0  0  0  0
   -0.4547    1.3126   -2.0767 C   0  0  0  0  0  0  0  0  0  0  0  0
   -1.2383    1.6340   -3.1652 C   0  0  0  0  0  0  0  0  0  0  0  0
   -2.5813    1.5205   -3.1820 N   0  0  0  0  0  0  0  0  0  0  0  0
   -3.1942    1.0709   -2.0748 C   0  0  0  0  0  0  0  0  0  0  0  0
   -4.5771    0.9555   -2.0893 C   0  0  0  0  0  0  0  0  0  0  0  0
   -5.2992    0.4940   -0.9823 C   0  0  0  0  0  0  0  0  0  0  0  0
   -4.6274    0.1334    0.1775 C   0  0  0  0  0  0  0  0  0  0  0  0
   -5.1957   -0.3337    1.3289 O   0  0  0  0  0  0  0  0  0  0  0  0
   -6.6124   -0.4620    1.3403 C   0  0  0  0  0  0  0  0  0  0  0  0
   -3.2359    0.2427    0.2118 C   0  0  0  0  0  0  0  0  0  0  0  0
   -2.4965    0.7120   -0.9025 C   0  0  0  0  0  0  0  0  0  0  0  0
    2.8820   -0.7324    1.3805 C   0  0  0  0  0  0  0  0  0  0  0  0
    3.6373   -0.3014    0.2567 C   0  0  0  0  0  0  0  0  0  0  0  0
    4.5943    1.4108   -1.7971 H   0  0  0  0  0  0  0  0  0  0  0  0
    6.0317    0.8178   -2.6384 H   0  0  0  0  0  0  0  0  0  0  0  0
    4.6836   -0.2968   -2.3813 H   0  0  0  0  0  0  0  0  0  0  0  0
    6.7659   -0.5793    1.5227 H   0  0  0  0  0  0  0  0  0  0  0  0
    5.4750   -1.3232    3.4881 H   0  0  0  0  0  0  0  0  0  0  0  0
    1.1296   -1.9256    4.5785 H   0  0  0  0  0  0  0  0  0  0  0  0
   -0.2619   -1.3332    2.6122 H   0  0  0  0  0  0  0  0  0  0  0  0
    0.8134   -1.0831   -0.6586 H   0  0  0  0  0  0  0  0  0  0  0  0
   -0.4289    1.1187    1.1347 H   0  0  0  0  0  0  0  0  0  0  0  0
    0.6212    1.4383   -2.1263 H   0  0  0  0  0  0  0  0  0  0  0  0
   -0.7952    2.0073   -4.0841 H   0  0  0  0  0  0  0  0  0  0  0  0
   -5.1134    1.2339   -2.9941 H   0  0  0  0  0  0  0  0  0  0  0  0
   -6.3785    0.4308   -1.0687 H   0  0  0  0  0  0  0  0  0  0  0  0
   -7.0977    0.5099    1.2019 H   0  0  0  0  0  0  0  0  0  0  0  0
   -6.9494   -1.1835    0.5887 H   0  0  0  0  0  0  0  0  0  0  0  0
   -6.9055   -0.8435    2.3232 H   0  0  0  0  0  0  0  0  0  0  0  0
   -2.7236   -0.0491    1.1259 H   0  0  0  0  0  0  0  0  0  0  0  0
    3.1082   -0.0088   -0.6436 H   0  0  0  0  0  0  0  0  0  0  0  0
  1  2  1  0
  2  3  1  0
  3  4  2  0
  4  5  1  0
  5  6  2  0
  6  7  1  0
  7  8  2  0
  8  9  1  0
  9 10  2  0
 10 11  1  0
 11 12  2  3
 12 13  1  0
 13 14  2  0
 14 15  1  0
 15 16  2  0
 16 17  1  0
 17 18  2  0
 18 19  1  0
 19 20  2  0
 20 21  1  0
 21 22  1  0
 20 23  1  0
 23 24  2  0
 10 25  1  0
 25 26  2  0
 26  3  1  0
 25  6  1  0
 24 13  1  0
 24 17  1  0
  1 27  1  0
  1 28  1  0
  1 29  1  0
  4 30  1  0
  5 31  1  0
  8 32  1  0
  9 33  1  0
 11 34  1  0
 12 35  1  0
 14 36  1  0
 15 37  1  0
 18 38  1  0
 19 39  1  0
 22 40  1  0
 22 41  1  0
 22 42  1  0
 23 43  1  0
 26 44  1  0
M  END
$$$$
