
     RDKit          3D

 46 48  0  0  0  0  0  0  0  0999 V2000
   -0.8149    4.2801    0.1086 C   0  0  0  0  0  0  0  0  0  0  0  0
   -1.4169    3.1498   -0.7211 C   0  0  0  0  0  0  0  0  0  0  0  0
   -0.9725    1.7223   -0.3531 C   0  0  0  0  0  0  0  0  0  0  0  0
   -1.1467    1.3462    1.4417 S   0  0  0  0  0  0  0  0  0  0  0  0
   -2.8498    1.1224    1.5559 C   0  0  0  0  0  0  0  0  0  0  0  0
   -3.6882    0.8881    0.5783 N   0  0  0  0  0  0  0  0  0  0  0  0
   -4.9148    0.7803    1.1912 C   0  0  0  0  0  0  0  0  0  0  0  0
   -6.1776    0.5358    0.6327 C   0  0  0  0  0  0  0  0  0  0  0  0
   -7.2866    0.4665    1.4854 C   0  0  0  0  0  0  0  0  0  0  0  0
   -7.1425    0.6392    2.8648 C   0  0  0  0  0  0  0  0  0  0  0  0
   -5.8915    0.8865    3.4416 C   0  0  0  0  0  0  0  0  0  0  0  0
   -4.8027    0.9484    2.5697 C   0  0  0  0  0  0  0  0  0  0  0  0
   -3.4633    1.1634    2.7723 N   0  0  0  0  0  0  0  0  0  0  0  0
    0.4764    1.4212   -0.7846 C   0  0  0  0  0  0  0  0  0  0  0  0
    1.1928    2.2682   -1.3114 O   0  0  0  0  0  0  0  0  0  0  0  0
    0.8311    0.0966   -0.5584 N   0  0  0  0  0  0  0  0  0  0  0  0
    2.0528   -0.5378   -0.8541 C   0  0  0  0  0  0  0  0  0  0  0  0
    3.1231    0.0826   -1.4945 C   0  0  0  0  0  0  0  0  0  0  0  0
    4.3064   -0.6249   -1.7465 C   0  0  0  0  0  0  0  0  0  0  0  0
    4.4406   -1.9643   -1.3644 C   0  0  0  0  0  0  0  0  0  0  0  0
    5.6670   -2.5982   -1.6523 N   0  0  0  0  0  0  0  0  0  0  0  0
    6.0240   -3.9046   -1.3762 C   0  0  0  0  0  0  0  0  0  0  0  0
    7.4254   -4.2387   -1.8276 C   0  0  0  0  0  0  0  0  0  0  0  0
    5.3272   -4.7610   -0.8420 O   0  0  0  0  0  0  0  0  0  0  0  0
    3.3684   -2.5855   -0.7280 C   0  0  0  0  0  0  0  0  0  0  0  0
    2.1852   -1.8779   -0.4757 C   0  0  0  0  0  0  0  0  0  0  0  0
   -1.1067    5.2458   -0.3182 H   0  0  0  0  0  0  0  0  0  0  0  0
    0.2778    4.2395    0.1240 H   0  0  0  0  0  0  0  0  0  0  0  0
   -1.1772    4.2609    1.1407 H   0  0  0  0  0  0  0  0  0  0  0  0
   -2.5097    3.2189   -0.6480 H   0  0  0  0  0  0  0  0  0  0  0  0
   -1.1770    3.3350   -1.7760 H   0  0  0  0  0  0  0  0  0  0  0  0
   -1.5924    1.0197   -0.9257 H   0  0  0  0  0  0  0  0  0  0  0  0
   -6.2841    0.4027   -0.4382 H   0  0  0  0  0  0  0  0  0  0  0  0
   -8.2718    0.2759    1.0661 H   0  0  0  0  0  0  0  0  0  0  0  0
   -8.0216    0.5795    3.5040 H   0  0  0  0  0  0  0  0  0  0  0  0
   -5.7819    1.0198    4.5124 H   0  0  0  0  0  0  0  0  0  0  0  0
   -3.0034    1.3297    3.6542 H   0  0  0  0  0  0  0  0  0  0  0  0
    0.1401   -0.4671   -0.0750 H   0  0  0  0  0  0  0  0  0  0  0  0
    3.0746    1.1182   -1.8153 H   0  0  0  0  0  0  0  0  0  0  0  0
    5.1173   -0.1021   -2.2478 H   0  0  0  0  0  0  0  0  0  0  0  0
    6.3572   -2.0221   -2.1169 H   0  0  0  0  0  0  0  0  0  0  0  0
    8.0007   -3.3444   -2.0841 H   0  0  0  0  0  0  0  0  0  0  0  0
    7.3715   -4.8886   -2.7050 H   0  0  0  0  0  0  0  0  0  0  0  0
    7.9467   -4.7559   -1.0165 H   0  0  0  0  0  0  0  0  0  0  0  0
    3.4146   -3.6229   -0.4110 H   0  0  0  0  0  0  0  0  0  0  0  0
    1.3728   -2.4001    0.0238 H   0  0  0  0  0  0  0  0  0  0  0  0
  1  2  1  0
  2  3  1  0
  3  4  1  0
  4  5  1  0
  5  6  2  0
  6  7  1  0
  7  8  2  0
  8  9  1  0
  9 10  2  0
 10 11  1  0
 11 12  2  0
 12 13  1  0
  3 14  1  0
 14 15  2  0
 14 16  1  0
 16 17  1  0
 17 18  2  0
 18 19  1  0
 19 20  2  0
 20 21  1  0
 21 22  1  0
 22 23  1  0
 22 24  2  0
 20 25  1  0
 25 26  2  0
 13  5  1  0
 26 17  1  0
 12  7  1  0
  1 27  1  0
  1 28  1  0
  1 29  1  0
  2 30  1  0
  2 31  1  0
  3 32  1  0
  8 33  1  0
  9 34  1  0
 10 35  1  0
 11 36  1  0
 13 37  1  0
 16 38  1  0
 18 39  1  0
 19 40  1  0
 21 41  1  0
 23 42  1  0
 23 43  1  0
 23 44  1  0
 25 45  1  0
 26 46  1  0
M  END
$$$$
