
     RDKit          3D

 45 47  0  0  0  0  0  0  0  0999 V2000
    6.7084    0.7606    2.6764 C   0  0  0  0  0  0  0  0  0  0  0  0
    5.5055    0.6199    1.7912 C   0  0  0  0  0  0  0  0  0  0  0  0
    4.2587    0.3104    2.3382 C   0  0  0  0  0  0  0  0  0  0  0  0
    3.1364    0.2054    1.5151 C   0  0  0  0  0  0  0  0  0  0  0  0
    3.2367    0.4133    0.1307 C   0  0  0  0  0  0  0  0  0  0  0  0
    2.0279    0.2596   -0.6646 C   0  0  0  0  0  0  0  0  0  0  0  0
    1.9006   -0.6549   -1.6895 C   0  0  0  0  0  0  0  0  0  0  0  0
    0.3295   -0.5610   -2.3629 S   0  0  0  0  0  0  0  0  0  0  0  0
   -0.0733    0.6863   -1.2379 C   0  0  0  0  0  0  0  0  0  0  0  0
   -1.4324    1.3220   -1.2032 C   0  0  0  0  0  0  0  0  0  0  0  0
   -1.8684    1.8021   -2.5181 C   0  0  0  0  0  0  0  0  0  0  0  0
   -2.1921    2.2312   -3.5486 N   0  0  0  0  0  0  0  0  0  0  0  0
   -2.3785    0.3432   -0.5637 C   0  0  0  0  0  0  0  0  0  0  0  0
   -3.2298   -0.3666   -1.2370 N   0  0  0  0  0  0  0  0  0  0  0  0
   -4.0494   -1.2460   -0.5038 C   0  0  0  0  0  0  0  0  0  0  0  0
   -3.4800   -2.3664    0.1199 C   0  0  0  0  0  0  0  0  0  0  0  0
   -4.2714   -3.2722    0.8275 C   0  0  0  0  0  0  0  0  0  0  0  0
   -5.6477   -3.0794    0.9026 C   0  0  0  0  0  0  0  0  0  0  0  0
   -6.2342   -1.9840    0.2666 C   0  0  0  0  0  0  0  0  0  0  0  0
   -5.4450   -1.0600   -0.4348 C   0  0  0  0  0  0  0  0  0  0  0  0
   -6.2781    0.2955   -1.2570 S   0  0  0  0  0  0  0  0  0  0  0  0
   -5.9086    1.6003   -0.0910 C   0  0  0  0  0  0  0  0  0  0  0  0
   -4.5968    1.9452   -0.0773 F   0  0  0  0  0  0  0  0  0  0  0  0
   -6.6059    2.7258   -0.3837 F   0  0  0  0  0  0  0  0  0  0  0  0
   -6.2412    1.2537    1.1775 F   0  0  0  0  0  0  0  0  0  0  0  0
    0.8869    0.9935   -0.3862 N   0  0  0  0  0  0  0  0  0  0  0  0
    4.4791    0.7737   -0.4277 C   0  0  0  0  0  0  0  0  0  0  0  0
    4.6538    1.0700   -1.8928 C   0  0  0  0  0  0  0  0  0  0  0  0
    5.6036    0.8619    0.4145 C   0  0  0  0  0  0  0  0  0  0  0  0
    7.6279    0.5332    2.1266 H   0  0  0  0  0  0  0  0  0  0  0  0
    6.7714    1.7826    3.0625 H   0  0  0  0  0  0  0  0  0  0  0  0
    6.6545    0.0646    3.5202 H   0  0  0  0  0  0  0  0  0  0  0  0
    4.1513    0.1475    3.4082 H   0  0  0  0  0  0  0  0  0  0  0  0
    2.1744   -0.0415    1.9600 H   0  0  0  0  0  0  0  0  0  0  0  0
    2.6303   -1.3586   -2.0642 H   0  0  0  0  0  0  0  0  0  0  0  0
   -1.3885    2.1837   -0.5240 H   0  0  0  0  0  0  0  0  0  0  0  0
   -2.2934    0.2439    0.5363 H   0  0  0  0  0  0  0  0  0  0  0  0
   -2.4105   -2.5448    0.0406 H   0  0  0  0  0  0  0  0  0  0  0  0
   -3.8148   -4.1349    1.3073 H   0  0  0  0  0  0  0  0  0  0  0  0
   -6.2687   -3.7896    1.4438 H   0  0  0  0  0  0  0  0  0  0  0  0
   -7.3143   -1.8621    0.3189 H   0  0  0  0  0  0  0  0  0  0  0  0
    4.6628    0.1418   -2.4713 H   0  0  0  0  0  0  0  0  0  0  0  0
    5.5983    1.5919   -2.0813 H   0  0  0  0  0  0  0  0  0  0  0  0
    3.8552    1.7243   -2.2567 H   0  0  0  0  0  0  0  0  0  0  0  0
    6.5700    1.1340   -0.0075 H   0  0  0  0  0  0  0  0  0  0  0  0
  1  2  1  0
  2  3  2  0
  3  4  1  0
  4  5  2  0
  5  6  1  0
  6  7  2  0
  7  8  1  0
  8  9  1  0
  9 10  1  0
 10 11  1  0
 11 12  3  0
 10 13  1  0
 13 14  2  3
 14 15  1  0
 15 16  2  0
 16 17  1  0
 17 18  2  0
 18 19  1  0
 19 20  2  0
 20 21  1  0
 21 22  1  0
 22 23  1  0
 22 24  1  0
 22 25  1  0
  9 26  2  0
  5 27  1  0
 27 28  1  0
 27 29  2  0
 29  2  1  0
 26  6  1  0
 20 15  1  0
  1 30  1  0
  1 31  1  0
  1 32  1  0
  3 33  1  0
  4 34  1  0
  7 35  1  0
 10 36  1  0
 13 37  1  0
 16 38  1  0
 17 39  1  0
 18 40  1  0
 19 41  1  0
 28 42  1  0
 28 43  1  0
 28 44  1  0
 29 45  1  0
M  END
$$$$
