
     RDKit          3D

 42 44  0  0  0  0  0  0  0  0999 V2000
   -5.2962    3.1592    0.5981 N   0  0  0  0  0  0  0  0  0  0  0  0
   -5.2289    2.1469    0.0342 C   0  0  0  0  0  0  0  0  0  0  0  0
   -5.1816    0.8804   -0.7077 C   0  0  0  0  0  0  0  0  0  0  0  0
   -4.6007   -0.2625    0.1367 C   0  0  0  0  0  0  0  0  0  0  0  0
   -3.1830   -0.1107    0.5062 N   0  0  0  0  0  0  0  0  0  0  0  0
   -2.2867   -0.0541   -0.6667 C   0  0  0  0  0  0  0  0  0  0  0  0
   -0.8284   -0.4472   -0.3576 C   0  0  0  0  0  0  0  0  0  0  0  0
   -0.7284   -1.8196    0.1670 N   0  0  0  0  0  0  0  0  0  0  0  0
    0.3821   -2.6429   -0.0768 C   0  0  0  0  0  0  0  0  0  0  0  0
    0.3769   -4.3163    0.1463 S   0  0  0  0  0  0  0  0  0  0  0  0
    1.6276   -2.0515   -0.5465 C   0  0  0  0  0  0  0  0  0  0  0  0
    2.6561   -2.5197   -1.3490 C   0  0  0  0  0  0  0  0  0  0  0  0
    3.6261   -1.4904   -1.4313 C   0  0  0  0  0  0  0  0  0  0  0  0
    3.1577   -0.4429   -0.6661 C   0  0  0  0  0  0  0  0  0  0  0  0
    3.6583    0.8885   -0.3322 C   0  0  0  0  0  0  0  0  0  0  0  0
    2.9886    1.7075    0.5899 C   0  0  0  0  0  0  0  0  0  0  0  0
    3.4708    2.9822    0.9056 C   0  0  0  0  0  0  0  0  0  0  0  0
    4.6348    3.4605    0.3031 C   0  0  0  0  0  0  0  0  0  0  0  0
    5.1762    5.0421    0.7357 Cl  0  0  0  0  0  0  0  0  0  0  0  0
    5.3150    2.6575   -0.6166 C   0  0  0  0  0  0  0  0  0  0  0  0
    6.7623    3.1778   -1.4061 Cl  0  0  0  0  0  0  0  0  0  0  0  0
    4.8282    1.3813   -0.9295 C   0  0  0  0  0  0  0  0  0  0  0  0
    1.9509   -0.7846   -0.1286 O   0  0  0  0  0  0  0  0  0  0  0  0
   -1.9235   -2.2940    0.8858 C   0  0  0  0  0  0  0  0  0  0  0  0
   -2.7520   -1.1382    1.4784 C   0  0  0  0  0  0  0  0  0  0  0  0
   -6.2025    0.6076   -1.0018 H   0  0  0  0  0  0  0  0  0  0  0  0
   -4.6195    1.0072   -1.6391 H   0  0  0  0  0  0  0  0  0  0  0  0
   -5.2016   -0.3332    1.0535 H   0  0  0  0  0  0  0  0  0  0  0  0
   -4.7419   -1.2077   -0.4040 H   0  0  0  0  0  0  0  0  0  0  0  0
   -2.2947    0.9633   -1.0734 H   0  0  0  0  0  0  0  0  0  0  0  0
   -2.6522   -0.7272   -1.4541 H   0  0  0  0  0  0  0  0  0  0  0  0
   -0.2403   -0.3546   -1.2762 H   0  0  0  0  0  0  0  0  0  0  0  0
   -0.4070    0.2281    0.3962 H   0  0  0  0  0  0  0  0  0  0  0  0
    2.7010   -3.4918   -1.8220 H   0  0  0  0  0  0  0  0  0  0  0  0
    4.5576   -1.5225   -1.9786 H   0  0  0  0  0  0  0  0  0  0  0  0
    2.0807    1.3588    1.0801 H   0  0  0  0  0  0  0  0  0  0  0  0
    2.9308    3.5938    1.6249 H   0  0  0  0  0  0  0  0  0  0  0  0
    5.3727    0.7745   -1.6493 H   0  0  0  0  0  0  0  0  0  0  0  0
   -2.5308   -2.8678    0.1753 H   0  0  0  0  0  0  0  0  0  0  0  0
   -1.6219   -2.9648    1.6968 H   0  0  0  0  0  0  0  0  0  0  0  0
   -3.6021   -1.5476    2.0377 H   0  0  0  0  0  0  0  0  0  0  0  0
   -2.1304   -0.6251    2.2241 H   0  0  0  0  0  0  0  0  0  0  0  0
  1  2  3  0
  2  3  1  0
  3  4  1  0
  4  5  1  0
  5  6  1  0
  6  7  1  0
  7  8  1  0
  8  9  1  0
  9 10  2  0
  9 11  1  0
 11 12  2  0
 12 13  1  0
 13 14  2  0
 14 15  1  0
 15 16  2  0
 16 17  1  0
 17 18  2  0
 18 19  1  0
 18 20  1  0
 20 21  1  0
 20 22  2  0
 14 23  1  0
  8 24  1  0
 24 25  1  0
 25  5  1  0
 23 11  1  0
 22 15  1  0
  3 26  1  0
  3 27  1  0
  4 28  1  0
  4 29  1  0
  6 30  1  0
  6 31  1  0
  7 32  1  0
  7 33  1  0
 12 34  1  0
 13 35  1  0
 16 36  1  0
 17 37  1  0
 22 38  1  0
 24 39  1  0
 24 40  1  0
 25 41  1  0
 25 42  1  0
M  END
$$$$
