
     RDKit          3D

 48 50  0  0  0  0  0  0  0  0999 V2000
   -1.9022    4.7609   -1.2779 C   0  0  0  0  0  0  0  0  0  0  0  0
   -1.7584    3.6582   -2.3094 C   0  0  0  0  0  0  0  0  0  0  0  0
   -1.1222    2.5122   -1.7222 O   0  0  0  0  0  0  0  0  0  0  0  0
   -1.9463    1.6253   -1.0849 C   0  0  0  0  0  0  0  0  0  0  0  0
   -3.1592    1.7754   -0.9987 O   0  0  0  0  0  0  0  0  0  0  0  0
   -1.2295    0.4737   -0.5080 C   0  0  0  0  0  0  0  0  0  0  0  0
    0.1328    0.2257   -0.6625 C   0  0  0  0  0  0  0  0  0  0  0  0
    1.0449    1.0205   -1.3454 N   0  0  0  0  0  0  0  0  0  0  0  0
    2.3875    0.9275   -1.6155 C   0  0  0  0  0  0  0  0  0  0  0  0
    3.0178    2.2601   -2.4156 S   0  0  0  0  0  0  0  0  0  0  0  0
    3.0282   -0.2239   -1.2601 N   0  0  0  0  0  0  0  0  0  0  0  0
    4.3852   -0.6159   -1.2365 C   0  0  0  0  0  0  0  0  0  0  0  0
    5.4768    0.2477   -1.3194 C   0  0  0  0  0  0  0  0  0  0  0  0
    6.7856   -0.2479   -1.2682 C   0  0  0  0  0  0  0  0  0  0  0  0
    7.0172   -1.6125   -1.1219 C   0  0  0  0  0  0  0  0  0  0  0  0
    5.9391   -2.4843   -1.0172 C   0  0  0  0  0  0  0  0  0  0  0  0
    4.6338   -1.9873   -1.0678 C   0  0  0  0  0  0  0  0  0  0  0  0
    0.6159   -1.2011    0.1126 S   0  0  0  0  0  0  0  0  0  0  0  0
   -0.9535   -1.5546    0.6566 C   0  0  0  0  0  0  0  0  0  0  0  0
   -1.8575   -0.5714    0.2954 C   0  0  0  0  0  0  0  0  0  0  0  0
   -3.3252   -0.6269    0.6605 C   0  0  0  0  0  0  0  0  0  0  0  0
   -3.6891   -1.5832    1.8215 C   0  0  0  0  0  0  0  0  0  0  0  0
   -5.2152   -1.7764    1.8516 C   0  0  0  0  0  0  0  0  0  0  0  0
   -3.2433   -1.0189    3.1812 C   0  0  0  0  0  0  0  0  0  0  0  0
   -2.9467   -3.2519    1.5502 S   0  0  0  0  0  0  0  0  0  0  0  0
   -1.1888   -2.7958    1.4596 C   0  0  0  0  0  0  0  0  0  0  0  0
   -2.3278    5.6614   -1.7300 H   0  0  0  0  0  0  0  0  0  0  0  0
   -2.5478    4.4461   -0.4520 H   0  0  0  0  0  0  0  0  0  0  0  0
   -0.9283    5.0100   -0.8436 H   0  0  0  0  0  0  0  0  0  0  0  0
   -1.1098    3.9992   -3.1229 H   0  0  0  0  0  0  0  0  0  0  0  0
   -2.7233    3.3941   -2.7567 H   0  0  0  0  0  0  0  0  0  0  0  0
    0.6502    1.8860   -1.7116 H   0  0  0  0  0  0  0  0  0  0  0  0
    2.3822   -0.9704   -1.0370 H   0  0  0  0  0  0  0  0  0  0  0  0
    5.3597    1.3214   -1.3926 H   0  0  0  0  0  0  0  0  0  0  0  0
    7.6239    0.4412   -1.3360 H   0  0  0  0  0  0  0  0  0  0  0  0
    8.0346   -1.9922   -1.0829 H   0  0  0  0  0  0  0  0  0  0  0  0
    6.1107   -3.5506   -0.8967 H   0  0  0  0  0  0  0  0  0  0  0  0
    3.8118   -2.6941   -0.9856 H   0  0  0  0  0  0  0  0  0  0  0  0
   -3.6683    0.3787    0.9333 H   0  0  0  0  0  0  0  0  0  0  0  0
   -3.8754   -0.9138   -0.2466 H   0  0  0  0  0  0  0  0  0  0  0  0
   -5.5923   -2.1973    0.9118 H   0  0  0  0  0  0  0  0  0  0  0  0
   -5.5264   -2.4389    2.6683 H   0  0  0  0  0  0  0  0  0  0  0  0
   -5.7238   -0.8166    2.0021 H   0  0  0  0  0  0  0  0  0  0  0  0
   -2.1682   -0.8201    3.2280 H   0  0  0  0  0  0  0  0  0  0  0  0
   -3.4951   -1.7009    4.0021 H   0  0  0  0  0  0  0  0  0  0  0  0
   -3.7488   -0.0676    3.3867 H   0  0  0  0  0  0  0  0  0  0  0  0
   -0.8076   -2.6646    2.4779 H   0  0  0  0  0  0  0  0  0  0  0  0
   -0.6576   -3.6464    1.0186 H   0  0  0  0  0  0  0  0  0  0  0  0
  1  2  1  0
  2  3  1  0
  3  4  1  0
  4  5  2  0
  4  6  1  0
  6  7  2  0
  7  8  1  0
  8  9  1  0
  9 10  2  0
  9 11  1  0
 11 12  1  0
 12 13  2  0
 13 14  1  0
 14 15  2  0
 15 16  1  0
 16 17  2  0
  7 18  1  0
 18 19  1  0
 19 20  2  0
 20 21  1  0
 21 22  1  0
 22 23  1  0
 22 24  1  0
 22 25  1  0
 25 26  1  0
 20  6  1  0
 17 12  1  0
 26 19  1  0
  1 27  1  0
  1 28  1  0
  1 29  1  0
  2 30  1  0
  2 31  1  0
  8 32  1  0
 11 33  1  0
 13 34  1  0
 14 35  1  0
 15 36  1  0
 16 37  1  0
 17 38  1  0
 21 39  1  0
 21 40  1  0
 23 41  1  0
 23 42  1  0
 23 43  1  0
 24 44  1  0
 24 45  1  0
 24 46  1  0
 26 47  1  0
 26 48  1  0
M  END
$$$$
