
     RDKit          3D

 50 52  0  0  0  0  0  0  0  0999 V2000
    5.6346   -3.7092   -0.1785 C   0  0  0  0  0  0  0  0  0  0  0  0
    4.5703   -2.8041   -0.7233 C   0  0  0  0  0  0  0  0  0  0  0  0
    3.7983   -2.0288    0.1482 C   0  0  0  0  0  0  0  0  0  0  0  0
    2.7924   -1.1922   -0.3447 C   0  0  0  0  0  0  0  0  0  0  0  0
    2.5516   -1.1115   -1.7172 C   0  0  0  0  0  0  0  0  0  0  0  0
    1.2765   -0.0630   -2.3905 S   0  0  0  0  0  0  0  0  0  0  0  0
    1.9015    1.5819   -1.8996 C   0  0  0  0  0  0  0  0  0  0  0  0
    1.2875    2.0238   -0.5788 C   0  0  0  0  0  0  0  0  0  0  0  0
    1.9558    1.9475    0.4578 O   0  0  0  0  0  0  0  0  0  0  0  0
   -0.0187    2.5141   -0.5522 N   0  0  0  0  0  0  0  0  0  0  0  0
   -0.5373    2.8958    0.7714 C   0  0  0  0  0  0  0  0  0  0  0  0
   -1.0710    1.7088    1.4934 C   0  0  0  0  0  0  0  0  0  0  0  0
   -2.1860    1.0381    1.3035 N   0  0  0  0  0  0  0  0  0  0  0  0
   -2.1148    0.0564    2.2703 C   0  0  0  0  0  0  0  0  0  0  0  0
   -3.1429   -0.9702    2.4112 C   0  0  0  0  0  0  0  0  0  0  0  0
   -3.0726   -1.9335    3.4288 C   0  0  0  0  0  0  0  0  0  0  0  0
   -4.0571   -2.9186    3.5466 C   0  0  0  0  0  0  0  0  0  0  0  0
   -5.1214   -2.9525    2.6488 C   0  0  0  0  0  0  0  0  0  0  0  0
   -5.2062   -2.0008    1.6339 C   0  0  0  0  0  0  0  0  0  0  0  0
   -4.2231   -1.0148    1.5165 C   0  0  0  0  0  0  0  0  0  0  0  0
   -1.0251    0.1427    3.0503 N   0  0  0  0  0  0  0  0  0  0  0  0
   -0.3286    1.2330    2.5344 O   0  0  0  0  0  0  0  0  0  0  0  0
   -0.8290    2.8198   -1.7524 C   0  0  0  0  0  0  0  0  0  0  0  0
   -2.2929    2.3894   -1.6405 C   0  0  0  0  0  0  0  0  0  0  0  0
   -0.7186    4.3052   -2.1055 C   0  0  0  0  0  0  0  0  0  0  0  0
    3.3054   -1.9040   -2.5881 C   0  0  0  0  0  0  0  0  0  0  0  0
    4.3088   -2.7437   -2.0958 C   0  0  0  0  0  0  0  0  0  0  0  0
    5.1777   -4.5351    0.3766 H   0  0  0  0  0  0  0  0  0  0  0  0
    6.3017   -3.1525    0.4883 H   0  0  0  0  0  0  0  0  0  0  0  0
    6.2482   -4.1337   -0.9805 H   0  0  0  0  0  0  0  0  0  0  0  0
    3.9698   -2.0727    1.2210 H   0  0  0  0  0  0  0  0  0  0  0  0
    2.1998   -0.6174    0.3627 H   0  0  0  0  0  0  0  0  0  0  0  0
    2.9925    1.5636   -1.7963 H   0  0  0  0  0  0  0  0  0  0  0  0
    1.6886    2.3143   -2.6826 H   0  0  0  0  0  0  0  0  0  0  0  0
   -1.3209    3.6513    0.6622 H   0  0  0  0  0  0  0  0  0  0  0  0
    0.2618    3.3656    1.3565 H   0  0  0  0  0  0  0  0  0  0  0  0
   -2.2480   -1.9270    4.1393 H   0  0  0  0  0  0  0  0  0  0  0  0
   -3.9885   -3.6616    4.3375 H   0  0  0  0  0  0  0  0  0  0  0  0
   -5.8840   -3.7216    2.7386 H   0  0  0  0  0  0  0  0  0  0  0  0
   -6.0338   -2.0274    0.9299 H   0  0  0  0  0  0  0  0  0  0  0  0
   -4.3025   -0.2817    0.7165 H   0  0  0  0  0  0  0  0  0  0  0  0
   -0.4230    2.2688   -2.6025 H   0  0  0  0  0  0  0  0  0  0  0  0
   -2.8158    2.5627   -2.5876 H   0  0  0  0  0  0  0  0  0  0  0  0
   -2.8315    2.9426   -0.8650 H   0  0  0  0  0  0  0  0  0  0  0  0
   -2.3660    1.3208   -1.4139 H   0  0  0  0  0  0  0  0  0  0  0  0
   -1.1435    4.9394   -1.3214 H   0  0  0  0  0  0  0  0  0  0  0  0
   -1.2478    4.5237   -3.0387 H   0  0  0  0  0  0  0  0  0  0  0  0
    0.3287    4.5970   -2.2356 H   0  0  0  0  0  0  0  0  0  0  0  0
    3.1182   -1.8774   -3.6593 H   0  0  0  0  0  0  0  0  0  0  0  0
    4.8810   -3.3511   -2.7937 H   0  0  0  0  0  0  0  0  0  0  0  0
  1  2  1  0
  2  3  2  0
  3  4  1  0
  4  5  2  0
  5  6  1  0
  6  7  1  0
  7  8  1  0
  8  9  2  0
  8 10  1  0
 10 11  1  0
 11 12  1  0
 12 13  2  0
 13 14  1  0
 14 15  1  0
 15 16  2  0
 16 17  1  0
 17 18  2  0
 18 19  1  0
 19 20  2  0
 14 21  2  0
 21 22  1  0
 10 23  1  0
 23 24  1  0
 23 25  1  0
  5 26  1  0
 26 27  2  0
 27  2  1  0
 22 12  1  0
 20 15  1  0
  1 28  1  0
  1 29  1  0
  1 30  1  0
  3 31  1  0
  4 32  1  0
  7 33  1  0
  7 34  1  0
 11 35  1  0
 11 36  1  0
 16 37  1  0
 17 38  1  0
 18 39  1  0
 19 40  1  0
 20 41  1  0
 23 42  1  0
 24 43  1  0
 24 44  1  0
 24 45  1  0
 25 46  1  0
 25 47  1  0
 25 48  1  0
 26 49  1  0
 27 50  1  0
M  END
$$$$
