
     RDKit          3D

 57 60  0  0  0  0  0  0  0  0999 V2000
    4.8593   -0.8800   -1.9107 O   0  0  0  0  0  0  0  0  0  0  0  0
    4.3327    0.4451   -1.6741 S   0  0  0  0  0  6  0  0  0  0  0  0
    4.1769    1.4079   -2.7417 O   0  0  0  0  0  0  0  0  0  0  0  0
    5.2635    1.1862   -0.4976 N   0  0  0  0  0  0  0  0  0  0  0  0
    5.8417    0.3926    0.5925 C   0  0  0  0  0  0  0  0  0  0  0  0
    7.2698   -0.0178    0.2458 C   0  0  0  0  0  0  0  0  0  0  0  0
    8.1034    1.1904    0.6452 C   0  0  0  0  0  0  0  0  0  0  0  0
    7.4592    1.6589    1.9406 C   0  0  0  0  0  0  0  0  0  0  0  0
    5.9806    1.2783    1.8363 C   0  0  0  0  0  0  0  0  0  0  0  0
    2.7620    0.3002   -0.8572 C   0  0  0  0  0  0  0  0  0  0  0  0
    2.3149   -0.9520   -0.4209 C   0  0  0  0  0  0  0  0  0  0  0  0
    1.0745   -1.0556    0.2093 C   0  0  0  0  0  0  0  0  0  0  0  0
    0.2916    0.0919    0.3856 C   0  0  0  0  0  0  0  0  0  0  0  0
   -1.2870   -0.0637    1.1871 S   0  0  0  0  0  6  0  0  0  0  0  0
   -1.0589   -0.7523    2.4389 O   0  0  0  0  0  0  0  0  0  0  0  0
   -1.9553    1.2193    1.1382 O   0  0  0  0  0  0  0  0  0  0  0  0
   -2.1278   -1.1154    0.1452 N   0  0  0  0  0  0  0  0  0  0  0  0
   -2.4560   -0.5621   -1.2150 C   0  0  0  0  0  0  0  0  0  0  0  0
   -3.9220   -0.1034   -1.3269 C   0  0  0  0  0  0  0  0  0  0  0  0
   -4.8665   -1.2182   -1.0568 N   0  0  0  0  0  0  0  0  0  0  0  0
   -6.1782   -0.7729   -0.8382 C   0  0  0  0  0  0  0  0  0  0  0  0
   -6.8595   -0.9272    0.3772 C   0  0  0  0  0  0  0  0  0  0  0  0
   -8.1681   -0.4571    0.5447 C   0  0  0  0  0  0  0  0  0  0  0  0
   -8.8249    0.1768   -0.5050 C   0  0  0  0  0  0  0  0  0  0  0  0
   -8.1725    0.3423   -1.7214 C   0  0  0  0  0  0  0  0  0  0  0  0
   -6.8651   -0.1274   -1.8813 C   0  0  0  0  0  0  0  0  0  0  0  0
   -4.3154   -2.3068   -0.2233 C   0  0  0  0  0  0  0  0  0  0  0  0
   -3.3091   -1.7726    0.8074 C   0  0  0  0  0  0  0  0  0  0  0  0
    0.7359    1.3435   -0.0538 C   0  0  0  0  0  0  0  0  0  0  0  0
    1.9767    1.4467   -0.6839 C   0  0  0  0  0  0  0  0  0  0  0  0
    5.7305    2.0368   -0.8081 H   0  0  0  0  0  0  0  0  0  0  0  0
    5.2090   -0.4737    0.8087 H   0  0  0  0  0  0  0  0  0  0  0  0
    7.5644   -0.8830    0.8520 H   0  0  0  0  0  0  0  0  0  0  0  0
    7.4101   -0.2773   -0.8079 H   0  0  0  0  0  0  0  0  0  0  0  0
    9.1605    0.9413    0.7750 H   0  0  0  0  0  0  0  0  0  0  0  0
    8.0323    1.9743   -0.1177 H   0  0  0  0  0  0  0  0  0  0  0  0
    7.5968    2.7330    2.0984 H   0  0  0  0  0  0  0  0  0  0  0  0
    7.9123    1.1399    2.7938 H   0  0  0  0  0  0  0  0  0  0  0  0
    5.6879    0.7215    2.7346 H   0  0  0  0  0  0  0  0  0  0  0  0
    5.3451    2.1703    1.7895 H   0  0  0  0  0  0  0  0  0  0  0  0
    2.9228   -1.8427   -0.5660 H   0  0  0  0  0  0  0  0  0  0  0  0
    0.7198   -2.0233    0.5594 H   0  0  0  0  0  0  0  0  0  0  0  0
   -2.2500   -1.3536   -1.9467 H   0  0  0  0  0  0  0  0  0  0  0  0
   -1.7940    0.2708   -1.4721 H   0  0  0  0  0  0  0  0  0  0  0  0
   -4.0938    0.7172   -0.6177 H   0  0  0  0  0  0  0  0  0  0  0  0
   -4.0859    0.2833   -2.3393 H   0  0  0  0  0  0  0  0  0  0  0  0
   -6.3823   -1.3911    1.2342 H   0  0  0  0  0  0  0  0  0  0  0  0
   -8.6691   -0.5829    1.5007 H   0  0  0  0  0  0  0  0  0  0  0  0
   -9.8405    0.5406   -0.3751 H   0  0  0  0  0  0  0  0  0  0  0  0
   -8.6778    0.8308   -2.5502 H   0  0  0  0  0  0  0  0  0  0  0  0
   -6.3854   -0.0066   -2.8495 H   0  0  0  0  0  0  0  0  0  0  0  0
   -3.7999   -3.0056   -0.8950 H   0  0  0  0  0  0  0  0  0  0  0  0
   -5.0963   -2.8997    0.2658 H   0  0  0  0  0  0  0  0  0  0  0  0
   -3.8111   -1.0583    1.4706 H   0  0  0  0  0  0  0  0  0  0  0  0
   -2.9375   -2.6068    1.4122 H   0  0  0  0  0  0  0  0  0  0  0  0
    0.1273    2.2342    0.0892 H   0  0  0  0  0  0  0  0  0  0  0  0
    2.3284    2.4149   -1.0351 H   0  0  0  0  0  0  0  0  0  0  0  0
  1  2  2  0
  2  3  2  0
  2  4  1  0
  4  5  1  0
  5  6  1  0
  6  7  1  0
  7  8  1  0
  8  9  1  0
  2 10  1  0
 10 11  2  0
 11 12  1  0
 12 13  2  0
 13 14  1  0
 14 15  2  0
 14 16  2  0
 14 17  1  0
 17 18  1  0
 18 19  1  0
 19 20  1  0
 20 21  1  0
 21 22  2  0
 22 23  1  0
 23 24  2  0
 24 25  1  0
 25 26  2  0
 20 27  1  0
 27 28  1  0
 13 29  1  0
 29 30  2  0
  9  5  1  0
 30 10  1  0
 28 17  1  0
 26 21  1  0
  4 31  1  0
  5 32  1  0
  6 33  1  0
  6 34  1  0
  7 35  1  0
  7 36  1  0
  8 37  1  0
  8 38  1  0
  9 39  1  0
  9 40  1  0
 11 41  1  0
 12 42  1  0
 18 43  1  0
 18 44  1  0
 19 45  1  0
 19 46  1  0
 22 47  1  0
 23 48  1  0
 24 49  1  0
 25 50  1  0
 26 51  1  0
 27 52  1  0
 27 53  1  0
 28 54  1  0
 28 55  1  0
 29 56  1  0
 30 57  1  0
M  END
$$$$
