
     RDKit          3D

 61 63  0  0  0  0  0  0  0  0999 V2000
    7.1061   -3.4138   -1.0130 C   0  0  0  0  0  0  0  0  0  0  0  0
    6.5149   -2.1520   -0.6067 N   0  0  0  0  0  0  0  0  0  0  0  0
    5.5007   -1.6386   -1.3979 C   0  0  0  0  0  0  0  0  0  0  0  0
    5.0455   -2.2012   -2.3912 O   0  0  0  0  0  0  0  0  0  0  0  0
    4.9348   -0.3446   -0.9911 C   0  0  0  0  0  0  0  0  0  0  0  0
    3.9775    0.2746   -1.8085 C   0  0  0  0  0  0  0  0  0  0  0  0
    3.4258    1.4921   -1.4141 C   0  0  0  0  0  0  0  0  0  0  0  0
    2.2231    2.2778   -2.4564 S   0  0  0  0  0  6  0  0  0  0  0  0
    2.6488    2.0990   -3.8255 O   0  0  0  0  0  0  0  0  0  0  0  0
    1.9323    3.5832   -1.9081 O   0  0  0  0  0  0  0  0  0  0  0  0
    0.8690    1.3139   -2.2429 N   0  0  0  0  0  0  0  0  0  0  0  0
    0.2984    1.1396   -0.9020 C   0  0  0  0  0  0  0  0  0  0  0  0
   -1.2172    1.0557   -1.0103 C   0  0  0  0  0  0  0  0  0  0  0  0
   -1.8408    0.8351    0.3495 C   0  0  0  0  0  0  0  0  0  0  0  0
   -1.1845    0.6104    1.3601 O   0  0  0  0  0  0  0  0  0  0  0  0
   -3.2190    0.8993    0.3251 N   0  0  0  0  0  0  0  0  0  0  0  0
   -4.0289    0.6040    1.4981 C   0  0  0  0  0  0  0  0  0  0  0  0
   -4.1630   -0.9076    1.7798 C   0  0  0  0  0  0  0  0  0  0  0  0
   -4.5716   -1.8087    0.6150 C   0  0  0  0  0  0  0  0  0  0  0  0
   -6.0653   -2.1174    0.5128 C   0  0  0  0  0  0  0  0  0  0  0  0
   -7.0197   -0.9268    0.4759 C   0  0  0  0  0  0  0  0  0  0  0  0
   -6.5745    0.1908   -0.4620 C   0  0  0  0  0  0  0  0  0  0  0  0
   -6.1832    1.4870    0.2420 C   0  0  0  0  0  0  0  0  0  0  0  0
   -5.3427    1.3975    1.5186 C   0  0  0  0  0  0  0  0  0  0  0  0
    3.8343    2.0995   -0.2282 C   0  0  0  0  0  0  0  0  0  0  0  0
    4.7932    1.4720    0.5759 C   0  0  0  0  0  0  0  0  0  0  0  0
    5.3564    0.2391    0.2036 C   0  0  0  0  0  0  0  0  0  0  0  0
    6.3252   -0.4241    1.0028 N   0  0  0  0  0  0  0  0  0  0  0  0
    6.7383    0.1650    2.2706 C   0  0  0  0  0  0  0  0  0  0  0  0
    6.9073   -1.6302    0.6203 C   0  0  0  0  0  0  0  0  0  0  0  0
    7.7257   -2.2140    1.3348 O   0  0  0  0  0  0  0  0  0  0  0  0
    6.5625   -4.2250   -0.5175 H   0  0  0  0  0  0  0  0  0  0  0  0
    7.0417   -3.5530   -2.0964 H   0  0  0  0  0  0  0  0  0  0  0  0
    8.1589   -3.4610   -0.7182 H   0  0  0  0  0  0  0  0  0  0  0  0
    3.6728   -0.1905   -2.7444 H   0  0  0  0  0  0  0  0  0  0  0  0
    0.7858    0.5572   -2.9210 H   0  0  0  0  0  0  0  0  0  0  0  0
    0.7063    0.2214   -0.4641 H   0  0  0  0  0  0  0  0  0  0  0  0
    0.5711    1.9753   -0.2478 H   0  0  0  0  0  0  0  0  0  0  0  0
   -1.5084    0.2247   -1.6638 H   0  0  0  0  0  0  0  0  0  0  0  0
   -1.6163    1.9819   -1.4410 H   0  0  0  0  0  0  0  0  0  0  0  0
   -3.6762    0.9163   -0.5778 H   0  0  0  0  0  0  0  0  0  0  0  0
   -3.4609    0.9893    2.3579 H   0  0  0  0  0  0  0  0  0  0  0  0
   -4.8209   -1.0739    2.6414 H   0  0  0  0  0  0  0  0  0  0  0  0
   -3.1707   -1.2543    2.1018 H   0  0  0  0  0  0  0  0  0  0  0  0
   -4.1884   -1.4287   -0.3371 H   0  0  0  0  0  0  0  0  0  0  0  0
   -4.0674   -2.7755    0.7526 H   0  0  0  0  0  0  0  0  0  0  0  0
   -6.2207   -2.7161   -0.3940 H   0  0  0  0  0  0  0  0  0  0  0  0
   -6.3557   -2.7646    1.3500 H   0  0  0  0  0  0  0  0  0  0  0  0
   -7.1968   -0.5596    1.4916 H   0  0  0  0  0  0  0  0  0  0  0  0
   -7.9946   -1.3010    0.1358 H   0  0  0  0  0  0  0  0  0  0  0  0
   -7.4082    0.4285   -1.1367 H   0  0  0  0  0  0  0  0  0  0  0  0
   -5.7665   -0.1341   -1.1250 H   0  0  0  0  0  0  0  0  0  0  0  0
   -7.1068    2.0216    0.5022 H   0  0  0  0  0  0  0  0  0  0  0  0
   -5.6731    2.1327   -0.4838 H   0  0  0  0  0  0  0  0  0  0  0  0
   -5.0882    2.4352    1.7794 H   0  0  0  0  0  0  0  0  0  0  0  0
   -5.9637    1.0485    2.3524 H   0  0  0  0  0  0  0  0  0  0  0  0
    3.4174    3.0570    0.0800 H   0  0  0  0  0  0  0  0  0  0  0  0
    5.0828    1.9782    1.4932 H   0  0  0  0  0  0  0  0  0  0  0  0
    5.8668    0.2727    2.9238 H   0  0  0  0  0  0  0  0  0  0  0  0
    7.1981    1.1405    2.0832 H   0  0  0  0  0  0  0  0  0  0  0  0
    7.4724   -0.4516    2.7959 H   0  0  0  0  0  0  0  0  0  0  0  0
  1  2  1  0
  2  3  1  0
  3  4  2  0
  3  5  1  0
  5  6  2  0
  6  7  1  0
  7  8  1  0
  8  9  2  0
  8 10  2  0
  8 11  1  0
 11 12  1  0
 12 13  1  0
 13 14  1  0
 14 15  2  0
 14 16  1  0
 16 17  1  0
 17 18  1  0
 18 19  1  0
 19 20  1  0
 20 21  1  0
 21 22  1  0
 22 23  1  0
 23 24  1  0
  7 25  2  0
 25 26  1  0
 26 27  2  0
 27 28  1  0
 28 29  1  0
 28 30  1  0
 30 31  2  0
 30  2  1  0
 27  5  1  0
 24 17  1  0
  1 32  1  0
  1 33  1  0
  1 34  1  0
  6 35  1  0
 11 36  1  0
 12 37  1  0
 12 38  1  0
 13 39  1  0
 13 40  1  0
 16 41  1  0
 17 42  1  0
 18 43  1  0
 18 44  1  0
 19 45  1  0
 19 46  1  0
 20 47  1  0
 20 48  1  0
 21 49  1  0
 21 50  1  0
 22 51  1  0
 22 52  1  0
 23 53  1  0
 23 54  1  0
 24 55  1  0
 24 56  1  0
 25 57  1  0
 26 58  1  0
 29 59  1  0
 29 60  1  0
 29 61  1  0
M  END
$$$$
