
     RDKit          3D

 55 57  0  0  0  0  0  0  0  0999 V2000
    0.6759   -2.6964   -2.1046 O   0  0  0  0  0  0  0  0  0  0  0  0
    0.5674   -1.5000   -1.8603 C   0  0  0  0  0  0  0  0  0  0  0  0
   -0.6154   -0.9163   -1.4464 N   0  0  0  0  0  0  0  0  0  0  0  0
   -1.8357   -1.7000   -1.3992 C   0  0  0  0  0  0  0  0  0  0  0  0
   -2.9363   -1.0215   -0.5827 C   0  0  0  0  0  0  0  0  0  0  0  0
   -3.5153    0.2123   -1.2865 C   0  0  0  0  0  0  0  0  0  0  0  0
   -4.6600    0.9287   -0.5621 C   0  0  0  0  0  0  0  0  0  0  0  0
   -4.3277    1.4624    0.8293 C   0  0  0  0  0  0  0  0  0  0  0  0
   -5.6912    1.8082    1.4235 C   0  0  0  0  0  0  0  0  0  0  0  0
   -6.7088    0.9322    0.6897 C   0  0  0  0  0  0  0  0  0  0  0  0
   -5.9055    0.0869   -0.2955 C   0  0  0  0  0  0  0  0  0  0  0  0
    1.7269   -0.5205   -1.9630 C   0  0  0  0  0  0  0  0  0  0  0  0
    2.9395   -1.1438   -2.6441 C   0  0  0  0  0  0  0  0  0  0  0  0
    4.0396   -0.1069   -2.7699 C   0  0  0  0  0  0  0  0  0  0  0  0
    4.3612    0.6325   -1.4845 C   0  0  0  0  0  0  0  0  0  0  0  0
    5.4661    1.1578   -1.3437 O   0  0  0  0  0  0  0  0  0  0  0  0
    3.3334    0.7804   -0.5616 N   0  0  0  0  0  0  0  0  0  0  0  0
    3.6148    1.5162    0.6715 C   0  0  0  0  0  0  0  0  0  0  0  0
    3.9971    0.6159    1.8252 C   0  0  0  0  0  0  0  0  0  0  0  0
    3.0740    0.3227    2.8408 C   0  0  0  0  0  0  0  0  0  0  0  0
    3.4269   -0.5218    3.8964 C   0  0  0  0  0  0  0  0  0  0  0  0
    4.7033   -1.0785    3.9420 C   0  0  0  0  0  0  0  0  0  0  0  0
    5.1353   -2.1185    5.2429 Cl  0  0  0  0  0  0  0  0  0  0  0  0
    5.6304   -0.7985    2.9416 C   0  0  0  0  0  0  0  0  0  0  0  0
    5.2779    0.0457    1.8864 C   0  0  0  0  0  0  0  0  0  0  0  0
    2.1498   -0.0795   -0.5679 C   0  0  0  0  0  0  0  0  0  0  0  0
   -0.7075    0.0817   -1.5850 H   0  0  0  0  0  0  0  0  0  0  0  0
   -2.1608   -1.8805   -2.4299 H   0  0  0  0  0  0  0  0  0  0  0  0
   -1.6005   -2.6731   -0.9526 H   0  0  0  0  0  0  0  0  0  0  0  0
   -3.7315   -1.7568   -0.4219 H   0  0  0  0  0  0  0  0  0  0  0  0
   -2.5372   -0.7486    0.4001 H   0  0  0  0  0  0  0  0  0  0  0  0
   -2.7149    0.9434   -1.4524 H   0  0  0  0  0  0  0  0  0  0  0  0
   -3.8723   -0.0860   -2.2807 H   0  0  0  0  0  0  0  0  0  0  0  0
   -4.9557    1.7814   -1.1909 H   0  0  0  0  0  0  0  0  0  0  0  0
   -3.6647    2.3323    0.7944 H   0  0  0  0  0  0  0  0  0  0  0  0
   -3.8497    0.6992    1.4525 H   0  0  0  0  0  0  0  0  0  0  0  0
   -5.9237    2.8663    1.2571 H   0  0  0  0  0  0  0  0  0  0  0  0
   -5.7091    1.6346    2.5043 H   0  0  0  0  0  0  0  0  0  0  0  0
   -7.4242    1.5660    0.1528 H   0  0  0  0  0  0  0  0  0  0  0  0
   -7.2807    0.3048    1.3808 H   0  0  0  0  0  0  0  0  0  0  0  0
   -6.4702   -0.1233   -1.2089 H   0  0  0  0  0  0  0  0  0  0  0  0
   -5.6562   -0.8696    0.1755 H   0  0  0  0  0  0  0  0  0  0  0  0
    1.3924    0.3447   -2.5508 H   0  0  0  0  0  0  0  0  0  0  0  0
    3.3039   -2.0029   -2.0657 H   0  0  0  0  0  0  0  0  0  0  0  0
    2.6727   -1.5229   -3.6378 H   0  0  0  0  0  0  0  0  0  0  0  0
    4.9547   -0.5981   -3.1197 H   0  0  0  0  0  0  0  0  0  0  0  0
    3.7603    0.6476   -3.5150 H   0  0  0  0  0  0  0  0  0  0  0  0
    2.7201    2.0999    0.9212 H   0  0  0  0  0  0  0  0  0  0  0  0
    4.4145    2.2487    0.5086 H   0  0  0  0  0  0  0  0  0  0  0  0
    2.0736    0.7488    2.8172 H   0  0  0  0  0  0  0  0  0  0  0  0
    2.7040   -0.7414    4.6775 H   0  0  0  0  0  0  0  0  0  0  0  0
    6.6265   -1.2317    2.9739 H   0  0  0  0  0  0  0  0  0  0  0  0
    6.0094    0.2586    1.1076 H   0  0  0  0  0  0  0  0  0  0  0  0
    2.3701   -0.9549    0.0562 H   0  0  0  0  0  0  0  0  0  0  0  0
    1.3331    0.4709   -0.0857 H   0  0  0  0  0  0  0  0  0  0  0  0
  1  2  2  0
  2  3  1  0
  3  4  1  0
  4  5  1  0
  5  6  1  0
  6  7  1  0
  7  8  1  0
  8  9  1  0
  9 10  1  0
 10 11  1  0
  2 12  1  0
 12 13  1  0
 13 14  1  0
 14 15  1  0
 15 16  2  0
 15 17  1  0
 17 18  1  0
 18 19  1  0
 19 20  2  0
 20 21  1  0
 21 22  2  0
 22 23  1  0
 22 24  1  0
 24 25  2  0
 17 26  1  0
 11  7  1  0
 26 12  1  0
 25 19  1  0
  3 27  1  0
  4 28  1  0
  4 29  1  0
  5 30  1  0
  5 31  1  0
  6 32  1  0
  6 33  1  0
  7 34  1  0
  8 35  1  0
  8 36  1  0
  9 37  1  0
  9 38  1  0
 10 39  1  0
 10 40  1  0
 11 41  1  0
 11 42  1  0
 12 43  1  0
 13 44  1  0
 13 45  1  0
 14 46  1  0
 14 47  1  0
 18 48  1  0
 18 49  1  0
 20 50  1  0
 21 51  1  0
 24 52  1  0
 25 53  1  0
 26 54  1  0
 26 55  1  0
M  END
$$$$
