
     RDKit          3D

 42 44  0  0  0  0  0  0  0  0999 V2000
    1.5601    4.0500    1.9276 C   0  0  0  0  0  0  0  0  0  0  0  0
   -0.0058    3.8401    1.0410 S   0  0  0  0  0  0  0  0  0  0  0  0
    0.0885    2.1017    0.6127 C   0  0  0  0  0  0  0  0  0  0  0  0
    1.3302    1.5806    0.5482 N   0  0  0  0  0  0  0  0  0  0  0  0
    1.4412    0.3035    0.1501 C   0  0  0  0  0  0  0  0  0  0  0  0
    2.7943   -0.2834    0.0728 C   0  0  0  0  0  0  0  0  0  0  0  0
    2.9914   -1.6360   -0.2690 C   0  0  0  0  0  0  0  0  0  0  0  0
    4.2719   -2.1943   -0.3422 C   0  0  0  0  0  0  0  0  0  0  0  0
    5.3898   -1.4106   -0.0748 C   0  0  0  0  0  0  0  0  0  0  0  0
    5.2283   -0.0713    0.2656 C   0  0  0  0  0  0  0  0  0  0  0  0
    3.9462    0.4834    0.3382 C   0  0  0  0  0  0  0  0  0  0  0  0
    0.3973   -0.4739   -0.1907 N   0  0  0  0  0  0  0  0  0  0  0  0
   -0.8425    0.0458   -0.1107 C   0  0  0  0  0  0  0  0  0  0  0  0
   -1.9417   -0.7720   -0.4618 N   0  0  0  0  0  0  0  0  0  0  0  0
   -2.6185   -1.3031    0.7519 C   0  0  0  0  0  0  0  0  0  0  0  0
   -3.8463   -2.1282    0.3297 C   0  0  0  0  0  0  0  0  0  0  0  0
   -3.4824   -3.1989   -0.5582 O   0  0  0  0  0  0  0  0  0  0  0  0
   -2.8405   -2.6780   -1.7344 C   0  0  0  0  0  0  0  0  0  0  0  0
   -1.5748   -1.8847   -1.3716 C   0  0  0  0  0  0  0  0  0  0  0  0
   -1.0342    1.3629    0.2885 C   0  0  0  0  0  0  0  0  0  0  0  0
   -2.3787    1.9491    0.3074 C   0  0  0  0  0  0  0  0  0  0  0  0
   -3.0161    2.2610   -1.0190 C   0  0  0  0  0  0  0  0  0  0  0  0
   -2.9418    2.1417    1.3812 O   0  0  0  0  0  0  0  0  0  0  0  0
    1.6014    5.0623    2.3390 H   0  0  0  0  0  0  0  0  0  0  0  0
    2.4103    3.9219    1.2520 H   0  0  0  0  0  0  0  0  0  0  0  0
    1.6354    3.3390    2.7551 H   0  0  0  0  0  0  0  0  0  0  0  0
    2.1352   -2.2746   -0.4813 H   0  0  0  0  0  0  0  0  0  0  0  0
    4.3918   -3.2416   -0.6075 H   0  0  0  0  0  0  0  0  0  0  0  0
    6.3853   -1.8430   -0.1310 H   0  0  0  0  0  0  0  0  0  0  0  0
    6.0982    0.5459    0.4755 H   0  0  0  0  0  0  0  0  0  0  0  0
    3.8517    1.5346    0.6059 H   0  0  0  0  0  0  0  0  0  0  0  0
   -2.9490   -0.5007    1.4182 H   0  0  0  0  0  0  0  0  0  0  0  0
   -1.9239   -1.9468    1.3081 H   0  0  0  0  0  0  0  0  0  0  0  0
   -4.3153   -2.5750    1.2118 H   0  0  0  0  0  0  0  0  0  0  0  0
   -4.5934   -1.4960   -0.1649 H   0  0  0  0  0  0  0  0  0  0  0  0
   -3.5556   -2.0536   -2.2832 H   0  0  0  0  0  0  0  0  0  0  0  0
   -2.5774   -3.5279   -2.3718 H   0  0  0  0  0  0  0  0  0  0  0  0
   -1.1211   -1.4932   -2.2897 H   0  0  0  0  0  0  0  0  0  0  0  0
   -0.8643   -2.5646   -0.8829 H   0  0  0  0  0  0  0  0  0  0  0  0
   -2.3076    2.1295   -1.8419 H   0  0  0  0  0  0  0  0  0  0  0  0
   -3.3486    3.3025   -1.0187 H   0  0  0  0  0  0  0  0  0  0  0  0
   -3.8691    1.5956   -1.1755 H   0  0  0  0  0  0  0  0  0  0  0  0
  1  2  1  0
  2  3  1  0
  3  4  2  0
  4  5  1  0
  5  6  1  0
  6  7  2  0
  7  8  1  0
  8  9  2  0
  9 10  1  0
 10 11  2  0
  5 12  2  0
 12 13  1  0
 13 14  1  0
 14 15  1  0
 15 16  1  0
 16 17  1  0
 17 18  1  0
 18 19  1  0
 13 20  2  0
 20 21  1  0
 21 22  1  0
 21 23  2  0
 20  3  1  0
 11  6  1  0
 19 14  1  0
  1 24  1  0
  1 25  1  0
  1 26  1  0
  7 27  1  0
  8 28  1  0
  9 29  1  0
 10 30  1  0
 11 31  1  0
 15 32  1  0
 15 33  1  0
 16 34  1  0
 16 35  1  0
 18 36  1  0
 18 37  1  0
 19 38  1  0
 19 39  1  0
 22 40  1  0
 22 41  1  0
 22 42  1  0
M  END
$$$$
