
     RDKit          3D

 36 37  0  0  0  0  0  0  0  0999 V2000
    2.3041    2.2170   -1.4729 C   0  0  0  0  0  0  0  0  0  0  0  0
    1.3155    1.0686   -1.2581 C   0  0  0  0  0  0  0  0  0  0  0  0
    0.1118    1.6399   -0.6442 N   0  0  0  0  0  0  0  0  0  0  0  0
   -0.9891    0.9734   -0.6158 C   0  0  0  0  0  0  0  0  0  0  0  0
   -2.1683    1.6870    0.0318 C   0  0  0  0  0  0  0  0  0  0  0  0
   -2.4134    1.1409    1.4346 C   0  0  0  0  0  0  0  0  0  0  0  0
   -3.1779   -0.1830    1.4502 C   0  0  0  0  0  0  0  0  0  0  0  0
   -2.4734   -1.3427    0.7430 C   0  0  0  0  0  0  0  0  0  0  0  0
   -2.3256   -1.1352   -0.7615 C   0  0  0  0  0  0  0  0  0  0  0  0
   -1.1798   -0.3074   -1.0772 N   0  0  0  0  0  0  0  0  0  0  0  0
    1.9705   -0.0244   -0.4283 C   0  0  0  0  0  0  0  0  0  0  0  0
    1.9859    0.0352    0.9733 C   0  0  0  0  0  0  0  0  0  0  0  0
    2.5877   -0.9769    1.7221 C   0  0  0  0  0  0  0  0  0  0  0  0
    3.1878   -2.0573    1.0789 C   0  0  0  0  0  0  0  0  0  0  0  0
    3.1899   -2.1249   -0.3130 C   0  0  0  0  0  0  0  0  0  0  0  0
    2.5874   -1.1136   -1.0634 C   0  0  0  0  0  0  0  0  0  0  0  0
    2.5916    2.6837   -0.5235 H   0  0  0  0  0  0  0  0  0  0  0  0
    3.2181    1.8680   -1.9659 H   0  0  0  0  0  0  0  0  0  0  0  0
    1.8582    2.9973   -2.0997 H   0  0  0  0  0  0  0  0  0  0  0  0
    1.0573    0.6703   -2.2487 H   0  0  0  0  0  0  0  0  0  0  0  0
   -1.9316    2.7561    0.1000 H   0  0  0  0  0  0  0  0  0  0  0  0
   -3.0569    1.5956   -0.6015 H   0  0  0  0  0  0  0  0  0  0  0  0
   -1.4635    1.0210    1.9701 H   0  0  0  0  0  0  0  0  0  0  0  0
   -3.0029    1.8764    1.9956 H   0  0  0  0  0  0  0  0  0  0  0  0
   -4.1713   -0.0354    1.0083 H   0  0  0  0  0  0  0  0  0  0  0  0
   -3.3461   -0.4688    2.4960 H   0  0  0  0  0  0  0  0  0  0  0  0
   -1.4975   -1.5293    1.2079 H   0  0  0  0  0  0  0  0  0  0  0  0
   -3.0790   -2.2430    0.9053 H   0  0  0  0  0  0  0  0  0  0  0  0
   -2.1721   -2.1099   -1.2388 H   0  0  0  0  0  0  0  0  0  0  0  0
   -3.2380   -0.7161   -1.2001 H   0  0  0  0  0  0  0  0  0  0  0  0
   -0.3240   -0.8382   -1.2000 H   0  0  0  0  0  0  0  0  0  0  0  0
    1.5224    0.8770    1.4848 H   0  0  0  0  0  0  0  0  0  0  0  0
    2.5902   -0.9179    2.8072 H   0  0  0  0  0  0  0  0  0  0  0  0
    3.6599   -2.8429    1.6628 H   0  0  0  0  0  0  0  0  0  0  0  0
    3.6664   -2.9631   -0.8147 H   0  0  0  0  0  0  0  0  0  0  0  0
    2.6057   -1.1772   -2.1492 H   0  0  0  0  0  0  0  0  0  0  0  0
  1  2  1  0
  2  3  1  0
  3  4  2  3
  4  5  1  0
  5  6  1  0
  6  7  1  0
  7  8  1  0
  8  9  1  0
  9 10  1  0
  2 11  1  0
 11 12  2  0
 12 13  1  0
 13 14  2  0
 14 15  1  0
 15 16  2  0
 10  4  1  0
 16 11  1  0
  1 17  1  0
  1 18  1  0
  1 19  1  0
  2 20  1  0
  5 21  1  0
  5 22  1  0
  6 23  1  0
  6 24  1  0
  7 25  1  0
  7 26  1  0
  8 27  1  0
  8 28  1  0
  9 29  1  0
  9 30  1  0
 10 31  1  0
 12 32  1  0
 13 33  1  0
 14 34  1  0
 15 35  1  0
 16 36  1  0
M  END
$$$$
