
     RDKit          3D

 59 62  0  0  0  0  0  0  0  0999 V2000
   -0.2099   -2.5188   -4.8335 C   0  0  0  0  0  0  0  0  0  0  0  0
   -1.5247   -2.7983   -4.1299 C   0  0  0  0  0  0  0  0  0  0  0  0
   -1.7536   -1.8186   -3.1053 O   0  0  0  0  0  0  0  0  0  0  0  0
   -1.1901   -2.0762   -1.8925 C   0  0  0  0  0  0  0  0  0  0  0  0
   -0.5413   -3.0808   -1.6296 O   0  0  0  0  0  0  0  0  0  0  0  0
   -1.5152   -0.9703   -0.8785 C   0  0  0  0  0  0  0  0  0  0  0  0
   -2.9422   -1.3152   -0.3726 C   0  0  0  0  0  0  0  0  0  0  0  0
   -3.5335   -0.4213    0.6920 C   0  0  0  0  0  0  0  0  0  0  0  0
   -4.2786    0.7101    0.3416 C   0  0  0  0  0  0  0  0  0  0  0  0
   -4.8239    1.5318    1.3309 C   0  0  0  0  0  0  0  0  0  0  0  0
   -4.6414    1.2384    2.6834 C   0  0  0  0  0  0  0  0  0  0  0  0
   -5.2273    2.1238    3.5452 O   0  0  0  0  0  0  0  0  0  0  0  0
   -5.0550    1.8775    4.9348 C   0  0  0  0  0  0  0  0  0  0  0  0
   -3.9082    0.1076    3.0397 C   0  0  0  0  0  0  0  0  0  0  0  0
   -3.3609   -0.7175    2.0503 C   0  0  0  0  0  0  0  0  0  0  0  0
   -1.4387    0.4276   -1.5285 C   0  0  0  0  0  0  0  0  0  0  0  0
   -0.0308    0.7514   -2.0237 C   0  0  0  0  0  0  0  0  0  0  0  0
    0.9769    0.5924   -0.9787 N   0  0  0  0  0  0  0  0  0  0  0  0
    2.0188    1.5270   -0.9389 C   0  0  0  0  0  0  0  0  0  0  0  0
    1.8991    2.6272   -1.4799 O   0  0  0  0  0  0  0  0  0  0  0  0
    3.2486    1.2150   -0.2362 C   0  0  0  0  0  0  0  0  0  0  0  0
    3.9719    0.0456   -0.0675 C   0  0  0  0  0  0  0  0  0  0  0  0
    5.1364    0.3370    0.6961 C   0  0  0  0  0  0  0  0  0  0  0  0
    6.2065   -0.4356    1.1860 C   0  0  0  0  0  0  0  0  0  0  0  0
    7.2233    0.1905    1.9166 C   0  0  0  0  0  0  0  0  0  0  0  0
    7.1857    1.5630    2.1550 C   0  0  0  0  0  0  0  0  0  0  0  0
    6.1362    2.3504    1.6715 C   0  0  0  0  0  0  0  0  0  0  0  0
    5.1271    1.7064    0.9469 C   0  0  0  0  0  0  0  0  0  0  0  0
    4.0015    2.2145    0.3457 N   0  0  0  0  0  0  0  0  0  0  0  0
    0.9415   -0.6557   -0.2187 C   0  0  0  0  0  0  0  0  0  0  0  0
   -0.4704   -1.0093    0.2586 C   0  0  0  0  0  0  0  0  0  0  0  0
   -0.0526   -3.2223   -5.6559 H   0  0  0  0  0  0  0  0  0  0  0  0
    0.6323   -2.5985   -4.1389 H   0  0  0  0  0  0  0  0  0  0  0  0
   -0.1972   -1.4993   -5.2328 H   0  0  0  0  0  0  0  0  0  0  0  0
   -1.5555   -3.8153   -3.7226 H   0  0  0  0  0  0  0  0  0  0  0  0
   -2.3502   -2.7123   -4.8440 H   0  0  0  0  0  0  0  0  0  0  0  0
   -2.9548   -2.3483    0.0052 H   0  0  0  0  0  0  0  0  0  0  0  0
   -3.6395   -1.3323   -1.2230 H   0  0  0  0  0  0  0  0  0  0  0  0
   -4.4429    0.9641   -0.7030 H   0  0  0  0  0  0  0  0  0  0  0  0
   -5.3980    2.4097    1.0446 H   0  0  0  0  0  0  0  0  0  0  0  0
   -5.5715    2.6722    5.4818 H   0  0  0  0  0  0  0  0  0  0  0  0
   -3.9970    1.9144    5.2144 H   0  0  0  0  0  0  0  0  0  0  0  0
   -5.5086    0.9243    5.2258 H   0  0  0  0  0  0  0  0  0  0  0  0
   -3.7440   -0.1639    4.0770 H   0  0  0  0  0  0  0  0  0  0  0  0
   -2.7965   -1.5972    2.3531 H   0  0  0  0  0  0  0  0  0  0  0  0
   -1.7168    1.1936   -0.7941 H   0  0  0  0  0  0  0  0  0  0  0  0
   -2.1465    0.5214   -2.3606 H   0  0  0  0  0  0  0  0  0  0  0  0
   -0.0239    1.7688   -2.4284 H   0  0  0  0  0  0  0  0  0  0  0  0
    0.2576    0.0887   -2.8478 H   0  0  0  0  0  0  0  0  0  0  0  0
    3.7077   -0.9274   -0.4591 H   0  0  0  0  0  0  0  0  0  0  0  0
    6.2454   -1.5049    1.0011 H   0  0  0  0  0  0  0  0  0  0  0  0
    8.0514   -0.4014    2.2987 H   0  0  0  0  0  0  0  0  0  0  0  0
    7.9870    2.0314    2.7221 H   0  0  0  0  0  0  0  0  0  0  0  0
    6.1127    3.4201    1.8521 H   0  0  0  0  0  0  0  0  0  0  0  0
    3.7419    3.1918    0.3233 H   0  0  0  0  0  0  0  0  0  0  0  0
    1.3541   -1.4427   -0.8584 H   0  0  0  0  0  0  0  0  0  0  0  0
    1.5720   -0.5769    0.6706 H   0  0  0  0  0  0  0  0  0  0  0  0
   -0.4500   -1.9939    0.7420 H   0  0  0  0  0  0  0  0  0  0  0  0
   -0.7444   -0.2836    1.0345 H   0  0  0  0  0  0  0  0  0  0  0  0
  1  2  1  0
  2  3  1  0
  3  4  1  0
  4  5  2  0
  4  6  1  0
  6  7  1  0
  7  8  1  0
  8  9  2  0
  9 10  1  0
 10 11  2  0
 11 12  1  0
 12 13  1  0
 11 14  1  0
 14 15  2  0
  6 16  1  0
 16 17  1  0
 17 18  1  0
 18 19  1  0
 19 20  2  0
 19 21  1  0
 21 22  2  0
 22 23  1  0
 23 24  2  0
 24 25  1  0
 25 26  2  0
 26 27  1  0
 27 28  2  0
 28 29  1  0
 18 30  1  0
 30 31  1  0
 31  6  1  0
 15  8  1  0
 29 21  1  0
 28 23  1  0
  1 32  1  0
  1 33  1  0
  1 34  1  0
  2 35  1  0
  2 36  1  0
  7 37  1  0
  7 38  1  0
  9 39  1  0
 10 40  1  0
 13 41  1  0
 13 42  1  0
 13 43  1  0
 14 44  1  0
 15 45  1  0
 16 46  1  0
 16 47  1  0
 17 48  1  0
 17 49  1  0
 22 50  1  0
 24 51  1  0
 25 52  1  0
 26 53  1  0
 27 54  1  0
 29 55  1  0
 30 56  1  0
 30 57  1  0
 31 58  1  0
 31 59  1  0
M  END
$$$$
