
     RDKit          3D

 71 76  0  0  0  0  0  0  0  0999 V2000
   -2.7241   -2.3406    3.3612 C   0  0  0  0  0  0  0  0  0  0  0  0
   -3.3127   -3.2387    2.4269 O   0  0  0  0  0  0  0  0  0  0  0  0
   -3.0630   -2.9994    1.1024 C   0  0  0  0  0  0  0  0  0  0  0  0
   -3.7363   -3.8681    0.2180 C   0  0  0  0  0  0  0  0  0  0  0  0
   -3.5946   -3.7546   -1.1684 C   0  0  0  0  0  0  0  0  0  0  0  0
   -2.7704   -2.7559   -1.6350 C   0  0  0  0  0  0  0  0  0  0  0  0
   -2.0930   -1.8847   -0.7775 C   0  0  0  0  0  0  0  0  0  0  0  0
   -2.2253   -2.0001    0.6002 C   0  0  0  0  0  0  0  0  0  0  0  0
   -1.2962   -0.9234   -1.6050 C   0  0  1  0  0  0  0  0  0  0  0  0
   -1.5928   -1.3815   -3.0593 C   0  0  0  0  0  0  0  0  0  0  0  0
   -1.1427   -0.9418   -4.1069 O   0  0  0  0  0  0  0  0  0  0  0  0
   -2.4837   -2.4559   -2.9609 N   0  0  0  0  0  0  0  0  0  0  0  0
   -1.7583    0.4602   -1.3215 C   0  0  0  0  0  0  0  0  0  0  0  0
   -0.6479    1.3292   -1.2382 C   0  0  0  0  0  0  0  0  0  0  0  0
   -1.1008    2.5937   -0.9786 C   0  0  0  0  0  0  0  0  0  0  0  0
   -0.4768    3.7555   -0.8350 O   0  0  0  0  0  0  0  0  0  0  0  0
   -2.4810    2.4963   -0.8649 N   0  0  0  0  0  0  0  0  0  0  0  0
   -3.3734    3.6105   -0.5696 C   0  0  0  0  0  0  0  0  0  0  0  0
   -3.6332    3.7391    0.9124 C   0  0  0  0  0  0  0  0  0  0  0  0
   -2.7678    4.4842    1.7264 C   0  0  0  0  0  0  0  0  0  0  0  0
   -3.0026    4.5939    3.0979 C   0  0  0  0  0  0  0  0  0  0  0  0
   -4.1019    3.9574    3.6710 C   0  0  0  0  0  0  0  0  0  0  0  0
   -4.9646    3.2068    2.8747 C   0  0  0  0  0  0  0  0  0  0  0  0
   -4.7306    3.0957    1.5032 C   0  0  0  0  0  0  0  0  0  0  0  0
   -2.8958    1.1931   -1.1023 C   0  0  0  0  0  0  0  0  0  0  0  0
   -4.1805    0.8612   -1.0693 O   0  0  0  0  0  0  0  0  0  0  0  0
    0.6030    0.5827   -1.4933 C   0  0  1  0  0  0  0  0  0  0  0  0
    1.7863    0.8324   -0.5602 C   0  0  0  0  0  0  0  0  0  0  0  0
    2.7932   -0.2396   -0.6299 N   0  0  0  0  0  0  0  0  0  0  0  0
    3.9815   -0.0549    0.0489 C   0  0  0  0  0  0  0  0  0  0  0  0
    4.1973    0.9113    0.7696 O   0  0  0  0  0  0  0  0  0  0  0  0
    4.8689   -1.0535   -0.1886 O   0  0  0  0  0  0  0  0  0  0  0  0
    6.1818   -1.0516    0.4278 C   0  0  0  0  0  0  0  0  0  0  0  0
    6.0826   -1.1337    1.9550 C   0  0  0  0  0  0  0  0  0  0  0  0
    6.8535   -2.3339   -0.0878 C   0  0  0  0  0  0  0  0  0  0  0  0
    7.0114    0.1529   -0.0303 C   0  0  0  0  0  0  0  0  0  0  0  0
    2.5665   -1.3355   -1.5870 C   0  0  0  0  0  0  0  0  0  0  0  0
    1.0917   -1.8233   -1.6717 C   0  0  0  0  0  0  0  0  0  0  0  0
    0.1359   -0.8102   -1.2702 N   0  0  0  0  0  0  0  0  0  0  0  0
   -1.6313   -2.4014    3.3305 H   0  0  0  0  0  0  0  0  0  0  0  0
   -3.0694   -1.3145    3.1961 H   0  0  0  0  0  0  0  0  0  0  0  0
   -3.0459   -2.6430    4.3623 H   0  0  0  0  0  0  0  0  0  0  0  0
   -4.3808   -4.6433    0.6285 H   0  0  0  0  0  0  0  0  0  0  0  0
   -4.1166   -4.4303   -1.8357 H   0  0  0  0  0  0  0  0  0  0  0  0
   -1.6828   -1.3117    1.2392 H   0  0  0  0  0  0  0  0  0  0  0  0
   -2.8346   -2.9480   -3.7692 H   0  0  0  0  0  0  0  0  0  0  0  0
    0.4765    3.5992   -0.9477 H   0  0  0  0  0  0  0  0  0  0  0  0
   -2.9271    4.5283   -0.9696 H   0  0  0  0  0  0  0  0  0  0  0  0
   -4.3079    3.4571   -1.1221 H   0  0  0  0  0  0  0  0  0  0  0  0
   -1.8997    4.9773    1.2930 H   0  0  0  0  0  0  0  0  0  0  0  0
   -2.3243    5.1729    3.7188 H   0  0  0  0  0  0  0  0  0  0  0  0
   -4.2832    4.0425    4.7390 H   0  0  0  0  0  0  0  0  0  0  0  0
   -5.8182    2.7039    3.3211 H   0  0  0  0  0  0  0  0  0  0  0  0
   -5.4051    2.4968    0.8943 H   0  0  0  0  0  0  0  0  0  0  0  0
   -4.2377   -0.1077   -1.1491 H   0  0  0  0  0  0  0  0  0  0  0  0
    0.8982    0.7200   -2.5425 H   0  0  0  0  0  0  0  0  0  0  0  0
    2.2713    1.7839   -0.8106 H   0  0  0  0  0  0  0  0  0  0  0  0
    1.4644    0.9059    0.4870 H   0  0  0  0  0  0  0  0  0  0  0  0
    5.4136   -1.9471    2.2579 H   0  0  0  0  0  0  0  0  0  0  0  0
    5.6764   -0.2153    2.3892 H   0  0  0  0  0  0  0  0  0  0  0  0
    7.0648   -1.3032    2.4093 H   0  0  0  0  0  0  0  0  0  0  0  0
    6.9093   -2.3321   -1.1827 H   0  0  0  0  0  0  0  0  0  0  0  0
    7.8672   -2.4510    0.3101 H   0  0  0  0  0  0  0  0  0  0  0  0
    6.2682   -3.2184    0.1900 H   0  0  0  0  0  0  0  0  0  0  0  0
    6.6202    1.0946    0.3663 H   0  0  0  0  0  0  0  0  0  0  0  0
    6.9969    0.2425   -1.1225 H   0  0  0  0  0  0  0  0  0  0  0  0
    8.0527    0.0675    0.2988 H   0  0  0  0  0  0  0  0  0  0  0  0
    2.8715   -0.9420   -2.5650 H   0  0  0  0  0  0  0  0  0  0  0  0
    3.2159   -2.1885   -1.3662 H   0  0  0  0  0  0  0  0  0  0  0  0
    0.9741   -2.6866   -1.0062 H   0  0  0  0  0  0  0  0  0  0  0  0
    0.9195   -2.1834   -2.6920 H   0  0  0  0  0  0  0  0  0  0  0  0
  1  2  1  0
  2  3  1  0
  3  4  2  0
  4  5  1  0
  5  6  2  0
  6  7  1  0
  7  8  2  0
  7  9  1  0
  9 10  1  0
 10 11  2  0
 10 12  1  0
  9 13  1  0
 13 14  1  0
 14 15  2  0
 15 16  1  0
 15 17  1  0
 17 18  1  0
 18 19  1  0
 19 20  2  0
 20 21  1  0
 21 22  2  0
 22 23  1  0
 23 24  2  0
 17 25  1  0
 25 26  1  0
 14 27  1  0
 27 28  1  0
 28 29  1  0
 29 30  1  0
 30 31  2  0
 30 32  1  0
 32 33  1  0
 33 34  1  0
 33 35  1  0
 33 36  1  0
 29 37  1  0
 37 38  1  0
 38 39  1  0
  8  3  1  0
  9 39  1  1
 12  6  1  0
 25 13  2  0
 39 27  1  0
 24 19  1  0
  1 40  1  0
  1 41  1  0
  1 42  1  0
  4 43  1  0
  5 44  1  0
  8 45  1  0
 12 46  1  0
 16 47  1  0
 18 48  1  0
 18 49  1  0
 20 50  1  0
 21 51  1  0
 22 52  1  0
 23 53  1  0
 24 54  1  0
 26 55  1  0
 27 56  1  6
 28 57  1  0
 28 58  1  0
 34 59  1  0
 34 60  1  0
 34 61  1  0
 35 62  1  0
 35 63  1  0
 35 64  1  0
 36 65  1  0
 36 66  1  0
 36 67  1  0
 37 68  1  0
 37 69  1  0
 38 70  1  0
 38 71  1  0
M  END
$$$$
