
     RDKit          3D

 54 56  0  0  0  0  0  0  0  0999 V2000
    7.0420    0.8669    0.2675 C   0  0  0  0  0  0  0  0  0  0  0  0
    6.1348    1.4807   -0.7937 C   0  0  0  0  0  0  0  0  0  0  0  0
    4.7275    1.0713   -0.7902 N   0  0  0  0  0  0  0  0  0  0  0  0
    4.5348   -0.3816   -0.9607 C   0  0  0  0  0  0  0  0  0  0  0  0
    3.0386   -0.7757   -1.0420 C   0  0  0  0  0  0  0  0  0  0  0  0
    2.3036   -0.2735    0.1430 N   0  0  0  0  0  0  0  0  0  0  0  0
    0.9498   -0.6677    0.1531 C   0  0  0  0  0  0  0  0  0  0  0  0
    0.6348   -2.0092    0.2424 C   0  0  0  0  0  0  0  0  0  0  0  0
   -0.7005   -2.3469    0.2599 C   0  0  0  0  0  0  0  0  0  0  0  0
   -1.1342   -4.0791    0.3630 S   0  0  0  0  0  0  0  0  0  0  0  0
   -2.9634   -4.0257    0.2050 C   0  0  0  0  0  0  0  0  0  0  0  0
   -3.6039   -3.7291    1.5605 C   0  0  0  0  0  0  0  0  0  0  0  0
   -3.4353   -5.3816   -0.3193 C   0  0  0  0  0  0  0  0  0  0  0  0
   -1.6808   -1.4368    0.2018 N   0  0  0  0  0  0  0  0  0  0  0  0
   -1.2999   -0.1525    0.1370 C   0  0  0  0  0  0  0  0  0  0  0  0
   -2.3583    0.8773    0.0793 C   0  0  0  0  0  0  0  0  0  0  0  0
   -2.0525    2.2393   -0.1082 C   0  0  0  0  0  0  0  0  0  0  0  0
   -3.0522    3.2216   -0.1647 C   0  0  0  0  0  0  0  0  0  0  0  0
   -4.3914    2.8647   -0.0327 C   0  0  0  0  0  0  0  0  0  0  0  0
   -5.4605    3.7157   -0.0664 O   0  0  0  0  0  0  0  0  0  0  0  0
   -5.1794    5.0903   -0.3056 C   0  0  0  0  0  0  0  0  0  0  0  0
   -4.7184    1.5222    0.1558 C   0  0  0  0  0  0  0  0  0  0  0  0
   -3.7189    0.5439    0.2090 C   0  0  0  0  0  0  0  0  0  0  0  0
   -0.0193    0.2611    0.1155 N   0  0  0  0  0  0  0  0  0  0  0  0
    2.4861    1.1846    0.3272 C   0  0  0  0  0  0  0  0  0  0  0  0
    3.9923    1.5293    0.4050 C   0  0  0  0  0  0  0  0  0  0  0  0
    8.0511    1.2794    0.1701 H   0  0  0  0  0  0  0  0  0  0  0  0
    6.6929    1.0877    1.2810 H   0  0  0  0  0  0  0  0  0  0  0  0
    7.1241   -0.2153    0.1560 H   0  0  0  0  0  0  0  0  0  0  0  0
    6.5576    1.2586   -1.7820 H   0  0  0  0  0  0  0  0  0  0  0  0
    6.1832    2.5733   -0.7019 H   0  0  0  0  0  0  0  0  0  0  0  0
    5.0263   -0.7138   -1.8826 H   0  0  0  0  0  0  0  0  0  0  0  0
    4.9879   -0.9307   -0.1260 H   0  0  0  0  0  0  0  0  0  0  0  0
    2.5999   -0.3638   -1.9607 H   0  0  0  0  0  0  0  0  0  0  0  0
    2.9886   -1.8698   -1.1054 H   0  0  0  0  0  0  0  0  0  0  0  0
    1.4061   -2.7635    0.3176 H   0  0  0  0  0  0  0  0  0  0  0  0
   -3.2548   -3.2662   -0.5279 H   0  0  0  0  0  0  0  0  0  0  0  0
   -3.3333   -4.4843    2.3078 H   0  0  0  0  0  0  0  0  0  0  0  0
   -3.3127   -2.7486    1.9457 H   0  0  0  0  0  0  0  0  0  0  0  0
   -4.6944   -3.7263    1.4731 H   0  0  0  0  0  0  0  0  0  0  0  0
   -4.5187   -5.3690   -0.4923 H   0  0  0  0  0  0  0  0  0  0  0  0
   -3.2258   -6.1899    0.3906 H   0  0  0  0  0  0  0  0  0  0  0  0
   -2.9547   -5.6295   -1.2734 H   0  0  0  0  0  0  0  0  0  0  0  0
   -1.0144    2.5511   -0.2159 H   0  0  0  0  0  0  0  0  0  0  0  0
   -2.7439    4.2516   -0.3111 H   0  0  0  0  0  0  0  0  0  0  0  0
   -4.5777    5.5183    0.5060 H   0  0  0  0  0  0  0  0  0  0  0  0
   -4.6925    5.2326   -1.2775 H   0  0  0  0  0  0  0  0  0  0  0  0
   -6.1334    5.6257   -0.3314 H   0  0  0  0  0  0  0  0  0  0  0  0
   -5.7604    1.2307    0.2622 H   0  0  0  0  0  0  0  0  0  0  0  0
   -4.0166   -0.4929    0.3580 H   0  0  0  0  0  0  0  0  0  0  0  0
    2.0129    1.5097    1.2626 H   0  0  0  0  0  0  0  0  0  0  0  0
    2.0318    1.7434   -0.5041 H   0  0  0  0  0  0  0  0  0  0  0  0
    4.0881    2.6173    0.5072 H   0  0  0  0  0  0  0  0  0  0  0  0
    4.4071    1.0745    1.3129 H   0  0  0  0  0  0  0  0  0  0  0  0
  1  2  1  0
  2  3  1  0
  3  4  1  0
  4  5  1  0
  5  6  1  0
  6  7  1  0
  7  8  2  0
  8  9  1  0
  9 10  1  0
 10 11  1  0
 11 12  1  0
 11 13  1  0
  9 14  2  0
 14 15  1  0
 15 16  1  0
 16 17  2  0
 17 18  1  0
 18 19  2  0
 19 20  1  0
 20 21  1  0
 19 22  1  0
 22 23  2  0
 15 24  2  0
  6 25  1  0
 25 26  1  0
 26  3  1  0
 24  7  1  0
 23 16  1  0
  1 27  1  0
  1 28  1  0
  1 29  1  0
  2 30  1  0
  2 31  1  0
  4 32  1  0
  4 33  1  0
  5 34  1  0
  5 35  1  0
  8 36  1  0
 11 37  1  0
 12 38  1  0
 12 39  1  0
 12 40  1  0
 13 41  1  0
 13 42  1  0
 13 43  1  0
 17 44  1  0
 18 45  1  0
 21 46  1  0
 21 47  1  0
 21 48  1  0
 22 49  1  0
 23 50  1  0
 25 51  1  0
 25 52  1  0
 26 53  1  0
 26 54  1  0
M  END
$$$$
