
     RDKit          3D

 46 48  0  0  0  0  0  0  0  0999 V2000
    4.6667   -1.3695   -4.4363 C   0  0  0  0  0  0  0  0  0  0  0  0
    3.7422   -1.9839   -3.4035 C   0  0  0  0  0  0  0  0  0  0  0  0
    3.7207   -1.1262   -2.2558 O   0  0  0  0  0  0  0  0  0  0  0  0
    2.9165   -1.5557   -1.2510 C   0  0  0  0  0  0  0  0  0  0  0  0
    2.2542   -2.5846   -1.2659 O   0  0  0  0  0  0  0  0  0  0  0  0
    2.9291   -0.6034   -0.0990 C   0  0  0  0  0  0  0  0  0  0  0  0
    3.8376    0.4721   -0.0890 C   0  0  0  0  0  0  0  0  0  0  0  0
    3.8685    1.3650    0.9805 C   0  0  0  0  0  0  0  0  0  0  0  0
    2.9955    1.1917    2.0474 C   0  0  0  0  0  0  0  0  0  0  0  0
    2.0885    0.1275    2.0512 C   0  0  0  0  0  0  0  0  0  0  0  0
    2.0373   -0.7826    0.9875 C   0  0  0  0  0  0  0  0  0  0  0  0
    1.1218   -1.8649    0.9702 N   0  0  0  0  0  0  0  0  0  0  0  0
    0.1280   -2.1740    1.8773 C   0  0  0  0  0  0  0  0  0  0  0  0
   -0.1266   -1.5764    2.9203 O   0  0  0  0  0  0  0  0  0  0  0  0
   -0.6749   -3.4072    1.4926 C   0  0  0  0  0  0  0  0  0  0  0  0
   -1.5707   -3.1929   -0.0777 S   0  0  0  0  0  0  0  0  0  0  0  0
   -2.3312   -1.6154    0.2113 C   0  0  0  0  0  0  0  0  0  0  0  0
   -3.2480   -1.4091    1.2265 C   0  0  0  0  0  0  0  0  0  0  0  0
   -3.7753   -0.1301    1.4090 C   0  0  0  0  0  0  0  0  0  0  0  0
   -3.3755    0.9024    0.5675 C   0  0  0  0  0  0  0  0  0  0  0  0
   -3.8646    2.2844    0.6702 C   0  0  0  0  0  0  0  0  0  0  0  0
   -3.9628    3.1180   -0.4554 C   0  0  0  0  0  0  0  0  0  0  0  0
   -4.4341    4.4253   -0.3375 C   0  0  0  0  0  0  0  0  0  0  0  0
   -4.7986    4.8790    0.9166 C   0  0  0  0  0  0  0  0  0  0  0  0
   -4.7182    4.1265    2.0325 N   0  0  0  0  0  0  0  0  0  0  0  0
   -4.2494    2.8615    1.8818 C   0  0  0  0  0  0  0  0  0  0  0  0
   -2.4945    0.6527   -0.4286 N   0  0  0  0  0  0  0  0  0  0  0  0
   -1.9686   -0.6092   -0.6062 N   0  0  0  0  0  0  0  0  0  0  0  0
    5.6737   -1.2421   -4.0250 H   0  0  0  0  0  0  0  0  0  0  0  0
    4.3136   -0.3745   -4.7279 H   0  0  0  0  0  0  0  0  0  0  0  0
    4.7264   -1.9987   -5.3293 H   0  0  0  0  0  0  0  0  0  0  0  0
    2.7317   -2.0745   -3.8177 H   0  0  0  0  0  0  0  0  0  0  0  0
    4.1145   -2.9741   -3.1165 H   0  0  0  0  0  0  0  0  0  0  0  0
    4.5314    0.6286   -0.9116 H   0  0  0  0  0  0  0  0  0  0  0  0
    4.5713    2.1946    0.9800 H   0  0  0  0  0  0  0  0  0  0  0  0
    3.0127    1.8858    2.8847 H   0  0  0  0  0  0  0  0  0  0  0  0
    1.4290    0.0412    2.9093 H   0  0  0  0  0  0  0  0  0  0  0  0
    1.1602   -2.4489    0.1295 H   0  0  0  0  0  0  0  0  0  0  0  0
    0.0045   -4.2613    1.4052 H   0  0  0  0  0  0  0  0  0  0  0  0
   -1.3896   -3.6336    2.2906 H   0  0  0  0  0  0  0  0  0  0  0  0
   -3.5564   -2.2189    1.8790 H   0  0  0  0  0  0  0  0  0  0  0  0
   -4.5008    0.0331    2.1995 H   0  0  0  0  0  0  0  0  0  0  0  0
   -3.6722    2.7493   -1.4380 H   0  0  0  0  0  0  0  0  0  0  0  0
   -4.5117    5.0700   -1.2060 H   0  0  0  0  0  0  0  0  0  0  0  0
   -5.1716    5.8889    1.0610 H   0  0  0  0  0  0  0  0  0  0  0  0
   -4.1802    2.3142    2.8188 H   0  0  0  0  0  0  0  0  0  0  0  0
  1  2  1  0
  2  3  1  0
  3  4  1  0
  4  5  2  0
  4  6  1  0
  6  7  2  0
  7  8  1  0
  8  9  2  0
  9 10  1  0
 10 11  2  0
 11 12  1  0
 12 13  1  0
 13 14  2  0
 13 15  1  0
 15 16  1  0
 16 17  1  0
 17 18  2  0
 18 19  1  0
 19 20  2  0
 20 21  1  0
 21 22  2  0
 22 23  1  0
 23 24  2  0
 24 25  1  0
 25 26  2  0
 20 27  1  0
 27 28  2  0
 11  6  1  0
 28 17  1  0
 26 21  1  0
  1 29  1  0
  1 30  1  0
  1 31  1  0
  2 32  1  0
  2 33  1  0
  7 34  1  0
  8 35  1  0
  9 36  1  0
 10 37  1  0
 12 38  1  0
 15 39  1  0
 15 40  1  0
 18 41  1  0
 19 42  1  0
 22 43  1  0
 23 44  1  0
 24 45  1  0
 26 46  1  0
M  END
$$$$
