
     RDKit          3D

 43 45  0  0  0  0  0  0  0  0999 V2000
   -1.7417   -3.4408   -0.6586 N   0  0  0  0  0  0  0  0  0  0  0  0
   -0.5249   -2.8815   -0.5254 C   0  0  0  0  0  0  0  0  0  0  0  0
    0.5682   -3.5840   -0.5084 N   0  0  0  0  0  0  0  0  0  0  0  0
    1.6480   -2.5671   -0.3727 C   0  0  0  0  0  0  0  0  0  0  0  0
    0.9565   -1.2248   -0.0543 C   0  0  0  0  0  0  0  0  0  0  0  0
    1.4923   -0.0530   -0.8831 C   0  0  0  0  0  0  0  0  0  0  0  0
    2.8915    0.3552   -0.4879 C   0  0  0  0  0  0  0  0  0  0  0  0
    3.9875    0.0073   -1.2895 C   0  0  0  0  0  0  0  0  0  0  0  0
    5.2806    0.3745   -0.9148 C   0  0  0  0  0  0  0  0  0  0  0  0
    5.4818    1.0891    0.2593 C   0  0  0  0  0  0  0  0  0  0  0  0
    6.7617    1.4261    0.5862 O   0  0  0  0  0  0  0  0  0  0  0  0
    4.4087    1.4454    1.0686 C   0  0  0  0  0  0  0  0  0  0  0  0
    3.1141    1.0781    0.6939 C   0  0  0  0  0  0  0  0  0  0  0  0
   -0.4378   -1.5286   -0.3974 N   0  0  0  0  0  0  0  0  0  0  0  0
   -1.4797   -0.7046    0.2129 C   0  0  0  0  0  0  0  0  0  0  0  0
   -2.3641   -0.0769   -0.8691 C   0  0  0  0  0  0  0  0  0  0  0  0
   -3.3983    0.8520   -0.2825 C   0  0  0  0  0  0  0  0  0  0  0  0
   -3.1668    2.2349   -0.2286 C   0  0  0  0  0  0  0  0  0  0  0  0
   -4.1174    3.0937    0.3302 C   0  0  0  0  0  0  0  0  0  0  0  0
   -5.3060    2.5776    0.8428 C   0  0  0  0  0  0  0  0  0  0  0  0
   -5.5338    1.2079    0.7933 C   0  0  0  0  0  0  0  0  0  0  0  0
   -6.6751    0.7112    1.2880 F   0  0  0  0  0  0  0  0  0  0  0  0
   -4.5948    0.3429    0.2397 C   0  0  0  0  0  0  0  0  0  0  0  0
   -2.2972   -2.9936   -1.3744 H   0  0  0  0  0  0  0  0  0  0  0  0
   -1.6375   -4.4298   -0.8649 H   0  0  0  0  0  0  0  0  0  0  0  0
    2.2143   -2.5380   -1.3099 H   0  0  0  0  0  0  0  0  0  0  0  0
    2.3313   -2.8543    0.4333 H   0  0  0  0  0  0  0  0  0  0  0  0
    1.0396   -1.0270    1.0226 H   0  0  0  0  0  0  0  0  0  0  0  0
    1.4563   -0.2939   -1.9539 H   0  0  0  0  0  0  0  0  0  0  0  0
    0.8383    0.8212   -0.7662 H   0  0  0  0  0  0  0  0  0  0  0  0
    3.8452   -0.5527   -2.2113 H   0  0  0  0  0  0  0  0  0  0  0  0
    6.1286    0.1030   -1.5373 H   0  0  0  0  0  0  0  0  0  0  0  0
    6.7495    1.9141    1.4255 H   0  0  0  0  0  0  0  0  0  0  0  0
    4.5580    2.0046    1.9867 H   0  0  0  0  0  0  0  0  0  0  0  0
    2.2791    1.3624    1.3307 H   0  0  0  0  0  0  0  0  0  0  0  0
   -1.0253    0.0964    0.8110 H   0  0  0  0  0  0  0  0  0  0  0  0
   -2.0795   -1.2960    0.9163 H   0  0  0  0  0  0  0  0  0  0  0  0
   -2.8718   -0.8514   -1.4562 H   0  0  0  0  0  0  0  0  0  0  0  0
   -1.7425    0.4725   -1.5882 H   0  0  0  0  0  0  0  0  0  0  0  0
   -2.2439    2.6545   -0.6250 H   0  0  0  0  0  0  0  0  0  0  0  0
   -3.9305    4.1641    0.3643 H   0  0  0  0  0  0  0  0  0  0  0  0
   -6.0540    3.2315    1.2792 H   0  0  0  0  0  0  0  0  0  0  0  0
   -4.8086   -0.7220    0.2222 H   0  0  0  0  0  0  0  0  0  0  0  0
  1  2  1  0
  2  3  2  0
  3  4  1  0
  4  5  1  0
  5  6  1  0
  6  7  1  0
  7  8  2  0
  8  9  1  0
  9 10  2  0
 10 11  1  0
 10 12  1  0
 12 13  2  0
  5 14  1  0
 14 15  1  0
 15 16  1  0
 16 17  1  0
 17 18  2  0
 18 19  1  0
 19 20  2  0
 20 21  1  0
 21 22  1  0
 21 23  2  0
 14  2  1  0
 23 17  1  0
 13  7  1  0
  1 24  1  0
  1 25  1  0
  4 26  1  0
  4 27  1  0
  5 28  1  0
  6 29  1  0
  6 30  1  0
  8 31  1  0
  9 32  1  0
 11 33  1  0
 12 34  1  0
 13 35  1  0
 15 36  1  0
 15 37  1  0
 16 38  1  0
 16 39  1  0
 18 40  1  0
 19 41  1  0
 20 42  1  0
 23 43  1  0
M  END
$$$$
