
     RDKit          3D

 55 57  0  0  0  0  0  0  0  0999 V2000
    3.0675   -0.0707   -0.2200 O   0  0  0  0  0  0  0  0  0  0  0  0
    2.1385    0.3352    0.4690 C   0  0  0  0  0  0  0  0  0  0  0  0
    2.1686    1.3593    1.3934 N   0  0  0  0  0  0  0  0  0  0  0  0
    3.2524    2.1891    1.7375 C   0  0  0  0  0  0  0  0  0  0  0  0
    4.5119    2.1100    1.1411 C   0  0  0  0  0  0  0  0  0  0  0  0
    5.5373    2.9769    1.5357 C   0  0  0  0  0  0  0  0  0  0  0  0
    5.3106    3.9282    2.5290 C   0  0  0  0  0  0  0  0  0  0  0  0
    4.0587    4.0129    3.1333 C   0  0  0  0  0  0  0  0  0  0  0  0
    3.0338    3.1492    2.7369 C   0  0  0  0  0  0  0  0  0  0  0  0
    0.7623   -0.2825    0.3831 C   0  0  0  0  0  0  0  0  0  0  0  0
    0.5566   -1.2762   -0.4984 C   0  0  0  0  0  0  0  0  0  0  0  0
   -0.7662   -1.9751   -0.6349 C   0  0  0  0  0  0  0  0  0  0  0  0
   -0.6327   -3.4870   -0.7556 C   0  0  0  0  0  0  0  0  0  0  0  0
   -1.3113   -4.1674   -1.7777 C   0  0  0  0  0  0  0  0  0  0  0  0
   -1.2153   -5.5568   -1.8963 C   0  0  0  0  0  0  0  0  0  0  0  0
   -0.4354   -6.2983   -0.9970 C   0  0  0  0  0  0  0  0  0  0  0  0
   -0.3492   -7.8000   -1.1093 C   0  0  0  0  0  0  0  0  0  0  0  0
   -1.2965   -8.4294   -0.3598 F   0  0  0  0  0  0  0  0  0  0  0  0
    0.8480   -8.2998   -0.6942 F   0  0  0  0  0  0  0  0  0  0  0  0
   -0.5193   -8.2542   -2.3826 F   0  0  0  0  0  0  0  0  0  0  0  0
    0.2331   -5.6225    0.0332 C   0  0  0  0  0  0  0  0  0  0  0  0
    0.1362   -4.2330    0.1516 C   0  0  0  0  0  0  0  0  0  0  0  0
   -1.6961   -1.6067    0.5285 C   0  0  0  0  0  0  0  0  0  0  0  0
   -1.5663   -0.1210    0.8418 C   0  0  0  0  0  0  0  0  0  0  0  0
   -2.0244    0.6404   -0.2799 O   0  0  0  0  0  0  0  0  0  0  0  0
   -2.2089    2.0185    0.0426 C   0  0  0  0  0  0  0  0  0  0  0  0
   -2.5673    2.7616   -1.2383 C   0  0  0  0  0  0  0  0  0  0  0  0
   -2.8479    4.2350   -0.9666 C   0  0  0  0  0  0  0  0  0  0  0  0
   -3.1154    5.0048   -2.2514 C   0  0  0  0  0  0  0  0  0  0  0  0
   -3.3892    6.3651   -1.9406 O   0  0  0  0  0  0  0  0  0  0  0  0
   -0.2242    0.2214    1.2185 O   0  0  0  0  0  0  0  0  0  0  0  0
    1.2906    1.5295    1.8733 H   0  0  0  0  0  0  0  0  0  0  0  0
    4.7310    1.3839    0.3611 H   0  0  0  0  0  0  0  0  0  0  0  0
    6.5138    2.9053    1.0603 H   0  0  0  0  0  0  0  0  0  0  0  0
    6.1098    4.6007    2.8291 H   0  0  0  0  0  0  0  0  0  0  0  0
    3.8771    4.7587    3.9040 H   0  0  0  0  0  0  0  0  0  0  0  0
    2.0638    3.2399    3.2203 H   0  0  0  0  0  0  0  0  0  0  0  0
    1.3631   -1.6029   -1.1527 H   0  0  0  0  0  0  0  0  0  0  0  0
   -1.2098   -1.5987   -1.5691 H   0  0  0  0  0  0  0  0  0  0  0  0
   -1.9220   -3.6187   -2.4929 H   0  0  0  0  0  0  0  0  0  0  0  0
   -1.7529   -6.0621   -2.6988 H   0  0  0  0  0  0  0  0  0  0  0  0
    0.8382   -6.1768    0.7502 H   0  0  0  0  0  0  0  0  0  0  0  0
    0.6715   -3.7357    0.9596 H   0  0  0  0  0  0  0  0  0  0  0  0
   -2.7314   -1.8557    0.2634 H   0  0  0  0  0  0  0  0  0  0  0  0
   -1.4365   -2.1810    1.4276 H   0  0  0  0  0  0  0  0  0  0  0  0
   -2.2099    0.1012    1.7014 H   0  0  0  0  0  0  0  0  0  0  0  0
   -1.2892    2.4363    0.4706 H   0  0  0  0  0  0  0  0  0  0  0  0
   -3.0178    2.1089    0.7757 H   0  0  0  0  0  0  0  0  0  0  0  0
   -3.4421    2.2901   -1.7035 H   0  0  0  0  0  0  0  0  0  0  0  0
   -1.7461    2.6544   -1.9589 H   0  0  0  0  0  0  0  0  0  0  0  0
   -3.7073    4.3381   -0.2934 H   0  0  0  0  0  0  0  0  0  0  0  0
   -2.0016    4.6963   -0.4395 H   0  0  0  0  0  0  0  0  0  0  0  0
   -2.2408    4.9791   -2.9102 H   0  0  0  0  0  0  0  0  0  0  0  0
   -3.9700    4.5914   -2.7980 H   0  0  0  0  0  0  0  0  0  0  0  0
   -4.2312    6.3912   -1.4521 H   0  0  0  0  0  0  0  0  0  0  0  0
  1  2  2  0
  2  3  1  0
  3  4  1  0
  4  5  2  0
  5  6  1  0
  6  7  2  0
  7  8  1  0
  8  9  2  0
  2 10  1  0
 10 11  2  0
 11 12  1  0
 12 13  1  0
 13 14  2  0
 14 15  1  0
 15 16  2  0
 16 17  1  0
 17 18  1  0
 17 19  1  0
 17 20  1  0
 16 21  1  0
 21 22  2  0
 12 23  1  0
 23 24  1  0
 24 25  1  0
 25 26  1  0
 26 27  1  0
 27 28  1  0
 28 29  1  0
 29 30  1  0
 24 31  1  0
  9  4  1  0
 31 10  1  0
 22 13  1  0
  3 32  1  0
  5 33  1  0
  6 34  1  0
  7 35  1  0
  8 36  1  0
  9 37  1  0
 11 38  1  0
 12 39  1  0
 14 40  1  0
 15 41  1  0
 21 42  1  0
 22 43  1  0
 23 44  1  0
 23 45  1  0
 24 46  1  0
 26 47  1  0
 26 48  1  0
 27 49  1  0
 27 50  1  0
 28 51  1  0
 28 52  1  0
 29 53  1  0
 29 54  1  0
 30 55  1  0
M  END
$$$$
