
     RDKit          3D

 46 48  0  0  0  0  0  0  0  0999 V2000
    7.9871   -0.4064    1.1244 C   0  0  0  0  0  0  0  0  0  0  0  0
    7.0201   -1.4473    1.1830 O   0  0  0  0  0  0  0  0  0  0  0  0
    5.7342   -1.1203    0.8558 C   0  0  0  0  0  0  0  0  0  0  0  0
    5.2785    0.1416    0.4739 C   0  0  0  0  0  0  0  0  0  0  0  0
    3.9260    0.3437    0.1627 C   0  0  0  0  0  0  0  0  0  0  0  0
    3.0168   -0.7190    0.2304 C   0  0  0  0  0  0  0  0  0  0  0  0
    1.5649   -0.5588   -0.0896 C   0  0  0  0  0  0  0  0  0  0  0  0
    0.8069   -1.5154    0.0756 O   0  0  0  0  0  0  0  0  0  0  0  0
    1.0836    0.7973   -0.5976 C   0  0  0  0  0  0  0  0  0  0  0  0
   -0.3098    0.6984   -0.9639 N   0  0  0  0  0  0  0  0  0  0  0  0
   -0.7553    0.3268   -2.1896 C   0  0  0  0  0  0  0  0  0  0  0  0
   -0.0844    0.0669   -3.1741 O   0  0  0  0  0  0  0  0  0  0  0  0
   -2.1290    0.3017   -2.1624 N   0  0  0  0  0  0  0  0  0  0  0  0
   -2.6722    0.4921   -0.8198 C   0  0  0  0  0  0  0  0  0  0  0  0
   -3.1990   -0.8630   -0.3167 C   0  0  0  0  0  0  0  0  0  0  0  0
   -3.6936   -0.8941    1.1274 C   0  0  0  0  0  0  0  0  0  0  0  0
   -5.1371   -0.4466    1.3268 C   0  0  0  0  0  0  0  0  0  0  0  0
   -5.5861    0.7865    0.5523 C   0  0  0  0  0  0  0  0  0  0  0  0
   -4.5224    1.8677    0.3987 C   0  0  0  0  0  0  0  0  0  0  0  0
   -3.6552    1.6661   -0.8441 C   0  0  0  0  0  0  0  0  0  0  0  0
   -1.3541    0.8809   -0.1030 C   0  0  0  0  0  0  0  0  0  0  0  0
   -1.2573    1.2789    1.0510 O   0  0  0  0  0  0  0  0  0  0  0  0
    3.4783   -1.9831    0.6165 C   0  0  0  0  0  0  0  0  0  0  0  0
    4.8270   -2.1786    0.9254 C   0  0  0  0  0  0  0  0  0  0  0  0
    8.0832   -0.0139    0.1067 H   0  0  0  0  0  0  0  0  0  0  0  0
    8.9540   -0.8317    1.4100 H   0  0  0  0  0  0  0  0  0  0  0  0
    7.7510    0.3918    1.8358 H   0  0  0  0  0  0  0  0  0  0  0  0
    5.9495    0.9924    0.4088 H   0  0  0  0  0  0  0  0  0  0  0  0
    3.6188    1.3448   -0.1248 H   0  0  0  0  0  0  0  0  0  0  0  0
    1.6603    1.0810   -1.4831 H   0  0  0  0  0  0  0  0  0  0  0  0
    1.1938    1.5390    0.1992 H   0  0  0  0  0  0  0  0  0  0  0  0
   -2.6411   -0.0673   -2.9531 H   0  0  0  0  0  0  0  0  0  0  0  0
   -3.9866   -1.2313   -0.9872 H   0  0  0  0  0  0  0  0  0  0  0  0
   -2.3849   -1.5986   -0.3902 H   0  0  0  0  0  0  0  0  0  0  0  0
   -3.0355   -0.3107    1.7784 H   0  0  0  0  0  0  0  0  0  0  0  0
   -3.6200   -1.9261    1.4949 H   0  0  0  0  0  0  0  0  0  0  0  0
   -5.8098   -1.2748    1.0694 H   0  0  0  0  0  0  0  0  0  0  0  0
   -5.2880   -0.2672    2.3992 H   0  0  0  0  0  0  0  0  0  0  0  0
   -6.4513    1.2118    1.0768 H   0  0  0  0  0  0  0  0  0  0  0  0
   -5.9585    0.4837   -0.4343 H   0  0  0  0  0  0  0  0  0  0  0  0
   -3.9128    1.9634    1.3035 H   0  0  0  0  0  0  0  0  0  0  0  0
   -5.0404    2.8279    0.2769 H   0  0  0  0  0  0  0  0  0  0  0  0
   -3.0964    2.5972   -1.0139 H   0  0  0  0  0  0  0  0  0  0  0  0
   -4.3178    1.5656   -1.7151 H   0  0  0  0  0  0  0  0  0  0  0  0
    2.7928   -2.8267    0.6793 H   0  0  0  0  0  0  0  0  0  0  0  0
    5.1718   -3.1665    1.2230 H   0  0  0  0  0  0  0  0  0  0  0  0
  1  2  1  0
  2  3  1  0
  3  4  2  0
  4  5  1  0
  5  6  2  0
  6  7  1  0
  7  8  2  0
  7  9  1  0
  9 10  1  0
 10 11  1  0
 11 12  2  0
 11 13  1  0
 13 14  1  0
 14 15  1  0
 15 16  1  0
 16 17  1  0
 17 18  1  0
 18 19  1  0
 19 20  1  0
 14 21  1  0
 21 22  2  0
  6 23  1  0
 23 24  2  0
 24  3  1  0
 21 10  1  0
 20 14  1  0
  1 25  1  0
  1 26  1  0
  1 27  1  0
  4 28  1  0
  5 29  1  0
  9 30  1  0
  9 31  1  0
 13 32  1  0
 15 33  1  0
 15 34  1  0
 16 35  1  0
 16 36  1  0
 17 37  1  0
 17 38  1  0
 18 39  1  0
 18 40  1  0
 19 41  1  0
 19 42  1  0
 20 43  1  0
 20 44  1  0
 23 45  1  0
 24 46  1  0
M  END
$$$$
