
     RDKit          3D

 49 52  0  0  0  0  0  0  0  0999 V2000
   -6.4320   -1.1955   -2.8841 C   0  0  0  0  0  0  0  0  0  0  0  0
   -5.9904   -0.3952   -1.6947 C   0  0  0  0  0  0  0  0  0  0  0  0
   -6.9071    0.3951   -0.9940 C   0  0  0  0  0  0  0  0  0  0  0  0
   -6.5091    1.1120    0.1400 C   0  0  0  0  0  0  0  0  0  0  0  0
   -7.4855    1.9900    0.8667 C   0  0  0  0  0  0  0  0  0  0  0  0
   -5.1724    1.0461    0.5632 C   0  0  0  0  0  0  0  0  0  0  0  0
   -4.2452    0.2541   -0.1157 C   0  0  0  0  0  0  0  0  0  0  0  0
   -2.8922    0.1221    0.2639 N   0  0  0  0  0  0  0  0  0  0  0  0
   -2.2341    0.7918    1.2796 C   0  0  0  0  0  0  0  0  0  0  0  0
   -2.6856    1.6777    1.9947 O   0  0  0  0  0  0  0  0  0  0  0  0
   -0.8092    0.3948    1.4660 C   0  0  0  0  0  0  0  0  0  0  0  0
    0.1158    1.3776    1.8376 C   0  0  0  0  0  0  0  0  0  0  0  0
    1.4601    1.0416    2.0178 C   0  0  0  0  0  0  0  0  0  0  0  0
    1.8930   -0.2732    1.8264 C   0  0  0  0  0  0  0  0  0  0  0  0
    3.2344   -0.6129    2.0331 N   0  0  0  0  0  0  0  0  0  0  0  0
    4.0719   -0.5861    1.0510 C   0  0  0  0  0  0  0  0  0  0  0  0
    5.4088   -0.8892    1.1992 N   0  0  0  0  0  0  0  0  0  0  0  0
    6.2094   -0.3377    0.1288 C   0  0  0  0  0  0  0  0  0  0  0  0
    7.5578   -0.9545   -0.1449 C   0  0  0  0  0  0  0  0  0  0  0  0
    7.8583   -0.4101   -1.8390 S   0  0  0  0  0  6  0  0  0  0  0  0
    8.6596    0.7944   -1.7957 O   0  0  0  0  0  0  0  0  0  0  0  0
    8.2322   -1.5620   -2.6306 O   0  0  0  0  0  0  0  0  0  0  0  0
    6.1589    0.0507   -2.2492 C   0  0  0  0  0  0  0  0  0  0  0  0
    5.3946   -0.6238   -1.1375 C   0  0  0  0  0  0  0  0  0  0  0  0
    3.7342   -0.1076   -0.6360 S   0  0  0  0  0  0  0  0  0  0  0  0
    0.9592   -1.2600    1.4959 C   0  0  0  0  0  0  0  0  0  0  0  0
   -0.3878   -0.9324    1.3130 C   0  0  0  0  0  0  0  0  0  0  0  0
   -4.6671   -0.4718   -1.2381 C   0  0  0  0  0  0  0  0  0  0  0  0
   -5.6122   -1.3157   -3.6001 H   0  0  0  0  0  0  0  0  0  0  0  0
   -7.2510   -0.6944   -3.4107 H   0  0  0  0  0  0  0  0  0  0  0  0
   -6.7707   -2.1856   -2.5638 H   0  0  0  0  0  0  0  0  0  0  0  0
   -7.9400    0.4534   -1.3322 H   0  0  0  0  0  0  0  0  0  0  0  0
   -7.2596    2.0214    1.9378 H   0  0  0  0  0  0  0  0  0  0  0  0
   -8.5072    1.6101    0.7623 H   0  0  0  0  0  0  0  0  0  0  0  0
   -7.4443    3.0070    0.4649 H   0  0  0  0  0  0  0  0  0  0  0  0
   -4.8821    1.6211    1.4376 H   0  0  0  0  0  0  0  0  0  0  0  0
   -2.3338   -0.4833   -0.3225 H   0  0  0  0  0  0  0  0  0  0  0  0
   -0.2087    2.4050    1.9896 H   0  0  0  0  0  0  0  0  0  0  0  0
    2.1727    1.8069    2.3125 H   0  0  0  0  0  0  0  0  0  0  0  0
    5.7289   -0.7893    2.1581 H   0  0  0  0  0  0  0  0  0  0  0  0
    6.3313    0.7444    0.2918 H   0  0  0  0  0  0  0  0  0  0  0  0
    7.5375   -2.0478   -0.1267 H   0  0  0  0  0  0  0  0  0  0  0  0
    8.3452   -0.5783    0.5111 H   0  0  0  0  0  0  0  0  0  0  0  0
    6.0862    1.1414   -2.2176 H   0  0  0  0  0  0  0  0  0  0  0  0
    5.9055   -0.3274   -3.2413 H   0  0  0  0  0  0  0  0  0  0  0  0
    5.3438   -1.7054   -1.3277 H   0  0  0  0  0  0  0  0  0  0  0  0
    1.2859   -2.2914    1.3920 H   0  0  0  0  0  0  0  0  0  0  0  0
   -1.0949   -1.7256    1.0877 H   0  0  0  0  0  0  0  0  0  0  0  0
   -3.9635   -1.1025   -1.7759 H   0  0  0  0  0  0  0  0  0  0  0  0
  1  2  1  0
  2  3  2  0
  3  4  1  0
  4  5  1  0
  4  6  2  0
  6  7  1  0
  7  8  1  0
  8  9  1  0
  9 10  2  0
  9 11  1  0
 11 12  2  0
 12 13  1  0
 13 14  2  0
 14 15  1  0
 15 16  2  3
 16 17  1  0
 17 18  1  0
 18 19  1  0
 19 20  1  0
 20 21  2  0
 20 22  2  0
 20 23  1  0
 23 24  1  0
 24 25  1  0
 14 26  1  0
 26 27  2  0
  7 28  2  0
 28  2  1  0
 27 11  1  0
 25 16  1  0
 24 18  1  0
  1 29  1  0
  1 30  1  0
  1 31  1  0
  3 32  1  0
  5 33  1  0
  5 34  1  0
  5 35  1  0
  6 36  1  0
  8 37  1  0
 12 38  1  0
 13 39  1  0
 17 40  1  0
 18 41  1  0
 19 42  1  0
 19 43  1  0
 23 44  1  0
 23 45  1  0
 24 46  1  0
 26 47  1  0
 27 48  1  0
 28 49  1  0
M  END
$$$$
