
     RDKit          3D

 42 44  0  0  0  0  0  0  0  0999 V2000
   -2.3672    3.3994   -0.1423 C   0  0  0  0  0  0  0  0  0  0  0  0
   -2.1801    2.2569   -1.1226 C   0  0  0  0  0  0  0  0  0  0  0  0
   -1.8304    1.0579   -0.4348 O   0  0  0  0  0  0  0  0  0  0  0  0
   -2.8297    0.2211    0.0156 C   0  0  0  0  0  0  0  0  0  0  0  0
   -4.1981    0.4979   -0.0504 C   0  0  0  0  0  0  0  0  0  0  0  0
   -5.1219   -0.4198    0.4525 C   0  0  0  0  0  0  0  0  0  0  0  0
   -4.6817   -1.6078    1.0266 C   0  0  0  0  0  0  0  0  0  0  0  0
   -3.3151   -1.8919    1.1005 C   0  0  0  0  0  0  0  0  0  0  0  0
   -2.3778   -0.9922    0.5935 C   0  0  0  0  0  0  0  0  0  0  0  0
   -0.9721   -1.1683    0.6233 N   0  0  0  0  0  0  0  0  0  0  0  0
   -0.1420   -2.1991    0.9674 C   0  0  0  0  0  0  0  0  0  0  0  0
   -0.5094   -3.7656    1.4017 S   0  0  0  0  0  0  0  0  0  0  0  0
    1.1966   -1.8998    0.9395 N   0  0  0  0  0  0  0  0  0  0  0  0
    1.8600   -0.6473    0.5913 C   0  0  0  0  0  0  0  0  0  0  0  0
    1.8751   -0.4055   -0.9348 C   0  0  0  0  0  0  0  0  0  0  0  0
    3.3777   -0.3065   -1.2567 C   0  0  0  0  0  0  0  0  0  0  0  0
    3.9274    1.0081   -0.6763 C   0  0  0  0  0  0  0  0  0  0  0  0
    3.9311    0.7418    0.8373 C   0  0  0  0  0  0  0  0  0  0  0  0
    3.3663   -0.6873    0.9383 C   0  0  0  0  0  0  0  0  0  0  0  0
    3.9727   -1.3430   -0.3055 C   0  0  0  0  0  0  0  0  0  0  0  0
   -1.4720    3.5226    0.4760 H   0  0  0  0  0  0  0  0  0  0  0  0
   -3.1971    3.2069    0.5422 H   0  0  0  0  0  0  0  0  0  0  0  0
   -2.5620    4.3405   -0.6674 H   0  0  0  0  0  0  0  0  0  0  0  0
   -1.3314    2.4971   -1.7712 H   0  0  0  0  0  0  0  0  0  0  0  0
   -3.0383    2.1281   -1.7899 H   0  0  0  0  0  0  0  0  0  0  0  0
   -4.5822    1.4190   -0.4741 H   0  0  0  0  0  0  0  0  0  0  0  0
   -6.1853   -0.2019    0.4057 H   0  0  0  0  0  0  0  0  0  0  0  0
   -5.4008   -2.3188    1.4262 H   0  0  0  0  0  0  0  0  0  0  0  0
   -3.0289   -2.8204    1.5758 H   0  0  0  0  0  0  0  0  0  0  0  0
   -0.5072   -0.3570    0.2354 H   0  0  0  0  0  0  0  0  0  0  0  0
    1.7851   -2.6958    1.1631 H   0  0  0  0  0  0  0  0  0  0  0  0
    1.3501    0.1658    1.1208 H   0  0  0  0  0  0  0  0  0  0  0  0
    1.4210   -1.2385   -1.4838 H   0  0  0  0  0  0  0  0  0  0  0  0
    1.3399    0.5113   -1.2062 H   0  0  0  0  0  0  0  0  0  0  0  0
    3.6081   -0.4487   -2.3152 H   0  0  0  0  0  0  0  0  0  0  0  0
    4.9481    1.1940   -1.0270 H   0  0  0  0  0  0  0  0  0  0  0  0
    3.3127    1.8737   -0.9413 H   0  0  0  0  0  0  0  0  0  0  0  0
    3.3297    1.4745    1.3856 H   0  0  0  0  0  0  0  0  0  0  0  0
    4.9557    0.7834    1.2248 H   0  0  0  0  0  0  0  0  0  0  0  0
    3.5986   -1.1827    1.8850 H   0  0  0  0  0  0  0  0  0  0  0  0
    3.6071   -2.3575   -0.4900 H   0  0  0  0  0  0  0  0  0  0  0  0
    5.0679   -1.3448   -0.3007 H   0  0  0  0  0  0  0  0  0  0  0  0
  1  2  1  0
  2  3  1  0
  3  4  1  0
  4  5  2  0
  5  6  1  0
  6  7  2  0
  7  8  1  0
  8  9  2  0
  9 10  1  0
 10 11  1  0
 11 12  2  0
 11 13  1  0
 13 14  1  0
 14 15  1  0
 15 16  1  0
 16 17  1  0
 17 18  1  0
 18 19  1  0
 19 20  1  0
  9  4  1  0
 19 14  1  0
 20 16  1  0
  1 21  1  0
  1 22  1  0
  1 23  1  0
  2 24  1  0
  2 25  1  0
  5 26  1  0
  6 27  1  0
  7 28  1  0
  8 29  1  0
 10 30  1  0
 13 31  1  0
 14 32  1  0
 15 33  1  0
 15 34  1  0
 16 35  1  0
 17 36  1  0
 17 37  1  0
 18 38  1  0
 18 39  1  0
 19 40  1  0
 20 41  1  0
 20 42  1  0
M  END
$$$$
