
     RDKit          3D

 40 43  0  0  0  0  0  0  0  0999 V2000
    7.1680    1.5702    1.7253 C   0  0  0  0  0  0  0  0  0  0  0  0
    6.8549    0.3426    1.0786 O   0  0  0  0  0  0  0  0  0  0  0  0
    5.5457    0.1365    0.7428 C   0  0  0  0  0  0  0  0  0  0  0  0
    5.2868   -1.0880    0.1273 C   0  0  0  0  0  0  0  0  0  0  0  0
    3.9887   -1.4271   -0.2685 C   0  0  0  0  0  0  0  0  0  0  0  0
    2.9189   -0.5464   -0.0555 C   0  0  0  0  0  0  0  0  0  0  0  0
    1.5592   -0.9125   -0.4731 C   0  0  0  0  0  0  0  0  0  0  0  0
    0.3370   -0.2372   -0.1939 C   0  0  0  0  0  0  0  0  0  0  0  0
   -0.6616   -0.9664   -0.8041 C   0  0  0  0  0  0  0  0  0  0  0  0
   -2.0463   -0.7875   -0.8713 N   0  0  0  0  0  0  0  0  0  0  0  0
   -2.8414   -1.7965   -1.4336 C   0  0  0  0  0  0  0  0  0  0  0  0
   -2.3983   -2.7702   -2.0533 O   0  0  0  0  0  0  0  0  0  0  0  0
   -4.1940   -1.7095   -1.2596 N   0  0  0  0  0  0  0  0  0  0  0  0
   -4.8080   -0.6935   -0.5381 C   0  0  0  0  0  0  0  0  0  0  0  0
   -6.1929   -0.7060   -0.3594 C   0  0  0  0  0  0  0  0  0  0  0  0
   -6.8056    0.3361    0.3353 C   0  0  0  0  0  0  0  0  0  0  0  0
   -6.0356    1.3819    0.8405 C   0  0  0  0  0  0  0  0  0  0  0  0
   -4.6509    1.3854    0.6510 C   0  0  0  0  0  0  0  0  0  0  0  0
   -4.0173    0.3396   -0.0361 C   0  0  0  0  0  0  0  0  0  0  0  0
   -2.6129    0.3453   -0.2280 N   0  0  0  0  0  0  0  0  0  0  0  0
   -2.0194    1.5879   -0.4803 O   0  0  0  0  0  0  0  0  0  0  0  0
   -0.0086   -2.0229   -1.3811 N   0  0  0  0  0  0  0  0  0  0  0  0
    1.3219   -2.0082   -1.2131 N   0  0  0  0  0  0  0  0  0  0  0  0
    3.1887    0.6830    0.5621 C   0  0  0  0  0  0  0  0  0  0  0  0
    4.4915    1.0227    0.9577 C   0  0  0  0  0  0  0  0  0  0  0  0
    6.9627    2.4236    1.0700 H   0  0  0  0  0  0  0  0  0  0  0  0
    8.2402    1.5694    1.9440 H   0  0  0  0  0  0  0  0  0  0  0  0
    6.6349    1.6663    2.6769 H   0  0  0  0  0  0  0  0  0  0  0  0
    6.0996   -1.7888   -0.0462 H   0  0  0  0  0  0  0  0  0  0  0  0
    3.8194   -2.3897   -0.7475 H   0  0  0  0  0  0  0  0  0  0  0  0
    0.2020    0.6590    0.3937 H   0  0  0  0  0  0  0  0  0  0  0  0
   -4.7372   -2.4680   -1.6472 H   0  0  0  0  0  0  0  0  0  0  0  0
   -6.8012   -1.5145   -0.7547 H   0  0  0  0  0  0  0  0  0  0  0  0
   -7.8831    0.3333    0.4837 H   0  0  0  0  0  0  0  0  0  0  0  0
   -6.5096    2.1950    1.3846 H   0  0  0  0  0  0  0  0  0  0  0  0
   -4.0580    2.2024    1.0560 H   0  0  0  0  0  0  0  0  0  0  0  0
   -1.9434    1.5767   -1.4510 H   0  0  0  0  0  0  0  0  0  0  0  0
   -0.4347   -2.7829   -1.9065 H   0  0  0  0  0  0  0  0  0  0  0  0
    2.3961    1.4038    0.7407 H   0  0  0  0  0  0  0  0  0  0  0  0
    4.6436    1.9867    1.4319 H   0  0  0  0  0  0  0  0  0  0  0  0
  1  2  1  0
  2  3  1  0
  3  4  2  0
  4  5  1  0
  5  6  2  0
  6  7  1  0
  7  8  1  0
  8  9  2  0
  9 10  1  0
 10 11  1  0
 11 12  2  0
 11 13  1  0
 13 14  1  0
 14 15  2  0
 15 16  1  0
 16 17  2  0
 17 18  1  0
 18 19  2  0
 19 20  1  0
 20 21  1  0
  9 22  1  0
 22 23  1  0
  6 24  1  0
 24 25  2  0
 25  3  1  0
 23  7  2  0
 20 10  1  0
 19 14  1  0
  1 26  1  0
  1 27  1  0
  1 28  1  0
  4 29  1  0
  5 30  1  0
  8 31  1  0
 13 32  1  0
 15 33  1  0
 16 34  1  0
 17 35  1  0
 18 36  1  0
 21 37  1  0
 22 38  1  0
 24 39  1  0
 25 40  1  0
M  END
$$$$
