
     RDKit          3D

 59 62  0  0  0  0  0  0  0  0999 V2000
   10.1408    3.1406    1.0715 C   0  0  0  0  0  0  0  0  0  0  0  0
    8.8463    3.6255    1.6991 C   0  0  0  0  0  0  0  0  0  0  0  0
    7.8387    3.7928    0.7036 O   0  0  0  0  0  0  0  0  0  0  0  0
    6.9534    2.7716    0.5009 C   0  0  0  0  0  0  0  0  0  0  0  0
    7.1080    1.4524    0.9224 C   0  0  0  0  0  0  0  0  0  0  0  0
    6.1197    0.5022    0.6424 C   0  0  0  0  0  0  0  0  0  0  0  0
    4.9670    0.8572   -0.0687 C   0  0  0  0  0  0  0  0  0  0  0  0
    3.8936   -0.1644   -0.3435 C   0  0  0  0  0  0  0  0  0  0  0  0
    2.9926   -0.3895    0.8698 C   0  0  0  0  0  0  0  0  0  0  0  0
    1.9370   -1.3446    0.5821 N   0  0  0  0  0  0  0  0  0  0  0  0
    1.2943   -2.0094    1.6096 C   0  0  0  0  0  0  0  0  0  0  0  0
    1.6564   -1.9595    2.7817 O   0  0  0  0  0  0  0  0  0  0  0  0
    0.1133   -2.8537    1.1635 C   0  0  0  0  0  0  0  0  0  0  0  0
   -1.0289   -2.0386    0.6056 C   0  0  0  0  0  0  0  0  0  0  0  0
   -1.6776   -1.0870    1.4049 C   0  0  0  0  0  0  0  0  0  0  0  0
   -2.7419   -0.3404    0.8930 C   0  0  0  0  0  0  0  0  0  0  0  0
   -3.1876   -0.5463   -0.4139 C   0  0  0  0  0  0  0  0  0  0  0  0
   -4.2481    0.2082   -0.9317 N   0  0  0  0  0  0  0  0  0  0  0  0
   -5.4630   -0.2147   -0.8139 C   0  0  0  0  0  0  0  0  0  0  0  0
   -6.5328    0.4878   -1.3005 N   0  0  0  0  0  0  0  0  0  0  0  0
   -7.8187    0.1382   -0.7158 C   0  0  0  0  0  0  0  0  0  0  0  0
   -8.9784    0.4395   -1.6535 C   0  0  0  0  0  0  0  0  0  0  0  0
   -9.5001   -1.1243   -2.3212 S   0  0  0  0  0  6  0  0  0  0  0  0
   -9.4529   -1.0722   -3.7661 O   0  0  0  0  0  0  0  0  0  0  0  0
  -10.6882   -1.5389   -1.6024 O   0  0  0  0  0  0  0  0  0  0  0  0
   -8.1381   -2.0888   -1.7217 C   0  0  0  0  0  0  0  0  0  0  0  0
   -7.7526   -1.3732   -0.4395 C   0  0  0  0  0  0  0  0  0  0  0  0
   -6.0100   -1.6866   -0.0118 S   0  0  0  0  0  0  0  0  0  0  0  0
   -2.5298   -1.4791   -1.2185 C   0  0  0  0  0  0  0  0  0  0  0  0
   -1.4634   -2.2275   -0.7131 C   0  0  0  0  0  0  0  0  0  0  0  0
    4.8207    2.1797   -0.4992 C   0  0  0  0  0  0  0  0  0  0  0  0
    5.8113    3.1244   -0.2209 C   0  0  0  0  0  0  0  0  0  0  0  0
   10.4903    3.8525    0.3176 H   0  0  0  0  0  0  0  0  0  0  0  0
   10.9166    3.0248    1.8331 H   0  0  0  0  0  0  0  0  0  0  0  0
   10.0050    2.1817    0.5631 H   0  0  0  0  0  0  0  0  0  0  0  0
    9.0223    4.6155    2.1348 H   0  0  0  0  0  0  0  0  0  0  0  0
    8.5218    2.9865    2.5284 H   0  0  0  0  0  0  0  0  0  0  0  0
    7.9885    1.1235    1.4634 H   0  0  0  0  0  0  0  0  0  0  0  0
    6.2586   -0.5209    0.9865 H   0  0  0  0  0  0  0  0  0  0  0  0
    4.3620   -1.1099   -0.6461 H   0  0  0  0  0  0  0  0  0  0  0  0
    3.2905    0.1520   -1.2038 H   0  0  0  0  0  0  0  0  0  0  0  0
    2.5076    0.5451    1.1734 H   0  0  0  0  0  0  0  0  0  0  0  0
    3.5769   -0.7466    1.7253 H   0  0  0  0  0  0  0  0  0  0  0  0
    1.3901   -1.1908   -0.2578 H   0  0  0  0  0  0  0  0  0  0  0  0
   -0.2490   -3.4348    2.0204 H   0  0  0  0  0  0  0  0  0  0  0  0
    0.4763   -3.5791    0.4250 H   0  0  0  0  0  0  0  0  0  0  0  0
   -1.3595   -0.9207    2.4331 H   0  0  0  0  0  0  0  0  0  0  0  0
   -3.2331    0.3992    1.5192 H   0  0  0  0  0  0  0  0  0  0  0  0
   -6.3185    1.4675   -1.4657 H   0  0  0  0  0  0  0  0  0  0  0  0
   -7.9324    0.7046    0.2169 H   0  0  0  0  0  0  0  0  0  0  0  0
   -8.7065    1.1083   -2.4744 H   0  0  0  0  0  0  0  0  0  0  0  0
   -9.8293    0.8568   -1.1077 H   0  0  0  0  0  0  0  0  0  0  0  0
   -7.3592   -2.0641   -2.4906 H   0  0  0  0  0  0  0  0  0  0  0  0
   -8.4641   -3.1183   -1.5558 H   0  0  0  0  0  0  0  0  0  0  0  0
   -8.4191   -1.6519    0.3836 H   0  0  0  0  0  0  0  0  0  0  0  0
   -2.8593   -1.6288   -2.2430 H   0  0  0  0  0  0  0  0  0  0  0  0
   -0.9832   -2.9605   -1.3577 H   0  0  0  0  0  0  0  0  0  0  0  0
    3.9374    2.4886   -1.0528 H   0  0  0  0  0  0  0  0  0  0  0  0
    5.6881    4.1490   -0.5624 H   0  0  0  0  0  0  0  0  0  0  0  0
  1  2  1  0
  2  3  1  0
  3  4  1  0
  4  5  2  0
  5  6  1  0
  6  7  2  0
  7  8  1  0
  8  9  1  0
  9 10  1  0
 10 11  1  0
 11 12  2  0
 11 13  1  0
 13 14  1  0
 14 15  2  0
 15 16  1  0
 16 17  2  0
 17 18  1  0
 18 19  2  3
 19 20  1  0
 20 21  1  0
 21 22  1  0
 22 23  1  0
 23 24  2  0
 23 25  2  0
 23 26  1  0
 26 27  1  0
 27 28  1  0
 17 29  1  0
 29 30  2  0
  7 31  1  0
 31 32  2  0
 32  4  1  0
 30 14  1  0
 28 19  1  0
 27 21  1  0
  1 33  1  0
  1 34  1  0
  1 35  1  0
  2 36  1  0
  2 37  1  0
  5 38  1  0
  6 39  1  0
  8 40  1  0
  8 41  1  0
  9 42  1  0
  9 43  1  0
 10 44  1  0
 13 45  1  0
 13 46  1  0
 15 47  1  0
 16 48  1  0
 20 49  1  0
 21 50  1  0
 22 51  1  0
 22 52  1  0
 26 53  1  0
 26 54  1  0
 27 55  1  0
 29 56  1  0
 30 57  1  0
 31 58  1  0
 32 59  1  0
M  END
$$$$
