
     RDKit          3D

 41 44  0  0  0  0  0  0  0  0999 V2000
   -3.6830   -0.9021   -2.2757 C   0  0  0  0  0  0  0  0  0  0  0  0
   -2.4888    0.0193   -1.9942 C   0  0  0  0  0  0  0  0  0  0  0  0
   -2.9714    1.4208   -1.5408 C   0  0  0  0  0  0  0  0  0  0  0  0
   -2.9007    1.2659   -0.0568 C   0  0  0  0  0  0  0  0  0  0  0  0
   -3.4572    2.0768    0.9189 C   0  0  0  0  0  0  0  0  0  0  0  0
   -3.2368    1.7410    2.2535 C   0  0  0  0  0  0  0  0  0  0  0  0
   -2.4641    0.6187    2.5842 C   0  0  0  0  0  0  0  0  0  0  0  0
   -1.9006   -0.1827    1.5845 C   0  0  0  0  0  0  0  0  0  0  0  0
   -2.1257    0.1431    0.2575 C   0  0  0  0  0  0  0  0  0  0  0  0
   -1.6288   -0.4897   -0.8964 N   0  0  0  0  0  0  0  0  0  0  0  0
   -1.2353   -1.9112   -0.8522 C   0  0  0  0  0  0  0  0  0  0  0  0
    0.1996   -2.1092   -0.3326 C   0  0  0  0  0  0  0  0  0  0  0  0
    0.6150   -3.2268   -0.0372 O   0  0  0  0  0  0  0  0  0  0  0  0
    0.9141   -0.9265   -0.2906 N   0  0  0  0  0  0  0  0  0  0  0  0
    2.2424   -0.7106    0.1073 C   0  0  0  0  0  0  0  0  0  0  0  0
    3.1231   -1.7461    0.4734 C   0  0  0  0  0  0  0  0  0  0  0  0
    4.4409   -1.4682    0.8604 C   0  0  0  0  0  0  0  0  0  0  0  0
    4.8445   -0.1526    0.8698 C   0  0  0  0  0  0  0  0  0  0  0  0
    3.9915    0.8628    0.5128 C   0  0  0  0  0  0  0  0  0  0  0  0
    2.6895    0.6183    0.1277 C   0  0  0  0  0  0  0  0  0  0  0  0
    4.5814    2.0864    0.5881 O   0  0  0  0  0  0  0  0  0  0  0  0
    5.9035    1.7220    1.0371 C   0  0  0  0  0  0  0  0  0  0  0  0
    6.0782    0.3012    1.2149 O   0  0  0  0  0  0  0  0  0  0  0  0
   -4.2822   -1.0834   -1.3767 H   0  0  0  0  0  0  0  0  0  0  0  0
   -3.3538   -1.8747   -2.6545 H   0  0  0  0  0  0  0  0  0  0  0  0
   -4.3367   -0.4610   -3.0358 H   0  0  0  0  0  0  0  0  0  0  0  0
   -1.8982    0.1119   -2.9134 H   0  0  0  0  0  0  0  0  0  0  0  0
   -3.9772    1.6619   -1.8961 H   0  0  0  0  0  0  0  0  0  0  0  0
   -2.2669    2.1966   -1.8605 H   0  0  0  0  0  0  0  0  0  0  0  0
   -4.0474    2.9485    0.6567 H   0  0  0  0  0  0  0  0  0  0  0  0
   -3.6610    2.3547    3.0445 H   0  0  0  0  0  0  0  0  0  0  0  0
   -2.2935    0.3720    3.6296 H   0  0  0  0  0  0  0  0  0  0  0  0
   -1.2939   -1.0353    1.8695 H   0  0  0  0  0  0  0  0  0  0  0  0
   -1.9286   -2.4949   -0.2364 H   0  0  0  0  0  0  0  0  0  0  0  0
   -1.2373   -2.3251   -1.8673 H   0  0  0  0  0  0  0  0  0  0  0  0
    0.3442   -0.1132   -0.5243 H   0  0  0  0  0  0  0  0  0  0  0  0
    2.8071   -2.7852    0.4636 H   0  0  0  0  0  0  0  0  0  0  0  0
    5.1194   -2.2651    1.1427 H   0  0  0  0  0  0  0  0  0  0  0  0
    2.0423    1.4444   -0.1446 H   0  0  0  0  0  0  0  0  0  0  0  0
    6.6335    2.0754    0.2998 H   0  0  0  0  0  0  0  0  0  0  0  0
    6.0991    2.2218    1.9928 H   0  0  0  0  0  0  0  0  0  0  0  0
  1  2  1  0
  2  3  1  0
  3  4  1  0
  4  5  2  0
  5  6  1  0
  6  7  2  0
  7  8  1  0
  8  9  2  0
  9 10  1  0
 10 11  1  0
 11 12  1  0
 12 13  2  0
 12 14  1  0
 14 15  1  0
 15 16  2  0
 16 17  1  0
 17 18  2  0
 18 19  1  0
 19 20  2  0
 19 21  1  0
 21 22  1  0
 22 23  1  0
 10  2  1  0
 20 15  1  0
  9  4  1  0
 23 18  1  0
  1 24  1  0
  1 25  1  0
  1 26  1  0
  2 27  1  0
  3 28  1  0
  3 29  1  0
  5 30  1  0
  6 31  1  0
  7 32  1  0
  8 33  1  0
 11 34  1  0
 11 35  1  0
 14 36  1  0
 16 37  1  0
 17 38  1  0
 20 39  1  0
 22 40  1  0
 22 41  1  0
M  END
$$$$
