
     RDKit          3D

 43 46  0  0  0  0  0  0  0  0999 V2000
    5.1050    2.2687    0.3593 C   0  0  0  0  0  0  0  0  0  0  0  0
    3.7832    1.9044    0.7581 O   0  0  0  0  0  0  0  0  0  0  0  0
    2.8512    2.0702   -0.2111 C   0  0  0  0  0  0  0  0  0  0  0  0
    3.0484    2.4834   -1.3432 O   0  0  0  0  0  0  0  0  0  0  0  0
    1.5337    1.5940    0.2502 C   0  0  0  0  0  0  0  0  0  0  0  0
    0.9648    1.9518    1.4194 C   0  0  0  0  0  0  0  0  0  0  0  0
    1.5715    2.9209    2.4016 C   0  0  0  0  0  0  0  0  0  0  0  0
   -0.2811    1.4903    1.7962 N   0  0  0  0  0  0  0  0  0  0  0  0
   -0.9601    0.8340    0.9191 C   0  0  0  0  0  0  0  0  0  0  0  0
   -2.5938    0.3095    1.1949 S   0  0  0  0  0  0  0  0  0  0  0  0
   -2.7574   -0.2694   -0.4182 C   0  0  0  0  0  0  0  0  0  0  0  0
   -3.8112   -0.8408   -1.0195 C   0  0  0  0  0  0  0  0  0  0  0  0
   -5.1179   -1.1210   -0.5154 C   0  0  0  0  0  0  0  0  0  0  0  0
   -5.8117   -0.6249    0.6172 C   0  0  0  0  0  0  0  0  0  0  0  0
   -7.0486   -1.2292    0.6118 C   0  0  0  0  0  0  0  0  0  0  0  0
   -7.1669   -2.0589   -0.4545 O   0  0  0  0  0  0  0  0  0  0  0  0
   -5.9959   -1.9855   -1.1376 C   0  0  0  0  0  0  0  0  0  0  0  0
   -1.4696   -0.0830   -1.1543 C   0  0  0  0  0  0  0  0  0  0  0  0
   -1.3036   -0.3866   -2.3272 O   0  0  0  0  0  0  0  0  0  0  0  0
   -0.5368    0.4867   -0.3243 N   0  0  0  0  0  0  0  0  0  0  0  0
    0.8481    0.6713   -0.7182 C   0  0  0  0  0  0  0  0  0  0  0  0
    1.5672   -0.6755   -0.8124 C   0  0  0  0  0  0  0  0  0  0  0  0
    1.7176   -1.5113    0.3089 C   0  0  0  0  0  0  0  0  0  0  0  0
    2.3813   -2.7343    0.1995 C   0  0  0  0  0  0  0  0  0  0  0  0
    2.9014   -3.1393   -1.0276 C   0  0  0  0  0  0  0  0  0  0  0  0
    2.7590   -2.3230   -2.1473 C   0  0  0  0  0  0  0  0  0  0  0  0
    2.0968   -1.0989   -2.0420 C   0  0  0  0  0  0  0  0  0  0  0  0
    5.4392    1.6437   -0.4749 H   0  0  0  0  0  0  0  0  0  0  0  0
    5.1459    3.3290    0.0911 H   0  0  0  0  0  0  0  0  0  0  0  0
    5.7734    2.1001    1.2081 H   0  0  0  0  0  0  0  0  0  0  0  0
    2.2966    3.5970    1.9397 H   0  0  0  0  0  0  0  0  0  0  0  0
    2.0621    2.3760    3.2143 H   0  0  0  0  0  0  0  0  0  0  0  0
    0.7932    3.5566    2.8392 H   0  0  0  0  0  0  0  0  0  0  0  0
   -3.6534   -1.1584   -2.0527 H   0  0  0  0  0  0  0  0  0  0  0  0
   -5.4824    0.0904    1.3563 H   0  0  0  0  0  0  0  0  0  0  0  0
   -7.9126   -1.1725    1.2591 H   0  0  0  0  0  0  0  0  0  0  0  0
   -5.9432   -2.5990   -2.0269 H   0  0  0  0  0  0  0  0  0  0  0  0
    0.8206    1.1367   -1.7126 H   0  0  0  0  0  0  0  0  0  0  0  0
    1.3240   -1.2178    1.2804 H   0  0  0  0  0  0  0  0  0  0  0  0
    2.4928   -3.3721    1.0729 H   0  0  0  0  0  0  0  0  0  0  0  0
    3.4164   -4.0927   -1.1123 H   0  0  0  0  0  0  0  0  0  0  0  0
    3.1612   -2.6407   -3.1061 H   0  0  0  0  0  0  0  0  0  0  0  0
    1.9919   -0.4800   -2.9319 H   0  0  0  0  0  0  0  0  0  0  0  0
  1  2  1  0
  2  3  1  0
  3  4  2  0
  3  5  1  0
  5  6  2  0
  6  7  1  0
  6  8  1  0
  8  9  2  0
  9 10  1  0
 10 11  1  0
 11 12  2  3
 12 13  1  0
 13 14  1  0
 14 15  2  0
 15 16  1  0
 16 17  1  0
 11 18  1  0
 18 19  2  0
 18 20  1  0
 20 21  1  0
 21 22  1  0
 22 23  2  0
 23 24  1  0
 24 25  2  0
 25 26  1  0
 26 27  2  0
 21  5  1  0
 27 22  1  0
 20  9  1  0
 17 13  2  0
  1 28  1  0
  1 29  1  0
  1 30  1  0
  7 31  1  0
  7 32  1  0
  7 33  1  0
 12 34  1  0
 14 35  1  0
 15 36  1  0
 17 37  1  0
 21 38  1  0
 23 39  1  0
 24 40  1  0
 25 41  1  0
 26 42  1  0
 27 43  1  0
M  END
$$$$
