
     RDKit          3D

 40 41  0  0  0  0  0  0  0  0999 V2000
   -4.9533    2.6539    1.4298 C   0  0  0  0  0  0  0  0  0  0  0  0
   -4.0893    1.8376    0.5129 C   0  0  0  0  0  0  0  0  0  0  0  0
   -3.3288    0.7740    1.0112 C   0  0  0  0  0  0  0  0  0  0  0  0
   -2.4911    0.0359    0.1665 C   0  0  0  0  0  0  0  0  0  0  0  0
   -2.3824    0.3688   -1.1903 C   0  0  0  0  0  0  0  0  0  0  0  0
   -1.5712   -0.3251   -2.1131 N   0  0  0  0  0  0  0  0  0  0  0  0
   -0.5080   -1.1779   -1.9455 C   0  0  0  0  0  0  0  0  0  0  0  0
   -0.0601   -2.1053   -3.2869 S   0  0  0  0  0  0  0  0  0  0  0  0
    0.1102   -1.1810   -0.7123 N   0  0  0  0  0  0  0  0  0  0  0  0
    1.3881   -1.8192   -0.5693 N   0  0  0  0  0  0  0  0  0  0  0  0
    1.2910   -2.9432    0.3769 C   0  0  0  0  0  0  0  0  0  0  0  0
    2.3287   -0.8775   -0.0571 C   0  0  0  0  0  0  0  0  0  0  0  0
    2.0541   -0.2396    1.1217 N   0  0  0  0  0  0  0  0  0  0  0  0
    2.9973    0.6221    1.5787 C   0  0  0  0  0  0  0  0  0  0  0  0
    2.7365    1.3069    2.8934 C   0  0  0  0  0  0  0  0  0  0  0  0
    4.1634    0.8759    0.8570 C   0  0  0  0  0  0  0  0  0  0  0  0
    4.4373    0.2870   -0.3303 N   0  0  0  0  0  0  0  0  0  0  0  0
    3.5081   -0.5999   -0.7797 C   0  0  0  0  0  0  0  0  0  0  0  0
    3.7542   -1.1999   -2.1344 C   0  0  0  0  0  0  0  0  0  0  0  0
   -3.1616    1.4201   -1.6934 C   0  0  0  0  0  0  0  0  0  0  0  0
   -3.9951    2.1590   -0.8489 C   0  0  0  0  0  0  0  0  0  0  0  0
   -5.2411    2.0768    2.3202 H   0  0  0  0  0  0  0  0  0  0  0  0
   -5.8793    2.9593    0.9285 H   0  0  0  0  0  0  0  0  0  0  0  0
   -4.4168    3.5544    1.7515 H   0  0  0  0  0  0  0  0  0  0  0  0
   -3.3987    0.5012    2.0618 H   0  0  0  0  0  0  0  0  0  0  0  0
   -1.9763   -0.8327    0.5872 H   0  0  0  0  0  0  0  0  0  0  0  0
   -1.8199   -0.2139   -3.0931 H   0  0  0  0  0  0  0  0  0  0  0  0
    0.0239   -0.3351   -0.1474 H   0  0  0  0  0  0  0  0  0  0  0  0
    2.2779   -3.3748    0.5912 H   0  0  0  0  0  0  0  0  0  0  0  0
    0.8256   -2.6388    1.3266 H   0  0  0  0  0  0  0  0  0  0  0  0
    0.6733   -3.7364   -0.0592 H   0  0  0  0  0  0  0  0  0  0  0  0
    3.6050    1.2050    3.5599 H   0  0  0  0  0  0  0  0  0  0  0  0
    1.8737    0.8593    3.4028 H   0  0  0  0  0  0  0  0  0  0  0  0
    2.5281    2.3694    2.7377 H   0  0  0  0  0  0  0  0  0  0  0  0
    4.9186    1.5694    1.2127 H   0  0  0  0  0  0  0  0  0  0  0  0
    4.7792   -0.9960   -2.4741 H   0  0  0  0  0  0  0  0  0  0  0  0
    3.6188   -2.2872   -2.1314 H   0  0  0  0  0  0  0  0  0  0  0  0
    3.0649   -0.7526   -2.8599 H   0  0  0  0  0  0  0  0  0  0  0  0
   -3.1098    1.6909   -2.7431 H   0  0  0  0  0  0  0  0  0  0  0  0
   -4.5754    2.9924   -1.2589 H   0  0  0  0  0  0  0  0  0  0  0  0
  1  2  1  0
  2  3  2  0
  3  4  1  0
  4  5  2  0
  5  6  1  0
  6  7  1  0
  7  8  2  0
  7  9  1  0
  9 10  1  0
 10 11  1  0
 10 12  1  0
 12 13  2  0
 13 14  1  0
 14 15  1  0
 14 16  2  0
 16 17  1  0
 17 18  2  0
 18 19  1  0
  5 20  1  0
 20 21  2  0
 21  2  1  0
 18 12  1  0
  1 22  1  0
  1 23  1  0
  1 24  1  0
  3 25  1  0
  4 26  1  0
  6 27  1  0
  9 28  1  0
 11 29  1  0
 11 30  1  0
 11 31  1  0
 15 32  1  0
 15 33  1  0
 15 34  1  0
 16 35  1  0
 19 36  1  0
 19 37  1  0
 19 38  1  0
 20 39  1  0
 21 40  1  0
M  END
$$$$
