
     RDKit          3D

 39 41  0  0  0  0  0  0  0  0999 V2000
   -3.3646   -1.9446   -1.8639 F   0  0  0  0  0  0  0  0  0  0  0  0
   -3.9770   -1.1693   -0.9569 C   0  0  0  0  0  0  0  0  0  0  0  0
   -5.2115   -1.5765   -0.4571 C   0  0  0  0  0  0  0  0  0  0  0  0
   -5.8716   -0.7864    0.4819 C   0  0  0  0  0  0  0  0  0  0  0  0
   -5.2935    0.4076    0.9123 C   0  0  0  0  0  0  0  0  0  0  0  0
   -4.0549    0.8105    0.4059 C   0  0  0  0  0  0  0  0  0  0  0  0
   -3.3742    0.0177   -0.5313 C   0  0  0  0  0  0  0  0  0  0  0  0
   -2.0488    0.4529   -1.1120 C   0  0  0  0  0  0  0  0  0  0  0  0
   -1.0795    0.8964   -0.0946 N   0  0  0  0  0  0  0  0  0  0  0  0
   -0.5599   -0.2271    0.7187 C   0  0  0  0  0  0  0  0  0  0  0  0
    0.8112   -0.7986    0.2846 C   0  0  0  0  0  0  0  0  0  0  0  0
    1.8391    0.2560    0.2350 N   0  0  0  0  0  0  0  0  0  0  0  0
    3.1767   -0.0268    0.4495 C   0  0  0  0  0  0  0  0  0  0  0  0
    4.0891    0.9598    0.8612 C   0  0  0  0  0  0  0  0  0  0  0  0
    5.4446    0.6766    1.0762 C   0  0  0  0  0  0  0  0  0  0  0  0
    5.9198   -0.6125    0.8782 C   0  0  0  0  0  0  0  0  0  0  0  0
    7.5818   -0.9672    1.1389 Cl  0  0  0  0  0  0  0  0  0  0  0  0
    5.0510   -1.6145    0.4684 C   0  0  0  0  0  0  0  0  0  0  0  0
    3.6976   -1.3186    0.2584 C   0  0  0  0  0  0  0  0  0  0  0  0
    1.3504    1.6333    0.0596 C   0  0  0  0  0  0  0  0  0  0  0  0
    0.0275    1.6378   -0.7401 C   0  0  0  0  0  0  0  0  0  0  0  0
   -5.6504   -2.5060   -0.8053 H   0  0  0  0  0  0  0  0  0  0  0  0
   -6.8353   -1.0982    0.8761 H   0  0  0  0  0  0  0  0  0  0  0  0
   -5.8064    1.0283    1.6431 H   0  0  0  0  0  0  0  0  0  0  0  0
   -3.6135    1.7446    0.7486 H   0  0  0  0  0  0  0  0  0  0  0  0
   -2.2752    1.2848   -1.7930 H   0  0  0  0  0  0  0  0  0  0  0  0
   -1.6105   -0.3441   -1.7264 H   0  0  0  0  0  0  0  0  0  0  0  0
   -1.2828   -1.0479    0.7924 H   0  0  0  0  0  0  0  0  0  0  0  0
   -0.4526    0.1547    1.7431 H   0  0  0  0  0  0  0  0  0  0  0  0
    1.0833   -1.5739    1.0111 H   0  0  0  0  0  0  0  0  0  0  0  0
    0.7242   -1.2697   -0.7017 H   0  0  0  0  0  0  0  0  0  0  0  0
    3.7560    1.9769    1.0484 H   0  0  0  0  0  0  0  0  0  0  0  0
    6.1136    1.4684    1.4010 H   0  0  0  0  0  0  0  0  0  0  0  0
    5.4117   -2.6257    0.3036 H   0  0  0  0  0  0  0  0  0  0  0  0
    3.0564   -2.1258   -0.0856 H   0  0  0  0  0  0  0  0  0  0  0  0
    1.2042    2.1052    1.0388 H   0  0  0  0  0  0  0  0  0  0  0  0
    2.0743    2.2331   -0.5052 H   0  0  0  0  0  0  0  0  0  0  0  0
    0.2424    1.2140   -1.7313 H   0  0  0  0  0  0  0  0  0  0  0  0
   -0.2928    2.6745   -0.8957 H   0  0  0  0  0  0  0  0  0  0  0  0
  1  2  1  0
  2  3  2  0
  3  4  1  0
  4  5  2  0
  5  6  1  0
  6  7  2  0
  7  8  1  0
  8  9  1  0
  9 10  1  0
 10 11  1  0
 11 12  1  0
 12 13  1  0
 13 14  2  0
 14 15  1  0
 15 16  2  0
 16 17  1  0
 16 18  1  0
 18 19  2  0
 12 20  1  0
 20 21  1  0
  7  2  1  0
 21  9  1  0
 19 13  1  0
  3 22  1  0
  4 23  1  0
  5 24  1  0
  6 25  1  0
  8 26  1  0
  8 27  1  0
 10 28  1  0
 10 29  1  0
 11 30  1  0
 11 31  1  0
 14 32  1  0
 15 33  1  0
 18 34  1  0
 19 35  1  0
 20 36  1  0
 20 37  1  0
 21 38  1  0
 21 39  1  0
M  END
$$$$
