
     RDKit          3D

 51 52  0  0  0  0  0  0  0  0999 V2000
    5.6419   -0.9684    0.4802 C   0  0  0  0  0  0  0  0  0  0  0  0
    4.9742   -0.8251   -0.8208 N   0  0  0  0  0  0  0  0  0  0  0  0
    5.0771   -2.0226   -1.6727 C   0  0  0  0  0  0  0  0  0  0  0  0
    3.5007   -0.0113   -0.8589 S   0  0  0  0  0  6  0  0  0  0  0  0
    3.5752    1.1294    0.0241 O   0  0  0  0  0  0  0  0  0  0  0  0
    3.0707    0.1071   -2.2310 O   0  0  0  0  0  0  0  0  0  0  0  0
    2.5318   -1.1541   -0.0607 N   0  0  0  0  0  0  0  0  0  0  0  0
    1.1306   -0.9997   -0.3059 C   0  0  0  0  0  0  0  0  0  0  0  0
    0.5379   -1.7351   -1.3262 C   0  0  0  0  0  0  0  0  0  0  0  0
   -0.8196   -1.5641   -1.6113 C   0  0  0  0  0  0  0  0  0  0  0  0
   -1.5985   -0.6469   -0.8952 C   0  0  0  0  0  0  0  0  0  0  0  0
   -2.9965   -0.5452   -1.2054 N   0  0  0  0  0  0  0  0  0  0  0  0
   -3.9846   -1.8774   -0.8907 S   0  0  0  0  0  6  0  0  0  0  0  0
   -5.3498   -1.4723   -1.1270 O   0  0  0  0  0  0  0  0  0  0  0  0
   -3.4240   -3.0426   -1.5343 O   0  0  0  0  0  0  0  0  0  0  0  0
   -3.7623   -2.0235    0.7849 N   0  0  0  0  0  0  0  0  0  0  0  0
   -4.5670   -1.1011    1.6176 C   0  0  0  0  0  0  0  0  0  0  0  0
   -3.8444   -3.4126    1.2837 C   0  0  0  0  0  0  0  0  0  0  0  0
   -0.9691    0.1310    0.0851 C   0  0  0  0  0  0  0  0  0  0  0  0
   -1.8139    1.4308    0.9413 S   0  0  0  0  0  6  0  0  0  0  0  0
   -3.0671    1.6876    0.2514 O   0  0  0  0  0  0  0  0  0  0  0  0
   -1.8090    1.0557    2.3436 O   0  0  0  0  0  0  0  0  0  0  0  0
   -0.8479    2.9107    0.7585 C   0  0  0  0  0  0  0  0  0  0  0  0
   -0.3839    3.5855    1.8905 C   0  0  0  0  0  0  0  0  0  0  0  0
    0.3980    4.7289    1.7299 C   0  0  0  0  0  0  0  0  0  0  0  0
    0.7090    5.1896    0.4491 C   0  0  0  0  0  0  0  0  0  0  0  0
    0.2354    4.5144   -0.6773 C   0  0  0  0  0  0  0  0  0  0  0  0
   -0.5491    3.3719   -0.5277 C   0  0  0  0  0  0  0  0  0  0  0  0
    0.3893   -0.0526    0.3936 C   0  0  0  0  0  0  0  0  0  0  0  0
    6.6816   -1.2786    0.3332 H   0  0  0  0  0  0  0  0  0  0  0  0
    5.6696   -0.0154    1.0159 H   0  0  0  0  0  0  0  0  0  0  0  0
    5.1401   -1.7188    1.0981 H   0  0  0  0  0  0  0  0  0  0  0  0
    4.7441   -1.8098   -2.6922 H   0  0  0  0  0  0  0  0  0  0  0  0
    6.1222   -2.3425   -1.7419 H   0  0  0  0  0  0  0  0  0  0  0  0
    4.4896   -2.8481   -1.2603 H   0  0  0  0  0  0  0  0  0  0  0  0
    2.7485   -1.0639    0.9319 H   0  0  0  0  0  0  0  0  0  0  0  0
    1.1228   -2.4439   -1.9069 H   0  0  0  0  0  0  0  0  0  0  0  0
   -1.2602   -2.1531   -2.4139 H   0  0  0  0  0  0  0  0  0  0  0  0
   -3.4670    0.3120   -0.8856 H   0  0  0  0  0  0  0  0  0  0  0  0
   -5.5787   -1.4914    1.7660 H   0  0  0  0  0  0  0  0  0  0  0  0
   -4.0871   -0.9856    2.5946 H   0  0  0  0  0  0  0  0  0  0  0  0
   -4.6397   -0.1088    1.1705 H   0  0  0  0  0  0  0  0  0  0  0  0
   -3.0492   -4.0230    0.8463 H   0  0  0  0  0  0  0  0  0  0  0  0
   -3.7007   -3.4312    2.3692 H   0  0  0  0  0  0  0  0  0  0  0  0
   -4.8196   -3.8538    1.0564 H   0  0  0  0  0  0  0  0  0  0  0  0
   -0.6216    3.2341    2.8919 H   0  0  0  0  0  0  0  0  0  0  0  0
    0.7682    5.2630    2.6018 H   0  0  0  0  0  0  0  0  0  0  0  0
    1.3228    6.0794    0.3276 H   0  0  0  0  0  0  0  0  0  0  0  0
    0.4810    4.8804   -1.6717 H   0  0  0  0  0  0  0  0  0  0  0  0
   -0.9189    2.8578   -1.4119 H   0  0  0  0  0  0  0  0  0  0  0  0
    0.8671    0.5533    1.1606 H   0  0  0  0  0  0  0  0  0  0  0  0
  1  2  1  0
  2  3  1  0
  2  4  1  0
  4  5  2  0
  4  6  2  0
  4  7  1  0
  7  8  1  0
  8  9  2  0
  9 10  1  0
 10 11  2  0
 11 12  1  0
 12 13  1  0
 13 14  2  0
 13 15  2  0
 13 16  1  0
 16 17  1  0
 16 18  1  0
 11 19  1  0
 19 20  1  0
 20 21  2  0
 20 22  2  0
 20 23  1  0
 23 24  2  0
 24 25  1  0
 25 26  2  0
 26 27  1  0
 27 28  2  0
 19 29  2  0
 29  8  1  0
 28 23  1  0
  1 30  1  0
  1 31  1  0
  1 32  1  0
  3 33  1  0
  3 34  1  0
  3 35  1  0
  7 36  1  0
  9 37  1  0
 10 38  1  0
 12 39  1  0
 17 40  1  0
 17 41  1  0
 17 42  1  0
 18 43  1  0
 18 44  1  0
 18 45  1  0
 24 46  1  0
 25 47  1  0
 26 48  1  0
 27 49  1  0
 28 50  1  0
 29 51  1  0
M  END
$$$$
