
     RDKit          3D

 37 37  0  0  0  0  0  0  0  0999 V2000
    6.2449    0.8781    0.4639 C   0  0  0  0  0  0  0  0  0  0  0  0
    5.8524    0.1162   -0.7925 C   0  0  0  0  0  0  0  0  0  0  0  0
    4.5455   -0.6666   -0.6493 C   0  0  0  0  0  0  0  0  0  0  0  0
    3.3198    0.2292   -0.4596 C   0  0  0  0  0  0  0  0  0  0  0  0
    2.0323   -0.5935   -0.4293 C   0  0  0  0  0  0  0  0  0  0  0  0
    0.7972    0.2701   -0.2379 C   0  0  0  0  0  0  0  0  0  0  0  0
    0.8438    1.4913   -0.1298 O   0  0  0  0  0  0  0  0  0  0  0  0
   -0.3613   -0.4983   -0.2104 N   0  0  0  0  0  0  0  0  0  0  0  0
   -1.5626    0.1038   -0.0036 N   0  0  0  0  0  0  0  0  0  0  0  0
   -2.6522   -0.6069   -0.0225 C   0  0  0  0  0  0  0  0  0  0  0  0
   -2.6855   -2.0936   -0.3107 C   0  0  0  0  0  0  0  0  0  0  0  0
   -3.9469    0.0919    0.2536 C   0  0  0  0  0  0  0  0  0  0  0  0
   -4.0525    1.4602   -0.0366 C   0  0  0  0  0  0  0  0  0  0  0  0
   -5.2440    2.1464    0.2138 C   0  0  0  0  0  0  0  0  0  0  0  0
   -6.3293    1.4679    0.7626 C   0  0  0  0  0  0  0  0  0  0  0  0
   -7.7975    2.3086    1.0723 Cl  0  0  0  0  0  0  0  0  0  0  0  0
   -6.2310    0.1112    1.0691 C   0  0  0  0  0  0  0  0  0  0  0  0
   -5.0392   -0.5777    0.8193 C   0  0  0  0  0  0  0  0  0  0  0  0
    6.2938    0.2103    1.3296 H   0  0  0  0  0  0  0  0  0  0  0  0
    7.2310    1.3352    0.3327 H   0  0  0  0  0  0  0  0  0  0  0  0
    5.5355    1.6809    0.6847 H   0  0  0  0  0  0  0  0  0  0  0  0
    5.7792    0.8142   -1.6346 H   0  0  0  0  0  0  0  0  0  0  0  0
    6.6550   -0.5903   -1.0357 H   0  0  0  0  0  0  0  0  0  0  0  0
    4.6263   -1.3664    0.1914 H   0  0  0  0  0  0  0  0  0  0  0  0
    4.4095   -1.2734   -1.5532 H   0  0  0  0  0  0  0  0  0  0  0  0
    3.4071    0.7954    0.4748 H   0  0  0  0  0  0  0  0  0  0  0  0
    3.2689    0.9634   -1.2731 H   0  0  0  0  0  0  0  0  0  0  0  0
    2.0744   -1.3185    0.3923 H   0  0  0  0  0  0  0  0  0  0  0  0
    1.9210   -1.1456   -1.3700 H   0  0  0  0  0  0  0  0  0  0  0  0
   -0.3022   -1.5060   -0.2734 H   0  0  0  0  0  0  0  0  0  0  0  0
   -3.6922   -2.4486   -0.5414 H   0  0  0  0  0  0  0  0  0  0  0  0
   -2.3004   -2.6388    0.5555 H   0  0  0  0  0  0  0  0  0  0  0  0
   -2.0674   -2.3172   -1.1856 H   0  0  0  0  0  0  0  0  0  0  0  0
   -3.2056    2.0007   -0.4579 H   0  0  0  0  0  0  0  0  0  0  0  0
   -5.3123    3.2063   -0.0173 H   0  0  0  0  0  0  0  0  0  0  0  0
   -7.0752   -0.4132    1.5100 H   0  0  0  0  0  0  0  0  0  0  0  0
   -4.9805   -1.6266    1.0948 H   0  0  0  0  0  0  0  0  0  0  0  0
  1  2  1  0
  2  3  1  0
  3  4  1  0
  4  5  1  0
  5  6  1  0
  6  7  2  0
  6  8  1  0
  8  9  1  0
  9 10  2  3
 10 11  1  0
 10 12  1  0
 12 13  2  0
 13 14  1  0
 14 15  2  0
 15 16  1  0
 15 17  1  0
 17 18  2  0
 18 12  1  0
  1 19  1  0
  1 20  1  0
  1 21  1  0
  2 22  1  0
  2 23  1  0
  3 24  1  0
  3 25  1  0
  4 26  1  0
  4 27  1  0
  5 28  1  0
  5 29  1  0
  8 30  1  0
 11 31  1  0
 11 32  1  0
 11 33  1  0
 13 34  1  0
 14 35  1  0
 17 36  1  0
 18 37  1  0
M  END
$$$$
