
     RDKit          3D

 62 64  0  0  0  0  0  0  0  0999 V2000
   -4.8268    2.7357    0.6088 C   0  0  0  0  0  0  0  0  0  0  0  0
   -3.7861    1.7404    0.1656 C   0  0  0  0  0  0  0  0  0  0  0  0
   -2.4757    2.2636    0.0627 C   0  0  0  0  0  0  0  0  0  0  0  0
   -1.4034    1.4811   -0.3441 C   0  0  0  0  0  0  0  0  0  0  0  0
   -0.1579    2.1223   -0.4092 O   0  0  0  0  0  0  0  0  0  0  0  0
    0.9724    1.4464   -0.8262 C   0  0  0  0  0  0  0  0  0  0  0  0
    2.0606    2.0157   -0.8869 O   0  0  0  0  0  0  0  0  0  0  0  0
    0.8309    0.0051   -1.1796 C   0  0  0  0  0  0  0  0  0  0  0  0
    2.1344   -0.6124   -1.6298 C   0  0  0  0  0  0  0  0  0  0  0  0
    2.9754   -0.9562   -0.4105 C   0  0  0  0  0  0  0  0  0  0  0  0
    2.8194   -1.9993    0.2169 O   0  0  0  0  0  0  0  0  0  0  0  0
    3.8916    0.0189   -0.0704 N   0  0  0  0  0  0  0  0  0  0  0  0
    4.6652   -0.0975    1.1507 C   0  0  0  0  0  0  0  0  0  0  0  0
    5.7606    0.9612    1.2482 C   0  0  0  0  0  0  0  0  0  0  0  0
    6.9128    0.7576    0.2534 C   0  0  0  0  0  0  0  0  0  0  0  0
    7.6455   -0.5085    0.4201 N   0  0  0  0  0  0  0  0  0  0  0  0
    8.5330   -0.7304   -0.7241 C   0  0  0  0  0  0  0  0  0  0  0  0
    8.4211   -0.5408    1.6609 C   0  0  0  0  0  0  0  0  0  0  0  0
   -0.3557   -0.6379   -1.0887 C   0  0  0  0  0  0  0  0  0  0  0  0
   -0.5172   -2.1136   -1.3497 C   0  0  0  0  0  0  0  0  0  0  0  0
   -1.5367    0.1442   -0.6774 C   0  0  0  0  0  0  0  0  0  0  0  0
   -2.8509   -0.3538   -0.6064 C   0  0  0  0  0  0  0  0  0  0  0  0
   -3.2069   -1.6235   -0.9281 O   0  0  0  0  0  0  0  0  0  0  0  0
   -4.5289   -1.7462   -0.7455 C   0  0  0  0  0  0  0  0  0  0  0  0
   -5.1067   -0.5670   -0.3071 C   0  0  0  0  0  0  0  0  0  0  0  0
   -6.6037   -0.4201   -0.0149 C   0  0  0  0  0  0  0  0  0  0  0  0
   -7.3991   -1.6938   -0.4278 C   0  0  0  0  0  0  0  0  0  0  0  0
   -7.2331    0.7237   -0.8311 C   0  0  0  0  0  0  0  0  0  0  0  0
   -6.8469   -0.2502    1.4971 C   0  0  0  0  0  0  0  0  0  0  0  0
   -3.9893    0.3748   -0.2065 C   0  0  0  0  0  0  0  0  0  0  0  0
   -5.1831    3.3066   -0.2533 H   0  0  0  0  0  0  0  0  0  0  0  0
   -5.6703    2.2687    1.1055 H   0  0  0  0  0  0  0  0  0  0  0  0
   -4.4051    3.4397    1.3350 H   0  0  0  0  0  0  0  0  0  0  0  0
   -2.2895    3.3088    0.3097 H   0  0  0  0  0  0  0  0  0  0  0  0
    2.0012   -1.5210   -2.2239 H   0  0  0  0  0  0  0  0  0  0  0  0
    2.6866    0.0653   -2.2930 H   0  0  0  0  0  0  0  0  0  0  0  0
    3.6681    0.9592   -0.3950 H   0  0  0  0  0  0  0  0  0  0  0  0
    5.0704   -1.1123    1.2268 H   0  0  0  0  0  0  0  0  0  0  0  0
    3.9611    0.0322    1.9809 H   0  0  0  0  0  0  0  0  0  0  0  0
    5.3232    1.9518    1.0688 H   0  0  0  0  0  0  0  0  0  0  0  0
    6.1476    0.9832    2.2730 H   0  0  0  0  0  0  0  0  0  0  0  0
    7.6026    1.6083    0.3299 H   0  0  0  0  0  0  0  0  0  0  0  0
    6.4857    0.7989   -0.7572 H   0  0  0  0  0  0  0  0  0  0  0  0
    9.2902    0.0567   -0.8184 H   0  0  0  0  0  0  0  0  0  0  0  0
    7.9588   -0.7715   -1.6566 H   0  0  0  0  0  0  0  0  0  0  0  0
    9.0457   -1.6947   -0.6337 H   0  0  0  0  0  0  0  0  0  0  0  0
    9.1383    0.2857    1.7219 H   0  0  0  0  0  0  0  0  0  0  0  0
    8.9768   -1.4821    1.7429 H   0  0  0  0  0  0  0  0  0  0  0  0
    7.7691   -0.5009    2.5388 H   0  0  0  0  0  0  0  0  0  0  0  0
    0.4281   -2.6367   -1.5111 H   0  0  0  0  0  0  0  0  0  0  0  0
   -0.9757   -2.6116   -0.4882 H   0  0  0  0  0  0  0  0  0  0  0  0
   -1.1299   -2.2837   -2.2413 H   0  0  0  0  0  0  0  0  0  0  0  0
   -4.9227   -2.7291   -0.9677 H   0  0  0  0  0  0  0  0  0  0  0  0
   -7.0644   -2.5798    0.1248 H   0  0  0  0  0  0  0  0  0  0  0  0
   -7.2915   -1.9057   -1.4982 H   0  0  0  0  0  0  0  0  0  0  0  0
   -8.4702   -1.5749   -0.2236 H   0  0  0  0  0  0  0  0  0  0  0  0
   -7.0667    0.5753   -1.9051 H   0  0  0  0  0  0  0  0  0  0  0  0
   -8.3164    0.7765   -0.6692 H   0  0  0  0  0  0  0  0  0  0  0  0
   -6.8348    1.7041   -0.5828 H   0  0  0  0  0  0  0  0  0  0  0  0
   -6.2519    0.5484    1.9423 H   0  0  0  0  0  0  0  0  0  0  0  0
   -6.5774   -1.1657    2.0410 H   0  0  0  0  0  0  0  0  0  0  0  0
   -7.9019   -0.0390    1.7082 H   0  0  0  0  0  0  0  0  0  0  0  0
  1  2  1  0
  2  3  2  0
  3  4  1  0
  4  5  1  0
  5  6  1  0
  6  7  2  0
  6  8  1  0
  8  9  1  0
  9 10  1  0
 10 11  2  0
 10 12  1  0
 12 13  1  0
 13 14  1  0
 14 15  1  0
 15 16  1  0
 16 17  1  0
 16 18  1  0
  8 19  2  0
 19 20  1  0
 19 21  1  0
 21 22  1  0
 22 23  1  0
 23 24  1  0
 24 25  2  0
 25 26  1  0
 26 27  1  0
 26 28  1  0
 26 29  1  0
 25 30  1  0
 30  2  1  0
 21  4  2  0
 30 22  2  0
  1 31  1  0
  1 32  1  0
  1 33  1  0
  3 34  1  0
  9 35  1  0
  9 36  1  0
 12 37  1  0
 13 38  1  0
 13 39  1  0
 14 40  1  0
 14 41  1  0
 15 42  1  0
 15 43  1  0
 17 44  1  0
 17 45  1  0
 17 46  1  0
 18 47  1  0
 18 48  1  0
 18 49  1  0
 20 50  1  0
 20 51  1  0
 20 52  1  0
 24 53  1  0
 27 54  1  0
 27 55  1  0
 27 56  1  0
 28 57  1  0
 28 58  1  0
 28 59  1  0
 29 60  1  0
 29 61  1  0
 29 62  1  0
M  END
$$$$
