
     RDKit          3D

 48 50  0  0  0  0  0  0  0  0999 V2000
    3.5704   -4.5436   -1.9579 C   0  0  0  0  0  0  0  0  0  0  0  0
    3.4262   -3.2253   -1.2556 C   0  0  0  0  0  0  0  0  0  0  0  0
    4.5306   -2.6208   -0.6503 C   0  0  0  0  0  0  0  0  0  0  0  0
    4.4313   -1.4012    0.0510 C   0  0  0  0  0  0  0  0  0  0  0  0
    5.6732   -0.8003    0.6473 C   0  0  0  0  0  0  0  0  0  0  0  0
    3.1532   -0.8012    0.1084 C   0  0  0  0  0  0  0  0  0  0  0  0
    2.6630    0.6890    0.8270 S   0  0  0  0  0  0  0  0  0  0  0  0
    1.0371    0.3955    0.3867 C   0  0  0  0  0  0  0  0  0  0  0  0
    0.0307    1.3334    0.6482 N   0  0  0  0  0  0  0  0  0  0  0  0
   -1.3021    1.0983    0.0577 C   0  0  0  0  0  0  0  0  0  0  0  0
   -2.1238    0.1040    0.8866 C   0  0  0  0  0  0  0  0  0  0  0  0
   -3.5645   -0.0382    0.3799 C   0  0  0  0  0  0  0  0  0  0  0  0
   -3.6783   -0.3818   -1.0462 N   0  0  0  0  0  0  0  0  0  0  0  0
   -3.1429   -1.7164   -1.3326 C   0  0  0  0  0  0  0  0  0  0  0  0
   -5.0805   -0.3139   -1.4684 C   0  0  0  0  0  0  0  0  0  0  0  0
    0.1676    2.2174    1.7345 C   0  0  0  0  0  0  0  0  0  0  0  0
    0.8508    1.9644    2.7264 O   0  0  0  0  0  0  0  0  0  0  0  0
   -0.5643    3.4776    1.6314 C   0  0  0  0  0  0  0  0  0  0  0  0
   -0.7227    4.3147    0.5383 C   0  0  0  0  0  0  0  0  0  0  0  0
   -1.5014    5.4706    0.8468 C   0  0  0  0  0  0  0  0  0  0  0  0
   -1.8838    5.4710    2.1636 C   0  0  0  0  0  0  0  0  0  0  0  0
   -2.9358    6.8565    2.9546 Br  0  0  0  0  0  0  0  0  0  0  0  0
   -1.3252    4.1262    3.0265 S   0  0  0  0  0  0  0  0  0  0  0  0
    0.8424   -0.6904   -0.3264 N   0  0  0  0  0  0  0  0  0  0  0  0
    2.0281   -1.3901   -0.4719 C   0  0  0  0  0  0  0  0  0  0  0  0
    2.1699   -2.6159   -1.1527 C   0  0  0  0  0  0  0  0  0  0  0  0
    3.4380   -5.3633   -1.2451 H   0  0  0  0  0  0  0  0  0  0  0  0
    4.5584   -4.6326   -2.4217 H   0  0  0  0  0  0  0  0  0  0  0  0
    2.8274   -4.6452   -2.7559 H   0  0  0  0  0  0  0  0  0  0  0  0
    5.5042   -3.1070   -0.7205 H   0  0  0  0  0  0  0  0  0  0  0  0
    6.2896   -1.5778    1.1110 H   0  0  0  0  0  0  0  0  0  0  0  0
    6.2577   -0.3054   -0.1346 H   0  0  0  0  0  0  0  0  0  0  0  0
    5.4404   -0.0676    1.4250 H   0  0  0  0  0  0  0  0  0  0  0  0
   -1.8590    2.0354   -0.0115 H   0  0  0  0  0  0  0  0  0  0  0  0
   -1.1668    0.7475   -0.9723 H   0  0  0  0  0  0  0  0  0  0  0  0
   -1.6293   -0.8737    0.9103 H   0  0  0  0  0  0  0  0  0  0  0  0
   -2.1617    0.4428    1.9299 H   0  0  0  0  0  0  0  0  0  0  0  0
   -4.0630    0.9250    0.5528 H   0  0  0  0  0  0  0  0  0  0  0  0
   -4.0896   -0.7765    1.0002 H   0  0  0  0  0  0  0  0  0  0  0  0
   -2.0674   -1.7644   -1.1356 H   0  0  0  0  0  0  0  0  0  0  0  0
   -3.2652   -1.9585   -2.3946 H   0  0  0  0  0  0  0  0  0  0  0  0
   -3.6405   -2.4956   -0.7441 H   0  0  0  0  0  0  0  0  0  0  0  0
   -5.1708   -0.5219   -2.5405 H   0  0  0  0  0  0  0  0  0  0  0  0
   -5.7115   -1.0254   -0.9234 H   0  0  0  0  0  0  0  0  0  0  0  0
   -5.4815    0.6939   -1.3127 H   0  0  0  0  0  0  0  0  0  0  0  0
   -0.2970    4.1098   -0.4377 H   0  0  0  0  0  0  0  0  0  0  0  0
   -1.7518    6.2516    0.1392 H   0  0  0  0  0  0  0  0  0  0  0  0
    1.2899   -3.0705   -1.5978 H   0  0  0  0  0  0  0  0  0  0  0  0
  1  2  1  0
  2  3  2  0
  3  4  1  0
  4  5  1  0
  4  6  2  0
  6  7  1  0
  7  8  1  0
  8  9  1  0
  9 10  1  0
 10 11  1  0
 11 12  1  0
 12 13  1  0
 13 14  1  0
 13 15  1  0
  9 16  1  0
 16 17  2  0
 16 18  1  0
 18 19  2  0
 19 20  1  0
 20 21  2  0
 21 22  1  0
 21 23  1  0
  8 24  2  0
 24 25  1  0
 25 26  2  0
 26  2  1  0
 25  6  1  0
 23 18  1  0
  1 27  1  0
  1 28  1  0
  1 29  1  0
  3 30  1  0
  5 31  1  0
  5 32  1  0
  5 33  1  0
 10 34  1  0
 10 35  1  0
 11 36  1  0
 11 37  1  0
 12 38  1  0
 12 39  1  0
 14 40  1  0
 14 41  1  0
 14 42  1  0
 15 43  1  0
 15 44  1  0
 15 45  1  0
 19 46  1  0
 20 47  1  0
 26 48  1  0
M  END
$$$$
