
     RDKit          3D

 53 56  0  0  0  0  0  0  0  0999 V2000
   -0.6784    0.0947    2.8473 C   0  0  0  0  0  0  0  0  0  0  0  0
   -1.2376    0.5182    1.5182 C   0  0  0  0  0  0  0  0  0  0  0  0
   -0.6054    1.4857    0.7314 C   0  0  0  0  0  0  0  0  0  0  0  0
    0.5431    2.0817    1.1851 O   0  0  0  0  0  0  0  0  0  0  0  0
    1.6879    1.7678    0.3829 C   0  0  0  0  0  0  0  0  0  0  0  0
    2.1742    3.0478   -0.3022 C   0  0  0  0  0  0  0  0  0  0  0  0
    2.8355    1.2383    1.2676 C   0  0  0  0  0  0  0  0  0  0  0  0
    2.8840    1.3730    2.4878 O   0  0  0  0  0  0  0  0  0  0  0  0
    3.8501    0.6289    0.5585 N   0  0  0  0  0  0  0  0  0  0  0  0
    4.9937    0.0528    1.2357 C   0  0  0  0  0  0  0  0  0  0  0  0
    5.9501   -0.5639    0.2403 C   0  0  0  0  0  0  0  0  0  0  0  0
    7.3229   -0.5747    0.4937 C   0  0  0  0  0  0  0  0  0  0  0  0
    8.1725   -1.1702   -0.4357 C   0  0  0  0  0  0  0  0  0  0  0  0
    7.6335   -1.7420   -1.5842 C   0  0  0  0  0  0  0  0  0  0  0  0
    6.2572   -1.7039   -1.7530 C   0  0  0  0  0  0  0  0  0  0  0  0
    5.4039   -1.1321   -0.8736 N   0  0  0  0  0  0  0  0  0  0  0  0
   -1.1858    1.9146   -0.4635 C   0  0  0  0  0  0  0  0  0  0  0  0
   -2.3889    1.3586   -0.9073 C   0  0  0  0  0  0  0  0  0  0  0  0
   -3.0456    0.3802   -0.1540 C   0  0  0  0  0  0  0  0  0  0  0  0
   -4.3257   -0.2244   -0.5594 C   0  0  0  0  0  0  0  0  0  0  0  0
   -4.9317   -1.1009    0.2664 C   0  0  0  0  0  0  0  0  0  0  0  0
   -4.3214   -1.5208    1.5527 C   0  0  0  0  0  0  0  0  0  0  0  0
   -4.8656   -2.3369    2.2894 O   0  0  0  0  0  0  0  0  0  0  0  0
   -3.1007   -0.9569    1.8793 O   0  0  0  0  0  0  0  0  0  0  0  0
   -2.4587   -0.0079    1.0543 C   0  0  0  0  0  0  0  0  0  0  0  0
   -6.2770   -1.7175   -0.0329 C   0  0  0  0  0  0  0  0  0  0  0  0
   -7.0382   -0.9821   -1.1366 C   0  0  0  0  0  0  0  0  0  0  0  0
   -6.1214   -0.7043   -2.3180 C   0  0  0  0  0  0  0  0  0  0  0  0
   -4.9325    0.1627   -1.8914 C   0  0  0  0  0  0  0  0  0  0  0  0
   -0.8118   -0.9799    3.0032 H   0  0  0  0  0  0  0  0  0  0  0  0
    0.3966    0.2797    2.9167 H   0  0  0  0  0  0  0  0  0  0  0  0
   -1.1782    0.6385    3.6545 H   0  0  0  0  0  0  0  0  0  0  0  0
    1.4658    0.9969   -0.3725 H   0  0  0  0  0  0  0  0  0  0  0  0
    1.4199    3.4375   -0.9913 H   0  0  0  0  0  0  0  0  0  0  0  0
    3.0941    2.8776   -0.8712 H   0  0  0  0  0  0  0  0  0  0  0  0
    2.3689    3.8371    0.4354 H   0  0  0  0  0  0  0  0  0  0  0  0
    3.6524    0.2194   -0.3461 H   0  0  0  0  0  0  0  0  0  0  0  0
    4.6428   -0.7157    1.9351 H   0  0  0  0  0  0  0  0  0  0  0  0
    5.4802    0.8515    1.8075 H   0  0  0  0  0  0  0  0  0  0  0  0
    7.7296   -0.1240    1.3952 H   0  0  0  0  0  0  0  0  0  0  0  0
    9.2434   -1.1852   -0.2654 H   0  0  0  0  0  0  0  0  0  0  0  0
    8.2694   -2.2178   -2.3237 H   0  0  0  0  0  0  0  0  0  0  0  0
    5.7927   -2.1466   -2.6291 H   0  0  0  0  0  0  0  0  0  0  0  0
   -0.7233    2.7046   -1.0464 H   0  0  0  0  0  0  0  0  0  0  0  0
   -2.8045    1.7316   -1.8387 H   0  0  0  0  0  0  0  0  0  0  0  0
   -6.9089   -1.7215    0.8644 H   0  0  0  0  0  0  0  0  0  0  0  0
   -6.1187   -2.7592   -0.3366 H   0  0  0  0  0  0  0  0  0  0  0  0
   -7.4257   -0.0349   -0.7420 H   0  0  0  0  0  0  0  0  0  0  0  0
   -7.9012   -1.5745   -1.4556 H   0  0  0  0  0  0  0  0  0  0  0  0
   -6.6765   -0.2006   -3.1175 H   0  0  0  0  0  0  0  0  0  0  0  0
   -5.7570   -1.6536   -2.7324 H   0  0  0  0  0  0  0  0  0  0  0  0
   -4.1808    0.0971   -2.6881 H   0  0  0  0  0  0  0  0  0  0  0  0
   -5.2631    1.2081   -1.8343 H   0  0  0  0  0  0  0  0  0  0  0  0
  1  2  1  0
  2  3  2  0
  3  4  1  0
  4  5  1  0
  5  6  1  0
  5  7  1  0
  7  8  2  0
  7  9  1  0
  9 10  1  0
 10 11  1  0
 11 12  2  0
 12 13  1  0
 13 14  2  0
 14 15  1  0
 15 16  2  0
  3 17  1  0
 17 18  2  0
 18 19  1  0
 19 20  1  0
 20 21  2  0
 21 22  1  0
 22 23  2  0
 22 24  1  0
 24 25  1  0
 21 26  1  0
 26 27  1  0
 27 28  1  0
 28 29  1  0
 25  2  1  0
 16 11  1  0
 25 19  2  0
 29 20  1  0
  1 30  1  0
  1 31  1  0
  1 32  1  0
  5 33  1  0
  6 34  1  0
  6 35  1  0
  6 36  1  0
  9 37  1  0
 10 38  1  0
 10 39  1  0
 12 40  1  0
 13 41  1  0
 14 42  1  0
 15 43  1  0
 17 44  1  0
 18 45  1  0
 26 46  1  0
 26 47  1  0
 27 48  1  0
 27 49  1  0
 28 50  1  0
 28 51  1  0
 29 52  1  0
 29 53  1  0
M  END
$$$$
