
     RDKit          3D

 45 47  0  0  0  0  0  0  0  0999 V2000
   -3.8111    2.1452    1.8748 C   0  0  0  0  0  0  0  0  0  0  0  0
   -4.1369    0.3908    2.1925 S   0  0  0  0  0  0  0  0  0  0  0  0
   -4.3028   -0.1932    0.5086 C   0  0  0  0  0  0  0  0  0  0  0  0
   -5.5281   -0.7654    0.1408 C   0  0  0  0  0  0  0  0  0  0  0  0
   -5.7353   -1.2349   -1.1589 C   0  0  0  0  0  0  0  0  0  0  0  0
   -4.7193   -1.1362   -2.1066 C   0  0  0  0  0  0  0  0  0  0  0  0
   -3.4899   -0.5833   -1.7514 C   0  0  0  0  0  0  0  0  0  0  0  0
   -3.2722   -0.1389   -0.4422 C   0  0  0  0  0  0  0  0  0  0  0  0
   -2.0596    0.4132   -0.1168 O   0  0  0  0  0  0  0  0  0  0  0  0
   -0.9967   -0.5553   -0.0997 C   0  0  0  0  0  0  0  0  0  0  0  0
   -0.4957   -0.7056    1.3369 C   0  0  0  0  0  0  0  0  0  0  0  0
    0.7711   -1.5564    1.3878 C   0  0  0  0  0  0  0  0  0  0  0  0
    1.8498   -1.0735    0.5140 N   0  0  0  0  0  0  0  0  0  0  0  0
    2.4857    0.1409    1.0554 C   0  0  0  0  0  0  0  0  0  0  0  0
    3.7816    0.5045    0.3598 C   0  0  0  0  0  0  0  0  0  0  0  0
    3.9420    1.7622   -0.2398 C   0  0  0  0  0  0  0  0  0  0  0  0
    5.1422    2.0989   -0.8689 C   0  0  0  0  0  0  0  0  0  0  0  0
    6.1939    1.1849   -0.9029 C   0  0  0  0  0  0  0  0  0  0  0  0
    6.0478   -0.0671   -0.3086 C   0  0  0  0  0  0  0  0  0  0  0  0
    4.8491   -0.4052    0.3210 C   0  0  0  0  0  0  0  0  0  0  0  0
    1.3728   -0.9170   -0.8682 C   0  0  0  0  0  0  0  0  0  0  0  0
    0.1274   -0.0437   -0.9999 C   0  0  0  0  0  0  0  0  0  0  0  0
   -4.5629    2.5616    1.1986 H   0  0  0  0  0  0  0  0  0  0  0  0
   -2.8156    2.2932    1.4503 H   0  0  0  0  0  0  0  0  0  0  0  0
   -3.8597    2.6902    2.8216 H   0  0  0  0  0  0  0  0  0  0  0  0
   -6.3372   -0.8425    0.8641 H   0  0  0  0  0  0  0  0  0  0  0  0
   -6.6939   -1.6696   -1.4311 H   0  0  0  0  0  0  0  0  0  0  0  0
   -4.8852   -1.4880   -3.1217 H   0  0  0  0  0  0  0  0  0  0  0  0
   -2.7052   -0.4962   -2.4971 H   0  0  0  0  0  0  0  0  0  0  0  0
   -1.3241   -1.5409   -0.4614 H   0  0  0  0  0  0  0  0  0  0  0  0
   -1.2749   -1.1722    1.9509 H   0  0  0  0  0  0  0  0  0  0  0  0
   -0.3215    0.2817    1.7829 H   0  0  0  0  0  0  0  0  0  0  0  0
    0.5216   -2.5834    1.0900 H   0  0  0  0  0  0  0  0  0  0  0  0
    1.1246   -1.6348    2.4232 H   0  0  0  0  0  0  0  0  0  0  0  0
    1.7992    0.9956    1.0403 H   0  0  0  0  0  0  0  0  0  0  0  0
    2.7431   -0.0186    2.1114 H   0  0  0  0  0  0  0  0  0  0  0  0
    3.1317    2.4872   -0.2228 H   0  0  0  0  0  0  0  0  0  0  0  0
    5.2566    3.0753   -1.3323 H   0  0  0  0  0  0  0  0  0  0  0  0
    7.1273    1.4475   -1.3934 H   0  0  0  0  0  0  0  0  0  0  0  0
    6.8655   -0.7823   -0.3359 H   0  0  0  0  0  0  0  0  0  0  0  0
    4.7400   -1.3871    0.7773 H   0  0  0  0  0  0  0  0  0  0  0  0
    1.1451   -1.9161   -1.2631 H   0  0  0  0  0  0  0  0  0  0  0  0
    2.1644   -0.5315   -1.5205 H   0  0  0  0  0  0  0  0  0  0  0  0
   -0.2118   -0.0367   -2.0427 H   0  0  0  0  0  0  0  0  0  0  0  0
    0.3571    1.0025   -0.7620 H   0  0  0  0  0  0  0  0  0  0  0  0
  1  2  1  0
  2  3  1  0
  3  4  2  0
  4  5  1  0
  5  6  2  0
  6  7  1  0
  7  8  2  0
  8  9  1  0
  9 10  1  0
 10 11  1  0
 11 12  1  0
 12 13  1  0
 13 14  1  0
 14 15  1  0
 15 16  2  0
 16 17  1  0
 17 18  2  0
 18 19  1  0
 19 20  2  0
 13 21  1  0
 21 22  1  0
  8  3  1  0
 22 10  1  0
 20 15  1  0
  1 23  1  0
  1 24  1  0
  1 25  1  0
  4 26  1  0
  5 27  1  0
  6 28  1  0
  7 29  1  0
 10 30  1  0
 11 31  1  0
 11 32  1  0
 12 33  1  0
 12 34  1  0
 14 35  1  0
 14 36  1  0
 16 37  1  0
 17 38  1  0
 18 39  1  0
 19 40  1  0
 20 41  1  0
 21 42  1  0
 21 43  1  0
 22 44  1  0
 22 45  1  0
M  END
$$$$
