
     RDKit          3D

 92 93  0  0  0  0  0  0  0  0999 V2000
   13.0065    1.1407   -0.5891 C   0  0  0  0  0  0  0  0  0  0  0  0
   11.5604    0.6707   -0.6034 C   0  0  0  0  0  0  0  0  0  0  0  0
   11.2596   -0.1631   -1.8507 C   0  0  0  0  0  0  0  0  0  0  0  0
    9.7880   -0.5722   -1.9697 C   0  0  0  0  0  0  0  0  0  0  0  0
    9.3389   -1.5382   -0.8710 C   0  0  0  0  0  0  0  0  0  0  0  0
    7.9401   -2.1196   -1.1076 C   0  0  0  0  0  0  0  0  0  0  0  0
    6.8015   -1.0999   -1.2298 C   0  0  0  0  0  0  0  0  0  0  0  0
    6.6211   -0.2406    0.0229 C   0  0  0  0  0  0  0  0  0  0  0  0
    5.5002    0.7963   -0.1050 C   0  0  0  0  0  0  0  0  0  0  0  0
    4.0898    0.2458   -0.3434 C   0  0  0  0  0  0  0  0  0  0  0  0
    3.6241   -0.7276    0.7417 C   0  0  0  0  0  0  0  0  0  0  0  0
    2.1571   -1.1443    0.5922 C   0  0  0  0  0  0  0  0  0  0  0  0
    1.1762   -0.0266    0.9583 C   0  0  0  0  0  0  0  0  0  0  0  0
   -0.2739   -0.5236    0.9260 C   0  0  0  0  0  0  0  0  0  0  0  0
   -1.2401    0.5787    1.3603 C   0  0  0  0  0  0  0  0  0  0  0  0
   -2.7328    0.2961    1.1417 C   0  0  0  0  0  0  0  0  0  0  0  0
   -3.3723   -0.8087    2.0099 N   0  0  0  0  0  4  0  0  0  0  0  0
   -2.8231   -0.8040    3.4341 C   0  0  0  0  0  0  0  0  0  0  0  0
   -3.1575   -2.1885    1.3926 C   0  0  0  0  0  0  0  0  0  0  0  0
   -4.9201   -0.5434    2.1394 C   0  0  0  0  0  0  0  0  0  0  0  0
   -5.7392   -0.6302    0.8309 C   0  0  0  0  0  0  0  0  0  0  0  0
   -5.4561    0.4737   -0.0929 N   0  0  0  0  0  0  0  0  0  0  0  0
   -6.0289    1.8017    0.1796 C   0  0  0  0  0  0  0  0  0  0  0  0
   -7.5249    1.7782    0.4112 C   0  0  0  0  0  0  0  0  0  0  0  0
   -8.0537    2.0811    1.6737 C   0  0  0  0  0  0  0  0  0  0  0  0
   -9.4335    2.0408    1.8913 C   0  0  0  0  0  0  0  0  0  0  0  0
  -10.3099    1.7089    0.8569 C   0  0  0  0  0  0  0  0  0  0  0  0
  -11.6299    1.6979    1.2123 O   0  0  0  0  0  0  0  0  0  0  0  0
  -12.5736    1.4516    0.1766 C   0  0  0  0  0  0  0  0  0  0  0  0
   -9.7946    1.4223   -0.4059 C   0  0  0  0  0  0  0  0  0  0  0  0
   -8.4120    1.4598   -0.6271 C   0  0  0  0  0  0  0  0  0  0  0  0
   -5.2640    0.1423   -1.4297 C   0  0  0  0  0  0  0  0  0  0  0  0
   -4.9476   -1.1263   -1.7414 N   0  0  0  0  0  0  0  0  0  0  0  0
   -4.7399   -1.4239   -3.0414 C   0  0  0  0  0  0  0  0  0  0  0  0
   -4.7994   -0.4987   -4.0487 C   0  0  0  0  0  0  0  0  0  0  0  0
   -5.0879    0.7752   -3.6409 C   0  0  0  0  0  0  0  0  0  0  0  0
   -5.3102    1.1100   -2.3546 N   0  0  0  0  0  0  0  0  0  0  0  0
   13.2244    1.7703   -1.4574 H   0  0  0  0  0  0  0  0  0  0  0  0
   13.6942    0.2896   -0.6022 H   0  0  0  0  0  0  0  0  0  0  0  0
   13.2064    1.7253    0.3146 H   0  0  0  0  0  0  0  0  0  0  0  0
   11.3735    0.0834    0.3021 H   0  0  0  0  0  0  0  0  0  0  0  0
   10.8978    1.5436   -0.5697 H   0  0  0  0  0  0  0  0  0  0  0  0
   11.5248    0.4185   -2.7431 H   0  0  0  0  0  0  0  0  0  0  0  0
   11.8930   -1.0589   -1.8576 H   0  0  0  0  0  0  0  0  0  0  0  0
    9.1639    0.3285   -1.9608 H   0  0  0  0  0  0  0  0  0  0  0  0
    9.6437   -1.0495   -2.9467 H   0  0  0  0  0  0  0  0  0  0  0  0
   10.0481   -2.3741   -0.8157 H   0  0  0  0  0  0  0  0  0  0  0  0
    9.3702   -1.0437    0.1056 H   0  0  0  0  0  0  0  0  0  0  0  0
    7.9603   -2.7240   -2.0232 H   0  0  0  0  0  0  0  0  0  0  0  0
    7.7097   -2.8118   -0.2880 H   0  0  0  0  0  0  0  0  0  0  0  0
    6.9641   -0.4574   -2.1031 H   0  0  0  0  0  0  0  0  0  0  0  0
    5.8788   -1.6593   -1.4259 H   0  0  0  0  0  0  0  0  0  0  0  0
    7.5477    0.3081    0.2278 H   0  0  0  0  0  0  0  0  0  0  0  0
    6.4443   -0.8826    0.8936 H   0  0  0  0  0  0  0  0  0  0  0  0
    5.7456    1.4837   -0.9236 H   0  0  0  0  0  0  0  0  0  0  0  0
    5.4882    1.4023    0.8099 H   0  0  0  0  0  0  0  0  0  0  0  0
    4.0374   -0.2431   -1.3231 H   0  0  0  0  0  0  0  0  0  0  0  0
    3.4094    1.1031   -0.3944 H   0  0  0  0  0  0  0  0  0  0  0  0
    3.7833   -0.2893    1.7340 H   0  0  0  0  0  0  0  0  0  0  0  0
    4.2364   -1.6356    0.6933 H   0  0  0  0  0  0  0  0  0  0  0  0
    1.9682   -1.4904   -0.4311 H   0  0  0  0  0  0  0  0  0  0  0  0
    1.9787   -2.0015    1.2540 H   0  0  0  0  0  0  0  0  0  0  0  0
    1.4094    0.3488    1.9627 H   0  0  0  0  0  0  0  0  0  0  0  0
    1.2844    0.8132    0.2641 H   0  0  0  0  0  0  0  0  0  0  0  0
   -0.5245   -0.8631   -0.0857 H   0  0  0  0  0  0  0  0  0  0  0  0
   -0.3536   -1.3811    1.5975 H   0  0  0  0  0  0  0  0  0  0  0  0
   -1.0082    1.4764    0.7711 H   0  0  0  0  0  0  0  0  0  0  0  0
   -1.0457    0.8623    2.4015 H   0  0  0  0  0  0  0  0  0  0  0  0
   -2.9040    0.0378    0.0943 H   0  0  0  0  0  0  0  0  0  0  0  0
   -3.2707    1.2213    1.3749 H   0  0  0  0  0  0  0  0  0  0  0  0
   -2.9598    0.1971    3.8538 H   0  0  0  0  0  0  0  0  0  0  0  0
   -1.7668   -1.0814    3.4179 H   0  0  0  0  0  0  0  0  0  0  0  0
   -3.3787   -1.5414    4.0226 H   0  0  0  0  0  0  0  0  0  0  0  0
   -3.8173   -2.8990    1.9000 H   0  0  0  0  0  0  0  0  0  0  0  0
   -3.3844   -2.1471    0.3254 H   0  0  0  0  0  0  0  0  0  0  0  0
   -2.1220   -2.4936    1.5416 H   0  0  0  0  0  0  0  0  0  0  0  0
   -5.2977   -1.3014    2.8371 H   0  0  0  0  0  0  0  0  0  0  0  0
   -5.0281    0.4383    2.6161 H   0  0  0  0  0  0  0  0  0  0  0  0
   -6.8018   -0.6246    1.1001 H   0  0  0  0  0  0  0  0  0  0  0  0
   -5.5856   -1.6229    0.3962 H   0  0  0  0  0  0  0  0  0  0  0  0
   -5.7919    2.5550   -0.5824 H   0  0  0  0  0  0  0  0  0  0  0  0
   -5.5417    2.1868    1.0856 H   0  0  0  0  0  0  0  0  0  0  0  0
   -7.4054    2.3615    2.5003 H   0  0  0  0  0  0  0  0  0  0  0  0
   -9.8338    2.2801    2.8744 H   0  0  0  0  0  0  0  0  0  0  0  0
  -12.5153    2.2209   -0.6019 H   0  0  0  0  0  0  0  0  0  0  0  0
  -13.5735    1.4992    0.6176 H   0  0  0  0  0  0  0  0  0  0  0  0
  -12.4456    0.4493   -0.2459 H   0  0  0  0  0  0  0  0  0  0  0  0
  -10.4377    1.1659   -1.2424 H   0  0  0  0  0  0  0  0  0  0  0  0
   -8.0333    1.2378   -1.6233 H   0  0  0  0  0  0  0  0  0  0  0  0
   -4.5158   -2.4655   -3.2523 H   0  0  0  0  0  0  0  0  0  0  0  0
   -4.6284   -0.7523   -5.0853 H   0  0  0  0  0  0  0  0  0  0  0  0
   -5.1529    1.5936   -4.3516 H   0  0  0  0  0  0  0  0  0  0  0  0
  1  2  1  0
  2  3  1  0
  3  4  1  0
  4  5  1  0
  5  6  1  0
  6  7  1  0
  7  8  1  0
  8  9  1  0
  9 10  1  0
 10 11  1  0
 11 12  1  0
 12 13  1  0
 13 14  1  0
 14 15  1  0
 15 16  1  0
 16 17  1  0
 17 18  1  0
 17 19  1  0
 17 20  1  0
 20 21  1  0
 21 22  1  0
 22 23  1  0
 23 24  1  0
 24 25  2  0
 25 26  1  0
 26 27  2  0
 27 28  1  0
 28 29  1  0
 27 30  1  0
 30 31  2  0
 22 32  1  0
 32 33  2  0
 33 34  1  0
 34 35  2  0
 35 36  1  0
 36 37  2  0
 31 24  1  0
 37 32  1  0
  1 38  1  0
  1 39  1  0
  1 40  1  0
  2 41  1  0
  2 42  1  0
  3 43  1  0
  3 44  1  0
  4 45  1  0
  4 46  1  0
  5 47  1  0
  5 48  1  0
  6 49  1  0
  6 50  1  0
  7 51  1  0
  7 52  1  0
  8 53  1  0
  8 54  1  0
  9 55  1  0
  9 56  1  0
 10 57  1  0
 10 58  1  0
 11 59  1  0
 11 60  1  0
 12 61  1  0
 12 62  1  0
 13 63  1  0
 13 64  1  0
 14 65  1  0
 14 66  1  0
 15 67  1  0
 15 68  1  0
 16 69  1  0
 16 70  1  0
 18 71  1  0
 18 72  1  0
 18 73  1  0
 19 74  1  0
 19 75  1  0
 19 76  1  0
 20 77  1  0
 20 78  1  0
 21 79  1  0
 21 80  1  0
 23 81  1  0
 23 82  1  0
 25 83  1  0
 26 84  1  0
 29 85  1  0
 29 86  1  0
 29 87  1  0
 30 88  1  0
 31 89  1  0
 34 90  1  0
 35 91  1  0
 36 92  1  0
M  CHG  1  17   1
M  END
$$$$
