
     RDKit          3D

 50 52  0  0  0  0  0  0  0  0999 V2000
   -4.5252   -2.9109    1.5005 C   0  0  0  0  0  0  0  0  0  0  0  0
   -3.3874   -2.0835    2.0888 C   0  0  0  0  0  0  0  0  0  0  0  0
   -2.4232   -1.4991    1.0370 C   0  0  0  0  0  0  0  0  0  0  0  0
   -3.0913   -0.5255    0.0644 C   0  0  0  0  0  0  0  0  0  0  0  0
   -3.2160   -0.8014   -1.3101 C   0  0  0  0  0  0  0  0  0  0  0  0
   -3.8357    0.1051   -2.1745 C   0  0  0  0  0  0  0  0  0  0  0  0
   -4.3507    1.3014   -1.6835 C   0  0  0  0  0  0  0  0  0  0  0  0
   -4.2430    1.5939   -0.3278 C   0  0  0  0  0  0  0  0  0  0  0  0
   -3.6213    0.6896    0.5373 C   0  0  0  0  0  0  0  0  0  0  0  0
   -1.6862   -2.5503    0.3634 N   0  0  0  0  0  0  0  0  0  0  0  0
   -0.3299   -2.4494    0.5261 C   0  0  0  0  0  0  0  0  0  0  0  0
    0.4643   -3.2433    0.0490 O   0  0  0  0  0  0  0  0  0  0  0  0
   -0.0579   -1.3734    1.3028 N   0  0  0  0  0  0  0  0  0  0  0  0
    1.2583   -0.9945    1.7760 C   0  0  0  0  0  0  0  0  0  0  0  0
    1.6891    0.3521    1.1849 C   0  0  0  0  0  0  0  0  0  0  0  0
    1.8248    1.3243    1.9366 O   0  0  0  0  0  0  0  0  0  0  0  0
    1.9295    0.4518   -0.1799 N   0  0  0  0  0  0  0  0  0  0  0  0
    1.9880   -0.6770   -1.0979 C   0  0  0  0  0  0  0  0  0  0  0  0
    2.1212    1.7816   -0.7590 C   0  0  0  0  0  0  0  0  0  0  0  0
    3.5691    2.0779   -1.0762 C   0  0  0  0  0  0  0  0  0  0  0  0
    4.0151    2.1382   -2.4048 C   0  0  0  0  0  0  0  0  0  0  0  0
    5.3537    2.4129   -2.6918 C   0  0  0  0  0  0  0  0  0  0  0  0
    6.2587    2.6331   -1.6559 C   0  0  0  0  0  0  0  0  0  0  0  0
    5.8293    2.5750   -0.3321 C   0  0  0  0  0  0  0  0  0  0  0  0
    4.4916    2.2999   -0.0433 C   0  0  0  0  0  0  0  0  0  0  0  0
   -1.2241   -0.8256    1.7639 C   0  0  0  0  0  0  0  0  0  0  0  0
   -1.3113    0.0476    2.6181 O   0  0  0  0  0  0  0  0  0  0  0  0
   -4.1460   -3.7588    0.9218 H   0  0  0  0  0  0  0  0  0  0  0  0
   -5.1678   -2.3076    0.8523 H   0  0  0  0  0  0  0  0  0  0  0  0
   -5.1494   -3.3107    2.3067 H   0  0  0  0  0  0  0  0  0  0  0  0
   -2.8296   -2.7197    2.7891 H   0  0  0  0  0  0  0  0  0  0  0  0
   -3.8197   -1.2788    2.6963 H   0  0  0  0  0  0  0  0  0  0  0  0
   -2.8302   -1.7236   -1.7370 H   0  0  0  0  0  0  0  0  0  0  0  0
   -3.9178   -0.1238   -3.2340 H   0  0  0  0  0  0  0  0  0  0  0  0
   -4.8273    2.0086   -2.3563 H   0  0  0  0  0  0  0  0  0  0  0  0
   -4.6380    2.5301    0.0603 H   0  0  0  0  0  0  0  0  0  0  0  0
   -3.5493    0.9543    1.5923 H   0  0  0  0  0  0  0  0  0  0  0  0
   -2.0922   -3.2960   -0.1841 H   0  0  0  0  0  0  0  0  0  0  0  0
    1.2126   -0.8864    2.8663 H   0  0  0  0  0  0  0  0  0  0  0  0
    2.0016   -1.7638    1.5485 H   0  0  0  0  0  0  0  0  0  0  0  0
    2.2876   -1.5901   -0.5845 H   0  0  0  0  0  0  0  0  0  0  0  0
    1.0033   -0.8034   -1.5554 H   0  0  0  0  0  0  0  0  0  0  0  0
    2.7220   -0.4867   -1.8856 H   0  0  0  0  0  0  0  0  0  0  0  0
    1.5039    1.8404   -1.6642 H   0  0  0  0  0  0  0  0  0  0  0  0
    1.7414    2.5596   -0.0858 H   0  0  0  0  0  0  0  0  0  0  0  0
    3.3213    1.9727   -3.2254 H   0  0  0  0  0  0  0  0  0  0  0  0
    5.6886    2.4613   -3.7241 H   0  0  0  0  0  0  0  0  0  0  0  0
    7.2986    2.8543   -1.8796 H   0  0  0  0  0  0  0  0  0  0  0  0
    6.5312    2.7532    0.4769 H   0  0  0  0  0  0  0  0  0  0  0  0
    4.1655    2.2645    0.9950 H   0  0  0  0  0  0  0  0  0  0  0  0
  1  2  1  0
  2  3  1  0
  3  4  1  0
  4  5  2  0
  5  6  1  0
  6  7  2  0
  7  8  1  0
  8  9  2  0
  3 10  1  0
 10 11  1  0
 11 12  2  0
 11 13  1  0
 13 14  1  0
 14 15  1  0
 15 16  2  0
 15 17  1  0
 17 18  1  0
 17 19  1  0
 19 20  1  0
 20 21  2  0
 21 22  1  0
 22 23  2  0
 23 24  1  0
 24 25  2  0
 13 26  1  0
 26 27  2  0
 26  3  1  0
  9  4  1  0
 25 20  1  0
  1 28  1  0
  1 29  1  0
  1 30  1  0
  2 31  1  0
  2 32  1  0
  5 33  1  0
  6 34  1  0
  7 35  1  0
  8 36  1  0
  9 37  1  0
 10 38  1  0
 14 39  1  0
 14 40  1  0
 18 41  1  0
 18 42  1  0
 18 43  1  0
 19 44  1  0
 19 45  1  0
 21 46  1  0
 22 47  1  0
 23 48  1  0
 24 49  1  0
 25 50  1  0
M  END
$$$$
