
     RDKit          3D

 69 71  0  0  0  0  0  0  0  0999 V2000
   -2.2323    4.1835    2.2612 C   0  0  0  0  0  0  0  0  0  0  0  0
   -3.1273    3.8716    1.0721 C   0  0  0  0  0  0  0  0  0  0  0  0
   -4.1093    2.7221    1.3228 C   0  0  0  0  0  0  0  0  0  0  0  0
   -3.4641    1.4124    1.4519 N   0  0  0  0  0  0  0  0  0  0  0  0
   -3.1385    0.9455    2.8021 C   0  0  0  0  0  0  0  0  0  0  0  0
   -4.1023   -0.1277    3.3171 C   0  0  0  0  0  0  0  0  0  0  0  0
   -5.5146    0.3929    3.5383 C   0  0  0  0  0  0  0  0  0  0  0  0
   -3.0850    0.6064    0.3740 C   0  0  0  0  0  0  0  0  0  0  0  0
   -2.4797   -0.4551    0.5491 O   0  0  0  0  0  0  0  0  0  0  0  0
   -3.5188    1.0555   -1.0314 C   0  0  0  0  0  0  0  0  0  0  0  0
   -2.8455    0.2798   -2.0729 N   0  0  0  0  0  0  0  0  0  0  0  0
   -1.5727    0.7150   -2.4589 C   0  0  0  0  0  0  0  0  0  0  0  0
   -1.0658    1.7220   -1.9538 O   0  0  0  0  0  0  0  0  0  0  0  0
   -0.9058   -0.0270   -3.4411 N   0  0  0  0  0  0  0  0  0  0  0  0
    0.4307    0.4158   -3.8266 C   0  0  0  0  0  0  0  0  0  0  0  0
    1.5059   -0.2407   -2.9531 C   0  0  0  0  0  0  0  0  0  0  0  0
    2.8951    0.3203   -3.2590 C   0  0  0  0  0  0  0  0  0  0  0  0
    4.0289   -0.4403   -2.5650 C   0  0  0  0  0  0  0  0  0  0  0  0
    3.9100   -0.4708   -1.0414 C   0  0  0  0  0  0  0  0  0  0  0  0
    5.1257   -1.1036   -0.3766 C   0  0  0  0  0  0  0  0  0  0  0  0
    6.1343   -1.3981   -1.0069 O   0  0  0  0  0  0  0  0  0  0  0  0
    4.9239   -1.2711    0.9849 N   0  0  0  0  0  0  0  0  0  0  0  0
    5.8192   -1.8194    1.9267 C   0  0  0  0  0  0  0  0  0  0  0  0
    5.3695   -1.9269    3.2500 C   0  0  0  0  0  0  0  0  0  0  0  0
    6.1954   -2.4595    4.2445 C   0  0  0  0  0  0  0  0  0  0  0  0
    7.4784   -2.8942    3.9250 C   0  0  0  0  0  0  0  0  0  0  0  0
    7.9356   -2.7891    2.6133 C   0  0  0  0  0  0  0  0  0  0  0  0
    7.1094   -2.2544    1.6186 C   0  0  0  0  0  0  0  0  0  0  0  0
   -1.3708   -1.2216   -4.0046 C   0  0  0  0  0  0  0  0  0  0  0  0
   -0.7200   -1.8616   -4.8298 O   0  0  0  0  0  0  0  0  0  0  0  0
   -2.6622   -1.6173   -3.5172 C   0  0  0  0  0  0  0  0  0  0  0  0
   -3.4572   -3.0274   -4.0291 S   0  0  0  0  0  0  0  0  0  0  0  0
   -4.7775   -2.7161   -2.9838 C   0  0  0  0  0  0  0  0  0  0  0  0
   -4.6036   -1.5491   -2.2676 C   0  0  0  0  0  0  0  0  0  0  0  0
   -3.3712   -0.9057   -2.5864 C   0  0  0  0  0  0  0  0  0  0  0  0
   -2.8235    4.3698    3.1626 H   0  0  0  0  0  0  0  0  0  0  0  0
   -1.5373    3.3634    2.4618 H   0  0  0  0  0  0  0  0  0  0  0  0
   -1.6355    5.0782    2.0568 H   0  0  0  0  0  0  0  0  0  0  0  0
   -3.7067    4.7714    0.8333 H   0  0  0  0  0  0  0  0  0  0  0  0
   -2.4942    3.6607    0.2045 H   0  0  0  0  0  0  0  0  0  0  0  0
   -4.8171    2.6772    0.4888 H   0  0  0  0  0  0  0  0  0  0  0  0
   -4.7062    2.9166    2.2210 H   0  0  0  0  0  0  0  0  0  0  0  0
   -2.1243    0.5288    2.7855 H   0  0  0  0  0  0  0  0  0  0  0  0
   -3.1187    1.7960    3.4913 H   0  0  0  0  0  0  0  0  0  0  0  0
   -3.7194   -0.5098    4.2711 H   0  0  0  0  0  0  0  0  0  0  0  0
   -4.1387   -0.9768    2.6255 H   0  0  0  0  0  0  0  0  0  0  0  0
   -5.5154    1.2494    4.2198 H   0  0  0  0  0  0  0  0  0  0  0  0
   -5.9784    0.6990    2.5958 H   0  0  0  0  0  0  0  0  0  0  0  0
   -6.1400   -0.3900    3.9786 H   0  0  0  0  0  0  0  0  0  0  0  0
   -4.6035    0.9431   -1.1249 H   0  0  0  0  0  0  0  0  0  0  0  0
   -3.2816    2.1115   -1.1797 H   0  0  0  0  0  0  0  0  0  0  0  0
    0.6072    0.1700   -4.8807 H   0  0  0  0  0  0  0  0  0  0  0  0
    0.4948    1.5070   -3.7423 H   0  0  0  0  0  0  0  0  0  0  0  0
    1.4973   -1.3256   -3.1133 H   0  0  0  0  0  0  0  0  0  0  0  0
    1.2637   -0.0758   -1.8967 H   0  0  0  0  0  0  0  0  0  0  0  0
    3.0728    0.2844   -4.3413 H   0  0  0  0  0  0  0  0  0  0  0  0
    2.9344    1.3778   -2.9690 H   0  0  0  0  0  0  0  0  0  0  0  0
    4.0670   -1.4683   -2.9468 H   0  0  0  0  0  0  0  0  0  0  0  0
    4.9784    0.0283   -2.8521 H   0  0  0  0  0  0  0  0  0  0  0  0
    3.0256   -1.0465   -0.7461 H   0  0  0  0  0  0  0  0  0  0  0  0
    3.8075    0.5495   -0.6540 H   0  0  0  0  0  0  0  0  0  0  0  0
    4.0221   -0.9882    1.3466 H   0  0  0  0  0  0  0  0  0  0  0  0
    4.3701   -1.6016    3.5263 H   0  0  0  0  0  0  0  0  0  0  0  0
    5.8345   -2.5360    5.2666 H   0  0  0  0  0  0  0  0  0  0  0  0
    8.1235   -3.3107    4.6940 H   0  0  0  0  0  0  0  0  0  0  0  0
    8.9378   -3.1242    2.3564 H   0  0  0  0  0  0  0  0  0  0  0  0
    7.5077   -2.1903    0.6110 H   0  0  0  0  0  0  0  0  0  0  0  0
   -5.6101   -3.4053   -2.9414 H   0  0  0  0  0  0  0  0  0  0  0  0
   -5.3315   -1.1993   -1.5475 H   0  0  0  0  0  0  0  0  0  0  0  0
  1  2  1  0
  2  3  1  0
  3  4  1  0
  4  5  1  0
  5  6  1  0
  6  7  1  0
  4  8  1  0
  8  9  2  0
  8 10  1  0
 10 11  1  0
 11 12  1  0
 12 13  2  0
 12 14  1  0
 14 15  1  0
 15 16  1  0
 16 17  1  0
 17 18  1  0
 18 19  1  0
 19 20  1  0
 20 21  2  0
 20 22  1  0
 22 23  1  0
 23 24  2  0
 24 25  1  0
 25 26  2  0
 26 27  1  0
 27 28  2  0
 14 29  1  0
 29 30  2  0
 29 31  1  0
 31 32  1  0
 32 33  1  0
 33 34  2  0
 34 35  1  0
 35 11  1  0
 28 23  1  0
 35 31  2  0
  1 36  1  0
  1 37  1  0
  1 38  1  0
  2 39  1  0
  2 40  1  0
  3 41  1  0
  3 42  1  0
  5 43  1  0
  5 44  1  0
  6 45  1  0
  6 46  1  0
  7 47  1  0
  7 48  1  0
  7 49  1  0
 10 50  1  0
 10 51  1  0
 15 52  1  0
 15 53  1  0
 16 54  1  0
 16 55  1  0
 17 56  1  0
 17 57  1  0
 18 58  1  0
 18 59  1  0
 19 60  1  0
 19 61  1  0
 22 62  1  0
 24 63  1  0
 25 64  1  0
 26 65  1  0
 27 66  1  0
 28 67  1  0
 33 68  1  0
 34 69  1  0
M  END
$$$$
