
     RDKit          3D

 36 37  0  0  0  0  0  0  0  0999 V2000
    5.8222   -2.8402   -1.1810 C   0  0  0  0  0  0  0  0  0  0  0  0
    4.7879   -2.8264   -0.2046 O   0  0  0  0  0  0  0  0  0  0  0  0
    3.9514   -1.7446   -0.2014 C   0  0  0  0  0  0  0  0  0  0  0  0
    4.0221   -0.6493   -1.0658 C   0  0  0  0  0  0  0  0  0  0  0  0
    3.0981    0.3953   -0.9557 C   0  0  0  0  0  0  0  0  0  0  0  0
    2.0960    0.3342    0.0169 C   0  0  0  0  0  0  0  0  0  0  0  0
    0.9347    1.6727    0.1694 S   0  0  0  0  0  6  0  0  0  0  0  0
    0.4221    1.6593    1.5234 O   0  0  0  0  0  0  0  0  0  0  0  0
    1.5398    2.8503   -0.4174 O   0  0  0  0  0  0  0  0  0  0  0  0
   -0.2936    1.1381   -0.9256 N   0  0  0  0  0  0  0  0  0  0  0  0
   -1.7058    1.5216   -0.5771 N   0  0  0  0  0  0  0  0  0  0  0  0
   -2.3820    0.6594    0.1269 C   0  0  0  0  0  0  0  0  0  0  0  0
   -1.8418   -0.6946    0.5379 C   0  0  0  0  0  0  0  0  0  0  0  0
   -3.7664    1.0228    0.5548 C   0  0  0  0  0  0  0  0  0  0  0  0
   -4.3439    0.4665    1.6958 C   0  0  0  0  0  0  0  0  0  0  0  0
   -5.6296    0.8561    2.0286 C   0  0  0  0  0  0  0  0  0  0  0  0
   -6.3544    1.7426    1.3142 N   0  0  0  0  0  0  0  0  0  0  0  0
   -5.7645    2.2799    0.2255 C   0  0  0  0  0  0  0  0  0  0  0  0
   -4.4860    1.9579   -0.1912 C   0  0  0  0  0  0  0  0  0  0  0  0
    2.0286   -0.7460    0.8981 C   0  0  0  0  0  0  0  0  0  0  0  0
    2.9543   -1.7838    0.7795 C   0  0  0  0  0  0  0  0  0  0  0  0
    6.5113   -2.0007   -1.0389 H   0  0  0  0  0  0  0  0  0  0  0  0
    5.4075   -2.8451   -2.1946 H   0  0  0  0  0  0  0  0  0  0  0  0
    6.3928   -3.7648   -1.0502 H   0  0  0  0  0  0  0  0  0  0  0  0
    4.7874   -0.5744   -1.8312 H   0  0  0  0  0  0  0  0  0  0  0  0
    3.1731    1.2490   -1.6255 H   0  0  0  0  0  0  0  0  0  0  0  0
   -0.0384    1.5469   -1.8325 H   0  0  0  0  0  0  0  0  0  0  0  0
   -1.1992   -1.1092   -0.2433 H   0  0  0  0  0  0  0  0  0  0  0  0
   -1.2699   -0.5935    1.4635 H   0  0  0  0  0  0  0  0  0  0  0  0
   -2.6504   -1.4139    0.6934 H   0  0  0  0  0  0  0  0  0  0  0  0
   -3.8174   -0.2333    2.3336 H   0  0  0  0  0  0  0  0  0  0  0  0
   -6.1257    0.4580    2.9098 H   0  0  0  0  0  0  0  0  0  0  0  0
   -6.3667    3.0011   -0.3200 H   0  0  0  0  0  0  0  0  0  0  0  0
   -4.0677    2.4270   -1.0751 H   0  0  0  0  0  0  0  0  0  0  0  0
    1.2696   -0.7882    1.6758 H   0  0  0  0  0  0  0  0  0  0  0  0
    2.9049   -2.6306    1.4611 H   0  0  0  0  0  0  0  0  0  0  0  0
  1  2  1  0
  2  3  1  0
  3  4  2  0
  4  5  1  0
  5  6  2  0
  6  7  1  0
  7  8  2  0
  7  9  2  0
  7 10  1  0
 10 11  1  0
 11 12  2  3
 12 13  1  0
 12 14  1  0
 14 15  2  0
 15 16  1  0
 16 17  2  0
 17 18  1  0
 18 19  2  0
  6 20  1  0
 20 21  2  0
 21  3  1  0
 19 14  1  0
  1 22  1  0
  1 23  1  0
  1 24  1  0
  4 25  1  0
  5 26  1  0
 10 27  1  0
 13 28  1  0
 13 29  1  0
 13 30  1  0
 15 31  1  0
 16 32  1  0
 18 33  1  0
 19 34  1  0
 20 35  1  0
 21 36  1  0
M  END
$$$$
