
     RDKit          3D

 52 55  0  0  0  0  0  0  0  0999 V2000
    7.5965   -3.3677    1.3827 C   0  0  0  0  0  0  0  0  0  0  0  0
    7.3315   -2.5575    0.1274 C   0  0  0  0  0  0  0  0  0  0  0  0
    5.9528   -2.1639    0.0764 O   0  0  0  0  0  0  0  0  0  0  0  0
    5.6315   -1.0014    0.7184 C   0  0  0  0  0  0  0  0  0  0  0  0
    6.4498   -0.3112    1.3159 O   0  0  0  0  0  0  0  0  0  0  0  0
    4.2055   -0.7006    0.6031 C   0  0  0  0  0  0  0  0  0  0  0  0
    3.1882   -1.6418   -0.4112 S   0  0  0  0  0  0  0  0  0  0  0  0
    1.8242   -0.6940   -0.0715 C   0  0  0  0  0  0  0  0  0  0  0  0
    0.6312   -0.9699   -0.6416 N   0  0  0  0  0  0  0  0  0  0  0  0
   -0.3503   -0.1745   -0.3278 C   0  0  0  0  0  0  0  0  0  0  0  0
   -1.7292   -0.3882   -0.9203 C   0  0  0  0  0  0  0  0  0  0  0  0
   -2.0184   -1.7034   -2.0122 S   0  0  0  0  0  0  0  0  0  0  0  0
   -0.7691   -1.3912   -3.2958 C   0  0  0  0  0  0  0  0  0  0  0  0
   -1.3139   -1.8155   -4.6347 C   0  0  0  0  0  0  0  0  0  0  0  0
   -2.1731   -1.2360   -5.2827 O   0  0  0  0  0  0  0  0  0  0  0  0
   -0.7662   -2.9575   -5.0992 O   0  0  0  0  0  0  0  0  0  0  0  0
   -2.7370    0.4234   -0.5686 C   0  0  0  0  0  0  0  0  0  0  0  0
   -2.5327    1.5074    0.3583 C   0  0  0  0  0  0  0  0  0  0  0  0
   -3.6118    2.4589    0.7512 C   0  0  0  0  0  0  0  0  0  0  0  0
   -3.3982    3.6696    0.7974 O   0  0  0  0  0  0  0  0  0  0  0  0
   -4.9769    1.9560    1.0539 C   0  0  0  0  0  0  0  0  0  0  0  0
   -5.1921    0.6634    1.5546 C   0  0  0  0  0  0  0  0  0  0  0  0
   -6.4911    0.2192    1.8177 C   0  0  0  0  0  0  0  0  0  0  0  0
   -7.5788    1.0630    1.5952 C   0  0  0  0  0  0  0  0  0  0  0  0
   -7.3718    2.3584    1.1236 C   0  0  0  0  0  0  0  0  0  0  0  0
   -6.0775    2.8060    0.8681 C   0  0  0  0  0  0  0  0  0  0  0  0
   -5.9584    4.1001    0.4350 O   0  0  0  0  0  0  0  0  0  0  0  0
   -1.3086    1.7332    0.8546 C   0  0  0  0  0  0  0  0  0  0  0  0
   -0.2167    0.9201    0.5500 N   0  0  0  0  0  0  0  0  0  0  0  0
    1.0207    1.2277    1.1508 C   0  0  0  0  0  0  0  0  0  0  0  0
    1.1894    2.1789    1.9111 O   0  0  0  0  0  0  0  0  0  0  0  0
    2.1080    0.3258    0.8003 C   0  0  0  0  0  0  0  0  0  0  0  0
    3.4892    0.3209    1.2302 C   0  0  0  0  0  0  0  0  0  0  0  0
    4.0738    1.3029    2.2021 C   0  0  0  0  0  0  0  0  0  0  0  0
    6.9215   -4.2291    1.4353 H   0  0  0  0  0  0  0  0  0  0  0  0
    8.6294   -3.7275    1.4010 H   0  0  0  0  0  0  0  0  0  0  0  0
    7.4186   -2.7687    2.2820 H   0  0  0  0  0  0  0  0  0  0  0  0
    7.9984   -1.6902    0.0599 H   0  0  0  0  0  0  0  0  0  0  0  0
    7.5202   -3.1763   -0.7566 H   0  0  0  0  0  0  0  0  0  0  0  0
   -0.5069   -0.3300   -3.3667 H   0  0  0  0  0  0  0  0  0  0  0  0
    0.1456   -1.9514   -3.0778 H   0  0  0  0  0  0  0  0  0  0  0  0
   -1.2353   -3.1223   -5.9439 H   0  0  0  0  0  0  0  0  0  0  0  0
   -3.7285    0.2918   -0.9953 H   0  0  0  0  0  0  0  0  0  0  0  0
   -4.3662   -0.0119    1.7618 H   0  0  0  0  0  0  0  0  0  0  0  0
   -6.6564   -0.7851    2.2022 H   0  0  0  0  0  0  0  0  0  0  0  0
   -8.5894    0.7173    1.8003 H   0  0  0  0  0  0  0  0  0  0  0  0
   -8.2164    3.0242    0.9646 H   0  0  0  0  0  0  0  0  0  0  0  0
   -5.0113    4.3566    0.4960 H   0  0  0  0  0  0  0  0  0  0  0  0
   -1.1220    2.5668    1.5315 H   0  0  0  0  0  0  0  0  0  0  0  0
    3.3296    1.6494    2.9238 H   0  0  0  0  0  0  0  0  0  0  0  0
    4.4715    2.1697    1.6659 H   0  0  0  0  0  0  0  0  0  0  0  0
    4.8771    0.8560    2.7941 H   0  0  0  0  0  0  0  0  0  0  0  0
  1  2  1  0
  2  3  1  0
  3  4  1  0
  4  5  2  0
  4  6  1  0
  6  7  1  0
  7  8  1  0
  8  9  1  0
  9 10  2  0
 10 11  1  0
 11 12  1  0
 12 13  1  0
 13 14  1  0
 14 15  2  0
 14 16  1  0
 11 17  2  0
 17 18  1  0
 18 19  1  0
 19 20  2  0
 19 21  1  0
 21 22  2  0
 22 23  1  0
 23 24  2  0
 24 25  1  0
 25 26  2  0
 26 27  1  0
 18 28  2  0
 28 29  1  0
 29 30  1  0
 30 31  2  0
 30 32  1  0
 32 33  1  0
 33 34  1  0
 33  6  2  0
 32  8  2  0
 29 10  1  0
 26 21  1  0
  1 35  1  0
  1 36  1  0
  1 37  1  0
  2 38  1  0
  2 39  1  0
 13 40  1  0
 13 41  1  0
 16 42  1  0
 17 43  1  0
 22 44  1  0
 23 45  1  0
 24 46  1  0
 25 47  1  0
 27 48  1  0
 28 49  1  0
 34 50  1  0
 34 51  1  0
 34 52  1  0
M  END
$$$$
