
     RDKit          3D

 35 36  0  0  0  0  0  0  0  0999 V2000
   -5.8721    0.2995   -0.1044 C   0  0  0  0  0  0  0  0  0  0  0  0
   -4.3883    0.1220    0.0211 C   0  0  0  0  0  0  0  0  0  0  0  0
   -3.5108    0.9729   -0.6589 C   0  0  0  0  0  0  0  0  0  0  0  0
   -2.1250    0.7928   -0.5698 C   0  0  0  0  0  0  0  0  0  0  0  0
   -1.5954   -0.2597    0.1844 C   0  0  0  0  0  0  0  0  0  0  0  0
   -0.1875   -0.4733    0.3113 N   0  0  0  0  0  0  0  0  0  0  0  0
    0.2663   -1.2466    1.3344 N   0  0  0  0  0  0  0  0  0  0  0  0
    1.5850   -1.0624    1.3493 C   0  0  0  0  0  0  0  0  0  0  0  0
    2.4017   -1.6830    2.4224 C   0  0  0  0  0  0  0  0  0  0  0  0
    2.0206   -0.2609    0.2645 C   0  0  0  0  0  0  0  0  0  0  0  0
    3.3422    0.0776    0.0164 N   0  0  0  0  0  0  0  0  0  0  0  0
    3.8113    1.0958   -0.7912 C   0  0  0  0  0  0  0  0  0  0  0  0
    3.1252    1.8960   -1.4227 O   0  0  0  0  0  0  0  0  0  0  0  0
    5.3270    1.1488   -0.9069 C   0  0  0  0  0  0  0  0  0  0  0  0
    6.1316    0.5708    0.5727 Cl  0  0  0  0  0  0  0  0  0  0  0  0
    0.8737   -0.0160   -0.4708 C   0  0  0  0  0  0  0  0  0  0  0  0
    0.7112    0.5024   -1.8560 C   0  0  0  0  0  0  0  0  0  0  0  0
   -2.4777   -1.1052    0.8766 C   0  0  0  0  0  0  0  0  0  0  0  0
   -3.8609   -0.9234    0.7839 C   0  0  0  0  0  0  0  0  0  0  0  0
   -6.2467   -0.2753   -0.9569 H   0  0  0  0  0  0  0  0  0  0  0  0
   -6.1287    1.3543   -0.2481 H   0  0  0  0  0  0  0  0  0  0  0  0
   -6.3844   -0.0381    0.8028 H   0  0  0  0  0  0  0  0  0  0  0  0
   -3.9000    1.7962   -1.2547 H   0  0  0  0  0  0  0  0  0  0  0  0
   -1.4953    1.5213   -1.0672 H   0  0  0  0  0  0  0  0  0  0  0  0
    1.7792   -2.2197    3.1459 H   0  0  0  0  0  0  0  0  0  0  0  0
    2.9639   -0.9164    2.9652 H   0  0  0  0  0  0  0  0  0  0  0  0
    3.1135   -2.3961    1.9944 H   0  0  0  0  0  0  0  0  0  0  0  0
    4.0273   -0.3299    0.6460 H   0  0  0  0  0  0  0  0  0  0  0  0
    5.6422    2.1827   -1.0706 H   0  0  0  0  0  0  0  0  0  0  0  0
    5.6471    0.5247   -1.7453 H   0  0  0  0  0  0  0  0  0  0  0  0
   -0.1544    0.0577   -2.3570 H   0  0  0  0  0  0  0  0  0  0  0  0
    0.6073    1.5909   -1.8623 H   0  0  0  0  0  0  0  0  0  0  0  0
    1.5734    0.2305   -2.4741 H   0  0  0  0  0  0  0  0  0  0  0  0
   -2.1015   -1.9262    1.4849 H   0  0  0  0  0  0  0  0  0  0  0  0
   -4.5207   -1.6045    1.3168 H   0  0  0  0  0  0  0  0  0  0  0  0
  1  2  1  0
  2  3  2  0
  3  4  1  0
  4  5  2  0
  5  6  1  0
  6  7  1  0
  7  8  2  0
  8  9  1  0
  8 10  1  0
 10 11  1  0
 11 12  1  0
 12 13  2  0
 12 14  1  0
 14 15  1  0
 10 16  2  0
 16 17  1  0
  5 18  1  0
 18 19  2  0
 19  2  1  0
 16  6  1  0
  1 20  1  0
  1 21  1  0
  1 22  1  0
  3 23  1  0
  4 24  1  0
  9 25  1  0
  9 26  1  0
  9 27  1  0
 11 28  1  0
 14 29  1  0
 14 30  1  0
 17 31  1  0
 17 32  1  0
 17 33  1  0
 18 34  1  0
 19 35  1  0
M  END
$$$$
