
     RDKit          3D

 36 37  0  0  0  0  0  0  0  0999 V2000
    5.7671   -0.3338   -0.9768 C   0  0  0  0  0  0  0  0  0  0  0  0
    4.3867   -0.1733   -0.5567 N   0  0  0  0  0  0  0  0  0  0  0  0
    3.3333   -0.9941   -0.9195 C   0  0  0  0  0  0  0  0  0  0  0  0
    3.5292   -2.3408   -1.9096 S   0  0  0  0  0  0  0  0  0  0  0  0
    2.1030   -0.6001   -0.3647 N   0  0  0  0  0  0  0  0  0  0  0  0
    2.0062    0.3548    0.7528 C   0  0  0  0  0  0  0  0  0  0  0  0
    0.8069    0.1149    1.6691 C   0  0  0  0  0  0  0  0  0  0  0  0
   -0.4566    0.1197    0.8580 C   0  0  0  0  0  0  0  0  0  0  0  0
   -1.6481    0.6626    1.3547 C   0  0  0  0  0  0  0  0  0  0  0  0
   -2.8126    0.6428    0.5792 C   0  0  0  0  0  0  0  0  0  0  0  0
   -4.0204    1.1596    0.9797 O   0  0  0  0  0  0  0  0  0  0  0  0
   -4.0976    1.7289    2.2781 C   0  0  0  0  0  0  0  0  0  0  0  0
   -2.7844    0.0606   -0.7041 C   0  0  0  0  0  0  0  0  0  0  0  0
   -3.9690    0.0773   -1.3990 O   0  0  0  0  0  0  0  0  0  0  0  0
   -3.9758   -0.4754   -2.7070 C   0  0  0  0  0  0  0  0  0  0  0  0
   -1.5936   -0.4973   -1.1851 C   0  0  0  0  0  0  0  0  0  0  0  0
   -0.4231   -0.4657   -0.4126 C   0  0  0  0  0  0  0  0  0  0  0  0
    0.8381   -1.1346   -0.9088 C   0  0  0  0  0  0  0  0  0  0  0  0
    6.3763    0.3873   -0.4261 H   0  0  0  0  0  0  0  0  0  0  0  0
    6.1150   -1.3462   -0.7567 H   0  0  0  0  0  0  0  0  0  0  0  0
    5.8427   -0.1334   -2.0490 H   0  0  0  0  0  0  0  0  0  0  0  0
    4.1240    0.7796   -0.3535 H   0  0  0  0  0  0  0  0  0  0  0  0
    1.9488    1.3554    0.3056 H   0  0  0  0  0  0  0  0  0  0  0  0
    2.9170    0.3121    1.3598 H   0  0  0  0  0  0  0  0  0  0  0  0
    0.7789    0.8978    2.4355 H   0  0  0  0  0  0  0  0  0  0  0  0
    0.8983   -0.8529    2.1765 H   0  0  0  0  0  0  0  0  0  0  0  0
   -1.6420    1.0975    2.3485 H   0  0  0  0  0  0  0  0  0  0  0  0
   -3.4373    2.5976    2.3684 H   0  0  0  0  0  0  0  0  0  0  0  0
   -3.8809    0.9836    3.0505 H   0  0  0  0  0  0  0  0  0  0  0  0
   -5.1242    2.0756    2.4308 H   0  0  0  0  0  0  0  0  0  0  0  0
   -4.9847   -0.3586   -3.1142 H   0  0  0  0  0  0  0  0  0  0  0  0
   -3.2872    0.0617   -3.3676 H   0  0  0  0  0  0  0  0  0  0  0  0
   -3.7495   -1.5464   -2.6839 H   0  0  0  0  0  0  0  0  0  0  0  0
   -1.5516   -0.9719   -2.1604 H   0  0  0  0  0  0  0  0  0  0  0  0
    0.8829   -1.0472   -2.0010 H   0  0  0  0  0  0  0  0  0  0  0  0
    0.7840   -2.1978   -0.6448 H   0  0  0  0  0  0  0  0  0  0  0  0
  1  2  1  0
  2  3  1  0
  3  4  2  0
  3  5  1  0
  5  6  1  0
  6  7  1  0
  7  8  1  0
  8  9  2  0
  9 10  1  0
 10 11  1  0
 11 12  1  0
 10 13  2  0
 13 14  1  0
 14 15  1  0
 13 16  1  0
 16 17  2  0
 17 18  1  0
 18  5  1  0
 17  8  1  0
  1 19  1  0
  1 20  1  0
  1 21  1  0
  2 22  1  0
  6 23  1  0
  6 24  1  0
  7 25  1  0
  7 26  1  0
  9 27  1  0
 12 28  1  0
 12 29  1  0
 12 30  1  0
 15 31  1  0
 15 32  1  0
 15 33  1  0
 16 34  1  0
 18 35  1  0
 18 36  1  0
M  END
$$$$
