
     RDKit          3D

 45 47  0  0  0  0  0  0  0  0999 V2000
    3.8937    2.6848    4.1425 C   0  0  0  0  0  0  0  0  0  0  0  0
    3.4588    2.0628    2.8482 C   0  0  0  0  0  0  0  0  0  0  0  0
    4.3965    1.7749    1.8493 C   0  0  0  0  0  0  0  0  0  0  0  0
    3.9994    1.1662    0.6545 C   0  0  0  0  0  0  0  0  0  0  0  0
    2.6567    0.8334    0.4493 C   0  0  0  0  0  0  0  0  0  0  0  0
    2.1964    0.1805   -0.8112 C   0  0  0  0  0  0  0  0  0  0  0  0
    1.1304   -0.5625   -0.7879 N   0  0  0  0  0  0  0  0  0  0  0  0
    0.7108   -1.1575   -1.9567 N   0  0  0  0  0  0  0  0  0  0  0  0
   -0.3731   -2.1201   -1.8388 C   0  0  0  0  0  0  0  0  0  0  0  0
   -1.7391   -1.4331   -1.9209 C   0  0  0  0  0  0  0  0  0  0  0  0
   -1.9171   -0.2763   -2.2964 O   0  0  0  0  0  0  0  0  0  0  0  0
   -2.7875   -2.2634   -1.5633 N   0  0  0  0  0  0  0  0  0  0  0  0
   -4.1326   -1.7408   -1.4310 C   0  0  0  0  0  0  0  0  0  0  0  0
   -4.3877   -1.2430   -0.0272 C   0  0  0  0  0  0  0  0  0  0  0  0
   -4.1696    0.0948    0.2959 C   0  0  0  0  0  0  0  0  0  0  0  0
   -4.3767    0.5121    1.6071 C   0  0  0  0  0  0  0  0  0  0  0  0
   -4.7856   -0.4132    2.5593 C   0  0  0  0  0  0  0  0  0  0  0  0
   -4.9645   -1.7270    2.1604 C   0  0  0  0  0  0  0  0  0  0  0  0
   -4.7684   -2.1644    0.8968 N   0  0  0  0  0  0  0  0  0  0  0  0
    1.1558   -0.7970   -3.2233 C   0  0  0  0  0  0  0  0  0  0  0  0
    0.8024   -1.3540   -4.2623 O   0  0  0  0  0  0  0  0  0  0  0  0
    2.0731    0.3941   -3.2531 C   0  0  0  0  0  0  0  0  0  0  0  0
    3.0094    0.3656   -2.0691 C   0  0  0  0  0  0  0  0  0  0  0  0
    1.7209    1.0972    1.4565 C   0  0  0  0  0  0  0  0  0  0  0  0
    2.1205    1.7061    2.6488 C   0  0  0  0  0  0  0  0  0  0  0  0
    4.7540    3.3447    3.9889 H   0  0  0  0  0  0  0  0  0  0  0  0
    3.0911    3.2931    4.5726 H   0  0  0  0  0  0  0  0  0  0  0  0
    4.1692    1.9045    4.8586 H   0  0  0  0  0  0  0  0  0  0  0  0
    5.4464    2.0196    1.9979 H   0  0  0  0  0  0  0  0  0  0  0  0
    4.7583    0.9438   -0.0898 H   0  0  0  0  0  0  0  0  0  0  0  0
   -0.2782   -2.6381   -0.8780 H   0  0  0  0  0  0  0  0  0  0  0  0
   -0.3100   -2.8588   -2.6449 H   0  0  0  0  0  0  0  0  0  0  0  0
   -2.5851   -3.0889   -1.0144 H   0  0  0  0  0  0  0  0  0  0  0  0
   -4.8204   -2.5639   -1.6535 H   0  0  0  0  0  0  0  0  0  0  0  0
   -4.3138   -0.9491   -2.1663 H   0  0  0  0  0  0  0  0  0  0  0  0
   -3.8306    0.7986   -0.4597 H   0  0  0  0  0  0  0  0  0  0  0  0
   -4.2140    1.5504    1.8817 H   0  0  0  0  0  0  0  0  0  0  0  0
   -4.9555   -0.1191    3.5887 H   0  0  0  0  0  0  0  0  0  0  0  0
   -5.2787   -2.4875    2.8695 H   0  0  0  0  0  0  0  0  0  0  0  0
    2.6495    0.3807   -4.1840 H   0  0  0  0  0  0  0  0  0  0  0  0
    1.4518    1.2970   -3.2445 H   0  0  0  0  0  0  0  0  0  0  0  0
    3.5839    1.2959   -2.0417 H   0  0  0  0  0  0  0  0  0  0  0  0
    3.7073   -0.4763   -2.1457 H   0  0  0  0  0  0  0  0  0  0  0  0
    0.6740    0.8335    1.3190 H   0  0  0  0  0  0  0  0  0  0  0  0
    1.3780    1.8991    3.4202 H   0  0  0  0  0  0  0  0  0  0  0  0
  1  2  1  0
  2  3  2  0
  3  4  1  0
  4  5  2  0
  5  6  1  0
  6  7  2  0
  7  8  1  0
  8  9  1  0
  9 10  1  0
 10 11  2  0
 10 12  1  0
 12 13  1  0
 13 14  1  0
 14 15  2  0
 15 16  1  0
 16 17  2  0
 17 18  1  0
 18 19  2  0
  8 20  1  0
 20 21  2  0
 20 22  1  0
 22 23  1  0
  5 24  1  0
 24 25  2  0
 25  2  1  0
 23  6  1  0
 19 14  1  0
  1 26  1  0
  1 27  1  0
  1 28  1  0
  3 29  1  0
  4 30  1  0
  9 31  1  0
  9 32  1  0
 12 33  1  0
 13 34  1  0
 13 35  1  0
 15 36  1  0
 16 37  1  0
 17 38  1  0
 18 39  1  0
 22 40  1  0
 22 41  1  0
 23 42  1  0
 23 43  1  0
 24 44  1  0
 25 45  1  0
M  END
$$$$
