
     RDKit          3D

 39 40  0  0  0  0  0  0  0  0999 V2000
   -4.0913   -2.1706    2.4784 C   0  0  0  0  0  0  0  0  0  0  0  0
   -3.1210   -2.4152    1.3338 C   0  0  0  0  0  0  0  0  0  0  0  0
   -2.6113   -1.1018    0.7415 C   0  0  0  0  0  0  0  0  0  0  0  0
   -1.6336   -1.3535   -0.4081 C   0  0  0  0  0  0  0  0  0  0  0  0
   -1.1654   -0.1036   -0.9637 N   0  0  0  0  0  0  0  0  0  0  0  0
   -1.7942    0.7281   -1.8269 C   0  0  0  0  0  0  0  0  0  0  0  0
   -2.8545    0.2782   -2.5206 N   0  0  0  0  0  0  0  0  0  0  0  0
   -1.3188    1.9295   -1.9730 N   0  0  0  0  0  0  0  0  0  0  0  0
   -0.1948    1.9993   -0.9921 C   0  0  0  0  0  0  0  0  0  0  0  0
    0.0041    0.5758   -0.4198 C   0  0  0  0  0  0  0  0  0  0  0  0
    1.3009   -0.0802   -0.9218 C   0  0  0  0  0  0  0  0  0  0  0  0
    2.5391    0.4716   -0.2523 C   0  0  0  0  0  0  0  0  0  0  0  0
    3.4004    1.3322   -0.9467 C   0  0  0  0  0  0  0  0  0  0  0  0
    4.5373    1.8479   -0.3230 C   0  0  0  0  0  0  0  0  0  0  0  0
    4.8181    1.5032    0.9930 C   0  0  0  0  0  0  0  0  0  0  0  0
    5.9394    2.0298    1.5623 O   0  0  0  0  0  0  0  0  0  0  0  0
    3.9794    0.6479    1.6993 C   0  0  0  0  0  0  0  0  0  0  0  0
    2.8408    0.1323    1.0755 C   0  0  0  0  0  0  0  0  0  0  0  0
   -3.6108   -1.6106    3.2871 H   0  0  0  0  0  0  0  0  0  0  0  0
   -4.9639   -1.6035    2.1387 H   0  0  0  0  0  0  0  0  0  0  0  0
   -4.4432   -3.1230    2.8871 H   0  0  0  0  0  0  0  0  0  0  0  0
   -3.6225   -3.0040    0.5570 H   0  0  0  0  0  0  0  0  0  0  0  0
   -2.2769   -3.0114    1.6994 H   0  0  0  0  0  0  0  0  0  0  0  0
   -3.4605   -0.5043    0.3885 H   0  0  0  0  0  0  0  0  0  0  0  0
   -2.1185   -0.5123    1.5246 H   0  0  0  0  0  0  0  0  0  0  0  0
   -2.1118   -1.9581   -1.1878 H   0  0  0  0  0  0  0  0  0  0  0  0
   -0.7866   -1.9448   -0.0415 H   0  0  0  0  0  0  0  0  0  0  0  0
   -3.2934    1.0438   -3.0212 H   0  0  0  0  0  0  0  0  0  0  0  0
   -3.5273   -0.2294   -1.9663 H   0  0  0  0  0  0  0  0  0  0  0  0
   -0.4755    2.6955   -0.1935 H   0  0  0  0  0  0  0  0  0  0  0  0
    0.6960    2.3949   -1.4879 H   0  0  0  0  0  0  0  0  0  0  0  0
   -0.0315    0.6039    0.6756 H   0  0  0  0  0  0  0  0  0  0  0  0
    1.3832    0.0203   -2.0123 H   0  0  0  0  0  0  0  0  0  0  0  0
    1.2783   -1.1618   -0.7365 H   0  0  0  0  0  0  0  0  0  0  0  0
    3.1927    1.6092   -1.9784 H   0  0  0  0  0  0  0  0  0  0  0  0
    5.2019    2.5158   -0.8637 H   0  0  0  0  0  0  0  0  0  0  0  0
    6.0098    1.6985    2.4722 H   0  0  0  0  0  0  0  0  0  0  0  0
    4.1939    0.3714    2.7266 H   0  0  0  0  0  0  0  0  0  0  0  0
    2.1920   -0.5408    1.6316 H   0  0  0  0  0  0  0  0  0  0  0  0
  1  2  1  0
  2  3  1  0
  3  4  1  0
  4  5  1  0
  5  6  1  0
  6  7  1  0
  6  8  2  0
  8  9  1  0
  9 10  1  0
 10 11  1  0
 11 12  1  0
 12 13  2  0
 13 14  1  0
 14 15  2  0
 15 16  1  0
 15 17  1  0
 17 18  2  0
 10  5  1  0
 18 12  1  0
  1 19  1  0
  1 20  1  0
  1 21  1  0
  2 22  1  0
  2 23  1  0
  3 24  1  0
  3 25  1  0
  4 26  1  0
  4 27  1  0
  7 28  1  0
  7 29  1  0
  9 30  1  0
  9 31  1  0
 10 32  1  0
 11 33  1  0
 11 34  1  0
 13 35  1  0
 14 36  1  0
 16 37  1  0
 17 38  1  0
 18 39  1  0
M  END
$$$$
