
     RDKit          3D

 55 57  0  0  0  0  0  0  0  0999 V2000
    3.4183    0.6414   -1.1924 O   0  0  0  0  0  0  0  0  0  0  0  0
    2.5161    0.6936   -0.3661 C   0  0  0  0  0  0  0  0  0  0  0  0
    2.5630    1.2374    0.9033 N   0  0  0  0  0  0  0  0  0  0  0  0
    3.6738    1.8180    1.5473 C   0  0  0  0  0  0  0  0  0  0  0  0
    3.4586    2.3741    2.8151 C   0  0  0  0  0  0  0  0  0  0  0  0
    4.5068    2.9728    3.5195 C   0  0  0  0  0  0  0  0  0  0  0  0
    5.7814    3.0185    2.9625 C   0  0  0  0  0  0  0  0  0  0  0  0
    6.0064    2.4633    1.7050 C   0  0  0  0  0  0  0  0  0  0  0  0
    4.9568    1.8647    1.0001 C   0  0  0  0  0  0  0  0  0  0  0  0
    1.1516    0.1725   -0.7158 C   0  0  0  0  0  0  0  0  0  0  0  0
    0.5734   -0.7458    0.0785 C   0  0  0  0  0  0  0  0  0  0  0  0
   -0.7567   -1.3649   -0.2570 C   0  0  0  0  0  0  0  0  0  0  0  0
   -0.7800   -2.8677   -0.0195 C   0  0  0  0  0  0  0  0  0  0  0  0
   -1.7804   -3.4338    0.7838 C   0  0  0  0  0  0  0  0  0  0  0  0
   -1.8230   -4.8133    1.0050 C   0  0  0  0  0  0  0  0  0  0  0  0
   -0.8700   -5.6597    0.4214 C   0  0  0  0  0  0  0  0  0  0  0  0
   -0.8964   -7.1474    0.6703 C   0  0  0  0  0  0  0  0  0  0  0  0
   -0.6247   -7.8766   -0.4483 F   0  0  0  0  0  0  0  0  0  0  0  0
    0.0199   -7.5341    1.6004 F   0  0  0  0  0  0  0  0  0  0  0  0
   -2.1002   -7.5985    1.1226 F   0  0  0  0  0  0  0  0  0  0  0  0
    0.1331   -5.0955   -0.3790 C   0  0  0  0  0  0  0  0  0  0  0  0
    0.1754   -3.7167   -0.6002 C   0  0  0  0  0  0  0  0  0  0  0  0
   -1.1714   -1.0331   -1.6969 C   0  0  0  0  0  0  0  0  0  0  0  0
   -0.8198    0.4169   -2.0131 C   0  0  0  0  0  0  0  0  0  0  0  0
   -1.5979    1.2787   -1.1732 O   0  0  0  0  0  0  0  0  0  0  0  0
   -1.4958    2.6450   -1.5728 C   0  0  0  0  0  0  0  0  0  0  0  0
   -2.3479    3.5020   -0.6413 C   0  0  0  0  0  0  0  0  0  0  0  0
   -3.8201    3.0762   -0.5615 C   0  0  0  0  0  0  0  0  0  0  0  0
   -4.5349    3.0350   -1.9077 C   0  0  0  0  0  0  0  0  0  0  0  0
   -4.4073    4.2772   -2.5837 O   0  0  0  0  0  0  0  0  0  0  0  0
    0.5852    0.6493   -1.8805 O   0  0  0  0  0  0  0  0  0  0  0  0
    1.6876    1.2703    1.4105 H   0  0  0  0  0  0  0  0  0  0  0  0
    2.4731    2.3542    3.2725 H   0  0  0  0  0  0  0  0  0  0  0  0
    4.3258    3.4056    4.4994 H   0  0  0  0  0  0  0  0  0  0  0  0
    6.5990    3.4846    3.5052 H   0  0  0  0  0  0  0  0  0  0  0  0
    6.9994    2.4956    1.2640 H   0  0  0  0  0  0  0  0  0  0  0  0
    5.1774    1.4423    0.0251 H   0  0  0  0  0  0  0  0  0  0  0  0
    1.0742   -1.0962    0.9785 H   0  0  0  0  0  0  0  0  0  0  0  0
   -1.4834   -0.9024    0.4262 H   0  0  0  0  0  0  0  0  0  0  0  0
   -2.5380   -2.8042    1.2464 H   0  0  0  0  0  0  0  0  0  0  0  0
   -2.6090   -5.2260    1.6363 H   0  0  0  0  0  0  0  0  0  0  0  0
    0.8893   -5.7312   -0.8381 H   0  0  0  0  0  0  0  0  0  0  0  0
    0.9649   -3.3096   -1.2305 H   0  0  0  0  0  0  0  0  0  0  0  0
   -0.6512   -1.6855   -2.4102 H   0  0  0  0  0  0  0  0  0  0  0  0
   -2.2484   -1.2039   -1.8160 H   0  0  0  0  0  0  0  0  0  0  0  0
   -1.0871    0.6123   -3.0588 H   0  0  0  0  0  0  0  0  0  0  0  0
   -0.4527    2.9738   -1.5075 H   0  0  0  0  0  0  0  0  0  0  0  0
   -1.8248    2.7571   -2.6115 H   0  0  0  0  0  0  0  0  0  0  0  0
   -1.9311    3.4428    0.3714 H   0  0  0  0  0  0  0  0  0  0  0  0
   -2.2774    4.5504   -0.9536 H   0  0  0  0  0  0  0  0  0  0  0  0
   -3.9029    2.0958   -0.0792 H   0  0  0  0  0  0  0  0  0  0  0  0
   -4.3362    3.7927    0.0887 H   0  0  0  0  0  0  0  0  0  0  0  0
   -4.1241    2.2510   -2.5513 H   0  0  0  0  0  0  0  0  0  0  0  0
   -5.6002    2.8227   -1.7701 H   0  0  0  0  0  0  0  0  0  0  0  0
   -4.8180    4.9581   -2.0234 H   0  0  0  0  0  0  0  0  0  0  0  0
  1  2  2  0
  2  3  1  0
  3  4  1  0
  4  5  2  0
  5  6  1  0
  6  7  2  0
  7  8  1  0
  8  9  2  0
  2 10  1  0
 10 11  2  0
 11 12  1  0
 12 13  1  0
 13 14  2  0
 14 15  1  0
 15 16  2  0
 16 17  1  0
 17 18  1  0
 17 19  1  0
 17 20  1  0
 16 21  1  0
 21 22  2  0
 12 23  1  0
 23 24  1  0
 24 25  1  0
 25 26  1  0
 26 27  1  0
 27 28  1  0
 28 29  1  0
 29 30  1  0
 24 31  1  0
  9  4  1  0
 31 10  1  0
 22 13  1  0
  3 32  1  0
  5 33  1  0
  6 34  1  0
  7 35  1  0
  8 36  1  0
  9 37  1  0
 11 38  1  0
 12 39  1  0
 14 40  1  0
 15 41  1  0
 21 42  1  0
 22 43  1  0
 23 44  1  0
 23 45  1  0
 24 46  1  0
 26 47  1  0
 26 48  1  0
 27 49  1  0
 27 50  1  0
 28 51  1  0
 28 52  1  0
 29 53  1  0
 29 54  1  0
 30 55  1  0
M  END
$$$$
