
     RDKit          3D

 37 39  0  0  0  0  0  0  0  0999 V2000
   -1.1061    3.0388    1.4068 C   0  0  0  0  0  0  0  0  0  0  0  0
   -0.2996    1.8744    0.8714 C   0  0  0  0  0  0  0  0  0  0  0  0
    0.9772    2.0929    0.7213 N   0  0  0  0  0  0  0  0  0  0  0  0
    1.7552    1.0701    0.2578 N   0  0  0  0  0  0  0  0  0  0  0  0
    2.0879    0.0005    1.0830 C   0  0  0  0  0  0  0  0  0  0  0  0
    1.5815   -0.2346    2.1756 O   0  0  0  0  0  0  0  0  0  0  0  0
    3.1477   -0.9007    0.5551 C   0  0  0  0  0  0  0  0  0  0  0  0
    3.9623   -1.5824    1.4694 C   0  0  0  0  0  0  0  0  0  0  0  0
    4.9625   -2.4423    1.0134 C   0  0  0  0  0  0  0  0  0  0  0  0
    5.1442   -2.6313   -0.3566 C   0  0  0  0  0  0  0  0  0  0  0  0
    4.3203   -1.9662   -1.2649 C   0  0  0  0  0  0  0  0  0  0  0  0
    4.5384   -2.2188   -2.9532 Cl  0  0  0  0  0  0  0  0  0  0  0  0
    3.3190   -1.1037   -0.8202 C   0  0  0  0  0  0  0  0  0  0  0  0
   -1.0279    0.5990    0.4865 C   0  0  0  0  0  0  0  0  0  0  0  0
   -1.1485    0.4119   -1.0176 C   0  0  0  0  0  0  0  0  0  0  0  0
   -0.2614    0.4030   -1.8531 O   0  0  0  0  0  0  0  0  0  0  0  0
   -2.5549    0.2057   -1.3565 C   0  0  0  0  0  0  0  0  0  0  0  0
   -3.1187   -0.0128   -2.6003 C   0  0  0  0  0  0  0  0  0  0  0  0
   -4.5053   -0.1812   -2.6603 C   0  0  0  0  0  0  0  0  0  0  0  0
   -5.2891   -0.1279   -1.4911 C   0  0  0  0  0  0  0  0  0  0  0  0
   -4.6987    0.0946   -0.2436 C   0  0  0  0  0  0  0  0  0  0  0  0
   -3.3258    0.2571   -0.2068 C   0  0  0  0  0  0  0  0  0  0  0  0
   -2.4696    0.5067    0.9502 C   0  0  0  0  0  0  0  0  0  0  0  0
   -2.9009    0.6207    2.0829 O   0  0  0  0  0  0  0  0  0  0  0  0
   -0.4837    3.9359    1.4788 H   0  0  0  0  0  0  0  0  0  0  0  0
   -1.4806    2.7988    2.4048 H   0  0  0  0  0  0  0  0  0  0  0  0
   -1.9429    3.2513    0.7363 H   0  0  0  0  0  0  0  0  0  0  0  0
    2.4954    1.3902   -0.3617 H   0  0  0  0  0  0  0  0  0  0  0  0
    3.8184   -1.4415    2.5398 H   0  0  0  0  0  0  0  0  0  0  0  0
    5.5956   -2.9661    1.7259 H   0  0  0  0  0  0  0  0  0  0  0  0
    5.9225   -3.3037   -0.7093 H   0  0  0  0  0  0  0  0  0  0  0  0
    2.6660   -0.6218   -1.5443 H   0  0  0  0  0  0  0  0  0  0  0  0
   -0.5271   -0.2845    0.8886 H   0  0  0  0  0  0  0  0  0  0  0  0
   -2.5055   -0.0521   -3.4958 H   0  0  0  0  0  0  0  0  0  0  0  0
   -4.9867   -0.3560   -3.6212 H   0  0  0  0  0  0  0  0  0  0  0  0
   -6.3674   -0.2619   -1.5616 H   0  0  0  0  0  0  0  0  0  0  0  0
   -5.2938    0.1380    0.6639 H   0  0  0  0  0  0  0  0  0  0  0  0
  1  2  1  0
  2  3  2  3
  3  4  1  0
  4  5  1  0
  5  6  2  0
  5  7  1  0
  7  8  2  0
  8  9  1  0
  9 10  2  0
 10 11  1  0
 11 12  1  0
 11 13  2  0
  2 14  1  0
 14 15  1  0
 15 16  2  0
 15 17  1  0
 17 18  2  0
 18 19  1  0
 19 20  2  0
 20 21  1  0
 21 22  2  0
 22 23  1  0
 23 24  2  0
 13  7  1  0
 23 14  1  0
 22 17  1  0
  1 25  1  0
  1 26  1  0
  1 27  1  0
  4 28  1  0
  8 29  1  0
  9 30  1  0
 10 31  1  0
 13 32  1  0
 14 33  1  0
 18 34  1  0
 19 35  1  0
 20 36  1  0
 21 37  1  0
M  END
$$$$
