
     RDKit          3D

 63 67  0  0  0  0  0  0  0  0999 V2000
   -3.5078   -0.4007    8.3588 Cl  0  0  0  0  0  0  0  0  0  0  0  0
   -3.2656   -0.2678    6.6612 C   0  0  0  0  0  0  0  0  0  0  0  0
   -1.9971   -0.4812    6.1189 C   0  0  0  0  0  0  0  0  0  0  0  0
   -1.7973   -0.3695    4.7383 C   0  0  0  0  0  0  0  0  0  0  0  0
   -2.8653   -0.0377    3.8841 C   0  0  0  0  0  0  0  0  0  0  0  0
   -2.7021    0.0820    2.3732 C   0  0  0  0  0  0  0  0  0  0  0  0
   -2.9610   -1.1878    1.5715 C   0  0  0  0  0  0  0  0  0  0  0  0
   -3.3771   -1.0698    0.2307 C   0  0  0  0  0  0  0  0  0  0  0  0
   -3.6244   -2.2034   -0.5487 C   0  0  0  0  0  0  0  0  0  0  0  0
   -3.4513   -3.4693   -0.0034 C   0  0  0  0  0  0  0  0  0  0  0  0
   -3.7439   -4.8633   -0.9624 Cl  0  0  0  0  0  0  0  0  0  0  0  0
   -3.0328   -3.6108    1.3178 C   0  0  0  0  0  0  0  0  0  0  0  0
   -2.7865   -2.4786    2.1009 C   0  0  0  0  0  0  0  0  0  0  0  0
   -1.3772    0.6570    2.0419 N   0  0  0  0  0  0  0  0  0  0  0  0
   -0.9736    1.9507    2.3637 C   0  0  0  0  0  0  0  0  0  0  0  0
    0.2849    2.1144    1.8597 C   0  0  0  0  0  0  0  0  0  0  0  0
    0.6043    0.9385    1.2039 N   0  0  0  0  0  4  0  0  0  0  0  0
    1.8320    0.6775    0.4292 C   0  0  0  0  0  0  0  0  0  0  0  0
    1.8121    1.2740   -1.0023 C   0  0  0  0  0  0  0  0  0  0  0  0
    3.0506    0.9163   -1.6390 O   0  0  0  0  0  0  0  0  0  0  0  0
    3.4027    1.7999   -2.7074 C   0  0  0  0  0  0  0  0  0  0  0  0
    4.5255    1.1748   -3.4942 C   0  0  0  0  0  0  0  0  0  0  0  0
    5.8510    1.3921   -3.0771 C   0  0  0  0  0  0  0  0  0  0  0  0
    6.9235    0.8330   -3.7764 C   0  0  0  0  0  0  0  0  0  0  0  0
    6.6812    0.0448   -4.8978 C   0  0  0  0  0  0  0  0  0  0  0  0
    8.0032   -0.6380   -5.7608 Cl  0  0  0  0  0  0  0  0  0  0  0  0
    5.3795   -0.1994   -5.3175 C   0  0  0  0  0  0  0  0  0  0  0  0
    4.3063    0.3630   -4.6197 C   0  0  0  0  0  0  0  0  0  0  0  0
    2.7171    0.0242   -5.2056 Cl  0  0  0  0  0  0  0  0  0  0  0  0
    0.6359    0.7288   -1.8010 C   0  0  0  0  0  0  0  0  0  0  0  0
    0.7015   -0.5798   -2.3185 C   0  0  0  0  0  0  0  0  0  0  0  0
   -0.3535   -1.1113   -3.0617 C   0  0  0  0  0  0  0  0  0  0  0  0
   -1.4890   -0.3430   -3.2980 C   0  0  0  0  0  0  0  0  0  0  0  0
   -2.7840   -0.9932   -4.2211 Cl  0  0  0  0  0  0  0  0  0  0  0  0
   -1.5855    0.9468   -2.7866 C   0  0  0  0  0  0  0  0  0  0  0  0
   -0.5310    1.4787   -2.0406 C   0  0  0  0  0  0  0  0  0  0  0  0
   -0.7407    3.0766   -1.4191 Cl  0  0  0  0  0  0  0  0  0  0  0  0
   -0.3960    0.0529    1.3533 C   0  0  0  0  0  0  0  0  0  0  0  0
   -4.1402    0.1610    4.4523 C   0  0  0  0  0  0  0  0  0  0  0  0
   -4.3382    0.0510    5.8329 C   0  0  0  0  0  0  0  0  0  0  0  0
   -1.1607   -0.7385    6.7676 H   0  0  0  0  0  0  0  0  0  0  0  0
   -0.7981   -0.5555    4.3446 H   0  0  0  0  0  0  0  0  0  0  0  0
   -3.4303    0.8327    2.0296 H   0  0  0  0  0  0  0  0  0  0  0  0
   -3.5258   -0.0906   -0.2205 H   0  0  0  0  0  0  0  0  0  0  0  0
   -3.9686   -2.0951   -1.5752 H   0  0  0  0  0  0  0  0  0  0  0  0
   -2.9137   -4.6033    1.7498 H   0  0  0  0  0  0  0  0  0  0  0  0
   -2.4797   -2.6378    3.1347 H   0  0  0  0  0  0  0  0  0  0  0  0
   -1.6393    2.5878    2.9219 H   0  0  0  0  0  0  0  0  0  0  0  0
    0.9893    2.9289    1.8623 H   0  0  0  0  0  0  0  0  0  0  0  0
    2.6831    1.0886    0.9893 H   0  0  0  0  0  0  0  0  0  0  0  0
    1.9909   -0.4097    0.3957 H   0  0  0  0  0  0  0  0  0  0  0  0
    1.7757    2.3662   -0.9149 H   0  0  0  0  0  0  0  0  0  0  0  0
    2.5425    2.0270   -3.3484 H   0  0  0  0  0  0  0  0  0  0  0  0
    3.7326    2.7546   -2.2794 H   0  0  0  0  0  0  0  0  0  0  0  0
    6.0564    2.0044   -2.2004 H   0  0  0  0  0  0  0  0  0  0  0  0
    7.9414    1.0235   -3.4493 H   0  0  0  0  0  0  0  0  0  0  0  0
    5.1971   -0.8153   -6.1934 H   0  0  0  0  0  0  0  0  0  0  0  0
    1.5995   -1.1857   -2.1791 H   0  0  0  0  0  0  0  0  0  0  0  0
   -0.2742   -2.1141   -3.4750 H   0  0  0  0  0  0  0  0  0  0  0  0
   -2.4772    1.5398   -2.9810 H   0  0  0  0  0  0  0  0  0  0  0  0
   -0.3984   -0.9587    0.9630 H   0  0  0  0  0  0  0  0  0  0  0  0
   -4.9994    0.3991    3.8251 H   0  0  0  0  0  0  0  0  0  0  0  0
   -5.3332    0.2181    6.2526 H   0  0  0  0  0  0  0  0  0  0  0  0
  1  2  1  0
  2  3  2  0
  3  4  1  0
  4  5  2  0
  5  6  1  0
  6  7  1  0
  7  8  2  0
  8  9  1  0
  9 10  2  0
 10 11  1  0
 10 12  1  0
 12 13  2  0
  6 14  1  0
 14 15  1  0
 15 16  2  0
 16 17  1  0
 17 18  1  0
 18 19  1  0
 19 20  1  0
 20 21  1  0
 21 22  1  0
 22 23  2  0
 23 24  1  0
 24 25  2  0
 25 26  1  0
 25 27  1  0
 27 28  2  0
 28 29  1  0
 19 30  1  0
 30 31  2  0
 31 32  1  0
 32 33  2  0
 33 34  1  0
 33 35  1  0
 35 36  2  0
 36 37  1  0
 17 38  2  0
  5 39  1  0
 39 40  2  0
 40  2  1  0
 13  7  1  0
 38 14  1  0
 28 22  1  0
 36 30  1  0
  3 41  1  0
  4 42  1  0
  6 43  1  0
  8 44  1  0
  9 45  1  0
 12 46  1  0
 13 47  1  0
 15 48  1  0
 16 49  1  0
 18 50  1  0
 18 51  1  0
 19 52  1  0
 21 53  1  0
 21 54  1  0
 23 55  1  0
 24 56  1  0
 27 57  1  0
 31 58  1  0
 32 59  1  0
 35 60  1  0
 38 61  1  0
 39 62  1  0
 40 63  1  0
M  CHG  1  17   1
M  END
$$$$
