
     RDKit          3D

 37 39  0  0  0  0  0  0  0  0999 V2000
   -2.2569   -3.1846   -3.0103 C   0  0  0  0  0  0  0  0  0  0  0  0
   -3.0570   -2.0164   -3.1181 O   0  0  0  0  0  0  0  0  0  0  0  0
   -2.6352   -0.8953   -2.4546 C   0  0  0  0  0  0  0  0  0  0  0  0
   -1.4585   -0.7966   -1.7077 C   0  0  0  0  0  0  0  0  0  0  0  0
   -1.1177    0.4031   -1.0597 C   0  0  0  0  0  0  0  0  0  0  0  0
    0.1305    0.5346   -0.2911 C   0  0  0  0  0  0  0  0  0  0  0  0
    0.5344   -0.3847    0.6010 C   0  0  0  0  0  0  0  0  0  0  0  0
    1.7300   -0.3134    1.3801 C   0  0  0  0  0  0  0  0  0  0  0  0
    2.0843   -1.2502    2.2393 N   0  0  0  0  0  0  0  0  0  0  0  0
    3.2810   -0.9367    2.8595 C   0  0  0  0  0  0  0  0  0  0  0  0
    3.9405   -1.7192    3.8290 C   0  0  0  0  0  0  0  0  0  0  0  0
    5.1508   -1.2775    4.3737 C   0  0  0  0  0  0  0  0  0  0  0  0
    5.7077   -0.0702    3.9643 C   0  0  0  0  0  0  0  0  0  0  0  0
    5.0719    0.7232    3.0041 C   0  0  0  0  0  0  0  0  0  0  0  0
    3.8568    0.2683    2.4649 C   0  0  0  0  0  0  0  0  0  0  0  0
    2.8489    1.0043    1.2861 S   0  0  0  0  0  0  0  0  0  0  0  0
   -1.9536    1.5234   -1.1829 C   0  0  0  0  0  0  0  0  0  0  0  0
   -3.1316    1.4422   -1.9240 C   0  0  0  0  0  0  0  0  0  0  0  0
   -4.0370    2.4564   -2.1147 O   0  0  0  0  0  0  0  0  0  0  0  0
   -3.7549    3.6963   -1.4760 C   0  0  0  0  0  0  0  0  0  0  0  0
   -3.4594    0.2316   -2.5512 C   0  0  0  0  0  0  0  0  0  0  0  0
   -4.6229    0.1616   -3.2808 O   0  0  0  0  0  0  0  0  0  0  0  0
   -1.2667   -3.0263   -3.4500 H   0  0  0  0  0  0  0  0  0  0  0  0
   -2.7485   -3.9808   -3.5776 H   0  0  0  0  0  0  0  0  0  0  0  0
   -2.1796   -3.5170   -1.9698 H   0  0  0  0  0  0  0  0  0  0  0  0
   -0.7830   -1.6421   -1.6265 H   0  0  0  0  0  0  0  0  0  0  0  0
    0.6928    1.4437   -0.4857 H   0  0  0  0  0  0  0  0  0  0  0  0
   -0.0730   -1.2678    0.7839 H   0  0  0  0  0  0  0  0  0  0  0  0
    3.5015   -2.6604    4.1448 H   0  0  0  0  0  0  0  0  0  0  0  0
    5.6566   -1.8841    5.1213 H   0  0  0  0  0  0  0  0  0  0  0  0
    6.6498    0.2624    4.3955 H   0  0  0  0  0  0  0  0  0  0  0  0
    5.5073    1.6652    2.6851 H   0  0  0  0  0  0  0  0  0  0  0  0
   -1.6672    2.4438   -0.6843 H   0  0  0  0  0  0  0  0  0  0  0  0
   -4.5686    4.3876   -1.7154 H   0  0  0  0  0  0  0  0  0  0  0  0
   -2.8250    4.1324   -1.8556 H   0  0  0  0  0  0  0  0  0  0  0  0
   -3.7244    3.5818   -0.3875 H   0  0  0  0  0  0  0  0  0  0  0  0
   -5.0242    1.0476   -3.2090 H   0  0  0  0  0  0  0  0  0  0  0  0
  1  2  1  0
  2  3  1  0
  3  4  2  0
  4  5  1  0
  5  6  1  0
  6  7  2  3
  7  8  1  0
  8  9  2  0
  9 10  1  0
 10 11  2  0
 11 12  1  0
 12 13  2  0
 13 14  1  0
 14 15  2  0
 15 16  1  0
  5 17  2  0
 17 18  1  0
 18 19  1  0
 19 20  1  0
 18 21  2  0
 21 22  1  0
 21  3  1  0
 16  8  1  0
 15 10  1  0
  1 23  1  0
  1 24  1  0
  1 25  1  0
  4 26  1  0
  6 27  1  0
  7 28  1  0
 11 29  1  0
 12 30  1  0
 13 31  1  0
 14 32  1  0
 17 33  1  0
 20 34  1  0
 20 35  1  0
 20 36  1  0
 22 37  1  0
M  END
$$$$
