
     RDKit          3D

 61 65  0  0  0  0  0  0  0  0999 V2000
   -6.2091   -3.2916   -1.4074 C   0  0  0  0  0  0  0  0  0  0  0  0
   -5.5640   -2.5959   -2.5160 N   0  0  0  0  0  0  0  0  0  0  0  0
   -4.9380   -3.5380   -3.4399 C   0  0  0  0  0  0  0  0  0  0  0  0
   -4.6335   -1.5456   -2.0639 C   0  0  0  0  0  0  0  0  0  0  0  0
   -3.4084   -1.9896   -1.2349 C   0  0  0  0  0  0  0  0  0  0  0  0
   -2.5714   -0.8543   -0.8229 N   0  0  0  0  0  0  0  0  0  0  0  0
   -1.5358   -0.4956   -1.6883 C   0  0  0  0  0  0  0  0  0  0  0  0
   -1.5342   -0.7845   -2.8855 O   0  0  0  0  0  0  0  0  0  0  0  0
   -0.2886    0.1104   -1.1500 C   0  0  0  0  0  0  0  0  0  0  0  0
    0.3486    1.1123   -1.8952 C   0  0  0  0  0  0  0  0  0  0  0  0
    1.5332    1.6836   -1.4281 C   0  0  0  0  0  0  0  0  0  0  0  0
    2.0872    1.2271   -0.2285 C   0  0  0  0  0  0  0  0  0  0  0  0
    3.5976    1.9427    0.3937 S   0  0  0  0  0  6  0  0  0  0  0  0
    4.0237    2.9615   -0.5447 O   0  0  0  0  0  0  0  0  0  0  0  0
    3.3481    2.2564    1.7852 O   0  0  0  0  0  0  0  0  0  0  0  0
    4.6756    0.6227    0.2765 N   0  0  0  0  0  0  0  0  0  0  0  0
    4.9738    0.1466   -1.1205 C   0  0  0  0  0  0  0  0  0  0  0  0
    6.4633    0.4200   -1.3819 C   0  0  0  0  0  0  0  0  0  0  0  0
    6.9898    0.6593   -0.0079 C   0  0  0  0  0  0  0  0  0  0  0  0
    8.3117    0.7823    0.3902 C   0  0  0  0  0  0  0  0  0  0  0  0
    8.5762    1.0519    1.7352 C   0  0  0  0  0  0  0  0  0  0  0  0
    7.5257    1.2007    2.6539 C   0  0  0  0  0  0  0  0  0  0  0  0
    6.1970    1.0850    2.2380 C   0  0  0  0  0  0  0  0  0  0  0  0
    5.9499    0.8254    0.9016 C   0  0  0  0  0  0  0  0  0  0  0  0
    1.4683    0.2140    0.5123 C   0  0  0  0  0  0  0  0  0  0  0  0
    0.2828   -0.3540    0.0443 C   0  0  0  0  0  0  0  0  0  0  0  0
   -2.9853   -0.0842    0.2668 C   0  0  0  0  0  0  0  0  0  0  0  0
   -3.8106   -0.5347    1.1848 N   0  0  0  0  0  0  0  0  0  0  0  0
   -4.0952    0.4554    2.1069 C   0  0  0  0  0  0  0  0  0  0  0  0
   -4.9110    0.3129    3.2482 C   0  0  0  0  0  0  0  0  0  0  0  0
   -5.1113    1.4066    4.0958 C   0  0  0  0  0  0  0  0  0  0  0  0
   -4.5112    2.6243    3.8090 C   0  0  0  0  0  0  0  0  0  0  0  0
   -4.7174    3.6612    4.6315 F   0  0  0  0  0  0  0  0  0  0  0  0
   -3.7031    2.8010    2.6883 C   0  0  0  0  0  0  0  0  0  0  0  0
   -3.5079    1.6948    1.8475 C   0  0  0  0  0  0  0  0  0  0  0  0
   -2.5906    1.5757    0.4004 S   0  0  0  0  0  0  0  0  0  0  0  0
   -6.6887   -2.5783   -0.7281 H   0  0  0  0  0  0  0  0  0  0  0  0
   -7.0018   -3.9485   -1.7822 H   0  0  0  0  0  0  0  0  0  0  0  0
   -5.5094   -3.9044   -0.8296 H   0  0  0  0  0  0  0  0  0  0  0  0
   -4.4797   -3.0092   -4.2818 H   0  0  0  0  0  0  0  0  0  0  0  0
   -5.6910   -4.2093   -3.8660 H   0  0  0  0  0  0  0  0  0  0  0  0
   -4.1720   -4.1543   -2.9592 H   0  0  0  0  0  0  0  0  0  0  0  0
   -5.2088   -0.8095   -1.4878 H   0  0  0  0  0  0  0  0  0  0  0  0
   -4.2874   -0.9900   -2.9460 H   0  0  0  0  0  0  0  0  0  0  0  0
   -2.7882   -2.6763   -1.8233 H   0  0  0  0  0  0  0  0  0  0  0  0
   -3.7138   -2.5385   -0.3375 H   0  0  0  0  0  0  0  0  0  0  0  0
   -0.0829    1.4504   -2.8357 H   0  0  0  0  0  0  0  0  0  0  0  0
    2.0131    2.4732   -2.0017 H   0  0  0  0  0  0  0  0  0  0  0  0
    4.7729   -0.9313   -1.1469 H   0  0  0  0  0  0  0  0  0  0  0  0
    4.3500    0.6090   -1.8891 H   0  0  0  0  0  0  0  0  0  0  0  0
    6.9432   -0.4304   -1.8735 H   0  0  0  0  0  0  0  0  0  0  0  0
    6.5904    1.3192   -1.9931 H   0  0  0  0  0  0  0  0  0  0  0  0
    9.1246    0.6770   -0.3205 H   0  0  0  0  0  0  0  0  0  0  0  0
    9.6048    1.1501    2.0756 H   0  0  0  0  0  0  0  0  0  0  0  0
    7.7457    1.4058    3.6996 H   0  0  0  0  0  0  0  0  0  0  0  0
    5.3896    1.1884    2.9552 H   0  0  0  0  0  0  0  0  0  0  0  0
    1.9080   -0.1326    1.4458 H   0  0  0  0  0  0  0  0  0  0  0  0
   -0.1836   -1.1562    0.6110 H   0  0  0  0  0  0  0  0  0  0  0  0
   -5.3774   -0.6446    3.4598 H   0  0  0  0  0  0  0  0  0  0  0  0
   -5.7361    1.3116    4.9786 H   0  0  0  0  0  0  0  0  0  0  0  0
   -3.2473    3.7627    2.4819 H   0  0  0  0  0  0  0  0  0  0  0  0
  1  2  1  0
  2  3  1  0
  2  4  1  0
  4  5  1  0
  5  6  1  0
  6  7  1  0
  7  8  2  0
  7  9  1  0
  9 10  2  0
 10 11  1  0
 11 12  2  0
 12 13  1  0
 13 14  2  0
 13 15  2  0
 13 16  1  0
 16 17  1  0
 17 18  1  0
 18 19  1  0
 19 20  2  0
 20 21  1  0
 21 22  2  0
 22 23  1  0
 23 24  2  0
 12 25  1  0
 25 26  2  0
  6 27  1  0
 27 28  2  0
 28 29  1  0
 29 30  2  0
 30 31  1  0
 31 32  2  0
 32 33  1  0
 32 34  1  0
 34 35  2  0
 35 36  1  0
 26  9  1  0
 36 27  1  0
 24 16  1  0
 35 29  1  0
 24 19  1  0
  1 37  1  0
  1 38  1  0
  1 39  1  0
  3 40  1  0
  3 41  1  0
  3 42  1  0
  4 43  1  0
  4 44  1  0
  5 45  1  0
  5 46  1  0
 10 47  1  0
 11 48  1  0
 17 49  1  0
 17 50  1  0
 18 51  1  0
 18 52  1  0
 20 53  1  0
 21 54  1  0
 22 55  1  0
 23 56  1  0
 25 57  1  0
 26 58  1  0
 30 59  1  0
 31 60  1  0
 34 61  1  0
M  END
$$$$
