
     RDKit          3D

 66 70  0  0  0  0  0  0  0  0999 V2000
    3.1321    0.5142    1.9536 C   0  0  0  0  0  0  0  0  0  0  0  0
    2.8999    0.7430    0.5030 C   0  0  0  0  0  0  0  0  0  0  0  0
    2.2658    1.8268   -0.0832 C   0  0  0  0  0  0  0  0  0  0  0  0
    1.6524    3.0443    0.5550 C   0  0  0  0  0  0  0  0  0  0  0  0
    0.2984    2.7638    1.2128 C   0  0  0  0  0  0  0  0  0  0  0  0
   -0.7265    2.5638    0.2262 O   0  0  0  0  0  0  0  0  0  0  0  0
   -1.0023    1.2770   -0.1236 C   0  0  0  0  0  0  0  0  0  0  0  0
   -0.3903    0.2960    0.2847 O   0  0  0  0  0  0  0  0  0  0  0  0
   -2.1453    1.2497   -1.1162 C   0  0  0  0  0  0  0  0  0  0  0  0
   -3.3115    0.3041   -0.7585 C   0  0  0  0  0  0  0  0  0  0  0  0
   -2.9273   -1.1834   -0.9551 C   0  0  0  0  0  0  0  0  0  0  0  0
   -4.1239   -2.1017   -0.6484 C   0  0  0  0  0  0  0  0  0  0  0  0
   -4.5758   -1.8783    0.8023 C   0  0  0  0  0  0  0  0  0  0  0  0
   -4.9949   -0.4132    1.0030 C   0  0  0  0  0  0  0  0  0  0  0  0
   -6.1522   -0.0770    0.0482 C   0  0  0  0  0  0  0  0  0  0  0  0
   -5.7160   -0.2929   -1.4176 C   0  0  0  0  0  0  0  0  0  0  0  0
   -6.8705    0.0412   -2.3679 C   0  0  0  0  0  0  0  0  0  0  0  0
   -5.2832   -1.7633   -1.5996 C   0  0  0  0  0  0  0  0  0  0  0  0
   -4.5015    0.6172   -1.7090 C   0  0  0  0  0  0  0  0  0  0  0  0
   -3.7972    0.5046    0.6976 C   0  0  0  0  0  0  0  0  0  0  0  0
    2.2255    1.6345   -1.7891 S   0  0  0  0  0  0  0  0  0  0  0  0
    3.0003    0.1183   -1.6943 C   0  0  0  0  0  0  0  0  0  0  0  0
    3.3311   -0.1781   -0.4497 N   0  0  0  0  0  4  0  0  0  0  0  0
    4.0661   -1.4172   -0.1637 C   0  0  0  0  0  0  0  0  0  0  0  0
    5.5040   -1.1302    0.2336 C   0  0  0  0  0  0  0  0  0  0  0  0
    6.1221   -1.9377    1.2063 C   0  0  0  0  0  0  0  0  0  0  0  0
    7.4570   -1.7281    1.5723 C   0  0  0  0  0  0  0  0  0  0  0  0
    8.1915   -0.7074    0.9597 C   0  0  0  0  0  0  0  0  0  0  0  0
    9.5914   -0.4826    1.3418 N   0  0  0  0  0  4  0  0  0  0  0  0
   10.1146   -1.3062    2.1034 O   0  0  0  0  0  0  0  0  0  0  0  0
   10.1537    0.5197    0.8809 O   0  0  0  0  0  1  0  0  0  0  0  0
    7.6004    0.0956   -0.0226 C   0  0  0  0  0  0  0  0  0  0  0  0
    6.2669   -0.1241   -0.3888 C   0  0  0  0  0  0  0  0  0  0  0  0
    3.4277   -0.5066    2.2024 H   0  0  0  0  0  0  0  0  0  0  0  0
    3.8938    1.2049    2.3279 H   0  0  0  0  0  0  0  0  0  0  0  0
    2.2085    0.6995    2.5083 H   0  0  0  0  0  0  0  0  0  0  0  0
    2.3495    3.4220    1.3133 H   0  0  0  0  0  0  0  0  0  0  0  0
    1.5359    3.8403   -0.1904 H   0  0  0  0  0  0  0  0  0  0  0  0
   -0.0083    3.6414    1.7941 H   0  0  0  0  0  0  0  0  0  0  0  0
    0.3374    1.9247    1.9186 H   0  0  0  0  0  0  0  0  0  0  0  0
   -1.7234    0.9993   -2.0962 H   0  0  0  0  0  0  0  0  0  0  0  0
   -2.5344    2.2729   -1.2052 H   0  0  0  0  0  0  0  0  0  0  0  0
   -2.0918   -1.4586   -0.3020 H   0  0  0  0  0  0  0  0  0  0  0  0
   -2.5947   -1.3523   -1.9861 H   0  0  0  0  0  0  0  0  0  0  0  0
   -3.8273   -3.1479   -0.7859 H   0  0  0  0  0  0  0  0  0  0  0  0
   -5.4155   -2.5430    1.0407 H   0  0  0  0  0  0  0  0  0  0  0  0
   -3.7603   -2.1360    1.4902 H   0  0  0  0  0  0  0  0  0  0  0  0
   -5.3158   -0.2621    2.0394 H   0  0  0  0  0  0  0  0  0  0  0  0
   -6.4712    0.9620    0.2019 H   0  0  0  0  0  0  0  0  0  0  0  0
   -7.0204   -0.7077    0.2809 H   0  0  0  0  0  0  0  0  0  0  0  0
   -7.7437   -0.5887   -2.1613 H   0  0  0  0  0  0  0  0  0  0  0  0
   -6.5813   -0.1189   -3.4139 H   0  0  0  0  0  0  0  0  0  0  0  0
   -7.1810    1.0886   -2.2630 H   0  0  0  0  0  0  0  0  0  0  0  0
   -4.9740   -1.9424   -2.6384 H   0  0  0  0  0  0  0  0  0  0  0  0
   -6.1309   -2.4329   -1.4044 H   0  0  0  0  0  0  0  0  0  0  0  0
   -4.1841    0.4935   -2.7527 H   0  0  0  0  0  0  0  0  0  0  0  0
   -4.7995    1.6684   -1.5994 H   0  0  0  0  0  0  0  0  0  0  0  0
   -2.9928    0.2846    1.4099 H   0  0  0  0  0  0  0  0  0  0  0  0
   -4.0843    1.5499    0.8598 H   0  0  0  0  0  0  0  0  0  0  0  0
    3.2158   -0.4947   -2.5602 H   0  0  0  0  0  0  0  0  0  0  0  0
    3.5324   -1.9695    0.6186 H   0  0  0  0  0  0  0  0  0  0  0  0
    4.0781   -2.0608   -1.0510 H   0  0  0  0  0  0  0  0  0  0  0  0
    5.5768   -2.7477    1.6952 H   0  0  0  0  0  0  0  0  0  0  0  0
    7.9090   -2.3704    2.3259 H   0  0  0  0  0  0  0  0  0  0  0  0
    8.1659    0.8863   -0.5136 H   0  0  0  0  0  0  0  0  0  0  0  0
    5.8492    0.5094   -1.1694 H   0  0  0  0  0  0  0  0  0  0  0  0
  1  2  1  0
  2  3  2  0
  3  4  1  0
  4  5  1  0
  5  6  1  0
  6  7  1  0
  7  8  2  0
  7  9  1  0
  9 10  1  0
 10 11  1  0
 11 12  1  0
 12 13  1  0
 13 14  1  0
 14 15  1  0
 15 16  1  0
 16 17  1  0
 16 18  1  0
 16 19  1  0
 14 20  1  0
  3 21  1  0
 21 22  1  0
 22 23  2  0
 23 24  1  0
 24 25  1  0
 25 26  2  0
 26 27  1  0
 27 28  2  0
 28 29  1  0
 29 30  2  0
 29 31  1  0
 28 32  1  0
 32 33  2  0
 23  2  1  0
 33 25  1  0
 19 10  1  0
 20 10  1  0
 18 12  1  0
  1 34  1  0
  1 35  1  0
  1 36  1  0
  4 37  1  0
  4 38  1  0
  5 39  1  0
  5 40  1  0
  9 41  1  0
  9 42  1  0
 11 43  1  0
 11 44  1  0
 12 45  1  0
 13 46  1  0
 13 47  1  0
 14 48  1  0
 15 49  1  0
 15 50  1  0
 17 51  1  0
 17 52  1  0
 17 53  1  0
 18 54  1  0
 18 55  1  0
 19 56  1  0
 19 57  1  0
 20 58  1  0
 20 59  1  0
 22 60  1  0
 24 61  1  0
 24 62  1  0
 26 63  1  0
 27 64  1  0
 32 65  1  0
 33 66  1  0
M  CHG  3  23   1  29   1  31  -1
M  END
$$$$
