
     RDKit          3D

 47 50  0  0  0  0  0  0  0  0999 V2000
    6.6899    1.9934    2.4136 C   0  0  0  0  0  0  0  0  0  0  0  0
    5.4085    1.4360    1.8456 C   0  0  0  0  0  0  0  0  0  0  0  0
    4.3690    1.4700    2.4905 O   0  0  0  0  0  0  0  0  0  0  0  0
    5.5960    0.9088    0.5806 N   0  0  0  0  0  0  0  0  0  0  0  0
    4.6310    0.3200   -0.2649 C   0  0  0  0  0  0  0  0  0  0  0  0
    5.0999   -0.2070   -1.4751 C   0  0  0  0  0  0  0  0  0  0  0  0
    4.2243   -0.8178   -2.3701 C   0  0  0  0  0  0  0  0  0  0  0  0
    2.8681   -0.9011   -2.0638 C   0  0  0  0  0  0  0  0  0  0  0  0
    2.3743   -0.3684   -0.8664 C   0  0  0  0  0  0  0  0  0  0  0  0
    0.9866   -0.5001   -0.6434 N   0  0  0  0  0  0  0  0  0  0  0  0
    0.2510    0.0108    0.4071 C   0  0  0  0  0  0  0  0  0  0  0  0
    0.6232    0.7507    1.3048 O   0  0  0  0  0  0  0  0  0  0  0  0
   -1.1847   -0.3489    0.3655 C   0  0  0  0  0  0  0  0  0  0  0  0
   -2.0838    0.7164    0.2800 C   0  0  0  0  0  0  0  0  0  0  0  0
   -3.4357    0.4361    0.1889 C   0  0  0  0  0  0  0  0  0  0  0  0
   -4.4795    1.4729    0.0815 C   0  0  0  0  0  0  0  0  0  0  0  0
   -5.7983    1.2344    0.5009 C   0  0  0  0  0  0  0  0  0  0  0  0
   -6.7757    2.2237    0.3943 C   0  0  0  0  0  0  0  0  0  0  0  0
   -6.4135    3.4460   -0.1396 C   0  0  0  0  0  0  0  0  0  0  0  0
   -5.1672    3.7306   -0.5665 N   0  0  0  0  0  0  0  0  0  0  0  0
   -4.2417    2.7439   -0.4470 C   0  0  0  0  0  0  0  0  0  0  0  0
   -3.8842   -0.8457    0.1934 N   0  0  0  0  0  0  0  0  0  0  0  0
   -3.0215   -1.8678    0.3115 C   0  0  0  0  0  0  0  0  0  0  0  0
   -3.5329   -3.1589    0.3373 C   0  0  0  0  0  0  0  0  0  0  0  0
   -2.7088   -4.2789    0.4745 C   0  0  0  0  0  0  0  0  0  0  0  0
   -1.3389   -4.1047    0.5972 C   0  0  0  0  0  0  0  0  0  0  0  0
   -0.3114   -5.4702    0.7769 Cl  0  0  0  0  0  0  0  0  0  0  0  0
   -0.7962   -2.8228    0.5728 C   0  0  0  0  0  0  0  0  0  0  0  0
   -1.6311   -1.6861    0.4125 C   0  0  0  0  0  0  0  0  0  0  0  0
    3.2637    0.2382    0.0306 C   0  0  0  0  0  0  0  0  0  0  0  0
    7.4205    1.1894    2.5388 H   0  0  0  0  0  0  0  0  0  0  0  0
    6.4935    2.4461    3.3896 H   0  0  0  0  0  0  0  0  0  0  0  0
    7.0917    2.7614    1.7468 H   0  0  0  0  0  0  0  0  0  0  0  0
    6.5438    0.9235    0.2269 H   0  0  0  0  0  0  0  0  0  0  0  0
    6.1542   -0.1557   -1.7347 H   0  0  0  0  0  0  0  0  0  0  0  0
    4.5986   -1.2288   -3.3041 H   0  0  0  0  0  0  0  0  0  0  0  0
    2.2041   -1.3820   -2.7774 H   0  0  0  0  0  0  0  0  0  0  0  0
    0.4718   -0.9966   -1.3606 H   0  0  0  0  0  0  0  0  0  0  0  0
   -1.7087    1.7353    0.3000 H   0  0  0  0  0  0  0  0  0  0  0  0
   -6.0706    0.2677    0.9208 H   0  0  0  0  0  0  0  0  0  0  0  0
   -7.7926    2.0403    0.7220 H   0  0  0  0  0  0  0  0  0  0  0  0
   -7.1360    4.2505   -0.2425 H   0  0  0  0  0  0  0  0  0  0  0  0
   -3.2635    3.0308   -0.8238 H   0  0  0  0  0  0  0  0  0  0  0  0
   -4.6093   -3.2986    0.2540 H   0  0  0  0  0  0  0  0  0  0  0  0
   -3.1476   -5.2730    0.4937 H   0  0  0  0  0  0  0  0  0  0  0  0
    0.2790   -2.7093    0.6993 H   0  0  0  0  0  0  0  0  0  0  0  0
    2.8904    0.6454    0.9629 H   0  0  0  0  0  0  0  0  0  0  0  0
  1  2  1  0
  2  3  2  0
  2  4  1  0
  4  5  1  0
  5  6  2  0
  6  7  1  0
  7  8  2  0
  8  9  1  0
  9 10  1  0
 10 11  1  0
 11 12  2  0
 11 13  1  0
 13 14  2  0
 14 15  1  0
 15 16  1  0
 16 17  2  0
 17 18  1  0
 18 19  2  0
 19 20  1  0
 20 21  2  0
 15 22  2  0
 22 23  1  0
 23 24  2  0
 24 25  1  0
 25 26  2  0
 26 27  1  0
 26 28  1  0
 28 29  2  0
  9 30  2  0
 30  5  1  0
 29 13  1  0
 21 16  1  0
 29 23  1  0
  1 31  1  0
  1 32  1  0
  1 33  1  0
  4 34  1  0
  6 35  1  0
  7 36  1  0
  8 37  1  0
 10 38  1  0
 14 39  1  0
 17 40  1  0
 18 41  1  0
 19 42  1  0
 21 43  1  0
 24 44  1  0
 25 45  1  0
 28 46  1  0
 30 47  1  0
M  END
$$$$
