
     RDKit          3D

 47 50  0  0  0  0  0  0  0  0999 V2000
   -1.4506    6.0351   -3.6041 C   0  0  0  0  0  0  0  0  0  0  0  0
   -0.3741    5.0157   -3.3618 C   0  0  0  0  0  0  0  0  0  0  0  0
    0.4928    4.6506   -4.3973 C   0  0  0  0  0  0  0  0  0  0  0  0
    1.4844    3.6803   -4.2131 C   0  0  0  0  0  0  0  0  0  0  0  0
    1.5743    3.0738   -2.9561 C   0  0  0  0  0  0  0  0  0  0  0  0
    2.4400    2.0997   -2.5024 N   0  0  0  0  0  0  0  0  0  0  0  0
    2.1502    1.8029   -1.2019 C   0  0  0  0  0  0  0  0  0  0  0  0
    2.7954    0.8506   -0.3484 C   0  0  0  0  0  0  0  0  0  0  0  0
    3.7243    0.1454   -0.7274 O   0  0  0  0  0  0  0  0  0  0  0  0
    2.2443    0.8215    0.9474 N   0  0  0  0  0  0  0  0  0  0  0  0
    2.7996   -0.1081    1.9273 C   0  0  0  0  0  0  0  0  0  0  0  0
    2.0695   -1.4520    1.9376 C   0  0  0  0  0  0  0  0  0  0  0  0
    2.5434   -2.4478    2.4813 O   0  0  0  0  0  0  0  0  0  0  0  0
    0.7993   -1.4313    1.4014 N   0  0  0  0  0  0  0  0  0  0  0  0
   -0.0793   -2.5811    1.4399 C   0  0  0  0  0  0  0  0  0  0  0  0
   -0.7396   -2.7600    2.8082 C   0  0  0  0  0  0  0  0  0  0  0  0
   -1.7034   -3.9218    2.8209 C   0  0  0  0  0  0  0  0  0  0  0  0
   -3.0876   -3.7016    2.8000 C   0  0  0  0  0  0  0  0  0  0  0  0
   -3.9746   -4.7810    2.7955 C   0  0  0  0  0  0  0  0  0  0  0  0
   -3.4813   -6.0843    2.8068 C   0  0  0  0  0  0  0  0  0  0  0  0
   -4.5754   -7.4123    2.7950 Cl  0  0  0  0  0  0  0  0  0  0  0  0
   -2.1085   -6.3184    2.8300 C   0  0  0  0  0  0  0  0  0  0  0  0
   -1.2213   -5.2398    2.8397 C   0  0  0  0  0  0  0  0  0  0  0  0
    1.1439    1.5987    1.3668 N   0  0  0  0  0  0  0  0  0  0  0  0
    0.6086    2.4531    0.5395 C   0  0  0  0  0  0  0  0  0  0  0  0
    1.0990    2.5880   -0.8018 C   0  0  0  0  0  0  0  0  0  0  0  0
    0.7176    3.4016   -1.8989 C   0  0  0  0  0  0  0  0  0  0  0  0
   -0.2731    4.3826   -2.1104 C   0  0  0  0  0  0  0  0  0  0  0  0
   -2.3530    5.5414   -3.9782 H   0  0  0  0  0  0  0  0  0  0  0  0
   -1.1247    6.7805   -4.3377 H   0  0  0  0  0  0  0  0  0  0  0  0
   -1.6953    6.5727   -2.6814 H   0  0  0  0  0  0  0  0  0  0  0  0
    0.4045    5.1272   -5.3731 H   0  0  0  0  0  0  0  0  0  0  0  0
    2.1558    3.4107   -5.0238 H   0  0  0  0  0  0  0  0  0  0  0  0
    3.1718    1.6623   -3.0479 H   0  0  0  0  0  0  0  0  0  0  0  0
    3.8547   -0.2939    1.7026 H   0  0  0  0  0  0  0  0  0  0  0  0
    2.7217    0.3406    2.9226 H   0  0  0  0  0  0  0  0  0  0  0  0
    0.4251   -0.5142    1.1696 H   0  0  0  0  0  0  0  0  0  0  0  0
    0.5060   -3.4699    1.1777 H   0  0  0  0  0  0  0  0  0  0  0  0
   -0.8352   -2.4344    0.6605 H   0  0  0  0  0  0  0  0  0  0  0  0
    0.0166   -2.9144    3.5888 H   0  0  0  0  0  0  0  0  0  0  0  0
   -1.2634   -1.8368    3.0869 H   0  0  0  0  0  0  0  0  0  0  0  0
   -3.4860   -2.6890    2.7902 H   0  0  0  0  0  0  0  0  0  0  0  0
   -5.0465   -4.5986    2.7834 H   0  0  0  0  0  0  0  0  0  0  0  0
   -1.7220   -7.3347    2.8439 H   0  0  0  0  0  0  0  0  0  0  0  0
   -0.1502   -5.4317    2.8643 H   0  0  0  0  0  0  0  0  0  0  0  0
   -0.2387    3.0736    0.8679 H   0  0  0  0  0  0  0  0  0  0  0  0
   -0.9588    4.6488   -1.3098 H   0  0  0  0  0  0  0  0  0  0  0  0
  1  2  1  0
  2  3  2  0
  3  4  1  0
  4  5  2  0
  5  6  1  0
  6  7  1  0
  7  8  1  0
  8  9  2  0
  8 10  1  0
 10 11  1  0
 11 12  1  0
 12 13  2  0
 12 14  1  0
 14 15  1  0
 15 16  1  0
 16 17  1  0
 17 18  2  0
 18 19  1  0
 19 20  2  0
 20 21  1  0
 20 22  1  0
 22 23  2  0
 10 24  1  0
 24 25  2  0
 25 26  1  0
 26 27  1  0
 27 28  2  0
 28  2  1  0
 27  5  1  0
 26  7  2  0
 23 17  1  0
  1 29  1  0
  1 30  1  0
  1 31  1  0
  3 32  1  0
  4 33  1  0
  6 34  1  0
 11 35  1  0
 11 36  1  0
 14 37  1  0
 15 38  1  0
 15 39  1  0
 16 40  1  0
 16 41  1  0
 18 42  1  0
 19 43  1  0
 22 44  1  0
 23 45  1  0
 25 46  1  0
 28 47  1  0
M  END
$$$$
