
     RDKit          3D

 37 39  0  0  0  0  0  0  0  0999 V2000
    0.3892   -2.5753   -2.5549 C   0  0  0  0  0  0  0  0  0  0  0  0
   -0.7921   -2.0916   -3.1807 O   0  0  0  0  0  0  0  0  0  0  0  0
   -1.4294   -1.0286   -2.5448 C   0  0  0  0  0  0  0  0  0  0  0  0
   -2.6152   -0.6356   -3.1868 C   0  0  0  0  0  0  0  0  0  0  0  0
   -3.3859    0.4081   -2.6913 C   0  0  0  0  0  0  0  0  0  0  0  0
   -2.9773    1.1003   -1.5508 C   0  0  0  0  0  0  0  0  0  0  0  0
   -3.7657    2.1126   -1.0521 O   0  0  0  0  0  0  0  0  0  0  0  0
   -3.5869    3.3015   -1.8233 C   0  0  0  0  0  0  0  0  0  0  0  0
   -1.8031    0.6966   -0.8874 C   0  0  0  0  0  0  0  0  0  0  0  0
   -1.0952    1.3296    0.5464 S   0  0  0  0  0  0  0  0  0  0  0  0
    0.1914    0.1818    0.4581 C   0  0  0  0  0  0  0  0  0  0  0  0
    1.2192    0.1179    1.3714 N   0  0  0  0  0  0  0  0  0  0  0  0
    2.1609   -0.9964    1.1687 C   0  0  0  0  0  0  0  0  0  0  0  0
    3.4555   -0.7647    1.9443 C   0  0  0  0  0  0  0  0  0  0  0  0
    3.1783   -0.5098    3.4192 C   0  0  0  0  0  0  0  0  0  0  0  0
    2.2090    0.6540    3.5714 C   0  0  0  0  0  0  0  0  0  0  0  0
    0.9227    0.4220    2.7798 C   0  0  0  0  0  0  0  0  0  0  0  0
    0.1150   -0.6047   -0.5939 N   0  0  0  0  0  0  0  0  0  0  0  0
   -1.0134   -0.3520   -1.3638 C   0  0  0  0  0  0  0  0  0  0  0  0
    0.1778   -2.9610   -1.5537 H   0  0  0  0  0  0  0  0  0  0  0  0
    1.1762   -1.8149   -2.5499 H   0  0  0  0  0  0  0  0  0  0  0  0
    0.7544   -3.4163   -3.1517 H   0  0  0  0  0  0  0  0  0  0  0  0
   -2.9374   -1.1657   -4.0803 H   0  0  0  0  0  0  0  0  0  0  0  0
   -4.3115    0.6801   -3.1909 H   0  0  0  0  0  0  0  0  0  0  0  0
   -2.5266    3.5498   -1.9500 H   0  0  0  0  0  0  0  0  0  0  0  0
   -4.0755    3.2065   -2.7991 H   0  0  0  0  0  0  0  0  0  0  0  0
   -4.0647    4.1254   -1.2851 H   0  0  0  0  0  0  0  0  0  0  0  0
    2.4292   -1.0984    0.1089 H   0  0  0  0  0  0  0  0  0  0  0  0
    1.6959   -1.9382    1.4865 H   0  0  0  0  0  0  0  0  0  0  0  0
    3.9867    0.0972    1.5197 H   0  0  0  0  0  0  0  0  0  0  0  0
    4.1131   -1.6344    1.8354 H   0  0  0  0  0  0  0  0  0  0  0  0
    4.1149   -0.2878    3.9437 H   0  0  0  0  0  0  0  0  0  0  0  0
    2.7536   -1.4106    3.8797 H   0  0  0  0  0  0  0  0  0  0  0  0
    2.6921    1.5745    3.2196 H   0  0  0  0  0  0  0  0  0  0  0  0
    1.9705    0.8022    4.6308 H   0  0  0  0  0  0  0  0  0  0  0  0
    0.3210    1.3306    2.8846 H   0  0  0  0  0  0  0  0  0  0  0  0
    0.3531   -0.4049    3.2224 H   0  0  0  0  0  0  0  0  0  0  0  0
  1  2  1  0
  2  3  1  0
  3  4  2  0
  4  5  1  0
  5  6  2  0
  6  7  1  0
  7  8  1  0
  6  9  1  0
  9 10  1  0
 10 11  1  0
 11 12  1  0
 12 13  1  0
 13 14  1  0
 14 15  1  0
 15 16  1  0
 16 17  1  0
 11 18  2  0
 18 19  1  0
 19  3  1  0
 19  9  2  0
 17 12  1  0
  1 20  1  0
  1 21  1  0
  1 22  1  0
  4 23  1  0
  5 24  1  0
  8 25  1  0
  8 26  1  0
  8 27  1  0
 13 28  1  0
 13 29  1  0
 14 30  1  0
 14 31  1  0
 15 32  1  0
 15 33  1  0
 16 34  1  0
 16 35  1  0
 17 36  1  0
 17 37  1  0
M  END
$$$$
