
     RDKit          3D

 44 47  0  0  0  0  0  0  0  0999 V2000
    7.1966   -2.3760   -0.6308 C   0  0  0  0  0  0  0  0  0  0  0  0
    6.7015   -1.7835    0.6768 C   0  0  0  0  0  0  0  0  0  0  0  0
    6.4999   -0.3782    0.5475 O   0  0  0  0  0  0  0  0  0  0  0  0
    5.2709    0.1034    0.1859 C   0  0  0  0  0  0  0  0  0  0  0  0
    4.2090   -0.6835   -0.2718 C   0  0  0  0  0  0  0  0  0  0  0  0
    2.9874   -0.0963   -0.6249 C   0  0  0  0  0  0  0  0  0  0  0  0
    2.8153    1.2886   -0.5201 C   0  0  0  0  0  0  0  0  0  0  0  0
    1.5341    1.9493   -0.8939 C   0  0  0  0  0  0  0  0  0  0  0  0
    1.5887    3.0505   -1.4263 O   0  0  0  0  0  0  0  0  0  0  0  0
    0.3953    1.2407   -0.5574 N   0  0  0  0  0  0  0  0  0  0  0  0
   -0.9438    1.5986   -0.8236 C   0  0  0  0  0  0  0  0  0  0  0  0
   -1.3197    2.7179   -1.5651 C   0  0  0  0  0  0  0  0  0  0  0  0
   -2.6702    2.9975   -1.7882 C   0  0  0  0  0  0  0  0  0  0  0  0
   -3.6579    2.1575   -1.2732 C   0  0  0  0  0  0  0  0  0  0  0  0
   -3.3069    1.0250   -0.5285 C   0  0  0  0  0  0  0  0  0  0  0  0
   -4.3114    0.1194    0.0258 C   0  0  0  0  0  0  0  0  0  0  0  0
   -4.1263   -0.9808    0.7382 N   0  0  0  0  0  0  0  0  0  0  0  0
   -5.4027   -1.4157    0.9837 C   0  0  0  0  0  0  0  0  0  0  0  0
   -5.8916   -2.5230    1.6840 C   0  0  0  0  0  0  0  0  0  0  0  0
   -7.2802   -2.6710    1.7413 C   0  0  0  0  0  0  0  0  0  0  0  0
   -8.0942   -1.7306    1.1125 C   0  0  0  0  0  0  0  0  0  0  0  0
   -7.6671   -0.6454    0.4243 N   0  0  0  0  0  0  0  0  0  0  0  0
   -6.3253   -0.5536    0.4026 C   0  0  0  0  0  0  0  0  0  0  0  0
   -5.6232    0.4370   -0.2160 O   0  0  0  0  0  0  0  0  0  0  0  0
   -1.9436    0.7584   -0.3130 C   0  0  0  0  0  0  0  0  0  0  0  0
    3.8777    2.0872   -0.0907 C   0  0  0  0  0  0  0  0  0  0  0  0
    5.0934    1.4965    0.2625 C   0  0  0  0  0  0  0  0  0  0  0  0
    6.3670    2.5361    0.8029 Cl  0  0  0  0  0  0  0  0  0  0  0  0
    7.4150   -3.4414   -0.5142 H   0  0  0  0  0  0  0  0  0  0  0  0
    8.1068   -1.8648   -0.9620 H   0  0  0  0  0  0  0  0  0  0  0  0
    6.4590   -2.2566   -1.4297 H   0  0  0  0  0  0  0  0  0  0  0  0
    5.8187   -2.3032    1.0649 H   0  0  0  0  0  0  0  0  0  0  0  0
    7.4833   -1.9157    1.4335 H   0  0  0  0  0  0  0  0  0  0  0  0
    4.3028   -1.7584   -0.3881 H   0  0  0  0  0  0  0  0  0  0  0  0
    2.1941   -0.7309   -1.0132 H   0  0  0  0  0  0  0  0  0  0  0  0
    0.5196    0.4056    0.0001 H   0  0  0  0  0  0  0  0  0  0  0  0
   -0.5851    3.3960   -1.9889 H   0  0  0  0  0  0  0  0  0  0  0  0
   -2.9496    3.8750   -2.3669 H   0  0  0  0  0  0  0  0  0  0  0  0
   -4.7023    2.3989   -1.4616 H   0  0  0  0  0  0  0  0  0  0  0  0
   -5.2196   -3.2284    2.1577 H   0  0  0  0  0  0  0  0  0  0  0  0
   -7.7229   -3.5096    2.2703 H   0  0  0  0  0  0  0  0  0  0  0  0
   -9.1770   -1.8376    1.1518 H   0  0  0  0  0  0  0  0  0  0  0  0
   -1.6711   -0.1218    0.2669 H   0  0  0  0  0  0  0  0  0  0  0  0
    3.7559    3.1669   -0.0311 H   0  0  0  0  0  0  0  0  0  0  0  0
  1  2  1  0
  2  3  1  0
  3  4  1  0
  4  5  2  0
  5  6  1  0
  6  7  2  0
  7  8  1  0
  8  9  2  0
  8 10  1  0
 10 11  1  0
 11 12  2  0
 12 13  1  0
 13 14  2  0
 14 15  1  0
 15 16  1  0
 16 17  2  0
 17 18  1  0
 18 19  2  0
 19 20  1  0
 20 21  2  0
 21 22  1  0
 22 23  2  0
 23 24  1  0
 15 25  2  0
  7 26  1  0
 26 27  2  0
 27 28  1  0
 27  4  1  0
 25 11  1  0
 24 16  1  0
 23 18  1  0
  1 29  1  0
  1 30  1  0
  1 31  1  0
  2 32  1  0
  2 33  1  0
  5 34  1  0
  6 35  1  0
 10 36  1  0
 12 37  1  0
 13 38  1  0
 14 39  1  0
 19 40  1  0
 20 41  1  0
 21 42  1  0
 25 43  1  0
 26 44  1  0
M  END
$$$$
