
     RDKit          3D

 53 58  0  0  0  0  0  0  0  0999 V2000
    8.0437   -0.1307    1.4774 C   0  0  0  0  0  0  0  0  0  0  0  0
    6.6128   -0.2977    0.9982 C   0  0  0  0  0  0  0  0  0  0  0  0
    5.8883    0.8764    1.3595 O   0  0  0  0  0  0  0  0  0  0  0  0
    4.5589    0.9091    1.0395 C   0  0  0  0  0  0  0  0  0  0  0  0
    3.8560   -0.0758    0.3477 C   0  0  0  0  0  0  0  0  0  0  0  0
    2.4913    0.0882    0.0847 C   0  0  0  0  0  0  0  0  0  0  0  0
    1.8047    1.2396    0.5096 C   0  0  0  0  0  0  0  0  0  0  0  0
    0.3164    1.4296    0.2130 C   0  0  0  0  0  0  0  0  0  0  0  0
    0.2261    1.3990   -1.2616 N   0  0  0  0  0  0  0  0  0  0  0  0
   -1.0616    1.2492   -1.7902 C   0  0  0  0  0  0  0  0  0  0  0  0
   -1.3344    1.7472   -3.0640 C   0  0  0  0  0  0  0  0  0  0  0  0
   -2.6150    1.6534   -3.5983 C   0  0  0  0  0  0  0  0  0  0  0  0
   -3.6580    1.0951   -2.8538 C   0  0  0  0  0  0  0  0  0  0  0  0
   -4.9611    1.1001   -3.3800 C   0  0  0  0  0  0  0  0  0  0  0  0
   -6.0359    0.6095   -2.6435 C   0  0  0  0  0  0  0  0  0  0  0  0
   -5.8214    0.1224   -1.3638 C   0  0  0  0  0  0  0  0  0  0  0  0
   -4.5276    0.1008   -0.8356 C   0  0  0  0  0  0  0  0  0  0  0  0
   -3.3992    0.5460   -1.5713 C   0  0  0  0  0  0  0  0  0  0  0  0
   -2.0485    0.5192   -1.0954 C   0  0  0  0  0  0  0  0  0  0  0  0
   -1.6035   -0.1964    0.1461 C   0  0  0  0  0  0  0  0  0  0  0  0
   -0.5840    0.3795    0.8200 C   0  0  0  0  0  0  0  0  0  0  0  0
   -0.3628    0.0834    2.2543 C   0  0  0  0  0  0  0  0  0  0  0  0
    0.2825    0.8340    2.9787 O   0  0  0  0  0  0  0  0  0  0  0  0
   -0.9890   -1.0315    2.7848 O   0  0  0  0  0  0  0  0  0  0  0  0
   -1.7591   -1.8665    1.9673 C   0  0  0  0  0  0  0  0  0  0  0  0
   -2.1583   -3.0855    2.5175 C   0  0  0  0  0  0  0  0  0  0  0  0
   -2.8590   -3.9919    1.7285 C   0  0  0  0  0  0  0  0  0  0  0  0
   -3.1332   -3.6786    0.3991 C   0  0  0  0  0  0  0  0  0  0  0  0
   -2.7280   -2.4486   -0.1327 C   0  0  0  0  0  0  0  0  0  0  0  0
   -2.0692   -1.4997    0.6622 C   0  0  0  0  0  0  0  0  0  0  0  0
    2.5228    2.2254    1.2006 C   0  0  0  0  0  0  0  0  0  0  0  0
    3.8855    2.0571    1.4618 C   0  0  0  0  0  0  0  0  0  0  0  0
    8.0724    0.0157    2.5622 H   0  0  0  0  0  0  0  0  0  0  0  0
    8.5012    0.7550    1.0241 H   0  0  0  0  0  0  0  0  0  0  0  0
    8.6450   -1.0081    1.2233 H   0  0  0  0  0  0  0  0  0  0  0  0
    6.1752   -1.1798    1.4801 H   0  0  0  0  0  0  0  0  0  0  0  0
    6.6131   -0.4239   -0.0906 H   0  0  0  0  0  0  0  0  0  0  0  0
    4.3361   -0.9816   -0.0060 H   0  0  0  0  0  0  0  0  0  0  0  0
    1.9618   -0.6855   -0.4694 H   0  0  0  0  0  0  0  0  0  0  0  0
   -0.0066    2.4193    0.5633 H   0  0  0  0  0  0  0  0  0  0  0  0
    0.7469    2.1629   -1.6829 H   0  0  0  0  0  0  0  0  0  0  0  0
   -0.5531    2.2297   -3.6452 H   0  0  0  0  0  0  0  0  0  0  0  0
   -2.7983    2.0642   -4.5889 H   0  0  0  0  0  0  0  0  0  0  0  0
   -5.1531    1.5060   -4.3715 H   0  0  0  0  0  0  0  0  0  0  0  0
   -7.0387    0.6288   -3.0614 H   0  0  0  0  0  0  0  0  0  0  0  0
   -6.6565   -0.2359   -0.7674 H   0  0  0  0  0  0  0  0  0  0  0  0
   -4.4173   -0.2530    0.1867 H   0  0  0  0  0  0  0  0  0  0  0  0
   -1.9074   -3.3309    3.5455 H   0  0  0  0  0  0  0  0  0  0  0  0
   -3.1705   -4.9483    2.1404 H   0  0  0  0  0  0  0  0  0  0  0  0
   -3.6548   -4.3943   -0.2322 H   0  0  0  0  0  0  0  0  0  0  0  0
   -2.9280   -2.2527   -1.1841 H   0  0  0  0  0  0  0  0  0  0  0  0
    2.0261    3.1245    1.5582 H   0  0  0  0  0  0  0  0  0  0  0  0
    4.4263    2.8264    2.0078 H   0  0  0  0  0  0  0  0  0  0  0  0
  1  2  1  0
  2  3  1  0
  3  4  1  0
  4  5  2  0
  5  6  1  0
  6  7  2  0
  7  8  1  0
  8  9  1  0
  9 10  1  0
 10 11  2  0
 11 12  1  0
 12 13  2  0
 13 14  1  0
 14 15  2  0
 15 16  1  0
 16 17  2  0
 17 18  1  0
 18 19  2  0
 19 20  1  0
 20 21  2  0
 21 22  1  0
 22 23  2  0
 22 24  1  0
 24 25  1  0
 25 26  2  0
 26 27  1  0
 27 28  2  0
 28 29  1  0
 29 30  2  0
  7 31  1  0
 31 32  2  0
 32  4  1  0
 21  8  1  0
 30 25  1  0
 19 10  1  0
 30 20  1  0
 18 13  1  0
  1 33  1  0
  1 34  1  0
  1 35  1  0
  2 36  1  0
  2 37  1  0
  5 38  1  0
  6 39  1  0
  8 40  1  0
  9 41  1  0
 11 42  1  0
 12 43  1  0
 14 44  1  0
 15 45  1  0
 16 46  1  0
 17 47  1  0
 26 48  1  0
 27 49  1  0
 28 50  1  0
 29 51  1  0
 31 52  1  0
 32 53  1  0
M  END
$$$$
