
     RDKit          3D

 49 53  0  0  0  0  0  0  0  0999 V2000
    7.5884    0.4270    1.2008 C   0  0  0  0  0  0  0  0  0  0  0  0
    6.5317    0.0193    0.3046 N   0  0  0  0  0  0  0  0  0  0  0  0
    6.6787   -0.5113   -0.9403 C   0  0  0  0  0  0  0  0  0  0  0  0
    5.3972   -0.7436   -1.3941 C   0  0  0  0  0  0  0  0  0  0  0  0
    5.0544   -1.3298   -2.6440 N   0  0  0  0  0  4  0  0  0  0  0  0
    5.4730   -0.7519   -3.6549 O   0  0  0  0  0  0  0  0  0  0  0  0
    4.4499   -2.4065   -2.6050 O   0  0  0  0  0  1  0  0  0  0  0  0
    4.5334   -0.2948   -0.3726 C   0  0  0  0  0  0  0  0  0  0  0  0
    3.0613   -0.2563   -0.3850 C   0  0  0  0  0  0  0  0  0  0  0  0
    2.4354   -0.5329   -1.3984 O   0  0  0  0  0  0  0  0  0  0  0  0
    2.5702    0.1410    0.8382 N   0  0  0  0  0  0  0  0  0  0  0  0
    1.2471    0.2892    1.1699 C   0  0  0  0  0  0  0  0  0  0  0  0
    0.7991    0.7168    2.4407 C   0  0  0  0  0  0  0  0  0  0  0  0
   -0.5726    0.7316    2.3575 C   0  0  0  0  0  0  0  0  0  0  0  0
   -0.8785    0.3234    1.0862 N   0  0  0  0  0  0  0  0  0  0  0  0
   -2.2206    0.1796    0.5023 C   0  0  0  0  0  0  0  0  0  0  0  0
   -2.1790   -0.3549   -0.9620 C   0  0  0  0  0  0  0  0  0  0  0  0
   -3.5967   -0.4899   -1.5427 C   0  0  0  0  0  0  0  0  0  0  0  0
   -4.4062   -1.4680   -0.6783 C   0  0  0  0  0  0  0  0  0  0  0  0
   -4.4892   -0.9471    0.7642 C   0  0  0  0  0  0  0  0  0  0  0  0
   -5.1670    0.4332    0.7678 C   0  0  0  0  0  0  0  0  0  0  0  0
   -4.3622    1.4198   -0.0942 C   0  0  0  0  0  0  0  0  0  0  0  0
   -4.2795    0.8861   -1.5324 C   0  0  0  0  0  0  0  0  0  0  0  0
   -2.9420    1.5547    0.4819 C   0  0  0  0  0  0  0  0  0  0  0  0
   -3.0688   -0.8158    1.3409 C   0  0  0  0  0  0  0  0  0  0  0  0
    0.2195    0.0563    0.3581 N   0  0  0  0  0  0  0  0  0  0  0  0
    5.2459    0.1550    0.6900 N   0  0  0  0  0  0  0  0  0  0  0  0
    7.5342    1.5121    1.3204 H   0  0  0  0  0  0  0  0  0  0  0  0
    7.4408   -0.0756    2.1602 H   0  0  0  0  0  0  0  0  0  0  0  0
    8.5545    0.1436    0.7758 H   0  0  0  0  0  0  0  0  0  0  0  0
    7.6464   -0.6874   -1.3903 H   0  0  0  0  0  0  0  0  0  0  0  0
    3.2653    0.3563    1.5431 H   0  0  0  0  0  0  0  0  0  0  0  0
    1.3937    0.9806    3.3027 H   0  0  0  0  0  0  0  0  0  0  0  0
   -1.3351    0.9924    3.0773 H   0  0  0  0  0  0  0  0  0  0  0  0
   -1.6790   -1.3322   -0.9975 H   0  0  0  0  0  0  0  0  0  0  0  0
   -1.5927    0.3207   -1.5993 H   0  0  0  0  0  0  0  0  0  0  0  0
   -3.5400   -0.8660   -2.5703 H   0  0  0  0  0  0  0  0  0  0  0  0
   -5.4148   -1.5876   -1.0924 H   0  0  0  0  0  0  0  0  0  0  0  0
   -3.9367   -2.4592   -0.6928 H   0  0  0  0  0  0  0  0  0  0  0  0
   -5.0715   -1.6455    1.3757 H   0  0  0  0  0  0  0  0  0  0  0  0
   -6.1903    0.3482    0.3817 H   0  0  0  0  0  0  0  0  0  0  0  0
   -5.2452    0.8100    1.7951 H   0  0  0  0  0  0  0  0  0  0  0  0
   -4.8548    2.3985   -0.0919 H   0  0  0  0  0  0  0  0  0  0  0  0
   -3.7190    1.5882   -2.1617 H   0  0  0  0  0  0  0  0  0  0  0  0
   -5.2860    0.8082   -1.9617 H   0  0  0  0  0  0  0  0  0  0  0  0
   -2.3654    2.2746   -0.1143 H   0  0  0  0  0  0  0  0  0  0  0  0
   -3.0055    1.9748    1.4941 H   0  0  0  0  0  0  0  0  0  0  0  0
   -2.5829   -1.8004    1.3627 H   0  0  0  0  0  0  0  0  0  0  0  0
   -3.1389   -0.4846    2.3848 H   0  0  0  0  0  0  0  0  0  0  0  0
  1  2  1  0
  2  3  1  0
  3  4  2  0
  4  5  1  0
  5  6  2  0
  5  7  1  0
  4  8  1  0
  8  9  1  0
  9 10  2  0
  9 11  1  0
 11 12  1  0
 12 13  1  0
 13 14  2  0
 14 15  1  0
 15 16  1  0
 16 17  1  0
 17 18  1  0
 18 19  1  0
 19 20  1  0
 20 21  1  0
 21 22  1  0
 22 23  1  0
 22 24  1  0
 20 25  1  0
 15 26  1  0
  8 27  2  0
 27  2  1  0
 26 12  2  0
 24 16  1  0
 25 16  1  0
 23 18  1  0
  1 28  1  0
  1 29  1  0
  1 30  1  0
  3 31  1  0
 11 32  1  0
 13 33  1  0
 14 34  1  0
 17 35  1  0
 17 36  1  0
 18 37  1  0
 19 38  1  0
 19 39  1  0
 20 40  1  0
 21 41  1  0
 21 42  1  0
 22 43  1  0
 23 44  1  0
 23 45  1  0
 24 46  1  0
 24 47  1  0
 25 48  1  0
 25 49  1  0
M  CHG  2   5   1   7  -1
M  END
$$$$
