
     RDKit          3D

 46 50  0  0  0  0  0  0  0  0999 V2000
   -0.1291    2.4231    0.5911 O   0  0  0  0  0  0  0  0  0  0  0  0
   -0.6466    1.5323   -0.0779 C   0  0  0  0  0  0  0  0  0  0  0  0
   -1.9129    1.7914   -0.7747 C   0  0  0  0  0  0  0  0  0  0  0  0
   -2.3577    3.1021   -0.9766 C   0  0  0  0  0  0  0  0  0  0  0  0
   -3.5540    3.3161   -1.6553 C   0  0  0  0  0  0  0  0  0  0  0  0
   -4.1143    4.9208   -1.9173 Cl  0  0  0  0  0  0  0  0  0  0  0  0
   -4.3015    2.2373   -2.1271 C   0  0  0  0  0  0  0  0  0  0  0  0
   -3.8517    0.9324   -1.9103 C   0  0  0  0  0  0  0  0  0  0  0  0
   -2.6596    0.7074   -1.2217 C   0  0  0  0  0  0  0  0  0  0  0  0
   -2.3122   -0.5965   -1.0387 O   0  0  0  0  0  0  0  0  0  0  0  0
   -1.2353   -0.8937   -0.1092 C   0  0  0  0  0  0  0  0  0  0  0  0
   -1.8157   -0.9505    1.3258 C   0  0  0  0  0  0  0  0  0  0  0  0
   -2.8652   -2.0514    1.4776 C   0  0  0  0  0  0  0  0  0  0  0  0
   -2.3303   -3.3592    1.1086 N   0  0  0  0  0  0  0  0  0  0  0  0
   -1.8730   -3.3626   -0.2801 C   0  0  0  0  0  0  0  0  0  0  0  0
   -0.7785   -2.3202   -0.5154 C   0  0  0  0  0  0  0  0  0  0  0  0
   -0.0713    0.1291   -0.2367 C   0  0  0  0  0  0  0  0  0  0  0  0
    1.1014   -0.0890    0.7099 C   0  0  0  0  0  0  0  0  0  0  0  0
    2.2177    0.2321   -0.2248 C   0  0  0  0  0  0  0  0  0  0  0  0
    3.6075    0.4350    0.2490 C   0  0  0  0  0  0  0  0  0  0  0  0
    3.9549    0.2742    1.5952 C   0  0  0  0  0  0  0  0  0  0  0  0
    5.2769    0.4694    2.0050 C   0  0  0  0  0  0  0  0  0  0  0  0
    6.2541    0.8232    1.0756 C   0  0  0  0  0  0  0  0  0  0  0  0
    5.9140    0.9830   -0.2662 C   0  0  0  0  0  0  0  0  0  0  0  0
    4.5946    0.7892   -0.6797 C   0  0  0  0  0  0  0  0  0  0  0  0
    1.8821    0.2825   -1.4747 N   0  0  0  0  0  0  0  0  0  0  0  0
    0.4927    0.0508   -1.5568 O   0  0  0  0  0  0  0  0  0  0  0  0
   -1.7698    3.9432   -0.6164 H   0  0  0  0  0  0  0  0  0  0  0  0
   -5.2333    2.4040   -2.6618 H   0  0  0  0  0  0  0  0  0  0  0  0
   -4.4364    0.0906   -2.2744 H   0  0  0  0  0  0  0  0  0  0  0  0
   -1.0144   -1.1254    2.0542 H   0  0  0  0  0  0  0  0  0  0  0  0
   -2.2880    0.0018    1.5935 H   0  0  0  0  0  0  0  0  0  0  0  0
   -3.7556   -1.8259    0.8785 H   0  0  0  0  0  0  0  0  0  0  0  0
   -3.1986   -2.0902    2.5207 H   0  0  0  0  0  0  0  0  0  0  0  0
   -1.5605   -3.6116    1.7276 H   0  0  0  0  0  0  0  0  0  0  0  0
   -2.7215   -3.1987   -0.9551 H   0  0  0  0  0  0  0  0  0  0  0  0
   -1.4804   -4.3577   -0.5179 H   0  0  0  0  0  0  0  0  0  0  0  0
    0.1126   -2.6255    0.0428 H   0  0  0  0  0  0  0  0  0  0  0  0
   -0.5171   -2.3446   -1.5807 H   0  0  0  0  0  0  0  0  0  0  0  0
    1.0898    0.5565    1.5911 H   0  0  0  0  0  0  0  0  0  0  0  0
    1.2224   -1.1255    1.0334 H   0  0  0  0  0  0  0  0  0  0  0  0
    3.2198   -0.0017    2.3445 H   0  0  0  0  0  0  0  0  0  0  0  0
    5.5455    0.3469    3.0516 H   0  0  0  0  0  0  0  0  0  0  0  0
    7.2815    0.9761    1.3971 H   0  0  0  0  0  0  0  0  0  0  0  0
    6.6740    1.2601   -0.9926 H   0  0  0  0  0  0  0  0  0  0  0  0
    4.3429    0.9192   -1.7305 H   0  0  0  0  0  0  0  0  0  0  0  0
  1  2  2  0
  2  3  1  0
  3  4  2  0
  4  5  1  0
  5  6  1  0
  5  7  2  0
  7  8  1  0
  8  9  2  0
  9 10  1  0
 10 11  1  0
 11 12  1  0
 12 13  1  0
 13 14  1  0
 14 15  1  0
 15 16  1  0
 11 17  1  0
 17 18  1  0
 18 19  1  0
 19 20  1  0
 20 21  2  0
 21 22  1  0
 22 23  2  0
 23 24  1  0
 24 25  2  0
 19 26  2  0
 26 27  1  0
 17  2  1  0
 25 20  1  0
  9  3  1  0
 16 11  1  0
 27 17  1  0
  4 28  1  0
  7 29  1  0
  8 30  1  0
 12 31  1  0
 12 32  1  0
 13 33  1  0
 13 34  1  0
 14 35  1  0
 15 36  1  0
 15 37  1  0
 16 38  1  0
 16 39  1  0
 18 40  1  0
 18 41  1  0
 21 42  1  0
 22 43  1  0
 23 44  1  0
 24 45  1  0
 25 46  1  0
M  END
$$$$
