
     RDKit          3D

 60 62  0  0  0  0  0  0  0  0999 V2000
    5.8271   -1.2063   -3.7267 C   0  0  0  0  0  0  0  0  0  0  0  0
    5.8295    0.0711   -3.1015 O   0  0  0  0  0  0  0  0  0  0  0  0
    4.6552    0.4892   -2.5410 C   0  0  0  0  0  0  0  0  0  0  0  0
    3.4725   -0.2463   -2.4658 C   0  0  0  0  0  0  0  0  0  0  0  0
    2.3323    0.3003   -1.8588 C   0  0  0  0  0  0  0  0  0  0  0  0
    2.3649    1.5954   -1.3316 C   0  0  0  0  0  0  0  0  0  0  0  0
    1.1991    2.2422   -0.6585 C   0  0  0  0  0  0  0  0  0  0  0  0
    1.4312    3.0305    0.2612 O   0  0  0  0  0  0  0  0  0  0  0  0
   -0.2249    1.9420   -1.0478 C   0  0  0  0  0  0  0  0  0  0  0  0
   -0.4714    1.5720   -2.4716 C   0  0  0  0  0  0  0  0  0  0  0  0
   -0.0213    2.1225   -3.4580 O   0  0  0  0  0  0  0  0  0  0  0  0
   -1.4090    0.3754   -2.5238 C   0  0  0  0  0  0  0  0  0  0  0  0
   -1.7903   -0.1603   -3.5414 O   0  0  0  0  0  0  0  0  0  0  0  0
   -1.6692    0.0270   -1.2154 N   0  0  0  0  0  0  0  0  0  0  0  0
   -2.2849   -1.2573   -0.8822 C   0  0  0  0  0  0  0  0  0  0  0  0
   -1.2848   -2.4336   -0.9283 C   0  0  0  0  0  0  0  0  0  0  0  0
   -1.7990   -3.7745   -0.6132 N   0  0  0  0  0  0  0  0  0  0  0  0
   -2.3015   -3.8790    0.7542 C   0  0  0  0  0  0  0  0  0  0  0  0
   -2.7967   -4.2336   -1.5763 C   0  0  0  0  0  0  0  0  0  0  0  0
   -0.7988    0.7408   -0.2807 C   0  0  0  0  0  0  0  0  0  0  0  0
   -1.5183    1.1569    0.9889 C   0  0  0  0  0  0  0  0  0  0  0  0
   -2.7879    1.7553    0.9298 C   0  0  0  0  0  0  0  0  0  0  0  0
   -3.4484    2.1340    2.0961 C   0  0  0  0  0  0  0  0  0  0  0  0
   -2.8588    1.9145    3.3420 C   0  0  0  0  0  0  0  0  0  0  0  0
   -1.5938    1.3269    3.4353 C   0  0  0  0  0  0  0  0  0  0  0  0
   -0.9648    1.0359    4.6174 O   0  0  0  0  0  0  0  0  0  0  0  0
   -1.6360    1.3698    5.8249 C   0  0  0  0  0  0  0  0  0  0  0  0
   -0.9144    0.9801    2.2498 C   0  0  0  0  0  0  0  0  0  0  0  0
    0.3307    0.3938    2.2520 O   0  0  0  0  0  0  0  0  0  0  0  0
    1.3145    1.1712    2.9395 C   0  0  0  0  0  0  0  0  0  0  0  0
    3.5589    2.3241   -1.3935 C   0  0  0  0  0  0  0  0  0  0  0  0
    4.6923    1.7737   -1.9972 C   0  0  0  0  0  0  0  0  0  0  0  0
    5.1060   -1.2425   -4.5501 H   0  0  0  0  0  0  0  0  0  0  0  0
    6.8229   -1.3741   -4.1482 H   0  0  0  0  0  0  0  0  0  0  0  0
    5.6358   -2.0007   -2.9977 H   0  0  0  0  0  0  0  0  0  0  0  0
    3.4037   -1.2537   -2.8652 H   0  0  0  0  0  0  0  0  0  0  0  0
    1.4505   -0.3275   -1.8058 H   0  0  0  0  0  0  0  0  0  0  0  0
   -0.8148    2.8535   -0.8810 H   0  0  0  0  0  0  0  0  0  0  0  0
   -3.0861   -1.4279   -1.6097 H   0  0  0  0  0  0  0  0  0  0  0  0
   -2.7476   -1.1684    0.1047 H   0  0  0  0  0  0  0  0  0  0  0  0
   -0.4538   -2.2222   -0.2432 H   0  0  0  0  0  0  0  0  0  0  0  0
   -0.8183   -2.4661   -1.9218 H   0  0  0  0  0  0  0  0  0  0  0  0
   -1.5419   -3.5521    1.4729 H   0  0  0  0  0  0  0  0  0  0  0  0
   -3.2091   -3.2879    0.9162 H   0  0  0  0  0  0  0  0  0  0  0  0
   -2.5313   -4.9229    0.9954 H   0  0  0  0  0  0  0  0  0  0  0  0
   -2.4052   -4.1757   -2.5979 H   0  0  0  0  0  0  0  0  0  0  0  0
   -3.7263   -3.6567   -1.5274 H   0  0  0  0  0  0  0  0  0  0  0  0
   -3.0428   -5.2861   -1.3953 H   0  0  0  0  0  0  0  0  0  0  0  0
    0.0022    0.0342   -0.0393 H   0  0  0  0  0  0  0  0  0  0  0  0
   -3.2782    1.9240   -0.0272 H   0  0  0  0  0  0  0  0  0  0  0  0
   -4.4328    2.5931    2.0370 H   0  0  0  0  0  0  0  0  0  0  0  0
   -3.4196    2.2098    4.2227 H   0  0  0  0  0  0  0  0  0  0  0  0
   -1.7998    2.4498    5.9003 H   0  0  0  0  0  0  0  0  0  0  0  0
   -2.5765    0.8171    5.9198 H   0  0  0  0  0  0  0  0  0  0  0  0
   -0.9912    1.0733    6.6580 H   0  0  0  0  0  0  0  0  0  0  0  0
    1.4514    0.7854    3.9538 H   0  0  0  0  0  0  0  0  0  0  0  0
    2.2632    1.0486    2.4078 H   0  0  0  0  0  0  0  0  0  0  0  0
    1.0783    2.2412    2.9633 H   0  0  0  0  0  0  0  0  0  0  0  0
    3.6155    3.3278   -0.9758 H   0  0  0  0  0  0  0  0  0  0  0  0
    5.6118    2.3530   -2.0443 H   0  0  0  0  0  0  0  0  0  0  0  0
  1  2  1  0
  2  3  1  0
  3  4  2  0
  4  5  1  0
  5  6  2  0
  6  7  1  0
  7  8  2  0
  7  9  1  0
  9 10  1  0
 10 11  2  0
 10 12  1  0
 12 13  2  0
 12 14  1  0
 14 15  1  0
 15 16  1  0
 16 17  1  0
 17 18  1  0
 17 19  1  0
 14 20  1  0
 20 21  1  0
 21 22  2  0
 22 23  1  0
 23 24  2  0
 24 25  1  0
 25 26  1  0
 26 27  1  0
 25 28  2  0
 28 29  1  0
 29 30  1  0
  6 31  1  0
 31 32  2  0
 32  3  1  0
 20  9  1  0
 28 21  1  0
  1 33  1  0
  1 34  1  0
  1 35  1  0
  4 36  1  0
  5 37  1  0
  9 38  1  0
 15 39  1  0
 15 40  1  0
 16 41  1  0
 16 42  1  0
 18 43  1  0
 18 44  1  0
 18 45  1  0
 19 46  1  0
 19 47  1  0
 19 48  1  0
 20 49  1  0
 22 50  1  0
 23 51  1  0
 24 52  1  0
 27 53  1  0
 27 54  1  0
 27 55  1  0
 30 56  1  0
 30 57  1  0
 30 58  1  0
 31 59  1  0
 32 60  1  0
M  END
$$$$
