
     RDKit          3D

 44 46  0  0  0  0  0  0  0  0999 V2000
    1.4018    3.3166   -2.6607 C   0  0  0  0  0  0  0  0  0  0  0  0
    0.9580    1.9700   -2.8260 O   0  0  0  0  0  0  0  0  0  0  0  0
    0.6921    1.3817   -1.6128 C   0  0  0  0  0  0  0  0  0  0  0  0
   -0.6438    1.0453   -1.3748 C   0  0  0  0  0  0  0  0  0  0  0  0
   -1.0088    0.4294   -0.1767 C   0  0  0  0  0  0  0  0  0  0  0  0
   -2.4151    0.0825    0.0572 C   0  0  0  0  0  0  0  0  0  0  0  0
   -3.1994    0.6008    1.0244 C   0  0  0  0  0  0  0  0  0  0  0  0
   -2.7427    1.5922    1.9454 C   0  0  0  0  0  0  0  0  0  0  0  0
   -2.3384    2.3651    2.7126 N   0  0  0  0  0  0  0  0  0  0  0  0
   -4.5973    0.1530    1.1320 C   0  0  0  0  0  0  0  0  0  0  0  0
   -4.9158   -1.1860    1.3605 C   0  0  0  0  0  0  0  0  0  0  0  0
   -6.2563   -1.5482    1.4596 C   0  0  0  0  0  0  0  0  0  0  0  0
   -7.2365   -0.5715    1.3324 C   0  0  0  0  0  0  0  0  0  0  0  0
   -6.8342    0.7341    1.1094 C   0  0  0  0  0  0  0  0  0  0  0  0
   -5.5418    1.1148    1.0068 N   0  0  0  0  0  0  0  0  0  0  0  0
   -0.0189    0.1282    0.7627 C   0  0  0  0  0  0  0  0  0  0  0  0
    1.3232    0.4398    0.5099 C   0  0  0  0  0  0  0  0  0  0  0  0
    1.6959    1.0579   -0.6860 C   0  0  0  0  0  0  0  0  0  0  0  0
    2.9804    1.3694   -1.0418 O   0  0  0  0  0  0  0  0  0  0  0  0
    4.0661    0.8112   -0.2972 C   0  0  0  0  0  0  0  0  0  0  0  0
    4.2856   -0.6620   -0.5755 C   0  0  0  0  0  0  0  0  0  0  0  0
    4.7064   -1.5193    0.4502 C   0  0  0  0  0  0  0  0  0  0  0  0
    4.9174   -2.8772    0.1947 C   0  0  0  0  0  0  0  0  0  0  0  0
    4.7227   -3.3815   -1.0897 C   0  0  0  0  0  0  0  0  0  0  0  0
    4.9747   -5.0540   -1.4016 Cl  0  0  0  0  0  0  0  0  0  0  0  0
    4.3269   -2.5387   -2.1239 C   0  0  0  0  0  0  0  0  0  0  0  0
    4.1131   -1.1827   -1.8684 C   0  0  0  0  0  0  0  0  0  0  0  0
    0.8741    3.8319   -1.8490 H   0  0  0  0  0  0  0  0  0  0  0  0
    1.1854    3.8534   -3.5890 H   0  0  0  0  0  0  0  0  0  0  0  0
    2.4827    3.3544   -2.4972 H   0  0  0  0  0  0  0  0  0  0  0  0
   -1.3907    1.2830   -2.1278 H   0  0  0  0  0  0  0  0  0  0  0  0
   -2.8190   -0.6353   -0.6557 H   0  0  0  0  0  0  0  0  0  0  0  0
   -4.1408   -1.9386    1.4690 H   0  0  0  0  0  0  0  0  0  0  0  0
   -6.5330   -2.5833    1.6382 H   0  0  0  0  0  0  0  0  0  0  0  0
   -8.2889   -0.8202    1.4070 H   0  0  0  0  0  0  0  0  0  0  0  0
   -7.5618    1.5343    1.0039 H   0  0  0  0  0  0  0  0  0  0  0  0
   -0.2745   -0.3598    1.7010 H   0  0  0  0  0  0  0  0  0  0  0  0
    2.0475    0.1770    1.2717 H   0  0  0  0  0  0  0  0  0  0  0  0
    4.9708    1.3418   -0.6183 H   0  0  0  0  0  0  0  0  0  0  0  0
    3.9600    1.0259    0.7727 H   0  0  0  0  0  0  0  0  0  0  0  0
    4.8713   -1.1358    1.4553 H   0  0  0  0  0  0  0  0  0  0  0  0
    5.2292   -3.5371    0.9977 H   0  0  0  0  0  0  0  0  0  0  0  0
    4.1767   -2.9283   -3.1273 H   0  0  0  0  0  0  0  0  0  0  0  0
    3.7956   -0.5340   -2.6814 H   0  0  0  0  0  0  0  0  0  0  0  0
  1  2  1  0
  2  3  1  0
  3  4  2  0
  4  5  1  0
  5  6  1  0
  6  7  2  3
  7  8  1  0
  8  9  3  0
  7 10  1  0
 10 11  2  0
 11 12  1  0
 12 13  2  0
 13 14  1  0
 14 15  2  0
  5 16  2  0
 16 17  1  0
 17 18  2  0
 18 19  1  0
 19 20  1  0
 20 21  1  0
 21 22  2  0
 22 23  1  0
 23 24  2  0
 24 25  1  0
 24 26  1  0
 26 27  2  0
 18  3  1  0
 27 21  1  0
 15 10  1  0
  1 28  1  0
  1 29  1  0
  1 30  1  0
  4 31  1  0
  6 32  1  0
 11 33  1  0
 12 34  1  0
 13 35  1  0
 14 36  1  0
 16 37  1  0
 17 38  1  0
 20 39  1  0
 20 40  1  0
 22 41  1  0
 23 42  1  0
 26 43  1  0
 27 44  1  0
M  END
$$$$
