
     RDKit          3D

 50 52  0  0  0  0  0  0  0  0999 V2000
   -8.8365    0.9072    0.5462 C   0  0  0  0  0  0  0  0  0  0  0  0
   -8.0370    0.0836   -0.2901 O   0  0  0  0  0  0  0  0  0  0  0  0
   -6.6731    0.1897   -0.1801 C   0  0  0  0  0  0  0  0  0  0  0  0
   -6.0168    1.0511    0.7063 C   0  0  0  0  0  0  0  0  0  0  0  0
   -4.6201    1.0952    0.7486 C   0  0  0  0  0  0  0  0  0  0  0  0
   -3.8702    0.2812   -0.1054 C   0  0  0  0  0  0  0  0  0  0  0  0
   -2.3827    0.2924   -0.0974 C   0  0  0  0  0  0  0  0  0  0  0  0
   -1.7572   -0.7252   -0.3825 O   0  0  0  0  0  0  0  0  0  0  0  0
   -1.7798    1.5078    0.1994 N   0  0  0  0  0  0  0  0  0  0  0  0
   -0.4300    1.8082    0.3405 C   0  0  0  0  0  0  0  0  0  0  0  0
   -0.0929    3.4074    0.6818 S   0  0  0  0  0  0  0  0  0  0  0  0
    0.4123    0.7355    0.1753 N   0  0  0  0  0  0  0  0  0  0  0  0
    1.8109    0.5657    0.2609 C   0  0  0  0  0  0  0  0  0  0  0  0
    2.7346    1.5330    0.6305 C   0  0  0  0  0  0  0  0  0  0  0  0
    4.1088    1.2334    0.6796 C   0  0  0  0  0  0  0  0  0  0  0  0
    4.6173   -0.0345    0.3679 C   0  0  0  0  0  0  0  0  0  0  0  0
    5.9608   -0.3150    0.4193 N   0  0  0  0  0  0  0  0  0  0  0  0
    6.5320   -1.6461    0.2309 C   0  0  0  0  0  0  0  0  0  0  0  0
    7.9856   -1.4868    0.6692 C   0  0  0  0  0  0  0  0  0  0  0  0
    8.2962   -0.0453    0.3072 C   0  0  0  0  0  0  0  0  0  0  0  0
    7.0005    0.6841    0.6538 C   0  0  0  0  0  0  0  0  0  0  0  0
    3.6695   -0.9972    0.0038 C   0  0  0  0  0  0  0  0  0  0  0  0
    2.2971   -0.7079   -0.0487 C   0  0  0  0  0  0  0  0  0  0  0  0
   -4.5199   -0.5983   -0.9813 C   0  0  0  0  0  0  0  0  0  0  0  0
   -5.9171   -0.6474   -1.0271 C   0  0  0  0  0  0  0  0  0  0  0  0
   -6.6361   -1.4677   -1.8610 O   0  0  0  0  0  0  0  0  0  0  0  0
   -5.9137   -2.3860   -2.6696 C   0  0  0  0  0  0  0  0  0  0  0  0
   -8.6705    0.6753    1.6034 H   0  0  0  0  0  0  0  0  0  0  0  0
   -8.6606    1.9682    0.3406 H   0  0  0  0  0  0  0  0  0  0  0  0
   -9.8859    0.6948    0.3205 H   0  0  0  0  0  0  0  0  0  0  0  0
   -6.5663    1.6952    1.3856 H   0  0  0  0  0  0  0  0  0  0  0  0
   -4.1442    1.7488    1.4748 H   0  0  0  0  0  0  0  0  0  0  0  0
   -2.3687    2.3225    0.3038 H   0  0  0  0  0  0  0  0  0  0  0  0
   -0.0870   -0.1160   -0.0892 H   0  0  0  0  0  0  0  0  0  0  0  0
    2.4494    2.5394    0.9026 H   0  0  0  0  0  0  0  0  0  0  0  0
    4.7777    2.0333    0.9850 H   0  0  0  0  0  0  0  0  0  0  0  0
    6.4786   -1.9328   -0.8256 H   0  0  0  0  0  0  0  0  0  0  0  0
    6.0362   -2.4092    0.8403 H   0  0  0  0  0  0  0  0  0  0  0  0
    8.0690   -1.6255    1.7540 H   0  0  0  0  0  0  0  0  0  0  0  0
    8.6515   -2.2030    0.1798 H   0  0  0  0  0  0  0  0  0  0  0  0
    9.1590    0.3543    0.8471 H   0  0  0  0  0  0  0  0  0  0  0  0
    8.4966    0.0346   -0.7682 H   0  0  0  0  0  0  0  0  0  0  0  0
    7.0003    0.9871    1.7071 H   0  0  0  0  0  0  0  0  0  0  0  0
    6.8868    1.5704    0.0204 H   0  0  0  0  0  0  0  0  0  0  0  0
    3.9784   -2.0045   -0.2595 H   0  0  0  0  0  0  0  0  0  0  0  0
    1.6169   -1.5045   -0.3425 H   0  0  0  0  0  0  0  0  0  0  0  0
   -3.9117   -1.2301   -1.6219 H   0  0  0  0  0  0  0  0  0  0  0  0
   -5.3243   -3.0757   -2.0565 H   0  0  0  0  0  0  0  0  0  0  0  0
   -6.6407   -2.9799   -3.2319 H   0  0  0  0  0  0  0  0  0  0  0  0
   -5.2829   -1.8606   -3.3941 H   0  0  0  0  0  0  0  0  0  0  0  0
  1  2  1  0
  2  3  1  0
  3  4  2  0
  4  5  1  0
  5  6  2  0
  6  7  1  0
  7  8  2  0
  7  9  1  0
  9 10  1  0
 10 11  2  0
 10 12  1  0
 12 13  1  0
 13 14  2  0
 14 15  1  0
 15 16  2  0
 16 17  1  0
 17 18  1  0
 18 19  1  0
 19 20  1  0
 20 21  1  0
 16 22  1  0
 22 23  2  0
  6 24  1  0
 24 25  2  0
 25 26  1  0
 26 27  1  0
 25  3  1  0
 23 13  1  0
 21 17  1  0
  1 28  1  0
  1 29  1  0
  1 30  1  0
  4 31  1  0
  5 32  1  0
  9 33  1  0
 12 34  1  0
 14 35  1  0
 15 36  1  0
 18 37  1  0
 18 38  1  0
 19 39  1  0
 19 40  1  0
 20 41  1  0
 20 42  1  0
 21 43  1  0
 21 44  1  0
 22 45  1  0
 23 46  1  0
 24 47  1  0
 27 48  1  0
 27 49  1  0
 27 50  1  0
M  END
$$$$
