
     RDKit          3D

 47 50  0  0  0  0  0  0  0  0999 V2000
    1.8967    4.5851   -5.2322 C   0  0  0  0  0  0  0  0  0  0  0  0
    1.5675    4.2314   -3.8106 C   0  0  0  0  0  0  0  0  0  0  0  0
    2.4063    4.6459   -2.7706 C   0  0  0  0  0  0  0  0  0  0  0  0
    2.1441    4.3064   -1.4389 C   0  0  0  0  0  0  0  0  0  0  0  0
    1.0146    3.5241   -1.1791 C   0  0  0  0  0  0  0  0  0  0  0  0
    0.5228    3.0473    0.0188 N   0  0  0  0  0  0  0  0  0  0  0  0
   -0.6077    2.3177   -0.2097 C   0  0  0  0  0  0  0  0  0  0  0  0
   -1.4370    1.6385    0.7391 C   0  0  0  0  0  0  0  0  0  0  0  0
   -1.1995    1.6168    1.9452 O   0  0  0  0  0  0  0  0  0  0  0  0
   -2.5301    0.9825    0.1446 N   0  0  0  0  0  0  0  0  0  0  0  0
   -3.4791    0.2734    0.9926 C   0  0  0  0  0  0  0  0  0  0  0  0
   -2.9196   -1.0894    1.3934 C   0  0  0  0  0  0  0  0  0  0  0  0
   -3.2545   -2.1362    0.8443 O   0  0  0  0  0  0  0  0  0  0  0  0
   -1.9921   -1.0435    2.4182 N   0  0  0  0  0  0  0  0  0  0  0  0
   -1.2690   -2.2266    2.8396 C   0  0  0  0  0  0  0  0  0  0  0  0
   -0.1243   -2.5705    1.8835 C   0  0  0  0  0  0  0  0  0  0  0  0
    0.6428   -3.7858    2.3423 C   0  0  0  0  0  0  0  0  0  0  0  0
    1.7919   -3.6483    3.1330 C   0  0  0  0  0  0  0  0  0  0  0  0
    2.4876   -4.7781    3.5692 C   0  0  0  0  0  0  0  0  0  0  0  0
    2.0346   -6.0487    3.2200 C   0  0  0  0  0  0  0  0  0  0  0  0
    2.8925   -7.4395    3.7592 Cl  0  0  0  0  0  0  0  0  0  0  0  0
    0.8910   -6.1999    2.4393 C   0  0  0  0  0  0  0  0  0  0  0  0
    0.1954   -5.0707    2.0028 C   0  0  0  0  0  0  0  0  0  0  0  0
   -2.8032    0.9822   -1.2351 N   0  0  0  0  0  0  0  0  0  0  0  0
   -2.0062    1.6113   -2.0508 C   0  0  0  0  0  0  0  0  0  0  0  0
   -0.8571    2.3185   -1.5593 C   0  0  0  0  0  0  0  0  0  0  0  0
    0.1589    3.0779   -2.1927 C   0  0  0  0  0  0  0  0  0  0  0  0
    0.4461    3.4334   -3.5262 C   0  0  0  0  0  0  0  0  0  0  0  0
    0.9862    4.6662   -5.8354 H   0  0  0  0  0  0  0  0  0  0  0  0
    2.4081    5.5519   -5.2860 H   0  0  0  0  0  0  0  0  0  0  0  0
    2.5432    3.8173   -5.6682 H   0  0  0  0  0  0  0  0  0  0  0  0
    3.2864    5.2480   -2.9914 H   0  0  0  0  0  0  0  0  0  0  0  0
    2.8017    4.6399   -0.6424 H   0  0  0  0  0  0  0  0  0  0  0  0
    0.9349    3.2106    0.9284 H   0  0  0  0  0  0  0  0  0  0  0  0
   -3.6812    0.8630    1.8938 H   0  0  0  0  0  0  0  0  0  0  0  0
   -4.4251    0.1328    0.4591 H   0  0  0  0  0  0  0  0  0  0  0  0
   -1.6113   -0.1310    2.6697 H   0  0  0  0  0  0  0  0  0  0  0  0
   -1.9762   -3.0614    2.9113 H   0  0  0  0  0  0  0  0  0  0  0  0
   -0.8865   -2.0254    3.8463 H   0  0  0  0  0  0  0  0  0  0  0  0
   -0.5066   -2.7447    0.8697 H   0  0  0  0  0  0  0  0  0  0  0  0
    0.5573   -1.7145    1.7938 H   0  0  0  0  0  0  0  0  0  0  0  0
    2.1536   -2.6613    3.4131 H   0  0  0  0  0  0  0  0  0  0  0  0
    3.3789   -4.6606    4.1795 H   0  0  0  0  0  0  0  0  0  0  0  0
    0.5353   -7.1900    2.1676 H   0  0  0  0  0  0  0  0  0  0  0  0
   -0.6994   -5.1971    1.3950 H   0  0  0  0  0  0  0  0  0  0  0  0
   -2.2138    1.6087   -3.1323 H   0  0  0  0  0  0  0  0  0  0  0  0
   -0.1987    3.0920   -4.3315 H   0  0  0  0  0  0  0  0  0  0  0  0
  1  2  1  0
  2  3  2  0
  3  4  1  0
  4  5  2  0
  5  6  1  0
  6  7  1  0
  7  8  1  0
  8  9  2  0
  8 10  1  0
 10 11  1  0
 11 12  1  0
 12 13  2  0
 12 14  1  0
 14 15  1  0
 15 16  1  0
 16 17  1  0
 17 18  2  0
 18 19  1  0
 19 20  2  0
 20 21  1  0
 20 22  1  0
 22 23  2  0
 10 24  1  0
 24 25  2  0
 25 26  1  0
 26 27  1  0
 27 28  2  0
 28  2  1  0
 27  5  1  0
 26  7  2  0
 23 17  1  0
  1 29  1  0
  1 30  1  0
  1 31  1  0
  3 32  1  0
  4 33  1  0
  6 34  1  0
 11 35  1  0
 11 36  1  0
 14 37  1  0
 15 38  1  0
 15 39  1  0
 16 40  1  0
 16 41  1  0
 18 42  1  0
 19 43  1  0
 22 44  1  0
 23 45  1  0
 25 46  1  0
 28 47  1  0
M  END
$$$$
