
     RDKit          3D

 30 31  0  0  0  0  0  0  0  0999 V2000
    0.1474    0.7529   -2.9153 C   0  0  0  0  0  0  0  0  0  0  0  0
    0.4464    0.3739   -1.5740 O   0  0  0  0  0  0  0  0  0  0  0  0
   -0.5876    0.3447   -0.6686 C   0  0  0  0  0  0  0  0  0  0  0  0
   -1.9341    0.4993   -1.0410 C   0  0  0  0  0  0  0  0  0  0  0  0
   -2.9634    0.4546   -0.0912 C   0  0  0  0  0  0  0  0  0  0  0  0
   -4.6471    0.6759   -0.6414 S   0  0  0  0  0  0  0  0  0  0  0  0
   -5.4416   -0.7538    0.1432 C   0  0  0  0  0  0  0  0  0  0  0  0
   -2.6436    0.2758    1.2517 C   0  0  0  0  0  0  0  0  0  0  0  0
   -1.3114    0.1128    1.6364 C   0  0  0  0  0  0  0  0  0  0  0  0
   -0.2686    0.1378    0.6909 C   0  0  0  0  0  0  0  0  0  0  0  0
    1.1253   -0.0542    1.2358 C   0  0  0  0  0  0  0  0  0  0  0  0
    1.2616   -0.1706    2.4500 O   0  0  0  0  0  0  0  0  0  0  0  0
    2.1370   -0.0878    0.3094 N   0  0  0  0  0  0  0  0  0  0  0  0
    3.4519   -0.2542    0.6337 C   0  0  0  0  0  0  0  0  0  0  0  0
    4.0162   -0.4138    1.8026 N   0  0  0  0  0  0  0  0  0  0  0  0
    5.3806   -0.5407    1.6392 C   0  0  0  0  0  0  0  0  0  0  0  0
    5.8320   -0.4758    0.3380 C   0  0  0  0  0  0  0  0  0  0  0  0
    4.4992   -0.2487   -0.7190 S   0  0  0  0  0  0  0  0  0  0  0  0
    1.0936    0.8085   -3.4622 H   0  0  0  0  0  0  0  0  0  0  0  0
   -0.4755   -0.0020   -3.4053 H   0  0  0  0  0  0  0  0  0  0  0  0
   -0.3174    1.7434   -2.9532 H   0  0  0  0  0  0  0  0  0  0  0  0
   -2.2149    0.6500   -2.0795 H   0  0  0  0  0  0  0  0  0  0  0  0
   -6.4687   -0.8342   -0.2227 H   0  0  0  0  0  0  0  0  0  0  0  0
   -4.9109   -1.6757   -0.1103 H   0  0  0  0  0  0  0  0  0  0  0  0
   -5.4739   -0.6360    1.2292 H   0  0  0  0  0  0  0  0  0  0  0  0
   -3.4142    0.2714    2.0182 H   0  0  0  0  0  0  0  0  0  0  0  0
   -1.0884   -0.0313    2.6933 H   0  0  0  0  0  0  0  0  0  0  0  0
    1.9197    0.0210   -0.6719 H   0  0  0  0  0  0  0  0  0  0  0  0
    6.0051   -0.6804    2.5131 H   0  0  0  0  0  0  0  0  0  0  0  0
    6.8453   -0.5487   -0.0288 H   0  0  0  0  0  0  0  0  0  0  0  0
  1  2  1  0
  2  3  1  0
  3  4  2  0
  4  5  1  0
  5  6  1  0
  6  7  1  0
  5  8  2  0
  8  9  1  0
  9 10  2  0
 10 11  1  0
 11 12  2  0
 11 13  1  0
 13 14  1  0
 14 15  2  0
 15 16  1  0
 16 17  2  0
 17 18  1  0
 10  3  1  0
 18 14  1  0
  1 19  1  0
  1 20  1  0
  1 21  1  0
  4 22  1  0
  7 23  1  0
  7 24  1  0
  7 25  1  0
  8 26  1  0
  9 27  1  0
 13 28  1  0
 16 29  1  0
 17 30  1  0
M  END
$$$$
