
     RDKit          3D

 68 71  0  0  0  0  0  0  0  0999 V2000
    1.2109    0.9180    2.4062 C   0  0  0  0  0  0  0  0  0  0  0  0
    0.4614    1.5087    1.2079 C   0  0  0  0  0  0  0  0  0  0  0  0
   -0.0145    2.7810    1.6620 O   0  0  0  0  0  0  0  0  0  0  0  0
   -0.5057    3.6486    0.7288 C   0  0  0  0  0  0  0  0  0  0  0  0
   -1.5200    4.4962    1.1810 C   0  0  0  0  0  0  0  0  0  0  0  0
   -2.0899    5.4417    0.3273 C   0  0  0  0  0  0  0  0  0  0  0  0
   -1.6341    5.5552   -0.9839 C   0  0  0  0  0  0  0  0  0  0  0  0
   -0.6058    4.7284   -1.4339 C   0  0  0  0  0  0  0  0  0  0  0  0
   -0.0382    3.7801   -0.5762 C   0  0  0  0  0  0  0  0  0  0  0  0
   -0.6887    0.5340    0.8132 C   0  0  0  0  0  0  0  0  0  0  0  0
   -1.8738    0.8202    1.0124 O   0  0  0  0  0  0  0  0  0  0  0  0
   -0.3419   -0.7268    0.3012 N   0  0  0  0  0  0  0  0  0  0  0  0
   -1.3700   -1.7807    0.3433 C   0  0  0  0  0  0  0  0  0  0  0  0
   -1.7236   -2.2295    1.7700 C   0  0  0  0  0  0  0  0  0  0  0  0
   -2.6992   -3.3868    1.7864 C   0  0  0  0  0  0  0  0  0  0  0  0
   -2.3396   -4.6057    2.2277 C   0  0  0  0  0  0  0  0  0  0  0  0
   -3.2638   -5.7887    2.2614 C   0  0  0  0  0  0  0  0  0  0  0  0
   -4.5468   -5.5736    1.4592 C   0  0  0  0  0  0  0  0  0  0  0  0
   -5.1155   -4.1803    1.7001 C   0  0  0  0  0  0  0  0  0  0  0  0
   -4.1057   -3.0960    1.3144 C   0  0  0  0  0  0  0  0  0  0  0  0
    0.8413   -1.0058   -0.3895 C   0  0  0  0  0  0  0  0  0  0  0  0
    1.2559   -0.3034   -1.4757 C   0  0  0  0  0  0  0  0  0  0  0  0
    0.4465    0.6924   -2.0145 N   0  0  0  0  0  0  0  0  0  0  0  0
    2.4872   -0.6023   -2.0626 N   0  0  0  0  0  0  0  0  0  0  0  0
    3.0919    0.3072   -3.0460 C   0  0  0  0  0  0  0  0  0  0  0  0
    3.6205    1.5846   -2.4277 C   0  0  0  0  0  0  0  0  0  0  0  0
    4.6645    1.5487   -1.4914 C   0  0  0  0  0  0  0  0  0  0  0  0
    5.1423    2.7275   -0.9161 C   0  0  0  0  0  0  0  0  0  0  0  0
    4.5873    3.9544   -1.2741 C   0  0  0  0  0  0  0  0  0  0  0  0
    3.5594    4.0059   -2.2122 C   0  0  0  0  0  0  0  0  0  0  0  0
    3.0800    2.8280   -2.7886 C   0  0  0  0  0  0  0  0  0  0  0  0
    3.2597   -1.6881   -1.6715 C   0  0  0  0  0  0  0  0  0  0  0  0
    4.3805   -1.9429   -2.1067 O   0  0  0  0  0  0  0  0  0  0  0  0
    2.7145   -2.5062   -0.7316 N   0  0  0  0  0  0  0  0  0  0  0  0
    1.6540   -2.1809    0.0512 C   0  0  0  0  0  0  0  0  0  0  0  0
    1.4081   -2.8094    1.0769 O   0  0  0  0  0  0  0  0  0  0  0  0
    1.6650   -0.0492    2.1821 H   0  0  0  0  0  0  0  0  0  0  0  0
    2.0000    1.6031    2.7368 H   0  0  0  0  0  0  0  0  0  0  0  0
    0.5333    0.7846    3.2571 H   0  0  0  0  0  0  0  0  0  0  0  0
    1.1839    1.6359    0.4019 H   0  0  0  0  0  0  0  0  0  0  0  0
   -1.8773    4.4070    2.2040 H   0  0  0  0  0  0  0  0  0  0  0  0
   -2.8861    6.0874    0.6886 H   0  0  0  0  0  0  0  0  0  0  0  0
   -2.0750    6.2912   -1.6505 H   0  0  0  0  0  0  0  0  0  0  0  0
   -0.2359    4.8281   -2.4505 H   0  0  0  0  0  0  0  0  0  0  0  0
    0.7854    3.1810   -0.9466 H   0  0  0  0  0  0  0  0  0  0  0  0
   -1.0419   -2.6417   -0.2535 H   0  0  0  0  0  0  0  0  0  0  0  0
   -2.2641   -1.3822   -0.1535 H   0  0  0  0  0  0  0  0  0  0  0  0
   -0.8060   -2.5000    2.3062 H   0  0  0  0  0  0  0  0  0  0  0  0
   -2.1566   -1.3993    2.3415 H   0  0  0  0  0  0  0  0  0  0  0  0
   -1.3271   -4.7758    2.5891 H   0  0  0  0  0  0  0  0  0  0  0  0
   -2.7425   -6.6701    1.8725 H   0  0  0  0  0  0  0  0  0  0  0  0
   -3.5144   -5.9988    3.3074 H   0  0  0  0  0  0  0  0  0  0  0  0
   -4.3368   -5.7009    0.3890 H   0  0  0  0  0  0  0  0  0  0  0  0
   -5.2856   -6.3366    1.7311 H   0  0  0  0  0  0  0  0  0  0  0  0
   -5.3816   -4.0734    2.7594 H   0  0  0  0  0  0  0  0  0  0  0  0
   -6.0391   -4.0458    1.1253 H   0  0  0  0  0  0  0  0  0  0  0  0
   -4.0923   -2.9930    0.2226 H   0  0  0  0  0  0  0  0  0  0  0  0
   -4.4489   -2.1400    1.7265 H   0  0  0  0  0  0  0  0  0  0  0  0
    0.4654    0.7021   -3.0293 H   0  0  0  0  0  0  0  0  0  0  0  0
   -0.5222    0.6349   -1.6934 H   0  0  0  0  0  0  0  0  0  0  0  0
    3.9238   -0.1820   -3.5670 H   0  0  0  0  0  0  0  0  0  0  0  0
    2.3592    0.5208   -3.8329 H   0  0  0  0  0  0  0  0  0  0  0  0
    5.1173    0.6007   -1.2068 H   0  0  0  0  0  0  0  0  0  0  0  0
    5.9494    2.6882   -0.1889 H   0  0  0  0  0  0  0  0  0  0  0  0
    4.9576    4.8715   -0.8229 H   0  0  0  0  0  0  0  0  0  0  0  0
    3.1273    4.9643   -2.4896 H   0  0  0  0  0  0  0  0  0  0  0  0
    2.2710    2.8884   -3.5127 H   0  0  0  0  0  0  0  0  0  0  0  0
    3.3052   -3.2543   -0.4025 H   0  0  0  0  0  0  0  0  0  0  0  0
  1  2  1  0
  2  3  1  0
  3  4  1  0
  4  5  2  0
  5  6  1  0
  6  7  2  0
  7  8  1  0
  8  9  2  0
  2 10  1  0
 10 11  2  0
 10 12  1  0
 12 13  1  0
 13 14  1  0
 14 15  1  0
 15 16  2  0
 16 17  1  0
 17 18  1  0
 18 19  1  0
 19 20  1  0
 12 21  1  0
 21 22  2  0
 22 23  1  0
 22 24  1  0
 24 25  1  0
 25 26  1  0
 26 27  2  0
 27 28  1  0
 28 29  2  0
 29 30  1  0
 30 31  2  0
 24 32  1  0
 32 33  2  0
 32 34  1  0
 34 35  1  0
 35 36  2  0
  9  4  1  0
 20 15  1  0
 35 21  1  0
 31 26  1  0
  1 37  1  0
  1 38  1  0
  1 39  1  0
  2 40  1  0
  5 41  1  0
  6 42  1  0
  7 43  1  0
  8 44  1  0
  9 45  1  0
 13 46  1  0
 13 47  1  0
 14 48  1  0
 14 49  1  0
 16 50  1  0
 17 51  1  0
 17 52  1  0
 18 53  1  0
 18 54  1  0
 19 55  1  0
 19 56  1  0
 20 57  1  0
 20 58  1  0
 23 59  1  0
 23 60  1  0
 25 61  1  0
 25 62  1  0
 27 63  1  0
 28 64  1  0
 29 65  1  0
 30 66  1  0
 31 67  1  0
 34 68  1  0
M  END
$$$$
