
     RDKit          3D

 68 73  0  0  0  0  0  0  0  0999 V2000
   -4.2881    5.1008   -1.8917 C   0  0  0  0  0  0  0  0  0  0  0  0
   -3.3022    4.1179   -1.5999 O   0  0  0  0  0  0  0  0  0  0  0  0
   -3.2729    3.6249   -0.3233 C   0  0  0  0  0  0  0  0  0  0  0  0
   -4.0482    4.0941    0.7531 C   0  0  0  0  0  0  0  0  0  0  0  0
   -3.9427    3.5078    2.0202 C   0  0  0  0  0  0  0  0  0  0  0  0
   -3.0436    2.4732    2.1751 C   0  0  0  0  0  0  0  0  0  0  0  0
   -2.2420    2.0052    1.1295 C   0  0  0  0  0  0  0  0  0  0  0  0
   -2.3685    2.5698   -0.1329 C   0  0  0  0  0  0  0  0  0  0  0  0
   -1.3809    0.8790    1.6372 C   0  0  1  0  0  0  0  0  0  0  0  0
   -1.8675    0.7412    3.1244 C   0  0  0  0  0  0  0  0  0  0  0  0
   -1.5144   -0.0617    3.9762 O   0  0  0  0  0  0  0  0  0  0  0  0
   -2.8224    1.7395    3.3301 N   0  0  0  0  0  0  0  0  0  0  0  0
   -1.6508   -0.3451    0.8512 C   0  0  0  0  0  0  0  0  0  0  0  0
   -0.4669   -1.0401    0.6209 C   0  0  0  0  0  0  0  0  0  0  0  0
   -0.7493   -2.1878   -0.0729 C   0  0  0  0  0  0  0  0  0  0  0  0
    0.0640   -3.1781   -0.4333 O   0  0  0  0  0  0  0  0  0  0  0  0
   -2.1409   -2.2051   -0.3192 N   0  0  0  0  0  0  0  0  0  0  0  0
   -2.8659   -3.2276   -1.0252 C   0  0  0  0  0  0  0  0  0  0  0  0
   -2.2220   -4.0507   -1.9609 C   0  0  0  0  0  0  0  0  0  0  0  0
   -2.9251   -5.0521   -2.6404 C   0  0  0  0  0  0  0  0  0  0  0  0
   -4.2807   -5.2452   -2.3941 C   0  0  0  0  0  0  0  0  0  0  0  0
   -4.9345   -4.4337   -1.4722 C   0  0  0  0  0  0  0  0  0  0  0  0
   -4.2333   -3.4317   -0.7905 C   0  0  0  0  0  0  0  0  0  0  0  0
   -2.6854   -1.0409    0.2743 C   0  0  0  0  0  0  0  0  0  0  0  0
   -3.9768   -0.7272    0.1906 O   0  0  0  0  0  0  0  0  0  0  0  0
    0.7016   -0.3370    1.2039 C   0  0  1  0  0  0  0  0  0  0  0  0
    1.8959   -0.2556    0.2263 C   0  0  0  0  0  0  0  0  0  0  0  0
    2.8193    0.8268    0.5605 N   0  0  0  0  0  0  0  0  0  0  0  0
    4.1904    0.7335    0.4443 C   0  0  0  0  0  0  0  0  0  0  0  0
    4.9489    1.6652    0.6785 O   0  0  0  0  0  0  0  0  0  0  0  0
    4.5844   -0.4985    0.0352 O   0  0  0  0  0  0  0  0  0  0  0  0
    5.9877   -0.8223   -0.1414 C   0  0  0  0  0  0  0  0  0  0  0  0
    6.7596   -0.6975    1.1771 C   0  0  0  0  0  0  0  0  0  0  0  0
    6.6141    0.0177   -1.2601 C   0  0  0  0  0  0  0  0  0  0  0  0
    5.9922   -2.2998   -0.5708 C   0  0  0  0  0  0  0  0  0  0  0  0
    2.2259    2.1102    0.9194 C   0  0  0  0  0  0  0  0  0  0  0  0
    0.6854    2.1037    0.8625 C   0  0  0  0  0  0  0  0  0  0  0  0
    0.1170    0.9947    1.6354 N   0  0  0  0  0  0  0  0  0  0  0  0
   -5.2977    4.7171   -1.7108 H   0  0  0  0  0  0  0  0  0  0  0  0
   -4.2084    5.3515   -2.9552 H   0  0  0  0  0  0  0  0  0  0  0  0
   -4.1038    6.0198   -1.3268 H   0  0  0  0  0  0  0  0  0  0  0  0
   -4.7473    4.9162    0.6306 H   0  0  0  0  0  0  0  0  0  0  0  0
   -4.5548    3.8620    2.8428 H   0  0  0  0  0  0  0  0  0  0  0  0
   -1.7849    2.2014   -0.9742 H   0  0  0  0  0  0  0  0  0  0  0  0
   -3.2891    1.8628    4.2164 H   0  0  0  0  0  0  0  0  0  0  0  0
    0.8910   -3.0966    0.0715 H   0  0  0  0  0  0  0  0  0  0  0  0
   -1.1749   -3.9191   -2.2138 H   0  0  0  0  0  0  0  0  0  0  0  0
   -2.4093   -5.6754   -3.3665 H   0  0  0  0  0  0  0  0  0  0  0  0
   -4.8237   -6.0248   -2.9200 H   0  0  0  0  0  0  0  0  0  0  0  0
   -5.9924   -4.5822   -1.2715 H   0  0  0  0  0  0  0  0  0  0  0  0
   -4.7776   -2.8532   -0.0512 H   0  0  0  0  0  0  0  0  0  0  0  0
   -4.1051    0.1600    0.5691 H   0  0  0  0  0  0  0  0  0  0  0  0
    1.0217   -0.8497    2.1205 H   0  0  0  0  0  0  0  0  0  0  0  0
    1.5531   -0.0622   -0.7989 H   0  0  0  0  0  0  0  0  0  0  0  0
    2.4114   -1.2225    0.2054 H   0  0  0  0  0  0  0  0  0  0  0  0
    6.2426   -1.2300    1.9839 H   0  0  0  0  0  0  0  0  0  0  0  0
    6.8545    0.3436    1.5002 H   0  0  0  0  0  0  0  0  0  0  0  0
    7.7734   -1.1072    1.0874 H   0  0  0  0  0  0  0  0  0  0  0  0
    7.6240   -0.3291   -1.4994 H   0  0  0  0  0  0  0  0  0  0  0  0
    6.0051   -0.0317   -2.1709 H   0  0  0  0  0  0  0  0  0  0  0  0
    6.6866    1.0756   -0.9880 H   0  0  0  0  0  0  0  0  0  0  0  0
    7.0094   -2.6715   -0.7399 H   0  0  0  0  0  0  0  0  0  0  0  0
    5.5142   -2.9265    0.1940 H   0  0  0  0  0  0  0  0  0  0  0  0
    5.4131   -2.4381   -1.4914 H   0  0  0  0  0  0  0  0  0  0  0  0
    2.5770    2.3754    1.9267 H   0  0  0  0  0  0  0  0  0  0  0  0
    2.6151    2.8697    0.2266 H   0  0  0  0  0  0  0  0  0  0  0  0
    0.3853    2.0316   -0.1906 H   0  0  0  0  0  0  0  0  0  0  0  0
    0.3307    3.0660    1.2509 H   0  0  0  0  0  0  0  0  0  0  0  0
  1  2  1  0
  2  3  1  0
  3  4  2  0
  4  5  1  0
  5  6  2  0
  6  7  1  0
  7  8  2  0
  7  9  1  0
  9 10  1  0
 10 11  2  0
 10 12  1  0
  9 13  1  0
 13 14  1  0
 14 15  2  0
 15 16  1  0
 15 17  1  0
 17 18  1  0
 18 19  2  0
 19 20  1  0
 20 21  2  0
 21 22  1  0
 22 23  2  0
 17 24  1  0
 24 25  1  0
 14 26  1  0
 26 27  1  0
 27 28  1  0
 28 29  1  0
 29 30  2  0
 29 31  1  0
 31 32  1  0
 32 33  1  0
 32 34  1  0
 32 35  1  0
 28 36  1  0
 36 37  1  0
 37 38  1  0
  8  3  1  0
  9 38  1  1
 12  6  1  0
 24 13  2  0
 38 26  1  0
 23 18  1  0
  1 39  1  0
  1 40  1  0
  1 41  1  0
  4 42  1  0
  5 43  1  0
  8 44  1  0
 12 45  1  0
 16 46  1  0
 19 47  1  0
 20 48  1  0
 21 49  1  0
 22 50  1  0
 23 51  1  0
 25 52  1  0
 26 53  1  1
 27 54  1  0
 27 55  1  0
 33 56  1  0
 33 57  1  0
 33 58  1  0
 34 59  1  0
 34 60  1  0
 34 61  1  0
 35 62  1  0
 35 63  1  0
 35 64  1  0
 36 65  1  0
 36 66  1  0
 37 67  1  0
 37 68  1  0
M  END
$$$$
