
     RDKit          3D

 46 48  0  0  0  0  0  0  0  0999 V2000
   -6.1358    0.0455    2.9263 C   0  0  0  0  0  0  0  0  0  0  0  0
   -5.4445    0.6645    1.7198 C   0  0  0  0  0  0  0  0  0  0  0  0
   -5.7780   -0.1051    0.4439 C   0  0  0  0  0  0  0  0  0  0  0  0
   -4.9623    0.6223   -1.0199 S   0  0  0  0  0  0  0  0  0  0  0  0
   -3.2775    0.0413   -0.8367 C   0  0  0  0  0  0  0  0  0  0  0  0
   -3.0675   -0.9198    0.0974 N   0  0  0  0  0  0  0  0  0  0  0  0
   -1.8114   -1.4086    0.2855 C   0  0  0  0  0  0  0  0  0  0  0  0
   -1.6865   -2.4211    1.3881 C   0  0  0  0  0  0  0  0  0  0  0  0
   -0.7259   -0.9854   -0.4840 C   0  0  0  0  0  0  0  0  0  0  0  0
    0.6282   -1.4877   -0.3321 C   0  0  0  0  0  0  0  0  0  0  0  0
    0.9783   -2.8176   -0.3938 C   0  0  0  0  0  0  0  0  0  0  0  0
    2.6696   -2.9824   -0.2022 S   0  0  0  0  0  0  0  0  0  0  0  0
    2.8405   -1.2522   -0.0802 C   0  0  0  0  0  0  0  0  0  0  0  0
    4.1400   -0.6629    0.0960 C   0  0  0  0  0  0  0  0  0  0  0  0
    5.1030   -1.3279    0.9215 C   0  0  0  0  0  0  0  0  0  0  0  0
    5.8879   -1.8598    1.5919 N   0  0  0  0  0  0  0  0  0  0  0  0
    4.4498    0.5208   -0.4851 C   0  0  0  0  0  0  0  0  0  0  0  0
    3.5544    1.3482   -1.3842 C   0  0  0  0  0  0  0  0  0  0  0  0
    4.3691    2.6031   -1.6810 C   0  0  0  0  0  0  0  0  0  0  0  0
    5.8109    2.1411   -1.5826 C   0  0  0  0  0  0  0  0  0  0  0  0
    5.8013    1.1982   -0.3883 C   0  0  0  0  0  0  0  0  0  0  0  0
    1.6876   -0.6120   -0.1883 N   0  0  0  0  0  0  0  0  0  0  0  0
   -0.9576    0.0136   -1.4370 C   0  0  0  0  0  0  0  0  0  0  0  0
   -2.2422    0.5363   -1.6237 C   0  0  0  0  0  0  0  0  0  0  0  0
   -2.4362    1.5534   -2.6113 C   0  0  0  0  0  0  0  0  0  0  0  0
   -2.5441    2.3762   -3.4232 N   0  0  0  0  0  0  0  0  0  0  0  0
   -5.8039   -0.9866    3.0803 H   0  0  0  0  0  0  0  0  0  0  0  0
   -5.9005    0.6147    3.8308 H   0  0  0  0  0  0  0  0  0  0  0  0
   -7.2233    0.0422    2.7998 H   0  0  0  0  0  0  0  0  0  0  0  0
   -5.7673    1.7086    1.6256 H   0  0  0  0  0  0  0  0  0  0  0  0
   -4.3655    0.6722    1.9062 H   0  0  0  0  0  0  0  0  0  0  0  0
   -5.5319   -1.1683    0.5347 H   0  0  0  0  0  0  0  0  0  0  0  0
   -6.8579   -0.0509    0.2636 H   0  0  0  0  0  0  0  0  0  0  0  0
   -1.5535   -3.4244    0.9741 H   0  0  0  0  0  0  0  0  0  0  0  0
   -0.8504   -2.1783    2.0512 H   0  0  0  0  0  0  0  0  0  0  0  0
   -2.5939   -2.4323    2.0014 H   0  0  0  0  0  0  0  0  0  0  0  0
    0.3510   -3.6850   -0.5448 H   0  0  0  0  0  0  0  0  0  0  0  0
    2.6100    1.6282   -0.9096 H   0  0  0  0  0  0  0  0  0  0  0  0
    3.3504    0.8054   -2.3135 H   0  0  0  0  0  0  0  0  0  0  0  0
    4.1672    3.3725   -0.9253 H   0  0  0  0  0  0  0  0  0  0  0  0
    4.1334    3.0252   -2.6629 H   0  0  0  0  0  0  0  0  0  0  0  0
    6.5060    2.9749   -1.4463 H   0  0  0  0  0  0  0  0  0  0  0  0
    6.1004    1.6019   -2.4930 H   0  0  0  0  0  0  0  0  0  0  0  0
    5.8625    1.7679    0.5459 H   0  0  0  0  0  0  0  0  0  0  0  0
    6.6435    0.5026   -0.4426 H   0  0  0  0  0  0  0  0  0  0  0  0
   -0.1273    0.3874   -2.0367 H   0  0  0  0  0  0  0  0  0  0  0  0
  1  2  1  0
  2  3  1  0
  3  4  1  0
  4  5  1  0
  5  6  2  0
  6  7  1  0
  7  8  1  0
  7  9  2  0
  9 10  1  0
 10 11  2  0
 11 12  1  0
 12 13  1  0
 13 14  1  0
 14 15  1  0
 15 16  3  0
 14 17  2  3
 17 18  1  0
 18 19  1  0
 19 20  1  0
 20 21  1  0
 13 22  2  0
  9 23  1  0
 23 24  2  0
 24 25  1  0
 25 26  3  0
 24  5  1  0
 22 10  1  0
 21 17  1  0
  1 27  1  0
  1 28  1  0
  1 29  1  0
  2 30  1  0
  2 31  1  0
  3 32  1  0
  3 33  1  0
  8 34  1  0
  8 35  1  0
  8 36  1  0
 11 37  1  0
 18 38  1  0
 18 39  1  0
 19 40  1  0
 19 41  1  0
 20 42  1  0
 20 43  1  0
 21 44  1  0
 21 45  1  0
 23 46  1  0
M  END
$$$$
