
     RDKit          3D

 45 47  0  0  0  0  0  0  0  0999 V2000
   -4.1348   -2.3659    3.3944 C   0  0  0  0  0  0  0  0  0  0  0  0
   -3.4661   -1.8666    2.2419 O   0  0  0  0  0  0  0  0  0  0  0  0
   -4.2476   -1.2624    1.2817 C   0  0  0  0  0  0  0  0  0  0  0  0
   -5.6376   -1.1288    1.3490 C   0  0  0  0  0  0  0  0  0  0  0  0
   -6.3307   -0.4964    0.3152 C   0  0  0  0  0  0  0  0  0  0  0  0
   -5.6405    0.0036   -0.7858 C   0  0  0  0  0  0  0  0  0  0  0  0
   -4.2521   -0.1248   -0.8624 C   0  0  0  0  0  0  0  0  0  0  0  0
   -3.5477   -0.7566    0.1639 C   0  0  0  0  0  0  0  0  0  0  0  0
   -2.1447   -0.9245    0.1644 N   0  0  0  0  0  0  0  0  0  0  0  0
   -1.2318   -0.5327   -0.7946 C   0  0  0  0  0  0  0  0  0  0  0  0
   -1.4912    0.0214   -1.8572 O   0  0  0  0  0  0  0  0  0  0  0  0
    0.2074   -0.8874   -0.4031 C   0  0  0  0  0  0  0  0  0  0  0  0
    1.1817   -0.6300   -1.5622 C   0  0  0  0  0  0  0  0  0  0  0  0
    1.6302    0.8273   -1.6267 C   0  0  0  0  0  0  0  0  0  0  0  0
    2.1923    1.2773   -0.3349 N   0  0  0  0  0  0  0  0  0  0  0  0
    3.5016    2.3513   -0.3684 S   0  0  0  0  0  6  0  0  0  0  0  0
    3.7360    2.8120    0.9835 O   0  0  0  0  0  0  0  0  0  0  0  0
    3.3027    3.2646   -1.4728 O   0  0  0  0  0  0  0  0  0  0  0  0
    4.9646    1.4250   -0.7976 C   0  0  0  0  0  0  0  0  0  0  0  0
    5.1860    0.1034   -1.1380 C   0  0  0  0  0  0  0  0  0  0  0  0
    6.5600   -0.1683   -1.4047 C   0  0  0  0  0  0  0  0  0  0  0  0
    7.3426    0.9552   -1.2617 C   0  0  0  0  0  0  0  0  0  0  0  0
    6.4236    2.3248   -0.8097 S   0  0  0  0  0  0  0  0  0  0  0  0
    2.0543    0.3753    0.8169 C   0  0  0  0  0  0  0  0  0  0  0  0
    0.6201   -0.1392    0.8760 C   0  0  0  0  0  0  0  0  0  0  0  0
   -4.6292   -1.5587    3.9446 H   0  0  0  0  0  0  0  0  0  0  0  0
   -4.8419   -3.1585    3.1291 H   0  0  0  0  0  0  0  0  0  0  0  0
   -3.3791   -2.8034    4.0544 H   0  0  0  0  0  0  0  0  0  0  0  0
   -6.2124   -1.5028    2.1890 H   0  0  0  0  0  0  0  0  0  0  0  0
   -7.4116   -0.3924    0.3690 H   0  0  0  0  0  0  0  0  0  0  0  0
   -6.1802    0.4981   -1.5899 H   0  0  0  0  0  0  0  0  0  0  0  0
   -3.7500    0.2806   -1.7348 H   0  0  0  0  0  0  0  0  0  0  0  0
   -1.8035   -1.4017    0.9930 H   0  0  0  0  0  0  0  0  0  0  0  0
    0.2166   -1.9687   -0.2074 H   0  0  0  0  0  0  0  0  0  0  0  0
    0.7432   -0.9246   -2.5230 H   0  0  0  0  0  0  0  0  0  0  0  0
    2.0632   -1.2696   -1.4267 H   0  0  0  0  0  0  0  0  0  0  0  0
    0.7871    1.4799   -1.8778 H   0  0  0  0  0  0  0  0  0  0  0  0
    2.3704    0.9252   -2.4279 H   0  0  0  0  0  0  0  0  0  0  0  0
    4.3998   -0.6365   -1.1962 H   0  0  0  0  0  0  0  0  0  0  0  0
    6.9552   -1.1364   -1.6890 H   0  0  0  0  0  0  0  0  0  0  0  0
    8.4117    1.0422   -1.4019 H   0  0  0  0  0  0  0  0  0  0  0  0
    2.2617    0.9097    1.7496 H   0  0  0  0  0  0  0  0  0  0  0  0
    2.7628   -0.4561    0.7420 H   0  0  0  0  0  0  0  0  0  0  0  0
    0.5083   -0.8057    1.7398 H   0  0  0  0  0  0  0  0  0  0  0  0
   -0.0501    0.7120    1.0569 H   0  0  0  0  0  0  0  0  0  0  0  0
  1  2  1  0
  2  3  1  0
  3  4  2  0
  4  5  1  0
  5  6  2  0
  6  7  1  0
  7  8  2  0
  8  9  1  0
  9 10  1  0
 10 11  2  0
 10 12  1  0
 12 13  1  0
 13 14  1  0
 14 15  1  0
 15 16  1  0
 16 17  2  0
 16 18  2  0
 16 19  1  0
 19 20  2  0
 20 21  1  0
 21 22  2  0
 22 23  1  0
 15 24  1  0
 24 25  1  0
  8  3  1  0
 25 12  1  0
 23 19  1  0
  1 26  1  0
  1 27  1  0
  1 28  1  0
  4 29  1  0
  5 30  1  0
  6 31  1  0
  7 32  1  0
  9 33  1  0
 12 34  1  0
 13 35  1  0
 13 36  1  0
 14 37  1  0
 14 38  1  0
 20 39  1  0
 21 40  1  0
 22 41  1  0
 24 42  1  0
 24 43  1  0
 25 44  1  0
 25 45  1  0
M  END
$$$$
