
     RDKit          3D

 37 39  0  0  0  0  0  0  0  0999 V2000
    0.5394    1.5812    1.3875 O   0  0  0  0  0  0  0  0  0  0  0  0
    0.8266    0.5921    0.7243 C   0  0  0  0  0  0  0  0  0  0  0  0
    2.2150    0.2677    0.2963 C   0  0  0  0  0  0  0  0  0  0  0  0
    3.2446    1.0742    0.5894 C   0  0  0  0  0  0  0  0  0  0  0  0
    4.6481    0.8425    0.2334 C   0  0  0  0  0  0  0  0  0  0  0  0
    5.5850    0.6211    1.2501 C   0  0  0  0  0  0  0  0  0  0  0  0
    6.9295    0.4087    0.9372 C   0  0  0  0  0  0  0  0  0  0  0  0
    7.3471    0.4225   -0.3932 C   0  0  0  0  0  0  0  0  0  0  0  0
    6.4168    0.6526   -1.4051 C   0  0  0  0  0  0  0  0  0  0  0  0
    6.9826    0.6783   -3.2091 Br  0  0  0  0  0  0  0  0  0  0  0  0
    5.0723    0.8665   -1.1003 C   0  0  0  0  0  0  0  0  0  0  0  0
    2.2538   -1.2326   -0.5433 S   0  0  0  0  0  0  0  0  0  0  0  0
    0.5261   -1.5112   -0.3301 C   0  0  0  0  0  0  0  0  0  0  0  0
   -0.1991   -2.9467   -0.7863 S   0  0  0  0  0  0  0  0  0  0  0  0
   -0.0441   -0.3897    0.2605 N   0  0  0  0  0  0  0  0  0  0  0  0
   -1.3627   -0.3121    0.6726 N   0  0  0  0  0  0  0  0  0  0  0  0
   -2.2578   -0.3916   -0.2624 C   0  0  0  0  0  0  0  0  0  0  0  0
   -3.7009   -0.3469    0.0531 C   0  0  0  0  0  0  0  0  0  0  0  0
   -4.6040   -0.5250   -1.0011 C   0  0  0  0  0  0  0  0  0  0  0  0
   -5.9822   -0.4940   -0.7370 C   0  0  0  0  0  0  0  0  0  0  0  0
   -6.9349   -0.6787   -1.8396 N   0  0  0  0  0  4  0  0  0  0  0  0
   -8.1422   -0.6899   -1.5644 O   0  0  0  0  0  0  0  0  0  0  0  0
   -6.4699   -0.8101   -2.9806 O   0  0  0  0  0  1  0  0  0  0  0  0
   -6.4595   -0.2878    0.5642 C   0  0  0  0  0  0  0  0  0  0  0  0
   -5.5499   -0.1093    1.6079 C   0  0  0  0  0  0  0  0  0  0  0  0
   -4.1790   -0.1373    1.3535 C   0  0  0  0  0  0  0  0  0  0  0  0
   -3.3647    0.0558    2.4340 O   0  0  0  0  0  0  0  0  0  0  0  0
    3.0702    1.9850    1.1620 H   0  0  0  0  0  0  0  0  0  0  0  0
    5.2757    0.6069    2.2934 H   0  0  0  0  0  0  0  0  0  0  0  0
    7.6509    0.2324    1.7314 H   0  0  0  0  0  0  0  0  0  0  0  0
    8.3948    0.2557   -0.6293 H   0  0  0  0  0  0  0  0  0  0  0  0
    4.3596    1.0530   -1.8995 H   0  0  0  0  0  0  0  0  0  0  0  0
   -1.9830   -0.4772   -1.3299 H   0  0  0  0  0  0  0  0  0  0  0  0
   -4.2390   -0.6910   -2.0126 H   0  0  0  0  0  0  0  0  0  0  0  0
   -7.5257   -0.2619    0.7818 H   0  0  0  0  0  0  0  0  0  0  0  0
   -5.9074    0.0541    2.6225 H   0  0  0  0  0  0  0  0  0  0  0  0
   -2.4317    0.0426    2.1296 H   0  0  0  0  0  0  0  0  0  0  0  0
  1  2  2  0
  2  3  1  0
  3  4  2  3
  4  5  1  0
  5  6  2  0
  6  7  1  0
  7  8  2  0
  8  9  1  0
  9 10  1  0
  9 11  2  0
  3 12  1  0
 12 13  1  0
 13 14  2  0
 13 15  1  0
 15 16  1  0
 16 17  2  3
 17 18  1  0
 18 19  2  0
 19 20  1  0
 20 21  1  0
 21 22  2  0
 21 23  1  0
 20 24  2  0
 24 25  1  0
 25 26  2  0
 26 27  1  0
 15  2  1  0
 26 18  1  0
 11  5  1  0
  4 28  1  0
  6 29  1  0
  7 30  1  0
  8 31  1  0
 11 32  1  0
 17 33  1  0
 19 34  1  0
 24 35  1  0
 25 36  1  0
 27 37  1  0
M  CHG  2  21   1  23  -1
M  END
$$$$
