
     RDKit          3D

 45 47  0  0  0  0  0  0  0  0999 V2000
    8.3631    0.3505    0.8439 C   0  0  0  0  0  0  0  0  0  0  0  0
    6.9204   -0.1173    0.7891 C   0  0  0  0  0  0  0  0  0  0  0  0
    6.1106    0.9958    0.4154 O   0  0  0  0  0  0  0  0  0  0  0  0
    4.7639    0.7800    0.3231 C   0  0  0  0  0  0  0  0  0  0  0  0
    4.1081   -0.4310    0.5344 C   0  0  0  0  0  0  0  0  0  0  0  0
    2.7137   -0.5149    0.4075 C   0  0  0  0  0  0  0  0  0  0  0  0
    1.9596    0.6105    0.0736 C   0  0  0  0  0  0  0  0  0  0  0  0
    0.5585    0.6051   -0.0720 N   0  0  0  0  0  0  0  0  0  0  0  0
   -0.3114   -0.4340    0.1760 C   0  0  0  0  0  0  0  0  0  0  0  0
   -0.0296   -1.5376    0.6226 O   0  0  0  0  0  0  0  0  0  0  0  0
   -1.6053   -0.0707   -0.1274 N   0  0  0  0  0  0  0  0  0  0  0  0
   -2.7081   -1.0125    0.0106 C   0  0  0  0  0  0  0  0  0  0  0  0
   -2.7369   -2.0193   -1.1518 C   0  0  0  0  0  0  0  0  0  0  0  0
   -3.2754   -1.3767   -2.4263 C   0  0  0  0  0  0  0  0  0  0  0  0
   -4.7145   -0.9097   -2.2228 C   0  0  0  0  0  0  0  0  0  0  0  0
   -4.9214   -0.1478   -0.9374 C   0  0  0  0  0  0  0  0  0  0  0  0
   -6.0937    0.6084   -0.7795 C   0  0  0  0  0  0  0  0  0  0  0  0
   -6.3444    1.2955    0.4082 C   0  0  0  0  0  0  0  0  0  0  0  0
   -5.4310    1.2292    1.4556 C   0  0  0  0  0  0  0  0  0  0  0  0
   -4.2682    0.4729    1.3163 C   0  0  0  0  0  0  0  0  0  0  0  0
   -4.0027   -0.2285    0.1269 C   0  0  0  0  0  0  0  0  0  0  0  0
    2.6226    1.8228   -0.1434 C   0  0  0  0  0  0  0  0  0  0  0  0
    4.0131    1.9043   -0.0194 C   0  0  0  0  0  0  0  0  0  0  0  0
    8.6880    0.7112   -0.1378 H   0  0  0  0  0  0  0  0  0  0  0  0
    8.4712    1.1880    1.5410 H   0  0  0  0  0  0  0  0  0  0  0  0
    9.0252   -0.4613    1.1572 H   0  0  0  0  0  0  0  0  0  0  0  0
    6.8323   -0.9198    0.0472 H   0  0  0  0  0  0  0  0  0  0  0  0
    6.6258   -0.4846    1.7790 H   0  0  0  0  0  0  0  0  0  0  0  0
    4.6441   -1.3357    0.7993 H   0  0  0  0  0  0  0  0  0  0  0  0
    2.2482   -1.4804    0.5779 H   0  0  0  0  0  0  0  0  0  0  0  0
    0.1263    1.4927   -0.2765 H   0  0  0  0  0  0  0  0  0  0  0  0
   -1.7385    0.6746   -0.7919 H   0  0  0  0  0  0  0  0  0  0  0  0
   -2.5539   -1.5813    0.9369 H   0  0  0  0  0  0  0  0  0  0  0  0
   -3.3820   -2.8663   -0.8826 H   0  0  0  0  0  0  0  0  0  0  0  0
   -1.7387   -2.4298   -1.3399 H   0  0  0  0  0  0  0  0  0  0  0  0
   -2.6428   -0.5282   -2.7143 H   0  0  0  0  0  0  0  0  0  0  0  0
   -3.2380   -2.0946   -3.2537 H   0  0  0  0  0  0  0  0  0  0  0  0
   -5.3790   -1.7825   -2.2091 H   0  0  0  0  0  0  0  0  0  0  0  0
   -5.0060   -0.2865   -3.0767 H   0  0  0  0  0  0  0  0  0  0  0  0
   -6.8234    0.6619   -1.5856 H   0  0  0  0  0  0  0  0  0  0  0  0
   -7.2550    1.8787    0.5174 H   0  0  0  0  0  0  0  0  0  0  0  0
   -5.6233    1.7639    2.3823 H   0  0  0  0  0  0  0  0  0  0  0  0
   -3.5588    0.4304    2.1414 H   0  0  0  0  0  0  0  0  0  0  0  0
    2.0731    2.7208   -0.4106 H   0  0  0  0  0  0  0  0  0  0  0  0
    4.5146    2.8538   -0.1896 H   0  0  0  0  0  0  0  0  0  0  0  0
  1  2  1  0
  2  3  1  0
  3  4  1  0
  4  5  2  0
  5  6  1  0
  6  7  2  0
  7  8  1  0
  8  9  1  0
  9 10  2  0
  9 11  1  0
 11 12  1  0
 12 13  1  0
 13 14  1  0
 14 15  1  0
 15 16  1  0
 16 17  2  0
 17 18  1  0
 18 19  2  0
 19 20  1  0
 20 21  2  0
  7 22  1  0
 22 23  2  0
 23  4  1  0
 21 12  1  0
 21 16  1  0
  1 24  1  0
  1 25  1  0
  1 26  1  0
  2 27  1  0
  2 28  1  0
  5 29  1  0
  6 30  1  0
  8 31  1  0
 11 32  1  0
 12 33  1  0
 13 34  1  0
 13 35  1  0
 14 36  1  0
 14 37  1  0
 15 38  1  0
 15 39  1  0
 17 40  1  0
 18 41  1  0
 19 42  1  0
 20 43  1  0
 22 44  1  0
 23 45  1  0
M  END
$$$$
