
     RDKit          3D

 61 64  0  0  0  0  0  0  0  0999 V2000
    8.7922   -0.4681    2.8810 C   0  0  0  0  0  0  0  0  0  0  0  0
    8.0080   -0.0747    1.6651 C   0  0  0  0  0  0  0  0  0  0  0  0
    7.8754   -0.9572    0.5879 C   0  0  0  0  0  0  0  0  0  0  0  0
    7.1739   -0.5746   -0.5572 C   0  0  0  0  0  0  0  0  0  0  0  0
    6.6063    0.7034   -0.6519 C   0  0  0  0  0  0  0  0  0  0  0  0
    5.8477    1.1064   -1.8890 C   0  0  0  0  0  0  0  0  0  0  0  0
    4.5331    0.4951   -1.9778 N   0  0  0  0  0  0  0  0  0  0  0  0
    3.5507    0.6302   -0.9272 C   0  0  0  0  0  0  0  0  0  0  0  0
    2.3438   -0.1309   -1.4597 C   0  0  0  0  0  0  0  0  0  0  0  0
    1.0345    0.4009   -0.9030 C   0  0  0  0  0  0  0  0  0  0  0  0
    1.0105    1.2701   -0.0404 O   0  0  0  0  0  0  0  0  0  0  0  0
   -0.0666   -0.2311   -1.4629 N   0  0  0  0  0  0  0  0  0  0  0  0
   -1.4291    0.0416   -1.2232 C   0  0  0  0  0  0  0  0  0  0  0  0
   -2.3648   -0.7388   -1.9209 C   0  0  0  0  0  0  0  0  0  0  0  0
   -3.7372   -0.5279   -1.7600 C   0  0  0  0  0  0  0  0  0  0  0  0
   -4.1773    0.4681   -0.8885 C   0  0  0  0  0  0  0  0  0  0  0  0
   -5.9141    0.7848   -0.6968 S   0  0  0  0  0  6  0  0  0  0  0  0
   -6.0908    2.2210   -0.7057 O   0  0  0  0  0  0  0  0  0  0  0  0
   -6.6359   -0.0627   -1.6231 O   0  0  0  0  0  0  0  0  0  0  0  0
   -6.2374    0.2112    0.8815 N   0  0  0  0  0  0  0  0  0  0  0  0
   -5.9374   -1.2327    1.1098 C   0  0  0  0  0  0  0  0  0  0  0  0
   -6.5672   -1.7179    2.4100 C   0  0  0  0  0  0  0  0  0  0  0  0
   -8.0913   -1.6131    2.3613 C   0  0  0  0  0  0  0  0  0  0  0  0
   -8.5638   -0.4656    1.4714 C   0  0  0  0  0  0  0  0  0  0  0  0
   -7.5484    0.6674    1.4355 C   0  0  0  0  0  0  0  0  0  0  0  0
   -3.2612    1.2554   -0.1902 C   0  0  0  0  0  0  0  0  0  0  0  0
   -1.8891    1.0377   -0.3578 C   0  0  0  0  0  0  0  0  0  0  0  0
    2.4530    0.0456   -2.9746 C   0  0  0  0  0  0  0  0  0  0  0  0
    3.9154    0.3256   -3.2070 C   0  0  0  0  0  0  0  0  0  0  0  0
    4.4389    0.4086   -4.3064 O   0  0  0  0  0  0  0  0  0  0  0  0
    6.7461    1.5889    0.4249 C   0  0  0  0  0  0  0  0  0  0  0  0
    7.4456    1.2042    1.5710 C   0  0  0  0  0  0  0  0  0  0  0  0
    8.8050   -1.5570    3.0075 H   0  0  0  0  0  0  0  0  0  0  0  0
    8.3467   -0.0402    3.7857 H   0  0  0  0  0  0  0  0  0  0  0  0
    9.8239   -0.1128    2.7894 H   0  0  0  0  0  0  0  0  0  0  0  0
    8.3167   -1.9505    0.6313 H   0  0  0  0  0  0  0  0  0  0  0  0
    7.0736   -1.2786   -1.3816 H   0  0  0  0  0  0  0  0  0  0  0  0
    6.4357    0.8398   -2.7761 H   0  0  0  0  0  0  0  0  0  0  0  0
    5.7111    2.1946   -1.9297 H   0  0  0  0  0  0  0  0  0  0  0  0
    3.9194    0.1942    0.0061 H   0  0  0  0  0  0  0  0  0  0  0  0
    3.3570    1.6976   -0.7774 H   0  0  0  0  0  0  0  0  0  0  0  0
    2.4307   -1.1942   -1.1988 H   0  0  0  0  0  0  0  0  0  0  0  0
    0.1172   -0.9710   -2.1304 H   0  0  0  0  0  0  0  0  0  0  0  0
   -2.0400   -1.5150   -2.6097 H   0  0  0  0  0  0  0  0  0  0  0  0
   -4.4453   -1.1331   -2.3199 H   0  0  0  0  0  0  0  0  0  0  0  0
   -4.8524   -1.3570    1.1830 H   0  0  0  0  0  0  0  0  0  0  0  0
   -6.2989   -1.8434    0.2752 H   0  0  0  0  0  0  0  0  0  0  0  0
   -6.1889   -1.1107    3.2457 H   0  0  0  0  0  0  0  0  0  0  0  0
   -6.2722   -2.7548    2.6168 H   0  0  0  0  0  0  0  0  0  0  0  0
   -8.4707   -1.4778    3.3809 H   0  0  0  0  0  0  0  0  0  0  0  0
   -8.5237   -2.5517    1.9936 H   0  0  0  0  0  0  0  0  0  0  0  0
   -9.5327   -0.0995    1.8276 H   0  0  0  0  0  0  0  0  0  0  0  0
   -8.7239   -0.8417    0.4535 H   0  0  0  0  0  0  0  0  0  0  0  0
   -7.3702    1.0562    2.4444 H   0  0  0  0  0  0  0  0  0  0  0  0
   -7.9561    1.5004    0.8558 H   0  0  0  0  0  0  0  0  0  0  0  0
   -3.6065    2.0415    0.4779 H   0  0  0  0  0  0  0  0  0  0  0  0
   -1.2059    1.6742    0.1955 H   0  0  0  0  0  0  0  0  0  0  0  0
    1.8652    0.8923   -3.3461 H   0  0  0  0  0  0  0  0  0  0  0  0
    2.1606   -0.8702   -3.4978 H   0  0  0  0  0  0  0  0  0  0  0  0
    6.3129    2.5856    0.3790 H   0  0  0  0  0  0  0  0  0  0  0  0
    7.5480    1.9119    2.3909 H   0  0  0  0  0  0  0  0  0  0  0  0
  1  2  1  0
  2  3  2  0
  3  4  1  0
  4  5  2  0
  5  6  1  0
  6  7  1  0
  7  8  1  0
  8  9  1  0
  9 10  1  0
 10 11  2  0
 10 12  1  0
 12 13  1  0
 13 14  2  0
 14 15  1  0
 15 16  2  0
 16 17  1  0
 17 18  2  0
 17 19  2  0
 17 20  1  0
 20 21  1  0
 21 22  1  0
 22 23  1  0
 23 24  1  0
 24 25  1  0
 16 26  1  0
 26 27  2  0
  9 28  1  0
 28 29  1  0
 29 30  2  0
  5 31  1  0
 31 32  2  0
 32  2  1  0
 29  7  1  0
 27 13  1  0
 25 20  1  0
  1 33  1  0
  1 34  1  0
  1 35  1  0
  3 36  1  0
  4 37  1  0
  6 38  1  0
  6 39  1  0
  8 40  1  0
  8 41  1  0
  9 42  1  0
 12 43  1  0
 14 44  1  0
 15 45  1  0
 21 46  1  0
 21 47  1  0
 22 48  1  0
 22 49  1  0
 23 50  1  0
 23 51  1  0
 24 52  1  0
 24 53  1  0
 25 54  1  0
 25 55  1  0
 26 56  1  0
 27 57  1  0
 28 58  1  0
 28 59  1  0
 31 60  1  0
 32 61  1  0
M  END
$$$$
