
     RDKit          3D

 46 48  0  0  0  0  0  0  0  0999 V2000
   -0.4221    1.4271   -3.3728 O   0  0  0  0  0  0  0  0  0  0  0  0
    0.0615    0.8680   -2.3925 C   0  0  0  0  0  0  0  0  0  0  0  0
    1.5514    0.5665   -2.3370 C   0  0  0  0  0  0  0  0  0  0  0  0
    2.2090    0.9581   -1.0113 C   0  0  0  0  0  0  0  0  0  0  0  0
    1.8459    0.0617    0.1010 N   0  0  0  0  0  0  0  0  0  0  0  0
    2.0705    0.6609    1.4231 C   0  0  0  0  0  0  0  0  0  0  0  0
    3.5116    0.9798    1.8112 C   0  0  0  0  0  0  0  0  0  0  0  0
    4.4364   -0.2350    1.8747 C   0  0  0  0  0  0  0  0  0  0  0  0
    4.8809   -0.7074    0.4966 C   0  0  0  0  0  0  0  0  0  0  0  0
    3.8551   -1.5093   -0.3027 C   0  0  0  0  0  0  0  0  0  0  0  0
    2.3716   -1.3043    0.0148 C   0  0  0  0  0  0  0  0  0  0  0  0
   -0.6290    0.3836   -1.2988 N   0  0  0  0  0  0  0  0  0  0  0  0
   -2.0123    0.4341   -1.0446 C   0  0  0  0  0  0  0  0  0  0  0  0
   -2.9286    1.0969   -1.8664 C   0  0  0  0  0  0  0  0  0  0  0  0
   -4.2905    1.1128   -1.5474 C   0  0  0  0  0  0  0  0  0  0  0  0
   -4.7456    0.4486   -0.4131 C   0  0  0  0  0  0  0  0  0  0  0  0
   -3.8407   -0.2510    0.3936 C   0  0  0  0  0  0  0  0  0  0  0  0
   -2.4777   -0.2300    0.0964 C   0  0  0  0  0  0  0  0  0  0  0  0
   -4.2228   -0.9863    1.4895 O   0  0  0  0  0  0  0  0  0  0  0  0
   -5.6269   -1.2670    1.4490 C   0  0  0  0  0  0  0  0  0  0  0  0
   -6.4131   -0.0010    1.1425 C   0  0  0  0  0  0  0  0  0  0  0  0
   -6.0910    0.5084   -0.1585 O   0  0  0  0  0  0  0  0  0  0  0  0
    1.7030   -0.4884   -2.5859 H   0  0  0  0  0  0  0  0  0  0  0  0
    2.0271    1.1466   -3.1359 H   0  0  0  0  0  0  0  0  0  0  0  0
    1.8849    1.9796   -0.7706 H   0  0  0  0  0  0  0  0  0  0  0  0
    3.2954    1.0062   -1.1507 H   0  0  0  0  0  0  0  0  0  0  0  0
    1.4799    1.5875    1.4948 H   0  0  0  0  0  0  0  0  0  0  0  0
    1.6366    0.0019    2.1864 H   0  0  0  0  0  0  0  0  0  0  0  0
    3.4882    1.4414    2.8086 H   0  0  0  0  0  0  0  0  0  0  0  0
    3.9285    1.7372    1.1364 H   0  0  0  0  0  0  0  0  0  0  0  0
    5.3342    0.0607    2.4343 H   0  0  0  0  0  0  0  0  0  0  0  0
    3.9757   -1.0551    2.4379 H   0  0  0  0  0  0  0  0  0  0  0  0
    5.2078    0.1523   -0.0998 H   0  0  0  0  0  0  0  0  0  0  0  0
    5.7768   -1.3308    0.6137 H   0  0  0  0  0  0  0  0  0  0  0  0
    4.0308   -1.3304   -1.3712 H   0  0  0  0  0  0  0  0  0  0  0  0
    4.0714   -2.5778   -0.1523 H   0  0  0  0  0  0  0  0  0  0  0  0
    1.7992   -1.8360   -0.7537 H   0  0  0  0  0  0  0  0  0  0  0  0
    2.1264   -1.8515    0.9356 H   0  0  0  0  0  0  0  0  0  0  0  0
   -0.0485   -0.0167   -0.5622 H   0  0  0  0  0  0  0  0  0  0  0  0
   -2.6135    1.6333   -2.7532 H   0  0  0  0  0  0  0  0  0  0  0  0
   -4.9900    1.6536   -2.1786 H   0  0  0  0  0  0  0  0  0  0  0  0
   -1.7926   -0.7660    0.7436 H   0  0  0  0  0  0  0  0  0  0  0  0
   -5.8088   -2.0506    0.6989 H   0  0  0  0  0  0  0  0  0  0  0  0
   -5.9133   -1.6627    2.4302 H   0  0  0  0  0  0  0  0  0  0  0  0
   -7.4882   -0.2152    1.1609 H   0  0  0  0  0  0  0  0  0  0  0  0
   -6.2048    0.7850    1.8855 H   0  0  0  0  0  0  0  0  0  0  0  0
  1  2  2  0
  2  3  1  0
  3  4  1  0
  4  5  1  0
  5  6  1  0
  6  7  1  0
  7  8  1  0
  8  9  1  0
  9 10  1  0
 10 11  1  0
  2 12  1  0
 12 13  1  0
 13 14  2  0
 14 15  1  0
 15 16  2  0
 16 17  1  0
 17 18  2  0
 17 19  1  0
 19 20  1  0
 20 21  1  0
 21 22  1  0
 11  5  1  0
 18 13  1  0
 22 16  1  0
  3 23  1  0
  3 24  1  0
  4 25  1  0
  4 26  1  0
  6 27  1  0
  6 28  1  0
  7 29  1  0
  7 30  1  0
  8 31  1  0
  8 32  1  0
  9 33  1  0
  9 34  1  0
 10 35  1  0
 10 36  1  0
 11 37  1  0
 11 38  1  0
 12 39  1  0
 14 40  1  0
 15 41  1  0
 18 42  1  0
 20 43  1  0
 20 44  1  0
 21 45  1  0
 21 46  1  0
M  END
$$$$
