
     RDKit          3D

 44 46  0  0  0  0  0  0  0  0999 V2000
   -6.8302    1.0783   -1.4017 C   0  0  0  0  0  0  0  0  0  0  0  0
   -5.8929    0.1979   -0.6270 C   0  0  0  0  0  0  0  0  0  0  0  0
   -6.3496   -0.9862   -0.0406 C   0  0  0  0  0  0  0  0  0  0  0  0
   -5.4792   -1.7882    0.6950 C   0  0  0  0  0  0  0  0  0  0  0  0
   -4.1411   -1.4108    0.8709 C   0  0  0  0  0  0  0  0  0  0  0  0
   -3.2173   -2.2985    1.6590 C   0  0  0  0  0  0  0  0  0  0  0  0
   -3.6734   -0.2206    0.2843 C   0  0  0  0  0  0  0  0  0  0  0  0
   -2.3510    0.0681    0.5005 O   0  0  0  0  0  0  0  0  0  0  0  0
   -1.7859    1.1457   -0.2425 C   0  0  0  0  0  0  0  0  0  0  0  0
   -0.3322    1.1635    0.0402 C   0  0  0  0  0  0  0  0  0  0  0  0
    0.5674    0.2806    0.5813 C   0  0  0  0  0  0  0  0  0  0  0  0
    1.8264    0.9445    0.5239 C   0  0  0  0  0  0  0  0  0  0  0  0
    3.1045    0.3803    1.0006 C   0  0  0  0  0  0  0  0  0  0  0  0
    3.0859   -0.6818    1.6309 O   0  0  0  0  0  0  0  0  0  0  0  0
    4.3239    1.0351    0.7566 N   0  0  0  0  0  0  0  0  0  0  0  0
    4.4736    2.1726   -0.1407 C   0  0  0  0  0  0  0  0  0  0  0  0
    5.5430    0.2911    1.0753 C   0  0  0  0  0  0  0  0  0  0  0  0
    5.9973   -0.5584   -0.0871 C   0  0  0  0  0  0  0  0  0  0  0  0
    5.4217   -0.6181   -1.2740 N   0  0  0  0  0  0  0  0  0  0  0  0
    6.1117   -1.4929   -2.0883 C   0  0  0  0  0  0  0  0  0  0  0  0
    7.2319   -2.0673   -1.5300 C   0  0  0  0  0  0  0  0  0  0  0  0
    7.4091   -1.5333    0.0860 S   0  0  0  0  0  0  0  0  0  0  0  0
    1.6677    2.1675   -0.0091 N   0  0  0  0  0  0  0  0  0  0  0  0
    0.3299    2.2955   -0.3149 O   0  0  0  0  0  0  0  0  0  0  0  0
   -4.5545    0.5798   -0.4495 C   0  0  0  0  0  0  0  0  0  0  0  0
   -7.7210    0.5257   -1.7220 H   0  0  0  0  0  0  0  0  0  0  0  0
   -6.3407    1.4600   -2.3050 H   0  0  0  0  0  0  0  0  0  0  0  0
   -7.1470    1.9222   -0.7832 H   0  0  0  0  0  0  0  0  0  0  0  0
   -7.3856   -1.2959   -0.1551 H   0  0  0  0  0  0  0  0  0  0  0  0
   -5.8551   -2.7114    1.1352 H   0  0  0  0  0  0  0  0  0  0  0  0
   -2.4713   -2.7483    0.9953 H   0  0  0  0  0  0  0  0  0  0  0  0
   -2.7074   -1.7256    2.4434 H   0  0  0  0  0  0  0  0  0  0  0  0
   -3.7635   -3.1107    2.1509 H   0  0  0  0  0  0  0  0  0  0  0  0
   -1.9352    0.9919   -1.3176 H   0  0  0  0  0  0  0  0  0  0  0  0
   -2.2309    2.0958    0.0743 H   0  0  0  0  0  0  0  0  0  0  0  0
    0.3634   -0.7092    0.9615 H   0  0  0  0  0  0  0  0  0  0  0  0
    3.9609    3.0379    0.2847 H   0  0  0  0  0  0  0  0  0  0  0  0
    4.0633    1.9281   -1.1240 H   0  0  0  0  0  0  0  0  0  0  0  0
    5.5290    2.4391   -0.2508 H   0  0  0  0  0  0  0  0  0  0  0  0
    5.3770   -0.3457    1.9518 H   0  0  0  0  0  0  0  0  0  0  0  0
    6.3215    1.0146    1.3464 H   0  0  0  0  0  0  0  0  0  0  0  0
    5.7579   -1.6643   -3.0978 H   0  0  0  0  0  0  0  0  0  0  0  0
    7.9275   -2.7641   -1.9778 H   0  0  0  0  0  0  0  0  0  0  0  0
   -4.2297    1.5154   -0.8971 H   0  0  0  0  0  0  0  0  0  0  0  0
  1  2  1  0
  2  3  2  0
  3  4  1  0
  4  5  2  0
  5  6  1  0
  5  7  1  0
  7  8  1  0
  8  9  1  0
  9 10  1  0
 10 11  2  0
 11 12  1  0
 12 13  1  0
 13 14  2  0
 13 15  1  0
 15 16  1  0
 15 17  1  0
 17 18  1  0
 18 19  2  0
 19 20  1  0
 20 21  2  0
 21 22  1  0
 12 23  2  0
 23 24  1  0
  7 25  2  0
 25  2  1  0
 24 10  1  0
 22 18  1  0
  1 26  1  0
  1 27  1  0
  1 28  1  0
  3 29  1  0
  4 30  1  0
  6 31  1  0
  6 32  1  0
  6 33  1  0
  9 34  1  0
  9 35  1  0
 11 36  1  0
 16 37  1  0
 16 38  1  0
 16 39  1  0
 17 40  1  0
 17 41  1  0
 20 42  1  0
 21 43  1  0
 25 44  1  0
M  END
$$$$
