
     RDKit          3D

 46 48  0  0  0  0  0  0  0  0999 V2000
    5.4004   -2.5912    0.3255 C   0  0  0  0  0  0  0  0  0  0  0  0
    4.7127   -1.7983   -0.7700 C   0  0  0  0  0  0  0  0  0  0  0  0
    3.6302   -1.0348   -0.2201 O   0  0  0  0  0  0  0  0  0  0  0  0
    2.4245   -1.6776   -0.1218 C   0  0  0  0  0  0  0  0  0  0  0  0
    2.2551   -2.8452   -0.4622 O   0  0  0  0  0  0  0  0  0  0  0  0
    1.3484   -0.7708    0.4979 C   0  0  0  0  0  0  0  0  0  0  0  0
    1.5384   -0.9826    2.0206 C   0  0  0  0  0  0  0  0  0  0  0  0
    0.6410   -0.2378    2.7258 F   0  0  0  0  0  0  0  0  0  0  0  0
    1.3553   -2.2676    2.4055 F   0  0  0  0  0  0  0  0  0  0  0  0
    2.7663   -0.6062    2.4544 F   0  0  0  0  0  0  0  0  0  0  0  0
    1.5905    0.6286    0.0964 N   0  0  0  0  0  0  0  0  0  0  0  0
    0.5425    1.3669    0.1165 C   0  0  0  0  0  0  0  0  0  0  0  0
    0.5856    2.8281   -0.1015 C   0  0  0  0  0  0  0  0  0  0  0  0
    1.8108    3.4651   -0.3195 C   0  0  0  0  0  0  0  0  0  0  0  0
    1.8456    4.8434   -0.5230 C   0  0  0  0  0  0  0  0  0  0  0  0
    0.6494    5.5419   -0.5019 C   0  0  0  0  0  0  0  0  0  0  0  0
   -0.5529    4.9618   -0.2951 N   0  0  0  0  0  0  0  0  0  0  0  0
   -0.5573    3.6189   -0.1002 C   0  0  0  0  0  0  0  0  0  0  0  0
   -0.7125    0.9328    0.3189 O   0  0  0  0  0  0  0  0  0  0  0  0
   -0.9172   -0.3812    0.0776 C   0  0  0  0  0  0  0  0  0  0  0  0
   -2.2429   -0.6914   -0.1667 N   0  0  0  0  0  0  0  0  0  0  0  0
   -3.3241    0.1351    0.3857 C   0  0  0  0  0  0  0  0  0  0  0  0
   -4.5803    0.0313   -0.4752 C   0  0  0  0  0  0  0  0  0  0  0  0
   -5.0074   -1.4188   -0.6629 C   0  0  0  0  0  0  0  0  0  0  0  0
   -3.8517   -2.2367   -1.2247 C   0  0  0  0  0  0  0  0  0  0  0  0
   -2.6023   -2.1068   -0.3572 C   0  0  0  0  0  0  0  0  0  0  0  0
    0.0318   -1.2415    0.0458 N   0  0  0  0  0  0  0  0  0  0  0  0
    4.7139   -3.3134    0.7786 H   0  0  0  0  0  0  0  0  0  0  0  0
    5.7368   -1.9260    1.1277 H   0  0  0  0  0  0  0  0  0  0  0  0
    6.2645   -3.1317   -0.0708 H   0  0  0  0  0  0  0  0  0  0  0  0
    4.3712   -2.4480   -1.5838 H   0  0  0  0  0  0  0  0  0  0  0  0
    5.4190   -1.0837   -1.2051 H   0  0  0  0  0  0  0  0  0  0  0  0
    2.7382    2.8967   -0.3326 H   0  0  0  0  0  0  0  0  0  0  0  0
    2.7846    5.3588   -0.6939 H   0  0  0  0  0  0  0  0  0  0  0  0
    0.6257    6.6174   -0.6553 H   0  0  0  0  0  0  0  0  0  0  0  0
   -1.5470    3.2024    0.0598 H   0  0  0  0  0  0  0  0  0  0  0  0
   -3.5379   -0.1876    1.4120 H   0  0  0  0  0  0  0  0  0  0  0  0
   -3.0428    1.1922    0.4327 H   0  0  0  0  0  0  0  0  0  0  0  0
   -5.3943    0.6009   -0.0130 H   0  0  0  0  0  0  0  0  0  0  0  0
   -4.3881    0.4822   -1.4570 H   0  0  0  0  0  0  0  0  0  0  0  0
   -5.3262   -1.8390    0.2987 H   0  0  0  0  0  0  0  0  0  0  0  0
   -5.8667   -1.4710   -1.3403 H   0  0  0  0  0  0  0  0  0  0  0  0
   -4.1436   -3.2902   -1.2989 H   0  0  0  0  0  0  0  0  0  0  0  0
   -3.6265   -1.8923   -2.2420 H   0  0  0  0  0  0  0  0  0  0  0  0
   -2.7650   -2.5762    0.6207 H   0  0  0  0  0  0  0  0  0  0  0  0
   -1.7957   -2.6571   -0.8556 H   0  0  0  0  0  0  0  0  0  0  0  0
  1  2  1  0
  2  3  1  0
  3  4  1  0
  4  5  2  0
  4  6  1  0
  6  7  1  0
  7  8  1  0
  7  9  1  0
  7 10  1  0
  6 11  1  0
 11 12  2  0
 12 13  1  0
 13 14  2  0
 14 15  1  0
 15 16  2  0
 16 17  1  0
 17 18  2  0
 12 19  1  0
 19 20  1  0
 20 21  1  0
 21 22  1  0
 22 23  1  0
 23 24  1  0
 24 25  1  0
 25 26  1  0
 20 27  2  0
 27  6  1  0
 18 13  1  0
 26 21  1  0
  1 28  1  0
  1 29  1  0
  1 30  1  0
  2 31  1  0
  2 32  1  0
 14 33  1  0
 15 34  1  0
 16 35  1  0
 18 36  1  0
 22 37  1  0
 22 38  1  0
 23 39  1  0
 23 40  1  0
 24 41  1  0
 24 42  1  0
 25 43  1  0
 25 44  1  0
 26 45  1  0
 26 46  1  0
M  END
$$$$
