
     RDKit          3D

 39 40  0  0  0  0  0  0  0  0999 V2000
    6.5901   -0.8957   -0.0724 C   0  0  0  0  0  0  0  0  0  0  0  0
    5.6243   -0.1079    0.6243 O   0  0  0  0  0  0  0  0  0  0  0  0
    4.7066    0.4768   -0.1830 C   0  0  0  0  0  0  0  0  0  0  0  0
    4.6643    0.3730   -1.3993 O   0  0  0  0  0  0  0  0  0  0  0  0
    3.8359    1.1881    0.5809 N   0  0  0  0  0  0  0  0  0  0  0  0
    2.6562    1.8084    0.0386 C   0  0  0  0  0  0  0  0  0  0  0  0
    1.4428    0.9369    0.2474 C   0  0  0  0  0  0  0  0  0  0  0  0
    1.1866   -0.1339   -0.6238 C   0  0  0  0  0  0  0  0  0  0  0  0
    0.0827   -0.9640   -0.4238 C   0  0  0  0  0  0  0  0  0  0  0  0
   -0.7820   -0.7151    0.6446 C   0  0  0  0  0  0  0  0  0  0  0  0
   -2.1765   -1.7893    0.9208 S   0  0  0  0  0  6  0  0  0  0  0  0
   -2.5189   -1.7004    2.3249 O   0  0  0  0  0  0  0  0  0  0  0  0
   -1.8749   -3.0628    0.3021 O   0  0  0  0  0  0  0  0  0  0  0  0
   -3.4182   -1.0602    0.0349 N   0  0  0  0  0  0  0  0  0  0  0  0
   -3.9697    0.2360    0.5167 C   0  0  0  0  0  0  0  0  0  0  0  0
   -3.7625    1.3362   -0.5294 C   0  0  0  0  0  0  0  0  0  0  0  0
   -4.3825    1.0526   -1.7915 O   0  0  0  0  0  0  0  0  0  0  0  0
   -4.4953   -0.3505   -2.0727 C   0  0  0  0  0  0  0  0  0  0  0  0
   -3.3675   -1.1781   -1.4475 C   0  0  0  0  0  0  0  0  0  0  0  0
   -0.5210    0.3255    1.5410 C   0  0  0  0  0  0  0  0  0  0  0  0
    0.5867    1.1511    1.3380 C   0  0  0  0  0  0  0  0  0  0  0  0
    6.1026   -1.7190   -0.6041 H   0  0  0  0  0  0  0  0  0  0  0  0
    7.1664   -0.2733   -0.7642 H   0  0  0  0  0  0  0  0  0  0  0  0
    7.2771   -1.3196    0.6653 H   0  0  0  0  0  0  0  0  0  0  0  0
    3.9294    1.0674    1.5786 H   0  0  0  0  0  0  0  0  0  0  0  0
    2.7872    2.0222   -1.0284 H   0  0  0  0  0  0  0  0  0  0  0  0
    2.5281    2.7696    0.5485 H   0  0  0  0  0  0  0  0  0  0  0  0
    1.8611   -0.3325   -1.4567 H   0  0  0  0  0  0  0  0  0  0  0  0
   -0.0878   -1.8013   -1.0971 H   0  0  0  0  0  0  0  0  0  0  0  0
   -5.0408    0.0861    0.6966 H   0  0  0  0  0  0  0  0  0  0  0  0
   -3.5219    0.5405    1.4664 H   0  0  0  0  0  0  0  0  0  0  0  0
   -2.6941    1.4966   -0.7135 H   0  0  0  0  0  0  0  0  0  0  0  0
   -4.1758    2.2829   -0.1675 H   0  0  0  0  0  0  0  0  0  0  0  0
   -4.4924   -0.4675   -3.1609 H   0  0  0  0  0  0  0  0  0  0  0  0
   -5.4725   -0.6887   -1.7085 H   0  0  0  0  0  0  0  0  0  0  0  0
   -2.4066   -0.8103   -1.8192 H   0  0  0  0  0  0  0  0  0  0  0  0
   -3.4877   -2.2281   -1.7317 H   0  0  0  0  0  0  0  0  0  0  0  0
   -1.1636    0.4918    2.4029 H   0  0  0  0  0  0  0  0  0  0  0  0
    0.7843    1.9565    2.0427 H   0  0  0  0  0  0  0  0  0  0  0  0
  1  2  1  0
  2  3  1  0
  3  4  2  0
  3  5  1  0
  5  6  1  0
  6  7  1  0
  7  8  2  0
  8  9  1  0
  9 10  2  0
 10 11  1  0
 11 12  2  0
 11 13  2  0
 11 14  1  0
 14 15  1  0
 15 16  1  0
 16 17  1  0
 17 18  1  0
 18 19  1  0
 10 20  1  0
 20 21  2  0
 21  7  1  0
 19 14  1  0
  1 22  1  0
  1 23  1  0
  1 24  1  0
  5 25  1  0
  6 26  1  0
  6 27  1  0
  8 28  1  0
  9 29  1  0
 15 30  1  0
 15 31  1  0
 16 32  1  0
 16 33  1  0
 18 34  1  0
 18 35  1  0
 19 36  1  0
 19 37  1  0
 20 38  1  0
 21 39  1  0
M  END
$$$$
