
     RDKit          3D

 36 38  0  0  0  0  0  0  0  0999 V2000
    2.6641   -2.9022   -1.7058 C   0  0  0  0  0  0  0  0  0  0  0  0
    2.4238   -1.4012   -1.5838 C   0  0  0  0  0  0  0  0  0  0  0  0
    3.3791   -0.8951   -0.6662 O   0  0  0  0  0  0  0  0  0  0  0  0
    3.0952    0.3767   -0.2461 C   0  0  0  0  0  0  0  0  0  0  0  0
    4.1828    1.0869    0.2694 C   0  0  0  0  0  0  0  0  0  0  0  0
    4.0055    2.3756    0.7626 C   0  0  0  0  0  0  0  0  0  0  0  0
    2.7362    2.9449    0.7551 C   0  0  0  0  0  0  0  0  0  0  0  0
    1.6432    2.2275    0.2544 C   0  0  0  0  0  0  0  0  0  0  0  0
    1.8061    0.9331   -0.2594 C   0  0  0  0  0  0  0  0  0  0  0  0
    0.7152    0.1577   -0.7483 N   0  0  0  0  0  0  0  0  0  0  0  0
   -0.6747    0.5664   -0.5702 C   0  0  0  0  0  0  0  0  0  0  0  0
   -1.2163    0.1844    0.8076 C   0  0  0  0  0  0  0  0  0  0  0  0
   -0.5062    0.1094    1.8099 O   0  0  0  0  0  0  0  0  0  0  0  0
   -2.6821   -0.0621    0.9558 C   0  0  0  0  0  0  0  0  0  0  0  0
   -3.1257   -0.7538    2.0950 C   0  0  0  0  0  0  0  0  0  0  0  0
   -4.4863   -1.0033    2.2853 C   0  0  0  0  0  0  0  0  0  0  0  0
   -5.4012   -0.5567    1.3406 C   0  0  0  0  0  0  0  0  0  0  0  0
   -6.7067   -0.7926    1.5212 F   0  0  0  0  0  0  0  0  0  0  0  0
   -4.9812    0.1374    0.2110 C   0  0  0  0  0  0  0  0  0  0  0  0
   -3.6197    0.3897    0.0159 C   0  0  0  0  0  0  0  0  0  0  0  0
    0.9504   -1.1129   -1.2666 C   0  0  0  0  0  0  0  0  0  0  0  0
    0.0418   -1.8959   -1.5484 O   0  0  0  0  0  0  0  0  0  0  0  0
    2.4595   -3.4053   -0.7539 H   0  0  0  0  0  0  0  0  0  0  0  0
    3.7109   -3.1064   -1.9560 H   0  0  0  0  0  0  0  0  0  0  0  0
    2.0285   -3.3532   -2.4743 H   0  0  0  0  0  0  0  0  0  0  0  0
    2.6266   -0.9491   -2.5648 H   0  0  0  0  0  0  0  0  0  0  0  0
    5.1681    0.6286    0.2888 H   0  0  0  0  0  0  0  0  0  0  0  0
    4.8513    2.9273    1.1640 H   0  0  0  0  0  0  0  0  0  0  0  0
    2.5893    3.9454    1.1551 H   0  0  0  0  0  0  0  0  0  0  0  0
    0.6744    2.7115    0.3011 H   0  0  0  0  0  0  0  0  0  0  0  0
   -0.7930    1.6408   -0.7333 H   0  0  0  0  0  0  0  0  0  0  0  0
   -1.2714    0.0649   -1.3400 H   0  0  0  0  0  0  0  0  0  0  0  0
   -2.4103   -1.1045    2.8377 H   0  0  0  0  0  0  0  0  0  0  0  0
   -4.8339   -1.5408    3.1620 H   0  0  0  0  0  0  0  0  0  0  0  0
   -5.7187    0.4796   -0.5091 H   0  0  0  0  0  0  0  0  0  0  0  0
   -3.3248    0.9473   -0.8679 H   0  0  0  0  0  0  0  0  0  0  0  0
  1  2  1  0
  2  3  1  0
  3  4  1  0
  4  5  2  0
  5  6  1  0
  6  7  2  0
  7  8  1  0
  8  9  2  0
  9 10  1  0
 10 11  1  0
 11 12  1  0
 12 13  2  0
 12 14  1  0
 14 15  2  0
 15 16  1  0
 16 17  2  0
 17 18  1  0
 17 19  1  0
 19 20  2  0
 10 21  1  0
 21 22  2  0
 21  2  1  0
  9  4  1  0
 20 14  1  0
  1 23  1  0
  1 24  1  0
  1 25  1  0
  2 26  1  0
  5 27  1  0
  6 28  1  0
  7 29  1  0
  8 30  1  0
 11 31  1  0
 11 32  1  0
 15 33  1  0
 16 34  1  0
 19 35  1  0
 20 36  1  0
M  END
$$$$
