
     RDKit          3D

 71 75  0  0  0  0  0  0  0  0999 V2000
   -3.2473    5.7046    2.2025 C   0  0  0  0  0  0  0  0  0  0  0  0
   -2.7265    4.6466    2.9965 O   0  0  0  0  0  0  0  0  0  0  0  0
   -2.3468    3.5099    2.3377 C   0  0  0  0  0  0  0  0  0  0  0  0
   -2.4114    3.2971    0.9619 C   0  0  0  0  0  0  0  0  0  0  0  0
   -1.9879    2.0794    0.4153 C   0  0  0  0  0  0  0  0  0  0  0  0
   -1.4968    1.0515    1.2330 C   0  0  0  0  0  0  0  0  0  0  0  0
   -1.0272   -0.2837    0.6579 C   0  0  0  0  0  0  0  0  0  0  0  0
   -2.1347   -1.0160   -0.1490 C   0  0  0  0  0  0  0  0  0  0  0  0
   -3.2678   -1.5288    0.7613 C   0  0  0  0  0  0  0  0  0  0  0  0
   -4.3674   -2.2545    0.1108 N   0  0  0  0  0  0  0  0  0  0  0  0
   -5.1516   -1.4213   -0.8176 C   0  0  0  0  0  0  0  0  0  0  0  0
   -6.3375   -2.2147   -1.3920 C   0  0  0  0  0  0  0  0  0  0  0  0
   -5.8917   -3.4032   -2.0621 O   0  0  0  0  0  0  0  0  0  0  0  0
   -5.1604   -4.2345   -1.1488 C   0  0  0  0  0  0  0  0  0  0  0  0
   -3.9454   -3.4899   -0.5702 C   0  0  0  0  0  0  0  0  0  0  0  0
    0.3323   -0.1500   -0.0477 C   0  0  0  0  0  0  0  0  0  0  0  0
    0.4791    0.1283   -1.4145 C   0  0  0  0  0  0  0  0  0  0  0  0
   -0.6548    0.3160   -2.1596 O   0  0  0  0  0  0  0  0  0  0  0  0
   -0.5963   -0.1254   -3.5133 C   0  0  0  0  0  0  0  0  0  0  0  0
    1.7570    0.2812   -1.9723 C   0  0  0  0  0  0  0  0  0  0  0  0
    2.9190    0.1377   -1.2001 C   0  0  0  0  0  0  0  0  0  0  0  0
    4.1792    0.2759   -1.7192 O   0  0  0  0  0  0  0  0  0  0  0  0
    4.3309    0.5307   -3.1077 C   0  0  0  0  0  0  0  0  0  0  0  0
    2.8141   -0.1471    0.1752 C   0  0  0  0  0  0  0  0  0  0  0  0
    3.9746   -0.3061    1.0890 C   0  0  0  0  0  0  0  0  0  0  0  0
    5.4087   -0.2185    0.7410 C   0  0  0  0  0  0  0  0  0  0  0  0
    6.1124   -1.3654    0.3494 C   0  0  0  0  0  0  0  0  0  0  0  0
    7.4721   -1.2853    0.0433 C   0  0  0  0  0  0  0  0  0  0  0  0
    8.1362   -0.0620    0.1290 C   0  0  0  0  0  0  0  0  0  0  0  0
    7.4433    1.0834    0.5198 C   0  0  0  0  0  0  0  0  0  0  0  0
    6.0837    1.0067    0.8272 C   0  0  0  0  0  0  0  0  0  0  0  0
    3.7501   -0.5568    2.3891 C   0  0  0  0  0  0  0  0  0  0  0  0
    2.4139   -0.6910    2.9665 C   0  0  0  0  0  0  0  0  0  0  0  0
    2.2565   -0.9243    4.1587 O   0  0  0  0  0  0  0  0  0  0  0  0
    1.3561   -0.5521    2.0939 O   0  0  0  0  0  0  0  0  0  0  0  0
    1.5216   -0.2771    0.7118 C   0  0  0  0  0  0  0  0  0  0  0  0
   -1.4292    1.2799    2.6151 C   0  0  0  0  0  0  0  0  0  0  0  0
   -1.8519    2.4960    3.1581 C   0  0  0  0  0  0  0  0  0  0  0  0
   -2.4956    6.0763    1.4981 H   0  0  0  0  0  0  0  0  0  0  0  0
   -3.5102    6.5279    2.8738 H   0  0  0  0  0  0  0  0  0  0  0  0
   -4.1600    5.3963    1.6817 H   0  0  0  0  0  0  0  0  0  0  0  0
   -2.7819    4.0566    0.2822 H   0  0  0  0  0  0  0  0  0  0  0  0
   -2.0427    1.9471   -0.6627 H   0  0  0  0  0  0  0  0  0  0  0  0
   -0.8570   -0.9597    1.5075 H   0  0  0  0  0  0  0  0  0  0  0  0
   -1.6792   -1.8675   -0.6686 H   0  0  0  0  0  0  0  0  0  0  0  0
   -2.5635   -0.3595   -0.9110 H   0  0  0  0  0  0  0  0  0  0  0  0
   -3.7025   -0.6881    1.3158 H   0  0  0  0  0  0  0  0  0  0  0  0
   -2.8381   -2.1868    1.5277 H   0  0  0  0  0  0  0  0  0  0  0  0
   -5.5367   -0.5361   -0.2995 H   0  0  0  0  0  0  0  0  0  0  0  0
   -4.5260   -1.0843   -1.6527 H   0  0  0  0  0  0  0  0  0  0  0  0
   -7.0515   -2.4891   -0.6060 H   0  0  0  0  0  0  0  0  0  0  0  0
   -6.8709   -1.6029   -2.1264 H   0  0  0  0  0  0  0  0  0  0  0  0
   -5.8336   -4.5776   -0.3538 H   0  0  0  0  0  0  0  0  0  0  0  0
   -4.8241   -5.1166   -1.7030 H   0  0  0  0  0  0  0  0  0  0  0  0
   -3.4265   -4.1513    0.1325 H   0  0  0  0  0  0  0  0  0  0  0  0
   -3.2598   -3.2590   -1.3941 H   0  0  0  0  0  0  0  0  0  0  0  0
   -1.6245   -0.2423   -3.8691 H   0  0  0  0  0  0  0  0  0  0  0  0
   -0.0980   -1.0969   -3.6050 H   0  0  0  0  0  0  0  0  0  0  0  0
   -0.1099    0.6268   -4.1420 H   0  0  0  0  0  0  0  0  0  0  0  0
    1.8369    0.5459   -3.0194 H   0  0  0  0  0  0  0  0  0  0  0  0
    5.4028    0.5745   -3.3237 H   0  0  0  0  0  0  0  0  0  0  0  0
    3.9039   -0.2793   -3.7080 H   0  0  0  0  0  0  0  0  0  0  0  0
    3.8974    1.4984   -3.3799 H   0  0  0  0  0  0  0  0  0  0  0  0
    5.6031   -2.3231    0.2749 H   0  0  0  0  0  0  0  0  0  0  0  0
    8.0126   -2.1771   -0.2628 H   0  0  0  0  0  0  0  0  0  0  0  0
    9.1948   -0.0009   -0.1100 H   0  0  0  0  0  0  0  0  0  0  0  0
    7.9606    2.0370    0.5844 H   0  0  0  0  0  0  0  0  0  0  0  0
    5.5516    1.9065    1.1265 H   0  0  0  0  0  0  0  0  0  0  0  0
    4.5572   -0.6794    3.1045 H   0  0  0  0  0  0  0  0  0  0  0  0
   -1.0446    0.5140    3.2860 H   0  0  0  0  0  0  0  0  0  0  0  0
   -1.7923    2.6531    4.2323 H   0  0  0  0  0  0  0  0  0  0  0  0
  1  2  1  0
  2  3  1  0
  3  4  2  0
  4  5  1  0
  5  6  2  0
  6  7  1  0
  7  8  1  0
  8  9  1  0
  9 10  1  0
 10 11  1  0
 11 12  1  0
 12 13  1  0
 13 14  1  0
 14 15  1  0
  7 16  1  0
 16 17  2  0
 17 18  1  0
 18 19  1  0
 17 20  1  0
 20 21  2  0
 21 22  1  0
 22 23  1  0
 21 24  1  0
 24 25  1  0
 25 26  1  0
 26 27  2  0
 27 28  1  0
 28 29  2  0
 29 30  1  0
 30 31  2  0
 25 32  2  0
 32 33  1  0
 33 34  2  0
 33 35  1  0
 35 36  1  0
  6 37  1  0
 37 38  2  0
 38  3  1  0
 15 10  1  0
 36 16  1  0
 36 24  2  0
 31 26  1  0
  1 39  1  0
  1 40  1  0
  1 41  1  0
  4 42  1  0
  5 43  1  0
  7 44  1  0
  8 45  1  0
  8 46  1  0
  9 47  1  0
  9 48  1  0
 11 49  1  0
 11 50  1  0
 12 51  1  0
 12 52  1  0
 14 53  1  0
 14 54  1  0
 15 55  1  0
 15 56  1  0
 19 57  1  0
 19 58  1  0
 19 59  1  0
 20 60  1  0
 23 61  1  0
 23 62  1  0
 23 63  1  0
 27 64  1  0
 28 65  1  0
 29 66  1  0
 30 67  1  0
 31 68  1  0
 32 69  1  0
 37 70  1  0
 38 71  1  0
M  END
$$$$
