
     RDKit          3D

 44 47  0  0  0  0  0  0  0  0999 V2000
   -6.7658    1.1306   -1.1729 C   0  0  0  0  0  0  0  0  0  0  0  0
   -5.7750    0.1467   -1.7760 C   0  0  0  0  0  0  0  0  0  0  0  0
   -4.5640   -0.0379   -0.8986 C   0  0  0  0  0  0  0  0  0  0  0  0
   -3.4447    0.7873   -1.0446 C   0  0  0  0  0  0  0  0  0  0  0  0
   -2.3302    0.6212   -0.2166 C   0  0  0  0  0  0  0  0  0  0  0  0
   -2.3163   -0.3662    0.7753 C   0  0  0  0  0  0  0  0  0  0  0  0
   -1.1555   -0.4704    1.5610 N   0  0  0  0  0  0  0  0  0  0  0  0
   -0.9082   -1.3220    2.6240 C   0  0  0  0  0  0  0  0  0  0  0  0
   -1.7208   -2.0821    3.1452 O   0  0  0  0  0  0  0  0  0  0  0  0
    0.4788   -1.1204    3.2409 C   0  0  0  0  0  0  0  0  0  0  0  0
    1.4620   -0.6407    2.2666 N   0  0  0  0  0  0  0  0  0  0  0  0
    1.4974    0.7388    2.0352 N   0  0  0  0  0  0  0  0  0  0  0  0
    2.3780    1.2050    1.1971 C   0  0  0  0  0  0  0  0  0  0  0  0
    3.2460    0.3658    0.5135 N   0  0  0  0  0  0  0  0  0  0  0  0
    3.2086   -0.9896    0.6849 C   0  0  0  0  0  0  0  0  0  0  0  0
    4.1643   -1.5519   -0.1327 C   0  0  0  0  0  0  0  0  0  0  0  0
    4.8105   -0.4928   -0.8261 C   0  0  0  0  0  0  0  0  0  0  0  0
    5.8481   -0.4461   -1.7770 C   0  0  0  0  0  0  0  0  0  0  0  0
    6.2658    0.7904   -2.2793 C   0  0  0  0  0  0  0  0  0  0  0  0
    5.6663    1.9701   -1.8480 C   0  0  0  0  0  0  0  0  0  0  0  0
    4.6340    1.9517   -0.9050 C   0  0  0  0  0  0  0  0  0  0  0  0
    4.2206    0.7050   -0.4058 C   0  0  0  0  0  0  0  0  0  0  0  0
    2.2731   -1.5792    1.6022 C   0  0  0  0  0  0  0  0  0  0  0  0
    2.1944   -2.7892    1.7879 O   0  0  0  0  0  0  0  0  0  0  0  0
   -3.4336   -1.1867    0.9240 C   0  0  0  0  0  0  0  0  0  0  0  0
   -4.5500   -1.0221    0.0959 C   0  0  0  0  0  0  0  0  0  0  0  0
   -7.6333    1.2450   -1.8304 H   0  0  0  0  0  0  0  0  0  0  0  0
   -6.3117    2.1178   -1.0355 H   0  0  0  0  0  0  0  0  0  0  0  0
   -7.1231    0.7865   -0.1964 H   0  0  0  0  0  0  0  0  0  0  0  0
   -5.4622    0.4965   -2.7674 H   0  0  0  0  0  0  0  0  0  0  0  0
   -6.2651   -0.8212   -1.9371 H   0  0  0  0  0  0  0  0  0  0  0  0
   -3.4329    1.5658   -1.8039 H   0  0  0  0  0  0  0  0  0  0  0  0
   -1.4766    1.2782   -0.3578 H   0  0  0  0  0  0  0  0  0  0  0  0
   -0.3946    0.1729    1.3556 H   0  0  0  0  0  0  0  0  0  0  0  0
    0.3988   -0.3858    4.0493 H   0  0  0  0  0  0  0  0  0  0  0  0
    0.8107   -2.0744    3.6629 H   0  0  0  0  0  0  0  0  0  0  0  0
    2.4364    2.2891    1.0142 H   0  0  0  0  0  0  0  0  0  0  0  0
    4.3735   -2.6115   -0.2182 H   0  0  0  0  0  0  0  0  0  0  0  0
    6.3224   -1.3618   -2.1197 H   0  0  0  0  0  0  0  0  0  0  0  0
    7.0674    0.8275   -3.0135 H   0  0  0  0  0  0  0  0  0  0  0  0
    6.0071    2.9217   -2.2512 H   0  0  0  0  0  0  0  0  0  0  0  0
    4.1789    2.8819   -0.5796 H   0  0  0  0  0  0  0  0  0  0  0  0
   -3.4699   -1.9698    1.6749 H   0  0  0  0  0  0  0  0  0  0  0  0
   -5.4097   -1.6737    0.2375 H   0  0  0  0  0  0  0  0  0  0  0  0
  1  2  1  0
  2  3  1  0
  3  4  2  0
  4  5  1  0
  5  6  2  0
  6  7  1  0
  7  8  1  0
  8  9  2  0
  8 10  1  0
 10 11  1  0
 11 12  1  0
 12 13  2  0
 13 14  1  0
 14 15  1  0
 15 16  2  0
 16 17  1  0
 17 18  2  0
 18 19  1  0
 19 20  2  0
 20 21  1  0
 21 22  2  0
 15 23  1  0
 23 24  2  0
  6 25  1  0
 25 26  2  0
 26  3  1  0
 23 11  1  0
 22 14  1  0
 22 17  1  0
  1 27  1  0
  1 28  1  0
  1 29  1  0
  2 30  1  0
  2 31  1  0
  4 32  1  0
  5 33  1  0
  7 34  1  0
 10 35  1  0
 10 36  1  0
 13 37  1  0
 16 38  1  0
 18 39  1  0
 19 40  1  0
 20 41  1  0
 21 42  1  0
 25 43  1  0
 26 44  1  0
M  END
$$$$
