
     RDKit          3D

 47 49  0  0  0  0  0  0  0  0999 V2000
    5.2102    1.9088    0.9222 C   0  0  0  0  0  0  0  0  0  0  0  0
    4.8654    0.4541    0.7462 C   0  0  0  0  0  0  0  0  0  0  0  0
    3.7392    0.1100   -0.0243 C   0  0  0  0  0  0  0  0  0  0  0  0
    3.3824   -1.2247   -0.2101 C   0  0  0  0  0  0  0  0  0  0  0  0
    2.3085   -1.6812   -0.9237 O   0  0  0  0  0  0  0  0  0  0  0  0
    1.6634   -0.7815   -1.8298 C   0  0  0  0  0  0  0  0  0  0  0  0
    0.5830   -0.0631   -1.1198 C   0  0  0  0  0  0  0  0  0  0  0  0
   -0.2933   -0.3826   -0.1131 C   0  0  0  0  0  0  0  0  0  0  0  0
   -1.0835    0.7830    0.0663 C   0  0  0  0  0  0  0  0  0  0  0  0
   -2.1403    0.9678    1.0701 C   0  0  0  0  0  0  0  0  0  0  0  0
   -2.0494    0.3980    2.1606 O   0  0  0  0  0  0  0  0  0  0  0  0
   -3.2272    1.8163    0.7844 N   0  0  0  0  0  0  0  0  0  0  0  0
   -4.1925    2.0051    1.8520 C   0  0  0  0  0  0  0  0  0  0  0  0
   -3.7356    1.9760   -0.5833 C   0  0  0  0  0  0  0  0  0  0  0  0
   -4.5938    0.8069   -1.0301 C   0  0  0  0  0  0  0  0  0  0  0  0
   -5.9597    0.9772   -1.2495 C   0  0  0  0  0  0  0  0  0  0  0  0
   -6.7193   -0.1208   -1.6444 C   0  0  0  0  0  0  0  0  0  0  0  0
   -6.1016   -1.3544   -1.8078 C   0  0  0  0  0  0  0  0  0  0  0  0
   -4.7413   -1.4407   -1.5696 C   0  0  0  0  0  0  0  0  0  0  0  0
   -3.9777   -0.3938   -1.1886 N   0  0  0  0  0  0  0  0  0  0  0  0
   -0.6631    1.7619   -0.7561 N   0  0  0  0  0  0  0  0  0  0  0  0
    0.3576    1.2186   -1.5110 O   0  0  0  0  0  0  0  0  0  0  0  0
    4.1440   -2.2262    0.3956 C   0  0  0  0  0  0  0  0  0  0  0  0
    5.2738   -1.9178    1.1697 C   0  0  0  0  0  0  0  0  0  0  0  0
    6.0599   -3.0380    1.7932 C   0  0  0  0  0  0  0  0  0  0  0  0
    5.6314   -0.5684    1.3381 C   0  0  0  0  0  0  0  0  0  0  0  0
    7.0256   -0.1603    2.2878 Cl  0  0  0  0  0  0  0  0  0  0  0  0
    5.1686    2.1856    1.9805 H   0  0  0  0  0  0  0  0  0  0  0  0
    4.5073    2.5568    0.3875 H   0  0  0  0  0  0  0  0  0  0  0  0
    6.2092    2.1155    0.5251 H   0  0  0  0  0  0  0  0  0  0  0  0
    3.1459    0.9124   -0.4530 H   0  0  0  0  0  0  0  0  0  0  0  0
    1.2145   -1.3953   -2.6189 H   0  0  0  0  0  0  0  0  0  0  0  0
    2.3761   -0.1125   -2.3258 H   0  0  0  0  0  0  0  0  0  0  0  0
   -0.3665   -1.3166    0.4242 H   0  0  0  0  0  0  0  0  0  0  0  0
   -3.6839    2.1007    2.8163 H   0  0  0  0  0  0  0  0  0  0  0  0
   -4.8647    1.1426    1.8924 H   0  0  0  0  0  0  0  0  0  0  0  0
   -4.7661    2.9186    1.6711 H   0  0  0  0  0  0  0  0  0  0  0  0
   -4.3046    2.9129   -0.6202 H   0  0  0  0  0  0  0  0  0  0  0  0
   -2.9304    2.0894   -1.3092 H   0  0  0  0  0  0  0  0  0  0  0  0
   -6.4327    1.9444   -1.1142 H   0  0  0  0  0  0  0  0  0  0  0  0
   -7.7860   -0.0149   -1.8209 H   0  0  0  0  0  0  0  0  0  0  0  0
   -6.6664   -2.2285   -2.1119 H   0  0  0  0  0  0  0  0  0  0  0  0
   -4.2123   -2.3828   -1.6813 H   0  0  0  0  0  0  0  0  0  0  0  0
    3.8471   -3.2642    0.2560 H   0  0  0  0  0  0  0  0  0  0  0  0
    6.0658   -2.9405    2.8836 H   0  0  0  0  0  0  0  0  0  0  0  0
    7.0880   -3.0389    1.4171 H   0  0  0  0  0  0  0  0  0  0  0  0
    5.6248   -4.0149    1.5559 H   0  0  0  0  0  0  0  0  0  0  0  0
  1  2  1  0
  2  3  2  0
  3  4  1  0
  4  5  1  0
  5  6  1  0
  6  7  1  0
  7  8  2  0
  8  9  1  0
  9 10  1  0
 10 11  2  0
 10 12  1  0
 12 13  1  0
 12 14  1  0
 14 15  1  0
 15 16  2  0
 16 17  1  0
 17 18  2  0
 18 19  1  0
 19 20  2  0
  9 21  2  0
 21 22  1  0
  4 23  2  0
 23 24  1  0
 24 25  1  0
 24 26  2  0
 26 27  1  0
 26  2  1  0
 22  7  1  0
 20 15  1  0
  1 28  1  0
  1 29  1  0
  1 30  1  0
  3 31  1  0
  6 32  1  0
  6 33  1  0
  8 34  1  0
 13 35  1  0
 13 36  1  0
 13 37  1  0
 14 38  1  0
 14 39  1  0
 16 40  1  0
 17 41  1  0
 18 42  1  0
 19 43  1  0
 23 44  1  0
 25 45  1  0
 25 46  1  0
 25 47  1  0
M  END
$$$$
