
     RDKit          3D

 54 56  0  0  0  0  0  0  0  0999 V2000
   -5.1867   -1.9573   -1.7094 C   0  0  0  0  0  0  0  0  0  0  0  0
   -4.8821   -0.8241   -0.7647 C   0  0  0  0  0  0  0  0  0  0  0  0
   -5.9892   -0.1929   -0.1714 C   0  0  0  0  0  0  0  0  0  0  0  0
   -5.8289    0.9342    0.6238 C   0  0  0  0  0  0  0  0  0  0  0  0
   -4.5563    1.4457    0.8498 C   0  0  0  0  0  0  0  0  0  0  0  0
   -3.4115    0.8201    0.3202 C   0  0  0  0  0  0  0  0  0  0  0  0
   -2.0293    1.3999    0.6365 C   0  0  0  0  0  0  0  0  0  0  0  0
   -1.5982    2.3708   -0.4667 C   0  0  0  0  0  0  0  0  0  0  0  0
   -1.9043    2.0845    2.0064 C   0  0  0  0  0  0  0  0  0  0  0  0
   -3.5816   -0.3428   -0.4863 C   0  0  0  0  0  0  0  0  0  0  0  0
   -2.4280   -0.9334   -1.0609 N   0  0  0  0  0  0  0  0  0  0  0  0
   -2.1468   -2.2940   -1.0793 C   0  0  0  0  0  0  0  0  0  0  0  0
   -2.8418   -3.1893   -0.6074 O   0  0  0  0  0  0  0  0  0  0  0  0
   -0.8058   -2.6036   -1.7330 C   0  0  0  0  0  0  0  0  0  0  0  0
    0.3001   -2.2613   -0.7794 C   0  0  0  0  0  0  0  0  0  0  0  0
    0.7727   -3.0042    0.2825 C   0  0  0  0  0  0  0  0  0  0  0  0
    1.7831   -2.3176    1.0159 C   0  0  0  0  0  0  0  0  0  0  0  0
    2.0540   -1.0699    0.4864 C   0  0  0  0  0  0  0  0  0  0  0  0
    3.1369    0.2399    1.0114 S   0  0  0  0  0  6  0  0  0  0  0  0
    2.2515    1.3159    1.4022 O   0  0  0  0  0  0  0  0  0  0  0  0
    4.0309   -0.3800    1.9658 O   0  0  0  0  0  0  0  0  0  0  0  0
    4.0547    0.7563   -0.3217 N   0  0  0  0  0  0  0  0  0  0  0  0
    5.0141   -0.2355   -0.9002 C   0  0  0  0  0  0  0  0  0  0  0  0
    6.3573   -0.2406   -0.1585 C   0  0  0  0  0  0  0  0  0  0  0  0
    6.9242    1.0751   -0.0900 O   0  0  0  0  0  0  0  0  0  0  0  0
    6.0353    1.9711    0.5944 C   0  0  0  0  0  0  0  0  0  0  0  0
    4.7099    2.0915   -0.1613 C   0  0  0  0  0  0  0  0  0  0  0  0
    1.1312   -0.7692   -0.9198 S   0  0  0  0  0  0  0  0  0  0  0  0
   -4.4240   -2.0621   -2.4861 H   0  0  0  0  0  0  0  0  0  0  0  0
   -5.2966   -2.8965   -1.1605 H   0  0  0  0  0  0  0  0  0  0  0  0
   -6.1245   -1.7629   -2.2437 H   0  0  0  0  0  0  0  0  0  0  0  0
   -6.9942   -0.5657   -0.3577 H   0  0  0  0  0  0  0  0  0  0  0  0
   -6.6972    1.4238    1.0565 H   0  0  0  0  0  0  0  0  0  0  0  0
   -4.4760    2.3431    1.4591 H   0  0  0  0  0  0  0  0  0  0  0  0
   -1.3132    0.5722    0.6829 H   0  0  0  0  0  0  0  0  0  0  0  0
   -1.5922    1.8885   -1.4500 H   0  0  0  0  0  0  0  0  0  0  0  0
   -2.2744    3.2302   -0.5269 H   0  0  0  0  0  0  0  0  0  0  0  0
   -0.5880    2.7498   -0.2774 H   0  0  0  0  0  0  0  0  0  0  0  0
   -0.8564    2.3299    2.2128 H   0  0  0  0  0  0  0  0  0  0  0  0
   -2.2552    1.4294    2.8105 H   0  0  0  0  0  0  0  0  0  0  0  0
   -2.4668    3.0238    2.0541 H   0  0  0  0  0  0  0  0  0  0  0  0
   -1.6035   -0.3494   -1.0945 H   0  0  0  0  0  0  0  0  0  0  0  0
   -0.7253   -2.0501   -2.6770 H   0  0  0  0  0  0  0  0  0  0  0  0
   -0.7766   -3.6684   -1.9880 H   0  0  0  0  0  0  0  0  0  0  0  0
    0.3851   -3.9815    0.5460 H   0  0  0  0  0  0  0  0  0  0  0  0
    2.2713   -2.6996    1.9061 H   0  0  0  0  0  0  0  0  0  0  0  0
    4.5775   -1.2378   -0.9168 H   0  0  0  0  0  0  0  0  0  0  0  0
    5.1775    0.0550   -1.9472 H   0  0  0  0  0  0  0  0  0  0  0  0
    6.2701   -0.6445    0.8549 H   0  0  0  0  0  0  0  0  0  0  0  0
    7.0681   -0.8752   -0.6977 H   0  0  0  0  0  0  0  0  0  0  0  0
    6.5245    2.9499    0.6397 H   0  0  0  0  0  0  0  0  0  0  0  0
    5.8914    1.6234    1.6243 H   0  0  0  0  0  0  0  0  0  0  0  0
    4.0409    2.8009    0.3367 H   0  0  0  0  0  0  0  0  0  0  0  0
    4.8925    2.4846   -1.1705 H   0  0  0  0  0  0  0  0  0  0  0  0
  1  2  1  0
  2  3  2  0
  3  4  1  0
  4  5  2  0
  5  6  1  0
  6  7  1  0
  7  8  1  0
  7  9  1  0
  6 10  2  0
 10 11  1  0
 11 12  1  0
 12 13  2  0
 12 14  1  0
 14 15  1  0
 15 16  2  0
 16 17  1  0
 17 18  2  0
 18 19  1  0
 19 20  2  0
 19 21  2  0
 19 22  1  0
 22 23  1  0
 23 24  1  0
 24 25  1  0
 25 26  1  0
 26 27  1  0
 18 28  1  0
 10  2  1  0
 28 15  1  0
 27 22  1  0
  1 29  1  0
  1 30  1  0
  1 31  1  0
  3 32  1  0
  4 33  1  0
  5 34  1  0
  7 35  1  0
  8 36  1  0
  8 37  1  0
  8 38  1  0
  9 39  1  0
  9 40  1  0
  9 41  1  0
 11 42  1  0
 14 43  1  0
 14 44  1  0
 16 45  1  0
 17 46  1  0
 23 47  1  0
 23 48  1  0
 24 49  1  0
 24 50  1  0
 26 51  1  0
 26 52  1  0
 27 53  1  0
 27 54  1  0
M  END
$$$$
