
     RDKit          3D

 34 36  0  0  0  0  0  0  0  0999 V2000
   -2.5922   -3.4278   -1.3766 O   0  0  0  0  0  0  0  0  0  0  0  0
   -2.3152   -2.2864   -1.0283 C   0  0  0  0  0  0  0  0  0  0  0  0
   -3.3125   -1.3302   -0.8724 O   0  0  0  0  0  0  0  0  0  0  0  0
   -3.0096   -0.0129   -0.4795 C   0  0  0  0  0  0  0  0  0  0  0  0
   -4.0935    0.8582   -0.3591 C   0  0  0  0  0  0  0  0  0  0  0  0
   -3.8685    2.1764    0.0252 C   0  0  0  0  0  0  0  0  0  0  0  0
   -2.5691    2.6090    0.2842 C   0  0  0  0  0  0  0  0  0  0  0  0
   -1.4928    1.7230    0.1590 C   0  0  0  0  0  0  0  0  0  0  0  0
   -1.6963    0.3898   -0.2272 C   0  0  0  0  0  0  0  0  0  0  0  0
   -0.5911   -0.5860   -0.3729 C   0  0  0  0  0  0  0  0  0  0  0  0
    0.6994   -0.1096   -0.1030 N   0  0  0  0  0  0  0  0  0  0  0  0
    1.3317   -0.3658    1.2062 C   0  0  0  0  0  0  0  0  0  0  0  0
    2.5320    0.5523    1.4046 C   0  0  0  0  0  0  0  0  0  0  0  0
    3.6001    0.3223    0.3358 C   0  0  0  0  0  0  0  0  0  0  0  0
    3.0185   -0.2161   -0.9708 C   0  0  0  0  0  0  0  0  0  0  0  0
    1.5990    0.2860   -1.2069 C   0  0  0  0  0  0  0  0  0  0  0  0
   -0.9606   -1.8225   -0.7516 C   0  0  0  0  0  0  0  0  0  0  0  0
    0.0621   -2.8048   -0.9104 N   0  0  0  0  0  4  0  0  0  0  0  0
    0.3329   -3.5032    0.0772 O   0  0  0  0  0  0  0  0  0  0  0  0
    0.6099   -2.8780   -2.0200 O   0  0  0  0  0  1  0  0  0  0  0  0
   -5.1031    0.5120   -0.5631 H   0  0  0  0  0  0  0  0  0  0  0  0
   -4.7029    2.8665    0.1232 H   0  0  0  0  0  0  0  0  0  0  0  0
   -2.3894    3.6387    0.5850 H   0  0  0  0  0  0  0  0  0  0  0  0
   -0.4909    2.0911    0.3688 H   0  0  0  0  0  0  0  0  0  0  0  0
    0.6053   -0.1834    2.0071 H   0  0  0  0  0  0  0  0  0  0  0  0
    1.6441   -1.4137    1.2769 H   0  0  0  0  0  0  0  0  0  0  0  0
    2.9660    0.4048    2.3998 H   0  0  0  0  0  0  0  0  0  0  0  0
    2.1983    1.5971    1.3585 H   0  0  0  0  0  0  0  0  0  0  0  0
    4.3541   -0.3832    0.7050 H   0  0  0  0  0  0  0  0  0  0  0  0
    4.1266    1.2664    0.1515 H   0  0  0  0  0  0  0  0  0  0  0  0
    3.6668    0.0664   -1.8078 H   0  0  0  0  0  0  0  0  0  0  0  0
    3.0132   -1.3129   -0.9350 H   0  0  0  0  0  0  0  0  0  0  0  0
    1.5957    1.3797   -1.2859 H   0  0  0  0  0  0  0  0  0  0  0  0
    1.2319   -0.1032   -2.1639 H   0  0  0  0  0  0  0  0  0  0  0  0
  1  2  2  0
  2  3  1  0
  3  4  1  0
  4  5  2  0
  5  6  1  0
  6  7  2  0
  7  8  1  0
  8  9  2  0
  9 10  1  0
 10 11  1  0
 11 12  1  0
 12 13  1  0
 13 14  1  0
 14 15  1  0
 15 16  1  0
 10 17  2  0
 17 18  1  0
 18 19  2  0
 18 20  1  0
 17  2  1  0
  9  4  1  0
 16 11  1  0
  5 21  1  0
  6 22  1  0
  7 23  1  0
  8 24  1  0
 12 25  1  0
 12 26  1  0
 13 27  1  0
 13 28  1  0
 14 29  1  0
 14 30  1  0
 15 31  1  0
 15 32  1  0
 16 33  1  0
 16 34  1  0
M  CHG  2  18   1  20  -1
M  END
$$$$
