
     RDKit          3D

 58 62  0  0  0  0  0  0  0  0999 V2000
   -2.7280    0.6234   -4.0928 C   0  0  0  0  0  0  0  0  0  0  0  0
   -3.5303    1.3206   -3.1406 O   0  0  0  0  0  0  0  0  0  0  0  0
   -4.4942    0.5281   -2.5743 C   0  0  0  0  0  0  0  0  0  0  0  0
   -5.4065   -0.1791   -3.3651 C   0  0  0  0  0  0  0  0  0  0  0  0
   -6.4123   -0.9380   -2.7678 C   0  0  0  0  0  0  0  0  0  0  0  0
   -6.5205   -0.9776   -1.3808 C   0  0  0  0  0  0  0  0  0  0  0  0
   -5.6240   -0.2567   -0.5906 C   0  0  0  0  0  0  0  0  0  0  0  0
   -4.5979    0.5069   -1.1752 C   0  0  0  0  0  0  0  0  0  0  0  0
   -3.6332    1.2709   -0.2921 C   0  0  0  0  0  0  0  0  0  0  0  0
   -2.7342    0.3922    0.4579 N   0  0  0  0  0  0  0  0  0  0  0  0
   -3.0487    0.0399    1.7639 C   0  0  0  0  0  0  0  0  0  0  0  0
   -4.0498    0.4463    2.3514 O   0  0  0  0  0  0  0  0  0  0  0  0
   -2.1207   -0.8771    2.4862 C   0  0  0  0  0  0  0  0  0  0  0  0
   -2.4238   -1.2222    3.8127 C   0  0  0  0  0  0  0  0  0  0  0  0
   -1.5777   -2.0628    4.5310 C   0  0  0  0  0  0  0  0  0  0  0  0
   -0.4238   -2.5545    3.9295 C   0  0  0  0  0  0  0  0  0  0  0  0
   -0.1135   -2.2183    2.6071 C   0  0  0  0  0  0  0  0  0  0  0  0
   -0.9655   -1.3874    1.8734 C   0  0  0  0  0  0  0  0  0  0  0  0
   -0.7359   -1.0010    0.5345 N   0  0  0  0  0  0  0  0  0  0  0  0
    0.2202   -1.3001   -0.4170 C   0  0  0  0  0  0  0  0  0  0  0  0
    1.5379   -2.4160   -0.2856 S   0  0  0  0  0  0  0  0  0  0  0  0
    2.9041   -1.3105   -0.7615 C   0  0  0  0  0  0  0  0  0  0  0  0
    3.1907   -0.2487    0.3019 C   0  0  0  0  0  0  0  0  0  0  0  0
    2.4839   -0.1069    1.3028 O   0  0  0  0  0  0  0  0  0  0  0  0
    4.3146    0.5515    0.0900 N   0  0  0  0  0  0  0  0  0  0  0  0
    5.1538    0.4937   -1.1097 C   0  0  0  0  0  0  0  0  0  0  0  0
    5.9054    1.7978   -1.3505 C   0  0  0  0  0  0  0  0  0  0  0  0
    6.7702    2.1933   -0.1547 C   0  0  0  0  0  0  0  0  0  0  0  0
    6.1924    1.7281    1.1817 C   0  0  0  0  0  0  0  0  0  0  0  0
    4.6831    1.5262    1.1182 C   0  0  0  0  0  0  0  0  0  0  0  0
   -0.0032   -0.6172   -1.5188 N   0  0  0  0  0  0  0  0  0  0  0  0
   -1.1351    0.1217   -1.3301 N   0  0  0  0  0  0  0  0  0  0  0  0
   -1.5868   -0.1257   -0.1204 C   0  0  0  0  0  0  0  0  0  0  0  0
   -1.7837    1.1662   -4.1950 H   0  0  0  0  0  0  0  0  0  0  0  0
   -2.4978   -0.3991   -3.7722 H   0  0  0  0  0  0  0  0  0  0  0  0
   -3.2182    0.6164   -5.0711 H   0  0  0  0  0  0  0  0  0  0  0  0
   -5.3559   -0.1288   -4.4482 H   0  0  0  0  0  0  0  0  0  0  0  0
   -7.1190   -1.4863   -3.3847 H   0  0  0  0  0  0  0  0  0  0  0  0
   -7.3088   -1.5604   -0.9111 H   0  0  0  0  0  0  0  0  0  0  0  0
   -5.7353   -0.2866    0.4919 H   0  0  0  0  0  0  0  0  0  0  0  0
   -3.0247    1.9821   -0.8627 H   0  0  0  0  0  0  0  0  0  0  0  0
   -4.2183    1.8847    0.4046 H   0  0  0  0  0  0  0  0  0  0  0  0
   -3.3194   -0.8319    4.2931 H   0  0  0  0  0  0  0  0  0  0  0  0
   -1.8130   -2.3243    5.5598 H   0  0  0  0  0  0  0  0  0  0  0  0
    0.2481   -3.1981    4.4939 H   0  0  0  0  0  0  0  0  0  0  0  0
    0.8140   -2.6136    2.2144 H   0  0  0  0  0  0  0  0  0  0  0  0
    2.6661   -0.8300   -1.7144 H   0  0  0  0  0  0  0  0  0  0  0  0
    3.7960   -1.9318   -0.8868 H   0  0  0  0  0  0  0  0  0  0  0  0
    5.8586   -0.3343   -0.9717 H   0  0  0  0  0  0  0  0  0  0  0  0
    4.5398    0.2652   -1.9849 H   0  0  0  0  0  0  0  0  0  0  0  0
    5.1778    2.5974   -1.5407 H   0  0  0  0  0  0  0  0  0  0  0  0
    6.5271    1.7197   -2.2493 H   0  0  0  0  0  0  0  0  0  0  0  0
    7.7775    1.7753   -0.2688 H   0  0  0  0  0  0  0  0  0  0  0  0
    6.8910    3.2833   -0.1499 H   0  0  0  0  0  0  0  0  0  0  0  0
    6.4491    2.4470    1.9677 H   0  0  0  0  0  0  0  0  0  0  0  0
    6.6655    0.7772    1.4591 H   0  0  0  0  0  0  0  0  0  0  0  0
    4.3154    1.2019    2.0974 H   0  0  0  0  0  0  0  0  0  0  0  0
    4.1774    2.4677    0.8726 H   0  0  0  0  0  0  0  0  0  0  0  0
  1  2  1  0
  2  3  1  0
  3  4  2  0
  4  5  1  0
  5  6  2  0
  6  7  1  0
  7  8  2  0
  8  9  1  0
  9 10  1  0
 10 11  1  0
 11 12  2  0
 11 13  1  0
 13 14  2  0
 14 15  1  0
 15 16  2  0
 16 17  1  0
 17 18  2  0
 18 19  1  0
 19 20  1  0
 20 21  1  0
 21 22  1  0
 22 23  1  0
 23 24  2  0
 23 25  1  0
 25 26  1  0
 26 27  1  0
 27 28  1  0
 28 29  1  0
 29 30  1  0
 20 31  2  0
 31 32  1  0
 32 33  2  0
  8  3  1  0
 33 10  1  0
 18 13  1  0
 33 19  1  0
 30 25  1  0
  1 34  1  0
  1 35  1  0
  1 36  1  0
  4 37  1  0
  5 38  1  0
  6 39  1  0
  7 40  1  0
  9 41  1  0
  9 42  1  0
 14 43  1  0
 15 44  1  0
 16 45  1  0
 17 46  1  0
 22 47  1  0
 22 48  1  0
 26 49  1  0
 26 50  1  0
 27 51  1  0
 27 52  1  0
 28 53  1  0
 28 54  1  0
 29 55  1  0
 29 56  1  0
 30 57  1  0
 30 58  1  0
M  END
$$$$
