
     RDKit          3D

 45 47  0  0  0  0  0  0  0  0999 V2000
    6.4594    2.2221    1.8558 C   0  0  0  0  0  0  0  0  0  0  0  0
    5.2255    1.4275    1.5450 C   0  0  0  0  0  0  0  0  0  0  0  0
    5.2895    0.0386    1.4218 C   0  0  0  0  0  0  0  0  0  0  0  0
    4.1464   -0.6930    1.0926 C   0  0  0  0  0  0  0  0  0  0  0  0
    2.9156   -0.0510    0.8747 C   0  0  0  0  0  0  0  0  0  0  0  0
    1.7505   -0.8539    0.5221 C   0  0  0  0  0  0  0  0  0  0  0  0
    1.3653   -1.9833    1.2170 C   0  0  0  0  0  0  0  0  0  0  0  0
   -0.0545   -2.6441    0.5223 S   0  0  0  0  0  0  0  0  0  0  0  0
   -0.0558   -1.3833   -0.6550 C   0  0  0  0  0  0  0  0  0  0  0  0
   -1.1443   -1.3191   -1.6835 C   0  0  0  0  0  0  0  0  0  0  0  0
   -0.7122   -2.0249   -2.8962 C   0  0  0  0  0  0  0  0  0  0  0  0
   -0.3871   -2.5922   -3.8565 N   0  0  0  0  0  0  0  0  0  0  0  0
   -1.3965    0.1364   -2.0134 C   0  0  0  0  0  0  0  0  0  0  0  0
   -2.3454    0.9145   -1.5701 N   0  0  0  0  0  0  0  0  0  0  0  0
   -3.2811    0.4463   -0.6314 C   0  0  0  0  0  0  0  0  0  0  0  0
   -2.8813    0.2745    0.7021 C   0  0  0  0  0  0  0  0  0  0  0  0
   -3.7823   -0.1706    1.6696 C   0  0  0  0  0  0  0  0  0  0  0  0
   -5.1059   -0.4215    1.3208 C   0  0  0  0  0  0  0  0  0  0  0  0
   -5.5323   -0.2143    0.0083 C   0  0  0  0  0  0  0  0  0  0  0  0
   -4.6301    0.2221   -0.9734 C   0  0  0  0  0  0  0  0  0  0  0  0
   -5.2554    0.5287   -2.6228 S   0  0  0  0  0  0  0  0  0  0  0  0
   -5.0003   -1.1023   -3.3049 C   0  0  0  0  0  0  0  0  0  0  0  0
   -3.7094   -1.5041   -3.1989 F   0  0  0  0  0  0  0  0  0  0  0  0
   -5.7587   -2.0316   -2.6737 F   0  0  0  0  0  0  0  0  0  0  0  0
   -5.3269   -1.1454   -4.6177 F   0  0  0  0  0  0  0  0  0  0  0  0
    0.9339   -0.5204   -0.5448 N   0  0  0  0  0  0  0  0  0  0  0  0
    2.8419    1.3525    0.9882 C   0  0  0  0  0  0  0  0  0  0  0  0
    1.5655    2.1149    0.7482 C   0  0  0  0  0  0  0  0  0  0  0  0
    4.0060    2.0752    1.3105 C   0  0  0  0  0  0  0  0  0  0  0  0
    6.9613    2.5121    0.9276 H   0  0  0  0  0  0  0  0  0  0  0  0
    7.1561    1.6394    2.4676 H   0  0  0  0  0  0  0  0  0  0  0  0
    6.2092    3.1259    2.4213 H   0  0  0  0  0  0  0  0  0  0  0  0
    6.2314   -0.4843    1.5714 H   0  0  0  0  0  0  0  0  0  0  0  0
    4.2338   -1.7721    0.9853 H   0  0  0  0  0  0  0  0  0  0  0  0
    1.8281   -2.4363    2.0824 H   0  0  0  0  0  0  0  0  0  0  0  0
   -2.0613   -1.7786   -1.3023 H   0  0  0  0  0  0  0  0  0  0  0  0
   -0.6670    0.6143   -2.6941 H   0  0  0  0  0  0  0  0  0  0  0  0
   -1.8594    0.5075    0.9939 H   0  0  0  0  0  0  0  0  0  0  0  0
   -3.4546   -0.3022    2.6982 H   0  0  0  0  0  0  0  0  0  0  0  0
   -5.8141   -0.7561    2.0755 H   0  0  0  0  0  0  0  0  0  0  0  0
   -6.5788   -0.3855   -0.2371 H   0  0  0  0  0  0  0  0  0  0  0  0
    1.6421    3.1436    1.1170 H   0  0  0  0  0  0  0  0  0  0  0  0
    0.7275    1.6529    1.2801 H   0  0  0  0  0  0  0  0  0  0  0  0
    1.3452    2.1585   -0.3229 H   0  0  0  0  0  0  0  0  0  0  0  0
    3.9605    3.1613    1.3794 H   0  0  0  0  0  0  0  0  0  0  0  0
  1  2  1  0
  2  3  2  0
  3  4  1  0
  4  5  2  0
  5  6  1  0
  6  7  2  0
  7  8  1  0
  8  9  1  0
  9 10  1  0
 10 11  1  0
 11 12  3  0
 10 13  1  0
 13 14  2  3
 14 15  1  0
 15 16  2  0
 16 17  1  0
 17 18  2  0
 18 19  1  0
 19 20  2  0
 20 21  1  0
 21 22  1  0
 22 23  1  0
 22 24  1  0
 22 25  1  0
  9 26  2  0
  5 27  1  0
 27 28  1  0
 27 29  2  0
 29  2  1  0
 26  6  1  0
 20 15  1  0
  1 30  1  0
  1 31  1  0
  1 32  1  0
  3 33  1  0
  4 34  1  0
  7 35  1  0
 10 36  1  0
 13 37  1  0
 16 38  1  0
 17 39  1  0
 18 40  1  0
 19 41  1  0
 28 42  1  0
 28 43  1  0
 28 44  1  0
 29 45  1  0
M  END
$$$$
