
     RDKit          3D

 51 52  0  0  0  0  0  0  0  0999 V2000
    4.3406    0.0391   -0.6945 C   0  0  0  0  0  0  0  0  0  0  0  0
    3.3505   -1.0597   -0.7219 N   0  0  0  0  0  0  0  0  0  0  0  0
    3.4674   -1.8650   -1.9570 C   0  0  0  0  0  0  0  0  0  0  0  0
    3.2948   -1.9961    0.6887 S   0  0  0  0  0  6  0  0  0  0  0  0
    4.6508   -2.2761    1.0973 O   0  0  0  0  0  0  0  0  0  0  0  0
    2.3277   -3.0539    0.5160 O   0  0  0  0  0  0  0  0  0  0  0  0
    2.6730   -0.8773    1.7958 N   0  0  0  0  0  0  0  0  0  0  0  0
    1.2623   -0.6442    1.7352 C   0  0  0  0  0  0  0  0  0  0  0  0
    0.4392   -1.1580    2.7331 C   0  0  0  0  0  0  0  0  0  0  0  0
   -0.9468   -0.9849    2.6564 C   0  0  0  0  0  0  0  0  0  0  0  0
   -1.5361   -0.3227    1.5729 C   0  0  0  0  0  0  0  0  0  0  0  0
   -2.9596   -0.1892    1.5289 N   0  0  0  0  0  0  0  0  0  0  0  0
   -3.9612   -1.5418    1.5485 S   0  0  0  0  0  6  0  0  0  0  0  0
   -3.5889   -2.4095    2.6403 O   0  0  0  0  0  0  0  0  0  0  0  0
   -5.3075   -1.0312    1.4313 O   0  0  0  0  0  0  0  0  0  0  0  0
   -3.5666   -2.2835    0.1035 N   0  0  0  0  0  0  0  0  0  0  0  0
   -3.9851   -1.6778   -1.1654 C   0  0  0  0  0  0  0  0  0  0  0  0
   -2.3843   -3.1457    0.0130 C   0  0  0  0  0  0  0  0  0  0  0  0
   -0.6912    0.2268    0.6013 C   0  0  0  0  0  0  0  0  0  0  0  0
   -1.3033    1.1492   -0.7820 S   0  0  0  0  0  6  0  0  0  0  0  0
   -2.7295    1.3567   -0.5922 O   0  0  0  0  0  0  0  0  0  0  0  0
   -0.8171    0.4725   -1.9697 O   0  0  0  0  0  0  0  0  0  0  0  0
   -0.5536    2.7576   -0.7094 C   0  0  0  0  0  0  0  0  0  0  0  0
   -0.8922    3.6158    0.3413 C   0  0  0  0  0  0  0  0  0  0  0  0
   -0.3029    4.8774    0.4083 C   0  0  0  0  0  0  0  0  0  0  0  0
    0.6107    5.2752   -0.5697 C   0  0  0  0  0  0  0  0  0  0  0  0
    0.9362    4.4165   -1.6213 C   0  0  0  0  0  0  0  0  0  0  0  0
    0.3524    3.1526   -1.6973 C   0  0  0  0  0  0  0  0  0  0  0  0
    0.7008    0.0585    0.6751 C   0  0  0  0  0  0  0  0  0  0  0  0
    5.3623   -0.3475   -0.7518 H   0  0  0  0  0  0  0  0  0  0  0  0
    4.2303    0.6472    0.2076 H   0  0  0  0  0  0  0  0  0  0  0  0
    4.1721    0.7041   -1.5482 H   0  0  0  0  0  0  0  0  0  0  0  0
    4.3984   -2.4396   -1.9638 H   0  0  0  0  0  0  0  0  0  0  0  0
    3.4564   -1.2099   -2.8348 H   0  0  0  0  0  0  0  0  0  0  0  0
    2.6144   -2.5435   -2.0544 H   0  0  0  0  0  0  0  0  0  0  0  0
    2.9916   -1.1762    2.7183 H   0  0  0  0  0  0  0  0  0  0  0  0
    0.8520   -1.7112    3.5726 H   0  0  0  0  0  0  0  0  0  0  0  0
   -1.5596   -1.3861    3.4616 H   0  0  0  0  0  0  0  0  0  0  0  0
   -3.3383    0.4815    0.8461 H   0  0  0  0  0  0  0  0  0  0  0  0
   -4.5089   -2.4277   -1.7670 H   0  0  0  0  0  0  0  0  0  0  0  0
   -3.1208   -1.3169   -1.7293 H   0  0  0  0  0  0  0  0  0  0  0  0
   -4.6693   -0.8383   -1.0208 H   0  0  0  0  0  0  0  0  0  0  0  0
   -2.5752   -3.9485   -0.7069 H   0  0  0  0  0  0  0  0  0  0  0  0
   -2.1517   -3.6255    0.9671 H   0  0  0  0  0  0  0  0  0  0  0  0
   -1.5110   -2.5815   -0.3236 H   0  0  0  0  0  0  0  0  0  0  0  0
   -1.6137    3.3193    1.0996 H   0  0  0  0  0  0  0  0  0  0  0  0
   -0.5604    5.5568    1.2176 H   0  0  0  0  0  0  0  0  0  0  0  0
    1.0638    6.2627   -0.5175 H   0  0  0  0  0  0  0  0  0  0  0  0
    1.6399    4.7383   -2.3861 H   0  0  0  0  0  0  0  0  0  0  0  0
    0.6048    2.4935   -2.5251 H   0  0  0  0  0  0  0  0  0  0  0  0
    1.3424    0.4676   -0.1003 H   0  0  0  0  0  0  0  0  0  0  0  0
  1  2  1  0
  2  3  1  0
  2  4  1  0
  4  5  2  0
  4  6  2  0
  4  7  1  0
  7  8  1  0
  8  9  2  0
  9 10  1  0
 10 11  2  0
 11 12  1  0
 12 13  1  0
 13 14  2  0
 13 15  2  0
 13 16  1  0
 16 17  1  0
 16 18  1  0
 11 19  1  0
 19 20  1  0
 20 21  2  0
 20 22  2  0
 20 23  1  0
 23 24  2  0
 24 25  1  0
 25 26  2  0
 26 27  1  0
 27 28  2  0
 19 29  2  0
 29  8  1  0
 28 23  1  0
  1 30  1  0
  1 31  1  0
  1 32  1  0
  3 33  1  0
  3 34  1  0
  3 35  1  0
  7 36  1  0
  9 37  1  0
 10 38  1  0
 12 39  1  0
 17 40  1  0
 17 41  1  0
 17 42  1  0
 18 43  1  0
 18 44  1  0
 18 45  1  0
 24 46  1  0
 25 47  1  0
 26 48  1  0
 27 49  1  0
 28 50  1  0
 29 51  1  0
M  END
$$$$
