
     RDKit          3D

 49 52  0  0  0  0  0  0  0  0999 V2000
    6.2596   -3.8129   -2.6848 C   0  0  0  0  0  0  0  0  0  0  0  0
    5.3991   -2.7917   -2.0018 C   0  0  0  0  0  0  0  0  0  0  0  0
    4.5053   -3.1761   -0.9955 C   0  0  0  0  0  0  0  0  0  0  0  0
    3.6815   -2.2296   -0.3804 C   0  0  0  0  0  0  0  0  0  0  0  0
    3.7299   -0.8889   -0.7741 C   0  0  0  0  0  0  0  0  0  0  0  0
    2.8782    0.1180   -0.1382 C   0  0  0  0  0  0  0  0  0  0  0  0
    1.5454    0.1673   -0.2807 C   0  0  0  0  0  0  0  0  0  0  0  0
    0.6658   -0.7500   -1.1019 C   0  0  0  0  0  0  0  0  0  0  0  0
   -0.7543   -0.1607   -1.0039 C   0  0  0  0  0  0  0  0  0  0  0  0
   -0.5970    0.9888   -0.0613 C   0  0  0  0  0  0  0  0  0  0  0  0
    0.6716    1.1490    0.3018 C   0  0  0  0  0  0  0  0  0  0  0  0
    1.1732    2.1977    1.0535 O   0  0  0  0  0  0  0  0  0  0  0  0
    0.3001    3.1278    1.5232 C   0  0  0  0  0  0  0  0  0  0  0  0
    0.8240    4.2152    1.9900 N   0  0  0  0  0  0  0  0  0  0  0  0
   -1.1804    2.7683    1.5816 C   0  0  0  0  0  0  0  0  0  0  0  0
   -2.0049    3.9829    1.6880 C   0  0  0  0  0  0  0  0  0  0  0  0
   -2.6334    4.9542    1.7797 N   0  0  0  0  0  0  0  0  0  0  0  0
   -1.6662    1.9277    0.3773 C   0  0  0  0  0  0  0  0  0  0  0  0
   -2.9771    1.2174    0.7027 C   0  0  0  0  0  0  0  0  0  0  0  0
   -4.1595    1.6054    0.0561 C   0  0  0  0  0  0  0  0  0  0  0  0
   -5.3724    0.9779    0.3514 C   0  0  0  0  0  0  0  0  0  0  0  0
   -5.4280   -0.0569    1.2901 C   0  0  0  0  0  0  0  0  0  0  0  0
   -6.7373   -0.7051    1.6302 C   0  0  0  0  0  0  0  0  0  0  0  0
   -4.2554   -0.4380    1.9492 C   0  0  0  0  0  0  0  0  0  0  0  0
   -3.0417    0.1889    1.6570 C   0  0  0  0  0  0  0  0  0  0  0  0
    4.6164   -0.5035   -1.7834 C   0  0  0  0  0  0  0  0  0  0  0  0
    5.4400   -1.4501   -2.3988 C   0  0  0  0  0  0  0  0  0  0  0  0
    6.5218   -4.6247   -1.9982 H   0  0  0  0  0  0  0  0  0  0  0  0
    7.1971   -3.3655   -3.0311 H   0  0  0  0  0  0  0  0  0  0  0  0
    5.7295   -4.2338   -3.5447 H   0  0  0  0  0  0  0  0  0  0  0  0
    4.4474   -4.2153   -0.6800 H   0  0  0  0  0  0  0  0  0  0  0  0
    3.0049   -2.5463    0.4094 H   0  0  0  0  0  0  0  0  0  0  0  0
    3.4042    0.8632    0.4550 H   0  0  0  0  0  0  0  0  0  0  0  0
    0.9908   -0.7907   -2.1475 H   0  0  0  0  0  0  0  0  0  0  0  0
    0.6737   -1.7669   -0.6931 H   0  0  0  0  0  0  0  0  0  0  0  0
   -1.1029    0.1821   -1.9840 H   0  0  0  0  0  0  0  0  0  0  0  0
   -1.4534   -0.9141   -0.6284 H   0  0  0  0  0  0  0  0  0  0  0  0
    0.1335    4.8686    2.3739 H   0  0  0  0  0  0  0  0  0  0  0  0
   -1.2918    2.2006    2.5161 H   0  0  0  0  0  0  0  0  0  0  0  0
   -1.8443    2.5963   -0.4788 H   0  0  0  0  0  0  0  0  0  0  0  0
   -4.1542    2.4074   -0.6799 H   0  0  0  0  0  0  0  0  0  0  0  0
   -6.2769    1.3059   -0.1571 H   0  0  0  0  0  0  0  0  0  0  0  0
   -7.2215   -0.1636    2.4486 H   0  0  0  0  0  0  0  0  0  0  0  0
   -6.5900   -1.7471    1.9332 H   0  0  0  0  0  0  0  0  0  0  0  0
   -7.4070   -0.7110    0.7637 H   0  0  0  0  0  0  0  0  0  0  0  0
   -4.2795   -1.2293    2.6957 H   0  0  0  0  0  0  0  0  0  0  0  0
   -2.1469   -0.1423    2.1803 H   0  0  0  0  0  0  0  0  0  0  0  0
    4.6674    0.5349   -2.1029 H   0  0  0  0  0  0  0  0  0  0  0  0
    6.1156   -1.1311   -3.1892 H   0  0  0  0  0  0  0  0  0  0  0  0
  1  2  1  0
  2  3  2  0
  3  4  1  0
  4  5  2  0
  5  6  1  0
  6  7  2  3
  7  8  1  0
  8  9  1  0
  9 10  1  0
 10 11  2  0
 11 12  1  0
 12 13  1  0
 13 14  2  3
 13 15  1  0
 15 16  1  0
 16 17  3  0
 15 18  1  0
 18 19  1  0
 19 20  2  0
 20 21  1  0
 21 22  2  0
 22 23  1  0
 22 24  1  0
 24 25  2  0
  5 26  1  0
 26 27  2  0
 27  2  1  0
 11  7  1  0
 25 19  1  0
 18 10  1  0
  1 28  1  0
  1 29  1  0
  1 30  1  0
  3 31  1  0
  4 32  1  0
  6 33  1  0
  8 34  1  0
  8 35  1  0
  9 36  1  0
  9 37  1  0
 14 38  1  0
 15 39  1  0
 18 40  1  0
 20 41  1  0
 21 42  1  0
 23 43  1  0
 23 44  1  0
 23 45  1  0
 24 46  1  0
 25 47  1  0
 26 48  1  0
 27 49  1  0
M  END
$$$$
