
     RDKit          3D

 55 58  0  0  0  0  0  0  0  0999 V2000
    3.7751   -5.0169   -2.1019 C   0  0  0  0  0  0  0  0  0  0  0  0
    3.2697   -3.9820   -1.2674 O   0  0  0  0  0  0  0  0  0  0  0  0
    2.6805   -2.9085   -1.8834 C   0  0  0  0  0  0  0  0  0  0  0  0
    2.8284   -2.6237   -3.2450 C   0  0  0  0  0  0  0  0  0  0  0  0
    2.1712   -1.5351   -3.8180 C   0  0  0  0  0  0  0  0  0  0  0  0
    1.3484   -0.7247   -3.0406 C   0  0  0  0  0  0  0  0  0  0  0  0
    1.1764   -0.9841   -1.6722 C   0  0  0  0  0  0  0  0  0  0  0  0
    0.2839   -0.1092   -0.8138 C   0  0  0  0  0  0  0  0  0  0  0  0
    1.1213    0.9208   -0.0431 C   0  0  0  0  0  0  0  0  0  0  0  0
    0.2623    2.1558   -0.0946 C   0  0  0  0  0  0  0  0  0  0  0  0
    0.5648    3.3495    0.7300 C   0  0  0  0  0  0  0  0  0  0  0  0
    1.7103    3.4134    1.5317 C   0  0  0  0  0  0  0  0  0  0  0  0
    1.9638    4.5531    2.2997 C   0  0  0  0  0  0  0  0  0  0  0  0
    1.0790    5.6302    2.2691 C   0  0  0  0  0  0  0  0  0  0  0  0
   -0.0608    5.5732    1.4695 C   0  0  0  0  0  0  0  0  0  0  0  0
   -0.3182    4.4366    0.7007 C   0  0  0  0  0  0  0  0  0  0  0  0
   -0.7384    2.1033   -0.9180 N   0  0  0  0  0  0  0  0  0  0  0  0
   -0.6958    0.7401   -1.5460 N   0  0  0  0  0  0  0  0  0  0  0  0
   -2.1983    0.0128   -1.9678 S   0  0  0  0  0  6  0  0  0  0  0  0
   -2.9828    0.9556   -2.7416 O   0  0  0  0  0  0  0  0  0  0  0  0
   -1.9456   -1.3213   -2.4760 O   0  0  0  0  0  0  0  0  0  0  0  0
   -3.0022   -0.1623   -0.3859 C   0  0  0  0  0  0  0  0  0  0  0  0
   -3.0628   -1.4131    0.2338 C   0  0  0  0  0  0  0  0  0  0  0  0
   -3.7072   -1.5387    1.4657 C   0  0  0  0  0  0  0  0  0  0  0  0
   -4.2921   -0.4222    2.0797 C   0  0  0  0  0  0  0  0  0  0  0  0
   -5.0163   -0.5695    3.3859 C   0  0  0  0  0  0  0  0  0  0  0  0
   -4.2514    0.8194    1.4304 C   0  0  0  0  0  0  0  0  0  0  0  0
   -3.6093    0.9520    0.1987 C   0  0  0  0  0  0  0  0  0  0  0  0
    1.8847   -2.0577   -1.0892 C   0  0  0  0  0  0  0  0  0  0  0  0
    1.6822   -2.2282    0.2622 O   0  0  0  0  0  0  0  0  0  0  0  0
    2.8612   -2.4978    1.0174 C   0  0  0  0  0  0  0  0  0  0  0  0
    3.0136   -5.3762   -2.8024 H   0  0  0  0  0  0  0  0  0  0  0  0
    4.6760   -4.6874   -2.6291 H   0  0  0  0  0  0  0  0  0  0  0  0
    4.0566   -5.8559   -1.4583 H   0  0  0  0  0  0  0  0  0  0  0  0
    3.4495   -3.2330   -3.8931 H   0  0  0  0  0  0  0  0  0  0  0  0
    2.2876   -1.3258   -4.8788 H   0  0  0  0  0  0  0  0  0  0  0  0
    0.8340    0.1081   -3.5176 H   0  0  0  0  0  0  0  0  0  0  0  0
   -0.2629   -0.7278   -0.0933 H   0  0  0  0  0  0  0  0  0  0  0  0
    1.2974    0.5947    0.9862 H   0  0  0  0  0  0  0  0  0  0  0  0
    2.0803    1.1405   -0.5260 H   0  0  0  0  0  0  0  0  0  0  0  0
    2.4234    2.5957    1.5724 H   0  0  0  0  0  0  0  0  0  0  0  0
    2.8547    4.6028    2.9214 H   0  0  0  0  0  0  0  0  0  0  0  0
    1.2795    6.5166    2.8662 H   0  0  0  0  0  0  0  0  0  0  0  0
   -0.7496    6.4141    1.4411 H   0  0  0  0  0  0  0  0  0  0  0  0
   -1.2109    4.4093    0.0787 H   0  0  0  0  0  0  0  0  0  0  0  0
   -2.6175   -2.2896   -0.2322 H   0  0  0  0  0  0  0  0  0  0  0  0
   -3.7558   -2.5158    1.9424 H   0  0  0  0  0  0  0  0  0  0  0  0
   -4.5681   -1.3626    3.9936 H   0  0  0  0  0  0  0  0  0  0  0  0
   -4.9617    0.3559    3.9689 H   0  0  0  0  0  0  0  0  0  0  0  0
   -6.0678   -0.8130    3.2053 H   0  0  0  0  0  0  0  0  0  0  0  0
   -4.7249    1.6904    1.8787 H   0  0  0  0  0  0  0  0  0  0  0  0
   -3.5831    1.9187   -0.3004 H   0  0  0  0  0  0  0  0  0  0  0  0
    2.7169   -2.0707    2.0148 H   0  0  0  0  0  0  0  0  0  0  0  0
    2.9948   -3.5763    1.1405 H   0  0  0  0  0  0  0  0  0  0  0  0
    3.7560   -2.0336    0.5876 H   0  0  0  0  0  0  0  0  0  0  0  0
  1  2  1  0
  2  3  1  0
  3  4  2  0
  4  5  1  0
  5  6  2  0
  6  7  1  0
  7  8  1  0
  8  9  1  0
  9 10  1  0
 10 11  1  0
 11 12  2  0
 12 13  1  0
 13 14  2  0
 14 15  1  0
 15 16  2  0
 10 17  2  0
 17 18  1  0
 18 19  1  0
 19 20  2  0
 19 21  2  0
 19 22  1  0
 22 23  2  0
 23 24  1  0
 24 25  2  0
 25 26  1  0
 25 27  1  0
 27 28  2  0
  7 29  2  0
 29 30  1  0
 30 31  1  0
 29  3  1  0
 18  8  1  0
 28 22  1  0
 16 11  1  0
  1 32  1  0
  1 33  1  0
  1 34  1  0
  4 35  1  0
  5 36  1  0
  6 37  1  0
  8 38  1  0
  9 39  1  0
  9 40  1  0
 12 41  1  0
 13 42  1  0
 14 43  1  0
 15 44  1  0
 16 45  1  0
 23 46  1  0
 24 47  1  0
 26 48  1  0
 26 49  1  0
 26 50  1  0
 27 51  1  0
 28 52  1  0
 31 53  1  0
 31 54  1  0
 31 55  1  0
M  END
$$$$
