
     RDKit          3D

 55 57  0  0  0  0  0  0  0  0999 V2000
    0.9901   -0.6628   -2.5399 O   0  0  0  0  0  0  0  0  0  0  0  0
    1.3298   -1.3048   -1.5498 C   0  0  0  0  0  0  0  0  0  0  0  0
    0.3897   -2.3104   -0.8794 C   0  0  0  0  0  0  0  0  0  0  0  0
   -0.8384   -1.7077   -0.4722 O   0  0  0  0  0  0  0  0  0  0  0  0
   -0.7147   -0.8574    0.5935 C   0  0  0  0  0  0  0  0  0  0  0  0
    0.3322   -0.6953    1.2104 O   0  0  0  0  0  0  0  0  0  0  0  0
   -2.0545   -0.1700    0.9174 C   0  0  0  0  0  0  0  0  0  0  0  0
   -2.4804   -0.5204    2.3541 C   0  0  0  0  0  0  0  0  0  0  0  0
   -1.9772    0.4798    3.3693 C   0  0  0  0  0  0  0  0  0  0  0  0
   -0.8196    0.2311    4.1154 C   0  0  0  0  0  0  0  0  0  0  0  0
   -0.3542    1.1760    5.0312 C   0  0  0  0  0  0  0  0  0  0  0  0
   -1.0412    2.3759    5.2096 C   0  0  0  0  0  0  0  0  0  0  0  0
   -2.1943    2.6330    4.4720 C   0  0  0  0  0  0  0  0  0  0  0  0
   -2.6596    1.6911    3.5540 C   0  0  0  0  0  0  0  0  0  0  0  0
   -3.0831   -0.5698   -0.0496 N   0  0  0  0  0  0  0  0  0  0  0  0
   -4.2333    0.1583   -0.2536 C   0  0  0  0  0  0  0  0  0  0  0  0
   -4.5108    1.1228    0.4580 O   0  0  0  0  0  0  0  0  0  0  0  0
   -5.0849   -0.2878   -1.3475 C   0  0  0  0  0  0  0  0  0  0  0  0
   -6.3130    0.2415   -1.7043 C   0  0  0  0  0  0  0  0  0  0  0  0
   -6.8884   -0.4130   -2.8310 C   0  0  0  0  0  0  0  0  0  0  0  0
   -6.0800   -1.4196   -3.3063 C   0  0  0  0  0  0  0  0  0  0  0  0
   -4.6529   -1.5910   -2.3785 S   0  0  0  0  0  0  0  0  0  0  0  0
    2.5638   -1.1915   -0.9364 N   0  0  0  0  0  0  0  0  0  0  0  0
    3.5389   -0.1875   -1.3559 C   0  0  0  0  0  0  0  0  0  0  0  0
    3.9975   -0.3982   -2.8120 C   0  0  0  0  0  0  0  0  0  0  0  0
    5.3980    0.1429   -3.1076 C   0  0  0  0  0  0  0  0  0  0  0  0
    5.7566    1.3115   -2.2029 C   0  0  0  0  0  0  0  0  0  0  0  0
    5.7583    0.8975   -0.7329 C   0  0  0  0  0  0  0  0  0  0  0  0
    4.7404   -0.1976   -0.4050 C   0  0  0  0  0  0  0  0  0  0  0  0
    0.1545   -3.0819   -1.6207 H   0  0  0  0  0  0  0  0  0  0  0  0
    0.8673   -2.8214   -0.0348 H   0  0  0  0  0  0  0  0  0  0  0  0
   -1.9043    0.9078    0.7808 H   0  0  0  0  0  0  0  0  0  0  0  0
   -2.1377   -1.5278    2.6277 H   0  0  0  0  0  0  0  0  0  0  0  0
   -3.5747   -0.5595    2.4430 H   0  0  0  0  0  0  0  0  0  0  0  0
   -0.2647   -0.6956    3.9838 H   0  0  0  0  0  0  0  0  0  0  0  0
    0.5486    0.9790    5.6014 H   0  0  0  0  0  0  0  0  0  0  0  0
   -0.6759    3.1118    5.9209 H   0  0  0  0  0  0  0  0  0  0  0  0
   -2.7308    3.5690    4.6067 H   0  0  0  0  0  0  0  0  0  0  0  0
   -3.5585    1.9085    2.9785 H   0  0  0  0  0  0  0  0  0  0  0  0
   -2.8480   -1.2920   -0.7230 H   0  0  0  0  0  0  0  0  0  0  0  0
   -6.7726    1.0702   -1.1754 H   0  0  0  0  0  0  0  0  0  0  0  0
   -7.8439   -0.1536   -3.2718 H   0  0  0  0  0  0  0  0  0  0  0  0
   -6.2640   -2.0730   -4.1488 H   0  0  0  0  0  0  0  0  0  0  0  0
    2.5574   -1.4139    0.0540 H   0  0  0  0  0  0  0  0  0  0  0  0
    3.0384    0.7859   -1.2795 H   0  0  0  0  0  0  0  0  0  0  0  0
    3.9733   -1.4600   -3.0796 H   0  0  0  0  0  0  0  0  0  0  0  0
    3.2838    0.0938   -3.4818 H   0  0  0  0  0  0  0  0  0  0  0  0
    6.1333   -0.6593   -2.9672 H   0  0  0  0  0  0  0  0  0  0  0  0
    5.4623    0.4416   -4.1611 H   0  0  0  0  0  0  0  0  0  0  0  0
    6.7388    1.7149   -2.4728 H   0  0  0  0  0  0  0  0  0  0  0  0
    5.0333    2.1203   -2.3533 H   0  0  0  0  0  0  0  0  0  0  0  0
    6.7551    0.5408   -0.4521 H   0  0  0  0  0  0  0  0  0  0  0  0
    5.5682    1.7807   -0.1141 H   0  0  0  0  0  0  0  0  0  0  0  0
    5.2322   -1.1778   -0.4587 H   0  0  0  0  0  0  0  0  0  0  0  0
    4.4138   -0.0850    0.6360 H   0  0  0  0  0  0  0  0  0  0  0  0
  1  2  2  0
  2  3  1  0
  3  4  1  0
  4  5  1  0
  5  6  2  0
  5  7  1  0
  7  8  1  0
  8  9  1  0
  9 10  2  0
 10 11  1  0
 11 12  2  0
 12 13  1  0
 13 14  2  0
  7 15  1  0
 15 16  1  0
 16 17  2  0
 16 18  1  0
 18 19  2  0
 19 20  1  0
 20 21  2  0
 21 22  1  0
  2 23  1  0
 23 24  1  0
 24 25  1  0
 25 26  1  0
 26 27  1  0
 27 28  1  0
 28 29  1  0
 14  9  1  0
 22 18  1  0
 29 24  1  0
  3 30  1  0
  3 31  1  0
  7 32  1  0
  8 33  1  0
  8 34  1  0
 10 35  1  0
 11 36  1  0
 12 37  1  0
 13 38  1  0
 14 39  1  0
 15 40  1  0
 19 41  1  0
 20 42  1  0
 21 43  1  0
 23 44  1  0
 24 45  1  0
 25 46  1  0
 25 47  1  0
 26 48  1  0
 26 49  1  0
 27 50  1  0
 27 51  1  0
 28 52  1  0
 28 53  1  0
 29 54  1  0
 29 55  1  0
M  END
$$$$
