
     RDKit          3D

 47 49  0  0  0  0  0  0  0  0999 V2000
   -6.6943   -1.9152   -1.8000 C   0  0  0  0  0  0  0  0  0  0  0  0
   -6.8921   -1.2704   -0.4392 C   0  0  0  0  0  0  0  0  0  0  0  0
   -6.1855   -0.0335   -0.3589 O   0  0  0  0  0  0  0  0  0  0  0  0
   -4.9005   -0.0343    0.1051 C   0  0  0  0  0  0  0  0  0  0  0  0
   -4.1153   -1.1595    0.3655 C   0  0  0  0  0  0  0  0  0  0  0  0
   -2.8043   -1.0125    0.8320 C   0  0  0  0  0  0  0  0  0  0  0  0
   -2.2810    0.2670    1.0296 C   0  0  0  0  0  0  0  0  0  0  0  0
   -0.6191    0.4738    1.6140 S   0  0  0  0  0  6  0  0  0  0  0  0
   -0.6685    1.3843    2.7374 O   0  0  0  0  0  0  0  0  0  0  0  0
   -0.0110   -0.8329    1.7438 O   0  0  0  0  0  0  0  0  0  0  0  0
    0.1391    1.2764    0.3178 N   0  0  0  0  0  0  0  0  0  0  0  0
    1.4360    1.9338    0.6591 C   0  0  0  0  0  0  0  0  0  0  0  0
    2.5936    0.9282    0.7101 C   0  0  0  0  0  0  0  0  0  0  0  0
    2.6849    0.1230   -0.5173 N   0  0  0  0  0  0  0  0  0  0  0  0
    3.8663   -0.4058   -1.0316 C   0  0  0  0  0  0  0  0  0  0  0  0
    3.9195   -1.1010   -2.0425 O   0  0  0  0  0  0  0  0  0  0  0  0
    5.1383   -0.1127   -0.3477 C   0  0  0  0  0  0  0  0  0  0  0  0
    5.3951   -0.6408    0.9155 C   0  0  0  0  0  0  0  0  0  0  0  0
    6.6148   -0.3422    1.4907 C   0  0  0  0  0  0  0  0  0  0  0  0
    7.5583    0.4191    0.8930 N   0  0  0  0  0  0  0  0  0  0  0  0
    7.2856    0.8852   -0.3465 C   0  0  0  0  0  0  0  0  0  0  0  0
    6.0985    0.6460   -1.0102 C   0  0  0  0  0  0  0  0  0  0  0  0
    1.4254   -0.4534   -0.9990 C   0  0  0  0  0  0  0  0  0  0  0  0
    0.2523    0.5363   -0.9775 C   0  0  0  0  0  0  0  0  0  0  0  0
   -3.0556    1.3994    0.7760 C   0  0  0  0  0  0  0  0  0  0  0  0
   -4.3614    1.2414    0.3096 C   0  0  0  0  0  0  0  0  0  0  0  0
   -7.2916   -2.8274   -1.8858 H   0  0  0  0  0  0  0  0  0  0  0  0
   -5.6445   -2.1685   -1.9746 H   0  0  0  0  0  0  0  0  0  0  0  0
   -6.9901   -1.2250   -2.5971 H   0  0  0  0  0  0  0  0  0  0  0  0
   -7.9546   -1.0275   -0.3235 H   0  0  0  0  0  0  0  0  0  0  0  0
   -6.6487   -1.9495    0.3853 H   0  0  0  0  0  0  0  0  0  0  0  0
   -4.4879   -2.1667    0.2112 H   0  0  0  0  0  0  0  0  0  0  0  0
   -2.2056   -1.8977    1.0362 H   0  0  0  0  0  0  0  0  0  0  0  0
    1.3574    2.4796    1.6047 H   0  0  0  0  0  0  0  0  0  0  0  0
    1.6373    2.6887   -0.1119 H   0  0  0  0  0  0  0  0  0  0  0  0
    2.4705    0.2327    1.5472 H   0  0  0  0  0  0  0  0  0  0  0  0
    3.5241    1.4807    0.8692 H   0  0  0  0  0  0  0  0  0  0  0  0
    4.6761   -1.2701    1.4269 H   0  0  0  0  0  0  0  0  0  0  0  0
    6.8800   -0.7197    2.4745 H   0  0  0  0  0  0  0  0  0  0  0  0
    8.0770    1.4718   -0.8049 H   0  0  0  0  0  0  0  0  0  0  0  0
    5.9267    1.0289   -2.0095 H   0  0  0  0  0  0  0  0  0  0  0  0
    1.5483   -0.8322   -2.0197 H   0  0  0  0  0  0  0  0  0  0  0  0
    1.2153   -1.3239   -0.3691 H   0  0  0  0  0  0  0  0  0  0  0  0
   -0.6836    0.0234   -1.2180 H   0  0  0  0  0  0  0  0  0  0  0  0
    0.3972    1.2865   -1.7657 H   0  0  0  0  0  0  0  0  0  0  0  0
   -2.6521    2.3963    0.9382 H   0  0  0  0  0  0  0  0  0  0  0  0
   -4.9705    2.1200    0.1078 H   0  0  0  0  0  0  0  0  0  0  0  0
  1  2  1  0
  2  3  1  0
  3  4  1  0
  4  5  2  0
  5  6  1  0
  6  7  2  0
  7  8  1  0
  8  9  2  0
  8 10  2  0
  8 11  1  0
 11 12  1  0
 12 13  1  0
 13 14  1  0
 14 15  1  0
 15 16  2  0
 15 17  1  0
 17 18  2  0
 18 19  1  0
 19 20  2  0
 20 21  1  0
 21 22  2  0
 14 23  1  0
 23 24  1  0
  7 25  1  0
 25 26  2  0
 26  4  1  0
 24 11  1  0
 22 17  1  0
  1 27  1  0
  1 28  1  0
  1 29  1  0
  2 30  1  0
  2 31  1  0
  5 32  1  0
  6 33  1  0
 12 34  1  0
 12 35  1  0
 13 36  1  0
 13 37  1  0
 18 38  1  0
 19 39  1  0
 21 40  1  0
 22 41  1  0
 23 42  1  0
 23 43  1  0
 24 44  1  0
 24 45  1  0
 25 46  1  0
 26 47  1  0
M  END
$$$$
