
     RDKit          3D

 61 65  0  0  0  0  0  0  0  0999 V2000
   -4.6266   -2.8836    0.9924 C   0  0  0  0  0  0  0  0  0  0  0  0
   -4.3754   -1.5664    0.5237 O   0  0  0  0  0  0  0  0  0  0  0  0
   -4.0711   -1.4138   -0.8061 C   0  0  0  0  0  0  0  0  0  0  0  0
   -3.8319   -2.4749   -1.6876 C   0  0  0  0  0  0  0  0  0  0  0  0
   -3.5044   -2.2281   -3.0242 C   0  0  0  0  0  0  0  0  0  0  0  0
   -3.4085   -0.9215   -3.4933 C   0  0  0  0  0  0  0  0  0  0  0  0
   -3.6425    0.1439   -2.6259 C   0  0  0  0  0  0  0  0  0  0  0  0
   -3.9778   -0.0894   -1.2820 C   0  0  0  0  0  0  0  0  0  0  0  0
   -4.2077    1.0665   -0.4048 C   0  0  0  0  0  0  0  0  0  0  0  0
   -5.8178    1.5776   -0.1432 S   0  0  0  0  0  0  0  0  0  0  0  0
   -5.3326    2.8794    0.8682 C   0  0  0  0  0  0  0  0  0  0  0  0
   -6.1757    3.8115    1.5065 C   0  0  0  0  0  0  0  0  0  0  0  0
   -5.6069    4.8108    2.2985 C   0  0  0  0  0  0  0  0  0  0  0  0
   -4.2312    4.8848    2.4568 C   0  0  0  0  0  0  0  0  0  0  0  0
   -3.3992    3.9583    1.8216 C   0  0  0  0  0  0  0  0  0  0  0  0
   -3.9436    2.9316    1.0058 C   0  0  0  0  0  0  0  0  0  0  0  0
   -3.2988    1.8745    0.2583 C   0  0  0  0  0  0  0  0  0  0  0  0
   -1.8616    1.6437    0.1671 C   0  0  0  0  0  0  0  0  0  0  0  0
   -1.2799    0.5362    0.7925 C   0  0  0  0  0  0  0  0  0  0  0  0
    0.0997    0.3180    0.7066 C   0  0  0  0  0  0  0  0  0  0  0  0
    0.9073    1.2084   -0.0019 C   0  0  0  0  0  0  0  0  0  0  0  0
    2.2621    1.1128   -0.1631 O   0  0  0  0  0  0  0  0  0  0  0  0
    2.9039   -0.0350    0.4022 C   0  0  0  0  0  0  0  0  0  0  0  0
    4.4069    0.0573    0.0879 C   0  0  0  0  0  0  0  0  0  0  0  0
    5.2207   -1.0240    0.6738 N   0  0  0  0  0  0  0  0  0  0  0  0
    6.6613   -0.7546    0.5278 C   0  0  0  0  0  0  0  0  0  0  0  0
    7.3165   -1.5210   -0.6187 C   0  0  0  0  0  0  0  0  0  0  0  0
    7.1710   -3.0306   -0.4341 C   0  0  0  0  0  0  0  0  0  0  0  0
    5.9154   -3.3986    0.3545 C   0  0  0  0  0  0  0  0  0  0  0  0
    4.8198   -2.3496    0.1739 C   0  0  0  0  0  0  0  0  0  0  0  0
    0.3245    2.3187   -0.6190 C   0  0  0  0  0  0  0  0  0  0  0  0
   -1.0525    2.5392   -0.5372 C   0  0  0  0  0  0  0  0  0  0  0  0
   -4.9293   -2.8126    2.0415 H   0  0  0  0  0  0  0  0  0  0  0  0
   -5.4478   -3.3530    0.4407 H   0  0  0  0  0  0  0  0  0  0  0  0
   -3.7192   -3.4948    0.9498 H   0  0  0  0  0  0  0  0  0  0  0  0
   -3.8845   -3.5091   -1.3646 H   0  0  0  0  0  0  0  0  0  0  0  0
   -3.3195   -3.0604   -3.6989 H   0  0  0  0  0  0  0  0  0  0  0  0
   -3.1497   -0.7304   -4.5314 H   0  0  0  0  0  0  0  0  0  0  0  0
   -3.5624    1.1628   -2.9984 H   0  0  0  0  0  0  0  0  0  0  0  0
   -7.2537    3.7529    1.3858 H   0  0  0  0  0  0  0  0  0  0  0  0
   -6.2498    5.5331    2.7957 H   0  0  0  0  0  0  0  0  0  0  0  0
   -3.7952    5.6631    3.0781 H   0  0  0  0  0  0  0  0  0  0  0  0
   -2.3224    4.0248    1.9597 H   0  0  0  0  0  0  0  0  0  0  0  0
   -1.8985   -0.1647    1.3494 H   0  0  0  0  0  0  0  0  0  0  0  0
    0.5068   -0.5544    1.2062 H   0  0  0  0  0  0  0  0  0  0  0  0
    2.7627   -0.0450    1.4899 H   0  0  0  0  0  0  0  0  0  0  0  0
    2.4818   -0.9434   -0.0426 H   0  0  0  0  0  0  0  0  0  0  0  0
    4.7524    1.0244    0.4778 H   0  0  0  0  0  0  0  0  0  0  0  0
    4.5502    0.1091   -0.9998 H   0  0  0  0  0  0  0  0  0  0  0  0
    6.8644    0.3177    0.4179 H   0  0  0  0  0  0  0  0  0  0  0  0
    7.1498   -1.0457    1.4668 H   0  0  0  0  0  0  0  0  0  0  0  0
    6.8568   -1.2206   -1.5689 H   0  0  0  0  0  0  0  0  0  0  0  0
    8.3786   -1.2607   -0.6916 H   0  0  0  0  0  0  0  0  0  0  0  0
    7.1505   -3.5091   -1.4205 H   0  0  0  0  0  0  0  0  0  0  0  0
    8.0485   -3.4335    0.0856 H   0  0  0  0  0  0  0  0  0  0  0  0
    5.5553   -4.3836    0.0365 H   0  0  0  0  0  0  0  0  0  0  0  0
    6.1635   -3.4881    1.4201 H   0  0  0  0  0  0  0  0  0  0  0  0
    3.9264   -2.6808    0.7153 H   0  0  0  0  0  0  0  0  0  0  0  0
    4.5580   -2.3048   -0.8919 H   0  0  0  0  0  0  0  0  0  0  0  0
    0.9484    3.0175   -1.1706 H   0  0  0  0  0  0  0  0  0  0  0  0
   -1.4860    3.4070   -1.0279 H   0  0  0  0  0  0  0  0  0  0  0  0
  1  2  1  0
  2  3  1  0
  3  4  2  0
  4  5  1  0
  5  6  2  0
  6  7  1  0
  7  8  2  0
  8  9  1  0
  9 10  1  0
 10 11  1  0
 11 12  2  0
 12 13  1  0
 13 14  2  0
 14 15  1  0
 15 16  2  0
 16 17  1  0
 17 18  1  0
 18 19  2  0
 19 20  1  0
 20 21  2  0
 21 22  1  0
 22 23  1  0
 23 24  1  0
 24 25  1  0
 25 26  1  0
 26 27  1  0
 27 28  1  0
 28 29  1  0
 29 30  1  0
 21 31  1  0
 31 32  2  0
  8  3  1  0
 17  9  2  0
 32 18  1  0
 16 11  1  0
 30 25  1  0
  1 33  1  0
  1 34  1  0
  1 35  1  0
  4 36  1  0
  5 37  1  0
  6 38  1  0
  7 39  1  0
 12 40  1  0
 13 41  1  0
 14 42  1  0
 15 43  1  0
 19 44  1  0
 20 45  1  0
 23 46  1  0
 23 47  1  0
 24 48  1  0
 24 49  1  0
 26 50  1  0
 26 51  1  0
 27 52  1  0
 27 53  1  0
 28 54  1  0
 28 55  1  0
 29 56  1  0
 29 57  1  0
 30 58  1  0
 30 59  1  0
 31 60  1  0
 32 61  1  0
M  END
$$$$
