
     RDKit          3D

 38 40  0  0  0  0  0  0  0  0999 V2000
   -5.4633    2.2679   -0.1526 C   0  0  0  0  0  0  0  0  0  0  0  0
   -4.1202    1.8040   -0.2272 O   0  0  0  0  0  0  0  0  0  0  0  0
   -3.9264    0.4520   -0.1600 C   0  0  0  0  0  0  0  0  0  0  0  0
   -4.9242   -0.5131   -0.0180 C   0  0  0  0  0  0  0  0  0  0  0  0
   -4.5874   -1.8686    0.0190 C   0  0  0  0  0  0  0  0  0  0  0  0
   -3.2550   -2.2584   -0.0761 C   0  0  0  0  0  0  0  0  0  0  0  0
   -3.0111   -3.6052   -0.0618 O   0  0  0  0  0  0  0  0  0  0  0  0
   -2.2391   -1.3001   -0.1812 C   0  0  0  0  0  0  0  0  0  0  0  0
   -0.8244   -1.7423   -0.2583 C   0  0  0  0  0  0  0  0  0  0  0  0
   -0.5814   -2.8629   -0.7068 O   0  0  0  0  0  0  0  0  0  0  0  0
    0.3016   -0.9062    0.2015 C   0  0  0  0  0  0  0  0  0  0  0  0
    0.2229   -0.1176    1.3415 C   0  0  0  0  0  0  0  0  0  0  0  0
    1.2461    0.6422    1.8018 N   0  0  0  0  0  0  0  0  0  0  0  0
    2.3986    0.5990    1.1028 C   0  0  0  0  0  0  0  0  0  0  0  0
    2.5883   -0.1802   -0.0251 C   0  0  0  0  0  0  0  0  0  0  0  0
    1.5196   -0.9576   -0.4782 C   0  0  0  0  0  0  0  0  0  0  0  0
    3.9438   -0.2323   -0.6430 C   0  0  0  0  0  0  0  0  0  0  0  0
    4.7737    0.9090   -0.3008 N   0  0  0  0  0  0  0  0  0  0  0  0
    6.0370    1.0347   -1.0031 C   0  0  0  0  0  0  0  0  0  0  0  0
    4.6183    1.5743    0.9002 C   0  0  0  0  0  0  0  0  0  0  0  0
    5.4605    2.3375    1.3684 O   0  0  0  0  0  0  0  0  0  0  0  0
    3.4433    1.3789    1.5569 N   0  0  0  0  0  0  0  0  0  0  0  0
   -2.5869    0.0551   -0.2476 C   0  0  0  0  0  0  0  0  0  0  0  0
   -5.4442    3.3596   -0.2243 H   0  0  0  0  0  0  0  0  0  0  0  0
   -5.9184    2.0048    0.8080 H   0  0  0  0  0  0  0  0  0  0  0  0
   -6.0585    1.8891   -0.9901 H   0  0  0  0  0  0  0  0  0  0  0  0
   -5.9741   -0.2483    0.0551 H   0  0  0  0  0  0  0  0  0  0  0  0
   -5.3654   -2.6222    0.1123 H   0  0  0  0  0  0  0  0  0  0  0  0
   -2.0774   -3.7444   -0.3392 H   0  0  0  0  0  0  0  0  0  0  0  0
   -0.6746   -0.0736    1.9526 H   0  0  0  0  0  0  0  0  0  0  0  0
    1.6340   -1.6046   -1.3454 H   0  0  0  0  0  0  0  0  0  0  0  0
    3.8491   -0.2603   -1.7346 H   0  0  0  0  0  0  0  0  0  0  0  0
    4.4628   -1.1378   -0.3074 H   0  0  0  0  0  0  0  0  0  0  0  0
    5.8615    0.9590   -2.0800 H   0  0  0  0  0  0  0  0  0  0  0  0
    6.5147    1.9956   -0.7916 H   0  0  0  0  0  0  0  0  0  0  0  0
    6.7018    0.2285   -0.6789 H   0  0  0  0  0  0  0  0  0  0  0  0
    3.2873    1.9183    2.3949 H   0  0  0  0  0  0  0  0  0  0  0  0
   -1.8330    0.8265   -0.3849 H   0  0  0  0  0  0  0  0  0  0  0  0
  1  2  1  0
  2  3  1  0
  3  4  2  0
  4  5  1  0
  5  6  2  0
  6  7  1  0
  6  8  1  0
  8  9  1  0
  9 10  2  0
  9 11  1  0
 11 12  2  0
 12 13  1  0
 13 14  2  0
 14 15  1  0
 15 16  2  0
 15 17  1  0
 17 18  1  0
 18 19  1  0
 18 20  1  0
 20 21  2  0
 20 22  1  0
  8 23  2  0
 23  3  1  0
 16 11  1  0
 22 14  1  0
  1 24  1  0
  1 25  1  0
  1 26  1  0
  4 27  1  0
  5 28  1  0
  7 29  1  0
 12 30  1  0
 16 31  1  0
 17 32  1  0
 17 33  1  0
 19 34  1  0
 19 35  1  0
 19 36  1  0
 22 37  1  0
 23 38  1  0
M  END
$$$$
