
     RDKit          3D

 30 31  0  0  0  0  0  0  0  0999 V2000
   -2.7364    3.0126   -1.5361 C   0  0  0  0  0  0  0  0  0  0  0  0
   -2.1471    1.7411   -1.0421 C   0  0  0  0  0  0  0  0  0  0  0  0
   -2.3213    1.3831    0.2370 N   0  0  0  0  0  0  0  0  0  0  0  0
   -1.6846    0.1965    0.3442 N   0  0  0  0  0  0  0  0  0  0  0  0
   -1.7199   -0.4766    1.6234 C   0  0  0  0  0  0  0  0  0  0  0  0
   -1.0757   -0.1976   -0.8220 C   0  0  0  0  0  0  0  0  0  0  0  0
   -0.1414   -1.6641   -0.9411 S   0  0  0  0  0  0  0  0  0  0  0  0
    1.2891   -1.1911    0.0405 C   0  0  0  0  0  0  0  0  0  0  0  0
    2.0445   -0.0656   -0.3240 C   0  0  0  0  0  0  0  0  0  0  0  0
    3.1563    0.3148    0.4272 C   0  0  0  0  0  0  0  0  0  0  0  0
    3.5362   -0.4389    1.5330 C   0  0  0  0  0  0  0  0  0  0  0  0
    2.8035   -1.5722    1.8907 C   0  0  0  0  0  0  0  0  0  0  0  0
    1.6580   -1.9454    1.1760 C   0  0  0  0  0  0  0  0  0  0  0  0
    1.0362   -3.1640    1.4927 N   0  0  0  0  0  0  0  0  0  0  0  0
   -1.3881    0.7765   -1.7515 C   0  0  0  0  0  0  0  0  0  0  0  0
   -1.0075    0.8251   -3.1291 N   0  0  0  0  0  4  0  0  0  0  0  0
   -0.8880   -0.2465   -3.7331 O   0  0  0  0  0  0  0  0  0  0  0  0
   -0.8385    1.9494   -3.6184 O   0  0  0  0  0  1  0  0  0  0  0  0
   -1.9492    3.7487   -1.7271 H   0  0  0  0  0  0  0  0  0  0  0  0
   -3.2940    2.8463   -2.4632 H   0  0  0  0  0  0  0  0  0  0  0  0
   -3.4293    3.4428   -0.8051 H   0  0  0  0  0  0  0  0  0  0  0  0
   -1.8437   -1.5503    1.4682 H   0  0  0  0  0  0  0  0  0  0  0  0
   -0.7899   -0.2572    2.1521 H   0  0  0  0  0  0  0  0  0  0  0  0
   -2.5706   -0.1035    2.2010 H   0  0  0  0  0  0  0  0  0  0  0  0
    1.7862    0.5171   -1.2044 H   0  0  0  0  0  0  0  0  0  0  0  0
    3.7370    1.1869    0.1364 H   0  0  0  0  0  0  0  0  0  0  0  0
    4.4178   -0.1602    2.1049 H   0  0  0  0  0  0  0  0  0  0  0  0
    3.1434   -2.1739    2.7300 H   0  0  0  0  0  0  0  0  0  0  0  0
    0.1182   -3.2860    1.0760 H   0  0  0  0  0  0  0  0  0  0  0  0
    1.0988   -3.4478    2.4638 H   0  0  0  0  0  0  0  0  0  0  0  0
  1  2  1  0
  2  3  2  0
  3  4  1  0
  4  5  1  0
  4  6  1  0
  6  7  1  0
  7  8  1  0
  8  9  2  0
  9 10  1  0
 10 11  2  0
 11 12  1  0
 12 13  2  0
 13 14  1  0
  6 15  2  0
 15 16  1  0
 16 17  2  0
 16 18  1  0
 15  2  1  0
 13  8  1  0
  1 19  1  0
  1 20  1  0
  1 21  1  0
  5 22  1  0
  5 23  1  0
  5 24  1  0
  9 25  1  0
 10 26  1  0
 11 27  1  0
 12 28  1  0
 14 29  1  0
 14 30  1  0
M  CHG  2  16   1  18  -1
M  END
$$$$
