
     RDKit          3D

 47 49  0  0  0  0  0  0  0  0999 V2000
    6.5982   -1.6979   -1.8728 C   0  0  0  0  0  0  0  0  0  0  0  0
    5.9104   -0.9859   -0.7418 C   0  0  0  0  0  0  0  0  0  0  0  0
    4.5096   -1.0273   -0.6615 C   0  0  0  0  0  0  0  0  0  0  0  0
    3.8204   -0.3800    0.3671 C   0  0  0  0  0  0  0  0  0  0  0  0
    2.4608   -0.5109    0.3071 O   0  0  0  0  0  0  0  0  0  0  0  0
    1.6949    0.1648    1.3038 C   0  0  0  0  0  0  0  0  0  0  0  0
    0.2725   -0.1222    1.0091 C   0  0  0  0  0  0  0  0  0  0  0  0
   -0.4519   -1.2677    0.7930 C   0  0  0  0  0  0  0  0  0  0  0  0
   -1.7834   -0.8238    0.5686 C   0  0  0  0  0  0  0  0  0  0  0  0
   -2.9511   -1.6869    0.3305 C   0  0  0  0  0  0  0  0  0  0  0  0
   -2.9161   -2.8598    0.7092 O   0  0  0  0  0  0  0  0  0  0  0  0
   -4.0891   -1.1643   -0.3015 N   0  0  0  0  0  0  0  0  0  0  0  0
   -5.2581   -2.0287   -0.3751 C   0  0  0  0  0  0  0  0  0  0  0  0
   -4.0235   -0.0988   -1.3119 C   0  0  0  0  0  0  0  0  0  0  0  0
   -5.0885    0.9637   -1.1444 C   0  0  0  0  0  0  0  0  0  0  0  0
   -5.0292    1.8656   -0.0842 C   0  0  0  0  0  0  0  0  0  0  0  0
   -6.0307    2.8246    0.0424 C   0  0  0  0  0  0  0  0  0  0  0  0
   -7.0614    2.8603   -0.8875 C   0  0  0  0  0  0  0  0  0  0  0  0
   -7.0528    1.9241   -1.9073 C   0  0  0  0  0  0  0  0  0  0  0  0
   -6.0976    0.9798   -2.0551 N   0  0  0  0  0  0  0  0  0  0  0  0
   -1.8506    0.5140    0.6909 N   0  0  0  0  0  0  0  0  0  0  0  0
   -0.5646    0.9462    0.9457 O   0  0  0  0  0  0  0  0  0  0  0  0
    4.5388    0.3186    1.3372 C   0  0  0  0  0  0  0  0  0  0  0  0
    5.9441    0.3784    1.2870 C   0  0  0  0  0  0  0  0  0  0  0  0
    6.6807    1.1394    2.3569 C   0  0  0  0  0  0  0  0  0  0  0  0
    6.6238   -0.2762    0.2402 C   0  0  0  0  0  0  0  0  0  0  0  0
    8.3565   -0.2086    0.1623 Cl  0  0  0  0  0  0  0  0  0  0  0  0
    5.8783   -2.1966   -2.5304 H   0  0  0  0  0  0  0  0  0  0  0  0
    7.2730   -2.4685   -1.4871 H   0  0  0  0  0  0  0  0  0  0  0  0
    7.1629   -0.9866   -2.4838 H   0  0  0  0  0  0  0  0  0  0  0  0
    3.9378   -1.5715   -1.4123 H   0  0  0  0  0  0  0  0  0  0  0  0
    1.9382   -0.2199    2.3011 H   0  0  0  0  0  0  0  0  0  0  0  0
    1.8800    1.2448    1.2591 H   0  0  0  0  0  0  0  0  0  0  0  0
   -0.0867   -2.2848    0.7909 H   0  0  0  0  0  0  0  0  0  0  0  0
   -5.3015   -2.7045    0.4846 H   0  0  0  0  0  0  0  0  0  0  0  0
   -5.1996   -2.6251   -1.2908 H   0  0  0  0  0  0  0  0  0  0  0  0
   -6.1716   -1.4278   -0.3806 H   0  0  0  0  0  0  0  0  0  0  0  0
   -3.0421    0.3750   -1.3707 H   0  0  0  0  0  0  0  0  0  0  0  0
   -4.1532   -0.5870   -2.2873 H   0  0  0  0  0  0  0  0  0  0  0  0
   -4.2186    1.8249    0.6363 H   0  0  0  0  0  0  0  0  0  0  0  0
   -6.0018    3.5398    0.8594 H   0  0  0  0  0  0  0  0  0  0  0  0
   -7.8537    3.5971   -0.8179 H   0  0  0  0  0  0  0  0  0  0  0  0
   -7.8376    1.9086   -2.6576 H   0  0  0  0  0  0  0  0  0  0  0  0
    4.0317    0.8297    2.1504 H   0  0  0  0  0  0  0  0  0  0  0  0
    7.2654    1.9536    1.9154 H   0  0  0  0  0  0  0  0  0  0  0  0
    5.9921    1.5893    3.0803 H   0  0  0  0  0  0  0  0  0  0  0  0
    7.3449    0.4690    2.9122 H   0  0  0  0  0  0  0  0  0  0  0  0
  1  2  1  0
  2  3  2  0
  3  4  1  0
  4  5  1  0
  5  6  1  0
  6  7  1  0
  7  8  2  0
  8  9  1  0
  9 10  1  0
 10 11  2  0
 10 12  1  0
 12 13  1  0
 12 14  1  0
 14 15  1  0
 15 16  2  0
 16 17  1  0
 17 18  2  0
 18 19  1  0
 19 20  2  0
  9 21  2  0
 21 22  1  0
  4 23  2  0
 23 24  1  0
 24 25  1  0
 24 26  2  0
 26 27  1  0
 26  2  1  0
 22  7  1  0
 20 15  1  0
  1 28  1  0
  1 29  1  0
  1 30  1  0
  3 31  1  0
  6 32  1  0
  6 33  1  0
  8 34  1  0
 13 35  1  0
 13 36  1  0
 13 37  1  0
 14 38  1  0
 14 39  1  0
 16 40  1  0
 17 41  1  0
 18 42  1  0
 19 43  1  0
 23 44  1  0
 25 45  1  0
 25 46  1  0
 25 47  1  0
M  END
$$$$
