
     RDKit          3D

 60 64  0  0  0  0  0  0  0  0999 V2000
   -5.8436   -3.6173    3.4156 C   0  0  0  0  0  0  0  0  0  0  0  0
   -4.8636   -2.9035    2.5345 C   0  0  0  0  0  0  0  0  0  0  0  0
   -3.9508   -3.6096    1.7515 C   0  0  0  0  0  0  0  0  0  0  0  0
   -3.0488   -2.9267    0.9285 C   0  0  0  0  0  0  0  0  0  0  0  0
   -3.0258   -1.5228    0.8692 C   0  0  0  0  0  0  0  0  0  0  0  0
   -2.1130   -0.9103    0.0036 N   0  0  0  0  0  0  0  0  0  0  0  0
   -1.7951    0.4139   -0.2950 C   0  0  0  0  0  0  0  0  0  0  0  0
   -0.7273    0.5579   -1.0635 N   0  0  0  0  0  0  0  0  0  0  0  0
   -0.3797    1.8172   -1.2997 C   0  0  0  0  0  0  0  0  0  0  0  0
    0.6861    2.0693   -2.1461 O   0  0  0  0  0  0  0  0  0  0  0  0
    1.7405    1.1859   -2.0556 C   0  0  0  0  0  0  0  0  0  0  0  0
    2.3764    0.8251   -3.2309 C   0  0  0  0  0  0  0  0  0  0  0  0
    3.4767   -0.0201   -3.1466 C   0  0  0  0  0  0  0  0  0  0  0  0
    3.8838   -0.4446   -1.8958 C   0  0  0  0  0  0  0  0  0  0  0  0
    4.9781   -1.2808   -1.8463 O   0  0  0  0  0  0  0  0  0  0  0  0
    5.3004   -1.6993   -0.5193 C   0  0  0  0  0  0  0  0  0  0  0  0
    6.5188   -2.5897   -0.5845 C   0  0  0  0  0  0  0  0  0  0  0  0
    6.4850   -3.7868   -1.3164 C   0  0  0  0  0  0  0  0  0  0  0  0
    7.6033   -4.6206   -1.3666 C   0  0  0  0  0  0  0  0  0  0  0  0
    8.7660   -4.2679   -0.6853 C   0  0  0  0  0  0  0  0  0  0  0  0
    8.8129   -3.0790    0.0441 C   0  0  0  0  0  0  0  0  0  0  0  0
    7.6951   -2.2443    0.0958 C   0  0  0  0  0  0  0  0  0  0  0  0
    3.2560   -0.0581   -0.7640 N   0  0  0  0  0  0  0  0  0  0  0  0
    2.1785    0.7793   -0.8415 N   0  0  0  0  0  0  0  0  0  0  0  0
   -1.0576    2.8938   -0.9275 N   0  0  0  0  0  0  0  0  0  0  0  0
   -2.1377    2.6636   -0.1941 C   0  0  0  0  0  0  0  0  0  0  0  0
   -2.8836    3.7562    0.2609 N   0  0  0  0  0  0  0  0  0  0  0  0
   -4.2984    3.4466    0.5269 C   0  0  0  0  0  0  0  0  0  0  0  0
   -5.0106    4.6789    1.1061 C   0  0  0  0  0  0  0  0  0  0  0  0
   -4.8601    5.8252    0.2548 O   0  0  0  0  0  0  0  0  0  0  0  0
   -3.4680    6.1485    0.1154 C   0  0  0  0  0  0  0  0  0  0  0  0
   -2.6820    4.9899   -0.5175 C   0  0  0  0  0  0  0  0  0  0  0  0
   -2.5226    1.4358    0.1462 N   0  0  0  0  0  0  0  0  0  0  0  0
   -3.9585   -0.8309    1.6427 C   0  0  0  0  0  0  0  0  0  0  0  0
   -4.8642   -1.5075    2.4703 C   0  0  0  0  0  0  0  0  0  0  0  0
   -6.8637   -3.4636    3.0475 H   0  0  0  0  0  0  0  0  0  0  0  0
   -5.7724   -3.2457    4.4434 H   0  0  0  0  0  0  0  0  0  0  0  0
   -5.6516   -4.6961    3.4393 H   0  0  0  0  0  0  0  0  0  0  0  0
   -3.9295   -4.6965    1.7734 H   0  0  0  0  0  0  0  0  0  0  0  0
   -2.3539   -3.5107    0.3298 H   0  0  0  0  0  0  0  0  0  0  0  0
   -1.3873   -1.5061   -0.3693 H   0  0  0  0  0  0  0  0  0  0  0  0
    2.0279    1.1941   -4.1865 H   0  0  0  0  0  0  0  0  0  0  0  0
    4.0045   -0.3432   -4.0381 H   0  0  0  0  0  0  0  0  0  0  0  0
    5.5123   -0.8293    0.1165 H   0  0  0  0  0  0  0  0  0  0  0  0
    4.4727   -2.2747   -0.0837 H   0  0  0  0  0  0  0  0  0  0  0  0
    5.5845   -4.0708   -1.8549 H   0  0  0  0  0  0  0  0  0  0  0  0
    7.5670   -5.5449   -1.9380 H   0  0  0  0  0  0  0  0  0  0  0  0
    9.6372   -4.9164   -0.7226 H   0  0  0  0  0  0  0  0  0  0  0  0
    9.7214   -2.8019    0.5738 H   0  0  0  0  0  0  0  0  0  0  0  0
    7.7507   -1.3215    0.6716 H   0  0  0  0  0  0  0  0  0  0  0  0
   -4.4035    2.6305    1.2500 H   0  0  0  0  0  0  0  0  0  0  0  0
   -4.7906    3.1555   -0.4105 H   0  0  0  0  0  0  0  0  0  0  0  0
   -4.6251    4.9224    2.1038 H   0  0  0  0  0  0  0  0  0  0  0  0
   -6.0812    4.4758    1.2041 H   0  0  0  0  0  0  0  0  0  0  0  0
   -3.0605    6.4077    1.1020 H   0  0  0  0  0  0  0  0  0  0  0  0
   -3.3955    7.0371   -0.5206 H   0  0  0  0  0  0  0  0  0  0  0  0
   -3.0379    4.8366   -1.5446 H   0  0  0  0  0  0  0  0  0  0  0  0
   -1.6247    5.2777   -0.5486 H   0  0  0  0  0  0  0  0  0  0  0  0
   -3.9984    0.2514    1.6283 H   0  0  0  0  0  0  0  0  0  0  0  0
   -5.5694   -0.9333    3.0642 H   0  0  0  0  0  0  0  0  0  0  0  0
  1  2  1  0
  2  3  2  0
  3  4  1  0
  4  5  2  0
  5  6  1  0
  6  7  1  0
  7  8  2  0
  8  9  1  0
  9 10  1  0
 10 11  1  0
 11 12  2  0
 12 13  1  0
 13 14  2  0
 14 15  1  0
 15 16  1  0
 16 17  1  0
 17 18  2  0
 18 19  1  0
 19 20  2  0
 20 21  1  0
 21 22  2  0
 14 23  1  0
 23 24  2  0
  9 25  2  0
 25 26  1  0
 26 27  1  0
 27 28  1  0
 28 29  1  0
 29 30  1  0
 30 31  1  0
 31 32  1  0
 26 33  2  0
  5 34  1  0
 34 35  2  0
 35  2  1  0
 33  7  1  0
 24 11  1  0
 32 27  1  0
 22 17  1  0
  1 36  1  0
  1 37  1  0
  1 38  1  0
  3 39  1  0
  4 40  1  0
  6 41  1  0
 12 42  1  0
 13 43  1  0
 16 44  1  0
 16 45  1  0
 18 46  1  0
 19 47  1  0
 20 48  1  0
 21 49  1  0
 22 50  1  0
 28 51  1  0
 28 52  1  0
 29 53  1  0
 29 54  1  0
 31 55  1  0
 31 56  1  0
 32 57  1  0
 32 58  1  0
 34 59  1  0
 35 60  1  0
M  END
$$$$
