
     RDKit          3D

 52 56  0  0  0  0  0  0  0  0999 V2000
   -3.9391   -0.7372    0.1291 C   0  0  0  0  0  0  0  0  0  0  0  0
   -2.7559    0.0532   -0.4145 C   0  0  0  0  0  0  0  0  0  0  0  0
   -1.4088   -0.5816   -0.0555 C   0  0  0  0  0  0  0  0  0  0  0  0
   -1.1572   -0.7848    1.4244 C   0  0  0  0  0  0  0  0  0  0  0  0
   -1.4687   -1.8554    1.9337 O   0  0  0  0  0  0  0  0  0  0  0  0
   -0.5671    0.3003    2.2567 C   0  0  0  0  0  0  0  0  0  0  0  0
    0.0186   -0.0570    3.4801 C   0  0  0  0  0  0  0  0  0  0  0  0
    0.6169    0.9127    4.2886 C   0  0  0  0  0  0  0  0  0  0  0  0
    0.6252    2.2436    3.8794 C   0  0  0  0  0  0  0  0  0  0  0  0
    1.3697    3.4395    4.8665 Cl  0  0  0  0  0  0  0  0  0  0  0  0
    0.0333    2.6131    2.6722 C   0  0  0  0  0  0  0  0  0  0  0  0
   -0.5646    1.6435    1.8599 C   0  0  0  0  0  0  0  0  0  0  0  0
   -0.9029   -1.7189   -0.9508 C   0  0  0  0  0  0  0  0  0  0  0  0
   -1.5393   -2.1386   -2.2397 C   0  0  0  0  0  0  0  0  0  0  0  0
   -2.2403   -3.3473   -2.3566 C   0  0  0  0  0  0  0  0  0  0  0  0
   -2.7882   -3.7514   -3.5779 C   0  0  0  0  0  0  0  0  0  0  0  0
   -2.6410   -2.9525   -4.7106 C   0  0  0  0  0  0  0  0  0  0  0  0
   -1.9532   -1.7462   -4.6202 C   0  0  0  0  0  0  0  0  0  0  0  0
   -1.4170   -1.3574   -3.3924 C   0  0  0  0  0  0  0  0  0  0  0  0
   -0.7868   -0.0939   -3.3602 O   0  0  0  0  0  0  0  0  0  0  0  0
   -0.3398    0.4884   -2.1744 C   0  0  0  0  0  0  0  0  0  0  0  0
   -0.0832    1.6861   -2.0878 O   0  0  0  0  0  0  0  0  0  0  0  0
   -0.1650   -0.3908   -0.9824 C   0  0  0  0  0  0  0  0  0  0  0  0
    1.2138   -0.3761   -0.3525 C   0  0  0  0  0  0  0  0  0  0  0  0
    1.7008   -1.4256    0.0446 O   0  0  0  0  0  0  0  0  0  0  0  0
    1.7790    0.8802   -0.2476 N   0  0  0  0  0  0  0  0  0  0  0  0
    2.9623    1.2414    0.4269 C   0  0  0  0  0  0  0  0  0  0  0  0
    3.7618    0.3467    1.1390 C   0  0  0  0  0  0  0  0  0  0  0  0
    4.9084    0.7969    1.8017 C   0  0  0  0  0  0  0  0  0  0  0  0
    5.2628    2.1436    1.7596 C   0  0  0  0  0  0  0  0  0  0  0  0
    4.4716    3.0437    1.0523 C   0  0  0  0  0  0  0  0  0  0  0  0
    3.3279    2.5939    0.3879 C   0  0  0  0  0  0  0  0  0  0  0  0
   -3.9511   -0.7311    1.2241 H   0  0  0  0  0  0  0  0  0  0  0  0
   -3.9101   -1.7799   -0.2006 H   0  0  0  0  0  0  0  0  0  0  0  0
   -4.8790   -0.2951   -0.2158 H   0  0  0  0  0  0  0  0  0  0  0  0
   -2.8845    0.1589   -1.4956 H   0  0  0  0  0  0  0  0  0  0  0  0
   -2.8003    1.0697   -0.0104 H   0  0  0  0  0  0  0  0  0  0  0  0
    0.0276   -1.0978    3.8006 H   0  0  0  0  0  0  0  0  0  0  0  0
    1.0768    0.6209    5.2297 H   0  0  0  0  0  0  0  0  0  0  0  0
    0.0417    3.6530    2.3551 H   0  0  0  0  0  0  0  0  0  0  0  0
   -1.0068    1.9666    0.9241 H   0  0  0  0  0  0  0  0  0  0  0  0
   -0.4149   -2.5388   -0.4200 H   0  0  0  0  0  0  0  0  0  0  0  0
   -2.3559   -3.9895   -1.4845 H   0  0  0  0  0  0  0  0  0  0  0  0
   -3.3251   -4.6949   -3.6433 H   0  0  0  0  0  0  0  0  0  0  0  0
   -3.0649   -3.2696   -5.6596 H   0  0  0  0  0  0  0  0  0  0  0  0
   -1.8432   -1.1125   -5.4953 H   0  0  0  0  0  0  0  0  0  0  0  0
    1.2853    1.6451   -0.7049 H   0  0  0  0  0  0  0  0  0  0  0  0
    3.5221   -0.7091    1.2058 H   0  0  0  0  0  0  0  0  0  0  0  0
    5.5237    0.0897    2.3522 H   0  0  0  0  0  0  0  0  0  0  0  0
    6.1541    2.4891    2.2769 H   0  0  0  0  0  0  0  0  0  0  0  0
    4.7438    4.0949    1.0166 H   0  0  0  0  0  0  0  0  0  0  0  0
    2.7264    3.3181   -0.1559 H   0  0  0  0  0  0  0  0  0  0  0  0
  1  2  1  0
  2  3  1  0
  3  4  1  0
  4  5  2  0
  4  6  1  0
  6  7  2  0
  7  8  1  0
  8  9  2  0
  9 10  1  0
  9 11  1  0
 11 12  2  0
  3 13  1  0
 13 14  1  0
 14 15  2  0
 15 16  1  0
 16 17  2  0
 17 18  1  0
 18 19  2  0
 19 20  1  0
 20 21  1  0
 21 22  2  0
 21 23  1  0
 23 24  1  0
 24 25  2  0
 24 26  1  0
 26 27  1  0
 27 28  2  0
 28 29  1  0
 29 30  2  0
 30 31  1  0
 31 32  2  0
 23  3  1  0
 32 27  1  0
 12  6  1  0
 23 13  1  0
 19 14  1  0
  1 33  1  0
  1 34  1  0
  1 35  1  0
  2 36  1  0
  2 37  1  0
  7 38  1  0
  8 39  1  0
 11 40  1  0
 12 41  1  0
 13 42  1  0
 15 43  1  0
 16 44  1  0
 17 45  1  0
 18 46  1  0
 26 47  1  0
 28 48  1  0
 29 49  1  0
 30 50  1  0
 31 51  1  0
 32 52  1  0
M  END
$$$$
