
     RDKit          3D

 57 58  0  0  0  0  0  0  0  0999 V2000
    6.3148   -3.9020    1.5823 C   0  0  0  0  0  0  0  0  0  0  0  0
    6.9173   -2.6385    2.1766 C   0  0  0  0  0  0  0  0  0  0  0  0
    5.8788   -1.5702    2.5150 C   0  0  0  0  0  0  0  0  0  0  0  0
    5.1608   -1.0039    1.2914 C   0  0  0  0  0  0  0  0  0  0  0  0
    4.2962    0.0410    1.7405 O   0  0  0  0  0  0  0  0  0  0  0  0
    3.5766    0.7080    0.7886 C   0  0  0  0  0  0  0  0  0  0  0  0
    2.7797    1.7428    1.2780 C   0  0  0  0  0  0  0  0  0  0  0  0
    1.9911    2.5056    0.4132 C   0  0  0  0  0  0  0  0  0  0  0  0
    1.9893    2.2542   -0.9672 C   0  0  0  0  0  0  0  0  0  0  0  0
    1.0901    3.0843   -1.8688 C   0  0  0  0  0  0  0  0  0  0  0  0
    1.6993    3.4020   -3.2354 C   0  0  0  0  0  0  0  0  0  0  0  0
   -0.1804    2.3949   -2.0381 N   0  0  0  0  0  0  0  0  0  0  0  0
   -1.2647    2.6715   -1.2362 C   0  0  0  0  0  0  0  0  0  0  0  0
   -1.3072    3.5938   -0.4307 O   0  0  0  0  0  0  0  0  0  0  0  0
   -2.4009    1.6954   -1.4255 C   0  0  0  0  0  0  0  0  0  0  0  0
   -3.6576    2.1748   -0.7200 C   0  0  0  0  0  0  0  0  0  0  0  0
   -4.9452    0.9453   -0.7252 S   0  0  0  0  0  6  0  0  0  0  0  0
   -4.8577    0.2291   -1.9850 O   0  0  0  0  0  0  0  0  0  0  0  0
   -6.1700    1.6214   -0.3376 O   0  0  0  0  0  0  0  0  0  0  0  0
   -4.4563   -0.1503    0.6080 C   0  0  0  0  0  0  0  0  0  0  0  0
   -5.4468   -1.2792    0.7217 C   0  0  0  0  0  0  0  0  0  0  0  0
   -6.6109   -1.1334    1.4914 C   0  0  0  0  0  0  0  0  0  0  0  0
   -7.5302   -2.1795    1.5954 C   0  0  0  0  0  0  0  0  0  0  0  0
   -7.2979   -3.3831    0.9312 C   0  0  0  0  0  0  0  0  0  0  0  0
   -6.1482   -3.5339    0.1601 C   0  0  0  0  0  0  0  0  0  0  0  0
   -5.8596   -5.0180   -0.6622 Cl  0  0  0  0  0  0  0  0  0  0  0  0
   -5.2262   -2.4919    0.0506 C   0  0  0  0  0  0  0  0  0  0  0  0
    2.7811    1.2009   -1.4483 C   0  0  0  0  0  0  0  0  0  0  0  0
    3.5721    0.4380   -0.5787 C   0  0  0  0  0  0  0  0  0  0  0  0
    5.8669   -3.7108    0.6027 H   0  0  0  0  0  0  0  0  0  0  0  0
    7.0920   -4.6614    1.4483 H   0  0  0  0  0  0  0  0  0  0  0  0
    5.5452   -4.3176    2.2405 H   0  0  0  0  0  0  0  0  0  0  0  0
    7.6618   -2.2289    1.4841 H   0  0  0  0  0  0  0  0  0  0  0  0
    7.4528   -2.9063    3.0952 H   0  0  0  0  0  0  0  0  0  0  0  0
    5.1393   -1.9709    3.2197 H   0  0  0  0  0  0  0  0  0  0  0  0
    6.3744   -0.7478    3.0466 H   0  0  0  0  0  0  0  0  0  0  0  0
    4.5676   -1.7892    0.8102 H   0  0  0  0  0  0  0  0  0  0  0  0
    5.9003   -0.6035    0.5876 H   0  0  0  0  0  0  0  0  0  0  0  0
    2.7699    1.9577    2.3440 H   0  0  0  0  0  0  0  0  0  0  0  0
    1.3693    3.2986    0.8272 H   0  0  0  0  0  0  0  0  0  0  0  0
    0.9068    4.0487   -1.3779 H   0  0  0  0  0  0  0  0  0  0  0  0
    2.6807    3.8769   -3.1301 H   0  0  0  0  0  0  0  0  0  0  0  0
    1.8163    2.5067   -3.8557 H   0  0  0  0  0  0  0  0  0  0  0  0
    1.0487    4.0879   -3.7900 H   0  0  0  0  0  0  0  0  0  0  0  0
   -0.1545    1.5051   -2.5182 H   0  0  0  0  0  0  0  0  0  0  0  0
   -2.0759    0.7265   -1.0312 H   0  0  0  0  0  0  0  0  0  0  0  0
   -2.5924    1.5759   -2.4981 H   0  0  0  0  0  0  0  0  0  0  0  0
   -3.4776    2.4496    0.3245 H   0  0  0  0  0  0  0  0  0  0  0  0
   -4.0600    3.0584   -1.2281 H   0  0  0  0  0  0  0  0  0  0  0  0
   -4.4182    0.4328    1.5334 H   0  0  0  0  0  0  0  0  0  0  0  0
   -3.4544   -0.5321    0.3929 H   0  0  0  0  0  0  0  0  0  0  0  0
   -6.8200   -0.1961    2.0055 H   0  0  0  0  0  0  0  0  0  0  0  0
   -8.4324   -2.0519    2.1889 H   0  0  0  0  0  0  0  0  0  0  0  0
   -8.0178   -4.1928    1.0127 H   0  0  0  0  0  0  0  0  0  0  0  0
   -4.3413   -2.6254   -0.5679 H   0  0  0  0  0  0  0  0  0  0  0  0
    2.7957    0.9522   -2.5064 H   0  0  0  0  0  0  0  0  0  0  0  0
    4.1693   -0.3617   -1.0042 H   0  0  0  0  0  0  0  0  0  0  0  0
  1  2  1  0
  2  3  1  0
  3  4  1  0
  4  5  1  0
  5  6  1  0
  6  7  2  0
  7  8  1  0
  8  9  2  0
  9 10  1  0
 10 11  1  0
 10 12  1  0
 12 13  1  0
 13 14  2  0
 13 15  1  0
 15 16  1  0
 16 17  1  0
 17 18  2  0
 17 19  2  0
 17 20  1  0
 20 21  1  0
 21 22  2  0
 22 23  1  0
 23 24  2  0
 24 25  1  0
 25 26  1  0
 25 27  2  0
  9 28  1  0
 28 29  2  0
 29  6  1  0
 27 21  1  0
  1 30  1  0
  1 31  1  0
  1 32  1  0
  2 33  1  0
  2 34  1  0
  3 35  1  0
  3 36  1  0
  4 37  1  0
  4 38  1  0
  7 39  1  0
  8 40  1  0
 10 41  1  0
 11 42  1  0
 11 43  1  0
 11 44  1  0
 12 45  1  0
 15 46  1  0
 15 47  1  0
 16 48  1  0
 16 49  1  0
 20 50  1  0
 20 51  1  0
 22 52  1  0
 23 53  1  0
 24 54  1  0
 27 55  1  0
 28 56  1  0
 29 57  1  0
M  END
$$$$
