
     RDKit          3D

 62 65  0  0  0  0  0  0  0  0999 V2000
    9.2262   -3.7845   -0.4456 C   0  0  0  0  0  0  0  0  0  0  0  0
    7.9833   -3.9366   -1.3028 C   0  0  0  0  0  0  0  0  0  0  0  0
    6.8971   -3.1870   -0.7395 O   0  0  0  0  0  0  0  0  0  0  0  0
    6.8351   -1.8725   -1.0883 C   0  0  0  0  0  0  0  0  0  0  0  0
    7.6380   -1.3265   -1.8343 O   0  0  0  0  0  0  0  0  0  0  0  0
    5.7650   -1.2204   -0.4975 N   0  0  0  0  0  0  0  0  0  0  0  0
    4.6818   -1.9580    0.1676 C   0  0  0  0  0  0  0  0  0  0  0  0
    3.9309   -1.0905    1.1935 C   0  0  0  0  0  0  0  0  0  0  0  0
    3.5426    0.1905    0.5954 N   0  0  0  0  0  0  0  0  0  0  0  0
    2.2934    0.4357    0.0241 C   0  0  0  0  0  0  0  0  0  0  0  0
    2.1321    1.3256   -0.8121 O   0  0  0  0  0  0  0  0  0  0  0  0
    1.1243   -0.4405    0.5076 C   0  0  0  0  0  0  0  0  0  0  0  0
   -0.1612   -0.0783    0.0271 O   0  0  0  0  0  0  0  0  0  0  0  0
   -0.8205    0.9670    0.6180 C   0  0  0  0  0  0  0  0  0  0  0  0
   -0.3029    1.7656    1.6431 C   0  0  0  0  0  0  0  0  0  0  0  0
   -1.0529    2.8196    2.1705 C   0  0  0  0  0  0  0  0  0  0  0  0
   -2.3243    3.0900    1.6730 C   0  0  0  0  0  0  0  0  0  0  0  0
   -2.8548    2.3019    0.6465 C   0  0  0  0  0  0  0  0  0  0  0  0
   -2.1108    1.2298    0.1201 C   0  0  0  0  0  0  0  0  0  0  0  0
   -2.6873    0.4388   -1.0259 C   0  0  0  0  0  0  0  0  0  0  0  0
   -4.2070    0.4028   -0.9376 C   0  0  0  0  0  0  0  0  0  0  0  0
   -4.7741    1.7357   -0.7867 N   0  0  0  0  0  0  0  0  0  0  0  0
   -6.1369    1.9608   -1.2581 C   0  0  0  0  0  0  0  0  0  0  0  0
   -7.1719    1.2418   -0.4332 C   0  0  0  0  0  0  0  0  0  0  0  0
   -7.5580    1.7298    0.8235 C   0  0  0  0  0  0  0  0  0  0  0  0
   -8.5125    1.0517    1.5852 C   0  0  0  0  0  0  0  0  0  0  0  0
   -9.0901   -0.1217    1.1021 C   0  0  0  0  0  0  0  0  0  0  0  0
   -8.7111   -0.6183   -0.1434 C   0  0  0  0  0  0  0  0  0  0  0  0
   -7.7588    0.0626   -0.8968 C   0  0  0  0  0  0  0  0  0  0  0  0
   -7.4029   -0.4389   -2.0881 F   0  0  0  0  0  0  0  0  0  0  0  0
   -4.2057    2.6394    0.1067 C   0  0  0  0  0  0  0  0  0  0  0  0
   -4.7560    3.6800    0.4567 O   0  0  0  0  0  0  0  0  0  0  0  0
    4.6899    0.9501    0.0879 C   0  0  0  0  0  0  0  0  0  0  0  0
    5.4436    0.1341   -0.9712 C   0  0  0  0  0  0  0  0  0  0  0  0
    9.0165   -4.0741    0.5894 H   0  0  0  0  0  0  0  0  0  0  0  0
   10.0402   -4.4067   -0.8285 H   0  0  0  0  0  0  0  0  0  0  0  0
    9.5638   -2.7431   -0.4233 H   0  0  0  0  0  0  0  0  0  0  0  0
    8.1717   -3.6466   -2.3430 H   0  0  0  0  0  0  0  0  0  0  0  0
    7.6731   -4.9868   -1.3144 H   0  0  0  0  0  0  0  0  0  0  0  0
    3.9948   -2.2890   -0.6214 H   0  0  0  0  0  0  0  0  0  0  0  0
    5.0711   -2.8508    0.6672 H   0  0  0  0  0  0  0  0  0  0  0  0
    3.0689   -1.6357    1.5839 H   0  0  0  0  0  0  0  0  0  0  0  0
    4.5889   -0.8633    2.0412 H   0  0  0  0  0  0  0  0  0  0  0  0
    1.1229   -0.5210    1.6009 H   0  0  0  0  0  0  0  0  0  0  0  0
    1.3108   -1.4469    0.1143 H   0  0  0  0  0  0  0  0  0  0  0  0
    0.6927    1.6141    2.0462 H   0  0  0  0  0  0  0  0  0  0  0  0
   -0.6378    3.4420    2.9594 H   0  0  0  0  0  0  0  0  0  0  0  0
   -2.8958    3.9235    2.0768 H   0  0  0  0  0  0  0  0  0  0  0  0
   -2.3193   -0.5930   -1.0273 H   0  0  0  0  0  0  0  0  0  0  0  0
   -2.3726    0.9132   -1.9636 H   0  0  0  0  0  0  0  0  0  0  0  0
   -4.5275   -0.1930   -0.0738 H   0  0  0  0  0  0  0  0  0  0  0  0
   -4.6090   -0.0604   -1.8455 H   0  0  0  0  0  0  0  0  0  0  0  0
   -6.3617    3.0340   -1.2550 H   0  0  0  0  0  0  0  0  0  0  0  0
   -6.1839    1.6489   -2.3083 H   0  0  0  0  0  0  0  0  0  0  0  0
   -7.1132    2.6443    1.2132 H   0  0  0  0  0  0  0  0  0  0  0  0
   -8.8038    1.4425    2.5572 H   0  0  0  0  0  0  0  0  0  0  0  0
   -9.8331   -0.6468    1.6962 H   0  0  0  0  0  0  0  0  0  0  0  0
   -9.1493   -1.5311   -0.5329 H   0  0  0  0  0  0  0  0  0  0  0  0
    4.3766    1.9142   -0.3254 H   0  0  0  0  0  0  0  0  0  0  0  0
    5.3463    1.1548    0.9422 H   0  0  0  0  0  0  0  0  0  0  0  0
    4.8265    0.0163   -1.8707 H   0  0  0  0  0  0  0  0  0  0  0  0
    6.3589    0.6606   -1.2623 H   0  0  0  0  0  0  0  0  0  0  0  0
  1  2  1  0
  2  3  1  0
  3  4  1  0
  4  5  2  0
  4  6  1  0
  6  7  1  0
  7  8  1  0
  8  9  1  0
  9 10  1  0
 10 11  2  0
 10 12  1  0
 12 13  1  0
 13 14  1  0
 14 15  2  0
 15 16  1  0
 16 17  2  0
 17 18  1  0
 18 19  2  0
 19 20  1  0
 20 21  1  0
 21 22  1  0
 22 23  1  0
 23 24  1  0
 24 25  2  0
 25 26  1  0
 26 27  2  0
 27 28  1  0
 28 29  2  0
 29 30  1  0
 22 31  1  0
 31 32  2  0
  9 33  1  0
 33 34  1  0
 34  6  1  0
 19 14  1  0
 29 24  1  0
 31 18  1  0
  1 35  1  0
  1 36  1  0
  1 37  1  0
  2 38  1  0
  2 39  1  0
  7 40  1  0
  7 41  1  0
  8 42  1  0
  8 43  1  0
 12 44  1  0
 12 45  1  0
 15 46  1  0
 16 47  1  0
 17 48  1  0
 20 49  1  0
 20 50  1  0
 21 51  1  0
 21 52  1  0
 23 53  1  0
 23 54  1  0
 25 55  1  0
 26 56  1  0
 27 57  1  0
 28 58  1  0
 33 59  1  0
 33 60  1  0
 34 61  1  0
 34 62  1  0
M  END
$$$$
