
     RDKit          3D

 46 49  0  0  0  0  0  0  0  0999 V2000
    5.9633    1.1516   -1.1428 C   0  0  0  0  0  0  0  0  0  0  0  0
    5.2937    0.1705   -0.2298 C   0  0  0  0  0  0  0  0  0  0  0  0
    3.8461    0.4132    0.0560 C   0  0  0  0  0  0  0  0  0  0  0  0
    3.1835    1.3784   -0.4981 N   0  0  0  0  0  0  0  0  0  0  0  0
    1.8459    1.4985   -0.2183 N   0  0  0  0  0  0  0  0  0  0  0  0
    0.9450    0.4679    0.0278 C   0  0  0  0  0  0  0  0  0  0  0  0
    1.2246   -0.7166    0.1910 O   0  0  0  0  0  0  0  0  0  0  0  0
   -0.4469    0.9495    0.0566 C   0  0  0  0  0  0  0  0  0  0  0  0
   -1.6115    0.1795    0.3063 C   0  0  0  0  0  0  0  0  0  0  0  0
   -2.6765    1.0557    0.2358 C   0  0  0  0  0  0  0  0  0  0  0  0
   -4.1147    0.8490    0.3928 C   0  0  0  0  0  0  0  0  0  0  0  0
   -4.9373    1.8485    0.9246 C   0  0  0  0  0  0  0  0  0  0  0  0
   -6.3127    1.6386    1.0679 C   0  0  0  0  0  0  0  0  0  0  0  0
   -6.8975    0.4236    0.6839 C   0  0  0  0  0  0  0  0  0  0  0  0
   -8.2770    0.1983    0.8206 C   0  0  0  0  0  0  0  0  0  0  0  0
   -8.8422   -1.0180    0.4344 C   0  0  0  0  0  0  0  0  0  0  0  0
   -8.0364   -2.0229   -0.0921 C   0  0  0  0  0  0  0  0  0  0  0  0
   -6.6636   -1.8139   -0.2333 C   0  0  0  0  0  0  0  0  0  0  0  0
   -6.0788   -0.5959    0.1506 C   0  0  0  0  0  0  0  0  0  0  0  0
   -4.6972   -0.3696    0.0148 C   0  0  0  0  0  0  0  0  0  0  0  0
   -2.1063    2.2652   -0.0673 N   0  0  0  0  0  0  0  0  0  0  0  0
   -0.7656    2.2394   -0.1736 N   0  0  0  0  0  0  0  0  0  0  0  0
    5.8290   -0.8886    0.4032 C   0  0  0  0  0  0  0  0  0  0  0  0
    7.1711   -1.3378    0.2608 C   0  0  0  0  0  0  0  0  0  0  0  0
    8.0212   -1.3769   -0.8403 C   0  0  0  0  0  0  0  0  0  0  0  0
    9.2463   -1.9560   -0.4317 C   0  0  0  0  0  0  0  0  0  0  0  0
    9.0874   -2.2651    0.8934 C   0  0  0  0  0  0  0  0  0  0  0  0
    7.8494   -1.9143    1.3144 O   0  0  0  0  0  0  0  0  0  0  0  0
    5.6548    2.1768   -0.9099 H   0  0  0  0  0  0  0  0  0  0  0  0
    7.0521    1.1433   -1.0486 H   0  0  0  0  0  0  0  0  0  0  0  0
    5.7021    0.9412   -2.1847 H   0  0  0  0  0  0  0  0  0  0  0  0
    3.3891   -0.2725    0.7893 H   0  0  0  0  0  0  0  0  0  0  0  0
    1.4151    2.3772   -0.5066 H   0  0  0  0  0  0  0  0  0  0  0  0
   -1.6484   -0.8801    0.5213 H   0  0  0  0  0  0  0  0  0  0  0  0
   -4.5248    2.7971    1.2582 H   0  0  0  0  0  0  0  0  0  0  0  0
   -6.9251    2.4327    1.4899 H   0  0  0  0  0  0  0  0  0  0  0  0
   -8.9233    0.9710    1.2307 H   0  0  0  0  0  0  0  0  0  0  0  0
   -9.9112   -1.1799    0.5456 H   0  0  0  0  0  0  0  0  0  0  0  0
   -8.4748   -2.9709   -0.3929 H   0  0  0  0  0  0  0  0  0  0  0  0
   -6.0508   -2.6123   -0.6463 H   0  0  0  0  0  0  0  0  0  0  0  0
   -4.0718   -1.1561   -0.4036 H   0  0  0  0  0  0  0  0  0  0  0  0
   -2.5824    3.1461   -0.2285 H   0  0  0  0  0  0  0  0  0  0  0  0
    5.2315   -1.4739    1.0989 H   0  0  0  0  0  0  0  0  0  0  0  0
    7.7758   -1.0351   -1.8363 H   0  0  0  0  0  0  0  0  0  0  0  0
   10.1267   -2.1354   -1.0319 H   0  0  0  0  0  0  0  0  0  0  0  0
    9.7230   -2.7212    1.6394 H   0  0  0  0  0  0  0  0  0  0  0  0
  1  2  1  0
  2  3  1  0
  3  4  2  3
  4  5  1  0
  5  6  1  0
  6  7  2  0
  6  8  1  0
  8  9  1  0
  9 10  2  0
 10 11  1  0
 11 12  2  0
 12 13  1  0
 13 14  2  0
 14 15  1  0
 15 16  2  0
 16 17  1  0
 17 18  2  0
 18 19  1  0
 19 20  2  0
 10 21  1  0
 21 22  1  0
  2 23  2  3
 23 24  1  0
 24 25  2  0
 25 26  1  0
 26 27  2  0
 27 28  1  0
 22  8  2  0
 28 24  1  0
 20 11  1  0
 19 14  1  0
  1 29  1  0
  1 30  1  0
  1 31  1  0
  3 32  1  0
  5 33  1  0
  9 34  1  0
 12 35  1  0
 13 36  1  0
 15 37  1  0
 16 38  1  0
 17 39  1  0
 18 40  1  0
 20 41  1  0
 21 42  1  0
 23 43  1  0
 25 44  1  0
 26 45  1  0
 27 46  1  0
M  END
$$$$
