
     RDKit          3D

 41 44  0  0  0  0  0  0  0  0999 V2000
   -0.0886   -1.3119   -4.5098 O   0  0  0  0  0  0  0  0  0  0  0  0
    0.0848   -0.2329   -3.9623 C   0  0  0  0  0  0  0  0  0  0  0  0
    0.3528    0.8679   -4.6931 O   0  0  0  0  0  0  0  0  0  0  0  0
    0.0718    0.0273   -2.4657 C   0  0  0  0  0  0  0  0  0  0  0  0
    1.5085   -0.0066   -1.9388 C   0  0  0  0  0  0  0  0  0  0  0  0
    1.6181    0.4353   -0.5079 C   0  0  0  0  0  0  0  0  0  0  0  0
    1.4180    1.7171   -0.0296 C   0  0  0  0  0  0  0  0  0  0  0  0
    1.6159    1.7072    1.3248 N   0  0  0  0  0  0  0  0  0  0  0  0
    1.9589    0.4450    1.7462 C   0  0  0  0  0  0  0  0  0  0  0  0
    2.2639   -0.0228    3.0301 C   0  0  0  0  0  0  0  0  0  0  0  0
    2.5877   -1.3753    3.1677 C   0  0  0  0  0  0  0  0  0  0  0  0
    2.5973   -2.2249    2.0648 C   0  0  0  0  0  0  0  0  0  0  0  0
    2.2846   -1.7409    0.7890 C   0  0  0  0  0  0  0  0  0  0  0  0
    1.9632   -0.3781    0.6199 C   0  0  0  0  0  0  0  0  0  0  0  0
   -0.7454   -1.0237   -1.8130 N   0  0  0  0  0  0  0  0  0  0  0  0
   -2.3730   -0.7135   -1.5910 S   0  0  0  0  0  6  0  0  0  0  0  0
   -2.7722    0.2378   -2.6078 O   0  0  0  0  0  0  0  0  0  0  0  0
   -3.0531   -1.9791   -1.4498 O   0  0  0  0  0  0  0  0  0  0  0  0
   -2.3937    0.1016   -0.0393 C   0  0  0  0  0  0  0  0  0  0  0  0
   -2.8057    1.4500    0.0584 C   0  0  0  0  0  0  0  0  0  0  0  0
   -2.8238    2.1613    1.2797 C   0  0  0  0  0  0  0  0  0  0  0  0
   -2.4345    1.5879    2.5013 C   0  0  0  0  0  0  0  0  0  0  0  0
   -2.0164    0.2349    2.4584 C   0  0  0  0  0  0  0  0  0  0  0  0
   -1.6178   -0.4862    3.5165 N   0  0  0  0  0  0  0  0  0  0  0  0
   -1.2280   -1.9912    2.9329 S   0  0  0  0  0  0  0  0  0  0  0  0
   -1.5724   -1.8003    1.3230 N   0  0  0  0  0  0  0  0  0  0  0  0
   -1.9931   -0.5357    1.1571 C   0  0  0  0  0  0  0  0  0  0  0  0
    0.2822    0.5595   -5.6221 H   0  0  0  0  0  0  0  0  0  0  0  0
   -0.3690    1.0143   -2.2828 H   0  0  0  0  0  0  0  0  0  0  0  0
    1.9275   -1.0143   -2.0545 H   0  0  0  0  0  0  0  0  0  0  0  0
    2.1439    0.6517   -2.5465 H   0  0  0  0  0  0  0  0  0  0  0  0
    1.1548    2.6358   -0.5370 H   0  0  0  0  0  0  0  0  0  0  0  0
    1.5389    2.5099    1.9337 H   0  0  0  0  0  0  0  0  0  0  0  0
    2.2497    0.6348    3.8930 H   0  0  0  0  0  0  0  0  0  0  0  0
    2.8301   -1.7693    4.1520 H   0  0  0  0  0  0  0  0  0  0  0  0
    2.8464   -3.2753    2.1930 H   0  0  0  0  0  0  0  0  0  0  0  0
    2.2909   -2.4170   -0.0603 H   0  0  0  0  0  0  0  0  0  0  0  0
   -0.5584   -1.9953   -2.0680 H   0  0  0  0  0  0  0  0  0  0  0  0
   -3.1276    1.9754   -0.8428 H   0  0  0  0  0  0  0  0  0  0  0  0
   -3.1592    3.1992    1.2737 H   0  0  0  0  0  0  0  0  0  0  0  0
   -2.4579    2.1405    3.4331 H   0  0  0  0  0  0  0  0  0  0  0  0
  1  2  2  0
  2  3  1  0
  2  4  1  0
  4  5  1  0
  5  6  1  0
  6  7  2  0
  7  8  1  0
  8  9  1  0
  9 10  2  0
 10 11  1  0
 11 12  2  0
 12 13  1  0
 13 14  2  0
  4 15  1  0
 15 16  1  0
 16 17  2  0
 16 18  2  0
 16 19  1  0
 19 20  2  0
 20 21  1  0
 21 22  2  0
 22 23  1  0
 23 24  2  0
 24 25  1  0
 25 26  1  0
 26 27  2  0
 14  6  1  0
 27 19  1  0
 14  9  1  0
 27 23  1  0
  3 28  1  0
  4 29  1  0
  5 30  1  0
  5 31  1  0
  7 32  1  0
  8 33  1  0
 10 34  1  0
 11 35  1  0
 12 36  1  0
 13 37  1  0
 15 38  1  0
 20 39  1  0
 21 40  1  0
 22 41  1  0
M  END
$$$$
