
     RDKit          3D

 62 64  0  0  0  0  0  0  0  0999 V2000
   -3.4279    1.6488   -2.4844 C   0  0  0  0  0  0  0  0  0  0  0  0
   -2.6592    1.1280   -1.2982 C   0  0  0  0  0  0  0  0  0  0  0  0
   -1.4358    1.7913   -1.0417 C   0  0  0  0  0  0  0  0  0  0  0  0
   -0.6094    1.4223    0.0105 C   0  0  0  0  0  0  0  0  0  0  0  0
    0.5528    2.1871    0.1849 O   0  0  0  0  0  0  0  0  0  0  0  0
    1.3889    1.9679    1.2640 C   0  0  0  0  0  0  0  0  0  0  0  0
    2.3435    2.7112    1.4816 O   0  0  0  0  0  0  0  0  0  0  0  0
    1.1156    0.7805    2.1247 C   0  0  0  0  0  0  0  0  0  0  0  0
    2.1618    0.5843    3.1957 C   0  0  0  0  0  0  0  0  0  0  0  0
    3.4108   -0.0233    2.5727 C   0  0  0  0  0  0  0  0  0  0  0  0
    3.5049   -1.2264    2.3535 O   0  0  0  0  0  0  0  0  0  0  0  0
    4.3830    0.9043    2.2637 N   0  0  0  0  0  0  0  0  0  0  0  0
    5.5957    0.5591    1.5436 C   0  0  0  0  0  0  0  0  0  0  0  0
    5.6813    1.2909    0.2046 C   0  0  0  0  0  0  0  0  0  0  0  0
    4.7288    0.7331   -0.8621 C   0  0  0  0  0  0  0  0  0  0  0  0
    5.0719   -0.6274   -1.3073 N   0  0  0  0  0  0  0  0  0  0  0  0
    3.9292   -1.2401   -1.9848 C   0  0  0  0  0  0  0  0  0  0  0  0
    6.2351   -0.6391   -2.1943 C   0  0  0  0  0  0  0  0  0  0  0  0
    0.0355   -0.0077    1.9273 C   0  0  0  0  0  0  0  0  0  0  0  0
   -0.2145   -1.2771    2.7006 C   0  0  0  0  0  0  0  0  0  0  0  0
   -0.9091    0.3732    0.8624 C   0  0  0  0  0  0  0  0  0  0  0  0
   -2.1541   -0.2400    0.6321 C   0  0  0  0  0  0  0  0  0  0  0  0
   -2.6654   -1.2432    1.3916 O   0  0  0  0  0  0  0  0  0  0  0  0
   -3.8678   -1.5682    0.8964 C   0  0  0  0  0  0  0  0  0  0  0  0
   -4.2120   -0.7876   -0.1969 C   0  0  0  0  0  0  0  0  0  0  0  0
   -5.5448   -0.9331   -0.9427 C   0  0  0  0  0  0  0  0  0  0  0  0
   -6.2745    0.4119   -1.1004 C   0  0  0  0  0  0  0  0  0  0  0  0
   -6.5364   -1.8400   -0.1575 C   0  0  0  0  0  0  0  0  0  0  0  0
   -5.3268   -1.6146   -2.3057 C   0  0  0  0  0  0  0  0  0  0  0  0
   -3.0596    0.0939   -0.3954 C   0  0  0  0  0  0  0  0  0  0  0  0
   -4.1087    2.4467   -2.1679 H   0  0  0  0  0  0  0  0  0  0  0  0
   -2.7483    2.0660   -3.2390 H   0  0  0  0  0  0  0  0  0  0  0  0
   -3.9814    0.8578   -2.9889 H   0  0  0  0  0  0  0  0  0  0  0  0
   -1.1217    2.6164   -1.6808 H   0  0  0  0  0  0  0  0  0  0  0  0
    1.8346   -0.0684    4.0115 H   0  0  0  0  0  0  0  0  0  0  0  0
    2.4006    1.5378    3.6880 H   0  0  0  0  0  0  0  0  0  0  0  0
    4.0898    1.8768    2.2415 H   0  0  0  0  0  0  0  0  0  0  0  0
    5.6815   -0.5248    1.4195 H   0  0  0  0  0  0  0  0  0  0  0  0
    6.4231    0.8897    2.1814 H   0  0  0  0  0  0  0  0  0  0  0  0
    6.7137    1.2606   -0.1565 H   0  0  0  0  0  0  0  0  0  0  0  0
    5.4458    2.3522    0.3587 H   0  0  0  0  0  0  0  0  0  0  0  0
    4.7003    1.4187   -1.7174 H   0  0  0  0  0  0  0  0  0  0  0  0
    3.7200    0.7381   -0.4369 H   0  0  0  0  0  0  0  0  0  0  0  0
    4.1654   -2.2629   -2.2962 H   0  0  0  0  0  0  0  0  0  0  0  0
    3.0745   -1.3124   -1.3055 H   0  0  0  0  0  0  0  0  0  0  0  0
    3.6204   -0.6741   -2.8695 H   0  0  0  0  0  0  0  0  0  0  0  0
    7.1340   -0.2784   -1.6790 H   0  0  0  0  0  0  0  0  0  0  0  0
    6.0799   -0.0267   -3.0912 H   0  0  0  0  0  0  0  0  0  0  0  0
    6.4620   -1.6625   -2.5151 H   0  0  0  0  0  0  0  0  0  0  0  0
    0.6442   -1.5998    3.2964 H   0  0  0  0  0  0  0  0  0  0  0  0
   -1.0573   -1.1514    3.3886 H   0  0  0  0  0  0  0  0  0  0  0  0
   -0.4164   -2.1144    2.0220 H   0  0  0  0  0  0  0  0  0  0  0  0
   -4.3701   -2.3670    1.4283 H   0  0  0  0  0  0  0  0  0  0  0  0
   -6.3142    0.9582   -0.1501 H   0  0  0  0  0  0  0  0  0  0  0  0
   -7.3061    0.2667   -1.4391 H   0  0  0  0  0  0  0  0  0  0  0  0
   -5.8106    1.0633   -1.8361 H   0  0  0  0  0  0  0  0  0  0  0  0
   -6.1472   -2.8583   -0.0306 H   0  0  0  0  0  0  0  0  0  0  0  0
   -6.7438   -1.4302    0.8376 H   0  0  0  0  0  0  0  0  0  0  0  0
   -7.4945   -1.9295   -0.6825 H   0  0  0  0  0  0  0  0  0  0  0  0
   -4.9452   -2.6347   -2.1758 H   0  0  0  0  0  0  0  0  0  0  0  0
   -4.6022   -1.0917   -2.9309 H   0  0  0  0  0  0  0  0  0  0  0  0
   -6.2635   -1.6817   -2.8709 H   0  0  0  0  0  0  0  0  0  0  0  0
  1  2  1  0
  2  3  2  0
  3  4  1  0
  4  5  1  0
  5  6  1  0
  6  7  2  0
  6  8  1  0
  8  9  1  0
  9 10  1  0
 10 11  2  0
 10 12  1  0
 12 13  1  0
 13 14  1  0
 14 15  1  0
 15 16  1  0
 16 17  1  0
 16 18  1  0
  8 19  2  0
 19 20  1  0
 19 21  1  0
 21 22  1  0
 22 23  1  0
 23 24  1  0
 24 25  2  0
 25 26  1  0
 26 27  1  0
 26 28  1  0
 26 29  1  0
 25 30  1  0
 30  2  1  0
 21  4  2  0
 30 22  2  0
  1 31  1  0
  1 32  1  0
  1 33  1  0
  3 34  1  0
  9 35  1  0
  9 36  1  0
 12 37  1  0
 13 38  1  0
 13 39  1  0
 14 40  1  0
 14 41  1  0
 15 42  1  0
 15 43  1  0
 17 44  1  0
 17 45  1  0
 17 46  1  0
 18 47  1  0
 18 48  1  0
 18 49  1  0
 20 50  1  0
 20 51  1  0
 20 52  1  0
 24 53  1  0
 27 54  1  0
 27 55  1  0
 27 56  1  0
 28 57  1  0
 28 58  1  0
 28 59  1  0
 29 60  1  0
 29 61  1  0
 29 62  1  0
M  END
$$$$
