
     RDKit          3D

 63 67  0  0  0  0  0  0  0  0999 V2000
   -5.5686   -5.9453    0.9542 C   0  0  0  0  0  0  0  0  0  0  0  0
   -5.4309   -4.5585    1.2355 O   0  0  0  0  0  0  0  0  0  0  0  0
   -4.7373   -3.8082    0.3255 C   0  0  0  0  0  0  0  0  0  0  0  0
   -4.1345   -4.2832   -0.8394 C   0  0  0  0  0  0  0  0  0  0  0  0
   -3.4498   -3.4046   -1.6827 C   0  0  0  0  0  0  0  0  0  0  0  0
   -3.3655   -2.0484   -1.3659 C   0  0  0  0  0  0  0  0  0  0  0  0
   -3.9662   -1.5562   -0.2017 C   0  0  0  0  0  0  0  0  0  0  0  0
   -3.8636   -0.1325    0.1413 C   0  0  0  0  0  0  0  0  0  0  0  0
   -5.2978    0.8004    0.1717 S   0  0  0  0  0  0  0  0  0  0  0  0
   -4.4630    2.2401    0.5917 C   0  0  0  0  0  0  0  0  0  0  0  0
   -5.0292    3.5101    0.8066 C   0  0  0  0  0  0  0  0  0  0  0  0
   -4.1908    4.5729    1.1514 C   0  0  0  0  0  0  0  0  0  0  0  0
   -2.8198    4.3926    1.2874 C   0  0  0  0  0  0  0  0  0  0  0  0
   -2.1268    5.5202    1.6340 O   0  0  0  0  0  0  0  0  0  0  0  0
   -0.7234    5.3825    1.8188 C   0  0  0  0  0  0  0  0  0  0  0  0
   -2.2680    3.1268    1.0693 C   0  0  0  0  0  0  0  0  0  0  0  0
   -3.0900    2.0213    0.7089 C   0  0  0  0  0  0  0  0  0  0  0  0
   -2.7498    0.6400    0.4348 C   0  0  0  0  0  0  0  0  0  0  0  0
   -1.4037    0.0752    0.4591 C   0  0  0  0  0  0  0  0  0  0  0  0
   -1.0371   -0.8514    1.4382 C   0  0  0  0  0  0  0  0  0  0  0  0
    0.2575   -1.3764    1.4517 C   0  0  0  0  0  0  0  0  0  0  0  0
    1.1992   -0.9860    0.4953 C   0  0  0  0  0  0  0  0  0  0  0  0
    2.4243   -1.5751    0.6360 O   0  0  0  0  0  0  0  0  0  0  0  0
    3.4223   -1.3324   -0.3602 C   0  0  0  0  0  0  0  0  0  0  0  0
    4.2528   -0.0861   -0.0080 C   0  0  0  0  0  0  0  0  0  0  0  0
    5.2160    0.3081   -1.0535 N   0  0  0  0  0  0  0  0  0  0  0  0
    6.3050   -0.6826   -1.2088 C   0  0  0  0  0  0  0  0  0  0  0  0
    7.3578   -0.2099   -2.2263 C   0  0  0  0  0  0  0  0  0  0  0  0
    7.9171    1.0536   -1.8476 O   0  0  0  0  0  0  0  0  0  0  0  0
    6.8790    2.0363   -1.7470 C   0  0  0  0  0  0  0  0  0  0  0  0
    5.8203    1.6180   -0.7150 C   0  0  0  0  0  0  0  0  0  0  0  0
    0.8348   -0.0545   -0.4771 C   0  0  0  0  0  0  0  0  0  0  0  0
   -0.4615    0.4737   -0.4955 C   0  0  0  0  0  0  0  0  0  0  0  0
   -4.6490   -2.4479    0.6379 C   0  0  0  0  0  0  0  0  0  0  0  0
   -4.5930   -6.4418    0.9305 H   0  0  0  0  0  0  0  0  0  0  0  0
   -6.1506   -6.3946    1.7646 H   0  0  0  0  0  0  0  0  0  0  0  0
   -6.1181   -6.1067    0.0209 H   0  0  0  0  0  0  0  0  0  0  0  0
   -4.1761   -5.3302   -1.1199 H   0  0  0  0  0  0  0  0  0  0  0  0
   -2.9792   -3.7780   -2.5887 H   0  0  0  0  0  0  0  0  0  0  0  0
   -2.8286   -1.3782   -2.0331 H   0  0  0  0  0  0  0  0  0  0  0  0
   -6.1000    3.6646    0.7095 H   0  0  0  0  0  0  0  0  0  0  0  0
   -4.6223    5.5571    1.3205 H   0  0  0  0  0  0  0  0  0  0  0  0
   -0.2310    5.0806    0.8885 H   0  0  0  0  0  0  0  0  0  0  0  0
   -0.4984    4.6838    2.6313 H   0  0  0  0  0  0  0  0  0  0  0  0
   -0.3261    6.3618    2.1025 H   0  0  0  0  0  0  0  0  0  0  0  0
   -1.2028    2.9520    1.1728 H   0  0  0  0  0  0  0  0  0  0  0  0
   -1.7509   -1.1724    2.1931 H   0  0  0  0  0  0  0  0  0  0  0  0
    0.5331   -2.1000    2.2153 H   0  0  0  0  0  0  0  0  0  0  0  0
    4.0718   -2.2148   -0.3488 H   0  0  0  0  0  0  0  0  0  0  0  0
    2.9963   -1.2879   -1.3692 H   0  0  0  0  0  0  0  0  0  0  0  0
    4.7553   -0.2482    0.9554 H   0  0  0  0  0  0  0  0  0  0  0  0
    3.5589    0.7461    0.1641 H   0  0  0  0  0  0  0  0  0  0  0  0
    5.9038   -1.6394   -1.5583 H   0  0  0  0  0  0  0  0  0  0  0  0
    6.7968   -0.8506   -0.2418 H   0  0  0  0  0  0  0  0  0  0  0  0
    6.9289   -0.1293   -3.2326 H   0  0  0  0  0  0  0  0  0  0  0  0
    8.1779   -0.9336   -2.2723 H   0  0  0  0  0  0  0  0  0  0  0  0
    6.4312    2.1942   -2.7356 H   0  0  0  0  0  0  0  0  0  0  0  0
    7.3443    2.9780   -1.4387 H   0  0  0  0  0  0  0  0  0  0  0  0
    5.0420    2.3892   -0.6804 H   0  0  0  0  0  0  0  0  0  0  0  0
    6.2918    1.5660    0.2754 H   0  0  0  0  0  0  0  0  0  0  0  0
    1.5313    0.2910   -1.2337 H   0  0  0  0  0  0  0  0  0  0  0  0
   -0.7304    1.1960   -1.2635 H   0  0  0  0  0  0  0  0  0  0  0  0
   -5.1161   -2.0871    1.5520 H   0  0  0  0  0  0  0  0  0  0  0  0
  1  2  1  0
  2  3  1  0
  3  4  2  0
  4  5  1  0
  5  6  2  0
  6  7  1  0
  7  8  1  0
  8  9  1  0
  9 10  1  0
 10 11  2  0
 11 12  1  0
 12 13  2  0
 13 14  1  0
 14 15  1  0
 13 16  1  0
 16 17  2  0
 17 18  1  0
 18 19  1  0
 19 20  2  0
 20 21  1  0
 21 22  2  0
 22 23  1  0
 23 24  1  0
 24 25  1  0
 25 26  1  0
 26 27  1  0
 27 28  1  0
 28 29  1  0
 29 30  1  0
 30 31  1  0
 22 32  1  0
 32 33  2  0
  7 34  2  0
 34  3  1  0
 18  8  2  0
 33 19  1  0
 17 10  1  0
 31 26  1  0
  1 35  1  0
  1 36  1  0
  1 37  1  0
  4 38  1  0
  5 39  1  0
  6 40  1  0
 11 41  1  0
 12 42  1  0
 15 43  1  0
 15 44  1  0
 15 45  1  0
 16 46  1  0
 20 47  1  0
 21 48  1  0
 24 49  1  0
 24 50  1  0
 25 51  1  0
 25 52  1  0
 27 53  1  0
 27 54  1  0
 28 55  1  0
 28 56  1  0
 30 57  1  0
 30 58  1  0
 31 59  1  0
 31 60  1  0
 32 61  1  0
 33 62  1  0
 34 63  1  0
M  END
$$$$
