
     RDKit          3D

 50 52  0  0  0  0  0  0  0  0999 V2000
   -3.2422   -1.0881   -3.4679 C   0  0  0  0  0  0  0  0  0  0  0  0
   -3.8702   -0.1096   -2.6507 O   0  0  0  0  0  0  0  0  0  0  0  0
   -3.4085    0.0382   -1.3689 C   0  0  0  0  0  0  0  0  0  0  0  0
   -2.3966   -0.7272   -0.7937 C   0  0  0  0  0  0  0  0  0  0  0  0
   -1.9962   -0.4635    0.5218 C   0  0  0  0  0  0  0  0  0  0  0  0
   -0.9255   -1.2700    1.1373 C   0  0  0  0  0  0  0  0  0  0  0  0
   -1.2452   -2.0224    2.0533 O   0  0  0  0  0  0  0  0  0  0  0  0
    0.3739   -1.1278    0.6659 N   0  0  0  0  0  0  0  0  0  0  0  0
    0.7813   -0.2549   -0.4499 C   0  0  0  0  0  0  0  0  0  0  0  0
    2.2080    0.3047   -0.2795 C   0  0  0  0  0  0  0  0  0  0  0  0
    3.1561   -0.7943    0.0176 N   0  0  0  0  0  0  0  0  0  0  0  0
    4.5011   -0.3932   -0.1085 C   0  0  0  0  0  0  0  0  0  0  0  0
    5.2685   -0.0043    1.0029 C   0  0  0  0  0  0  0  0  0  0  0  0
    6.5971    0.4049    0.8543 C   0  0  0  0  0  0  0  0  0  0  0  0
    7.5010    0.8802    2.2402 Cl  0  0  0  0  0  0  0  0  0  0  0  0
    7.1960    0.4381   -0.4007 C   0  0  0  0  0  0  0  0  0  0  0  0
    6.4601    0.0573   -1.5203 C   0  0  0  0  0  0  0  0  0  0  0  0
    5.1291   -0.3533   -1.3778 C   0  0  0  0  0  0  0  0  0  0  0  0
    4.2963   -0.8485   -2.8162 Cl  0  0  0  0  0  0  0  0  0  0  0  0
    2.7758   -1.5383    1.2378 C   0  0  0  0  0  0  0  0  0  0  0  0
    1.3671   -2.1336    1.0668 C   0  0  0  0  0  0  0  0  0  0  0  0
   -2.6154    0.5251    1.2939 C   0  0  0  0  0  0  0  0  0  0  0  0
   -3.6314    1.2967    0.7342 C   0  0  0  0  0  0  0  0  0  0  0  0
   -4.2972    2.3047    1.3817 O   0  0  0  0  0  0  0  0  0  0  0  0
   -3.9363    2.5691    2.7306 C   0  0  0  0  0  0  0  0  0  0  0  0
   -4.0247    1.0405   -0.5942 C   0  0  0  0  0  0  0  0  0  0  0  0
   -4.9910    1.8353   -1.1734 O   0  0  0  0  0  0  0  0  0  0  0  0
   -6.2803    1.2631   -0.9588 C   0  0  0  0  0  0  0  0  0  0  0  0
   -3.7140   -1.0527   -4.4546 H   0  0  0  0  0  0  0  0  0  0  0  0
   -3.3925   -2.0942   -3.0630 H   0  0  0  0  0  0  0  0  0  0  0  0
   -2.1774   -0.8691   -3.5998 H   0  0  0  0  0  0  0  0  0  0  0  0
   -1.9048   -1.5291   -1.3337 H   0  0  0  0  0  0  0  0  0  0  0  0
    0.7256   -0.8619   -1.3616 H   0  0  0  0  0  0  0  0  0  0  0  0
    0.0871    0.5830   -0.5572 H   0  0  0  0  0  0  0  0  0  0  0  0
    2.4811    0.8433   -1.1942 H   0  0  0  0  0  0  0  0  0  0  0  0
    2.2183    1.0294    0.5456 H   0  0  0  0  0  0  0  0  0  0  0  0
    4.8351    0.0026    1.9982 H   0  0  0  0  0  0  0  0  0  0  0  0
    8.2293    0.7553   -0.5135 H   0  0  0  0  0  0  0  0  0  0  0  0
    6.9272    0.0749   -2.5018 H   0  0  0  0  0  0  0  0  0  0  0  0
    2.7726   -0.8717    2.1093 H   0  0  0  0  0  0  0  0  0  0  0  0
    3.4843   -2.3538    1.4256 H   0  0  0  0  0  0  0  0  0  0  0  0
    1.0649   -2.6287    1.9954 H   0  0  0  0  0  0  0  0  0  0  0  0
    1.3766   -2.8948    0.2769 H   0  0  0  0  0  0  0  0  0  0  0  0
   -2.2806    0.6643    2.3165 H   0  0  0  0  0  0  0  0  0  0  0  0
   -4.5644    3.3899    3.0900 H   0  0  0  0  0  0  0  0  0  0  0  0
   -4.1279    1.6998    3.3683 H   0  0  0  0  0  0  0  0  0  0  0  0
   -2.8927    2.8922    2.8038 H   0  0  0  0  0  0  0  0  0  0  0  0
   -6.3603    0.2728   -1.4203 H   0  0  0  0  0  0  0  0  0  0  0  0
   -7.0189    1.9163   -1.4332 H   0  0  0  0  0  0  0  0  0  0  0  0
   -6.5192    1.2035    0.1086 H   0  0  0  0  0  0  0  0  0  0  0  0
  1  2  1  0
  2  3  1  0
  3  4  2  0
  4  5  1  0
  5  6  1  0
  6  7  2  0
  6  8  1  0
  8  9  1  0
  9 10  1  0
 10 11  1  0
 11 12  1  0
 12 13  2  0
 13 14  1  0
 14 15  1  0
 14 16  2  0
 16 17  1  0
 17 18  2  0
 18 19  1  0
 11 20  1  0
 20 21  1  0
  5 22  2  0
 22 23  1  0
 23 24  1  0
 24 25  1  0
 23 26  2  0
 26 27  1  0
 27 28  1  0
 26  3  1  0
 21  8  1  0
 18 12  1  0
  1 29  1  0
  1 30  1  0
  1 31  1  0
  4 32  1  0
  9 33  1  0
  9 34  1  0
 10 35  1  0
 10 36  1  0
 13 37  1  0
 16 38  1  0
 17 39  1  0
 20 40  1  0
 20 41  1  0
 21 42  1  0
 21 43  1  0
 22 44  1  0
 25 45  1  0
 25 46  1  0
 25 47  1  0
 28 48  1  0
 28 49  1  0
 28 50  1  0
M  END
$$$$
