
     RDKit          3D

 60 62  0  0  0  0  0  0  0  0999 V2000
    5.7644    3.5880   -3.2077 C   0  0  0  0  0  0  0  0  0  0  0  0
    5.7999    2.7084   -2.0941 O   0  0  0  0  0  0  0  0  0  0  0  0
    4.7241    1.8800   -1.9176 C   0  0  0  0  0  0  0  0  0  0  0  0
    3.6060    1.7891   -2.7504 C   0  0  0  0  0  0  0  0  0  0  0  0
    2.5797    0.8756   -2.4613 C   0  0  0  0  0  0  0  0  0  0  0  0
    2.6731    0.0592   -1.3277 C   0  0  0  0  0  0  0  0  0  0  0  0
    1.6206   -0.9336   -0.9878 C   0  0  0  0  0  0  0  0  0  0  0  0
    1.9620   -2.0074   -0.4979 O   0  0  0  0  0  0  0  0  0  0  0  0
    0.1799   -0.5919   -1.2894 C   0  0  0  0  0  0  0  0  0  0  0  0
   -0.3236   -1.4803   -2.3751 C   0  0  0  0  0  0  0  0  0  0  0  0
   -0.0897   -1.3565   -3.5637 O   0  0  0  0  0  0  0  0  0  0  0  0
   -1.1334   -2.6136   -1.7563 C   0  0  0  0  0  0  0  0  0  0  0  0
   -1.5496   -3.5700   -2.3779 O   0  0  0  0  0  0  0  0  0  0  0  0
   -1.2768   -2.3025   -0.4128 N   0  0  0  0  0  0  0  0  0  0  0  0
   -2.3304   -2.9433    0.3751 C   0  0  0  0  0  0  0  0  0  0  0  0
   -3.6326   -2.1227    0.4973 C   0  0  0  0  0  0  0  0  0  0  0  0
   -4.2043   -1.6574   -0.7824 N   0  0  0  0  0  0  0  0  0  0  0  0
   -4.7861   -2.7725   -1.5389 C   0  0  0  0  0  0  0  0  0  0  0  0
   -5.2503   -0.6592   -0.5266 C   0  0  0  0  0  0  0  0  0  0  0  0
   -0.8183   -0.9352   -0.1688 C   0  0  0  0  0  0  0  0  0  0  0  0
   -0.3324   -0.6114    1.2302 C   0  0  0  0  0  0  0  0  0  0  0  0
    0.2709   -1.5829    2.0433 C   0  0  0  0  0  0  0  0  0  0  0  0
    0.7195   -1.2677    3.3254 C   0  0  0  0  0  0  0  0  0  0  0  0
    0.5670    0.0248    3.8204 C   0  0  0  0  0  0  0  0  0  0  0  0
   -0.0181    1.0187    3.0327 C   0  0  0  0  0  0  0  0  0  0  0  0
   -0.1996    2.3099    3.4588 O   0  0  0  0  0  0  0  0  0  0  0  0
   -0.3843    2.4822    4.8589 C   0  0  0  0  0  0  0  0  0  0  0  0
   -0.4158    0.7087    1.7193 C   0  0  0  0  0  0  0  0  0  0  0  0
   -0.9498    1.6552    0.8715 O   0  0  0  0  0  0  0  0  0  0  0  0
   -0.0350    2.7201    0.6057 C   0  0  0  0  0  0  0  0  0  0  0  0
    3.7979    0.1432   -0.4995 C   0  0  0  0  0  0  0  0  0  0  0  0
    4.8135    1.0538   -0.7947 C   0  0  0  0  0  0  0  0  0  0  0  0
    6.7003    4.1607   -3.2120 H   0  0  0  0  0  0  0  0  0  0  0  0
    5.7042    3.0334   -4.1540 H   0  0  0  0  0  0  0  0  0  0  0  0
    4.9393    4.2992   -3.1138 H   0  0  0  0  0  0  0  0  0  0  0  0
    3.5097    2.3989   -3.6434 H   0  0  0  0  0  0  0  0  0  0  0  0
    1.7411    0.7986   -3.1475 H   0  0  0  0  0  0  0  0  0  0  0  0
    0.0659    0.4609   -1.5660 H   0  0  0  0  0  0  0  0  0  0  0  0
   -1.9362   -3.1347    1.3783 H   0  0  0  0  0  0  0  0  0  0  0  0
   -2.5475   -3.9261   -0.0617 H   0  0  0  0  0  0  0  0  0  0  0  0
   -3.3965   -1.2472    1.1152 H   0  0  0  0  0  0  0  0  0  0  0  0
   -4.3698   -2.7043    1.0666 H   0  0  0  0  0  0  0  0  0  0  0  0
   -4.0476   -3.5507   -1.7584 H   0  0  0  0  0  0  0  0  0  0  0  0
   -5.1593   -2.4152   -2.5081 H   0  0  0  0  0  0  0  0  0  0  0  0
   -5.6248   -3.2383   -1.0019 H   0  0  0  0  0  0  0  0  0  0  0  0
   -6.0713   -1.0684    0.0632 H   0  0  0  0  0  0  0  0  0  0  0  0
   -5.6636   -0.2773   -1.4633 H   0  0  0  0  0  0  0  0  0  0  0  0
   -4.8419    0.2004    0.0000 H   0  0  0  0  0  0  0  0  0  0  0  0
   -1.7112   -0.3246   -0.3543 H   0  0  0  0  0  0  0  0  0  0  0  0
    0.4142   -2.6021    1.6726 H   0  0  0  0  0  0  0  0  0  0  0  0
    1.1884   -2.0380    3.9374 H   0  0  0  0  0  0  0  0  0  0  0  0
    0.9297    0.2381    4.8209 H   0  0  0  0  0  0  0  0  0  0  0  0
   -0.8515    3.4634    5.0221 H   0  0  0  0  0  0  0  0  0  0  0  0
   -1.0552    1.7244    5.2803 H   0  0  0  0  0  0  0  0  0  0  0  0
    0.5863    2.4847    5.3709 H   0  0  0  0  0  0  0  0  0  0  0  0
   -0.2499    3.0987   -0.4030 H   0  0  0  0  0  0  0  0  0  0  0  0
   -0.1952    3.5487    1.3054 H   0  0  0  0  0  0  0  0  0  0  0  0
    1.0132    2.3926    0.6199 H   0  0  0  0  0  0  0  0  0  0  0  0
    3.8907   -0.5002    0.3743 H   0  0  0  0  0  0  0  0  0  0  0  0
    5.6899    1.1155   -0.1478 H   0  0  0  0  0  0  0  0  0  0  0  0
  1  2  1  0
  2  3  1  0
  3  4  2  0
  4  5  1  0
  5  6  2  0
  6  7  1  0
  7  8  2  0
  7  9  1  0
  9 10  1  0
 10 11  2  0
 10 12  1  0
 12 13  2  0
 12 14  1  0
 14 15  1  0
 15 16  1  0
 16 17  1  0
 17 18  1  0
 17 19  1  0
 14 20  1  0
 20 21  1  0
 21 22  2  0
 22 23  1  0
 23 24  2  0
 24 25  1  0
 25 26  1  0
 26 27  1  0
 25 28  2  0
 28 29  1  0
 29 30  1  0
  6 31  1  0
 31 32  2  0
 32  3  1  0
 20  9  1  0
 28 21  1  0
  1 33  1  0
  1 34  1  0
  1 35  1  0
  4 36  1  0
  5 37  1  0
  9 38  1  0
 15 39  1  0
 15 40  1  0
 16 41  1  0
 16 42  1  0
 18 43  1  0
 18 44  1  0
 18 45  1  0
 19 46  1  0
 19 47  1  0
 19 48  1  0
 20 49  1  0
 22 50  1  0
 23 51  1  0
 24 52  1  0
 27 53  1  0
 27 54  1  0
 27 55  1  0
 30 56  1  0
 30 57  1  0
 30 58  1  0
 31 59  1  0
 32 60  1  0
M  END
$$$$
