
     RDKit          3D

 68 73  0  0  0  0  0  0  0  0999 V2000
   -3.8078    5.1175   -1.8427 C   0  0  0  0  0  0  0  0  0  0  0  0
   -2.9625    4.0215   -1.5138 O   0  0  0  0  0  0  0  0  0  0  0  0
   -3.0550    3.5208   -0.2431 C   0  0  0  0  0  0  0  0  0  0  0  0
   -3.9030    4.0064    0.7696 C   0  0  0  0  0  0  0  0  0  0  0  0
   -3.9243    3.4092    2.0354 C   0  0  0  0  0  0  0  0  0  0  0  0
   -3.0796    2.3416    2.2523 C   0  0  0  0  0  0  0  0  0  0  0  0
   -2.2129    1.8526    1.2713 C   0  0  0  0  0  0  0  0  0  0  0  0
   -2.2099    2.4317    0.0091 C   0  0  0  0  0  0  0  0  0  0  0  0
   -1.4391    0.6905    1.8379 C   0  0  1  0  0  0  0  0  0  0  0  0
   -2.0518    0.5556    3.2722 C   0  0  0  0  0  0  0  0  0  0  0  0
   -1.8028   -0.2672    4.1410 O   0  0  0  0  0  0  0  0  0  0  0  0
   -2.9811    1.5889    3.4119 N   0  0  0  0  0  0  0  0  0  0  0  0
   -1.6852   -0.4995    0.9947 C   0  0  0  0  0  0  0  0  0  0  0  0
   -0.4906   -1.1608    0.7190 C   0  0  0  0  0  0  0  0  0  0  0  0
   -0.7615   -2.2745   -0.0311 C   0  0  0  0  0  0  0  0  0  0  0  0
    0.0591   -3.2380   -0.4426 O   0  0  0  0  0  0  0  0  0  0  0  0
   -2.1533   -2.2950   -0.2750 N   0  0  0  0  0  0  0  0  0  0  0  0
   -2.8670   -3.2732   -1.0519 C   0  0  0  0  0  0  0  0  0  0  0  0
   -4.2325   -3.5083   -0.8349 C   0  0  0  0  0  0  0  0  0  0  0  0
   -4.9238   -4.4574   -1.5956 C   0  0  0  0  0  0  0  0  0  0  0  0
   -4.2639   -5.1812   -2.5842 C   0  0  0  0  0  0  0  0  0  0  0  0
   -2.9096   -4.9596   -2.8117 C   0  0  0  0  0  0  0  0  0  0  0  0
   -2.2145   -4.0130   -2.0506 C   0  0  0  0  0  0  0  0  0  0  0  0
   -2.7122   -1.1759    0.3838 C   0  0  0  0  0  0  0  0  0  0  0  0
   -4.0073   -0.8730    0.3181 O   0  0  0  0  0  0  0  0  0  0  0  0
    0.6691   -0.4805    1.3406 C   0  0  1  0  0  0  0  0  0  0  0  0
    1.8218   -0.2099    0.3499 C   0  0  0  0  0  0  0  0  0  0  0  0
    2.7820    0.7688    0.8632 N   0  0  0  0  0  0  0  0  0  0  0  0
    4.1335    0.7372    0.5904 C   0  0  0  0  0  0  0  0  0  0  0  0
    4.9216    1.5809    0.9983 O   0  0  0  0  0  0  0  0  0  0  0  0
    4.4732   -0.3305   -0.1771 O   0  0  0  0  0  0  0  0  0  0  0  0
    5.8502   -0.5624   -0.5733 C   0  0  0  0  0  0  0  0  0  0  0  0
    5.7990   -1.8484   -1.4142 C   0  0  0  0  0  0  0  0  0  0  0  0
    6.3781    0.5765   -1.4533 C   0  0  0  0  0  0  0  0  0  0  0  0
    6.7451   -0.8133    0.6451 C   0  0  0  0  0  0  0  0  0  0  0  0
    2.2410    1.8875    1.6350 C   0  0  0  0  0  0  0  0  0  0  0  0
    0.7078    1.9940    1.5339 C   0  0  0  0  0  0  0  0  0  0  0  0
    0.0520    0.7540    1.9452 N   0  0  0  0  0  0  0  0  0  0  0  0
   -4.8637    4.8402   -1.7570 H   0  0  0  0  0  0  0  0  0  0  0  0
   -3.5764    5.9925   -1.2257 H   0  0  0  0  0  0  0  0  0  0  0  0
   -3.6168    5.3859   -2.8871 H   0  0  0  0  0  0  0  0  0  0  0  0
   -4.5661    4.8493    0.5960 H   0  0  0  0  0  0  0  0  0  0  0  0
   -4.5899    3.7760    2.8097 H   0  0  0  0  0  0  0  0  0  0  0  0
   -1.5690    2.0474   -0.7806 H   0  0  0  0  0  0  0  0  0  0  0  0
   -3.5094    1.7246    4.2609 H   0  0  0  0  0  0  0  0  0  0  0  0
    0.9070   -3.1405    0.0234 H   0  0  0  0  0  0  0  0  0  0  0  0
   -4.7858   -2.9969   -0.0527 H   0  0  0  0  0  0  0  0  0  0  0  0
   -5.9790   -4.6334   -1.4058 H   0  0  0  0  0  0  0  0  0  0  0  0
   -4.8024   -5.9176   -3.1736 H   0  0  0  0  0  0  0  0  0  0  0  0
   -2.3900   -5.5194   -3.5858 H   0  0  0  0  0  0  0  0  0  0  0  0
   -1.1677   -3.8514   -2.2895 H   0  0  0  0  0  0  0  0  0  0  0  0
   -4.1398    0.0024    0.7217 H   0  0  0  0  0  0  0  0  0  0  0  0
    1.0485   -1.0863    2.1731 H   0  0  0  0  0  0  0  0  0  0  0  0
    2.3237   -1.1528    0.1063 H   0  0  0  0  0  0  0  0  0  0  0  0
    1.4381    0.1965   -0.5954 H   0  0  0  0  0  0  0  0  0  0  0  0
    5.1305   -1.7280   -2.2761 H   0  0  0  0  0  0  0  0  0  0  0  0
    5.3954   -2.6827   -0.8264 H   0  0  0  0  0  0  0  0  0  0  0  0
    6.7889   -2.1336   -1.7829 H   0  0  0  0  0  0  0  0  0  0  0  0
    6.5143    1.5017   -0.8849 H   0  0  0  0  0  0  0  0  0  0  0  0
    7.3462    0.3199   -1.8979 H   0  0  0  0  0  0  0  0  0  0  0  0
    5.6729    0.8039   -2.2607 H   0  0  0  0  0  0  0  0  0  0  0  0
    6.8676    0.0840    1.2597 H   0  0  0  0  0  0  0  0  0  0  0  0
    7.7458   -1.1458    0.3449 H   0  0  0  0  0  0  0  0  0  0  0  0
    6.3069   -1.5796    1.2945 H   0  0  0  0  0  0  0  0  0  0  0  0
    2.5491    1.7438    2.6800 H   0  0  0  0  0  0  0  0  0  0  0  0
    2.7008    2.8199    1.2813 H   0  0  0  0  0  0  0  0  0  0  0  0
    0.4632    2.2423    0.4951 H   0  0  0  0  0  0  0  0  0  0  0  0
    0.3746    2.8242    2.1675 H   0  0  0  0  0  0  0  0  0  0  0  0
  1  2  1  0
  2  3  1  0
  3  4  2  0
  4  5  1  0
  5  6  2  0
  6  7  1  0
  7  8  2  0
  7  9  1  0
  9 10  1  0
 10 11  2  0
 10 12  1  0
  9 13  1  0
 13 14  1  0
 14 15  2  0
 15 16  1  0
 15 17  1  0
 17 18  1  0
 18 19  2  0
 19 20  1  0
 20 21  2  0
 21 22  1  0
 22 23  2  0
 17 24  1  0
 24 25  1  0
 14 26  1  0
 26 27  1  0
 27 28  1  0
 28 29  1  0
 29 30  2  0
 29 31  1  0
 31 32  1  0
 32 33  1  0
 32 34  1  0
 32 35  1  0
 28 36  1  0
 36 37  1  0
 37 38  1  0
  8  3  1  0
  9 38  1  1
 12  6  1  0
 24 13  2  0
 38 26  1  0
 23 18  1  0
  1 39  1  0
  1 40  1  0
  1 41  1  0
  4 42  1  0
  5 43  1  0
  8 44  1  0
 12 45  1  0
 16 46  1  0
 19 47  1  0
 20 48  1  0
 21 49  1  0
 22 50  1  0
 23 51  1  0
 25 52  1  0
 26 53  1  1
 27 54  1  0
 27 55  1  0
 33 56  1  0
 33 57  1  0
 33 58  1  0
 34 59  1  0
 34 60  1  0
 34 61  1  0
 35 62  1  0
 35 63  1  0
 35 64  1  0
 36 65  1  0
 36 66  1  0
 37 67  1  0
 37 68  1  0
M  END
$$$$
