
     RDKit          3D

 29 31  0  0  0  0  0  0  0  0999 V2000
   -3.6883    2.3078    0.9426 C   0  0  0  0  0  0  0  0  0  0  0  0
   -2.3389    1.9903    0.6288 O   0  0  0  0  0  0  0  0  0  0  0  0
   -2.0496    0.6752    0.3756 C   0  0  0  0  0  0  0  0  0  0  0  0
   -2.9863   -0.3743    0.3437 C   0  0  0  0  0  0  0  0  0  0  0  0
   -2.5832   -1.6821    0.0576 C   0  0  0  0  0  0  0  0  0  0  0  0
   -1.2413   -1.8984   -0.1825 C   0  0  0  0  0  0  0  0  0  0  0  0
   -0.2868   -0.8758   -0.1395 C   0  0  0  0  0  0  0  0  0  0  0  0
   -0.6918    0.4194    0.1265 C   0  0  0  0  0  0  0  0  0  0  0  0
    0.9964   -1.5137   -0.4571 C   0  0  0  0  0  0  0  0  0  0  0  0
    2.2665   -1.0910   -0.5535 C   0  0  0  0  0  0  0  0  0  0  0  0
    2.8050    0.1959   -0.3038 C   0  0  0  0  0  0  0  0  0  0  0  0
    3.9080    0.7420   -0.9173 C   0  0  0  0  0  0  0  0  0  0  0  0
    4.0786    1.9579   -0.3133 N   0  0  0  0  0  0  0  0  0  0  0  0
    3.1085    2.0812    0.6406 C   0  0  0  0  0  0  0  0  0  0  0  0
    2.3306    1.0231    0.6747 N   0  0  0  0  0  0  0  0  0  0  0  0
    0.7090   -2.9712   -0.7182 C   0  0  0  0  0  0  0  0  0  0  0  0
    1.4967   -3.8405   -1.0401 O   0  0  0  0  0  0  0  0  0  0  0  0
   -0.6518   -3.1138   -0.5149 N   0  0  0  0  0  0  0  0  0  0  0  0
   -4.0183    1.7848    1.8463 H   0  0  0  0  0  0  0  0  0  0  0  0
   -4.3501    2.0942    0.0969 H   0  0  0  0  0  0  0  0  0  0  0  0
   -3.7411    3.3824    1.1425 H   0  0  0  0  0  0  0  0  0  0  0  0
   -4.0407   -0.1982    0.5304 H   0  0  0  0  0  0  0  0  0  0  0  0
   -3.3051   -2.4897    0.0210 H   0  0  0  0  0  0  0  0  0  0  0  0
    0.0160    1.2398    0.1430 H   0  0  0  0  0  0  0  0  0  0  0  0
    3.0049   -1.8304   -0.8629 H   0  0  0  0  0  0  0  0  0  0  0  0
    4.5632    0.3891   -1.7009 H   0  0  0  0  0  0  0  0  0  0  0  0
    4.7975    2.6377   -0.5193 H   0  0  0  0  0  0  0  0  0  0  0  0
    3.0221    2.9528    1.2758 H   0  0  0  0  0  0  0  0  0  0  0  0
   -1.1296   -3.9944   -0.6225 H   0  0  0  0  0  0  0  0  0  0  0  0
  1  2  1  0
  2  3  1  0
  3  4  2  0
  4  5  1  0
  5  6  2  0
  6  7  1  0
  7  8  2  0
  7  9  1  0
  9 10  2  3
 10 11  1  0
 11 12  2  0
 12 13  1  0
 13 14  1  0
 14 15  2  0
  9 16  1  0
 16 17  2  0
 16 18  1  0
  8  3  1  0
 15 11  1  0
 18  6  1  0
  1 19  1  0
  1 20  1  0
  1 21  1  0
  4 22  1  0
  5 23  1  0
  8 24  1  0
 10 25  1  0
 12 26  1  0
 13 27  1  0
 14 28  1  0
 18 29  1  0
M  END
$$$$
