
     RDKit          3D

 62 65  0  0  0  0  0  0  0  0999 V2000
   -5.5157   -3.4672   -2.2820 C   0  0  0  0  0  0  0  0  0  0  0  0
   -5.2543   -2.1269   -1.6197 C   0  0  0  0  0  0  0  0  0  0  0  0
   -3.8831   -2.0337   -1.2089 O   0  0  0  0  0  0  0  0  0  0  0  0
   -3.0161   -1.5473   -2.1363 C   0  0  0  0  0  0  0  0  0  0  0  0
   -3.2741   -1.2332   -3.2900 O   0  0  0  0  0  0  0  0  0  0  0  0
   -1.6690   -1.4605   -1.5299 C   0  0  0  0  0  0  0  0  0  0  0  0
   -0.9034   -2.5774   -1.6769 C   0  0  0  0  0  0  0  0  0  0  0  0
   -1.3087   -3.7968   -2.4802 C   0  0  0  0  0  0  0  0  0  0  0  0
    0.3405   -2.7551   -1.0876 N   0  0  0  0  0  0  0  0  0  0  0  0
    0.8400   -1.7422   -0.4684 C   0  0  0  0  0  0  0  0  0  0  0  0
    2.4442   -1.7863    0.2017 S   0  0  0  0  0  0  0  0  0  0  0  0
    2.4947   -0.0438    0.3122 C   0  0  0  0  0  0  0  0  0  0  0  0
    3.6201    0.6575    0.5808 C   0  0  0  0  0  0  0  0  0  0  0  0
    3.6365    2.0478    0.5874 O   0  0  0  0  0  0  0  0  0  0  0  0
    4.9346    0.0537    0.8644 C   0  0  0  0  0  0  0  0  0  0  0  0
    5.9434    0.0920   -0.1041 C   0  0  0  0  0  0  0  0  0  0  0  0
    7.2110   -0.4325    0.1696 C   0  0  0  0  0  0  0  0  0  0  0  0
    7.4802   -1.0040    1.4123 C   0  0  0  0  0  0  0  0  0  0  0  0
    8.6696   -1.5501    1.8060 O   0  0  0  0  0  0  0  0  0  0  0  0
    9.7500   -1.4706    0.8828 C   0  0  0  0  0  0  0  0  0  0  0  0
    6.4713   -1.0445    2.3776 C   0  0  0  0  0  0  0  0  0  0  0  0
    5.2071   -0.5129    2.1132 C   0  0  0  0  0  0  0  0  0  0  0  0
    1.1554    0.5100    0.0281 C   0  0  0  0  0  0  0  0  0  0  0  0
    0.9625    1.8796    0.0949 N   0  0  0  0  0  0  0  0  0  0  0  0
    0.2176   -0.4107   -0.2936 C   0  0  0  0  0  0  0  0  0  0  0  0
   -1.2134   -0.3230   -0.6651 C   0  0  0  0  0  0  0  0  0  0  0  0
   -2.0478    0.6386   -0.1534 C   0  0  0  0  0  0  0  0  0  0  0  0
   -1.7452    1.2889    1.1434 C   0  0  0  0  0  0  0  0  0  0  0  0
   -2.5578    2.2030    1.7027 C   0  0  0  0  0  0  0  0  0  0  0  0
   -3.7926    2.6265    1.0333 C   0  0  0  0  0  0  0  0  0  0  0  0
   -4.6330    3.5673    1.5404 C   0  0  0  0  0  0  0  0  0  0  0  0
   -4.3859    4.2539    2.7147 O   0  0  0  0  0  0  0  0  0  0  0  0
   -5.8015    3.8743    0.8531 O   0  0  0  0  0  0  0  0  0  0  0  0
   -6.5952    4.8825    1.4738 C   0  0  0  0  0  0  0  0  0  0  0  0
   -4.1134    1.9863   -0.2488 C   0  0  0  0  0  0  0  0  0  0  0  0
   -3.3027    1.0661   -0.7993 C   0  0  0  0  0  0  0  0  0  0  0  0
   -6.5713   -3.5726   -2.5374 H   0  0  0  0  0  0  0  0  0  0  0  0
   -4.9211   -3.5789   -3.1923 H   0  0  0  0  0  0  0  0  0  0  0  0
   -5.2305   -4.2839   -1.6146 H   0  0  0  0  0  0  0  0  0  0  0  0
   -5.8628   -2.0415   -0.7122 H   0  0  0  0  0  0  0  0  0  0  0  0
   -5.5323   -1.2915   -2.2752 H   0  0  0  0  0  0  0  0  0  0  0  0
   -2.3657   -3.8309   -2.7540 H   0  0  0  0  0  0  0  0  0  0  0  0
   -1.1055   -4.7085   -1.9069 H   0  0  0  0  0  0  0  0  0  0  0  0
   -0.7204   -3.8391   -3.4054 H   0  0  0  0  0  0  0  0  0  0  0  0
    4.5110    2.3285    0.9179 H   0  0  0  0  0  0  0  0  0  0  0  0
    5.7476    0.5279   -1.0809 H   0  0  0  0  0  0  0  0  0  0  0  0
    7.9606   -0.3812   -0.6094 H   0  0  0  0  0  0  0  0  0  0  0  0
    9.5284   -2.0227   -0.0382 H   0  0  0  0  0  0  0  0  0  0  0  0
   10.0054   -0.4271    0.6676 H   0  0  0  0  0  0  0  0  0  0  0  0
   10.6237   -1.9378    1.3487 H   0  0  0  0  0  0  0  0  0  0  0  0
    6.6724   -1.4934    3.3467 H   0  0  0  0  0  0  0  0  0  0  0  0
    4.4411   -0.5469    2.8859 H   0  0  0  0  0  0  0  0  0  0  0  0
    0.2569    2.2338   -0.5457 H   0  0  0  0  0  0  0  0  0  0  0  0
    1.8437    2.3950    0.0333 H   0  0  0  0  0  0  0  0  0  0  0  0
   -0.8819    0.9601    1.7179 H   0  0  0  0  0  0  0  0  0  0  0  0
   -2.2941    2.5785    2.6849 H   0  0  0  0  0  0  0  0  0  0  0  0
   -3.4547    4.1403    2.9555 H   0  0  0  0  0  0  0  0  0  0  0  0
   -7.4676    5.0586    0.8400 H   0  0  0  0  0  0  0  0  0  0  0  0
   -6.0438    5.8256    1.5563 H   0  0  0  0  0  0  0  0  0  0  0  0
   -6.9496    4.5521    2.4570 H   0  0  0  0  0  0  0  0  0  0  0  0
   -5.0002    2.3046   -0.7885 H   0  0  0  0  0  0  0  0  0  0  0  0
   -3.5547    0.7418   -1.7994 H   0  0  0  0  0  0  0  0  0  0  0  0
  1  2  1  0
  2  3  1  0
  3  4  1  0
  4  5  2  0
  4  6  1  0
  6  7  2  0
  7  8  1  0
  7  9  1  0
  9 10  2  0
 10 11  1  0
 11 12  1  0
 12 13  2  3
 13 14  1  0
 13 15  1  0
 15 16  2  0
 16 17  1  0
 17 18  2  0
 18 19  1  0
 19 20  1  0
 18 21  1  0
 21 22  2  0
 12 23  1  0
 23 24  1  0
 23 25  2  0
 25 26  1  0
 26 27  2  3
 27 28  1  0
 28 29  2  0
 29 30  1  0
 30 31  2  3
 31 32  1  0
 31 33  1  0
 33 34  1  0
 30 35  1  0
 35 36  2  0
 26  6  1  0
 36 27  1  0
 25 10  1  0
 22 15  1  0
  1 37  1  0
  1 38  1  0
  1 39  1  0
  2 40  1  0
  2 41  1  0
  8 42  1  0
  8 43  1  0
  8 44  1  0
 14 45  1  0
 16 46  1  0
 17 47  1  0
 20 48  1  0
 20 49  1  0
 20 50  1  0
 21 51  1  0
 22 52  1  0
 24 53  1  0
 24 54  1  0
 28 55  1  0
 29 56  1  0
 32 57  1  0
 34 58  1  0
 34 59  1  0
 34 60  1  0
 35 61  1  0
 36 62  1  0
M  END
$$$$
