
     RDKit          3D

 39 42  0  0  0  0  0  0  0  0999 V2000
    4.2956    2.6317   -2.6041 C   0  0  0  0  0  0  0  0  0  0  0  0
    3.6198    1.4957   -2.0635 O   0  0  0  0  0  0  0  0  0  0  0  0
    4.1605    1.0313   -0.9090 C   0  0  0  0  0  0  0  0  0  0  0  0
    5.1333    1.4996   -0.3384 O   0  0  0  0  0  0  0  0  0  0  0  0
    3.4039   -0.1497   -0.4105 C   0  0  0  0  0  0  0  0  0  0  0  0
    2.2872   -0.6654   -1.0795 C   0  0  0  0  0  0  0  0  0  0  0  0
    1.6103   -1.7762   -0.5668 C   0  0  0  0  0  0  0  0  0  0  0  0
    2.0365   -2.3881    0.6213 C   0  0  0  0  0  0  0  0  0  0  0  0
    1.2907   -3.5756    1.1827 C   0  0  0  0  0  0  0  0  0  0  0  0
    0.2787   -3.1648    2.6353 S   0  0  0  0  0  0  0  0  0  0  0  0
   -0.9292   -2.1223    1.8513 C   0  0  0  0  0  0  0  0  0  0  0  0
   -1.5181   -2.5857    0.7126 N   0  0  0  0  0  0  0  0  0  0  0  0
   -2.4187   -1.8517    0.0558 N   0  0  0  0  0  0  0  0  0  0  0  0
   -2.7118   -0.6427    0.5948 C   0  0  0  0  0  0  0  0  0  0  0  0
   -2.0878   -0.2392    1.7609 C   0  0  0  0  0  0  0  0  0  0  0  0
   -1.1771   -0.9400    2.4555 N   0  0  0  0  0  0  0  0  0  0  0  0
   -2.5599    1.0012    2.0799 N   0  0  0  0  0  0  0  0  0  0  0  0
   -3.4807    1.4155    1.1395 C   0  0  0  0  0  0  0  0  0  0  0  0
   -4.2142    2.6046    1.0565 C   0  0  0  0  0  0  0  0  0  0  0  0
   -5.0878    2.7511   -0.0256 C   0  0  0  0  0  0  0  0  0  0  0  0
   -5.2224    1.7494   -0.9852 C   0  0  0  0  0  0  0  0  0  0  0  0
   -4.4827    0.5655   -0.8902 C   0  0  0  0  0  0  0  0  0  0  0  0
   -3.5948    0.3921    0.1901 C   0  0  0  0  0  0  0  0  0  0  0  0
    3.1555   -1.8677    1.2872 C   0  0  0  0  0  0  0  0  0  0  0  0
    3.8338   -0.7583    0.7753 C   0  0  0  0  0  0  0  0  0  0  0  0
    4.2535    3.4721   -1.9041 H   0  0  0  0  0  0  0  0  0  0  0  0
    3.7840    2.9231   -3.5256 H   0  0  0  0  0  0  0  0  0  0  0  0
    5.3327    2.3808   -2.8482 H   0  0  0  0  0  0  0  0  0  0  0  0
    1.9276   -0.2125   -2.0003 H   0  0  0  0  0  0  0  0  0  0  0  0
    0.7401   -2.1553   -1.1016 H   0  0  0  0  0  0  0  0  0  0  0  0
    0.6744   -4.0532    0.4125 H   0  0  0  0  0  0  0  0  0  0  0  0
    2.0219   -4.3336    1.4877 H   0  0  0  0  0  0  0  0  0  0  0  0
   -2.2659    1.5278    2.8890 H   0  0  0  0  0  0  0  0  0  0  0  0
   -4.1155    3.3895    1.8001 H   0  0  0  0  0  0  0  0  0  0  0  0
   -5.6732    3.6637   -0.1192 H   0  0  0  0  0  0  0  0  0  0  0  0
   -5.9093    1.8871   -1.8172 H   0  0  0  0  0  0  0  0  0  0  0  0
   -4.5921   -0.2127   -1.6410 H   0  0  0  0  0  0  0  0  0  0  0  0
    3.5031   -2.3189    2.2150 H   0  0  0  0  0  0  0  0  0  0  0  0
    4.6984   -0.3682    1.3097 H   0  0  0  0  0  0  0  0  0  0  0  0
  1  2  1  0
  2  3  1  0
  3  4  2  0
  3  5  1  0
  5  6  2  0
  6  7  1  0
  7  8  2  0
  8  9  1  0
  9 10  1  0
 10 11  1  0
 11 12  2  0
 12 13  1  0
 13 14  2  0
 14 15  1  0
 15 16  2  0
 15 17  1  0
 17 18  1  0
 18 19  2  0
 19 20  1  0
 20 21  2  0
 21 22  1  0
 22 23  2  0
  8 24  1  0
 24 25  2  0
 25  5  1  0
 16 11  1  0
 23 18  1  0
 23 14  1  0
  1 26  1  0
  1 27  1  0
  1 28  1  0
  6 29  1  0
  7 30  1  0
  9 31  1  0
  9 32  1  0
 17 33  1  0
 19 34  1  0
 20 35  1  0
 21 36  1  0
 22 37  1  0
 24 38  1  0
 25 39  1  0
M  END
$$$$
