
     RDKit          3D

 48 50  0  0  0  0  0  0  0  0999 V2000
    4.3433    1.1412   -2.2323 O   0  0  0  0  0  0  0  0  0  0  0  0
    3.3568    0.5763   -1.7711 C   0  0  0  0  0  0  0  0  0  0  0  0
    2.0657    0.4651   -2.5960 C   0  0  0  0  0  0  0  0  0  0  0  0
    0.8647    0.2889   -1.7402 N   0  0  0  0  0  0  0  0  0  0  0  0
   -0.2731   -0.1677   -2.5641 C   0  0  0  0  0  0  0  0  0  0  0  0
   -1.5896   -0.2736   -1.7617 C   0  0  0  0  0  0  0  0  0  0  0  0
   -1.8700    0.9118   -0.9424 N   0  0  0  0  0  0  0  0  0  0  0  0
   -2.3891    0.7519    0.3359 C   0  0  0  0  0  0  0  0  0  0  0  0
   -1.9360    1.3637    1.3016 O   0  0  0  0  0  0  0  0  0  0  0  0
   -3.4492   -0.1272    0.4762 N   0  0  0  0  0  0  0  0  0  0  0  0
   -3.9251   -0.4133    1.8299 C   0  0  0  0  0  0  0  0  0  0  0  0
   -4.8698   -1.6166    1.8360 C   0  0  0  0  0  0  0  0  0  0  0  0
   -6.0176   -1.4608    0.9877 O   0  0  0  0  0  0  0  0  0  0  0  0
   -5.8447   -0.4895   -0.0504 C   0  0  0  0  0  0  0  0  0  0  0  0
   -4.4108   -0.4268   -0.5894 C   0  0  0  0  0  0  0  0  0  0  0  0
   -0.9316    2.0126   -1.1438 C   0  0  0  0  0  0  0  0  0  0  0  0
    0.5311    1.5423   -1.0031 C   0  0  0  0  0  0  0  0  0  0  0  0
    3.2724   -0.0806   -0.5589 N   0  0  0  0  0  0  0  0  0  0  0  0
    4.2662   -0.2382    0.4214 C   0  0  0  0  0  0  0  0  0  0  0  0
    5.5405    0.3256    0.3317 C   0  0  0  0  0  0  0  0  0  0  0  0
    6.4830    0.1143    1.3443 C   0  0  0  0  0  0  0  0  0  0  0  0
    6.1527   -0.6655    2.4489 C   0  0  0  0  0  0  0  0  0  0  0  0
    7.4301   -0.9564    3.8097 Br  0  0  0  0  0  0  0  0  0  0  0  0
    4.8849   -1.2298    2.5553 C   0  0  0  0  0  0  0  0  0  0  0  0
    3.9434   -1.0117    1.5449 C   0  0  0  0  0  0  0  0  0  0  0  0
    1.9682    1.3504   -3.2384 H   0  0  0  0  0  0  0  0  0  0  0  0
    2.1995   -0.4144   -3.2375 H   0  0  0  0  0  0  0  0  0  0  0  0
   -0.4237    0.5128   -3.4147 H   0  0  0  0  0  0  0  0  0  0  0  0
   -0.0517   -1.1570   -2.9830 H   0  0  0  0  0  0  0  0  0  0  0  0
   -2.4171   -0.4011   -2.4668 H   0  0  0  0  0  0  0  0  0  0  0  0
   -1.5478   -1.1561   -1.1119 H   0  0  0  0  0  0  0  0  0  0  0  0
   -3.0682   -0.5906    2.4870 H   0  0  0  0  0  0  0  0  0  0  0  0
   -4.4480    0.4833    2.1862 H   0  0  0  0  0  0  0  0  0  0  0  0
   -5.2328   -1.8091    2.8490 H   0  0  0  0  0  0  0  0  0  0  0  0
   -4.3387   -2.5153    1.5018 H   0  0  0  0  0  0  0  0  0  0  0  0
   -6.5398   -0.7433   -0.8579 H   0  0  0  0  0  0  0  0  0  0  0  0
   -6.1478    0.4865    0.3470 H   0  0  0  0  0  0  0  0  0  0  0  0
   -4.1314   -1.4063   -0.9974 H   0  0  0  0  0  0  0  0  0  0  0  0
   -4.3508    0.3278   -1.3814 H   0  0  0  0  0  0  0  0  0  0  0  0
   -1.1065    2.4082   -2.1517 H   0  0  0  0  0  0  0  0  0  0  0  0
   -1.1368    2.8292   -0.4409 H   0  0  0  0  0  0  0  0  0  0  0  0
    1.1822    2.3751   -1.2978 H   0  0  0  0  0  0  0  0  0  0  0  0
    0.7334    1.3496    0.0575 H   0  0  0  0  0  0  0  0  0  0  0  0
    2.3540   -0.4780   -0.3744 H   0  0  0  0  0  0  0  0  0  0  0  0
    5.8309    0.9461   -0.5115 H   0  0  0  0  0  0  0  0  0  0  0  0
    7.4675    0.5656    1.2555 H   0  0  0  0  0  0  0  0  0  0  0  0
    4.6187   -1.8385    3.4149 H   0  0  0  0  0  0  0  0  0  0  0  0
    2.9581   -1.4609    1.6451 H   0  0  0  0  0  0  0  0  0  0  0  0
  1  2  2  0
  2  3  1  0
  3  4  1  0
  4  5  1  0
  5  6  1  0
  6  7  1  0
  7  8  1  0
  8  9  2  0
  8 10  1  0
 10 11  1  0
 11 12  1  0
 12 13  1  0
 13 14  1  0
 14 15  1  0
  7 16  1  0
 16 17  1  0
  2 18  1  0
 18 19  1  0
 19 20  2  0
 20 21  1  0
 21 22  2  0
 22 23  1  0
 22 24  1  0
 24 25  2  0
 17  4  1  0
 25 19  1  0
 15 10  1  0
  3 26  1  0
  3 27  1  0
  5 28  1  0
  5 29  1  0
  6 30  1  0
  6 31  1  0
 11 32  1  0
 11 33  1  0
 12 34  1  0
 12 35  1  0
 14 36  1  0
 14 37  1  0
 15 38  1  0
 15 39  1  0
 16 40  1  0
 16 41  1  0
 17 42  1  0
 17 43  1  0
 18 44  1  0
 20 45  1  0
 21 46  1  0
 24 47  1  0
 25 48  1  0
M  END
$$$$
