
     RDKit          3D

 44 46  0  0  0  0  0  0  0  0999 V2000
    1.0250   -0.7759    3.7834 C   0  0  0  0  0  0  0  0  0  0  0  0
    1.7183   -0.6594    2.5448 O   0  0  0  0  0  0  0  0  0  0  0  0
    0.9521   -0.5195    1.4159 C   0  0  0  0  0  0  0  0  0  0  0  0
   -0.4066   -0.1884    1.4048 C   0  0  0  0  0  0  0  0  0  0  0  0
   -1.1008   -0.0631    0.1862 C   0  0  0  0  0  0  0  0  0  0  0  0
   -2.5238    0.3085    0.2206 C   0  0  0  0  0  0  0  0  0  0  0  0
   -3.5573   -0.4132   -0.2723 C   0  0  0  0  0  0  0  0  0  0  0  0
   -3.3420   -1.6820   -0.8944 C   0  0  0  0  0  0  0  0  0  0  0  0
   -3.2103   -2.7164   -1.4095 N   0  0  0  0  0  0  0  0  0  0  0  0
   -4.9531    0.0939   -0.1376 C   0  0  0  0  0  0  0  0  0  0  0  0
   -6.0211   -0.4661   -0.8456 C   0  0  0  0  0  0  0  0  0  0  0  0
   -7.3065    0.0469   -0.6667 C   0  0  0  0  0  0  0  0  0  0  0  0
   -7.5042    1.1049    0.2129 C   0  0  0  0  0  0  0  0  0  0  0  0
   -6.4021    1.6091    0.8804 C   0  0  0  0  0  0  0  0  0  0  0  0
   -5.1457    1.1313    0.7249 N   0  0  0  0  0  0  0  0  0  0  0  0
   -0.4224   -0.2520   -1.0283 C   0  0  0  0  0  0  0  0  0  0  0  0
    0.9297   -0.5853   -1.0259 C   0  0  0  0  0  0  0  0  0  0  0  0
    1.6099   -0.6999    0.1890 C   0  0  0  0  0  0  0  0  0  0  0  0
    2.9329   -1.0522    0.1423 O   0  0  0  0  0  0  0  0  0  0  0  0
    3.7733    0.1003    0.2885 C   0  0  0  0  0  0  0  0  0  0  0  0
    4.6093    0.2572   -0.9649 C   0  0  0  0  0  0  0  0  0  0  0  0
    4.4775    1.3927   -1.7765 C   0  0  0  0  0  0  0  0  0  0  0  0
    5.2392    1.5204   -2.9411 C   0  0  0  0  0  0  0  0  0  0  0  0
    6.1411    0.5153   -3.3005 C   0  0  0  0  0  0  0  0  0  0  0  0
    7.0797    0.6706   -4.7407 Cl  0  0  0  0  0  0  0  0  0  0  0  0
    6.2856   -0.6170   -2.5027 C   0  0  0  0  0  0  0  0  0  0  0  0
    5.5204   -0.7459   -1.3393 C   0  0  0  0  0  0  0  0  0  0  0  0
    0.2875   -1.5879    3.7557 H   0  0  0  0  0  0  0  0  0  0  0  0
    0.5574    0.1761    4.0609 H   0  0  0  0  0  0  0  0  0  0  0  0
    1.7601   -1.0210    4.5556 H   0  0  0  0  0  0  0  0  0  0  0  0
   -0.9506   -0.0184    2.3381 H   0  0  0  0  0  0  0  0  0  0  0  0
   -2.7121    1.2561    0.7257 H   0  0  0  0  0  0  0  0  0  0  0  0
   -5.8835   -1.2931   -1.5375 H   0  0  0  0  0  0  0  0  0  0  0  0
   -8.1460   -0.3800   -1.2113 H   0  0  0  0  0  0  0  0  0  0  0  0
   -8.4910    1.5244    0.3742 H   0  0  0  0  0  0  0  0  0  0  0  0
   -6.5005    2.4360    1.5805 H   0  0  0  0  0  0  0  0  0  0  0  0
   -0.9355   -0.1463   -1.9850 H   0  0  0  0  0  0  0  0  0  0  0  0
    1.4545   -0.7572   -1.9658 H   0  0  0  0  0  0  0  0  0  0  0  0
    4.4413   -0.0666    1.1443 H   0  0  0  0  0  0  0  0  0  0  0  0
    3.2137    1.0251    0.4956 H   0  0  0  0  0  0  0  0  0  0  0  0
    3.7736    2.1796   -1.5118 H   0  0  0  0  0  0  0  0  0  0  0  0
    5.1255    2.4028   -3.5630 H   0  0  0  0  0  0  0  0  0  0  0  0
    6.9831   -1.4053   -2.7833 H   0  0  0  0  0  0  0  0  0  0  0  0
    5.6247   -1.6392   -0.7268 H   0  0  0  0  0  0  0  0  0  0  0  0
  1  2  1  0
  2  3  1  0
  3  4  2  0
  4  5  1  0
  5  6  1  0
  6  7  2  3
  7  8  1  0
  8  9  3  0
  7 10  1  0
 10 11  2  0
 11 12  1  0
 12 13  2  0
 13 14  1  0
 14 15  2  0
  5 16  2  0
 16 17  1  0
 17 18  2  0
 18 19  1  0
 19 20  1  0
 20 21  1  0
 21 22  2  0
 22 23  1  0
 23 24  2  0
 24 25  1  0
 24 26  1  0
 26 27  2  0
 18  3  1  0
 27 21  1  0
 15 10  1  0
  1 28  1  0
  1 29  1  0
  1 30  1  0
  4 31  1  0
  6 32  1  0
 11 33  1  0
 12 34  1  0
 13 35  1  0
 14 36  1  0
 16 37  1  0
 17 38  1  0
 20 39  1  0
 20 40  1  0
 22 41  1  0
 23 42  1  0
 26 43  1  0
 27 44  1  0
M  END
$$$$
