
     RDKit          3D

 54 57  0  0  0  0  0  0  0  0999 V2000
   -7.9650    0.3539    2.6169 C   0  0  0  0  0  0  0  0  0  0  0  0
   -7.2053   -0.5768    1.8556 O   0  0  0  0  0  0  0  0  0  0  0  0
   -5.9899   -0.1514    1.3977 C   0  0  0  0  0  0  0  0  0  0  0  0
   -5.4229    1.1010    1.6115 C   0  0  0  0  0  0  0  0  0  0  0  0
   -4.1623    1.4019    1.0788 C   0  0  0  0  0  0  0  0  0  0  0  0
   -3.4412    0.4537    0.3303 C   0  0  0  0  0  0  0  0  0  0  0  0
   -2.1581    0.8192   -0.1874 N   0  0  0  0  0  0  0  0  0  0  0  0
   -1.7760    2.1301   -0.1227 N   0  0  0  0  0  0  0  0  0  0  0  0
   -0.6108    2.1956   -0.7602 C   0  0  0  0  0  0  0  0  0  0  0  0
   -0.1694    0.9408   -1.1895 C   0  0  0  0  0  0  0  0  0  0  0  0
   -1.1584    0.0602   -0.7867 C   0  0  0  0  0  0  0  0  0  0  0  0
   -1.1036   -1.4185   -0.9879 C   0  0  0  0  0  0  0  0  0  0  0  0
    0.3380   -1.9001   -1.3432 C   0  0  0  0  0  0  0  0  0  0  0  0
    1.1736   -2.0566   -0.0566 C   0  0  0  0  0  0  0  0  0  0  0  0
    0.2437   -3.2894   -2.0069 C   0  0  0  0  0  0  0  0  0  0  0  0
    1.0197   -0.9210   -2.3514 C   0  0  0  0  0  0  0  0  0  0  0  0
    1.0838    0.5557   -1.8927 C   0  0  0  0  0  0  0  0  0  0  0  0
    2.1904    0.8055   -0.9977 N   0  0  0  0  0  0  0  0  0  0  0  0
    3.4921    0.9098   -1.4336 C   0  0  0  0  0  0  0  0  0  0  0  0
    3.8260    0.8833   -2.6118 O   0  0  0  0  0  0  0  0  0  0  0  0
    4.4951    1.0507   -0.3421 C   0  0  0  0  0  0  0  0  0  0  0  0
    5.8393    1.1924   -0.6443 C   0  0  0  0  0  0  0  0  0  0  0  0
    6.7870    1.3178    0.3203 N   0  0  0  0  0  0  0  0  0  0  0  0
    6.3368    1.2964    1.6005 C   0  0  0  0  0  0  0  0  0  0  0  0
    7.3427    1.4293    2.7004 C   0  0  0  0  0  0  0  0  0  0  0  0
    4.9817    1.1514    1.8925 C   0  0  0  0  0  0  0  0  0  0  0  0
    4.0275    1.0243    0.9395 N   0  0  0  0  0  0  0  0  0  0  0  0
   -4.0255   -0.7951    0.1077 C   0  0  0  0  0  0  0  0  0  0  0  0
   -5.2867   -1.0911    0.6430 C   0  0  0  0  0  0  0  0  0  0  0  0
   -7.4409    0.6321    3.5372 H   0  0  0  0  0  0  0  0  0  0  0  0
   -8.2175    1.2379    2.0220 H   0  0  0  0  0  0  0  0  0  0  0  0
   -8.9021   -0.1338    2.9022 H   0  0  0  0  0  0  0  0  0  0  0  0
   -5.9279    1.8710    2.1851 H   0  0  0  0  0  0  0  0  0  0  0  0
   -3.7497    2.3924    1.2682 H   0  0  0  0  0  0  0  0  0  0  0  0
   -0.1224    3.1560   -0.8662 H   0  0  0  0  0  0  0  0  0  0  0  0
   -1.7783   -1.6707   -1.8159 H   0  0  0  0  0  0  0  0  0  0  0  0
   -1.4446   -1.9480   -0.0913 H   0  0  0  0  0  0  0  0  0  0  0  0
    1.1573   -1.1568    0.5641 H   0  0  0  0  0  0  0  0  0  0  0  0
    2.2182   -2.2897   -0.2907 H   0  0  0  0  0  0  0  0  0  0  0  0
    0.7857   -2.8722    0.5649 H   0  0  0  0  0  0  0  0  0  0  0  0
   -0.3289   -3.2462   -2.9402 H   0  0  0  0  0  0  0  0  0  0  0  0
   -0.2515   -4.0109   -1.3473 H   0  0  0  0  0  0  0  0  0  0  0  0
    1.2388   -3.6812   -2.2457 H   0  0  0  0  0  0  0  0  0  0  0  0
    0.4384   -0.9485   -3.2847 H   0  0  0  0  0  0  0  0  0  0  0  0
    2.0226   -1.2849   -2.6087 H   0  0  0  0  0  0  0  0  0  0  0  0
    1.2245    1.1879   -2.7782 H   0  0  0  0  0  0  0  0  0  0  0  0
    2.0485    0.7879    0.0093 H   0  0  0  0  0  0  0  0  0  0  0  0
    6.1979    1.2093   -1.6680 H   0  0  0  0  0  0  0  0  0  0  0  0
    7.1161    2.3044    3.3175 H   0  0  0  0  0  0  0  0  0  0  0  0
    7.3353    0.5339    3.3295 H   0  0  0  0  0  0  0  0  0  0  0  0
    8.3514    1.5520    2.2926 H   0  0  0  0  0  0  0  0  0  0  0  0
    4.6233    1.1335    2.9171 H   0  0  0  0  0  0  0  0  0  0  0  0
   -3.5658   -1.5613   -0.5004 H   0  0  0  0  0  0  0  0  0  0  0  0
   -5.7310   -2.0670    0.4586 H   0  0  0  0  0  0  0  0  0  0  0  0
  1  2  1  0
  2  3  1  0
  3  4  2  0
  4  5  1  0
  5  6  2  0
  6  7  1  0
  7  8  1  0
  8  9  2  0
  9 10  1  0
 10 11  2  0
 11 12  1  0
 12 13  1  0
 13 14  1  0
 13 15  1  0
 13 16  1  0
 16 17  1  0
 17 18  1  0
 18 19  1  0
 19 20  2  0
 19 21  1  0
 21 22  2  0
 22 23  1  0
 23 24  2  0
 24 25  1  0
 24 26  1  0
 26 27  2  0
  6 28  1  0
 28 29  2  0
 29  3  1  0
 11  7  1  0
 27 21  1  0
 17 10  1  0
  1 30  1  0
  1 31  1  0
  1 32  1  0
  4 33  1  0
  5 34  1  0
  9 35  1  0
 12 36  1  0
 12 37  1  0
 14 38  1  0
 14 39  1  0
 14 40  1  0
 15 41  1  0
 15 42  1  0
 15 43  1  0
 16 44  1  0
 16 45  1  0
 17 46  1  0
 18 47  1  0
 22 48  1  0
 25 49  1  0
 25 50  1  0
 25 51  1  0
 26 52  1  0
 28 53  1  0
 29 54  1  0
M  END
$$$$
