
     RDKit          3D

 34 35  0  0  0  0  0  0  0  0999 V2000
   -0.5292   -0.9058    0.3926 O   0  0  0  0  0  0  0  0  0  0  0  0
   -0.7391    0.2152   -0.0595 C   0  0  0  0  0  0  0  0  0  0  0  0
    0.3571    1.2653   -0.2307 C   0  0  0  0  0  0  0  0  0  0  0  0
    1.6248    0.7354    0.1543 O   0  0  0  0  0  0  0  0  0  0  0  0
    2.6442    1.6150    0.0493 C   0  0  0  0  0  0  0  0  0  0  0  0
    2.5497    2.7727   -0.3254 O   0  0  0  0  0  0  0  0  0  0  0  0
    3.9210    0.9885    0.4568 C   0  0  0  0  0  0  0  0  0  0  0  0
    5.0982    1.7432    0.4200 C   0  0  0  0  0  0  0  0  0  0  0  0
    6.3037    1.1571    0.8042 C   0  0  0  0  0  0  0  0  0  0  0  0
    6.2821   -0.1662    1.2117 C   0  0  0  0  0  0  0  0  0  0  0  0
    7.7197   -0.9606    1.7006 Cl  0  0  0  0  0  0  0  0  0  0  0  0
    5.1697   -0.9274    1.2616 N   0  0  0  0  0  0  0  0  0  0  0  0
    4.0103   -0.3328    0.8815 C   0  0  0  0  0  0  0  0  0  0  0  0
   -1.9902    0.6823   -0.4394 N   0  0  0  0  0  0  0  0  0  0  0  0
   -3.1818   -0.0868   -0.3592 C   0  0  0  0  0  0  0  0  0  0  0  0
   -4.3297    0.5723    0.1378 C   0  0  0  0  0  0  0  0  0  0  0  0
   -4.2704    2.2481    0.5828 Cl  0  0  0  0  0  0  0  0  0  0  0  0
   -5.5377   -0.1021    0.3195 C   0  0  0  0  0  0  0  0  0  0  0  0
   -5.6282   -1.4483   -0.0067 C   0  0  0  0  0  0  0  0  0  0  0  0
   -4.5218   -2.1005   -0.5486 C   0  0  0  0  0  0  0  0  0  0  0  0
   -3.2937   -1.4304   -0.7656 C   0  0  0  0  0  0  0  0  0  0  0  0
   -2.2309   -2.2048   -1.5161 C   0  0  0  0  0  0  0  0  0  0  0  0
   -1.5606   -3.1021   -0.7457 F   0  0  0  0  0  0  0  0  0  0  0  0
   -2.7897   -2.9574   -2.5176 F   0  0  0  0  0  0  0  0  0  0  0  0
   -1.3021   -1.4410   -2.1569 F   0  0  0  0  0  0  0  0  0  0  0  0
    0.3851    1.5605   -1.2860 H   0  0  0  0  0  0  0  0  0  0  0  0
    0.1077    2.1247    0.4026 H   0  0  0  0  0  0  0  0  0  0  0  0
    5.0799    2.7813    0.0944 H   0  0  0  0  0  0  0  0  0  0  0  0
    7.2291    1.7217    0.7839 H   0  0  0  0  0  0  0  0  0  0  0  0
    3.1386   -0.9816    0.9356 H   0  0  0  0  0  0  0  0  0  0  0  0
   -2.1249    1.6845   -0.3250 H   0  0  0  0  0  0  0  0  0  0  0  0
   -6.4051    0.4139    0.7235 H   0  0  0  0  0  0  0  0  0  0  0  0
   -6.5624   -1.9862    0.1387 H   0  0  0  0  0  0  0  0  0  0  0  0
   -4.6233   -3.1477   -0.8391 H   0  0  0  0  0  0  0  0  0  0  0  0
  1  2  2  0
  2  3  1  0
  3  4  1  0
  4  5  1  0
  5  6  2  0
  5  7  1  0
  7  8  2  0
  8  9  1  0
  9 10  2  0
 10 11  1  0
 10 12  1  0
 12 13  2  0
  2 14  1  0
 14 15  1  0
 15 16  2  0
 16 17  1  0
 16 18  1  0
 18 19  2  0
 19 20  1  0
 20 21  2  0
 21 22  1  0
 22 23  1  0
 22 24  1  0
 22 25  1  0
 13  7  1  0
 21 15  1  0
  3 26  1  0
  3 27  1  0
  8 28  1  0
  9 29  1  0
 13 30  1  0
 14 31  1  0
 18 32  1  0
 19 33  1  0
 20 34  1  0
M  END
$$$$
