
     RDKit          3D

 61 63  0  0  0  0  0  0  0  0999 V2000
   -0.3658   -1.0816   -2.8159 C   0  0  0  0  0  0  0  0  0  0  0  0
   -0.8491    0.3402   -2.6007 C   0  0  0  0  0  0  0  0  0  0  0  0
   -0.9041    0.6277   -1.1967 O   0  0  0  0  0  0  0  0  0  0  0  0
    0.2273    1.1305   -0.6312 C   0  0  0  0  0  0  0  0  0  0  0  0
    1.2615    1.3505   -1.2565 O   0  0  0  0  0  0  0  0  0  0  0  0
    0.0993    1.3905    0.8079 C   0  0  0  0  0  0  0  0  0  0  0  0
   -1.0386    1.1141    1.6610 C   0  0  0  0  0  0  0  0  0  0  0  0
   -2.3147    0.5186    1.3015 C   0  0  0  0  0  0  0  0  0  0  0  0
   -2.4686   -0.8696    1.3141 C   0  0  0  0  0  0  0  0  0  0  0  0
   -3.6865   -1.4406    0.9286 C   0  0  0  0  0  0  0  0  0  0  0  0
   -4.7717   -0.6409    0.5298 C   0  0  0  0  0  0  0  0  0  0  0  0
   -6.0454   -1.2502    0.1069 C   0  0  0  0  0  0  0  0  0  0  0  0
   -7.2668   -0.8462    0.6714 C   0  0  0  0  0  0  0  0  0  0  0  0
   -8.4744   -1.4201    0.2648 C   0  0  0  0  0  0  0  0  0  0  0  0
   -8.4820   -2.4087   -0.7152 C   0  0  0  0  0  0  0  0  0  0  0  0
   -7.2836   -2.8263   -1.2864 C   0  0  0  0  0  0  0  0  0  0  0  0
   -6.0769   -2.2519   -0.8775 C   0  0  0  0  0  0  0  0  0  0  0  0
   -4.6010    0.7548    0.5390 C   0  0  0  0  0  0  0  0  0  0  0  0
   -3.3849    1.3319    0.9189 C   0  0  0  0  0  0  0  0  0  0  0  0
   -0.8042    1.4690    2.9738 C   0  0  0  0  0  0  0  0  0  0  0  0
    0.7403    2.1500    3.1887 S   0  0  0  0  0  0  0  0  0  0  0  0
    1.1291    1.9664    1.5461 C   0  0  0  0  0  0  0  0  0  0  0  0
    2.3616    2.3641    1.0584 N   0  0  0  0  0  0  0  0  0  0  0  0
    3.4284    2.9120    1.7472 C   0  0  0  0  0  0  0  0  0  0  0  0
    3.4921    3.1994    2.9388 O   0  0  0  0  0  0  0  0  0  0  0  0
    4.6089    3.2130    0.8098 C   0  0  0  0  0  0  0  0  0  0  0  0
    4.6750    2.2600   -0.3245 N   0  0  0  0  0  0  0  0  0  0  0  0
    5.1940    0.9488    0.1113 C   0  0  0  0  0  0  0  0  0  0  0  0
    5.2886   -0.0323   -1.0862 C   0  0  0  0  0  0  0  0  0  0  0  0
    5.8013   -1.3873   -0.8066 N   0  0  0  0  0  0  0  0  0  0  0  0
    7.1648   -1.3835   -0.2794 C   0  0  0  0  0  0  0  0  0  0  0  0
    4.9067   -2.1521    0.0606 C   0  0  0  0  0  0  0  0  0  0  0  0
   -0.3612   -1.3343   -3.8779 H   0  0  0  0  0  0  0  0  0  0  0  0
    0.6419   -1.2167   -2.4169 H   0  0  0  0  0  0  0  0  0  0  0  0
   -1.0135   -1.7883   -2.2893 H   0  0  0  0  0  0  0  0  0  0  0  0
   -0.2246    1.0650   -3.1357 H   0  0  0  0  0  0  0  0  0  0  0  0
   -1.8678    0.4453   -2.9891 H   0  0  0  0  0  0  0  0  0  0  0  0
   -1.6461   -1.5154    1.6149 H   0  0  0  0  0  0  0  0  0  0  0  0
   -3.7860   -2.5250    0.9474 H   0  0  0  0  0  0  0  0  0  0  0  0
   -7.2842   -0.0836    1.4469 H   0  0  0  0  0  0  0  0  0  0  0  0
   -9.4075   -1.0936    0.7163 H   0  0  0  0  0  0  0  0  0  0  0  0
   -9.4207   -2.8529   -1.0334 H   0  0  0  0  0  0  0  0  0  0  0  0
   -7.2854   -3.5967   -2.0526 H   0  0  0  0  0  0  0  0  0  0  0  0
   -5.1532   -2.5858   -1.3459 H   0  0  0  0  0  0  0  0  0  0  0  0
   -5.4150    1.4076    0.2282 H   0  0  0  0  0  0  0  0  0  0  0  0
   -3.2790    2.4147    0.8989 H   0  0  0  0  0  0  0  0  0  0  0  0
   -1.4690    1.3665    3.8222 H   0  0  0  0  0  0  0  0  0  0  0  0
    2.5513    2.1699    0.0696 H   0  0  0  0  0  0  0  0  0  0  0  0
    4.4459    4.2197    0.4110 H   0  0  0  0  0  0  0  0  0  0  0  0
    5.5446    3.2187    1.3776 H   0  0  0  0  0  0  0  0  0  0  0  0
    5.3154    2.6356   -1.0259 H   0  0  0  0  0  0  0  0  0  0  0  0
    6.1871    1.0859    0.5587 H   0  0  0  0  0  0  0  0  0  0  0  0
    4.5349    0.5260    0.8759 H   0  0  0  0  0  0  0  0  0  0  0  0
    5.9245    0.4160   -1.8611 H   0  0  0  0  0  0  0  0  0  0  0  0
    4.2980   -0.1286   -1.5503 H   0  0  0  0  0  0  0  0  0  0  0  0
    7.5607   -2.4067   -0.2395 H   0  0  0  0  0  0  0  0  0  0  0  0
    7.2284   -0.9604    0.7308 H   0  0  0  0  0  0  0  0  0  0  0  0
    7.8313   -0.8144   -0.9359 H   0  0  0  0  0  0  0  0  0  0  0  0
    3.8921   -2.1875   -0.3621 H   0  0  0  0  0  0  0  0  0  0  0  0
    4.8468   -1.7377    1.0730 H   0  0  0  0  0  0  0  0  0  0  0  0
    5.2499   -3.1936    0.1396 H   0  0  0  0  0  0  0  0  0  0  0  0
  1  2  1  0
  2  3  1  0
  3  4  1  0
  4  5  2  0
  4  6  1  0
  6  7  1  0
  7  8  1  0
  8  9  2  0
  9 10  1  0
 10 11  2  0
 11 12  1  0
 12 13  2  0
 13 14  1  0
 14 15  2  0
 15 16  1  0
 16 17  2  0
 11 18  1  0
 18 19  2  0
  7 20  2  0
 20 21  1  0
 21 22  1  0
 22 23  1  0
 23 24  1  0
 24 25  2  0
 24 26  1  0
 26 27  1  0
 27 28  1  0
 28 29  1  0
 29 30  1  0
 30 31  1  0
 30 32  1  0
 22  6  2  0
 19  8  1  0
 17 12  1  0
  1 33  1  0
  1 34  1  0
  1 35  1  0
  2 36  1  0
  2 37  1  0
  9 38  1  0
 10 39  1  0
 13 40  1  0
 14 41  1  0
 15 42  1  0
 16 43  1  0
 17 44  1  0
 18 45  1  0
 19 46  1  0
 20 47  1  0
 23 48  1  0
 26 49  1  0
 26 50  1  0
 27 51  1  0
 28 52  1  0
 28 53  1  0
 29 54  1  0
 29 55  1  0
 31 56  1  0
 31 57  1  0
 31 58  1  0
 32 59  1  0
 32 60  1  0
 32 61  1  0
M  END
$$$$
