
     RDKit          3D

 52 54  0  0  0  0  0  0  0  0999 V2000
    7.9172    1.7511    1.0937 C   0  0  0  0  0  0  0  0  0  0  0  0
    7.0634    1.2459    2.2409 C   0  0  0  0  0  0  0  0  0  0  0  0
    5.7490    0.8985    1.7825 O   0  0  0  0  0  0  0  0  0  0  0  0
    4.8719    1.9295    1.6308 C   0  0  0  0  0  0  0  0  0  0  0  0
    5.1525    3.1021    1.8555 O   0  0  0  0  0  0  0  0  0  0  0  0
    3.6286    1.5036    1.1939 N   0  0  0  0  0  0  0  0  0  0  0  0
    2.5663    2.4841    1.0125 C   0  0  0  0  0  0  0  0  0  0  0  0
    1.1900    1.8539    1.1829 C   0  0  0  0  0  0  0  0  0  0  0  0
    0.9572    0.7193    0.1735 C   0  0  0  0  0  0  0  0  0  0  0  0
   -0.1244   -0.1439    0.6465 N   0  0  0  0  0  0  0  0  0  0  0  0
   -0.6784   -1.1074   -0.1745 C   0  0  0  0  0  0  0  0  0  0  0  0
   -0.2658   -1.3518   -1.3065 O   0  0  0  0  0  0  0  0  0  0  0  0
   -1.9262   -1.7732    0.4176 C   0  0  0  0  0  0  0  0  0  0  0  0
   -3.1377   -1.1457   -0.1126 N   0  0  0  0  0  0  0  0  0  0  0  0
   -3.4516    0.1213    0.3701 C   0  0  0  0  0  0  0  0  0  0  0  0
   -2.8020    0.6654    1.2690 O   0  0  0  0  0  0  0  0  0  0  0  0
   -4.5673    0.8700   -0.3200 C   0  0  0  0  0  0  0  0  0  0  0  0
   -5.9296    0.5342    0.2436 C   0  0  0  0  0  0  0  0  0  0  0  0
   -6.2807   -1.2366    0.4588 S   0  0  0  0  0  0  0  0  0  0  0  0
   -5.3653   -1.9328   -0.9151 C   0  0  0  0  0  0  0  0  0  0  0  0
   -6.1107   -2.6892   -1.8354 C   0  0  0  0  0  0  0  0  0  0  0  0
   -5.4806   -3.3953   -2.8588 C   0  0  0  0  0  0  0  0  0  0  0  0
   -4.0968   -3.3679   -2.9617 C   0  0  0  0  0  0  0  0  0  0  0  0
   -3.3413   -2.6293   -2.0452 C   0  0  0  0  0  0  0  0  0  0  0  0
   -3.9570   -1.8912   -1.0193 C   0  0  0  0  0  0  0  0  0  0  0  0
    2.2486   -0.0614   -0.1361 C   0  0  0  0  0  0  0  0  0  0  0  0
    3.3097    0.0978    0.9480 C   0  0  0  0  0  0  0  0  0  0  0  0
    7.8997    1.0432    0.2586 H   0  0  0  0  0  0  0  0  0  0  0  0
    7.5351    2.7060    0.7161 H   0  0  0  0  0  0  0  0  0  0  0  0
    8.9553    1.9011    1.4160 H   0  0  0  0  0  0  0  0  0  0  0  0
    7.0147    1.9742    3.0592 H   0  0  0  0  0  0  0  0  0  0  0  0
    7.5066    0.3333    2.6473 H   0  0  0  0  0  0  0  0  0  0  0  0
    2.6958    3.3069    1.7247 H   0  0  0  0  0  0  0  0  0  0  0  0
    2.6746    2.9037    0.0046 H   0  0  0  0  0  0  0  0  0  0  0  0
    1.1000    1.4682    2.2079 H   0  0  0  0  0  0  0  0  0  0  0  0
    0.4090    2.6161    1.0694 H   0  0  0  0  0  0  0  0  0  0  0  0
    0.5996    1.1581   -0.7679 H   0  0  0  0  0  0  0  0  0  0  0  0
   -0.8346    0.3086    1.2278 H   0  0  0  0  0  0  0  0  0  0  0  0
   -1.8966   -2.8484    0.2079 H   0  0  0  0  0  0  0  0  0  0  0  0
   -1.9170   -1.6668    1.5091 H   0  0  0  0  0  0  0  0  0  0  0  0
   -4.5204    0.6963   -1.4016 H   0  0  0  0  0  0  0  0  0  0  0  0
   -4.3794    1.9437   -0.2000 H   0  0  0  0  0  0  0  0  0  0  0  0
   -6.7030    0.9586   -0.4059 H   0  0  0  0  0  0  0  0  0  0  0  0
   -6.0488    1.0028    1.2280 H   0  0  0  0  0  0  0  0  0  0  0  0
   -7.1932   -2.7531   -1.7477 H   0  0  0  0  0  0  0  0  0  0  0  0
   -6.0697   -3.9817   -3.5626 H   0  0  0  0  0  0  0  0  0  0  0  0
   -3.5986   -3.9209   -3.7558 H   0  0  0  0  0  0  0  0  0  0  0  0
   -2.2627   -2.6182   -2.1777 H   0  0  0  0  0  0  0  0  0  0  0  0
    2.0618   -1.1300   -0.2988 H   0  0  0  0  0  0  0  0  0  0  0  0
    2.6623    0.3304   -1.0765 H   0  0  0  0  0  0  0  0  0  0  0  0
    4.2097   -0.4519    0.6546 H   0  0  0  0  0  0  0  0  0  0  0  0
    2.9612   -0.3311    1.8957 H   0  0  0  0  0  0  0  0  0  0  0  0
  1  2  1  0
  2  3  1  0
  3  4  1  0
  4  5  2  0
  4  6  1  0
  6  7  1  0
  7  8  1  0
  8  9  1  0
  9 10  1  0
 10 11  1  0
 11 12  2  0
 11 13  1  0
 13 14  1  0
 14 15  1  0
 15 16  2  0
 15 17  1  0
 17 18  1  0
 18 19  1  0
 19 20  1  0
 20 21  2  0
 21 22  1  0
 22 23  2  0
 23 24  1  0
 24 25  2  0
  9 26  1  0
 26 27  1  0
 27  6  1  0
 25 14  1  0
 25 20  1  0
  1 28  1  0
  1 29  1  0
  1 30  1  0
  2 31  1  0
  2 32  1  0
  7 33  1  0
  7 34  1  0
  8 35  1  0
  8 36  1  0
  9 37  1  0
 10 38  1  0
 13 39  1  0
 13 40  1  0
 17 41  1  0
 17 42  1  0
 18 43  1  0
 18 44  1  0
 21 45  1  0
 22 46  1  0
 23 47  1  0
 24 48  1  0
 26 49  1  0
 26 50  1  0
 27 51  1  0
 27 52  1  0
M  END
$$$$
