
     RDKit          3D

 46 48  0  0  0  0  0  0  0  0999 V2000
    3.5382   -1.2530   -4.2265 C   0  0  0  0  0  0  0  0  0  0  0  0
    4.4863   -1.7841   -3.1640 C   0  0  0  0  0  0  0  0  0  0  0  0
    4.2720   -1.0969   -1.9217 O   0  0  0  0  0  0  0  0  0  0  0  0
    3.2935   -1.5961   -1.1268 C   0  0  0  0  0  0  0  0  0  0  0  0
    2.6040   -2.5746   -1.3774 O   0  0  0  0  0  0  0  0  0  0  0  0
    3.1366   -0.7803    0.1160 C   0  0  0  0  0  0  0  0  0  0  0  0
    4.0956    0.1992    0.4375 C   0  0  0  0  0  0  0  0  0  0  0  0
    3.9674    0.9659    1.5942 C   0  0  0  0  0  0  0  0  0  0  0  0
    2.8823    0.7610    2.4383 C   0  0  0  0  0  0  0  0  0  0  0  0
    1.9246   -0.2113    2.1333 C   0  0  0  0  0  0  0  0  0  0  0  0
    2.0344   -0.9961    0.9781 C   0  0  0  0  0  0  0  0  0  0  0  0
    1.0757   -1.9864    0.6500 N   0  0  0  0  0  0  0  0  0  0  0  0
   -0.0773   -2.3349    1.3249 C   0  0  0  0  0  0  0  0  0  0  0  0
   -0.4755   -1.8694    2.3900 O   0  0  0  0  0  0  0  0  0  0  0  0
   -0.8700   -3.4303    0.6281 C   0  0  0  0  0  0  0  0  0  0  0  0
   -1.5455   -2.8812   -0.9706 S   0  0  0  0  0  0  0  0  0  0  0  0
   -2.2834   -1.3424   -0.4818 C   0  0  0  0  0  0  0  0  0  0  0  0
   -3.3103   -1.2755    0.4409 C   0  0  0  0  0  0  0  0  0  0  0  0
   -3.8046   -0.0250    0.8110 C   0  0  0  0  0  0  0  0  0  0  0  0
   -3.2637    1.1222    0.2420 C   0  0  0  0  0  0  0  0  0  0  0  0
   -3.6973    2.4866    0.5716 C   0  0  0  0  0  0  0  0  0  0  0  0
   -4.2465    2.8380    1.8151 C   0  0  0  0  0  0  0  0  0  0  0  0
   -4.6416    4.1504    2.0740 C   0  0  0  0  0  0  0  0  0  0  0  0
   -4.4778    5.0945    1.0767 C   0  0  0  0  0  0  0  0  0  0  0  0
   -3.9540    4.8146   -0.1322 N   0  0  0  0  0  0  0  0  0  0  0  0
   -3.5738    3.5292   -0.3496 C   0  0  0  0  0  0  0  0  0  0  0  0
   -2.2818    1.0112   -0.6808 N   0  0  0  0  0  0  0  0  0  0  0  0
   -1.7884   -0.2245   -1.0425 N   0  0  0  0  0  0  0  0  0  0  0  0
    3.7382   -1.7206   -5.1954 H   0  0  0  0  0  0  0  0  0  0  0  0
    3.6462   -0.1688   -4.3306 H   0  0  0  0  0  0  0  0  0  0  0  0
    2.4948   -1.4466   -3.9551 H   0  0  0  0  0  0  0  0  0  0  0  0
    4.3853   -2.8693   -3.0388 H   0  0  0  0  0  0  0  0  0  0  0  0
    5.5237   -1.5888   -3.4634 H   0  0  0  0  0  0  0  0  0  0  0  0
    4.9547    0.3760   -0.2061 H   0  0  0  0  0  0  0  0  0  0  0  0
    4.7113    1.7218    1.8354 H   0  0  0  0  0  0  0  0  0  0  0  0
    2.7725    1.3598    3.3399 H   0  0  0  0  0  0  0  0  0  0  0  0
    1.0958   -0.3254    2.8247 H   0  0  0  0  0  0  0  0  0  0  0  0
    1.2459   -2.4762   -0.2331 H   0  0  0  0  0  0  0  0  0  0  0  0
   -0.2193   -4.2948    0.4654 H   0  0  0  0  0  0  0  0  0  0  0  0
   -1.6877   -3.7528    1.2810 H   0  0  0  0  0  0  0  0  0  0  0  0
   -3.7313   -2.1717    0.8824 H   0  0  0  0  0  0  0  0  0  0  0  0
   -4.6096    0.0297    1.5356 H   0  0  0  0  0  0  0  0  0  0  0  0
   -4.3578    2.1024    2.6075 H   0  0  0  0  0  0  0  0  0  0  0  0
   -5.0617    4.4288    3.0342 H   0  0  0  0  0  0  0  0  0  0  0  0
   -4.7686    6.1287    1.2289 H   0  0  0  0  0  0  0  0  0  0  0  0
   -3.1516    3.3569   -1.3382 H   0  0  0  0  0  0  0  0  0  0  0  0
  1  2  1  0
  2  3  1  0
  3  4  1  0
  4  5  2  0
  4  6  1  0
  6  7  2  0
  7  8  1  0
  8  9  2  0
  9 10  1  0
 10 11  2  0
 11 12  1  0
 12 13  1  0
 13 14  2  0
 13 15  1  0
 15 16  1  0
 16 17  1  0
 17 18  2  0
 18 19  1  0
 19 20  2  0
 20 21  1  0
 21 22  2  0
 22 23  1  0
 23 24  2  0
 24 25  1  0
 25 26  2  0
 20 27  1  0
 27 28  2  0
 11  6  1  0
 28 17  1  0
 26 21  1  0
  1 29  1  0
  1 30  1  0
  1 31  1  0
  2 32  1  0
  2 33  1  0
  7 34  1  0
  8 35  1  0
  9 36  1  0
 10 37  1  0
 12 38  1  0
 15 39  1  0
 15 40  1  0
 18 41  1  0
 19 42  1  0
 22 43  1  0
 23 44  1  0
 24 45  1  0
 26 46  1  0
M  END
$$$$
