
     RDKit          3D

 30 31  0  0  0  0  0  0  0  0999 V2000
    0.8552    1.9964    1.9093 O   0  0  0  0  0  0  0  0  0  0  0  0
    0.5774    1.7558    0.7383 C   0  0  0  0  0  0  0  0  0  0  0  0
   -0.6187    2.3953    0.0309 C   0  0  0  0  0  0  0  0  0  0  0  0
   -1.0523    1.6760   -1.1195 O   0  0  0  0  0  0  0  0  0  0  0  0
   -2.0059    0.7052   -0.9521 C   0  0  0  0  0  0  0  0  0  0  0  0
   -2.2670    0.0571    0.2590 C   0  0  0  0  0  0  0  0  0  0  0  0
   -3.2404   -0.9458    0.3270 C   0  0  0  0  0  0  0  0  0  0  0  0
   -3.9530   -1.3072   -0.8136 C   0  0  0  0  0  0  0  0  0  0  0  0
   -5.1487   -2.5400   -0.7201 Cl  0  0  0  0  0  0  0  0  0  0  0  0
   -3.6981   -0.6825   -2.0295 C   0  0  0  0  0  0  0  0  0  0  0  0
   -2.7228    0.3148   -2.0971 C   0  0  0  0  0  0  0  0  0  0  0  0
   -2.4264    1.0542   -3.6330 Cl  0  0  0  0  0  0  0  0  0  0  0  0
    1.3320    0.9221   -0.0647 N   0  0  0  0  0  0  0  0  0  0  0  0
    2.3148    0.0345    0.5360 C   0  0  0  0  0  0  0  0  0  0  0  0
    3.4424   -0.2934   -0.4364 C   0  0  0  0  0  0  0  0  0  0  0  0
    4.1962   -1.4750    0.1459 C   0  0  0  0  0  0  0  0  0  0  0  0
    2.8919   -2.6092    0.6942 S   0  0  0  0  0  0  0  0  0  0  0  0
    1.7064   -1.3187    0.8994 C   0  0  0  0  0  0  0  0  0  0  0  0
    0.5628   -1.5252    1.2761 O   0  0  0  0  0  0  0  0  0  0  0  0
   -1.4355    2.5601    0.7432 H   0  0  0  0  0  0  0  0  0  0  0  0
   -0.2890    3.3818   -0.3137 H   0  0  0  0  0  0  0  0  0  0  0  0
   -1.7165    0.2809    1.1689 H   0  0  0  0  0  0  0  0  0  0  0  0
   -3.4246   -1.4483    1.2742 H   0  0  0  0  0  0  0  0  0  0  0  0
   -4.2501   -0.9717   -2.9194 H   0  0  0  0  0  0  0  0  0  0  0  0
    0.8597    0.6117   -0.9105 H   0  0  0  0  0  0  0  0  0  0  0  0
    2.7165    0.4790    1.4544 H   0  0  0  0  0  0  0  0  0  0  0  0
    3.0439   -0.5501   -1.4279 H   0  0  0  0  0  0  0  0  0  0  0  0
    4.1061    0.5669   -0.5778 H   0  0  0  0  0  0  0  0  0  0  0  0
    4.8451   -1.9512   -0.5937 H   0  0  0  0  0  0  0  0  0  0  0  0
    4.7986   -1.1736    1.0086 H   0  0  0  0  0  0  0  0  0  0  0  0
  1  2  2  0
  2  3  1  0
  3  4  1  0
  4  5  1  0
  5  6  2  0
  6  7  1  0
  7  8  2  0
  8  9  1  0
  8 10  1  0
 10 11  2  0
 11 12  1  0
  2 13  1  0
 13 14  1  0
 14 15  1  0
 15 16  1  0
 16 17  1  0
 17 18  1  0
 18 19  2  0
 11  5  1  0
 18 14  1  0
  3 20  1  0
  3 21  1  0
  6 22  1  0
  7 23  1  0
 10 24  1  0
 13 25  1  0
 14 26  1  0
 15 27  1  0
 15 28  1  0
 16 29  1  0
 16 30  1  0
M  END
$$$$
