
     RDKit          3D

 50 52  0  0  0  0  0  0  0  0999 V2000
   -5.6717   -2.5070   -2.4329 O   0  0  0  0  0  0  0  0  0  0  0  0
   -4.6035   -1.9051   -2.5057 C   0  0  0  0  0  0  0  0  0  0  0  0
   -3.4605   -2.3631   -3.4139 C   0  0  0  0  0  0  0  0  0  0  0  0
   -2.1924   -1.7973   -3.0638 O   0  0  0  0  0  0  0  0  0  0  0  0
   -1.5481   -2.4454   -2.0607 C   0  0  0  0  0  0  0  0  0  0  0  0
   -1.9479   -3.4365   -1.4736 O   0  0  0  0  0  0  0  0  0  0  0  0
   -0.2524   -1.7835   -1.7515 C   0  0  0  0  0  0  0  0  0  0  0  0
    0.0831   -0.5151   -2.2508 C   0  0  0  0  0  0  0  0  0  0  0  0
    1.3033    0.0751   -1.9089 C   0  0  0  0  0  0  0  0  0  0  0  0
    2.1871   -0.6090   -1.0708 C   0  0  0  0  0  0  0  0  0  0  0  0
    3.7314    0.1357   -0.6002 S   0  0  0  0  0  6  0  0  0  0  0  0
    3.7087    1.5296   -0.9945 O   0  0  0  0  0  0  0  0  0  0  0  0
    4.7819   -0.7547   -1.0438 O   0  0  0  0  0  0  0  0  0  0  0  0
    3.6601    0.0880    1.1043 N   0  0  0  0  0  0  0  0  0  0  0  0
    2.5811    0.8934    1.7453 C   0  0  0  0  0  0  0  0  0  0  0  0
    3.1462    2.0351    2.5791 C   0  0  0  0  0  0  0  0  0  0  0  0
    4.0695    1.5244    3.6836 C   0  0  0  0  0  0  0  0  0  0  0  0
    4.8267    0.2623    3.2724 C   0  0  0  0  0  0  0  0  0  0  0  0
    4.9933    0.1830    1.7608 C   0  0  0  0  0  0  0  0  0  0  0  0
    1.8691   -1.8763   -0.5746 C   0  0  0  0  0  0  0  0  0  0  0  0
    0.6465   -2.4587   -0.9115 C   0  0  0  0  0  0  0  0  0  0  0  0
   -4.3515   -0.7348   -1.8270 N   0  0  0  0  0  0  0  0  0  0  0  0
   -5.3792   -0.1050   -1.0331 C   0  0  0  0  0  0  0  0  0  0  0  0
   -4.7593    1.0064   -0.2738 C   0  0  0  0  0  0  0  0  0  0  0  0
   -4.2120    1.1085    0.9889 C   0  0  0  0  0  0  0  0  0  0  0  0
   -3.7579    2.4426    1.1209 C   0  0  0  0  0  0  0  0  0  0  0  0
   -4.0616    3.0700   -0.0649 C   0  0  0  0  0  0  0  0  0  0  0  0
   -4.6631    2.2054   -0.9209 O   0  0  0  0  0  0  0  0  0  0  0  0
   -3.6951   -2.0375   -4.4318 H   0  0  0  0  0  0  0  0  0  0  0  0
   -3.4169   -3.4574   -3.4165 H   0  0  0  0  0  0  0  0  0  0  0  0
   -0.5968    0.0286   -2.9019 H   0  0  0  0  0  0  0  0  0  0  0  0
    1.5547    1.0600   -2.2966 H   0  0  0  0  0  0  0  0  0  0  0  0
    1.9925    0.2153    2.3771 H   0  0  0  0  0  0  0  0  0  0  0  0
    1.8886    1.3011    1.0016 H   0  0  0  0  0  0  0  0  0  0  0  0
    2.3322    2.6208    3.0215 H   0  0  0  0  0  0  0  0  0  0  0  0
    3.7065    2.7186    1.9269 H   0  0  0  0  0  0  0  0  0  0  0  0
    4.7761    2.3190    3.9519 H   0  0  0  0  0  0  0  0  0  0  0  0
    3.4885    1.3101    4.5892 H   0  0  0  0  0  0  0  0  0  0  0  0
    4.2746   -0.6192    3.6230 H   0  0  0  0  0  0  0  0  0  0  0  0
    5.8036    0.2393    3.7681 H   0  0  0  0  0  0  0  0  0  0  0  0
    5.5735   -0.7142    1.5176 H   0  0  0  0  0  0  0  0  0  0  0  0
    5.5395    1.0586    1.3934 H   0  0  0  0  0  0  0  0  0  0  0  0
    2.5650   -2.4055    0.0726 H   0  0  0  0  0  0  0  0  0  0  0  0
    0.3979   -3.4436   -0.5175 H   0  0  0  0  0  0  0  0  0  0  0  0
   -3.5796   -0.1633   -2.1445 H   0  0  0  0  0  0  0  0  0  0  0  0
   -6.1561    0.2684   -1.7093 H   0  0  0  0  0  0  0  0  0  0  0  0
   -5.8335   -0.8458   -0.3673 H   0  0  0  0  0  0  0  0  0  0  0  0
   -4.1478    0.3115    1.7180 H   0  0  0  0  0  0  0  0  0  0  0  0
   -3.2730    2.8918    1.9767 H   0  0  0  0  0  0  0  0  0  0  0  0
   -3.9215    4.0754   -0.4390 H   0  0  0  0  0  0  0  0  0  0  0  0
  1  2  2  0
  2  3  1  0
  3  4  1  0
  4  5  1  0
  5  6  2  0
  5  7  1  0
  7  8  2  0
  8  9  1  0
  9 10  2  0
 10 11  1  0
 11 12  2  0
 11 13  2  0
 11 14  1  0
 14 15  1  0
 15 16  1  0
 16 17  1  0
 17 18  1  0
 18 19  1  0
 10 20  1  0
 20 21  2  0
  2 22  1  0
 22 23  1  0
 23 24  1  0
 24 25  2  0
 25 26  1  0
 26 27  2  0
 27 28  1  0
 21  7  1  0
 28 24  1  0
 19 14  1  0
  3 29  1  0
  3 30  1  0
  8 31  1  0
  9 32  1  0
 15 33  1  0
 15 34  1  0
 16 35  1  0
 16 36  1  0
 17 37  1  0
 17 38  1  0
 18 39  1  0
 18 40  1  0
 19 41  1  0
 19 42  1  0
 20 43  1  0
 21 44  1  0
 22 45  1  0
 23 46  1  0
 23 47  1  0
 25 48  1  0
 26 49  1  0
 27 50  1  0
M  END
$$$$
