
     RDKit          3D

 48 51  0  0  0  0  0  0  0  0999 V2000
    8.0377    2.4934   -0.6402 C   0  0  0  0  0  0  0  0  0  0  0  0
    6.8189    2.4501    0.2038 C   0  0  0  0  0  0  0  0  0  0  0  0
    5.5850    2.4898   -0.2531 N   0  0  0  0  0  0  0  0  0  0  0  0
    4.6542    2.4245    0.7652 N   0  0  0  0  0  0  0  0  0  0  0  0
    5.2202    2.3345    1.9489 C   0  0  0  0  0  0  0  0  0  0  0  0
    4.2857    2.2062    3.4160 S   0  0  0  0  0  0  0  0  0  0  0  0
    4.1281    0.3987    3.5302 C   0  0  0  0  0  0  0  0  0  0  0  0
    3.2910   -0.1815    2.4126 C   0  0  0  0  0  0  0  0  0  0  0  0
    3.8582   -0.9411    1.4643 C   0  0  0  0  0  0  0  0  0  0  0  0
    3.0017   -1.4771    0.4010 C   0  0  0  0  0  0  0  0  0  0  0  0
    3.4542   -2.2065   -0.4736 O   0  0  0  0  0  0  0  0  0  0  0  0
    1.6945   -1.1147    0.4861 N   0  0  0  0  0  0  0  0  0  0  0  0
    1.1821   -0.3517    1.5001 C   0  0  0  0  0  0  0  0  0  0  0  0
   -0.1426   -0.0540    1.5153 N   0  0  0  0  0  0  0  0  0  0  0  0
   -1.1264   -0.3783    0.6006 C   0  0  0  0  0  0  0  0  0  0  0  0
   -0.8434   -1.1721   -0.4442 N   0  0  0  0  0  0  0  0  0  0  0  0
   -1.8415   -1.4543   -1.3121 C   0  0  0  0  0  0  0  0  0  0  0  0
   -1.4649   -2.3471   -2.4601 C   0  0  0  0  0  0  0  0  0  0  0  0
   -3.1380   -0.9539   -1.1579 C   0  0  0  0  0  0  0  0  0  0  0  0
   -4.2269   -1.2074   -2.0288 C   0  0  0  0  0  0  0  0  0  0  0  0
   -5.4947   -0.6598   -1.7911 C   0  0  0  0  0  0  0  0  0  0  0  0
   -6.6194   -0.9480   -2.7475 C   0  0  0  0  0  0  0  0  0  0  0  0
   -5.6722    0.1674   -0.6721 C   0  0  0  0  0  0  0  0  0  0  0  0
   -7.0006    0.7986   -0.3589 C   0  0  0  0  0  0  0  0  0  0  0  0
   -4.5812    0.4015    0.1844 C   0  0  0  0  0  0  0  0  0  0  0  0
   -3.3221   -0.1422   -0.0371 C   0  0  0  0  0  0  0  0  0  0  0  0
   -2.3397    0.1378    0.8281 N   0  0  0  0  0  0  0  0  0  0  0  0
    1.9419    0.0957    2.4592 N   0  0  0  0  0  0  0  0  0  0  0  0
    6.9336    2.3438    1.9162 S   0  0  0  0  0  0  0  0  0  0  0  0
    8.6050    1.5589   -0.5535 H   0  0  0  0  0  0  0  0  0  0  0  0
    7.7724    2.6302   -1.6930 H   0  0  0  0  0  0  0  0  0  0  0  0
    8.6887    3.3216   -0.3454 H   0  0  0  0  0  0  0  0  0  0  0  0
    5.1301   -0.0451    3.5562 H   0  0  0  0  0  0  0  0  0  0  0  0
    3.6594    0.1593    4.4919 H   0  0  0  0  0  0  0  0  0  0  0  0
    4.9117   -1.1744    1.4170 H   0  0  0  0  0  0  0  0  0  0  0  0
    1.0607   -1.4500   -0.2297 H   0  0  0  0  0  0  0  0  0  0  0  0
   -0.4714    0.5598    2.2434 H   0  0  0  0  0  0  0  0  0  0  0  0
   -0.4073   -2.6270   -2.4037 H   0  0  0  0  0  0  0  0  0  0  0  0
   -1.6228   -1.8337   -3.4129 H   0  0  0  0  0  0  0  0  0  0  0  0
   -2.0551   -3.2680   -2.4365 H   0  0  0  0  0  0  0  0  0  0  0  0
   -4.0837   -1.8387   -2.9042 H   0  0  0  0  0  0  0  0  0  0  0  0
   -7.4902   -1.3382   -2.2099 H   0  0  0  0  0  0  0  0  0  0  0  0
   -6.9010   -0.0365   -3.2856 H   0  0  0  0  0  0  0  0  0  0  0  0
   -6.3332   -1.7009   -3.4891 H   0  0  0  0  0  0  0  0  0  0  0  0
   -7.3591    1.3802   -1.2147 H   0  0  0  0  0  0  0  0  0  0  0  0
   -6.9286    1.4842    0.4923 H   0  0  0  0  0  0  0  0  0  0  0  0
   -7.7361    0.0282   -0.1062 H   0  0  0  0  0  0  0  0  0  0  0  0
   -4.7133    1.0377    1.0591 H   0  0  0  0  0  0  0  0  0  0  0  0
  1  2  1  0
  2  3  2  0
  3  4  1  0
  4  5  2  0
  5  6  1  0
  6  7  1  0
  7  8  1  0
  8  9  2  0
  9 10  1  0
 10 11  2  0
 10 12  1  0
 12 13  1  0
 13 14  1  0
 14 15  1  0
 15 16  2  0
 16 17  1  0
 17 18  1  0
 17 19  2  0
 19 20  1  0
 20 21  2  0
 21 22  1  0
 21 23  1  0
 23 24  1  0
 23 25  2  0
 25 26  1  0
 26 27  2  0
 13 28  2  0
  5 29  1  0
 29  2  1  0
 28  8  1  0
 27 15  1  0
 26 19  1  0
  1 30  1  0
  1 31  1  0
  1 32  1  0
  7 33  1  0
  7 34  1  0
  9 35  1  0
 12 36  1  0
 14 37  1  0
 18 38  1  0
 18 39  1  0
 18 40  1  0
 20 41  1  0
 22 42  1  0
 22 43  1  0
 22 44  1  0
 24 45  1  0
 24 46  1  0
 24 47  1  0
 25 48  1  0
M  END
$$$$
