
     RDKit          3D

 45 47  0  0  0  0  0  0  0  0999 V2000
   -3.4854    1.0475   -1.6242 O   0  0  0  0  0  0  0  0  0  0  0  0
   -2.5869    0.8978   -0.8029 C   0  0  0  0  0  0  0  0  0  0  0  0
   -1.1750    1.4482   -1.0313 C   0  0  0  0  0  0  0  0  0  0  0  0
   -0.4774    0.6735   -2.0086 O   0  0  0  0  0  0  0  0  0  0  0  0
   -0.0433   -0.5380   -1.5610 C   0  0  0  0  0  0  0  0  0  0  0  0
   -0.1885   -0.9318   -0.4079 O   0  0  0  0  0  0  0  0  0  0  0  0
    0.5707   -1.3109   -2.7088 C   0  0  0  0  0  0  0  0  0  0  0  0
    1.9660   -2.3498   -2.1659 S   0  0  0  0  0  0  0  0  0  0  0  0
    3.1136   -1.0845   -1.6500 C   0  0  0  0  0  0  0  0  0  0  0  0
    3.6146   -0.1465   -2.5539 C   0  0  0  0  0  0  0  0  0  0  0  0
    4.5050    0.8387   -2.1241 C   0  0  0  0  0  0  0  0  0  0  0  0
    4.9178    0.8956   -0.7844 C   0  0  0  0  0  0  0  0  0  0  0  0
    5.8126    1.8793   -0.3358 C   0  0  0  0  0  0  0  0  0  0  0  0
    6.2200    1.9187    0.9994 C   0  0  0  0  0  0  0  0  0  0  0  0
    5.7419    0.9730    1.9011 C   0  0  0  0  0  0  0  0  0  0  0  0
    4.8548   -0.0140    1.4706 C   0  0  0  0  0  0  0  0  0  0  0  0
    4.4280   -0.0628    0.1323 C   0  0  0  0  0  0  0  0  0  0  0  0
    3.5300   -1.0460   -0.3148 C   0  0  0  0  0  0  0  0  0  0  0  0
   -2.7299    0.1962    0.3787 N   0  0  0  0  0  0  0  0  0  0  0  0
   -3.9451   -0.5464    0.6598 C   0  0  0  0  0  0  0  0  0  0  0  0
   -3.8987   -1.2101    2.0339 C   0  0  0  0  0  0  0  0  0  0  0  0
   -5.3612   -1.5043    2.3249 C   0  0  0  0  0  0  0  0  0  0  0  0
   -6.0822   -0.2568    1.8329 C   0  0  0  0  0  0  0  0  0  0  0  0
   -5.2180    0.3128    0.7070 C   0  0  0  0  0  0  0  0  0  0  0  0
   -0.6074    1.5012   -0.0905 H   0  0  0  0  0  0  0  0  0  0  0  0
   -1.2630    2.4775   -1.4056 H   0  0  0  0  0  0  0  0  0  0  0  0
    0.9132   -0.6225   -3.4881 H   0  0  0  0  0  0  0  0  0  0  0  0
   -0.2098   -1.9478   -3.1389 H   0  0  0  0  0  0  0  0  0  0  0  0
    3.3299   -0.1742   -3.6036 H   0  0  0  0  0  0  0  0  0  0  0  0
    4.8785    1.5603   -2.8447 H   0  0  0  0  0  0  0  0  0  0  0  0
    6.2039    2.6235   -1.0259 H   0  0  0  0  0  0  0  0  0  0  0  0
    6.9117    2.6868    1.3335 H   0  0  0  0  0  0  0  0  0  0  0  0
    6.0597    0.9999    2.9407 H   0  0  0  0  0  0  0  0  0  0  0  0
    4.4987   -0.7467    2.1876 H   0  0  0  0  0  0  0  0  0  0  0  0
    3.1448   -1.7853    0.3916 H   0  0  0  0  0  0  0  0  0  0  0  0
   -1.8653   -0.2491    0.6873 H   0  0  0  0  0  0  0  0  0  0  0  0
   -4.0527   -1.3138   -0.1172 H   0  0  0  0  0  0  0  0  0  0  0  0
   -3.4926   -0.5226    2.7844 H   0  0  0  0  0  0  0  0  0  0  0  0
   -3.2806   -2.1143    2.0387 H   0  0  0  0  0  0  0  0  0  0  0  0
   -5.5521   -1.6989    3.3846 H   0  0  0  0  0  0  0  0  0  0  0  0
   -5.6909   -2.3815    1.7533 H   0  0  0  0  0  0  0  0  0  0  0  0
   -7.0985   -0.4858    1.4949 H   0  0  0  0  0  0  0  0  0  0  0  0
   -6.1636    0.4782    2.6411 H   0  0  0  0  0  0  0  0  0  0  0  0
   -5.7498    0.2656   -0.2519 H   0  0  0  0  0  0  0  0  0  0  0  0
   -4.9976    1.3699    0.8993 H   0  0  0  0  0  0  0  0  0  0  0  0
  1  2  2  0
  2  3  1  0
  3  4  1  0
  4  5  1  0
  5  6  2  0
  5  7  1  0
  7  8  1  0
  8  9  1  0
  9 10  2  0
 10 11  1  0
 11 12  2  0
 12 13  1  0
 13 14  2  0
 14 15  1  0
 15 16  2  0
 16 17  1  0
 17 18  2  0
  2 19  1  0
 19 20  1  0
 20 21  1  0
 21 22  1  0
 22 23  1  0
 23 24  1  0
 18  9  1  0
 24 20  1  0
 17 12  1  0
  3 25  1  0
  3 26  1  0
  7 27  1  0
  7 28  1  0
 10 29  1  0
 11 30  1  0
 13 31  1  0
 14 32  1  0
 15 33  1  0
 16 34  1  0
 18 35  1  0
 19 36  1  0
 20 37  1  0
 21 38  1  0
 21 39  1  0
 22 40  1  0
 22 41  1  0
 23 42  1  0
 23 43  1  0
 24 44  1  0
 24 45  1  0
M  END
$$$$
