
     RDKit          3D

 31 33  0  0  0  0  0  0  0  0999 V2000
    1.7588   -1.6211   -0.0365 O   0  0  0  0  0  0  0  0  0  0  0  0
    2.2484   -0.5017   -0.1531 C   0  0  0  0  0  0  0  0  0  0  0  0
    1.5572    0.5817   -0.6608 N   0  0  0  0  0  0  0  0  0  0  0  0
    0.1760    0.4345   -0.8488 N   0  0  0  0  0  0  0  0  0  0  0  0
   -0.6697    0.6999    0.2138 C   0  0  0  0  0  0  0  0  0  0  0  0
   -0.3457    1.1718    1.2961 O   0  0  0  0  0  0  0  0  0  0  0  0
   -2.0673    0.3628   -0.1804 C   0  0  0  0  0  0  0  0  0  0  0  0
   -3.0755    0.5444    0.6838 C   0  0  0  0  0  0  0  0  0  0  0  0
   -4.4496    0.2762    0.4174 C   0  0  0  0  0  0  0  0  0  0  0  0
   -5.0670   -0.7768   -0.2375 C   0  0  0  0  0  0  0  0  0  0  0  0
   -6.4877   -0.6607   -0.2724 C   0  0  0  0  0  0  0  0  0  0  0  0
   -6.9260    0.4707    0.3731 C   0  0  0  0  0  0  0  0  0  0  0  0
   -5.6341    1.3770    1.0230 S   0  0  0  0  0  0  0  0  0  0  0  0
   -2.1077   -0.1862   -1.8163 S   0  0  0  0  0  0  0  0  0  0  0  0
   -0.3669   -0.0294   -2.0281 C   0  0  0  0  0  0  0  0  0  0  0  0
    0.4190   -0.3592   -3.4619 S   0  0  0  0  0  0  0  0  0  0  0  0
    3.6585   -0.2698    0.2225 C   0  0  0  0  0  0  0  0  0  0  0  0
    4.5892   -1.3000    0.0746 C   0  0  0  0  0  0  0  0  0  0  0  0
    5.9184   -1.0774    0.4264 C   0  0  0  0  0  0  0  0  0  0  0  0
    6.2673    0.1695    0.9212 C   0  0  0  0  0  0  0  0  0  0  0  0
    5.3879    1.1822    1.0920 N   0  0  0  0  0  0  0  0  0  0  0  0
    4.0995    0.9351    0.7524 C   0  0  0  0  0  0  0  0  0  0  0  0
    1.9275    1.5221   -0.7185 H   0  0  0  0  0  0  0  0  0  0  0  0
   -2.8460    0.9588    1.6659 H   0  0  0  0  0  0  0  0  0  0  0  0
   -4.5295   -1.6107   -0.6731 H   0  0  0  0  0  0  0  0  0  0  0  0
   -7.1516   -1.3762   -0.7420 H   0  0  0  0  0  0  0  0  0  0  0  0
   -7.9458    0.8062    0.5032 H   0  0  0  0  0  0  0  0  0  0  0  0
    4.2825   -2.2686   -0.3142 H   0  0  0  0  0  0  0  0  0  0  0  0
    6.6631   -1.8586    0.3182 H   0  0  0  0  0  0  0  0  0  0  0  0
    7.2920    0.3916    1.2073 H   0  0  0  0  0  0  0  0  0  0  0  0
    3.4247    1.7617    0.9527 H   0  0  0  0  0  0  0  0  0  0  0  0
  1  2  2  0
  2  3  1  0
  3  4  1  0
  4  5  1  0
  5  6  2  0
  5  7  1  0
  7  8  2  3
  8  9  1  0
  9 10  2  0
 10 11  1  0
 11 12  2  0
 12 13  1  0
  7 14  1  0
 14 15  1  0
 15 16  2  0
  2 17  1  0
 17 18  2  0
 18 19  1  0
 19 20  2  0
 20 21  1  0
 21 22  2  0
 15  4  1  0
 22 17  1  0
 13  9  1  0
  3 23  1  0
  8 24  1  0
 10 25  1  0
 11 26  1  0
 12 27  1  0
 18 28  1  0
 19 29  1  0
 20 30  1  0
 22 31  1  0
M  END
$$$$
