
     RDKit          3D

 52 55  0  0  0  0  0  0  0  0999 V2000
   -5.9562   -1.5250   -0.7845 C   0  0  0  0  0  0  0  0  0  0  0  0
   -5.2095   -1.0268    0.4437 C   0  0  0  0  0  0  0  0  0  0  0  0
   -4.8967    0.4696    0.3394 C   0  0  0  0  0  0  0  0  0  0  0  0
   -4.2202    1.0277    1.5954 C   0  0  0  0  0  0  0  0  0  0  0  0
   -2.8313    0.5253    1.7833 C   0  0  0  0  0  0  0  0  0  0  0  0
   -2.5383   -0.4840    2.5860 N   0  0  0  0  0  0  0  0  0  0  0  0
   -1.1867   -0.6768    2.5734 N   0  0  0  0  0  0  0  0  0  0  0  0
   -0.6694    0.2062    1.7505 C   0  0  0  0  0  0  0  0  0  0  0  0
    0.7132    0.4068    1.4073 C   0  0  0  0  0  0  0  0  0  0  0  0
    1.6954   -0.4388    1.9920 N   0  0  0  0  0  0  0  0  0  0  0  0
    1.4068   -1.8053    2.4843 C   0  0  0  0  0  0  0  0  0  0  0  0
    3.3387   -0.0017    2.0317 S   0  0  0  0  0  6  0  0  0  0  0  0
    3.4997    1.4314    1.9064 O   0  0  0  0  0  0  0  0  0  0  0  0
    3.9603   -0.6956    3.1449 O   0  0  0  0  0  0  0  0  0  0  0  0
    3.9550   -0.7466    0.5330 C   0  0  0  0  0  0  0  0  0  0  0  0
    4.5935   -1.9889    0.5819 C   0  0  0  0  0  0  0  0  0  0  0  0
    5.0863   -2.5579   -0.5949 C   0  0  0  0  0  0  0  0  0  0  0  0
    4.9478   -1.8902   -1.8192 C   0  0  0  0  0  0  0  0  0  0  0  0
    5.5074   -2.4862   -3.0769 C   0  0  0  0  0  0  0  0  0  0  0  0
    4.3393   -0.6279   -1.8476 C   0  0  0  0  0  0  0  0  0  0  0  0
    3.8451   -0.0536   -0.6747 C   0  0  0  0  0  0  0  0  0  0  0  0
    1.0408    1.3361    0.5674 N   0  0  0  0  0  0  0  0  0  0  0  0
    0.0407    2.1602    0.0133 C   0  0  0  0  0  0  0  0  0  0  0  0
    0.4537    3.1642   -0.8659 C   0  0  0  0  0  0  0  0  0  0  0  0
   -0.4764    4.0138   -1.4620 C   0  0  0  0  0  0  0  0  0  0  0  0
   -1.8322    3.8616   -1.1832 C   0  0  0  0  0  0  0  0  0  0  0  0
   -2.2671    2.8670   -0.3029 C   0  0  0  0  0  0  0  0  0  0  0  0
   -1.3342    2.0215    0.3006 C   0  0  0  0  0  0  0  0  0  0  0  0
   -1.6608    0.9959    1.2144 N   0  0  0  0  0  0  0  0  0  0  0  0
   -6.9087   -0.9985   -0.9048 H   0  0  0  0  0  0  0  0  0  0  0  0
   -5.3626   -1.3759   -1.6923 H   0  0  0  0  0  0  0  0  0  0  0  0
   -6.1696   -2.5945   -0.6901 H   0  0  0  0  0  0  0  0  0  0  0  0
   -5.8175   -1.2193    1.3352 H   0  0  0  0  0  0  0  0  0  0  0  0
   -4.2831   -1.6022    0.5503 H   0  0  0  0  0  0  0  0  0  0  0  0
   -4.2769    0.6477   -0.5477 H   0  0  0  0  0  0  0  0  0  0  0  0
   -5.8359    1.0160    0.1874 H   0  0  0  0  0  0  0  0  0  0  0  0
   -4.2366    2.1212    1.5952 H   0  0  0  0  0  0  0  0  0  0  0  0
   -4.8153    0.7419    2.4733 H   0  0  0  0  0  0  0  0  0  0  0  0
    1.0080   -1.7594    3.5015 H   0  0  0  0  0  0  0  0  0  0  0  0
    0.6920   -2.3053    1.8236 H   0  0  0  0  0  0  0  0  0  0  0  0
    2.2932   -2.4454    2.4987 H   0  0  0  0  0  0  0  0  0  0  0  0
    4.7186   -2.5157    1.5252 H   0  0  0  0  0  0  0  0  0  0  0  0
    5.5860   -3.5239   -0.5501 H   0  0  0  0  0  0  0  0  0  0  0  0
    5.5181   -3.5795   -3.0223 H   0  0  0  0  0  0  0  0  0  0  0  0
    6.5297   -2.1315   -3.2373 H   0  0  0  0  0  0  0  0  0  0  0  0
    4.8956   -2.2104   -3.9422 H   0  0  0  0  0  0  0  0  0  0  0  0
    4.2525   -0.0807   -2.7837 H   0  0  0  0  0  0  0  0  0  0  0  0
    3.3840    0.9314   -0.7088 H   0  0  0  0  0  0  0  0  0  0  0  0
    1.5138    3.2859   -1.0803 H   0  0  0  0  0  0  0  0  0  0  0  0
   -0.1416    4.7930   -2.1418 H   0  0  0  0  0  0  0  0  0  0  0  0
   -2.5561    4.5248   -1.6537 H   0  0  0  0  0  0  0  0  0  0  0  0
   -3.3325    2.7985   -0.1345 H   0  0  0  0  0  0  0  0  0  0  0  0
  1  2  1  0
  2  3  1  0
  3  4  1  0
  4  5  1  0
  5  6  2  0
  6  7  1  0
  7  8  2  0
  8  9  1  0
  9 10  1  0
 10 11  1  0
 10 12  1  0
 12 13  2  0
 12 14  2  0
 12 15  1  0
 15 16  2  0
 16 17  1  0
 17 18  2  0
 18 19  1  0
 18 20  1  0
 20 21  2  0
  9 22  2  0
 22 23  1  0
 23 24  2  0
 24 25  1  0
 25 26  2  0
 26 27  1  0
 27 28  2  0
 28 29  1  0
 29  5  1  0
 29  8  1  0
 21 15  1  0
 28 23  1  0
  1 30  1  0
  1 31  1  0
  1 32  1  0
  2 33  1  0
  2 34  1  0
  3 35  1  0
  3 36  1  0
  4 37  1  0
  4 38  1  0
 11 39  1  0
 11 40  1  0
 11 41  1  0
 16 42  1  0
 17 43  1  0
 19 44  1  0
 19 45  1  0
 19 46  1  0
 20 47  1  0
 21 48  1  0
 24 49  1  0
 25 50  1  0
 26 51  1  0
 27 52  1  0
M  END
$$$$
