
     RDKit          3D

 38 40  0  0  0  0  0  0  0  0999 V2000
   -5.4589    2.2813   -0.1035 C   0  0  0  0  0  0  0  0  0  0  0  0
   -4.1169    1.8162   -0.1884 O   0  0  0  0  0  0  0  0  0  0  0  0
   -3.9257    0.4627   -0.1460 C   0  0  0  0  0  0  0  0  0  0  0  0
   -4.9253   -0.5028   -0.0200 C   0  0  0  0  0  0  0  0  0  0  0  0
   -4.5911   -1.8593   -0.0081 C   0  0  0  0  0  0  0  0  0  0  0  0
   -3.2597   -2.2501   -0.1122 C   0  0  0  0  0  0  0  0  0  0  0  0
   -3.0185   -3.5974   -0.1227 O   0  0  0  0  0  0  0  0  0  0  0  0
   -2.2420   -1.2920   -0.2014 C   0  0  0  0  0  0  0  0  0  0  0  0
   -0.8283   -1.7356   -0.2886 C   0  0  0  0  0  0  0  0  0  0  0  0
   -0.5882   -2.8483   -0.7577 O   0  0  0  0  0  0  0  0  0  0  0  0
    0.3000   -0.9103    0.1846 C   0  0  0  0  0  0  0  0  0  0  0  0
    0.2246   -0.1423    1.3388 C   0  0  0  0  0  0  0  0  0  0  0  0
    1.2499    0.6071    1.8113 N   0  0  0  0  0  0  0  0  0  0  0  0
    2.4013    0.5742    1.1099 C   0  0  0  0  0  0  0  0  0  0  0  0
    2.5879   -0.1848   -0.0322 C   0  0  0  0  0  0  0  0  0  0  0  0
    1.5170   -0.9518   -0.4977 C   0  0  0  0  0  0  0  0  0  0  0  0
    3.9424   -0.2284   -0.6529 C   0  0  0  0  0  0  0  0  0  0  0  0
    4.7751    0.9049   -0.2913 N   0  0  0  0  0  0  0  0  0  0  0  0
    6.0377    1.0408   -0.9931 C   0  0  0  0  0  0  0  0  0  0  0  0
    4.6228    1.5486    0.9218 C   0  0  0  0  0  0  0  0  0  0  0  0
    5.4671    2.3015    1.4025 O   0  0  0  0  0  0  0  0  0  0  0  0
    3.4483    1.3437    1.5765 N   0  0  0  0  0  0  0  0  0  0  0  0
   -2.5871    0.0648   -0.2427 C   0  0  0  0  0  0  0  0  0  0  0  0
   -6.0561    1.9190   -0.9468 H   0  0  0  0  0  0  0  0  0  0  0  0
   -5.9131    2.0017    0.8528 H   0  0  0  0  0  0  0  0  0  0  0  0
   -5.4377    3.3741   -0.1554 H   0  0  0  0  0  0  0  0  0  0  0  0
   -5.9745   -0.2372    0.0593 H   0  0  0  0  0  0  0  0  0  0  0  0
   -5.3706   -2.6130    0.0727 H   0  0  0  0  0  0  0  0  0  0  0  0
   -2.0855   -3.7334   -0.4039 H   0  0  0  0  0  0  0  0  0  0  0  0
   -0.6720   -0.1075    1.9520 H   0  0  0  0  0  0  0  0  0  0  0  0
    1.6288   -1.5832   -1.3766 H   0  0  0  0  0  0  0  0  0  0  0  0
    4.4600   -1.1409   -0.3345 H   0  0  0  0  0  0  0  0  0  0  0  0
    3.8460   -0.2365   -1.7447 H   0  0  0  0  0  0  0  0  0  0  0  0
    6.7013    0.2275   -0.6845 H   0  0  0  0  0  0  0  0  0  0  0  0
    5.8604    0.9849   -2.0709 H   0  0  0  0  0  0  0  0  0  0  0  0
    6.5175    1.9967   -0.7649 H   0  0  0  0  0  0  0  0  0  0  0  0
    3.2946    1.8681    2.4244 H   0  0  0  0  0  0  0  0  0  0  0  0
   -1.8319    0.8371   -0.3672 H   0  0  0  0  0  0  0  0  0  0  0  0
  1  2  1  0
  2  3  1  0
  3  4  2  0
  4  5  1  0
  5  6  2  0
  6  7  1  0
  6  8  1  0
  8  9  1  0
  9 10  2  0
  9 11  1  0
 11 12  2  0
 12 13  1  0
 13 14  2  0
 14 15  1  0
 15 16  2  0
 15 17  1  0
 17 18  1  0
 18 19  1  0
 18 20  1  0
 20 21  2  0
 20 22  1  0
  8 23  2  0
 23  3  1  0
 16 11  1  0
 22 14  1  0
  1 24  1  0
  1 25  1  0
  1 26  1  0
  4 27  1  0
  5 28  1  0
  7 29  1  0
 12 30  1  0
 16 31  1  0
 17 32  1  0
 17 33  1  0
 19 34  1  0
 19 35  1  0
 19 36  1  0
 22 37  1  0
 23 38  1  0
M  END
$$$$
