
     RDKit          3D

 54 56  0  0  0  0  0  0  0  0999 V2000
   -4.5925   -2.2184    1.2554 C   0  0  0  0  0  0  0  0  0  0  0  0
   -3.7781   -1.4302    2.2637 C   0  0  0  0  0  0  0  0  0  0  0  0
   -2.5150   -1.0585    1.6965 O   0  0  0  0  0  0  0  0  0  0  0  0
   -2.4982    0.1010    0.9759 C   0  0  0  0  0  0  0  0  0  0  0  0
   -3.4784    0.8161    0.8025 O   0  0  0  0  0  0  0  0  0  0  0  0
   -1.1689    0.4028    0.4527 C   0  0  0  0  0  0  0  0  0  0  0  0
   -0.9711    0.9146   -0.8223 C   0  0  0  0  0  0  0  0  0  0  0  0
   -1.8545    1.1780   -1.8222 N   0  0  0  0  0  0  0  0  0  0  0  0
   -2.5448    2.2617   -1.6710 C   0  0  0  0  0  0  0  0  0  0  0  0
   -3.5038    2.7428   -2.5380 N   0  0  0  0  0  0  0  0  0  0  0  0
   -4.4570    3.7359   -2.0666 C   0  0  0  0  0  0  0  0  0  0  0  0
   -3.9672    1.8863   -3.6218 C   0  0  0  0  0  0  0  0  0  0  0  0
    0.6965    1.1368   -1.1512 S   0  0  0  0  0  0  0  0  0  0  0  0
    1.1839    0.5594    0.3763 C   0  0  0  0  0  0  0  0  0  0  0  0
    2.5834    0.5389    0.7671 C   0  0  0  0  0  0  0  0  0  0  0  0
    3.6519    0.2893    0.0641 N   0  0  0  0  0  0  0  0  0  0  0  0
    3.5300   -0.0233   -1.2483 N   0  0  0  0  0  0  0  0  0  0  0  0
    4.6180   -0.6102   -1.9223 C   0  0  0  0  0  0  0  0  0  0  0  0
    5.8991   -0.6844   -1.3610 C   0  0  0  0  0  0  0  0  0  0  0  0
    6.9687   -1.2319   -2.0755 C   0  0  0  0  0  0  0  0  0  0  0  0
    6.7745   -1.6963   -3.3738 C   0  0  0  0  0  0  0  0  0  0  0  0
    5.5140   -1.6056   -3.9589 C   0  0  0  0  0  0  0  0  0  0  0  0
    4.4469   -1.0586   -3.2400 C   0  0  0  0  0  0  0  0  0  0  0  0
    0.0862    0.2153    1.1516 C   0  0  0  0  0  0  0  0  0  0  0  0
    0.2483   -0.2659    2.5194 C   0  0  0  0  0  0  0  0  0  0  0  0
   -0.1323    0.5469    3.5945 C   0  0  0  0  0  0  0  0  0  0  0  0
    0.0123    0.0848    4.9049 C   0  0  0  0  0  0  0  0  0  0  0  0
    0.5344   -1.1869    5.1383 C   0  0  0  0  0  0  0  0  0  0  0  0
    0.7084   -1.7546    6.7527 Cl  0  0  0  0  0  0  0  0  0  0  0  0
    0.9141   -2.0021    4.0732 C   0  0  0  0  0  0  0  0  0  0  0  0
    0.7700   -1.5432    2.7618 C   0  0  0  0  0  0  0  0  0  0  0  0
   -4.0336   -3.0948    0.9114 H   0  0  0  0  0  0  0  0  0  0  0  0
   -4.8133   -1.6143    0.3697 H   0  0  0  0  0  0  0  0  0  0  0  0
   -5.5366   -2.5519    1.6949 H   0  0  0  0  0  0  0  0  0  0  0  0
   -3.5646   -2.0576    3.1354 H   0  0  0  0  0  0  0  0  0  0  0  0
   -4.3264   -0.5534    2.6268 H   0  0  0  0  0  0  0  0  0  0  0  0
   -2.4121    2.9199   -0.7895 H   0  0  0  0  0  0  0  0  0  0  0  0
   -3.9543    4.5152   -1.4838 H   0  0  0  0  0  0  0  0  0  0  0  0
   -5.2179    3.2650   -1.4357 H   0  0  0  0  0  0  0  0  0  0  0  0
   -4.9571    4.2307   -2.9060 H   0  0  0  0  0  0  0  0  0  0  0  0
   -4.5876    1.0738   -3.2291 H   0  0  0  0  0  0  0  0  0  0  0  0
   -4.5606    2.4546   -4.3462 H   0  0  0  0  0  0  0  0  0  0  0  0
   -3.1226    1.4530   -4.1684 H   0  0  0  0  0  0  0  0  0  0  0  0
    2.7757    0.7312    1.8372 H   0  0  0  0  0  0  0  0  0  0  0  0
    2.6161   -0.2309   -1.6474 H   0  0  0  0  0  0  0  0  0  0  0  0
    6.0704   -0.3126   -0.3541 H   0  0  0  0  0  0  0  0  0  0  0  0
    7.9515   -1.2879   -1.6161 H   0  0  0  0  0  0  0  0  0  0  0  0
    7.6060   -2.1187   -3.9312 H   0  0  0  0  0  0  0  0  0  0  0  0
    5.3601   -1.9533   -4.9767 H   0  0  0  0  0  0  0  0  0  0  0  0
    3.4754   -0.9821   -3.7210 H   0  0  0  0  0  0  0  0  0  0  0  0
   -0.5411    1.5405    3.4232 H   0  0  0  0  0  0  0  0  0  0  0  0
   -0.2838    0.7189    5.7367 H   0  0  0  0  0  0  0  0  0  0  0  0
    1.3187   -2.9944    4.2554 H   0  0  0  0  0  0  0  0  0  0  0  0
    1.0586   -2.1914    1.9364 H   0  0  0  0  0  0  0  0  0  0  0  0
  1  2  1  0
  2  3  1  0
  3  4  1  0
  4  5  2  0
  4  6  1  0
  6  7  2  0
  7  8  1  0
  8  9  2  3
  9 10  1  0
 10 11  1  0
 10 12  1  0
  7 13  1  0
 13 14  1  0
 14 15  1  0
 15 16  2  3
 16 17  1  0
 17 18  1  0
 18 19  2  0
 19 20  1  0
 20 21  2  0
 21 22  1  0
 22 23  2  0
 14 24  2  0
 24 25  1  0
 25 26  2  0
 26 27  1  0
 27 28  2  0
 28 29  1  0
 28 30  1  0
 30 31  2  0
 24  6  1  0
 31 25  1  0
 23 18  1  0
  1 32  1  0
  1 33  1  0
  1 34  1  0
  2 35  1  0
  2 36  1  0
  9 37  1  0
 11 38  1  0
 11 39  1  0
 11 40  1  0
 12 41  1  0
 12 42  1  0
 12 43  1  0
 15 44  1  0
 17 45  1  0
 19 46  1  0
 20 47  1  0
 21 48  1  0
 22 49  1  0
 23 50  1  0
 26 51  1  0
 27 52  1  0
 30 53  1  0
 31 54  1  0
M  END
$$$$
