
     RDKit          3D

 46 48  0  0  0  0  0  0  0  0999 V2000
   -1.7409   -1.4666    2.6225 O   0  0  0  0  0  0  0  0  0  0  0  0
   -0.7827   -0.9601    2.0461 C   0  0  0  0  0  0  0  0  0  0  0  0
    0.6052   -1.0307    2.6654 C   0  0  0  0  0  0  0  0  0  0  0  0
    1.7084   -1.4108    1.6721 C   0  0  0  0  0  0  0  0  0  0  0  0
    2.0027   -0.3632    0.6656 N   0  0  0  0  0  0  0  0  0  0  0  0
    2.7141    0.7958    1.2196 C   0  0  0  0  0  0  0  0  0  0  0  0
    4.2096    0.6424    1.5125 C   0  0  0  0  0  0  0  0  0  0  0  0
    5.1001    0.2704    0.3245 C   0  0  0  0  0  0  0  0  0  0  0  0
    4.5614    0.7149   -1.0326 C   0  0  0  0  0  0  0  0  0  0  0  0
    3.2902   -0.0047   -1.5083 C   0  0  0  0  0  0  0  0  0  0  0  0
    2.6420   -0.9735   -0.5129 C   0  0  0  0  0  0  0  0  0  0  0  0
   -0.8177   -0.2429    0.8679 N   0  0  0  0  0  0  0  0  0  0  0  0
   -1.9291    0.0590    0.0603 C   0  0  0  0  0  0  0  0  0  0  0  0
   -1.6757    0.7617   -1.1270 C   0  0  0  0  0  0  0  0  0  0  0  0
   -2.7203    1.1133   -1.9858 C   0  0  0  0  0  0  0  0  0  0  0  0
   -4.0274    0.7661   -1.6609 C   0  0  0  0  0  0  0  0  0  0  0  0
   -4.2858    0.0429   -0.4927 C   0  0  0  0  0  0  0  0  0  0  0  0
   -3.2429   -0.2961    0.3731 C   0  0  0  0  0  0  0  0  0  0  0  0
   -5.5463   -0.3604   -0.1269 O   0  0  0  0  0  0  0  0  0  0  0  0
   -6.4598   -0.2780   -1.2257 C   0  0  0  0  0  0  0  0  0  0  0  0
   -6.3074    1.0498   -1.9481 C   0  0  0  0  0  0  0  0  0  0  0  0
   -5.0059    1.1607   -2.5367 O   0  0  0  0  0  0  0  0  0  0  0  0
    0.8047   -0.0867    3.1811 H   0  0  0  0  0  0  0  0  0  0  0  0
    0.5703   -1.8095    3.4376 H   0  0  0  0  0  0  0  0  0  0  0  0
    2.6198   -1.6816    2.2180 H   0  0  0  0  0  0  0  0  0  0  0  0
    1.3728   -2.3214    1.1566 H   0  0  0  0  0  0  0  0  0  0  0  0
    2.2228    1.1328    2.1396 H   0  0  0  0  0  0  0  0  0  0  0  0
    2.5680    1.6424    0.5365 H   0  0  0  0  0  0  0  0  0  0  0  0
    4.3693   -0.0797    2.3221 H   0  0  0  0  0  0  0  0  0  0  0  0
    4.5610    1.6064    1.9051 H   0  0  0  0  0  0  0  0  0  0  0  0
    5.2822   -0.8109    0.3190 H   0  0  0  0  0  0  0  0  0  0  0  0
    6.0869    0.7250    0.4807 H   0  0  0  0  0  0  0  0  0  0  0  0
    5.3448    0.5592   -1.7852 H   0  0  0  0  0  0  0  0  0  0  0  0
    4.3829    1.7974   -1.0186 H   0  0  0  0  0  0  0  0  0  0  0  0
    3.5450   -0.5755   -2.4109 H   0  0  0  0  0  0  0  0  0  0  0  0
    2.5532    0.7393   -1.8367 H   0  0  0  0  0  0  0  0  0  0  0  0
    1.8598   -1.5200   -1.0565 H   0  0  0  0  0  0  0  0  0  0  0  0
    3.3782   -1.7310   -0.2158 H   0  0  0  0  0  0  0  0  0  0  0  0
    0.0955    0.0500    0.5157 H   0  0  0  0  0  0  0  0  0  0  0  0
   -0.6614    1.0477   -1.3958 H   0  0  0  0  0  0  0  0  0  0  0  0
   -2.5153    1.6665   -2.8980 H   0  0  0  0  0  0  0  0  0  0  0  0
   -3.4862   -0.8448    1.2771 H   0  0  0  0  0  0  0  0  0  0  0  0
   -7.4730   -0.3767   -0.8234 H   0  0  0  0  0  0  0  0  0  0  0  0
   -6.2749   -1.1249   -1.8983 H   0  0  0  0  0  0  0  0  0  0  0  0
   -6.4553    1.8975   -1.2673 H   0  0  0  0  0  0  0  0  0  0  0  0
   -7.0431    1.1277   -2.7547 H   0  0  0  0  0  0  0  0  0  0  0  0
  1  2  2  0
  2  3  1  0
  3  4  1  0
  4  5  1  0
  5  6  1  0
  6  7  1  0
  7  8  1  0
  8  9  1  0
  9 10  1  0
 10 11  1  0
  2 12  1  0
 12 13  1  0
 13 14  2  0
 14 15  1  0
 15 16  2  0
 16 17  1  0
 17 18  2  0
 17 19  1  0
 19 20  1  0
 20 21  1  0
 21 22  1  0
 11  5  1  0
 18 13  1  0
 22 16  1  0
  3 23  1  0
  3 24  1  0
  4 25  1  0
  4 26  1  0
  6 27  1  0
  6 28  1  0
  7 29  1  0
  7 30  1  0
  8 31  1  0
  8 32  1  0
  9 33  1  0
  9 34  1  0
 10 35  1  0
 10 36  1  0
 11 37  1  0
 11 38  1  0
 12 39  1  0
 14 40  1  0
 15 41  1  0
 18 42  1  0
 20 43  1  0
 20 44  1  0
 21 45  1  0
 21 46  1  0
M  END
$$$$
