
     RDKit          3D

 46 48  0  0  0  0  0  0  0  0999 V2000
    4.1450   -1.1769   -2.6560 C   0  0  0  0  0  0  0  0  0  0  0  0
    3.9890   -2.1786   -1.6615 O   0  0  0  0  0  0  0  0  0  0  0  0
    5.0472   -2.1844   -0.7034 C   0  0  0  0  0  0  0  0  0  0  0  0
    4.5311   -1.7702    0.6818 C   0  0  0  0  0  0  0  0  0  0  0  0
    4.1234   -0.3612    0.7415 N   0  0  0  0  0  0  0  0  0  0  0  0
    2.7732   -0.0521    0.6423 C   0  0  0  0  0  0  0  0  0  0  0  0
    1.8635   -0.8644    0.5738 O   0  0  0  0  0  0  0  0  0  0  0  0
    2.5817    1.4278    0.6579 C   0  0  0  0  0  0  0  0  0  0  0  0
    1.4376    2.1195    0.5586 C   0  0  0  0  0  0  0  0  0  0  0  0
    0.0895    1.5623    0.3976 C   0  0  0  0  0  0  0  0  0  0  0  0
   -0.2736    0.9865   -0.8214 C   0  0  0  0  0  0  0  0  0  0  0  0
   -1.5657    0.4821   -1.0167 C   0  0  0  0  0  0  0  0  0  0  0  0
   -2.5449    0.5341   -0.0163 C   0  0  0  0  0  0  0  0  0  0  0  0
   -3.8145    0.0439   -0.2171 N   0  0  0  0  0  0  0  0  0  0  0  0
   -4.1974   -0.7788   -1.3634 C   0  0  0  0  0  0  0  0  0  0  0  0
   -5.5230   -1.4100   -0.9424 C   0  0  0  0  0  0  0  0  0  0  0  0
   -6.1159   -0.3761   -0.0018 C   0  0  0  0  0  0  0  0  0  0  0  0
   -4.8946    0.1283    0.7616 C   0  0  0  0  0  0  0  0  0  0  0  0
   -2.1590    1.1274    1.1974 C   0  0  0  0  0  0  0  0  0  0  0  0
   -0.8631    1.6381    1.4242 C   0  0  0  0  0  0  0  0  0  0  0  0
   -0.5407    2.2517    2.7594 C   0  0  0  0  0  0  0  0  0  0  0  0
    4.1085    2.2110    0.8454 S   0  0  0  0  0  0  0  0  0  0  0  0
    4.9956    0.6963    0.8798 C   0  0  0  0  0  0  0  0  0  0  0  0
    6.6548    0.6510    1.0551 S   0  0  0  0  0  0  0  0  0  0  0  0
    3.2806   -1.2174   -3.3240 H   0  0  0  0  0  0  0  0  0  0  0  0
    4.1896   -0.1826   -2.2029 H   0  0  0  0  0  0  0  0  0  0  0  0
    5.0489   -1.3638   -3.2437 H   0  0  0  0  0  0  0  0  0  0  0  0
    5.4098   -3.2162   -0.6425 H   0  0  0  0  0  0  0  0  0  0  0  0
    5.8887   -1.5646   -1.0312 H   0  0  0  0  0  0  0  0  0  0  0  0
    5.3139   -1.9417    1.4281 H   0  0  0  0  0  0  0  0  0  0  0  0
    3.6777   -2.4023    0.9514 H   0  0  0  0  0  0  0  0  0  0  0  0
    1.4533    3.2068    0.6059 H   0  0  0  0  0  0  0  0  0  0  0  0
    0.4424    0.9153   -1.6361 H   0  0  0  0  0  0  0  0  0  0  0  0
   -1.7905    0.0484   -1.9865 H   0  0  0  0  0  0  0  0  0  0  0  0
   -3.4659   -1.5626   -1.5882 H   0  0  0  0  0  0  0  0  0  0  0  0
   -4.3357   -0.1465   -2.2476 H   0  0  0  0  0  0  0  0  0  0  0  0
   -5.3378   -2.3449   -0.3997 H   0  0  0  0  0  0  0  0  0  0  0  0
   -6.1701   -1.6324   -1.7953 H   0  0  0  0  0  0  0  0  0  0  0  0
   -6.8818   -0.7903    0.6596 H   0  0  0  0  0  0  0  0  0  0  0  0
   -6.5641    0.4414   -0.5794 H   0  0  0  0  0  0  0  0  0  0  0  0
   -4.6830   -0.5233    1.6174 H   0  0  0  0  0  0  0  0  0  0  0  0
   -5.0635    1.1510    1.1151 H   0  0  0  0  0  0  0  0  0  0  0  0
   -2.8784    1.1921    2.0093 H   0  0  0  0  0  0  0  0  0  0  0  0
    0.3151    1.7449    3.2169 H   0  0  0  0  0  0  0  0  0  0  0  0
   -1.3807    2.1650    3.4569 H   0  0  0  0  0  0  0  0  0  0  0  0
   -0.3162    3.3167    2.6430 H   0  0  0  0  0  0  0  0  0  0  0  0
  1  2  1  0
  2  3  1  0
  3  4  1  0
  4  5  1  0
  5  6  1  0
  6  7  2  0
  6  8  1  0
  8  9  2  3
  9 10  1  0
 10 11  2  0
 11 12  1  0
 12 13  2  0
 13 14  1  0
 14 15  1  0
 15 16  1  0
 16 17  1  0
 17 18  1  0
 13 19  1  0
 19 20  2  0
 20 21  1  0
  8 22  1  0
 22 23  1  0
 23 24  2  0
 23  5  1  0
 20 10  1  0
 18 14  1  0
  1 25  1  0
  1 26  1  0
  1 27  1  0
  3 28  1  0
  3 29  1  0
  4 30  1  0
  4 31  1  0
  9 32  1  0
 11 33  1  0
 12 34  1  0
 15 35  1  0
 15 36  1  0
 16 37  1  0
 16 38  1  0
 17 39  1  0
 17 40  1  0
 18 41  1  0
 18 42  1  0
 19 43  1  0
 21 44  1  0
 21 45  1  0
 21 46  1  0
M  END
$$$$
