
     RDKit          3D

 47 50  0  0  0  0  0  0  0  0999 V2000
    5.6734   -2.6142    0.1673 C   0  0  0  0  0  0  0  0  0  0  0  0
    4.5969   -1.8744    0.4649 C   0  0  0  0  0  0  0  0  0  0  0  0
    4.6160   -0.3835    0.6644 C   0  0  0  0  0  0  0  0  0  0  0  0
    4.0019    0.2543   -0.4915 N   0  0  0  0  0  0  0  0  0  0  0  0
    4.8390    0.6827   -1.5015 C   0  0  0  0  0  0  0  0  0  0  0  0
    6.0646    0.5799   -1.4816 O   0  0  0  0  0  0  0  0  0  0  0  0
    4.2509    1.2681   -2.5814 N   0  0  0  0  0  0  0  0  0  0  0  0
    2.9235    1.4751   -2.7945 C   0  0  0  0  0  0  0  0  0  0  0  0
    2.5296    2.0100   -3.8260 O   0  0  0  0  0  0  0  0  0  0  0  0
    2.0307    1.0131   -1.7089 C   0  0  0  0  0  0  0  0  0  0  0  0
    0.7106    1.1957   -1.9178 C   0  0  0  0  0  0  0  0  0  0  0  0
   -0.3943    0.8261   -1.0303 C   0  0  0  0  0  0  0  0  0  0  0  0
   -0.8676   -0.4855   -0.9906 C   0  0  0  0  0  0  0  0  0  0  0  0
   -1.9359   -0.8337   -0.1469 C   0  0  0  0  0  0  0  0  0  0  0  0
   -2.5728    0.1412    0.6471 C   0  0  0  0  0  0  0  0  0  0  0  0
   -2.0953    1.4661    0.5854 C   0  0  0  0  0  0  0  0  0  0  0  0
   -1.0062    1.7975   -0.2385 C   0  0  0  0  0  0  0  0  0  0  0  0
   -2.7233    2.5426    1.4336 C   0  0  0  0  0  0  0  0  0  0  0  0
   -4.1505    2.1796    1.8174 C   0  0  0  0  0  0  0  0  0  0  0  0
   -4.1801    0.7789    2.4082 C   0  0  0  0  0  0  0  0  0  0  0  0
   -3.6448   -0.1931    1.4644 N   0  0  0  0  0  0  0  0  0  0  0  0
   -4.2000   -1.5402    1.4472 C   0  0  0  0  0  0  0  0  0  0  0  0
   -3.1185   -2.5774    1.1896 C   0  0  0  0  0  0  0  0  0  0  0  0
   -2.4111   -2.2636   -0.1206 C   0  0  0  0  0  0  0  0  0  0  0  0
    2.6189    0.3964   -0.4878 C   0  0  0  0  0  0  0  0  0  0  0  0
    1.9282    0.0390    0.4631 O   0  0  0  0  0  0  0  0  0  0  0  0
    6.6525   -2.1642    0.0263 H   0  0  0  0  0  0  0  0  0  0  0  0
    5.5942   -3.6905    0.0487 H   0  0  0  0  0  0  0  0  0  0  0  0
    3.6354   -2.3669    0.6006 H   0  0  0  0  0  0  0  0  0  0  0  0
    5.6403   -0.0191    0.8036 H   0  0  0  0  0  0  0  0  0  0  0  0
    4.0648   -0.1339    1.5782 H   0  0  0  0  0  0  0  0  0  0  0  0
    4.8766    1.5743   -3.3127 H   0  0  0  0  0  0  0  0  0  0  0  0
    0.3614    1.6678   -2.8367 H   0  0  0  0  0  0  0  0  0  0  0  0
   -0.4001   -1.2506   -1.6054 H   0  0  0  0  0  0  0  0  0  0  0  0
   -0.6446    2.8228   -0.2605 H   0  0  0  0  0  0  0  0  0  0  0  0
   -2.1132    2.6766    2.3352 H   0  0  0  0  0  0  0  0  0  0  0  0
   -2.7337    3.4953    0.8912 H   0  0  0  0  0  0  0  0  0  0  0  0
   -4.5415    2.9055    2.5386 H   0  0  0  0  0  0  0  0  0  0  0  0
   -4.7964    2.2204    0.9306 H   0  0  0  0  0  0  0  0  0  0  0  0
   -5.2159    0.5276    2.6658 H   0  0  0  0  0  0  0  0  0  0  0  0
   -3.5984    0.7415    3.3374 H   0  0  0  0  0  0  0  0  0  0  0  0
   -4.6838   -1.7660    2.4051 H   0  0  0  0  0  0  0  0  0  0  0  0
   -4.9760   -1.5986    0.6743 H   0  0  0  0  0  0  0  0  0  0  0  0
   -2.3951   -2.5703    2.0154 H   0  0  0  0  0  0  0  0  0  0  0  0
   -3.5564   -3.5808    1.1492 H   0  0  0  0  0  0  0  0  0  0  0  0
   -3.0909   -2.4232   -0.9664 H   0  0  0  0  0  0  0  0  0  0  0  0
   -1.5629   -2.9482   -0.2378 H   0  0  0  0  0  0  0  0  0  0  0  0
  1  2  2  0
  2  3  1  0
  3  4  1  0
  4  5  1  0
  5  6  2  0
  5  7  1  0
  7  8  1  0
  8  9  2  0
  8 10  1  0
 10 11  2  3
 11 12  1  0
 12 13  2  0
 13 14  1  0
 14 15  2  0
 15 16  1  0
 16 17  2  0
 16 18  1  0
 18 19  1  0
 19 20  1  0
 20 21  1  0
 21 22  1  0
 22 23  1  0
 23 24  1  0
 10 25  1  0
 25 26  2  0
 25  4  1  0
 17 12  1  0
 24 14  1  0
 21 15  1  0
  1 27  1  0
  1 28  1  0
  2 29  1  0
  3 30  1  0
  3 31  1  0
  7 32  1  0
 11 33  1  0
 13 34  1  0
 17 35  1  0
 18 36  1  0
 18 37  1  0
 19 38  1  0
 19 39  1  0
 20 40  1  0
 20 41  1  0
 22 42  1  0
 22 43  1  0
 23 44  1  0
 23 45  1  0
 24 46  1  0
 24 47  1  0
M  END
$$$$
