
     RDKit          3D

 46 49  0  0  0  0  0  0  0  0999 V2000
    6.2224    1.3884   -0.0951 C   0  0  0  0  0  0  0  0  0  0  0  0
    5.4431    0.1753    0.0658 N   0  0  0  0  0  0  0  0  0  0  0  0
    5.2955   -0.5856   -1.1753 C   0  0  0  0  0  0  0  0  0  0  0  0
    4.0979   -1.4960   -0.9269 C   0  0  0  0  0  0  0  0  0  0  0  0
    3.5744   -1.0916    0.4445 C   0  0  0  0  0  0  0  0  0  0  0  0
    4.0992    0.3280    0.6512 C   0  0  0  0  0  0  0  0  0  0  0  0
    3.2328    1.4382    0.0145 C   0  0  0  0  0  0  0  0  0  0  0  0
    1.8476    1.5880    0.6558 C   0  0  0  0  0  0  0  0  0  0  0  0
    0.8839    0.6909    0.0273 N   0  0  0  0  0  0  0  0  0  0  0  0
   -0.4537    0.7013    0.4290 C   0  0  0  0  0  0  0  0  0  0  0  0
   -0.8916    1.1762    1.6643 C   0  0  0  0  0  0  0  0  0  0  0  0
   -2.2391    1.0869    2.0356 C   0  0  0  0  0  0  0  0  0  0  0  0
   -3.1877    0.4933    1.1923 C   0  0  0  0  0  0  0  0  0  0  0  0
   -4.8599    0.4500    1.7710 S   0  0  0  0  0  0  0  0  0  0  0  0
   -5.7059   -0.4646    0.5114 C   0  0  0  0  0  0  0  0  0  0  0  0
   -7.0680   -0.7330    0.7311 C   0  0  0  0  0  0  0  0  0  0  0  0
   -7.8250   -1.4396   -0.2055 C   0  0  0  0  0  0  0  0  0  0  0  0
   -7.2296   -1.8873   -1.3781 C   0  0  0  0  0  0  0  0  0  0  0  0
   -5.8793   -1.6269   -1.6085 C   0  0  0  0  0  0  0  0  0  0  0  0
   -5.1108   -0.9169   -0.6672 C   0  0  0  0  0  0  0  0  0  0  0  0
   -3.6825   -0.6805   -0.9818 C   0  0  0  0  0  0  0  0  0  0  0  0
   -3.2470   -1.0486   -2.0723 O   0  0  0  0  0  0  0  0  0  0  0  0
   -2.7608   -0.0206   -0.0284 C   0  0  0  0  0  0  0  0  0  0  0  0
   -1.4019    0.0751   -0.3909 C   0  0  0  0  0  0  0  0  0  0  0  0
    6.2973    1.9272    0.8555 H   0  0  0  0  0  0  0  0  0  0  0  0
    5.8053    2.0666   -0.8472 H   0  0  0  0  0  0  0  0  0  0  0  0
    7.2452    1.1412   -0.4002 H   0  0  0  0  0  0  0  0  0  0  0  0
    6.1984   -1.1665   -1.3899 H   0  0  0  0  0  0  0  0  0  0  0  0
    5.0926    0.0615   -2.0375 H   0  0  0  0  0  0  0  0  0  0  0  0
    4.3747   -2.5550   -0.9441 H   0  0  0  0  0  0  0  0  0  0  0  0
    3.3315   -1.3315   -1.6927 H   0  0  0  0  0  0  0  0  0  0  0  0
    2.4916   -1.2004    0.5210 H   0  0  0  0  0  0  0  0  0  0  0  0
    4.0110   -1.7574    1.2018 H   0  0  0  0  0  0  0  0  0  0  0  0
    4.1926    0.5289    1.7255 H   0  0  0  0  0  0  0  0  0  0  0  0
    3.1406    1.2990   -1.0694 H   0  0  0  0  0  0  0  0  0  0  0  0
    3.7480    2.3956    0.1633 H   0  0  0  0  0  0  0  0  0  0  0  0
    1.5106    2.6219    0.5108 H   0  0  0  0  0  0  0  0  0  0  0  0
    1.9216    1.4022    1.7330 H   0  0  0  0  0  0  0  0  0  0  0  0
    0.9672    0.6597   -0.9877 H   0  0  0  0  0  0  0  0  0  0  0  0
   -0.2005    1.6251    2.3711 H   0  0  0  0  0  0  0  0  0  0  0  0
   -2.5356    1.4840    3.0052 H   0  0  0  0  0  0  0  0  0  0  0  0
   -7.5565   -0.3901    1.6420 H   0  0  0  0  0  0  0  0  0  0  0  0
   -8.8774   -1.6376   -0.0173 H   0  0  0  0  0  0  0  0  0  0  0  0
   -7.8109   -2.4377   -2.1137 H   0  0  0  0  0  0  0  0  0  0  0  0
   -5.4235   -1.9831   -2.5314 H   0  0  0  0  0  0  0  0  0  0  0  0
   -1.0781   -0.3539   -1.3385 H   0  0  0  0  0  0  0  0  0  0  0  0
  1  2  1  0
  2  3  1  0
  3  4  1  0
  4  5  1  0
  5  6  1  0
  6  7  1  0
  7  8  1  0
  8  9  1  0
  9 10  1  0
 10 11  2  0
 11 12  1  0
 12 13  2  0
 13 14  1  0
 14 15  1  0
 15 16  2  0
 16 17  1  0
 17 18  2  0
 18 19  1  0
 19 20  2  0
 20 21  1  0
 21 22  2  0
 21 23  1  0
 23 24  2  0
  6  2  1  0
 24 10  1  0
 23 13  1  0
 20 15  1  0
  1 25  1  0
  1 26  1  0
  1 27  1  0
  3 28  1  0
  3 29  1  0
  4 30  1  0
  4 31  1  0
  5 32  1  0
  5 33  1  0
  6 34  1  0
  7 35  1  0
  7 36  1  0
  8 37  1  0
  8 38  1  0
  9 39  1  0
 11 40  1  0
 12 41  1  0
 16 42  1  0
 17 43  1  0
 18 44  1  0
 19 45  1  0
 24 46  1  0
M  END
$$$$
