
     RDKit          3D

 51 53  0  0  0  0  0  0  0  0999 V2000
   -5.4044   -2.4663   -1.8291 C   0  0  0  0  0  0  0  0  0  0  0  0
   -4.3702   -1.6023   -2.2764 O   0  0  0  0  0  0  0  0  0  0  0  0
   -3.5064   -1.0985   -1.3356 C   0  0  0  0  0  0  0  0  0  0  0  0
   -3.5521   -1.4085    0.0273 C   0  0  0  0  0  0  0  0  0  0  0  0
   -2.6273   -0.8494    0.9240 C   0  0  0  0  0  0  0  0  0  0  0  0
   -1.6159    0.0065    0.4529 C   0  0  0  0  0  0  0  0  0  0  0  0
   -1.5998    0.3408   -0.9154 C   0  0  0  0  0  0  0  0  0  0  0  0
   -2.5205   -0.2151   -1.8115 C   0  0  0  0  0  0  0  0  0  0  0  0
   -2.5450    0.0505   -3.1588 O   0  0  0  0  0  0  0  0  0  0  0  0
   -1.4662    0.7991   -3.7017 C   0  0  0  0  0  0  0  0  0  0  0  0
   -0.6016    0.6315    1.4176 C   0  0  0  0  0  0  0  0  0  0  0  0
    0.8323    0.6648    0.8852 C   0  0  0  0  0  0  0  0  0  0  0  0
    1.5943    1.8413    1.0113 C   0  0  0  0  0  0  0  0  0  0  0  0
    2.9100    1.8975    0.5449 C   0  0  0  0  0  0  0  0  0  0  0  0
    3.7217    3.0002    0.6177 O   0  0  0  0  0  0  0  0  0  0  0  0
    3.1637    4.1921    1.1522 C   0  0  0  0  0  0  0  0  0  0  0  0
    3.4717    0.7493   -0.0391 C   0  0  0  0  0  0  0  0  0  0  0  0
    4.7520    0.8087   -0.5471 O   0  0  0  0  0  0  0  0  0  0  0  0
    5.6861    0.4203    0.4586 C   0  0  0  0  0  0  0  0  0  0  0  0
    2.7300   -0.4343   -0.1849 C   0  0  0  0  0  0  0  0  0  0  0  0
    3.3697   -1.4888   -0.7842 O   0  0  0  0  0  0  0  0  0  0  0  0
    2.5580   -2.5691   -1.2257 C   0  0  0  0  0  0  0  0  0  0  0  0
    1.4221   -0.4740    0.3014 C   0  0  0  0  0  0  0  0  0  0  0  0
   -0.5771   -0.0017    2.7502 N   0  0  0  0  0  0  0  0  0  0  0  0
   -1.9358   -0.2013    3.2539 C   0  0  0  0  0  0  0  0  0  0  0  0
   -2.7052   -1.2013    2.3886 C   0  0  0  0  0  0  0  0  0  0  0  0
   -6.0699   -1.9560   -1.1250 H   0  0  0  0  0  0  0  0  0  0  0  0
   -4.9924   -3.3822   -1.3932 H   0  0  0  0  0  0  0  0  0  0  0  0
   -6.0009   -2.7532   -2.7006 H   0  0  0  0  0  0  0  0  0  0  0  0
   -4.3046   -2.0834    0.4225 H   0  0  0  0  0  0  0  0  0  0  0  0
   -0.8487    1.0431   -1.2651 H   0  0  0  0  0  0  0  0  0  0  0  0
   -1.4779    1.8290   -3.3306 H   0  0  0  0  0  0  0  0  0  0  0  0
   -0.5043    0.3154   -3.5010 H   0  0  0  0  0  0  0  0  0  0  0  0
   -1.5985    0.8367   -4.7873 H   0  0  0  0  0  0  0  0  0  0  0  0
   -0.9364    1.6698    1.5548 H   0  0  0  0  0  0  0  0  0  0  0  0
    1.1337    2.7012    1.4880 H   0  0  0  0  0  0  0  0  0  0  0  0
    3.9311    4.9708    1.1055 H   0  0  0  0  0  0  0  0  0  0  0  0
    2.8879    4.0608    2.2036 H   0  0  0  0  0  0  0  0  0  0  0  0
    2.3094    4.5315    0.5573 H   0  0  0  0  0  0  0  0  0  0  0  0
    6.6886    0.4792    0.0240 H   0  0  0  0  0  0  0  0  0  0  0  0
    5.6520    1.0969    1.3195 H   0  0  0  0  0  0  0  0  0  0  0  0
    5.5195   -0.6129    0.7822 H   0  0  0  0  0  0  0  0  0  0  0  0
    2.1717   -3.1392   -0.3746 H   0  0  0  0  0  0  0  0  0  0  0  0
    3.1884   -3.2409   -1.8161 H   0  0  0  0  0  0  0  0  0  0  0  0
    1.7444   -2.2222   -1.8719 H   0  0  0  0  0  0  0  0  0  0  0  0
    0.8328   -1.3835    0.2337 H   0  0  0  0  0  0  0  0  0  0  0  0
   -0.1193   -0.9076    2.6596 H   0  0  0  0  0  0  0  0  0  0  0  0
   -2.4634    0.7599    3.2999 H   0  0  0  0  0  0  0  0  0  0  0  0
   -1.8845   -0.5778    4.2816 H   0  0  0  0  0  0  0  0  0  0  0  0
   -3.7517   -1.2190    2.7149 H   0  0  0  0  0  0  0  0  0  0  0  0
   -2.2914   -2.2082    2.5247 H   0  0  0  0  0  0  0  0  0  0  0  0
  1  2  1  0
  2  3  1  0
  3  4  2  0
  4  5  1  0
  5  6  2  0
  6  7  1  0
  7  8  2  0
  8  9  1  0
  9 10  1  0
  6 11  1  0
 11 12  1  0
 12 13  2  0
 13 14  1  0
 14 15  1  0
 15 16  1  0
 14 17  2  0
 17 18  1  0
 18 19  1  0
 17 20  1  0
 20 21  1  0
 21 22  1  0
 20 23  2  0
 11 24  1  0
 24 25  1  0
 25 26  1  0
  8  3  1  0
 23 12  1  0
 26  5  1  0
  1 27  1  0
  1 28  1  0
  1 29  1  0
  4 30  1  0
  7 31  1  0
 10 32  1  0
 10 33  1  0
 10 34  1  0
 11 35  1  0
 13 36  1  0
 16 37  1  0
 16 38  1  0
 16 39  1  0
 19 40  1  0
 19 41  1  0
 19 42  1  0
 22 43  1  0
 22 44  1  0
 22 45  1  0
 23 46  1  0
 24 47  1  0
 25 48  1  0
 25 49  1  0
 26 50  1  0
 26 51  1  0
M  END
$$$$
