
     RDKit          3D

 52 54  0  0  0  0  0  0  0  0999 V2000
    2.5192   -0.7854   -0.8074 O   0  0  0  0  0  0  0  0  0  0  0  0
    1.8065   -0.8518    0.1861 C   0  0  0  0  0  0  0  0  0  0  0  0
    1.8537   -1.8016    1.1876 N   0  0  0  0  0  0  0  0  0  0  0  0
    2.7163   -2.9075    1.2962 C   0  0  0  0  0  0  0  0  0  0  0  0
    2.5668   -3.7257    2.4239 C   0  0  0  0  0  0  0  0  0  0  0  0
    3.3818   -4.8464    2.6048 C   0  0  0  0  0  0  0  0  0  0  0  0
    4.3559   -5.1576    1.6604 C   0  0  0  0  0  0  0  0  0  0  0  0
    4.5127   -4.3485    0.5367 C   0  0  0  0  0  0  0  0  0  0  0  0
    3.6954   -3.2281    0.3544 C   0  0  0  0  0  0  0  0  0  0  0  0
    0.7191    0.1626    0.4528 C   0  0  0  0  0  0  0  0  0  0  0  0
    0.5333    1.1604   -0.4278 C   0  0  0  0  0  0  0  0  0  0  0  0
   -0.5027    2.2315   -0.2295 C   0  0  0  0  0  0  0  0  0  0  0  0
    0.0112    3.6276   -0.5469 C   0  0  0  0  0  0  0  0  0  0  0  0
   -0.7389    4.4725   -1.3796 C   0  0  0  0  0  0  0  0  0  0  0  0
   -0.2956    5.7644   -1.6688 C   0  0  0  0  0  0  0  0  0  0  0  0
    0.9008    6.2298   -1.1283 C   0  0  0  0  0  0  0  0  0  0  0  0
    1.6544    5.4052   -0.2968 C   0  0  0  0  0  0  0  0  0  0  0  0
    1.2125    4.1135   -0.0052 C   0  0  0  0  0  0  0  0  0  0  0  0
   -1.0710    2.1799    1.1943 C   0  0  0  0  0  0  0  0  0  0  0  0
   -1.2763    0.7292    1.6158 C   0  0  0  0  0  0  0  0  0  0  0  0
   -2.2713    0.1325    0.7814 O   0  0  0  0  0  0  0  0  0  0  0  0
   -2.6818   -1.1487    1.2403 C   0  0  0  0  0  0  0  0  0  0  0  0
   -3.7335   -1.7264    0.2955 C   0  0  0  0  0  0  0  0  0  0  0  0
   -3.1748   -2.1643   -1.0664 C   0  0  0  0  0  0  0  0  0  0  0  0
   -2.8401   -1.0258   -2.0250 C   0  0  0  0  0  0  0  0  0  0  0  0
   -3.9953   -0.2493   -2.3140 O   0  0  0  0  0  0  0  0  0  0  0  0
   -0.0416   -0.0013    1.6009 O   0  0  0  0  0  0  0  0  0  0  0  0
    1.1794   -1.6694    1.9332 H   0  0  0  0  0  0  0  0  0  0  0  0
    1.8132   -3.5046    3.1750 H   0  0  0  0  0  0  0  0  0  0  0  0
    3.2557   -5.4750    3.4826 H   0  0  0  0  0  0  0  0  0  0  0  0
    4.9929   -6.0275    1.7973 H   0  0  0  0  0  0  0  0  0  0  0  0
    5.2718   -4.5859   -0.2047 H   0  0  0  0  0  0  0  0  0  0  0  0
    3.8504   -2.6254   -0.5351 H   0  0  0  0  0  0  0  0  0  0  0  0
    1.1415    1.2169   -1.3289 H   0  0  0  0  0  0  0  0  0  0  0  0
   -1.3121    2.0003   -0.9366 H   0  0  0  0  0  0  0  0  0  0  0  0
   -1.6772    4.1291   -1.8109 H   0  0  0  0  0  0  0  0  0  0  0  0
   -0.8848    6.4073   -2.3170 H   0  0  0  0  0  0  0  0  0  0  0  0
    1.2462    7.2342   -1.3562 H   0  0  0  0  0  0  0  0  0  0  0  0
    2.5885    5.7664    0.1248 H   0  0  0  0  0  0  0  0  0  0  0  0
    1.8169    3.4870    0.6473 H   0  0  0  0  0  0  0  0  0  0  0  0
   -2.0197    2.7297    1.2299 H   0  0  0  0  0  0  0  0  0  0  0  0
   -0.3826    2.6596    1.9031 H   0  0  0  0  0  0  0  0  0  0  0  0
   -1.6415    0.7241    2.6503 H   0  0  0  0  0  0  0  0  0  0  0  0
   -3.1198   -1.0443    2.2399 H   0  0  0  0  0  0  0  0  0  0  0  0
   -1.8227   -1.8256    1.3054 H   0  0  0  0  0  0  0  0  0  0  0  0
   -4.1693   -2.6104    0.7771 H   0  0  0  0  0  0  0  0  0  0  0  0
   -4.5440   -1.0033    0.1504 H   0  0  0  0  0  0  0  0  0  0  0  0
   -2.2879   -2.7918   -0.9205 H   0  0  0  0  0  0  0  0  0  0  0  0
   -3.9378   -2.7942   -1.5415 H   0  0  0  0  0  0  0  0  0  0  0  0
   -2.4631   -1.4318   -2.9700 H   0  0  0  0  0  0  0  0  0  0  0  0
   -2.0665   -0.3668   -1.6265 H   0  0  0  0  0  0  0  0  0  0  0  0
   -4.6443   -0.8394   -2.7317 H   0  0  0  0  0  0  0  0  0  0  0  0
  1  2  2  0
  2  3  1  0
  3  4  1  0
  4  5  2  0
  5  6  1  0
  6  7  2  0
  7  8  1  0
  8  9  2  0
  2 10  1  0
 10 11  2  0
 11 12  1  0
 12 13  1  0
 13 14  2  0
 14 15  1  0
 15 16  2  0
 16 17  1  0
 17 18  2  0
 12 19  1  0
 19 20  1  0
 20 21  1  0
 21 22  1  0
 22 23  1  0
 23 24  1  0
 24 25  1  0
 25 26  1  0
 20 27  1  0
  9  4  1  0
 27 10  1  0
 18 13  1  0
  3 28  1  0
  5 29  1  0
  6 30  1  0
  7 31  1  0
  8 32  1  0
  9 33  1  0
 11 34  1  0
 12 35  1  0
 14 36  1  0
 15 37  1  0
 16 38  1  0
 17 39  1  0
 18 40  1  0
 19 41  1  0
 19 42  1  0
 20 43  1  0
 22 44  1  0
 22 45  1  0
 23 46  1  0
 23 47  1  0
 24 48  1  0
 24 49  1  0
 25 50  1  0
 25 51  1  0
 26 52  1  0
M  END
$$$$
