
     RDKit          3D

 39 41  0  0  0  0  0  0  0  0999 V2000
   -6.7497    1.5888   -1.6418 C   0  0  0  0  0  0  0  0  0  0  0  0
   -5.4050    1.8274   -2.0380 O   0  0  0  0  0  0  0  0  0  0  0  0
   -4.4299    1.1540   -1.3563 C   0  0  0  0  0  0  0  0  0  0  0  0
   -3.1255    1.4551   -1.7521 C   0  0  0  0  0  0  0  0  0  0  0  0
   -2.0284    0.8429   -1.1374 C   0  0  0  0  0  0  0  0  0  0  0  0
   -2.2272   -0.0975   -0.1219 C   0  0  0  0  0  0  0  0  0  0  0  0
   -1.1136   -0.7356    0.5109 N   0  0  0  0  0  0  0  0  0  0  0  0
   -1.0986   -2.0208    1.0709 C   0  0  0  0  0  0  0  0  0  0  0  0
   -2.0734   -2.9200    0.9278 O   0  0  0  0  0  0  0  0  0  0  0  0
    0.1011   -2.1987    1.7276 C   0  0  0  0  0  0  0  0  0  0  0  0
    0.8958   -1.0758    1.4590 C   0  0  0  0  0  0  0  0  0  0  0  0
    2.1727   -0.8889    1.8666 N   0  0  0  0  0  0  0  0  0  0  0  0
    3.1120   -0.2312    1.0334 N   0  0  0  0  0  0  0  0  0  0  0  0
    4.4545   -0.5350    1.2642 C   0  0  0  0  0  0  0  0  0  0  0  0
    4.7947   -1.1772    2.2591 O   0  0  0  0  0  0  0  0  0  0  0  0
    5.3663   -0.0644    0.2386 C   0  0  0  0  0  0  0  0  0  0  0  0
    5.2038    0.7347   -0.8821 C   0  0  0  0  0  0  0  0  0  0  0  0
    6.4752    0.8444   -1.4987 C   0  0  0  0  0  0  0  0  0  0  0  0
    7.3394    0.1118   -0.7229 C   0  0  0  0  0  0  0  0  0  0  0  0
    6.6821   -0.4395    0.3270 O   0  0  0  0  0  0  0  0  0  0  0  0
    0.1479   -0.1785    0.7270 C   0  0  0  0  0  0  0  0  0  0  0  0
    0.4767    1.0634    0.3644 O   0  0  0  0  0  0  0  0  0  0  0  0
   -3.5372   -0.3917    0.2837 C   0  0  0  0  0  0  0  0  0  0  0  0
   -4.6316    0.2301   -0.3325 C   0  0  0  0  0  0  0  0  0  0  0  0
   -7.0292    0.5425   -1.8048 H   0  0  0  0  0  0  0  0  0  0  0  0
   -7.3981    2.2082   -2.2690 H   0  0  0  0  0  0  0  0  0  0  0  0
   -6.9133    1.8847   -0.6002 H   0  0  0  0  0  0  0  0  0  0  0  0
   -2.9591    2.1778   -2.5478 H   0  0  0  0  0  0  0  0  0  0  0  0
   -1.0342    1.0987   -1.4928 H   0  0  0  0  0  0  0  0  0  0  0  0
   -2.5829   -2.7049    0.1258 H   0  0  0  0  0  0  0  0  0  0  0  0
    0.3812   -3.0925    2.2682 H   0  0  0  0  0  0  0  0  0  0  0  0
    2.6309   -1.6105    2.4411 H   0  0  0  0  0  0  0  0  0  0  0  0
    2.8112   -0.0976    0.0720 H   0  0  0  0  0  0  0  0  0  0  0  0
    4.2860    1.1964   -1.2179 H   0  0  0  0  0  0  0  0  0  0  0  0
    6.7316    1.3927   -2.3946 H   0  0  0  0  0  0  0  0  0  0  0  0
    8.3975   -0.1053   -0.7770 H   0  0  0  0  0  0  0  0  0  0  0  0
    1.2384    1.2916    0.9350 H   0  0  0  0  0  0  0  0  0  0  0  0
   -3.7365   -1.0602    1.1191 H   0  0  0  0  0  0  0  0  0  0  0  0
   -5.6257   -0.0196    0.0237 H   0  0  0  0  0  0  0  0  0  0  0  0
  1  2  1  0
  2  3  1  0
  3  4  2  0
  4  5  1  0
  5  6  2  0
  6  7  1  0
  7  8  1  0
  8  9  1  0
  8 10  2  0
 10 11  1  0
 11 12  1  0
 12 13  1  0
 13 14  1  0
 14 15  2  0
 14 16  1  0
 16 17  2  0
 17 18  1  0
 18 19  2  0
 19 20  1  0
 11 21  2  0
 21 22  1  0
  6 23  1  0
 23 24  2  0
 24  3  1  0
 21  7  1  0
 20 16  1  0
  1 25  1  0
  1 26  1  0
  1 27  1  0
  4 28  1  0
  5 29  1  0
  9 30  1  0
 10 31  1  0
 12 32  1  0
 13 33  1  0
 17 34  1  0
 18 35  1  0
 19 36  1  0
 22 37  1  0
 23 38  1  0
 24 39  1  0
M  END
$$$$
