
     RDKit          3D

 43 44  0  0  0  0  0  0  0  0999 V2000
   -5.0669    2.9754    1.2634 C   0  0  0  0  0  0  0  0  0  0  0  0
   -5.2226    1.4837    1.4913 C   0  0  0  0  0  0  0  0  0  0  0  0
   -4.1721    0.7704    0.8260 O   0  0  0  0  0  0  0  0  0  0  0  0
   -3.0234    0.5912    1.5466 C   0  0  0  0  0  0  0  0  0  0  0  0
   -2.8336    1.0676    2.6612 O   0  0  0  0  0  0  0  0  0  0  0  0
   -2.0168   -0.1801    0.7986 C   0  0  0  0  0  0  0  0  0  0  0  0
   -0.7057    0.0409    0.9754 N   0  0  0  0  0  0  0  0  0  0  0  0
   -0.0666   -0.7104    0.0481 N   0  0  0  0  0  0  0  0  0  0  0  0
    1.3351   -0.5064   -0.1465 C   0  0  0  0  0  0  0  0  0  0  0  0
    2.0608    0.1986    0.8290 C   0  0  0  0  0  0  0  0  0  0  0  0
    3.4348    0.4298    0.6804 C   0  0  0  0  0  0  0  0  0  0  0  0
    4.1035   -0.0287   -0.4504 C   0  0  0  0  0  0  0  0  0  0  0  0
    5.4308    0.1277   -0.7309 O   0  0  0  0  0  0  0  0  0  0  0  0
    6.2828    0.6933    0.2642 C   0  0  0  0  0  0  0  0  0  0  0  0
    6.3372    2.2053    0.1317 C   0  0  0  0  0  0  0  0  0  0  0  0
    3.3791   -0.7031   -1.4355 C   0  0  0  0  0  0  0  0  0  0  0  0
    2.0057   -0.9389   -1.2932 C   0  0  0  0  0  0  0  0  0  0  0  0
   -0.9513   -1.5859   -0.5754 C   0  0  0  0  0  0  0  0  0  0  0  0
   -0.5463   -2.7532   -1.4048 C   0  0  0  0  0  0  0  0  0  0  0  0
   -2.2256   -1.2016   -0.1677 C   0  0  0  0  0  0  0  0  0  0  0  0
   -3.5030   -1.7852   -0.5579 C   0  0  0  0  0  0  0  0  0  0  0  0
   -3.7162   -2.1761   -1.9984 C   0  0  0  0  0  0  0  0  0  0  0  0
   -4.3899   -1.9781    0.2722 O   0  0  0  0  0  0  0  0  0  0  0  0
   -5.8959    3.5257    1.7174 H   0  0  0  0  0  0  0  0  0  0  0  0
   -5.0388    3.1996    0.1920 H   0  0  0  0  0  0  0  0  0  0  0  0
   -4.1283    3.3427    1.6900 H   0  0  0  0  0  0  0  0  0  0  0  0
   -6.1668    1.1421    1.0544 H   0  0  0  0  0  0  0  0  0  0  0  0
   -5.2582    1.2415    2.5597 H   0  0  0  0  0  0  0  0  0  0  0  0
    1.5704    0.5718    1.7280 H   0  0  0  0  0  0  0  0  0  0  0  0
    3.9401    0.9806    1.4663 H   0  0  0  0  0  0  0  0  0  0  0  0
    7.2859    0.2944    0.0744 H   0  0  0  0  0  0  0  0  0  0  0  0
    6.0197    0.3705    1.2775 H   0  0  0  0  0  0  0  0  0  0  0  0
    5.3561    2.6582    0.3023 H   0  0  0  0  0  0  0  0  0  0  0  0
    6.6456    2.4900   -0.8798 H   0  0  0  0  0  0  0  0  0  0  0  0
    7.0461    2.6306    0.8478 H   0  0  0  0  0  0  0  0  0  0  0  0
    3.8905   -1.0410   -2.3346 H   0  0  0  0  0  0  0  0  0  0  0  0
    1.4999   -1.4201   -2.1208 H   0  0  0  0  0  0  0  0  0  0  0  0
   -1.2764   -3.5638   -1.3137 H   0  0  0  0  0  0  0  0  0  0  0  0
   -0.4837   -2.4765   -2.4613 H   0  0  0  0  0  0  0  0  0  0  0  0
    0.4079   -3.1768   -1.0778 H   0  0  0  0  0  0  0  0  0  0  0  0
   -4.7685   -2.0251   -2.2573 H   0  0  0  0  0  0  0  0  0  0  0  0
   -3.4601   -3.2285   -2.1393 H   0  0  0  0  0  0  0  0  0  0  0  0
   -3.1153   -1.5518   -2.6653 H   0  0  0  0  0  0  0  0  0  0  0  0
  1  2  1  0
  2  3  1  0
  3  4  1  0
  4  5  2  0
  4  6  1  0
  6  7  2  0
  7  8  1  0
  8  9  1  0
  9 10  2  0
 10 11  1  0
 11 12  2  0
 12 13  1  0
 13 14  1  0
 14 15  1  0
 12 16  1  0
 16 17  2  0
  8 18  1  0
 18 19  1  0
 18 20  2  0
 20 21  1  0
 21 22  1  0
 21 23  2  0
 20  6  1  0
 17  9  1  0
  1 24  1  0
  1 25  1  0
  1 26  1  0
  2 27  1  0
  2 28  1  0
 10 29  1  0
 11 30  1  0
 14 31  1  0
 14 32  1  0
 15 33  1  0
 15 34  1  0
 15 35  1  0
 16 36  1  0
 17 37  1  0
 19 38  1  0
 19 39  1  0
 19 40  1  0
 22 41  1  0
 22 42  1  0
 22 43  1  0
M  END
$$$$
