
     RDKit          3D

 38 40  0  0  0  0  0  0  0  0999 V2000
   -6.7571   -0.6653   -2.0117 C   0  0  0  0  0  0  0  0  0  0  0  0
   -5.8097    0.1364   -1.1692 C   0  0  0  0  0  0  0  0  0  0  0  0
   -5.7887    1.3590   -1.1322 O   0  0  0  0  0  0  0  0  0  0  0  0
   -4.9903   -0.7400   -0.4662 O   0  0  0  0  0  0  0  0  0  0  0  0
   -4.0524   -0.1255    0.3707 C   0  0  0  0  0  0  0  0  0  0  0  0
   -4.4576    0.5645    1.5111 C   0  0  0  0  0  0  0  0  0  0  0  0
   -3.4909    1.1121    2.3512 C   0  0  0  0  0  0  0  0  0  0  0  0
   -2.1333    0.9575    2.0516 C   0  0  0  0  0  0  0  0  0  0  0  0
   -1.7271    0.2571    0.9057 C   0  0  0  0  0  0  0  0  0  0  0  0
   -0.3099    0.0470    0.5837 C   0  0  0  0  0  0  0  0  0  0  0  0
    0.6230    1.0092    0.6778 C   0  0  0  0  0  0  0  0  0  0  0  0
    2.0424    0.8147    0.3453 C   0  0  0  0  0  0  0  0  0  0  0  0
    2.9260    1.8839    0.4305 C   0  0  0  0  0  0  0  0  0  0  0  0
    4.2655    1.6757    0.1119 C   0  0  0  0  0  0  0  0  0  0  0  0
    4.6951    0.4049   -0.2838 C   0  0  0  0  0  0  0  0  0  0  0  0
    6.0361    0.1350   -0.6180 C   0  0  0  0  0  0  0  0  0  0  0  0
    6.4241   -1.1482   -1.0079 C   0  0  0  0  0  0  0  0  0  0  0  0
    5.4791   -2.1671   -1.0662 C   0  0  0  0  0  0  0  0  0  0  0  0
    4.1576   -1.8861   -0.7332 C   0  0  0  0  0  0  0  0  0  0  0  0
    3.2424   -2.9102   -0.7978 O   0  0  0  0  0  0  0  0  0  0  0  0
    3.7322   -0.6200   -0.3408 C   0  0  0  0  0  0  0  0  0  0  0  0
    2.4316   -0.4257   -0.0341 N   0  0  0  0  0  0  0  0  0  0  0  0
   -2.7014   -0.3045    0.0732 C   0  0  0  0  0  0  0  0  0  0  0  0
   -7.4042    0.0138   -2.5742 H   0  0  0  0  0  0  0  0  0  0  0  0
   -7.3831   -1.2917   -1.3713 H   0  0  0  0  0  0  0  0  0  0  0  0
   -6.1952   -1.2780   -2.7211 H   0  0  0  0  0  0  0  0  0  0  0  0
   -5.5114    0.6806    1.7449 H   0  0  0  0  0  0  0  0  0  0  0  0
   -3.7914    1.6555    3.2433 H   0  0  0  0  0  0  0  0  0  0  0  0
   -1.3960    1.3773    2.7320 H   0  0  0  0  0  0  0  0  0  0  0  0
   -0.0478   -0.9475    0.2300 H   0  0  0  0  0  0  0  0  0  0  0  0
    0.3452    2.0082    1.0008 H   0  0  0  0  0  0  0  0  0  0  0  0
    2.5899    2.8692    0.7368 H   0  0  0  0  0  0  0  0  0  0  0  0
    4.9649    2.5053    0.1735 H   0  0  0  0  0  0  0  0  0  0  0  0
    6.7842    0.9237   -0.5761 H   0  0  0  0  0  0  0  0  0  0  0  0
    7.4605   -1.3519   -1.2651 H   0  0  0  0  0  0  0  0  0  0  0  0
    5.7625   -3.1712   -1.3671 H   0  0  0  0  0  0  0  0  0  0  0  0
    2.4009   -2.4886   -0.5213 H   0  0  0  0  0  0  0  0  0  0  0  0
   -2.4157   -0.8690   -0.8099 H   0  0  0  0  0  0  0  0  0  0  0  0
  1  2  1  0
  2  3  2  0
  2  4  1  0
  4  5  1  0
  5  6  2  0
  6  7  1  0
  7  8  2  0
  8  9  1  0
  9 10  1  0
 10 11  2  0
 11 12  1  0
 12 13  2  0
 13 14  1  0
 14 15  2  0
 15 16  1  0
 16 17  2  0
 17 18  1  0
 18 19  2  0
 19 20  1  0
 19 21  1  0
 21 22  2  0
  9 23  2  0
 23  5  1  0
 22 12  1  0
 21 15  1  0
  1 24  1  0
  1 25  1  0
  1 26  1  0
  6 27  1  0
  7 28  1  0
  8 29  1  0
 10 30  1  0
 11 31  1  0
 13 32  1  0
 14 33  1  0
 16 34  1  0
 17 35  1  0
 18 36  1  0
 20 37  1  0
 23 38  1  0
M  END
$$$$
