
     RDKit          3D

 48 49  0  0  0  0  0  0  0  0999 V2000
    1.2907   -0.0489    3.3426 C   0  0  0  0  0  0  0  0  0  0  0  0
    1.8423    0.0258    2.0348 O   0  0  0  0  0  0  0  0  0  0  0  0
    0.9654    0.0517    0.9805 C   0  0  0  0  0  0  0  0  0  0  0  0
   -0.4203    0.2081    1.1032 C   0  0  0  0  0  0  0  0  0  0  0  0
   -1.2492    0.2100   -0.0320 C   0  0  0  0  0  0  0  0  0  0  0  0
   -2.7489    0.3760    0.1051 C   0  0  0  0  0  0  0  0  0  0  0  0
   -3.4285   -0.8461   -0.3203 N   0  0  0  0  0  0  0  0  0  0  0  0
   -4.9042   -0.7757   -0.3947 C   0  0  0  0  0  0  0  0  0  0  0  0
   -5.3729   -2.2180   -0.6855 C   0  0  0  0  0  0  0  0  0  0  0  0
   -5.3299    0.1073   -1.5820 C   0  0  0  0  0  0  0  0  0  0  0  0
   -5.5914   -0.3158    0.9251 C   0  0  0  0  0  0  0  0  0  0  0  0
   -5.4028    1.0675    1.2122 O   0  0  0  0  0  0  0  0  0  0  0  0
   -0.6734    0.0459   -1.3003 C   0  0  0  0  0  0  0  0  0  0  0  0
    0.7064   -0.1065   -1.4340 C   0  0  0  0  0  0  0  0  0  0  0  0
    1.4204   -0.3356   -3.1775 Br  0  0  0  0  0  0  0  0  0  0  0  0
    1.5276   -0.0809   -0.3011 C   0  0  0  0  0  0  0  0  0  0  0  0
    2.8829   -0.2650   -0.4464 O   0  0  0  0  0  0  0  0  0  0  0  0
    3.5699    0.9860   -0.3557 C   0  0  0  0  0  0  0  0  0  0  0  0
    5.0089    0.7527   -0.7474 C   0  0  0  0  0  0  0  0  0  0  0  0
    5.4238    0.9274   -2.0757 C   0  0  0  0  0  0  0  0  0  0  0  0
    6.7519    0.6920   -2.4385 C   0  0  0  0  0  0  0  0  0  0  0  0
    7.6682    0.2720   -1.4767 C   0  0  0  0  0  0  0  0  0  0  0  0
    9.3046   -0.0178   -1.9241 Cl  0  0  0  0  0  0  0  0  0  0  0  0
    7.2676    0.0797   -0.1563 C   0  0  0  0  0  0  0  0  0  0  0  0
    5.9396    0.3148    0.2065 C   0  0  0  0  0  0  0  0  0  0  0  0
    0.6384   -0.9218    3.4512 H   0  0  0  0  0  0  0  0  0  0  0  0
    0.7625    0.8755    3.5978 H   0  0  0  0  0  0  0  0  0  0  0  0
    2.1192   -0.1630    4.0483 H   0  0  0  0  0  0  0  0  0  0  0  0
   -0.8842    0.3310    2.0771 H   0  0  0  0  0  0  0  0  0  0  0  0
   -2.9841    0.6045    1.1497 H   0  0  0  0  0  0  0  0  0  0  0  0
   -3.0404    1.2419   -0.4987 H   0  0  0  0  0  0  0  0  0  0  0  0
   -3.1510   -1.5916    0.3184 H   0  0  0  0  0  0  0  0  0  0  0  0
   -6.4614   -2.2618   -0.8091 H   0  0  0  0  0  0  0  0  0  0  0  0
   -5.1068   -2.8990    0.1318 H   0  0  0  0  0  0  0  0  0  0  0  0
   -4.9235   -2.6093   -1.6063 H   0  0  0  0  0  0  0  0  0  0  0  0
   -4.8856   -0.2475   -2.5197 H   0  0  0  0  0  0  0  0  0  0  0  0
   -6.4187    0.0885   -1.7085 H   0  0  0  0  0  0  0  0  0  0  0  0
   -5.0370    1.1541   -1.4563 H   0  0  0  0  0  0  0  0  0  0  0  0
   -5.2019   -0.8868    1.7757 H   0  0  0  0  0  0  0  0  0  0  0  0
   -6.6718   -0.4974    0.8841 H   0  0  0  0  0  0  0  0  0  0  0  0
   -5.9225    1.5747    0.5654 H   0  0  0  0  0  0  0  0  0  0  0  0
   -1.3161    0.0251   -2.1785 H   0  0  0  0  0  0  0  0  0  0  0  0
    3.1234    1.7342   -1.0244 H   0  0  0  0  0  0  0  0  0  0  0  0
    3.5334    1.3843    0.6656 H   0  0  0  0  0  0  0  0  0  0  0  0
    4.7112    1.2394   -2.8365 H   0  0  0  0  0  0  0  0  0  0  0  0
    7.0612    0.8311   -3.4707 H   0  0  0  0  0  0  0  0  0  0  0  0
    7.9788   -0.2589    0.5919 H   0  0  0  0  0  0  0  0  0  0  0  0
    5.6279    0.1462    1.2354 H   0  0  0  0  0  0  0  0  0  0  0  0
  1  2  1  0
  2  3  1  0
  3  4  2  0
  4  5  1  0
  5  6  1  0
  6  7  1  0
  7  8  1  0
  8  9  1  0
  8 10  1  0
  8 11  1  0
 11 12  1  0
  5 13  2  0
 13 14  1  0
 14 15  1  0
 14 16  2  0
 16 17  1  0
 17 18  1  0
 18 19  1  0
 19 20  2  0
 20 21  1  0
 21 22  2  0
 22 23  1  0
 22 24  1  0
 24 25  2  0
 16  3  1  0
 25 19  1  0
  1 26  1  0
  1 27  1  0
  1 28  1  0
  4 29  1  0
  6 30  1  0
  6 31  1  0
  7 32  1  0
  9 33  1  0
  9 34  1  0
  9 35  1  0
 10 36  1  0
 10 37  1  0
 10 38  1  0
 11 39  1  0
 11 40  1  0
 12 41  1  0
 13 42  1  0
 18 43  1  0
 18 44  1  0
 20 45  1  0
 21 46  1  0
 24 47  1  0
 25 48  1  0
M  END
$$$$
