
     RDKit          3D

 52 55  0  0  0  0  0  0  0  0999 V2000
   -4.9419    2.3224    3.2239 C   0  0  0  0  0  0  0  0  0  0  0  0
   -3.9607    2.6566    2.1113 C   0  0  0  0  0  0  0  0  0  0  0  0
   -4.3699    2.1040    0.7406 C   0  0  0  0  0  0  0  0  0  0  0  0
   -4.4693    0.5778    0.6510 C   0  0  0  0  0  0  0  0  0  0  0  0
   -3.1682   -0.1074    0.8820 C   0  0  0  0  0  0  0  0  0  0  0  0
   -2.8338   -0.6294    2.0500 N   0  0  0  0  0  0  0  0  0  0  0  0
   -1.5943   -1.1912    1.9424 N   0  0  0  0  0  0  0  0  0  0  0  0
   -1.1791   -0.9974    0.7120 C   0  0  0  0  0  0  0  0  0  0  0  0
    0.0647   -1.4028    0.1144 C   0  0  0  0  0  0  0  0  0  0  0  0
    1.0186   -2.0887    0.9148 N   0  0  0  0  0  0  0  0  0  0  0  0
    1.0987   -1.9453    2.3862 C   0  0  0  0  0  0  0  0  0  0  0  0
    2.2726   -3.0016    0.2199 S   0  0  0  0  0  6  0  0  0  0  0  0
    2.6972   -3.9934    1.1907 O   0  0  0  0  0  0  0  0  0  0  0  0
    1.9257   -3.4201   -1.1216 O   0  0  0  0  0  0  0  0  0  0  0  0
    3.5807   -1.7979    0.0896 C   0  0  0  0  0  0  0  0  0  0  0  0
    4.5610   -1.7230    1.0826 C   0  0  0  0  0  0  0  0  0  0  0  0
    5.5947   -0.7922    0.9620 C   0  0  0  0  0  0  0  0  0  0  0  0
    5.6563    0.0620   -0.1474 C   0  0  0  0  0  0  0  0  0  0  0  0
    6.7895    1.0353   -0.2917 C   0  0  0  0  0  0  0  0  0  0  0  0
    4.6872   -0.0493   -1.1536 C   0  0  0  0  0  0  0  0  0  0  0  0
    3.6517   -0.9783   -1.0391 C   0  0  0  0  0  0  0  0  0  0  0  0
    0.3053   -1.1252   -1.1273 N   0  0  0  0  0  0  0  0  0  0  0  0
   -0.6655   -0.4456   -1.8902 C   0  0  0  0  0  0  0  0  0  0  0  0
   -0.3631   -0.1931   -3.2306 C   0  0  0  0  0  0  0  0  0  0  0  0
   -1.2678    0.4803   -4.0490 C   0  0  0  0  0  0  0  0  0  0  0  0
   -2.4869    0.9073   -3.5289 C   0  0  0  0  0  0  0  0  0  0  0  0
   -2.8120    0.6618   -2.1914 C   0  0  0  0  0  0  0  0  0  0  0  0
   -1.9064   -0.0148   -1.3722 C   0  0  0  0  0  0  0  0  0  0  0  0
   -2.1347   -0.3225   -0.0132 N   0  0  0  0  0  0  0  0  0  0  0  0
   -4.9565    1.2500    3.4386 H   0  0  0  0  0  0  0  0  0  0  0  0
   -4.6540    2.8389    4.1453 H   0  0  0  0  0  0  0  0  0  0  0  0
   -5.9565    2.6383    2.9618 H   0  0  0  0  0  0  0  0  0  0  0  0
   -2.9617    2.2992    2.3850 H   0  0  0  0  0  0  0  0  0  0  0  0
   -3.8876    3.7481    2.0315 H   0  0  0  0  0  0  0  0  0  0  0  0
   -5.3433    2.5301    0.4669 H   0  0  0  0  0  0  0  0  0  0  0  0
   -3.6508    2.4766    0.0018 H   0  0  0  0  0  0  0  0  0  0  0  0
   -5.1902    0.2175    1.3953 H   0  0  0  0  0  0  0  0  0  0  0  0
   -4.9002    0.2733   -0.3068 H   0  0  0  0  0  0  0  0  0  0  0  0
    0.8805   -0.9141    2.6811 H   0  0  0  0  0  0  0  0  0  0  0  0
    0.3936   -2.6290    2.8669 H   0  0  0  0  0  0  0  0  0  0  0  0
    2.0968   -2.1594    2.7774 H   0  0  0  0  0  0  0  0  0  0  0  0
    4.5357   -2.3868    1.9437 H   0  0  0  0  0  0  0  0  0  0  0  0
    6.3582   -0.7420    1.7358 H   0  0  0  0  0  0  0  0  0  0  0  0
    6.4762    1.9180   -0.8591 H   0  0  0  0  0  0  0  0  0  0  0  0
    7.6273    0.5597   -0.8107 H   0  0  0  0  0  0  0  0  0  0  0  0
    7.1312    1.3841    0.6884 H   0  0  0  0  0  0  0  0  0  0  0  0
    4.7373    0.5835   -2.0374 H   0  0  0  0  0  0  0  0  0  0  0  0
    2.9124   -1.0619   -1.8326 H   0  0  0  0  0  0  0  0  0  0  0  0
    0.5866   -0.5321   -3.6386 H   0  0  0  0  0  0  0  0  0  0  0  0
   -1.0211    0.6680   -5.0911 H   0  0  0  0  0  0  0  0  0  0  0  0
   -3.1912    1.4327   -4.1710 H   0  0  0  0  0  0  0  0  0  0  0  0
   -3.7732    1.0193   -1.8516 H   0  0  0  0  0  0  0  0  0  0  0  0
  1  2  1  0
  2  3  1  0
  3  4  1  0
  4  5  1  0
  5  6  2  0
  6  7  1  0
  7  8  2  0
  8  9  1  0
  9 10  1  0
 10 11  1  0
 10 12  1  0
 12 13  2  0
 12 14  2  0
 12 15  1  0
 15 16  2  0
 16 17  1  0
 17 18  2  0
 18 19  1  0
 18 20  1  0
 20 21  2  0
  9 22  2  0
 22 23  1  0
 23 24  2  0
 24 25  1  0
 25 26  2  0
 26 27  1  0
 27 28  2  0
 28 29  1  0
 29  5  1  0
 29  8  1  0
 21 15  1  0
 28 23  1  0
  1 30  1  0
  1 31  1  0
  1 32  1  0
  2 33  1  0
  2 34  1  0
  3 35  1  0
  3 36  1  0
  4 37  1  0
  4 38  1  0
 11 39  1  0
 11 40  1  0
 11 41  1  0
 16 42  1  0
 17 43  1  0
 19 44  1  0
 19 45  1  0
 19 46  1  0
 20 47  1  0
 21 48  1  0
 24 49  1  0
 25 50  1  0
 26 51  1  0
 27 52  1  0
M  END
$$$$
