
     RDKit          3D

 52 54  0  0  0  0  0  0  0  0999 V2000
   -7.4178   -1.7797    0.4587 C   0  0  0  0  0  0  0  0  0  0  0  0
   -6.4906   -0.8032   -0.2473 C   0  0  0  0  0  0  0  0  0  0  0  0
   -5.0215   -1.1189    0.0390 C   0  0  0  0  0  0  0  0  0  0  0  0
   -4.0933   -0.1294   -0.6752 C   0  0  0  0  0  0  0  0  0  0  0  0
   -2.5934   -0.4651   -0.5110 C   0  0  0  0  0  0  0  0  0  0  0  0
   -1.7481    0.2706   -1.5774 C   0  0  0  0  0  0  0  0  0  0  0  0
   -1.8878    1.7872   -1.5958 C   0  0  0  0  0  0  0  0  0  0  0  0
   -2.1069   -0.1985    0.9356 C   0  0  0  0  0  0  0  0  0  0  0  0
   -0.7735   -0.7499    1.2123 N   0  0  0  0  0  0  0  0  0  0  0  0
    0.3257    0.0985    1.1895 C   0  0  0  0  0  0  0  0  0  0  0  0
    0.2736    1.2990    0.9658 O   0  0  0  0  0  0  0  0  0  0  0  0
    1.5787   -0.6596    1.4780 C   0  0  0  0  0  0  0  0  0  0  0  0
    2.8482   -0.2239    1.5109 C   0  0  0  0  0  0  0  0  0  0  0  0
    3.3542    1.0941    1.3130 C   0  0  0  0  0  0  0  0  0  0  0  0
    2.8706    2.2473    1.8827 C   0  0  0  0  0  0  0  0  0  0  0  0
    3.6380    3.2584    1.3912 N   0  0  0  0  0  0  0  0  0  0  0  0
    4.6237    2.8440    0.5829 N   0  0  0  0  0  0  0  0  0  0  0  0
    4.4793    1.5089    0.5348 C   0  0  0  0  0  0  0  0  0  0  0  0
    5.3874    0.6953   -0.2681 C   0  0  0  0  0  0  0  0  0  0  0  0
    6.1214   -0.3475    0.3112 C   0  0  0  0  0  0  0  0  0  0  0  0
    6.9789   -1.1248   -0.4712 C   0  0  0  0  0  0  0  0  0  0  0  0
    7.1130   -0.8603   -1.8339 C   0  0  0  0  0  0  0  0  0  0  0  0
    6.3972    0.1854   -2.4154 C   0  0  0  0  0  0  0  0  0  0  0  0
    5.5401    0.9634   -1.6346 C   0  0  0  0  0  0  0  0  0  0  0  0
    1.1913   -2.3236    1.7507 S   0  0  0  0  0  0  0  0  0  0  0  0
   -0.5307   -2.0718    1.5231 C   0  0  0  0  0  0  0  0  0  0  0  0
   -1.6280   -3.3181    1.6938 S   0  0  0  0  0  0  0  0  0  0  0  0
   -7.2793   -1.7377    1.5438 H   0  0  0  0  0  0  0  0  0  0  0  0
   -7.2316   -2.8064    0.1278 H   0  0  0  0  0  0  0  0  0  0  0  0
   -8.4622   -1.5363    0.2399 H   0  0  0  0  0  0  0  0  0  0  0  0
   -6.7231    0.2162    0.0821 H   0  0  0  0  0  0  0  0  0  0  0  0
   -6.6781   -0.8466   -1.3265 H   0  0  0  0  0  0  0  0  0  0  0  0
   -4.8557   -1.0855    1.1208 H   0  0  0  0  0  0  0  0  0  0  0  0
   -4.7961   -2.1393   -0.2935 H   0  0  0  0  0  0  0  0  0  0  0  0
   -4.2937    0.8839   -0.3056 H   0  0  0  0  0  0  0  0  0  0  0  0
   -4.3445   -0.1347   -1.7437 H   0  0  0  0  0  0  0  0  0  0  0  0
   -2.4725   -1.5347   -0.7248 H   0  0  0  0  0  0  0  0  0  0  0  0
   -0.6907    0.0093   -1.4580 H   0  0  0  0  0  0  0  0  0  0  0  0
   -2.0347   -0.1061   -2.5680 H   0  0  0  0  0  0  0  0  0  0  0  0
   -2.9045    2.0915   -1.8615 H   0  0  0  0  0  0  0  0  0  0  0  0
   -1.2130    2.2123   -2.3462 H   0  0  0  0  0  0  0  0  0  0  0  0
   -1.6365    2.2354   -0.6319 H   0  0  0  0  0  0  0  0  0  0  0  0
   -2.1110    0.8768    1.1443 H   0  0  0  0  0  0  0  0  0  0  0  0
   -2.7962   -0.6440    1.6586 H   0  0  0  0  0  0  0  0  0  0  0  0
    3.6173   -0.9748    1.6855 H   0  0  0  0  0  0  0  0  0  0  0  0
    2.0469    2.4467    2.5532 H   0  0  0  0  0  0  0  0  0  0  0  0
    3.5489    4.2533    1.5682 H   0  0  0  0  0  0  0  0  0  0  0  0
    6.0474   -0.5489    1.3766 H   0  0  0  0  0  0  0  0  0  0  0  0
    7.5494   -1.9302   -0.0160 H   0  0  0  0  0  0  0  0  0  0  0  0
    7.7837   -1.4625   -2.4413 H   0  0  0  0  0  0  0  0  0  0  0  0
    6.5094    0.4006   -3.4748 H   0  0  0  0  0  0  0  0  0  0  0  0
    4.9909    1.7840   -2.0916 H   0  0  0  0  0  0  0  0  0  0  0  0
  1  2  1  0
  2  3  1  0
  3  4  1  0
  4  5  1  0
  5  6  1  0
  6  7  1  0
  5  8  1  0
  8  9  1  0
  9 10  1  0
 10 11  2  0
 10 12  1  0
 12 13  2  3
 13 14  1  0
 14 15  2  0
 15 16  1  0
 16 17  1  0
 17 18  2  0
 18 19  1  0
 19 20  2  0
 20 21  1  0
 21 22  2  0
 22 23  1  0
 23 24  2  0
 12 25  1  0
 25 26  1  0
 26 27  2  0
 26  9  1  0
 18 14  1  0
 24 19  1  0
  1 28  1  0
  1 29  1  0
  1 30  1  0
  2 31  1  0
  2 32  1  0
  3 33  1  0
  3 34  1  0
  4 35  1  0
  4 36  1  0
  5 37  1  0
  6 38  1  0
  6 39  1  0
  7 40  1  0
  7 41  1  0
  7 42  1  0
  8 43  1  0
  8 44  1  0
 13 45  1  0
 15 46  1  0
 16 47  1  0
 20 48  1  0
 21 49  1  0
 22 50  1  0
 23 51  1  0
 24 52  1  0
M  END
$$$$
