
     RDKit          3D

 41 42  0  0  0  0  0  0  0  0999 V2000
   -2.7395   -2.3832   -0.7192 C   0  0  0  0  0  0  0  0  0  0  0  0
   -2.2410   -1.1095   -0.0817 C   0  0  0  0  0  0  0  0  0  0  0  0
   -1.8183   -0.9889    1.1970 C   0  0  0  0  0  0  0  0  0  0  0  0
   -1.8197   -2.0950    2.2234 C   0  0  0  0  0  0  0  0  0  0  0  0
   -1.2999    0.3206    1.7591 C   0  0  0  0  0  0  0  0  0  0  0  0
   -1.0319    1.4329    0.7397 C   0  0  0  0  0  0  0  0  0  0  0  0
    0.4083    1.4595    0.2223 C   0  0  0  0  0  0  0  0  0  0  0  0
    1.0210    2.5239    0.1996 O   0  0  0  0  0  0  0  0  0  0  0  0
    0.8928    0.2489   -0.2312 N   0  0  0  0  0  0  0  0  0  0  0  0
    2.1668   -0.0272   -0.7695 C   0  0  0  0  0  0  0  0  0  0  0  0
    2.4279   -1.3628   -1.1141 C   0  0  0  0  0  0  0  0  0  0  0  0
    3.6629   -1.7425   -1.6464 C   0  0  0  0  0  0  0  0  0  0  0  0
    4.6564   -0.7876   -1.8434 C   0  0  0  0  0  0  0  0  0  0  0  0
    4.4014    0.5481   -1.5039 C   0  0  0  0  0  0  0  0  0  0  0  0
    5.4499    1.5556   -1.7133 N   0  0  0  0  0  4  0  0  0  0  0  0
    6.5736    1.1532   -2.0524 O   0  0  0  0  0  0  0  0  0  0  0  0
    5.1555    2.7467   -1.5425 O   0  0  0  0  0  1  0  0  0  0  0  0
    3.1617    0.9328   -0.9687 C   0  0  0  0  0  0  0  0  0  0  0  0
   -2.0305    1.4466   -0.4160 C   0  0  0  0  0  0  0  0  0  0  0  0
   -3.3271    2.0676    0.0518 C   0  0  0  0  0  0  0  0  0  0  0  0
   -4.3329    1.4903    0.4233 O   0  0  0  0  0  0  0  0  0  0  0  0
   -3.2807    3.4148    0.0418 O   0  0  0  0  0  0  0  0  0  0  0  0
   -2.2749    0.0684   -1.0378 C   0  0  0  0  0  0  0  0  0  0  0  0
   -3.7824   -2.2627   -1.0313 H   0  0  0  0  0  0  0  0  0  0  0  0
   -2.1400   -2.6189   -1.6048 H   0  0  0  0  0  0  0  0  0  0  0  0
   -2.6937   -3.2575   -0.0657 H   0  0  0  0  0  0  0  0  0  0  0  0
   -0.7909   -2.3666    2.4794 H   0  0  0  0  0  0  0  0  0  0  0  0
   -2.3354   -3.0021    1.9032 H   0  0  0  0  0  0  0  0  0  0  0  0
   -2.3218   -1.7585    3.1374 H   0  0  0  0  0  0  0  0  0  0  0  0
   -2.0436    0.6808    2.4819 H   0  0  0  0  0  0  0  0  0  0  0  0
   -0.3822    0.1277    2.3296 H   0  0  0  0  0  0  0  0  0  0  0  0
   -1.1240    2.3755    1.3020 H   0  0  0  0  0  0  0  0  0  0  0  0
    0.2795   -0.5523   -0.1366 H   0  0  0  0  0  0  0  0  0  0  0  0
    1.6720   -2.1316   -0.9677 H   0  0  0  0  0  0  0  0  0  0  0  0
    3.8473   -2.7819   -1.9068 H   0  0  0  0  0  0  0  0  0  0  0  0
    5.6146   -1.0935   -2.2584 H   0  0  0  0  0  0  0  0  0  0  0  0
    2.9938    1.9750   -0.7211 H   0  0  0  0  0  0  0  0  0  0  0  0
   -1.6656    2.0941   -1.2250 H   0  0  0  0  0  0  0  0  0  0  0  0
   -4.1624    3.6946    0.3683 H   0  0  0  0  0  0  0  0  0  0  0  0
   -1.5090   -0.1097   -1.8062 H   0  0  0  0  0  0  0  0  0  0  0  0
   -3.2376    0.0745   -1.5669 H   0  0  0  0  0  0  0  0  0  0  0  0
  1  2  1  0
  2  3  2  0
  3  4  1  0
  3  5  1  0
  5  6  1  0
  6  7  1  0
  7  8  2  0
  7  9  1  0
  9 10  1  0
 10 11  2  0
 11 12  1  0
 12 13  2  0
 13 14  1  0
 14 15  1  0
 15 16  2  0
 15 17  1  0
 14 18  2  0
  6 19  1  0
 19 20  1  0
 20 21  2  0
 20 22  1  0
 19 23  1  0
 23  2  1  0
 18 10  1  0
  1 24  1  0
  1 25  1  0
  1 26  1  0
  4 27  1  0
  4 28  1  0
  4 29  1  0
  5 30  1  0
  5 31  1  0
  6 32  1  0
  9 33  1  0
 11 34  1  0
 12 35  1  0
 13 36  1  0
 18 37  1  0
 19 38  1  0
 22 39  1  0
 23 40  1  0
 23 41  1  0
M  CHG  2  15   1  17  -1
M  END
$$$$
