
     RDKit          3D

 39 41  0  0  0  0  0  0  0  0999 V2000
    1.2003   -2.1901   -1.3387 S   0  0  0  0  0  0  0  0  0  0  0  0
    0.4622   -0.8826   -0.5811 C   0  0  0  0  0  0  0  0  0  0  0  0
    1.1202    0.3075   -0.3324 N   0  0  0  0  0  0  0  0  0  0  0  0
    2.5308    0.6075   -0.5920 C   0  0  0  0  0  0  0  0  0  0  0  0
    3.4171    0.1884    0.5829 C   0  0  0  0  0  0  0  0  0  0  0  0
    4.8971    0.4102    0.3241 C   0  0  0  0  0  0  0  0  0  0  0  0
    5.4308    0.5406    1.7285 C   0  0  0  0  0  0  0  0  0  0  0  0
    4.3265    1.3153    2.4162 C   0  0  0  0  0  0  0  0  0  0  0  0
    3.0993    0.9885    1.7457 O   0  0  0  0  0  0  0  0  0  0  0  0
   -0.8751   -0.8706   -0.1666 N   0  0  0  0  0  0  0  0  0  0  0  0
   -1.6667   -2.0930    0.0309 C   0  0  0  0  0  0  0  0  0  0  0  0
   -2.8585   -2.1210   -0.9212 C   0  0  0  0  0  0  0  0  0  0  0  0
   -3.6799   -0.8641   -0.7790 C   0  0  0  0  0  0  0  0  0  0  0  0
   -5.0291   -0.8602   -1.1576 C   0  0  0  0  0  0  0  0  0  0  0  0
   -5.7898    0.3023   -1.0421 C   0  0  0  0  0  0  0  0  0  0  0  0
   -5.2079    1.4704   -0.5560 C   0  0  0  0  0  0  0  0  0  0  0  0
   -3.8614    1.4799   -0.1909 C   0  0  0  0  0  0  0  0  0  0  0  0
   -3.0811    0.3187   -0.3062 C   0  0  0  0  0  0  0  0  0  0  0  0
   -1.6195    0.3704    0.0919 C   0  0  0  0  0  0  0  0  0  0  0  0
    0.7657    0.8249    0.4606 H   0  0  0  0  0  0  0  0  0  0  0  0
    2.5774    1.6940   -0.7269 H   0  0  0  0  0  0  0  0  0  0  0  0
    2.8530    0.1334   -1.5233 H   0  0  0  0  0  0  0  0  0  0  0  0
    3.2349   -0.8568    0.8601 H   0  0  0  0  0  0  0  0  0  0  0  0
    5.0650    1.3463   -0.2220 H   0  0  0  0  0  0  0  0  0  0  0  0
    5.3564   -0.4054   -0.2411 H   0  0  0  0  0  0  0  0  0  0  0  0
    6.4016    1.0397    1.7863 H   0  0  0  0  0  0  0  0  0  0  0  0
    5.5295   -0.4526    2.1827 H   0  0  0  0  0  0  0  0  0  0  0  0
    4.2418    1.0705    3.4787 H   0  0  0  0  0  0  0  0  0  0  0  0
    4.4800    2.3951    2.3180 H   0  0  0  0  0  0  0  0  0  0  0  0
   -1.0714   -3.0009   -0.0882 H   0  0  0  0  0  0  0  0  0  0  0  0
   -2.0082   -2.0849    1.0747 H   0  0  0  0  0  0  0  0  0  0  0  0
   -3.4727   -3.0011   -0.6990 H   0  0  0  0  0  0  0  0  0  0  0  0
   -2.5140   -2.1957   -1.9595 H   0  0  0  0  0  0  0  0  0  0  0  0
   -5.4935   -1.7647   -1.5437 H   0  0  0  0  0  0  0  0  0  0  0  0
   -6.8367    0.2971   -1.3340 H   0  0  0  0  0  0  0  0  0  0  0  0
   -5.8017    2.3763   -0.4670 H   0  0  0  0  0  0  0  0  0  0  0  0
   -3.4199    2.4027    0.1792 H   0  0  0  0  0  0  0  0  0  0  0  0
   -1.1525    1.2016   -0.4476 H   0  0  0  0  0  0  0  0  0  0  0  0
   -1.5500    0.5626    1.1692 H   0  0  0  0  0  0  0  0  0  0  0  0
  1  2  2  0
  2  3  1  0
  3  4  1  0
  4  5  1  0
  5  6  1  0
  6  7  1  0
  7  8  1  0
  8  9  1  0
  2 10  1  0
 10 11  1  0
 11 12  1  0
 12 13  1  0
 13 14  2  0
 14 15  1  0
 15 16  2  0
 16 17  1  0
 17 18  2  0
 18 19  1  0
  9  5  1  0
 19 10  1  0
 18 13  1  0
  3 20  1  0
  4 21  1  0
  4 22  1  0
  5 23  1  0
  6 24  1  0
  6 25  1  0
  7 26  1  0
  7 27  1  0
  8 28  1  0
  8 29  1  0
 11 30  1  0
 11 31  1  0
 12 32  1  0
 12 33  1  0
 14 34  1  0
 15 35  1  0
 16 36  1  0
 17 37  1  0
 19 38  1  0
 19 39  1  0
M  END
$$$$
