
     RDKit          3D

 48 48  0  0  0  0  0  0  0  0999 V2000
   -6.7439    2.2496   -0.3732 C   0  0  0  0  0  0  0  0  0  0  0  0
   -6.4207    0.7684   -0.2521 C   0  0  0  0  0  0  0  0  0  0  0  0
   -5.3680    0.4550    0.8146 C   0  0  0  0  0  0  0  0  0  0  0  0
   -3.9804    1.0050    0.4746 C   0  0  0  0  0  0  0  0  0  0  0  0
   -2.9262    0.6985    1.5442 C   0  0  0  0  0  0  0  0  0  0  0  0
   -2.6492   -0.7860    1.8025 C   0  0  0  0  0  0  0  0  0  0  0  0
   -2.2291   -1.6047    0.5777 C   0  0  0  0  0  0  0  0  0  0  0  0
   -0.9913   -1.0953   -0.1659 C   0  0  0  0  0  0  0  0  0  0  0  0
    0.2690   -1.0737    0.6976 C   0  0  0  0  0  0  0  0  0  0  0  0
    1.5047   -0.6844   -0.0973 C   0  0  0  0  0  0  0  0  0  0  0  0
    1.4686   -0.3584   -1.2797 O   0  0  0  0  0  0  0  0  0  0  0  0
    2.6602   -0.7560    0.6890 N   0  0  0  0  0  0  0  0  0  0  0  0
    3.8306   -0.1912    0.2547 N   0  0  0  0  0  0  0  0  0  0  0  0
    4.4249   -0.6947   -0.7923 C   0  0  0  0  0  0  0  0  0  0  0  0
    4.0063   -1.9786   -1.4856 C   0  0  0  0  0  0  0  0  0  0  0  0
    5.6242    0.0156   -1.3278 C   0  0  0  0  0  0  0  0  0  0  0  0
    6.3241    0.9240   -0.5289 C   0  0  0  0  0  0  0  0  0  0  0  0
    7.4410    1.5791   -1.0439 C   0  0  0  0  0  0  0  0  0  0  0  0
    7.8206    1.3053   -2.3476 C   0  0  0  0  0  0  0  0  0  0  0  0
    7.1656    0.4412   -3.1527 N   0  0  0  0  0  0  0  0  0  0  0  0
    6.0773   -0.1765   -2.6275 C   0  0  0  0  0  0  0  0  0  0  0  0
   -7.0401    2.6680    0.5938 H   0  0  0  0  0  0  0  0  0  0  0  0
   -5.8890    2.8183   -0.7501 H   0  0  0  0  0  0  0  0  0  0  0  0
   -7.5724    2.3965   -1.0736 H   0  0  0  0  0  0  0  0  0  0  0  0
   -7.3427    0.2329    0.0043 H   0  0  0  0  0  0  0  0  0  0  0  0
   -6.0922    0.3850   -1.2251 H   0  0  0  0  0  0  0  0  0  0  0  0
   -5.6967    0.8503    1.7833 H   0  0  0  0  0  0  0  0  0  0  0  0
   -5.3156   -0.6347    0.9173 H   0  0  0  0  0  0  0  0  0  0  0  0
   -4.0345    2.0948    0.3713 H   0  0  0  0  0  0  0  0  0  0  0  0
   -3.6553    0.6187   -0.4978 H   0  0  0  0  0  0  0  0  0  0  0  0
   -1.9910    1.1973    1.2632 H   0  0  0  0  0  0  0  0  0  0  0  0
   -3.2387    1.1592    2.4899 H   0  0  0  0  0  0  0  0  0  0  0  0
   -3.5403   -1.2509    2.2409 H   0  0  0  0  0  0  0  0  0  0  0  0
   -1.8733   -0.8637    2.5737 H   0  0  0  0  0  0  0  0  0  0  0  0
   -3.0653   -1.6564   -0.1296 H   0  0  0  0  0  0  0  0  0  0  0  0
   -2.0464   -2.6373    0.9013 H   0  0  0  0  0  0  0  0  0  0  0  0
   -1.1792   -0.0965   -0.5767 H   0  0  0  0  0  0  0  0  0  0  0  0
   -0.8225   -1.7487   -1.0317 H   0  0  0  0  0  0  0  0  0  0  0  0
    0.1576   -0.3518    1.5140 H   0  0  0  0  0  0  0  0  0  0  0  0
    0.4390   -2.0656    1.1325 H   0  0  0  0  0  0  0  0  0  0  0  0
    2.5034   -0.6010    1.6811 H   0  0  0  0  0  0  0  0  0  0  0  0
    3.4579   -2.6374   -0.8076 H   0  0  0  0  0  0  0  0  0  0  0  0
    3.3826   -1.7468   -2.3527 H   0  0  0  0  0  0  0  0  0  0  0  0
    4.8862   -2.5374   -1.8190 H   0  0  0  0  0  0  0  0  0  0  0  0
    6.0062    1.1246    0.4910 H   0  0  0  0  0  0  0  0  0  0  0  0
    7.9992    2.2874   -0.4418 H   0  0  0  0  0  0  0  0  0  0  0  0
    8.6844    1.7906   -2.7934 H   0  0  0  0  0  0  0  0  0  0  0  0
    5.5707   -0.8371   -3.3244 H   0  0  0  0  0  0  0  0  0  0  0  0
  1  2  1  0
  2  3  1  0
  3  4  1  0
  4  5  1  0
  5  6  1  0
  6  7  1  0
  7  8  1  0
  8  9  1  0
  9 10  1  0
 10 11  2  0
 10 12  1  0
 12 13  1  0
 13 14  2  3
 14 15  1  0
 14 16  1  0
 16 17  2  0
 17 18  1  0
 18 19  2  0
 19 20  1  0
 20 21  2  0
 21 16  1  0
  1 22  1  0
  1 23  1  0
  1 24  1  0
  2 25  1  0
  2 26  1  0
  3 27  1  0
  3 28  1  0
  4 29  1  0
  4 30  1  0
  5 31  1  0
  5 32  1  0
  6 33  1  0
  6 34  1  0
  7 35  1  0
  7 36  1  0
  8 37  1  0
  8 38  1  0
  9 39  1  0
  9 40  1  0
 12 41  1  0
 15 42  1  0
 15 43  1  0
 15 44  1  0
 17 45  1  0
 18 46  1  0
 19 47  1  0
 21 48  1  0
M  END
$$$$
