
     RDKit          3D

 52 55  0  0  0  0  0  0  0  0999 V2000
   -4.3575    2.8281    1.3296 C   0  0  0  0  0  0  0  0  0  0  0  0
   -4.0116    1.9389    0.1740 C   0  0  0  0  0  0  0  0  0  0  0  0
   -3.8663    0.5557    0.3420 C   0  0  0  0  0  0  0  0  0  0  0  0
   -3.5191   -0.2451   -0.7538 C   0  0  0  0  0  0  0  0  0  0  0  0
   -3.3298   -2.0034   -0.5483 S   0  0  0  0  0  6  0  0  0  0  0  0
   -3.8749   -2.6321   -1.7300 O   0  0  0  0  0  0  0  0  0  0  0  0
   -3.7712   -2.3508    0.7839 O   0  0  0  0  0  0  0  0  0  0  0  0
   -1.6657   -2.1945   -0.6085 N   0  0  0  0  0  0  0  0  0  0  0  0
   -0.8443   -1.6135    0.4789 C   0  0  0  0  0  0  0  0  0  0  0  0
    0.6491   -1.5871    0.0264 C   0  0  0  0  0  0  0  0  0  0  0  0
    1.5927   -1.0317    1.0913 C   0  0  0  0  0  0  0  0  0  0  0  0
    1.3068    0.1439    1.8290 C   0  0  0  0  0  0  0  0  0  0  0  0
    2.1944    0.6338    2.7953 C   0  0  0  0  0  0  0  0  0  0  0  0
    3.3596   -0.0646    3.0118 C   0  0  0  0  0  0  0  0  0  0  0  0
    3.6524   -1.2083    2.3124 C   0  0  0  0  0  0  0  0  0  0  0  0
    2.7972   -1.7147    1.3558 C   0  0  0  0  0  0  0  0  0  0  0  0
    4.8471   -1.7469    2.6736 O   0  0  0  0  0  0  0  0  0  0  0  0
    5.2708   -0.8106    3.6869 C   0  0  0  0  0  0  0  0  0  0  0  0
    4.3313    0.2632    3.9035 O   0  0  0  0  0  0  0  0  0  0  0  0
    0.7805   -0.9881   -1.3297 N   0  0  0  0  0  0  0  0  0  0  0  0
    0.5146    0.4561   -1.4515 C   0  0  0  0  0  0  0  0  0  0  0  0
    1.7685    1.2823   -1.7815 C   0  0  0  0  0  0  0  0  0  0  0  0
    2.3912    0.8785   -3.0080 O   0  0  0  0  0  0  0  0  0  0  0  0
    2.2452   -0.5215   -3.2848 C   0  0  0  0  0  0  0  0  0  0  0  0
    2.0301   -1.3659   -2.0188 C   0  0  0  0  0  0  0  0  0  0  0  0
   -3.3369    0.3134   -2.0239 C   0  0  0  0  0  0  0  0  0  0  0  0
   -3.4718    1.6909   -2.1890 C   0  0  0  0  0  0  0  0  0  0  0  0
   -3.7990    2.4889   -1.0946 C   0  0  0  0  0  0  0  0  0  0  0  0
   -3.9124    3.8126   -1.2725 F   0  0  0  0  0  0  0  0  0  0  0  0
   -5.1639    3.5165    1.0553 H   0  0  0  0  0  0  0  0  0  0  0  0
   -3.4792    3.4061    1.6338 H   0  0  0  0  0  0  0  0  0  0  0  0
   -4.7020    2.2465    2.1912 H   0  0  0  0  0  0  0  0  0  0  0  0
   -4.0247    0.1047    1.3203 H   0  0  0  0  0  0  0  0  0  0  0  0
   -1.2711   -2.0378   -1.5406 H   0  0  0  0  0  0  0  0  0  0  0  0
   -0.9550   -2.2267    1.3804 H   0  0  0  0  0  0  0  0  0  0  0  0
   -1.1932   -0.6040    0.7095 H   0  0  0  0  0  0  0  0  0  0  0  0
    0.9008   -2.6525   -0.0923 H   0  0  0  0  0  0  0  0  0  0  0  0
    0.3874    0.6997    1.6633 H   0  0  0  0  0  0  0  0  0  0  0  0
    1.9735    1.5343    3.3576 H   0  0  0  0  0  0  0  0  0  0  0  0
    3.0645   -2.6230    0.8239 H   0  0  0  0  0  0  0  0  0  0  0  0
    5.4071   -1.3525    4.6300 H   0  0  0  0  0  0  0  0  0  0  0  0
    6.2329   -0.3799    3.3862 H   0  0  0  0  0  0  0  0  0  0  0  0
   -0.1882    0.5710   -2.2862 H   0  0  0  0  0  0  0  0  0  0  0  0
    0.0069    0.8737   -0.5787 H   0  0  0  0  0  0  0  0  0  0  0  0
    1.5033    2.3394   -1.8842 H   0  0  0  0  0  0  0  0  0  0  0  0
    2.5111    1.2112   -0.9787 H   0  0  0  0  0  0  0  0  0  0  0  0
    3.1502   -0.8482   -3.8069 H   0  0  0  0  0  0  0  0  0  0  0  0
    1.4065   -0.6443   -3.9802 H   0  0  0  0  0  0  0  0  0  0  0  0
    1.9876   -2.4260   -2.2918 H   0  0  0  0  0  0  0  0  0  0  0  0
    2.8992   -1.2166   -1.3694 H   0  0  0  0  0  0  0  0  0  0  0  0
   -3.0947   -0.3142   -2.8790 H   0  0  0  0  0  0  0  0  0  0  0  0
   -3.3303    2.1501   -3.1629 H   0  0  0  0  0  0  0  0  0  0  0  0
  1  2  1  0
  2  3  2  0
  3  4  1  0
  4  5  1  0
  5  6  2  0
  5  7  2  0
  5  8  1  0
  8  9  1  0
  9 10  1  0
 10 11  1  0
 11 12  2  0
 12 13  1  0
 13 14  2  0
 14 15  1  0
 15 16  2  0
 15 17  1  0
 17 18  1  0
 18 19  1  0
 10 20  1  0
 20 21  1  0
 21 22  1  0
 22 23  1  0
 23 24  1  0
 24 25  1  0
  4 26  2  0
 26 27  1  0
 27 28  2  0
 28 29  1  0
 28  2  1  0
 16 11  1  0
 25 20  1  0
 19 14  1  0
  1 30  1  0
  1 31  1  0
  1 32  1  0
  3 33  1  0
  8 34  1  0
  9 35  1  0
  9 36  1  0
 10 37  1  0
 12 38  1  0
 13 39  1  0
 16 40  1  0
 18 41  1  0
 18 42  1  0
 21 43  1  0
 21 44  1  0
 22 45  1  0
 22 46  1  0
 24 47  1  0
 24 48  1  0
 25 49  1  0
 25 50  1  0
 26 51  1  0
 27 52  1  0
M  END
$$$$
