
     RDKit          3D

 69 72  0  0  0  0  0  0  0  0999 V2000
  -10.8139    3.5957    0.5550 C   0  0  0  0  0  0  0  0  0  0  0  0
   -9.6278    2.6924    0.3920 C   0  0  0  0  0  0  0  0  0  0  0  0
   -9.2632    2.2163   -0.8712 C   0  0  0  0  0  0  0  0  0  0  0  0
   -8.1371    1.3989   -1.0322 C   0  0  0  0  0  0  0  0  0  0  0  0
   -7.3573    1.0425    0.0728 C   0  0  0  0  0  0  0  0  0  0  0  0
   -6.1960    0.2160   -0.0412 N   0  0  0  0  0  0  0  0  0  0  0  0
   -5.2874    0.2287    0.9720 N   0  0  0  0  0  0  0  0  0  0  0  0
   -4.2362   -0.4482    0.5052 C   0  0  0  0  0  0  0  0  0  0  0  0
   -2.9674   -0.6562    1.1905 C   0  0  0  0  0  0  0  0  0  0  0  0
   -2.6937   -0.1703    2.2864 O   0  0  0  0  0  0  0  0  0  0  0  0
   -2.0865   -1.4839    0.4621 N   0  0  0  0  0  0  0  0  0  0  0  0
   -0.7588   -1.7505    1.0001 C   0  0  0  0  0  0  0  0  0  0  0  0
    0.2607   -0.7222    0.5157 C   0  0  0  0  0  0  0  0  0  0  0  0
    1.6273   -0.9641    1.1495 C   0  0  0  0  0  0  0  0  0  0  0  0
    2.6821   -0.0070    0.6272 C   0  0  0  0  0  0  0  0  0  0  0  0
    2.4944    0.7715   -0.2995 O   0  0  0  0  0  0  0  0  0  0  0  0
    3.8887   -0.1370    1.2861 N   0  0  0  0  0  0  0  0  0  0  0  0
    4.9877    0.7825    1.0291 C   0  0  0  0  0  0  0  0  0  0  0  0
    6.3533    0.1086    1.2575 C   0  0  0  0  0  0  0  0  0  0  0  0
    7.4931    1.0412    1.2397 N   0  0  0  0  0  0  0  0  0  0  0  0
    8.7407    0.3679    1.6692 C   0  0  0  0  0  0  0  0  0  0  0  0
    9.3450   -0.6093    0.6314 C   0  0  0  0  0  0  0  0  0  0  0  0
    9.5627    0.0294   -0.6781 N   0  0  0  0  0  0  0  0  0  0  0  0
   10.0539   -0.9341   -1.6586 C   0  0  0  0  0  0  0  0  0  0  0  0
    8.3246    0.6778   -1.1466 C   0  0  0  0  0  0  0  0  0  0  0  0
    7.7354    1.6438   -0.0906 C   0  0  0  0  0  0  0  0  0  0  0  0
   -2.3401   -2.0090   -0.8097 N   0  0  0  0  0  0  0  0  0  0  0  0
   -3.4745   -1.7888   -1.4136 C   0  0  0  0  0  0  0  0  0  0  0  0
   -3.6788   -2.3735   -2.7822 C   0  0  0  0  0  0  0  0  0  0  0  0
   -4.4876   -1.0014   -0.7546 C   0  0  0  0  0  0  0  0  0  0  0  0
   -5.7934   -0.6557   -1.0614 C   0  0  0  0  0  0  0  0  0  0  0  0
   -6.6655   -1.1211   -2.1705 C   0  0  0  0  0  0  0  0  0  0  0  0
   -7.7016    1.5569    1.3340 C   0  0  0  0  0  0  0  0  0  0  0  0
   -8.8275    2.3708    1.4912 C   0  0  0  0  0  0  0  0  0  0  0  0
  -11.2875    3.4442    1.5307 H   0  0  0  0  0  0  0  0  0  0  0  0
  -11.5710    3.3893   -0.2090 H   0  0  0  0  0  0  0  0  0  0  0  0
  -10.5025    4.6415    0.4701 H   0  0  0  0  0  0  0  0  0  0  0  0
   -9.8485    2.4906   -1.7466 H   0  0  0  0  0  0  0  0  0  0  0  0
   -7.8795    1.1082   -2.0431 H   0  0  0  0  0  0  0  0  0  0  0  0
   -0.4620   -2.7608    0.6943 H   0  0  0  0  0  0  0  0  0  0  0  0
   -0.8079   -1.7447    2.0950 H   0  0  0  0  0  0  0  0  0  0  0  0
   -0.0828    0.2919    0.7565 H   0  0  0  0  0  0  0  0  0  0  0  0
    0.3372   -0.7680   -0.5781 H   0  0  0  0  0  0  0  0  0  0  0  0
    1.9651   -1.9851    0.9358 H   0  0  0  0  0  0  0  0  0  0  0  0
    1.5560   -0.8466    2.2372 H   0  0  0  0  0  0  0  0  0  0  0  0
    3.8774   -0.6002    2.1858 H   0  0  0  0  0  0  0  0  0  0  0  0
    4.9060    1.1584    0.0045 H   0  0  0  0  0  0  0  0  0  0  0  0
    4.8565    1.6297    1.7122 H   0  0  0  0  0  0  0  0  0  0  0  0
    6.3149   -0.3675    2.2468 H   0  0  0  0  0  0  0  0  0  0  0  0
    6.4751   -0.7073    0.5349 H   0  0  0  0  0  0  0  0  0  0  0  0
    9.4842    1.1454    1.8912 H   0  0  0  0  0  0  0  0  0  0  0  0
    8.5790   -0.1583    2.6182 H   0  0  0  0  0  0  0  0  0  0  0  0
    8.6900   -1.4842    0.5309 H   0  0  0  0  0  0  0  0  0  0  0  0
   10.3046   -0.9690    1.0221 H   0  0  0  0  0  0  0  0  0  0  0  0
    9.3399   -1.7464   -1.8359 H   0  0  0  0  0  0  0  0  0  0  0  0
   10.2571   -0.4394   -2.6149 H   0  0  0  0  0  0  0  0  0  0  0  0
   10.9999   -1.3740   -1.3240 H   0  0  0  0  0  0  0  0  0  0  0  0
    7.5708   -0.0729   -1.4164 H   0  0  0  0  0  0  0  0  0  0  0  0
    8.5416    1.2563   -2.0528 H   0  0  0  0  0  0  0  0  0  0  0  0
    8.4389    2.4769    0.0454 H   0  0  0  0  0  0  0  0  0  0  0  0
    6.8251    2.1082   -0.4841 H   0  0  0  0  0  0  0  0  0  0  0  0
   -2.7265   -2.7247   -3.1910 H   0  0  0  0  0  0  0  0  0  0  0  0
   -4.0901   -1.6206   -3.4595 H   0  0  0  0  0  0  0  0  0  0  0  0
   -4.3620   -3.2244   -2.7167 H   0  0  0  0  0  0  0  0  0  0  0  0
   -6.3975   -2.1354   -2.4788 H   0  0  0  0  0  0  0  0  0  0  0  0
   -6.5664   -0.4689   -3.0430 H   0  0  0  0  0  0  0  0  0  0  0  0
   -7.7159   -1.1766   -1.8702 H   0  0  0  0  0  0  0  0  0  0  0  0
   -7.1041    1.3251    2.2151 H   0  0  0  0  0  0  0  0  0  0  0  0
   -9.0701    2.7521    2.4808 H   0  0  0  0  0  0  0  0  0  0  0  0
  1  2  1  0
  2  3  2  0
  3  4  1  0
  4  5  2  0
  5  6  1  0
  6  7  1  0
  7  8  2  0
  8  9  1  0
  9 10  2  0
  9 11  1  0
 11 12  1  0
 12 13  1  0
 13 14  1  0
 14 15  1  0
 15 16  2  0
 15 17  1  0
 17 18  1  0
 18 19  1  0
 19 20  1  0
 20 21  1  0
 21 22  1  0
 22 23  1  0
 23 24  1  0
 23 25  1  0
 25 26  1  0
 11 27  1  0
 27 28  2  0
 28 29  1  0
 28 30  1  0
 30 31  2  0
 31 32  1  0
  5 33  1  0
 33 34  2  0
 34  2  1  0
 31  6  1  0
 30  8  1  0
 26 20  1  0
  1 35  1  0
  1 36  1  0
  1 37  1  0
  3 38  1  0
  4 39  1  0
 12 40  1  0
 12 41  1  0
 13 42  1  0
 13 43  1  0
 14 44  1  0
 14 45  1  0
 17 46  1  0
 18 47  1  0
 18 48  1  0
 19 49  1  0
 19 50  1  0
 21 51  1  0
 21 52  1  0
 22 53  1  0
 22 54  1  0
 24 55  1  0
 24 56  1  0
 24 57  1  0
 25 58  1  0
 25 59  1  0
 26 60  1  0
 26 61  1  0
 29 62  1  0
 29 63  1  0
 29 64  1  0
 32 65  1  0
 32 66  1  0
 32 67  1  0
 33 68  1  0
 34 69  1  0
M  END
$$$$
