
     RDKit          3D

 44 47  0  0  0  0  0  0  0  0999 V2000
    1.3202    0.5859    0.3465 O   0  0  0  0  0  0  0  0  0  0  0  0
    0.7077    0.0234   -0.5693 C   0  0  0  0  0  0  0  0  0  0  0  0
    1.4635   -0.4290   -1.8122 C   0  0  0  0  0  0  0  0  0  0  0  0
    2.3806   -1.9504   -1.4449 S   0  0  0  0  0  0  0  0  0  0  0  0
    3.8524   -1.3297   -0.7885 C   0  0  0  0  0  0  0  0  0  0  0  0
    5.0589   -1.6592   -1.1797 N   0  0  0  0  0  0  0  0  0  0  0  0
    5.9030   -0.9432   -0.3652 C   0  0  0  0  0  0  0  0  0  0  0  0
    7.3036   -0.9041   -0.3447 C   0  0  0  0  0  0  0  0  0  0  0  0
    7.9244   -0.0765    0.5955 C   0  0  0  0  0  0  0  0  0  0  0  0
    9.6459   -0.0041    0.6464 Cl  0  0  0  0  0  0  0  0  0  0  0  0
    7.1816    0.6944    1.4944 C   0  0  0  0  0  0  0  0  0  0  0  0
    5.7821    0.6655    1.4871 C   0  0  0  0  0  0  0  0  0  0  0  0
    5.1836   -0.1682    0.5413 C   0  0  0  0  0  0  0  0  0  0  0  0
    3.8712   -0.4448    0.2518 N   0  0  0  0  0  0  0  0  0  0  0  0
   -0.6529   -0.2252   -0.4885 N   0  0  0  0  0  0  0  0  0  0  0  0
   -1.3962    0.2594    0.6781 C   0  0  0  0  0  0  0  0  0  0  0  0
   -2.8466    0.6312    0.3370 C   0  0  0  0  0  0  0  0  0  0  0  0
   -3.5685   -0.4330   -0.3717 N   0  0  0  0  0  0  0  0  0  0  0  0
   -4.9636   -0.5498   -0.4256 C   0  0  0  0  0  0  0  0  0  0  0  0
   -5.4718   -1.6012   -0.8236 O   0  0  0  0  0  0  0  0  0  0  0  0
   -5.8050    0.5660   -0.0146 C   0  0  0  0  0  0  0  0  0  0  0  0
   -7.1668    0.5938    0.2391 C   0  0  0  0  0  0  0  0  0  0  0  0
   -7.5035    1.9286    0.5647 C   0  0  0  0  0  0  0  0  0  0  0  0
   -6.3353    2.6451    0.4766 C   0  0  0  0  0  0  0  0  0  0  0  0
   -5.3061    1.8354    0.1205 O   0  0  0  0  0  0  0  0  0  0  0  0
   -2.7583   -1.5312   -0.9002 C   0  0  0  0  0  0  0  0  0  0  0  0
   -1.4054   -1.0508   -1.4431 C   0  0  0  0  0  0  0  0  0  0  0  0
    0.7925   -0.6045   -2.6552 H   0  0  0  0  0  0  0  0  0  0  0  0
    2.1401    0.3748   -2.1229 H   0  0  0  0  0  0  0  0  0  0  0  0
    7.8743   -1.5034   -1.0442 H   0  0  0  0  0  0  0  0  0  0  0  0
    7.6933    1.3293    2.2148 H   0  0  0  0  0  0  0  0  0  0  0  0
    5.1992    1.2603    2.1822 H   0  0  0  0  0  0  0  0  0  0  0  0
    3.0545   -0.0455    0.7007 H   0  0  0  0  0  0  0  0  0  0  0  0
   -1.3798   -0.5494    1.4190 H   0  0  0  0  0  0  0  0  0  0  0  0
   -0.8906    1.1226    1.1238 H   0  0  0  0  0  0  0  0  0  0  0  0
   -2.8475    1.5071   -0.3220 H   0  0  0  0  0  0  0  0  0  0  0  0
   -3.3768    0.8807    1.2614 H   0  0  0  0  0  0  0  0  0  0  0  0
   -7.8274   -0.2617    0.1870 H   0  0  0  0  0  0  0  0  0  0  0  0
   -8.4777    2.3208    0.8215 H   0  0  0  0  0  0  0  0  0  0  0  0
   -6.0832    3.6864    0.6233 H   0  0  0  0  0  0  0  0  0  0  0  0
   -2.6041   -2.2369   -0.0747 H   0  0  0  0  0  0  0  0  0  0  0  0
   -3.2996   -2.0622   -1.6904 H   0  0  0  0  0  0  0  0  0  0  0  0
   -0.8017   -1.9157   -1.7337 H   0  0  0  0  0  0  0  0  0  0  0  0
   -1.5643   -0.4308   -2.3333 H   0  0  0  0  0  0  0  0  0  0  0  0
  1  2  2  0
  2  3  1  0
  3  4  1  0
  4  5  1  0
  5  6  2  0
  6  7  1  0
  7  8  2  0
  8  9  1  0
  9 10  1  0
  9 11  2  0
 11 12  1  0
 12 13  2  0
 13 14  1  0
  2 15  1  0
 15 16  1  0
 16 17  1  0
 17 18  1  0
 18 19  1  0
 19 20  2  0
 19 21  1  0
 21 22  2  0
 22 23  1  0
 23 24  2  0
 24 25  1  0
 18 26  1  0
 26 27  1  0
 14  5  1  0
 27 15  1  0
 13  7  1  0
 25 21  1  0
  3 28  1  0
  3 29  1  0
  8 30  1  0
 11 31  1  0
 12 32  1  0
 14 33  1  0
 16 34  1  0
 16 35  1  0
 17 36  1  0
 17 37  1  0
 22 38  1  0
 23 39  1  0
 24 40  1  0
 26 41  1  0
 26 42  1  0
 27 43  1  0
 27 44  1  0
M  END
$$$$
