
     RDKit          3D

 66 69  0  0  0  0  0  0  0  0999 V2000
   -2.1612    7.7004   -0.3516 C   0  0  0  0  0  0  0  0  0  0  0  0
   -1.7732    6.3551   -0.0691 O   0  0  0  0  0  0  0  0  0  0  0  0
   -1.2942    5.6828   -1.1467 C   0  0  0  0  0  0  0  0  0  0  0  0
   -1.1746    6.1324   -2.2759 O   0  0  0  0  0  0  0  0  0  0  0  0
   -0.9430    4.2848   -0.7781 C   0  0  0  0  0  0  0  0  0  0  0  0
   -0.6170    3.3908   -1.8045 C   0  0  0  0  0  0  0  0  0  0  0  0
   -0.2853    2.0653   -1.5105 C   0  0  0  0  0  0  0  0  0  0  0  0
   -0.2653    1.6122   -0.1833 C   0  0  0  0  0  0  0  0  0  0  0  0
    0.0791    0.1631    0.1119 C   0  0  0  0  0  0  0  0  0  0  0  0
   -1.1662   -0.6334    0.5577 C   0  0  0  0  0  0  0  0  0  0  0  0
   -1.8716   -1.2838   -0.6054 C   0  0  0  0  0  0  0  0  0  0  0  0
   -1.2772   -1.5389   -1.6521 O   0  0  0  0  0  0  0  0  0  0  0  0
   -3.3244   -1.6221   -0.4978 C   0  0  0  0  0  0  0  0  0  0  0  0
   -4.0044   -1.9906   -1.6657 C   0  0  0  0  0  0  0  0  0  0  0  0
   -5.3649   -2.2968   -1.6234 C   0  0  0  0  0  0  0  0  0  0  0  0
   -6.0601   -2.2368   -0.4145 C   0  0  0  0  0  0  0  0  0  0  0  0
   -5.3930   -1.8802    0.7573 C   0  0  0  0  0  0  0  0  0  0  0  0
   -5.9524   -1.7810    2.0021 O   0  0  0  0  0  0  0  0  0  0  0  0
   -7.3311   -2.1120    2.1180 C   0  0  0  0  0  0  0  0  0  0  0  0
   -4.0261   -1.5800    0.7124 C   0  0  0  0  0  0  0  0  0  0  0  0
   -0.5554   -1.6164    1.5011 C   0  0  0  0  0  0  0  0  0  0  0  0
   -1.0751   -2.6259    1.9370 O   0  0  0  0  0  0  0  0  0  0  0  0
    0.8277   -1.1308    1.9096 C   0  0  0  0  0  0  0  0  0  0  0  0
    1.5431   -1.6796    2.7193 O   0  0  0  0  0  0  0  0  0  0  0  0
    1.0715    0.0101    1.1730 N   0  0  0  0  0  0  0  0  0  0  0  0
    2.3961    0.6192    1.1163 C   0  0  0  0  0  0  0  0  0  0  0  0
    3.2899    0.1251   -0.0262 C   0  0  0  0  0  0  0  0  0  0  0  0
    3.6669   -1.3572    0.1013 C   0  0  0  0  0  0  0  0  0  0  0  0
    4.5283   -1.7965   -1.0096 N   0  0  0  0  0  0  0  0  0  0  0  0
    4.5423   -3.2749   -1.1257 C   0  0  0  0  0  0  0  0  0  0  0  0
    5.3579   -3.9810   -0.0296 C   0  0  0  0  0  0  0  0  0  0  0  0
    6.7097   -3.5054   -0.0029 O   0  0  0  0  0  0  0  0  0  0  0  0
    6.7419   -2.0883    0.2022 C   0  0  0  0  0  0  0  0  0  0  0  0
    5.9327   -1.3436   -0.8757 C   0  0  0  0  0  0  0  0  0  0  0  0
   -0.5950    2.5134    0.8427 C   0  0  0  0  0  0  0  0  0  0  0  0
   -0.9324    3.8383    0.5492 C   0  0  0  0  0  0  0  0  0  0  0  0
   -2.9624    7.7186   -1.0979 H   0  0  0  0  0  0  0  0  0  0  0  0
   -1.3002    8.2851   -0.6910 H   0  0  0  0  0  0  0  0  0  0  0  0
   -2.5414    8.1453    0.5730 H   0  0  0  0  0  0  0  0  0  0  0  0
   -0.6194    3.7232   -2.8420 H   0  0  0  0  0  0  0  0  0  0  0  0
   -0.0429    1.3896   -2.3311 H   0  0  0  0  0  0  0  0  0  0  0  0
    0.5362   -0.2874   -0.7783 H   0  0  0  0  0  0  0  0  0  0  0  0
   -1.8478    0.0102    1.1224 H   0  0  0  0  0  0  0  0  0  0  0  0
   -3.4798   -2.0409   -2.6187 H   0  0  0  0  0  0  0  0  0  0  0  0
   -5.8839   -2.5819   -2.5358 H   0  0  0  0  0  0  0  0  0  0  0  0
   -7.1178   -2.4785   -0.4214 H   0  0  0  0  0  0  0  0  0  0  0  0
   -7.9505   -1.4353    1.5206 H   0  0  0  0  0  0  0  0  0  0  0  0
   -7.6179   -1.9854    3.1662 H   0  0  0  0  0  0  0  0  0  0  0  0
   -7.5097   -3.1569    1.8465 H   0  0  0  0  0  0  0  0  0  0  0  0
   -3.5374   -1.3355    1.6509 H   0  0  0  0  0  0  0  0  0  0  0  0
    2.8991    0.4392    2.0738 H   0  0  0  0  0  0  0  0  0  0  0  0
    2.2627    1.7024    1.0276 H   0  0  0  0  0  0  0  0  0  0  0  0
    2.7969    0.2987   -0.9906 H   0  0  0  0  0  0  0  0  0  0  0  0
    4.1939    0.7445   -0.0192 H   0  0  0  0  0  0  0  0  0  0  0  0
    4.1201   -1.5519    1.0796 H   0  0  0  0  0  0  0  0  0  0  0  0
    2.7356   -1.9344    0.0615 H   0  0  0  0  0  0  0  0  0  0  0  0
    4.9855   -3.5205   -2.0997 H   0  0  0  0  0  0  0  0  0  0  0  0
    3.5200   -3.6703   -1.1514 H   0  0  0  0  0  0  0  0  0  0  0  0
    5.3933   -5.0559   -0.2342 H   0  0  0  0  0  0  0  0  0  0  0  0
    4.9074   -3.8485    0.9606 H   0  0  0  0  0  0  0  0  0  0  0  0
    7.7901   -1.7752    0.1543 H   0  0  0  0  0  0  0  0  0  0  0  0
    6.3804   -1.8620    1.2114 H   0  0  0  0  0  0  0  0  0  0  0  0
    6.4179   -1.5165   -1.8456 H   0  0  0  0  0  0  0  0  0  0  0  0
    5.9899   -0.2642   -0.7049 H   0  0  0  0  0  0  0  0  0  0  0  0
   -0.5877    2.1939    1.8842 H   0  0  0  0  0  0  0  0  0  0  0  0
   -1.1743    4.5130    1.3666 H   0  0  0  0  0  0  0  0  0  0  0  0
  1  2  1  0
  2  3  1  0
  3  4  2  0
  3  5  1  0
  5  6  2  0
  6  7  1  0
  7  8  2  0
  8  9  1  0
  9 10  1  0
 10 11  1  0
 11 12  2  0
 11 13  1  0
 13 14  2  0
 14 15  1  0
 15 16  2  0
 16 17  1  0
 17 18  1  0
 18 19  1  0
 17 20  2  0
 10 21  1  0
 21 22  2  0
 21 23  1  0
 23 24  2  0
 23 25  1  0
 25 26  1  0
 26 27  1  0
 27 28  1  0
 28 29  1  0
 29 30  1  0
 30 31  1  0
 31 32  1  0
 32 33  1  0
 33 34  1  0
  8 35  1  0
 35 36  2  0
 36  5  1  0
 25  9  1  0
 34 29  1  0
 20 13  1  0
  1 37  1  0
  1 38  1  0
  1 39  1  0
  6 40  1  0
  7 41  1  0
  9 42  1  0
 10 43  1  0
 14 44  1  0
 15 45  1  0
 16 46  1  0
 19 47  1  0
 19 48  1  0
 19 49  1  0
 20 50  1  0
 26 51  1  0
 26 52  1  0
 27 53  1  0
 27 54  1  0
 28 55  1  0
 28 56  1  0
 30 57  1  0
 30 58  1  0
 31 59  1  0
 31 60  1  0
 33 61  1  0
 33 62  1  0
 34 63  1  0
 34 64  1  0
 35 65  1  0
 36 66  1  0
M  END
$$$$
