
     RDKit          3D

 53 56  0  0  0  0  0  0  0  0999 V2000
   -0.2734    0.4170    2.8805 C   0  0  0  0  0  0  0  0  0  0  0  0
   -0.7916   -0.1413    1.5811 C   0  0  0  0  0  0  0  0  0  0  0  0
   -0.0371   -1.0652    0.8398 C   0  0  0  0  0  0  0  0  0  0  0  0
    1.1791   -1.4062    1.3659 O   0  0  0  0  0  0  0  0  0  0  0  0
    2.1618   -2.0095    0.5198 C   0  0  0  0  0  0  0  0  0  0  0  0
    2.1331   -3.5225    0.7010 C   0  0  0  0  0  0  0  0  0  0  0  0
    3.5450   -1.4507    0.9051 C   0  0  0  0  0  0  0  0  0  0  0  0
    4.5745   -2.1218    0.8878 O   0  0  0  0  0  0  0  0  0  0  0  0
    3.5408   -0.1037    1.1919 N   0  0  0  0  0  0  0  0  0  0  0  0
    4.7581    0.6497    1.3964 C   0  0  0  0  0  0  0  0  0  0  0  0
    5.2406    1.2709    0.1067 C   0  0  0  0  0  0  0  0  0  0  0  0
    6.1243    0.5787   -0.7193 C   0  0  0  0  0  0  0  0  0  0  0  0
    6.5242    1.1640   -1.9169 C   0  0  0  0  0  0  0  0  0  0  0  0
    6.0280    2.4150   -2.2620 C   0  0  0  0  0  0  0  0  0  0  0  0
    5.1427    3.0301   -1.3933 C   0  0  0  0  0  0  0  0  0  0  0  0
    4.7332    2.4869   -0.2256 N   0  0  0  0  0  0  0  0  0  0  0  0
   -0.5682   -1.5957   -0.3373 C   0  0  0  0  0  0  0  0  0  0  0  0
   -1.8396   -1.2134   -0.7863 C   0  0  0  0  0  0  0  0  0  0  0  0
   -2.6201   -0.3080   -0.0614 C   0  0  0  0  0  0  0  0  0  0  0  0
   -3.9675    0.1184   -0.4777 C   0  0  0  0  0  0  0  0  0  0  0  0
   -4.6289    1.0273    0.2651 C   0  0  0  0  0  0  0  0  0  0  0  0
   -4.0654    1.5762    1.5229 C   0  0  0  0  0  0  0  0  0  0  0  0
   -4.6803    2.3860    2.2086 O   0  0  0  0  0  0  0  0  0  0  0  0
   -2.8123    1.1236    1.8943 O   0  0  0  0  0  0  0  0  0  0  0  0
   -2.0742    0.2084    1.1146 C   0  0  0  0  0  0  0  0  0  0  0  0
   -5.9859    1.5695   -0.1093 C   0  0  0  0  0  0  0  0  0  0  0  0
   -6.3846    1.2633   -1.5522 C   0  0  0  0  0  0  0  0  0  0  0  0
   -6.0692   -0.1828   -1.8986 C   0  0  0  0  0  0  0  0  0  0  0  0
   -4.5762   -0.4751   -1.7293 C   0  0  0  0  0  0  0  0  0  0  0  0
   -0.5618   -0.2389    3.7077 H   0  0  0  0  0  0  0  0  0  0  0  0
   -0.6647    1.4214    3.0720 H   0  0  0  0  0  0  0  0  0  0  0  0
    0.8169    0.5159    2.8699 H   0  0  0  0  0  0  0  0  0  0  0  0
    2.0273   -1.7365   -0.5342 H   0  0  0  0  0  0  0  0  0  0  0  0
    2.3529   -3.7926    1.7403 H   0  0  0  0  0  0  0  0  0  0  0  0
    2.8699   -4.0151    0.0585 H   0  0  0  0  0  0  0  0  0  0  0  0
    1.1449   -3.9326    0.4719 H   0  0  0  0  0  0  0  0  0  0  0  0
    2.6829    0.4175    1.0537 H   0  0  0  0  0  0  0  0  0  0  0  0
    5.5344    0.0119    1.8333 H   0  0  0  0  0  0  0  0  0  0  0  0
    4.5313    1.4402    2.1200 H   0  0  0  0  0  0  0  0  0  0  0  0
    6.4892   -0.4054   -0.4380 H   0  0  0  0  0  0  0  0  0  0  0  0
    7.2145    0.6447   -2.5754 H   0  0  0  0  0  0  0  0  0  0  0  0
    6.3210    2.8978   -3.1873 H   0  0  0  0  0  0  0  0  0  0  0  0
    4.7246    4.0065   -1.6206 H   0  0  0  0  0  0  0  0  0  0  0  0
   -0.0307   -2.3306   -0.9283 H   0  0  0  0  0  0  0  0  0  0  0  0
   -2.1987   -1.6536   -1.7129 H   0  0  0  0  0  0  0  0  0  0  0  0
   -6.0146    2.6577    0.0244 H   0  0  0  0  0  0  0  0  0  0  0  0
   -6.7321    1.1401    0.5712 H   0  0  0  0  0  0  0  0  0  0  0  0
   -5.8450    1.9311   -2.2358 H   0  0  0  0  0  0  0  0  0  0  0  0
   -7.4535    1.4610   -1.6902 H   0  0  0  0  0  0  0  0  0  0  0  0
   -6.6506   -0.8496   -1.2489 H   0  0  0  0  0  0  0  0  0  0  0  0
   -6.3726   -0.3999   -2.9290 H   0  0  0  0  0  0  0  0  0  0  0  0
   -4.0365   -0.0824   -2.6007 H   0  0  0  0  0  0  0  0  0  0  0  0
   -4.4596   -1.5654   -1.7341 H   0  0  0  0  0  0  0  0  0  0  0  0
  1  2  1  0
  2  3  2  0
  3  4  1  0
  4  5  1  0
  5  6  1  0
  5  7  1  0
  7  8  2  0
  7  9  1  0
  9 10  1  0
 10 11  1  0
 11 12  2  0
 12 13  1  0
 13 14  2  0
 14 15  1  0
 15 16  2  0
  3 17  1  0
 17 18  2  0
 18 19  1  0
 19 20  1  0
 20 21  2  0
 21 22  1  0
 22 23  2  0
 22 24  1  0
 24 25  1  0
 21 26  1  0
 26 27  1  0
 27 28  1  0
 28 29  1  0
 25  2  1  0
 16 11  1  0
 25 19  2  0
 29 20  1  0
  1 30  1  0
  1 31  1  0
  1 32  1  0
  5 33  1  0
  6 34  1  0
  6 35  1  0
  6 36  1  0
  9 37  1  0
 10 38  1  0
 10 39  1  0
 12 40  1  0
 13 41  1  0
 14 42  1  0
 15 43  1  0
 17 44  1  0
 18 45  1  0
 26 46  1  0
 26 47  1  0
 27 48  1  0
 27 49  1  0
 28 50  1  0
 28 51  1  0
 29 52  1  0
 29 53  1  0
M  END
$$$$
