
     RDKit          3D

 47 49  0  0  0  0  0  0  0  0999 V2000
    8.1538   -2.0034   -1.9658 C   0  0  0  0  0  0  0  0  0  0  0  0
    7.2336   -1.1823   -2.6741 O   0  0  0  0  0  0  0  0  0  0  0  0
    5.9707   -1.0876   -2.1599 C   0  0  0  0  0  0  0  0  0  0  0  0
    5.0861   -0.3201   -2.9171 C   0  0  0  0  0  0  0  0  0  0  0  0
    3.7620   -0.1429   -2.5037 C   0  0  0  0  0  0  0  0  0  0  0  0
    3.2957   -0.7461   -1.3311 C   0  0  0  0  0  0  0  0  0  0  0  0
    1.9571   -0.4931   -0.9635 N   0  0  0  0  0  0  0  0  0  0  0  0
    1.0851   -1.1871   -0.1331 C   0  0  0  0  0  0  0  0  0  0  0  0
    1.2238   -2.8151    0.2668 S   0  0  0  0  0  0  0  0  0  0  0  0
   -0.0015   -0.3740    0.2690 N   0  0  0  0  0  0  0  0  0  0  0  0
    0.1916    1.0531    0.5627 C   0  0  0  0  0  0  0  0  0  0  0  0
   -0.9976    1.8756    0.0757 C   0  0  0  0  0  0  0  0  0  0  0  0
   -2.3021    1.3126    0.5779 C   0  0  0  0  0  0  0  0  0  0  0  0
   -3.4451    2.1258    0.6214 C   0  0  0  0  0  0  0  0  0  0  0  0
   -4.6711    1.6152    1.0620 C   0  0  0  0  0  0  0  0  0  0  0  0
   -5.8322    2.3441    1.1418 O   0  0  0  0  0  0  0  0  0  0  0  0
   -5.7863    3.7067    0.7457 C   0  0  0  0  0  0  0  0  0  0  0  0
   -4.7594    0.2669    1.4575 C   0  0  0  0  0  0  0  0  0  0  0  0
   -5.9949   -0.1575    1.8812 O   0  0  0  0  0  0  0  0  0  0  0  0
   -6.1331   -1.5196    2.2579 C   0  0  0  0  0  0  0  0  0  0  0  0
   -3.6208   -0.5453    1.4006 C   0  0  0  0  0  0  0  0  0  0  0  0
   -2.3897   -0.0365    0.9530 C   0  0  0  0  0  0  0  0  0  0  0  0
   -1.1863   -0.9561    0.9182 C   0  0  0  0  0  0  0  0  0  0  0  0
    4.1912   -1.4877   -0.5606 C   0  0  0  0  0  0  0  0  0  0  0  0
    5.5192   -1.6656   -0.9754 C   0  0  0  0  0  0  0  0  0  0  0  0
    8.3520   -1.6013   -0.9668 H   0  0  0  0  0  0  0  0  0  0  0  0
    9.0982   -2.0006   -2.5187 H   0  0  0  0  0  0  0  0  0  0  0  0
    7.8017   -3.0390   -1.9134 H   0  0  0  0  0  0  0  0  0  0  0  0
    5.4294    0.1430   -3.8389 H   0  0  0  0  0  0  0  0  0  0  0  0
    3.1029    0.4593   -3.1229 H   0  0  0  0  0  0  0  0  0  0  0  0
    1.4757    0.1809   -1.5449 H   0  0  0  0  0  0  0  0  0  0  0  0
    1.1143    1.4475    0.1286 H   0  0  0  0  0  0  0  0  0  0  0  0
    0.3046    1.1415    1.6515 H   0  0  0  0  0  0  0  0  0  0  0  0
   -0.8767    2.9113    0.4134 H   0  0  0  0  0  0  0  0  0  0  0  0
   -1.0240    1.8755   -1.0209 H   0  0  0  0  0  0  0  0  0  0  0  0
   -3.3512    3.1597    0.3053 H   0  0  0  0  0  0  0  0  0  0  0  0
   -6.7891    4.1259    0.8725 H   0  0  0  0  0  0  0  0  0  0  0  0
   -5.1041    4.2805    1.3816 H   0  0  0  0  0  0  0  0  0  0  0  0
   -5.5181    3.8023   -0.3116 H   0  0  0  0  0  0  0  0  0  0  0  0
   -7.1752   -1.6817    2.5499 H   0  0  0  0  0  0  0  0  0  0  0  0
   -5.9166   -2.1868    1.4171 H   0  0  0  0  0  0  0  0  0  0  0  0
   -5.5057   -1.7553    3.1237 H   0  0  0  0  0  0  0  0  0  0  0  0
   -3.6637   -1.5885    1.6988 H   0  0  0  0  0  0  0  0  0  0  0  0
   -1.4670   -1.8709    0.3845 H   0  0  0  0  0  0  0  0  0  0  0  0
   -0.9083   -1.2118    1.9482 H   0  0  0  0  0  0  0  0  0  0  0  0
    3.8987   -1.9174    0.3917 H   0  0  0  0  0  0  0  0  0  0  0  0
    6.1723   -2.2541   -0.3397 H   0  0  0  0  0  0  0  0  0  0  0  0
  1  2  1  0
  2  3  1  0
  3  4  2  0
  4  5  1  0
  5  6  2  0
  6  7  1  0
  7  8  1  0
  8  9  2  0
  8 10  1  0
 10 11  1  0
 11 12  1  0
 12 13  1  0
 13 14  2  0
 14 15  1  0
 15 16  1  0
 16 17  1  0
 15 18  2  0
 18 19  1  0
 19 20  1  0
 18 21  1  0
 21 22  2  0
 22 23  1  0
  6 24  1  0
 24 25  2  0
 25  3  1  0
 23 10  1  0
 22 13  1  0
  1 26  1  0
  1 27  1  0
  1 28  1  0
  4 29  1  0
  5 30  1  0
  7 31  1  0
 11 32  1  0
 11 33  1  0
 12 34  1  0
 12 35  1  0
 14 36  1  0
 17 37  1  0
 17 38  1  0
 17 39  1  0
 20 40  1  0
 20 41  1  0
 20 42  1  0
 21 43  1  0
 23 44  1  0
 23 45  1  0
 24 46  1  0
 25 47  1  0
M  END
$$$$
