
     RDKit          3D

 58 62  0  0  0  0  0  0  0  0999 V2000
   -2.9515    2.0901   -2.0007 C   0  0  0  0  0  0  0  0  0  0  0  0
   -3.0575    0.9912   -1.1025 O   0  0  0  0  0  0  0  0  0  0  0  0
   -4.3337    0.7313   -0.6828 C   0  0  0  0  0  0  0  0  0  0  0  0
   -5.1812    1.7454   -0.2240 C   0  0  0  0  0  0  0  0  0  0  0  0
   -6.4598    1.4362    0.2263 C   0  0  0  0  0  0  0  0  0  0  0  0
   -6.8940    0.1124    0.2495 C   0  0  0  0  0  0  0  0  0  0  0  0
   -6.0426   -0.9042   -0.1913 C   0  0  0  0  0  0  0  0  0  0  0  0
   -4.7570   -0.6093   -0.6669 C   0  0  0  0  0  0  0  0  0  0  0  0
   -3.8973   -1.7314   -1.2108 C   0  0  0  0  0  0  0  0  0  0  0  0
   -2.6772   -1.9729   -0.4511 N   0  0  0  0  0  0  0  0  0  0  0  0
   -2.7649   -2.5317    0.8145 C   0  0  0  0  0  0  0  0  0  0  0  0
   -3.8209   -2.9068    1.3182 O   0  0  0  0  0  0  0  0  0  0  0  0
   -1.5027   -2.6880    1.5960 C   0  0  0  0  0  0  0  0  0  0  0  0
   -1.5942   -3.1422    2.9210 C   0  0  0  0  0  0  0  0  0  0  0  0
   -0.4436   -3.2896    3.6939 C   0  0  0  0  0  0  0  0  0  0  0  0
    0.7992   -3.0002    3.1403 C   0  0  0  0  0  0  0  0  0  0  0  0
    0.9036   -2.5555    1.8171 C   0  0  0  0  0  0  0  0  0  0  0  0
   -0.2490   -2.3818    1.0406 C   0  0  0  0  0  0  0  0  0  0  0  0
   -0.2493   -1.8943   -0.2889 N   0  0  0  0  0  0  0  0  0  0  0  0
    0.7270   -1.4810   -1.1789 C   0  0  0  0  0  0  0  0  0  0  0  0
    2.4353   -1.4096   -0.9072 S   0  0  0  0  0  0  0  0  0  0  0  0
    2.9424   -0.3541   -2.3040 C   0  0  0  0  0  0  0  0  0  0  0  0
    4.3601    0.1454   -2.0871 C   0  0  0  0  0  0  0  0  0  0  0  0
    5.3049   -0.4332   -2.6303 O   0  0  0  0  0  0  0  0  0  0  0  0
    4.5600    1.2663   -1.2879 N   0  0  0  0  0  0  0  0  0  0  0  0
    3.5278    1.9940   -0.5535 C   0  0  0  0  0  0  0  0  0  0  0  0
    3.9248    2.1823    0.9118 C   0  0  0  0  0  0  0  0  0  0  0  0
    5.3228    2.7774    1.0893 C   0  0  0  0  0  0  0  0  0  0  0  0
    6.0636    2.9621   -0.2341 C   0  0  0  0  0  0  0  0  0  0  0  0
    5.9368    1.7309   -1.1230 C   0  0  0  0  0  0  0  0  0  0  0  0
    0.1769   -1.0986   -2.3075 N   0  0  0  0  0  0  0  0  0  0  0  0
   -1.1733   -1.2428   -2.1906 N   0  0  0  0  0  0  0  0  0  0  0  0
   -1.4301   -1.7018   -0.9864 C   0  0  0  0  0  0  0  0  0  0  0  0
   -3.0090    3.0384   -1.4663 H   0  0  0  0  0  0  0  0  0  0  0  0
   -3.7105    2.0413   -2.7960 H   0  0  0  0  0  0  0  0  0  0  0  0
   -1.9654    2.0396   -2.4741 H   0  0  0  0  0  0  0  0  0  0  0  0
   -4.8532    2.7799   -0.1947 H   0  0  0  0  0  0  0  0  0  0  0  0
   -7.1096    2.2277    0.5777 H   0  0  0  0  0  0  0  0  0  0  0  0
   -7.8891   -0.1338    0.6120 H   0  0  0  0  0  0  0  0  0  0  0  0
   -6.3908   -1.9353   -0.1584 H   0  0  0  0  0  0  0  0  0  0  0  0
   -4.4674   -2.6684   -1.2269 H   0  0  0  0  0  0  0  0  0  0  0  0
   -3.6642   -1.5077   -2.2580 H   0  0  0  0  0  0  0  0  0  0  0  0
   -2.5653   -3.3720    3.3588 H   0  0  0  0  0  0  0  0  0  0  0  0
   -0.5153   -3.6265    4.7269 H   0  0  0  0  0  0  0  0  0  0  0  0
    1.7022   -3.1187    3.7450 H   0  0  0  0  0  0  0  0  0  0  0  0
    1.9061   -2.3537    1.4612 H   0  0  0  0  0  0  0  0  0  0  0  0
    2.2692    0.4974   -2.4592 H   0  0  0  0  0  0  0  0  0  0  0  0
    2.9221   -0.9458   -3.2258 H   0  0  0  0  0  0  0  0  0  0  0  0
    2.5633    1.4896   -0.5929 H   0  0  0  0  0  0  0  0  0  0  0  0
    3.3957    2.9605   -1.0481 H   0  0  0  0  0  0  0  0  0  0  0  0
    3.8932    1.2093    1.4219 H   0  0  0  0  0  0  0  0  0  0  0  0
    3.1794    2.8177    1.4097 H   0  0  0  0  0  0  0  0  0  0  0  0
    5.9069    2.1229    1.7468 H   0  0  0  0  0  0  0  0  0  0  0  0
    5.2526    3.7436    1.6024 H   0  0  0  0  0  0  0  0  0  0  0  0
    5.6526    3.8431   -0.7505 H   0  0  0  0  0  0  0  0  0  0  0  0
    7.1212    3.1774   -0.0413 H   0  0  0  0  0  0  0  0  0  0  0  0
    6.5192    0.8997   -0.7061 H   0  0  0  0  0  0  0  0  0  0  0  0
    6.3507    1.9380   -2.1155 H   0  0  0  0  0  0  0  0  0  0  0  0
  1  2  1  0
  2  3  1  0
  3  4  2  0
  4  5  1  0
  5  6  2  0
  6  7  1  0
  7  8  2  0
  8  9  1  0
  9 10  1  0
 10 11  1  0
 11 12  2  0
 11 13  1  0
 13 14  2  0
 14 15  1  0
 15 16  2  0
 16 17  1  0
 17 18  2  0
 18 19  1  0
 19 20  1  0
 20 21  1  0
 21 22  1  0
 22 23  1  0
 23 24  2  0
 23 25  1  0
 25 26  1  0
 26 27  1  0
 27 28  1  0
 28 29  1  0
 29 30  1  0
 20 31  2  0
 31 32  1  0
 32 33  2  0
  8  3  1  0
 33 10  1  0
 18 13  1  0
 33 19  1  0
 30 25  1  0
  1 34  1  0
  1 35  1  0
  1 36  1  0
  4 37  1  0
  5 38  1  0
  6 39  1  0
  7 40  1  0
  9 41  1  0
  9 42  1  0
 14 43  1  0
 15 44  1  0
 16 45  1  0
 17 46  1  0
 22 47  1  0
 22 48  1  0
 26 49  1  0
 26 50  1  0
 27 51  1  0
 27 52  1  0
 28 53  1  0
 28 54  1  0
 29 55  1  0
 29 56  1  0
 30 57  1  0
 30 58  1  0
M  END
$$$$
