
     RDKit          3D

 57 60  0  0  0  0  0  0  0  0999 V2000
    6.6131    2.2351   -1.1063 C   0  0  0  0  0  0  0  0  0  0  0  0
    5.3145    1.6627   -1.0253 O   0  0  0  0  0  0  0  0  0  0  0  0
    5.1627    0.5297   -0.2674 C   0  0  0  0  0  0  0  0  0  0  0  0
    6.2006   -0.0993    0.4260 C   0  0  0  0  0  0  0  0  0  0  0  0
    5.9479   -1.2337    1.1976 C   0  0  0  0  0  0  0  0  0  0  0  0
    4.6531   -1.7395    1.2951 C   0  0  0  0  0  0  0  0  0  0  0  0
    3.5896   -1.1250    0.6156 C   0  0  0  0  0  0  0  0  0  0  0  0
    2.2338   -1.7317    0.8053 C   0  0  0  0  0  0  0  0  0  0  0  0
    2.1152   -2.8184    1.3642 O   0  0  0  0  0  0  0  0  0  0  0  0
    1.1513   -1.0165    0.3548 N   0  0  0  0  0  0  0  0  0  0  0  0
   -0.2094   -1.4396    0.6044 C   0  0  0  0  0  0  0  0  0  0  0  0
   -0.6476   -1.0510    2.0361 C   0  0  0  0  0  0  0  0  0  0  0  0
   -2.1913   -1.0291    2.2384 C   0  0  0  0  0  0  0  0  0  0  0  0
   -2.7834   -2.4394    2.0432 C   0  0  0  0  0  0  0  0  0  0  0  0
   -2.4962   -0.5812    3.6802 C   0  0  0  0  0  0  0  0  0  0  0  0
   -2.8555   -0.0197    1.2482 C   0  0  0  0  0  0  0  0  0  0  0  0
   -2.2752   -0.1395   -0.1230 C   0  0  0  0  0  0  0  0  0  0  0  0
   -1.0908   -0.7958   -0.4099 C   0  0  0  0  0  0  0  0  0  0  0  0
   -1.0107   -0.7887   -1.8051 C   0  0  0  0  0  0  0  0  0  0  0  0
   -2.0287   -0.1430   -2.3674 N   0  0  0  0  0  0  0  0  0  0  0  0
   -2.7898    0.3161   -1.3307 N   0  0  0  0  0  0  0  0  0  0  0  0
   -3.9227    1.1379   -1.6237 C   0  0  0  0  0  0  0  0  0  0  0  0
   -4.6293    1.8399   -0.6378 C   0  0  0  0  0  0  0  0  0  0  0  0
   -5.7353    2.6297   -0.9803 C   0  0  0  0  0  0  0  0  0  0  0  0
   -6.1387    2.7341   -2.3084 C   0  0  0  0  0  0  0  0  0  0  0  0
   -5.4269    2.0583   -3.2894 C   0  0  0  0  0  0  0  0  0  0  0  0
   -5.8072    2.1668   -4.5694 F   0  0  0  0  0  0  0  0  0  0  0  0
   -4.3311    1.2669   -2.9632 C   0  0  0  0  0  0  0  0  0  0  0  0
    3.8581   -0.0038   -0.1915 C   0  0  0  0  0  0  0  0  0  0  0  0
    2.8242    0.6145   -0.8612 O   0  0  0  0  0  0  0  0  0  0  0  0
    2.9152    0.3831   -2.2709 C   0  0  0  0  0  0  0  0  0  0  0  0
    6.9599    2.5674   -0.1232 H   0  0  0  0  0  0  0  0  0  0  0  0
    7.3236    1.5399   -1.5647 H   0  0  0  0  0  0  0  0  0  0  0  0
    6.5491    3.1166   -1.7514 H   0  0  0  0  0  0  0  0  0  0  0  0
    7.2203    0.2703    0.3916 H   0  0  0  0  0  0  0  0  0  0  0  0
    6.7593   -1.7193    1.7344 H   0  0  0  0  0  0  0  0  0  0  0  0
    4.4730   -2.6179    1.9136 H   0  0  0  0  0  0  0  0  0  0  0  0
    1.3128   -0.0730    0.0148 H   0  0  0  0  0  0  0  0  0  0  0  0
   -0.2668   -2.5292    0.4909 H   0  0  0  0  0  0  0  0  0  0  0  0
   -0.1776   -1.7345    2.7555 H   0  0  0  0  0  0  0  0  0  0  0  0
   -0.2534   -0.0521    2.2747 H   0  0  0  0  0  0  0  0  0  0  0  0
   -2.3012   -3.1629    2.7095 H   0  0  0  0  0  0  0  0  0  0  0  0
   -3.8567   -2.4493    2.2666 H   0  0  0  0  0  0  0  0  0  0  0  0
   -2.6641   -2.8041    1.0187 H   0  0  0  0  0  0  0  0  0  0  0  0
   -2.0590   -1.2725    4.4096 H   0  0  0  0  0  0  0  0  0  0  0  0
   -2.0879    0.4164    3.8789 H   0  0  0  0  0  0  0  0  0  0  0  0
   -3.5762   -0.5411    3.8608 H   0  0  0  0  0  0  0  0  0  0  0  0
   -2.6779    1.0027    1.6067 H   0  0  0  0  0  0  0  0  0  0  0  0
   -3.9366   -0.1949    1.2307 H   0  0  0  0  0  0  0  0  0  0  0  0
   -0.2571   -1.2384   -2.4391 H   0  0  0  0  0  0  0  0  0  0  0  0
   -4.3406    1.8326    0.4046 H   0  0  0  0  0  0  0  0  0  0  0  0
   -6.2779    3.1680   -0.2066 H   0  0  0  0  0  0  0  0  0  0  0  0
   -6.9927    3.3437   -2.5865 H   0  0  0  0  0  0  0  0  0  0  0  0
   -3.8143    0.7532   -3.7708 H   0  0  0  0  0  0  0  0  0  0  0  0
    3.2293   -0.6410   -2.5026 H   0  0  0  0  0  0  0  0  0  0  0  0
    1.9175    0.5337   -2.6940 H   0  0  0  0  0  0  0  0  0  0  0  0
    3.5860    1.1059   -2.7425 H   0  0  0  0  0  0  0  0  0  0  0  0
  1  2  1  0
  2  3  1  0
  3  4  2  0
  4  5  1  0
  5  6  2  0
  6  7  1  0
  7  8  1  0
  8  9  2  0
  8 10  1  0
 10 11  1  0
 11 12  1  0
 12 13  1  0
 13 14  1  0
 13 15  1  0
 13 16  1  0
 16 17  1  0
 17 18  2  0
 18 19  1  0
 19 20  2  0
 20 21  1  0
 21 22  1  0
 22 23  2  0
 23 24  1  0
 24 25  2  0
 25 26  1  0
 26 27  1  0
 26 28  2  0
  7 29  2  0
 29 30  1  0
 30 31  1  0
 29  3  1  0
 18 11  1  0
 28 22  1  0
 21 17  1  0
  1 32  1  0
  1 33  1  0
  1 34  1  0
  4 35  1  0
  5 36  1  0
  6 37  1  0
 10 38  1  0
 11 39  1  0
 12 40  1  0
 12 41  1  0
 14 42  1  0
 14 43  1  0
 14 44  1  0
 15 45  1  0
 15 46  1  0
 15 47  1  0
 16 48  1  0
 16 49  1  0
 19 50  1  0
 23 51  1  0
 24 52  1  0
 25 53  1  0
 28 54  1  0
 31 55  1  0
 31 56  1  0
 31 57  1  0
M  END
$$$$
