
     RDKit          3D

 43 46  0  0  0  0  0  0  0  0999 V2000
   -3.0805   -1.6838   -1.0948 N   0  0  0  0  0  0  0  0  0  0  0  0
   -3.1385   -0.5380   -0.9231 C   0  0  0  0  0  0  0  0  0  0  0  0
   -3.2432    0.9055   -0.6770 C   0  0  0  0  0  0  0  0  0  0  0  0
   -2.3142    1.7141   -1.5742 C   0  0  0  0  0  0  0  0  0  0  0  0
   -0.9077    1.4478   -1.3389 N   0  0  0  0  0  0  0  0  0  0  0  0
   -0.2391    1.5773   -0.1611 C   0  0  0  0  0  0  0  0  0  0  0  0
    1.0185    1.0659   -0.3880 C   0  0  0  0  0  0  0  0  0  0  0  0
    2.0485    0.9353    0.5951 C   0  0  0  0  0  0  0  0  0  0  0  0
    1.9324    0.4117    1.8352 C   0  0  0  0  0  0  0  0  0  0  0  0
    3.0663    0.3674    2.6962 C   0  0  0  0  0  0  0  0  0  0  0  0
    4.0123    0.3286    3.3677 N   0  0  0  0  0  0  0  0  0  0  0  0
    0.6944   -0.1154    2.3078 C   0  0  0  0  0  0  0  0  0  0  0  0
   -0.1620    0.5028    3.0981 N   0  0  0  0  0  0  0  0  0  0  0  0
   -1.2975   -0.2679    3.2853 C   0  0  0  0  0  0  0  0  0  0  0  0
   -2.4258    0.0977    4.0470 C   0  0  0  0  0  0  0  0  0  0  0  0
   -3.5211   -0.7685    4.1268 C   0  0  0  0  0  0  0  0  0  0  0  0
   -3.5035   -1.9885    3.4587 C   0  0  0  0  0  0  0  0  0  0  0  0
   -2.3926   -2.3767    2.7037 C   0  0  0  0  0  0  0  0  0  0  0  0
   -1.2972   -1.5007    2.6342 C   0  0  0  0  0  0  0  0  0  0  0  0
    0.1958   -1.6969    1.8063 S   0  0  0  0  0  0  0  0  0  0  0  0
    1.0527    0.7510   -1.7799 C   0  0  0  0  0  0  0  0  0  0  0  0
    2.1473    0.1970   -2.5761 C   0  0  0  0  0  0  0  0  0  0  0  0
    2.4322    0.7351   -3.8414 C   0  0  0  0  0  0  0  0  0  0  0  0
    3.4779    0.2206   -4.6109 C   0  0  0  0  0  0  0  0  0  0  0  0
    4.2328   -0.8367   -4.1186 C   0  0  0  0  0  0  0  0  0  0  0  0
    5.2354   -1.3315   -4.8559 F   0  0  0  0  0  0  0  0  0  0  0  0
    3.9592   -1.3931   -2.8744 C   0  0  0  0  0  0  0  0  0  0  0  0
    2.9135   -0.8793   -2.1029 C   0  0  0  0  0  0  0  0  0  0  0  0
   -0.1330    1.0291   -2.3496 N   0  0  0  0  0  0  0  0  0  0  0  0
   -4.2757    1.2248   -0.8612 H   0  0  0  0  0  0  0  0  0  0  0  0
   -3.0371    1.1111    0.3798 H   0  0  0  0  0  0  0  0  0  0  0  0
   -2.4584    2.7868   -1.4012 H   0  0  0  0  0  0  0  0  0  0  0  0
   -2.5244    1.5149   -2.6321 H   0  0  0  0  0  0  0  0  0  0  0  0
   -0.7122    1.9734    0.7279 H   0  0  0  0  0  0  0  0  0  0  0  0
    3.0341    1.2770    0.2756 H   0  0  0  0  0  0  0  0  0  0  0  0
   -2.4359    1.0508    4.5667 H   0  0  0  0  0  0  0  0  0  0  0  0
   -4.3900   -0.4854    4.7167 H   0  0  0  0  0  0  0  0  0  0  0  0
   -4.3623   -2.6540    3.5248 H   0  0  0  0  0  0  0  0  0  0  0  0
   -2.3818   -3.3282    2.1791 H   0  0  0  0  0  0  0  0  0  0  0  0
    1.8345    1.5570   -4.2310 H   0  0  0  0  0  0  0  0  0  0  0  0
    3.7015    0.6339   -5.5890 H   0  0  0  0  0  0  0  0  0  0  0  0
    4.5537   -2.2285   -2.5182 H   0  0  0  0  0  0  0  0  0  0  0  0
    2.6906   -1.3438   -1.1460 H   0  0  0  0  0  0  0  0  0  0  0  0
  1  2  3  0
  2  3  1  0
  3  4  1  0
  4  5  1  0
  5  6  1  0
  6  7  2  0
  7  8  1  0
  8  9  2  3
  9 10  1  0
 10 11  3  0
  9 12  1  0
 12 13  2  0
 13 14  1  0
 14 15  2  0
 15 16  1  0
 16 17  2  0
 17 18  1  0
 18 19  2  0
 19 20  1  0
  7 21  1  0
 21 22  1  0
 22 23  2  0
 23 24  1  0
 24 25  2  0
 25 26  1  0
 25 27  1  0
 27 28  2  0
 21 29  2  0
 29  5  1  0
 20 12  1  0
 28 22  1  0
 19 14  1  0
  3 30  1  0
  3 31  1  0
  4 32  1  0
  4 33  1  0
  6 34  1  0
  8 35  1  0
 15 36  1  0
 16 37  1  0
 17 38  1  0
 18 39  1  0
 23 40  1  0
 24 41  1  0
 27 42  1  0
 28 43  1  0
M  END
$$$$
