
     RDKit          3D

 40 41  0  0  0  0  0  0  0  0999 V2000
    4.6245    2.4377   -1.5868 C   0  0  0  0  0  0  0  0  0  0  0  0
    4.4909    1.2244   -0.6872 C   0  0  0  0  0  0  0  0  0  0  0  0
    3.1020    0.8922   -0.5933 O   0  0  0  0  0  0  0  0  0  0  0  0
    2.8309   -0.1843    0.2037 C   0  0  0  0  0  0  0  0  0  0  0  0
    3.7009   -0.8269    0.7815 O   0  0  0  0  0  0  0  0  0  0  0  0
    1.4016   -0.5051    0.2770 C   0  0  0  0  0  0  0  0  0  0  0  0
    0.3328    0.2512   -0.2086 C   0  0  0  0  0  0  0  0  0  0  0  0
    0.3334    1.5913   -0.8696 C   0  0  0  0  0  0  0  0  0  0  0  0
   -0.8283   -0.4634    0.0258 N   0  0  0  0  0  0  0  0  0  0  0  0
   -2.1583   -0.0984   -0.4541 C   0  0  0  0  0  0  0  0  0  0  0  0
   -2.7301    0.8206    0.4694 O   0  0  0  0  0  0  0  0  0  0  0  0
   -4.0347    1.2491    0.0932 C   0  0  0  0  0  0  0  0  0  0  0  0
   -3.9984    2.3740   -0.9403 C   0  0  0  0  0  0  0  0  0  0  0  0
   -5.3117    2.8041   -1.2730 O   0  0  0  0  0  0  0  0  0  0  0  0
   -0.5510   -1.6119    0.7426 C   0  0  0  0  0  0  0  0  0  0  0  0
   -1.4020   -2.6046    1.2639 C   0  0  0  0  0  0  0  0  0  0  0  0
   -0.8304   -3.6867    1.9391 C   0  0  0  0  0  0  0  0  0  0  0  0
    0.5460   -3.7693    2.0849 C   0  0  0  0  0  0  0  0  0  0  0  0
    1.1258   -4.8188    2.7378 O   0  0  0  0  0  0  0  0  0  0  0  0
    1.3883   -2.7830    1.5750 C   0  0  0  0  0  0  0  0  0  0  0  0
    0.8362   -1.6731    0.8950 C   0  0  0  0  0  0  0  0  0  0  0  0
    5.6722    2.7329   -1.6912 H   0  0  0  0  0  0  0  0  0  0  0  0
    4.0573    3.2822   -1.1814 H   0  0  0  0  0  0  0  0  0  0  0  0
    4.2152    2.2275   -2.5806 H   0  0  0  0  0  0  0  0  0  0  0  0
    5.0450    0.3827   -1.1176 H   0  0  0  0  0  0  0  0  0  0  0  0
    4.8852    1.4579    0.3081 H   0  0  0  0  0  0  0  0  0  0  0  0
    0.6680    1.4999   -1.9077 H   0  0  0  0  0  0  0  0  0  0  0  0
   -0.6525    2.0635   -0.8705 H   0  0  0  0  0  0  0  0  0  0  0  0
    1.0018    2.2806   -0.3438 H   0  0  0  0  0  0  0  0  0  0  0  0
   -2.7684   -1.0034   -0.5328 H   0  0  0  0  0  0  0  0  0  0  0  0
   -2.0496    0.3380   -1.4517 H   0  0  0  0  0  0  0  0  0  0  0  0
   -4.6384    0.4042   -0.2603 H   0  0  0  0  0  0  0  0  0  0  0  0
   -4.5329    1.6178    0.9970 H   0  0  0  0  0  0  0  0  0  0  0  0
   -3.4416    3.2299   -0.5448 H   0  0  0  0  0  0  0  0  0  0  0  0
   -3.4912    2.0627   -1.8585 H   0  0  0  0  0  0  0  0  0  0  0  0
   -5.7644    2.0730   -1.7267 H   0  0  0  0  0  0  0  0  0  0  0  0
   -2.4805   -2.5395    1.1624 H   0  0  0  0  0  0  0  0  0  0  0  0
   -1.4821   -4.4542    2.3453 H   0  0  0  0  0  0  0  0  0  0  0  0
    0.4258   -5.4050    3.0664 H   0  0  0  0  0  0  0  0  0  0  0  0
    2.4628   -2.8701    1.7124 H   0  0  0  0  0  0  0  0  0  0  0  0
  1  2  1  0
  2  3  1  0
  3  4  1  0
  4  5  2  0
  4  6  1  0
  6  7  2  0
  7  8  1  0
  7  9  1  0
  9 10  1  0
 10 11  1  0
 11 12  1  0
 12 13  1  0
 13 14  1  0
  9 15  1  0
 15 16  2  0
 16 17  1  0
 17 18  2  0
 18 19  1  0
 18 20  1  0
 20 21  2  0
 21  6  1  0
 21 15  1  0
  1 22  1  0
  1 23  1  0
  1 24  1  0
  2 25  1  0
  2 26  1  0
  8 27  1  0
  8 28  1  0
  8 29  1  0
 10 30  1  0
 10 31  1  0
 12 32  1  0
 12 33  1  0
 13 34  1  0
 13 35  1  0
 14 36  1  0
 16 37  1  0
 17 38  1  0
 19 39  1  0
 20 40  1  0
M  END
$$$$
