
     RDKit          3D

 46 49  0  0  0  0  0  0  0  0999 V2000
    2.3449   -1.6079    2.5659 O   0  0  0  0  0  0  0  0  0  0  0  0
    1.9474   -0.5254    2.1452 C   0  0  0  0  0  0  0  0  0  0  0  0
    0.8216    0.2191    2.8729 C   0  0  0  0  0  0  0  0  0  0  0  0
   -0.4518    0.0829    2.2411 O   0  0  0  0  0  0  0  0  0  0  0  0
   -0.6375    0.8728    1.1583 C   0  0  0  0  0  0  0  0  0  0  0  0
    0.1627    1.6735    0.7042 O   0  0  0  0  0  0  0  0  0  0  0  0
   -1.9785    0.6141    0.6055 C   0  0  0  0  0  0  0  0  0  0  0  0
   -2.1994   -0.5885   -0.1235 C   0  0  0  0  0  0  0  0  0  0  0  0
   -1.2117   -1.5763   -0.3713 C   0  0  0  0  0  0  0  0  0  0  0  0
   -1.4990   -2.7359   -1.0938 C   0  0  0  0  0  0  0  0  0  0  0  0
   -2.7777   -2.9397   -1.5920 C   0  0  0  0  0  0  0  0  0  0  0  0
   -3.7666   -1.9834   -1.3683 C   0  0  0  0  0  0  0  0  0  0  0  0
   -3.4926   -0.8114   -0.6425 C   0  0  0  0  0  0  0  0  0  0  0  0
   -4.5020    0.1413   -0.4334 C   0  0  0  0  0  0  0  0  0  0  0  0
   -4.2717    1.3295    0.2773 C   0  0  0  0  0  0  0  0  0  0  0  0
   -5.3108    2.2584    0.4586 C   0  0  0  0  0  0  0  0  0  0  0  0
   -5.1013    3.4449    1.1592 C   0  0  0  0  0  0  0  0  0  0  0  0
   -3.8481    3.7197    1.6880 C   0  0  0  0  0  0  0  0  0  0  0  0
   -2.8065    2.8058    1.5169 C   0  0  0  0  0  0  0  0  0  0  0  0
   -2.9916    1.5905    0.8101 C   0  0  0  0  0  0  0  0  0  0  0  0
    2.4084    0.1522    1.0332 N   0  0  0  0  0  0  0  0  0  0  0  0
    3.4322   -0.2759    0.1718 C   0  0  0  0  0  0  0  0  0  0  0  0
    4.0845   -1.4289    0.4266 N   0  0  0  0  0  0  0  0  0  0  0  0
    5.0650   -1.8200   -0.4195 C   0  0  0  0  0  0  0  0  0  0  0  0
    5.4514   -1.1015   -1.5384 C   0  0  0  0  0  0  0  0  0  0  0  0
    6.5311   -1.6227   -2.4338 C   0  0  0  0  0  0  0  0  0  0  0  0
    7.1662   -0.6384   -3.1281 F   0  0  0  0  0  0  0  0  0  0  0  0
    6.0537   -2.4900   -3.3665 F   0  0  0  0  0  0  0  0  0  0  0  0
    7.5064   -2.2918   -1.7612 F   0  0  0  0  0  0  0  0  0  0  0  0
    4.7692    0.0894   -1.8017 C   0  0  0  0  0  0  0  0  0  0  0  0
    3.7545    0.5105   -0.9402 C   0  0  0  0  0  0  0  0  0  0  0  0
    2.9455    1.9942   -1.2895 Cl  0  0  0  0  0  0  0  0  0  0  0  0
    1.0890    1.2749    3.0062 H   0  0  0  0  0  0  0  0  0  0  0  0
    0.7337   -0.2044    3.8795 H   0  0  0  0  0  0  0  0  0  0  0  0
   -0.1957   -1.4603    0.0011 H   0  0  0  0  0  0  0  0  0  0  0  0
   -0.7215   -3.4775   -1.2613 H   0  0  0  0  0  0  0  0  0  0  0  0
   -3.0076   -3.8412   -2.1539 H   0  0  0  0  0  0  0  0  0  0  0  0
   -4.7624   -2.1627   -1.7696 H   0  0  0  0  0  0  0  0  0  0  0  0
   -5.4960   -0.0460   -0.8396 H   0  0  0  0  0  0  0  0  0  0  0  0
   -6.3010    2.0636    0.0507 H   0  0  0  0  0  0  0  0  0  0  0  0
   -5.9161    4.1525    1.2885 H   0  0  0  0  0  0  0  0  0  0  0  0
   -3.6760    4.6448    2.2323 H   0  0  0  0  0  0  0  0  0  0  0  0
   -1.8374    3.0616    1.9417 H   0  0  0  0  0  0  0  0  0  0  0  0
    1.9228    1.0081    0.7605 H   0  0  0  0  0  0  0  0  0  0  0  0
    5.5408   -2.7621   -0.1514 H   0  0  0  0  0  0  0  0  0  0  0  0
    5.0292    0.6876   -2.6732 H   0  0  0  0  0  0  0  0  0  0  0  0
  1  2  2  0
  2  3  1  0
  3  4  1  0
  4  5  1  0
  5  6  2  0
  5  7  1  0
  7  8  1  0
  8  9  2  0
  9 10  1  0
 10 11  2  0
 11 12  1  0
 12 13  2  0
 13 14  1  0
 14 15  2  0
 15 16  1  0
 16 17  2  0
 17 18  1  0
 18 19  2  0
 19 20  1  0
  2 21  1  0
 21 22  1  0
 22 23  2  0
 23 24  1  0
 24 25  2  0
 25 26  1  0
 26 27  1  0
 26 28  1  0
 26 29  1  0
 25 30  1  0
 30 31  2  0
 31 32  1  0
 20  7  2  0
 31 22  1  0
 13  8  1  0
 20 15  1  0
  3 33  1  0
  3 34  1  0
  9 35  1  0
 10 36  1  0
 11 37  1  0
 12 38  1  0
 14 39  1  0
 16 40  1  0
 17 41  1  0
 18 42  1  0
 19 43  1  0
 21 44  1  0
 24 45  1  0
 30 46  1  0
M  END
$$$$
