
     RDKit          3D

 39 42  0  0  0  0  0  0  0  0999 V2000
    8.6565   -1.1906   -0.8164 C   0  0  0  0  0  0  0  0  0  0  0  0
    7.2806   -1.0104   -0.4786 O   0  0  0  0  0  0  0  0  0  0  0  0
    6.6370   -0.1039   -1.2567 C   0  0  0  0  0  0  0  0  0  0  0  0
    7.1360    0.5320   -2.1721 O   0  0  0  0  0  0  0  0  0  0  0  0
    5.2113    0.0229   -0.8480 C   0  0  0  0  0  0  0  0  0  0  0  0
    4.3922    0.9006   -1.5696 C   0  0  0  0  0  0  0  0  0  0  0  0
    3.0460    1.0541   -1.2274 C   0  0  0  0  0  0  0  0  0  0  0  0
    2.4984    0.3370   -0.1542 C   0  0  0  0  0  0  0  0  0  0  0  0
    1.0395    0.4917    0.2067 C   0  0  0  0  0  0  0  0  0  0  0  0
    0.0080   -0.6883   -0.7149 S   0  0  0  0  0  0  0  0  0  0  0  0
   -1.6004   -0.2602   -0.0806 C   0  0  0  0  0  0  0  0  0  0  0  0
   -1.6944    0.7310    0.8482 N   0  0  0  0  0  0  0  0  0  0  0  0
   -2.8741    1.0935    1.3600 N   0  0  0  0  0  0  0  0  0  0  0  0
   -3.9560    0.4185    0.9012 C   0  0  0  0  0  0  0  0  0  0  0  0
   -3.7936   -0.5785   -0.0424 C   0  0  0  0  0  0  0  0  0  0  0  0
   -2.6305   -0.9752   -0.5836 N   0  0  0  0  0  0  0  0  0  0  0  0
   -5.0270   -1.0903   -0.3261 N   0  0  0  0  0  0  0  0  0  0  0  0
   -5.9924   -0.4431    0.4179 C   0  0  0  0  0  0  0  0  0  0  0  0
   -7.3787   -0.6318    0.4582 C   0  0  0  0  0  0  0  0  0  0  0  0
   -8.1171    0.1829    1.3223 C   0  0  0  0  0  0  0  0  0  0  0  0
   -7.4945    1.1469    2.1135 C   0  0  0  0  0  0  0  0  0  0  0  0
   -6.1074    1.3244    2.0638 C   0  0  0  0  0  0  0  0  0  0  0  0
   -5.3395    0.5167    1.2017 C   0  0  0  0  0  0  0  0  0  0  0  0
    3.3199   -0.5456    0.5621 C   0  0  0  0  0  0  0  0  0  0  0  0
    4.6670   -0.7009    0.2204 C   0  0  0  0  0  0  0  0  0  0  0  0
    9.2102   -0.2564   -0.6783 H   0  0  0  0  0  0  0  0  0  0  0  0
    9.0748   -1.9436   -0.1425 H   0  0  0  0  0  0  0  0  0  0  0  0
    8.7555   -1.5531   -1.8446 H   0  0  0  0  0  0  0  0  0  0  0  0
    4.7982    1.4661   -2.4066 H   0  0  0  0  0  0  0  0  0  0  0  0
    2.4263    1.7335   -1.8093 H   0  0  0  0  0  0  0  0  0  0  0  0
    0.9157    0.3333    1.2844 H   0  0  0  0  0  0  0  0  0  0  0  0
    0.7208    1.5177   -0.0115 H   0  0  0  0  0  0  0  0  0  0  0  0
   -5.1928   -1.8364   -0.9853 H   0  0  0  0  0  0  0  0  0  0  0  0
   -7.8714   -1.3812   -0.1539 H   0  0  0  0  0  0  0  0  0  0  0  0
   -9.1972    0.0610    1.3782 H   0  0  0  0  0  0  0  0  0  0  0  0
   -8.0909    1.7678    2.7781 H   0  0  0  0  0  0  0  0  0  0  0  0
   -5.6271    2.0762    2.6845 H   0  0  0  0  0  0  0  0  0  0  0  0
    2.9138   -1.1242    1.3899 H   0  0  0  0  0  0  0  0  0  0  0  0
    5.2770   -1.3940    0.7945 H   0  0  0  0  0  0  0  0  0  0  0  0
  1  2  1  0
  2  3  1  0
  3  4  2  0
  3  5  1  0
  5  6  2  0
  6  7  1  0
  7  8  2  0
  8  9  1  0
  9 10  1  0
 10 11  1  0
 11 12  2  0
 12 13  1  0
 13 14  2  0
 14 15  1  0
 15 16  2  0
 15 17  1  0
 17 18  1  0
 18 19  2  0
 19 20  1  0
 20 21  2  0
 21 22  1  0
 22 23  2  0
  8 24  1  0
 24 25  2  0
 25  5  1  0
 16 11  1  0
 23 18  1  0
 23 14  1  0
  1 26  1  0
  1 27  1  0
  1 28  1  0
  6 29  1  0
  7 30  1  0
  9 31  1  0
  9 32  1  0
 17 33  1  0
 19 34  1  0
 20 35  1  0
 21 36  1  0
 22 37  1  0
 24 38  1  0
 25 39  1  0
M  END
$$$$
