
     RDKit          3D

 35 37  0  0  0  0  0  0  0  0999 V2000
    5.9856    0.5544    1.0575 C   0  0  0  0  0  0  0  0  0  0  0  0
    4.6835    0.8582    0.3307 C   0  0  0  0  0  0  0  0  0  0  0  0
    4.4347   -0.1470   -0.7919 C   0  0  0  0  0  0  0  0  0  0  0  0
    2.9016    0.2284   -1.6985 S   0  0  0  0  0  0  0  0  0  0  0  0
    1.7018   -0.3957   -0.6186 C   0  0  0  0  0  0  0  0  0  0  0  0
    1.9210   -1.0798    0.4766 N   0  0  0  0  0  0  0  0  0  0  0  0
    0.7000   -1.3582    1.0358 N   0  0  0  0  0  0  0  0  0  0  0  0
   -0.2419   -0.7860    0.3032 C   0  0  0  0  0  0  0  0  0  0  0  0
   -1.7468   -0.8156    0.7438 C   0  0  0  0  0  0  0  0  0  0  0  0
   -2.1486   -1.6646    1.7558 C   0  0  0  0  0  0  0  0  0  0  0  0
   -3.5002   -1.5539    1.8983 N   0  0  0  0  0  0  0  0  0  0  0  0
   -3.9876   -0.5956    1.0410 C   0  0  0  0  0  0  0  0  0  0  0  0
   -5.3029   -0.1411    0.8766 C   0  0  0  0  0  0  0  0  0  0  0  0
   -5.5272    0.8943   -0.0307 C   0  0  0  0  0  0  0  0  0  0  0  0
   -4.4708    1.4644   -0.7299 C   0  0  0  0  0  0  0  0  0  0  0  0
   -3.1620    0.9947   -0.5549 C   0  0  0  0  0  0  0  0  0  0  0  0
   -2.9002   -0.0829    0.3203 C   0  0  0  0  0  0  0  0  0  0  0  0
    0.3528   -0.2512   -0.8144 N   0  0  0  0  0  0  0  0  0  0  0  0
   -0.2810    0.1615   -2.0365 C   0  0  0  0  0  0  0  0  0  0  0  0
    5.9594   -0.4428    1.5082 H   0  0  0  0  0  0  0  0  0  0  0  0
    6.1528    1.2839    1.8562 H   0  0  0  0  0  0  0  0  0  0  0  0
    6.8379    0.6002    0.3719 H   0  0  0  0  0  0  0  0  0  0  0  0
    4.7368    1.8754   -0.0758 H   0  0  0  0  0  0  0  0  0  0  0  0
    3.8654    0.8403    1.0596 H   0  0  0  0  0  0  0  0  0  0  0  0
    5.2565   -0.0965   -1.5148 H   0  0  0  0  0  0  0  0  0  0  0  0
    4.4091   -1.1736   -0.4109 H   0  0  0  0  0  0  0  0  0  0  0  0
   -1.5808   -2.3635    2.3571 H   0  0  0  0  0  0  0  0  0  0  0  0
   -4.0622   -2.0774    2.5555 H   0  0  0  0  0  0  0  0  0  0  0  0
   -6.1241   -0.5667    1.4449 H   0  0  0  0  0  0  0  0  0  0  0  0
   -6.5367    1.2725   -0.1745 H   0  0  0  0  0  0  0  0  0  0  0  0
   -4.6583    2.2926   -1.4091 H   0  0  0  0  0  0  0  0  0  0  0  0
   -2.3623    1.5020   -1.0785 H   0  0  0  0  0  0  0  0  0  0  0  0
   -0.3532    1.2509   -2.0404 H   0  0  0  0  0  0  0  0  0  0  0  0
   -1.2624   -0.3073   -2.1223 H   0  0  0  0  0  0  0  0  0  0  0  0
    0.3103   -0.1745   -2.8926 H   0  0  0  0  0  0  0  0  0  0  0  0
  1  2  1  0
  2  3  1  0
  3  4  1  0
  4  5  1  0
  5  6  2  0
  6  7  1  0
  7  8  2  0
  8  9  1  0
  9 10  2  0
 10 11  1  0
 11 12  1  0
 12 13  2  0
 13 14  1  0
 14 15  2  0
 15 16  1  0
 16 17  2  0
  8 18  1  0
 18 19  1  0
 18  5  1  0
 17  9  1  0
 17 12  1  0
  1 20  1  0
  1 21  1  0
  1 22  1  0
  2 23  1  0
  2 24  1  0
  3 25  1  0
  3 26  1  0
 10 27  1  0
 11 28  1  0
 13 29  1  0
 14 30  1  0
 15 31  1  0
 16 32  1  0
 19 33  1  0
 19 34  1  0
 19 35  1  0
M  END
$$$$
