
     RDKit          3D

 50 53  0  0  0  0  0  0  0  0999 V2000
    7.5674    1.8462    1.0207 C   0  0  0  0  0  0  0  0  0  0  0  0
    6.8056    0.6527    0.8857 O   0  0  0  0  0  0  0  0  0  0  0  0
    5.5074    0.7925    0.4820 C   0  0  0  0  0  0  0  0  0  0  0  0
    4.8591    1.9901    0.1971 C   0  0  0  0  0  0  0  0  0  0  0  0
    3.5180    1.9840   -0.2090 C   0  0  0  0  0  0  0  0  0  0  0  0
    2.7975    0.7814   -0.3285 C   0  0  0  0  0  0  0  0  0  0  0  0
    1.4300    0.8385   -0.7451 N   0  0  0  0  0  0  0  0  0  0  0  0
    0.9371    2.0239   -1.2150 N   0  0  0  0  0  0  0  0  0  0  0  0
   -0.2979    1.7598   -1.6306 C   0  0  0  0  0  0  0  0  0  0  0  0
   -0.6753    0.4404   -1.3648 C   0  0  0  0  0  0  0  0  0  0  0  0
    0.4345   -0.1329   -0.7686 C   0  0  0  0  0  0  0  0  0  0  0  0
    0.4923   -1.5390   -0.2689 C   0  0  0  0  0  0  0  0  0  0  0  0
   -0.9320   -2.1622   -0.1321 C   0  0  0  0  0  0  0  0  0  0  0  0
   -1.5709   -1.7291    1.2029 C   0  0  0  0  0  0  0  0  0  0  0  0
   -0.7964   -3.6986   -0.1044 C   0  0  0  0  0  0  0  0  0  0  0  0
   -1.8309   -1.7720   -1.3485 C   0  0  0  0  0  0  0  0  0  0  0  0
   -1.9712   -0.2515   -1.6039 C   0  0  0  0  0  0  0  0  0  0  0  0
   -2.9610    0.3646   -0.7460 N   0  0  0  0  0  0  0  0  0  0  0  0
   -4.3082    0.2188   -0.9770 C   0  0  0  0  0  0  0  0  0  0  0  0
   -4.7539   -0.3918   -1.9426 O   0  0  0  0  0  0  0  0  0  0  0  0
   -5.1771    0.8334    0.0111 C   0  0  0  0  0  0  0  0  0  0  0  0
   -6.5917    0.7949    0.0261 C   0  0  0  0  0  0  0  0  0  0  0  0
   -7.1199    1.4514    1.0622 N   0  0  0  0  0  0  0  0  0  0  0  0
   -6.0486    1.9216    1.7162 N   0  0  0  0  0  0  0  0  0  0  0  0
   -4.8614    1.5794    1.1323 C   0  0  0  0  0  0  0  0  0  0  0  0
    3.4617   -0.4167   -0.0564 C   0  0  0  0  0  0  0  0  0  0  0  0
    4.8033   -0.4048    0.3493 C   0  0  0  0  0  0  0  0  0  0  0  0
    7.6594    2.3666    0.0616 H   0  0  0  0  0  0  0  0  0  0  0  0
    8.5741    1.5652    1.3448 H   0  0  0  0  0  0  0  0  0  0  0  0
    7.1415    2.5015    1.7877 H   0  0  0  0  0  0  0  0  0  0  0  0
    5.3606    2.9488    0.2768 H   0  0  0  0  0  0  0  0  0  0  0  0
    3.0437    2.9413   -0.4229 H   0  0  0  0  0  0  0  0  0  0  0  0
   -0.8793    2.5513   -2.0871 H   0  0  0  0  0  0  0  0  0  0  0  0
    0.9968   -1.5881    0.7025 H   0  0  0  0  0  0  0  0  0  0  0  0
    1.0723   -2.1289   -0.9898 H   0  0  0  0  0  0  0  0  0  0  0  0
   -1.0280   -2.1581    2.0534 H   0  0  0  0  0  0  0  0  0  0  0  0
   -2.6104   -2.0685    1.2710 H   0  0  0  0  0  0  0  0  0  0  0  0
   -1.5580   -0.6445    1.3399 H   0  0  0  0  0  0  0  0  0  0  0  0
   -0.1514   -4.0245    0.7195 H   0  0  0  0  0  0  0  0  0  0  0  0
   -0.3602   -4.0762   -1.0360 H   0  0  0  0  0  0  0  0  0  0  0  0
   -1.7730   -4.1790    0.0241 H   0  0  0  0  0  0  0  0  0  0  0  0
   -2.8203   -2.2358   -1.2472 H   0  0  0  0  0  0  0  0  0  0  0  0
   -1.3801   -2.2139   -2.2493 H   0  0  0  0  0  0  0  0  0  0  0  0
   -2.2877   -0.1001   -2.6434 H   0  0  0  0  0  0  0  0  0  0  0  0
   -2.6489    0.8201    0.0980 H   0  0  0  0  0  0  0  0  0  0  0  0
   -7.2504    0.3088   -0.6839 H   0  0  0  0  0  0  0  0  0  0  0  0
   -6.2023    2.4708    2.5562 H   0  0  0  0  0  0  0  0  0  0  0  0
   -3.9259    1.9017    1.5648 H   0  0  0  0  0  0  0  0  0  0  0  0
    3.0011   -1.3871   -0.1765 H   0  0  0  0  0  0  0  0  0  0  0  0
    5.3091   -1.3461    0.5547 H   0  0  0  0  0  0  0  0  0  0  0  0
  1  2  1  0
  2  3  1  0
  3  4  2  0
  4  5  1  0
  5  6  2  0
  6  7  1  0
  7  8  1  0
  8  9  2  0
  9 10  1  0
 10 11  2  0
 11 12  1  0
 12 13  1  0
 13 14  1  0
 13 15  1  0
 13 16  1  0
 16 17  1  0
 17 18  1  0
 18 19  1  0
 19 20  2  0
 19 21  1  0
 21 22  1  0
 22 23  2  0
 23 24  1  0
 24 25  1  0
  6 26  1  0
 26 27  2  0
 27  3  1  0
 11  7  1  0
 25 21  2  0
 17 10  1  0
  1 28  1  0
  1 29  1  0
  1 30  1  0
  4 31  1  0
  5 32  1  0
  9 33  1  0
 12 34  1  0
 12 35  1  0
 14 36  1  0
 14 37  1  0
 14 38  1  0
 15 39  1  0
 15 40  1  0
 15 41  1  0
 16 42  1  0
 16 43  1  0
 17 44  1  0
 18 45  1  0
 22 46  1  0
 24 47  1  0
 25 48  1  0
 26 49  1  0
 27 50  1  0
M  END
$$$$
