
     RDKit          3D

 56 59  0  0  0  0  0  0  0  0999 V2000
    7.7919    0.9597   -0.2033 C   0  0  0  0  0  0  0  0  0  0  0  0
    7.2325   -0.1826    0.4326 O   0  0  0  0  0  0  0  0  0  0  0  0
    5.8823   -0.1769    0.6508 C   0  0  0  0  0  0  0  0  0  0  0  0
    5.3896   -1.3333    1.2563 C   0  0  0  0  0  0  0  0  0  0  0  0
    4.0281   -1.4638    1.5291 C   0  0  0  0  0  0  0  0  0  0  0  0
    3.1447   -0.4312    1.1934 C   0  0  0  0  0  0  0  0  0  0  0  0
    1.7118   -0.6675    1.4949 C   0  0  0  0  0  0  0  0  0  0  0  0
    1.3882   -0.8136    2.6719 O   0  0  0  0  0  0  0  0  0  0  0  0
    0.7314   -0.7549    0.3266 C   0  0  0  0  0  0  0  0  0  0  0  0
    1.0917   -1.9150   -0.6086 C   0  0  0  0  0  0  0  0  0  0  0  0
    0.0251   -2.1145   -1.6824 C   0  0  0  0  0  0  0  0  0  0  0  0
   -1.3773   -2.2098   -1.0773 C   0  0  0  0  0  0  0  0  0  0  0  0
   -1.7247   -1.0843   -0.1961 N   0  0  0  0  0  0  0  0  0  0  0  0
   -2.0154    0.1361   -0.9613 C   0  0  0  0  0  0  0  0  0  0  0  0
   -2.4888    1.2766   -0.1138 C   0  0  0  0  0  0  0  0  0  0  0  0
   -1.7089    2.3725    0.2454 C   0  0  0  0  0  0  0  0  0  0  0  0
   -2.5052    3.2804    0.9561 C   0  0  0  0  0  0  0  0  0  0  0  0
   -3.7592    2.7294    1.0202 C   0  0  0  0  0  0  0  0  0  0  0  0
   -3.7796    1.4842    0.3933 N   0  0  0  0  0  0  0  0  0  0  0  0
   -4.9868    0.6939    0.3436 C   0  0  0  0  0  0  0  0  0  0  0  0
   -5.0138   -0.6166   -0.1135 C   0  0  0  0  0  0  0  0  0  0  0  0
   -6.2253   -1.3132   -0.1278 C   0  0  0  0  0  0  0  0  0  0  0  0
   -7.3836   -0.6920    0.3163 C   0  0  0  0  0  0  0  0  0  0  0  0
   -7.2828    0.6086    0.7664 C   0  0  0  0  0  0  0  0  0  0  0  0
   -6.1263    1.3037    0.7884 N   0  0  0  0  0  0  0  0  0  0  0  0
   -0.7026   -0.9310    0.8572 C   0  0  0  0  0  0  0  0  0  0  0  0
    3.6238    0.7610    0.6242 C   0  0  0  0  0  0  0  0  0  0  0  0
    2.7355    1.9303    0.2999 C   0  0  0  0  0  0  0  0  0  0  0  0
    5.0002    0.8622    0.3353 C   0  0  0  0  0  0  0  0  0  0  0  0
    7.3943    1.0784   -1.2179 H   0  0  0  0  0  0  0  0  0  0  0  0
    7.6346    1.8643    0.3938 H   0  0  0  0  0  0  0  0  0  0  0  0
    8.8722    0.7990   -0.2843 H   0  0  0  0  0  0  0  0  0  0  0  0
    6.0721   -2.1383    1.5221 H   0  0  0  0  0  0  0  0  0  0  0  0
    3.6606   -2.3711    2.0034 H   0  0  0  0  0  0  0  0  0  0  0  0
    0.7773    0.1859   -0.2284 H   0  0  0  0  0  0  0  0  0  0  0  0
    2.0592   -1.7367   -1.0920 H   0  0  0  0  0  0  0  0  0  0  0  0
    1.2008   -2.8406   -0.0285 H   0  0  0  0  0  0  0  0  0  0  0  0
    0.0705   -1.2881   -2.4012 H   0  0  0  0  0  0  0  0  0  0  0  0
    0.2427   -3.0293   -2.2457 H   0  0  0  0  0  0  0  0  0  0  0  0
   -2.1203   -2.3111   -1.8781 H   0  0  0  0  0  0  0  0  0  0  0  0
   -1.4498   -3.1380   -0.4955 H   0  0  0  0  0  0  0  0  0  0  0  0
   -1.1282    0.4642   -1.5181 H   0  0  0  0  0  0  0  0  0  0  0  0
   -2.7706   -0.0602   -1.7329 H   0  0  0  0  0  0  0  0  0  0  0  0
   -0.6638    2.4996   -0.0045 H   0  0  0  0  0  0  0  0  0  0  0  0
   -2.2102    4.2342    1.3736 H   0  0  0  0  0  0  0  0  0  0  0  0
   -4.6604    3.1113    1.4828 H   0  0  0  0  0  0  0  0  0  0  0  0
   -4.1346   -1.1597   -0.4173 H   0  0  0  0  0  0  0  0  0  0  0  0
   -6.2515   -2.3455   -0.4661 H   0  0  0  0  0  0  0  0  0  0  0  0
   -8.3329   -1.2122    0.3257 H   0  0  0  0  0  0  0  0  0  0  0  0
   -8.1512    1.1438    1.1421 H   0  0  0  0  0  0  0  0  0  0  0  0
   -0.7457   -1.8291    1.4903 H   0  0  0  0  0  0  0  0  0  0  0  0
   -0.9620   -0.1122    1.5385 H   0  0  0  0  0  0  0  0  0  0  0  0
    1.8962    2.0016    1.0003 H   0  0  0  0  0  0  0  0  0  0  0  0
    2.3529    1.8406   -0.7213 H   0  0  0  0  0  0  0  0  0  0  0  0
    3.2867    2.8738    0.3806 H   0  0  0  0  0  0  0  0  0  0  0  0
    5.3648    1.7767   -0.1244 H   0  0  0  0  0  0  0  0  0  0  0  0
  1  2  1  0
  2  3  1  0
  3  4  2  0
  4  5  1  0
  5  6  2  0
  6  7  1  0
  7  8  2  0
  7  9  1  0
  9 10  1  0
 10 11  1  0
 11 12  1  0
 12 13  1  0
 13 14  1  0
 14 15  1  0
 15 16  2  0
 16 17  1  0
 17 18  2  0
 18 19  1  0
 19 20  1  0
 20 21  2  0
 21 22  1  0
 22 23  2  0
 23 24  1  0
 24 25  2  0
 13 26  1  0
  6 27  1  0
 27 28  1  0
 27 29  2  0
 29  3  1  0
 26  9  1  0
 19 15  1  0
 25 20  1  0
  1 30  1  0
  1 31  1  0
  1 32  1  0
  4 33  1  0
  5 34  1  0
  9 35  1  0
 10 36  1  0
 10 37  1  0
 11 38  1  0
 11 39  1  0
 12 40  1  0
 12 41  1  0
 14 42  1  0
 14 43  1  0
 16 44  1  0
 17 45  1  0
 18 46  1  0
 21 47  1  0
 22 48  1  0
 23 49  1  0
 24 50  1  0
 26 51  1  0
 26 52  1  0
 28 53  1  0
 28 54  1  0
 28 55  1  0
 29 56  1  0
M  END
$$$$
