
     RDKit          3D

 48 50  0  0  0  0  0  0  0  0999 V2000
    7.1972   -1.4101    0.9046 C   0  0  0  0  0  0  0  0  0  0  0  0
    6.8196   -0.6910   -0.2634 O   0  0  0  0  0  0  0  0  0  0  0  0
    5.5155   -0.2874   -0.3450 C   0  0  0  0  0  0  0  0  0  0  0  0
    5.1718    0.3419   -1.5434 C   0  0  0  0  0  0  0  0  0  0  0  0
    3.8717    0.8052   -1.7604 C   0  0  0  0  0  0  0  0  0  0  0  0
    2.8905    0.6452   -0.7744 C   0  0  0  0  0  0  0  0  0  0  0  0
    1.4921    1.1707   -0.9923 C   0  0  0  0  0  0  0  0  0  0  0  0
    0.4049    0.1035   -0.9045 C   0  0  0  0  0  0  0  0  0  0  0  0
    0.5603   -1.0233   -1.3627 O   0  0  0  0  0  0  0  0  0  0  0  0
   -0.7516    0.5856   -0.3022 N   0  0  0  0  0  0  0  0  0  0  0  0
   -1.8658   -0.1871   -0.0072 C   0  0  0  0  0  0  0  0  0  0  0  0
   -2.0756   -1.5493   -0.0506 C   0  0  0  0  0  0  0  0  0  0  0  0
   -3.3832   -1.7485    0.3791 C   0  0  0  0  0  0  0  0  0  0  0  0
   -4.0167   -0.6222    0.6691 N   0  0  0  0  0  0  0  0  0  0  0  0
   -3.0786    0.3416    0.4576 N   0  0  0  0  0  0  0  0  0  0  0  0
   -3.4549    1.7494    0.7180 C   0  0  0  0  0  0  0  0  0  0  0  0
   -4.9335    1.8719    1.1784 C   0  0  0  0  0  0  0  0  0  0  0  0
   -2.5915    2.3352    1.8517 C   0  0  0  0  0  0  0  0  0  0  0  0
   -3.3262    2.5950   -0.5641 C   0  0  0  0  0  0  0  0  0  0  0  0
   -3.9016   -3.1188    0.4617 C   0  0  0  0  0  0  0  0  0  0  0  0
   -2.4336   -4.1994    0.0851 S   0  0  0  0  0  3  0  0  0  0  0  0
   -1.8810   -4.8050    1.5333 O   0  0  0  0  0  1  0  0  0  0  0  0
   -1.3177   -2.7650   -0.3844 C   0  0  0  0  0  0  0  0  0  0  0  0
    3.2409    0.0197    0.4305 C   0  0  0  0  0  0  0  0  0  0  0  0
    4.5437   -0.4466    0.6424 C   0  0  0  0  0  0  0  0  0  0  0  0
    8.2504   -1.6900    0.7996 H   0  0  0  0  0  0  0  0  0  0  0  0
    6.6162   -2.3332    1.0074 H   0  0  0  0  0  0  0  0  0  0  0  0
    7.1067   -0.7841    1.7993 H   0  0  0  0  0  0  0  0  0  0  0  0
    5.9244    0.4683   -2.3185 H   0  0  0  0  0  0  0  0  0  0  0  0
    3.6361    1.2855   -2.7079 H   0  0  0  0  0  0  0  0  0  0  0  0
    1.3152    1.9605   -0.2516 H   0  0  0  0  0  0  0  0  0  0  0  0
    1.4011    1.6375   -1.9810 H   0  0  0  0  0  0  0  0  0  0  0  0
   -0.7870    1.5754   -0.1096 H   0  0  0  0  0  0  0  0  0  0  0  0
   -5.6245    1.4926    0.4166 H   0  0  0  0  0  0  0  0  0  0  0  0
   -5.2018    2.9174    1.3702 H   0  0  0  0  0  0  0  0  0  0  0  0
   -5.1149    1.3148    2.1051 H   0  0  0  0  0  0  0  0  0  0  0  0
   -2.6791    1.7314    2.7627 H   0  0  0  0  0  0  0  0  0  0  0  0
   -2.9052    3.3563    2.0970 H   0  0  0  0  0  0  0  0  0  0  0  0
   -1.5301    2.3838    1.5978 H   0  0  0  0  0  0  0  0  0  0  0  0
   -3.6961    3.6141   -0.4026 H   0  0  0  0  0  0  0  0  0  0  0  0
   -3.9098    2.1568   -1.3821 H   0  0  0  0  0  0  0  0  0  0  0  0
   -2.2958    2.6878   -0.9143 H   0  0  0  0  0  0  0  0  0  0  0  0
   -4.2758   -3.3799    1.4533 H   0  0  0  0  0  0  0  0  0  0  0  0
   -4.6580   -3.3172   -0.3005 H   0  0  0  0  0  0  0  0  0  0  0  0
   -0.3916   -2.8743    0.1848 H   0  0  0  0  0  0  0  0  0  0  0  0
   -1.1416   -2.8626   -1.4585 H   0  0  0  0  0  0  0  0  0  0  0  0
    2.5006   -0.1218    1.2159 H   0  0  0  0  0  0  0  0  0  0  0  0
    4.7639   -0.9301    1.5888 H   0  0  0  0  0  0  0  0  0  0  0  0
  1  2  1  0
  2  3  1  0
  3  4  2  0
  4  5  1  0
  5  6  2  0
  6  7  1  0
  7  8  1  0
  8  9  2  0
  8 10  1  0
 10 11  1  0
 11 12  2  0
 12 13  1  0
 13 14  2  0
 14 15  1  0
 15 16  1  0
 16 17  1  0
 16 18  1  0
 16 19  1  0
 13 20  1  0
 20 21  1  0
 21 22  1  0
 21 23  1  0
  6 24  1  0
 24 25  2  0
 25  3  1  0
 15 11  1  0
 23 12  1  0
  1 26  1  0
  1 27  1  0
  1 28  1  0
  4 29  1  0
  5 30  1  0
  7 31  1  0
  7 32  1  0
 10 33  1  0
 17 34  1  0
 17 35  1  0
 17 36  1  0
 18 37  1  0
 18 38  1  0
 18 39  1  0
 19 40  1  0
 19 41  1  0
 19 42  1  0
 20 43  1  0
 20 44  1  0
 23 45  1  0
 23 46  1  0
 24 47  1  0
 25 48  1  0
M  CHG  2  21   1  22  -1
M  END
$$$$
