
     RDKit          3D

 42 45  0  0  0  0  0  0  0  0999 V2000
    6.1194   -0.0579   -2.2809 C   0  0  0  0  0  0  0  0  0  0  0  0
    5.8955    1.1133   -1.3411 C   0  0  0  0  0  0  0  0  0  0  0  0
    4.8952    0.7562   -0.2840 C   0  0  0  0  0  0  0  0  0  0  0  0
    3.6124    0.8961   -0.4375 N   0  0  0  0  0  0  0  0  0  0  0  0
    2.9843    0.4564    0.7175 N   0  0  0  0  0  0  0  0  0  0  0  0
    1.6125    0.4759    0.8702 C   0  0  0  0  0  0  0  0  0  0  0  0
    0.8308    0.9627   -0.0486 N   0  0  0  0  0  0  0  0  0  0  0  0
    1.1032   -0.0759    2.1697 C   0  0  0  0  0  0  0  0  0  0  0  0
   -0.1956   -0.2760    2.4731 C   0  0  0  0  0  0  0  0  0  0  0  0
   -1.3311   -0.0577    1.6418 C   0  0  0  0  0  0  0  0  0  0  0  0
   -2.2500    1.0085    1.6830 C   0  0  0  0  0  0  0  0  0  0  0  0
   -2.2533    2.1849    2.5873 C   0  0  0  0  0  0  0  0  0  0  0  0
   -3.1918    0.8866    0.7430 N   0  0  0  0  0  0  0  0  0  0  0  0
   -2.9138   -0.2889    0.0872 N   0  0  0  0  0  0  0  0  0  0  0  0
   -3.8156   -0.7054   -0.9469 C   0  0  0  0  0  0  0  0  0  0  0  0
   -3.8588   -2.0104   -1.4498 C   0  0  0  0  0  0  0  0  0  0  0  0
   -4.7652   -2.3531   -2.4614 C   0  0  0  0  0  0  0  0  0  0  0  0
   -5.6431   -1.4029   -2.9757 C   0  0  0  0  0  0  0  0  0  0  0  0
   -5.6265   -0.1065   -2.4733 C   0  0  0  0  0  0  0  0  0  0  0  0
   -4.7252    0.2386   -1.4626 C   0  0  0  0  0  0  0  0  0  0  0  0
   -1.7700   -0.8655    0.6206 C   0  0  0  0  0  0  0  0  0  0  0  0
   -1.0122   -2.2714    0.0093 Cl  0  0  0  0  0  0  0  0  0  0  0  0
    2.1193   -0.4607    3.2245 C   0  0  0  0  0  0  0  0  0  0  0  0
    1.7531   -0.7943    4.3466 O   0  0  0  0  0  0  0  0  0  0  0  0
    3.4579   -0.4300    2.8892 N   0  0  0  0  0  0  0  0  0  0  0  0
    3.7944    0.0016    1.7267 C   0  0  0  0  0  0  0  0  0  0  0  0
    5.4684    0.0863    1.2338 S   0  0  0  0  0  0  0  0  0  0  0  0
    6.5488   -0.9131   -1.7490 H   0  0  0  0  0  0  0  0  0  0  0  0
    6.8061    0.2232   -3.0850 H   0  0  0  0  0  0  0  0  0  0  0  0
    5.1783   -0.3870   -2.7335 H   0  0  0  0  0  0  0  0  0  0  0  0
    5.5126    1.9712   -1.9053 H   0  0  0  0  0  0  0  0  0  0  0  0
    6.8421    1.4160   -0.8812 H   0  0  0  0  0  0  0  0  0  0  0  0
    1.4425    1.2676   -0.8208 H   0  0  0  0  0  0  0  0  0  0  0  0
   -0.4440   -0.6673    3.4601 H   0  0  0  0  0  0  0  0  0  0  0  0
   -2.1158    1.8734    3.6278 H   0  0  0  0  0  0  0  0  0  0  0  0
   -1.4410    2.8688    2.3207 H   0  0  0  0  0  0  0  0  0  0  0  0
   -3.1975    2.7367    2.5259 H   0  0  0  0  0  0  0  0  0  0  0  0
   -3.2434   -2.8116   -1.0623 H   0  0  0  0  0  0  0  0  0  0  0  0
   -4.7907   -3.3726   -2.8399 H   0  0  0  0  0  0  0  0  0  0  0  0
   -6.3445   -1.6750   -3.7598 H   0  0  0  0  0  0  0  0  0  0  0  0
   -6.3128    0.6401   -2.8643 H   0  0  0  0  0  0  0  0  0  0  0  0
   -4.7347    1.2643   -1.0953 H   0  0  0  0  0  0  0  0  0  0  0  0
  1  2  1  0
  2  3  1  0
  3  4  2  0
  4  5  1  0
  5  6  1  0
  6  7  2  3
  6  8  1  0
  8  9  2  3
  9 10  1  0
 10 11  1  0
 11 12  1  0
 11 13  2  0
 13 14  1  0
 14 15  1  0
 15 16  2  0
 16 17  1  0
 17 18  2  0
 18 19  1  0
 19 20  2  0
 14 21  1  0
 21 22  1  0
  8 23  1  0
 23 24  2  0
 23 25  1  0
 25 26  2  0
 26 27  1  0
 27  3  1  0
 26  5  1  0
 21 10  2  0
 20 15  1  0
  1 28  1  0
  1 29  1  0
  1 30  1  0
  2 31  1  0
  2 32  1  0
  7 33  1  0
  9 34  1  0
 12 35  1  0
 12 36  1  0
 12 37  1  0
 16 38  1  0
 17 39  1  0
 18 40  1  0
 19 41  1  0
 20 42  1  0
M  END
$$$$
