
     RDKit          3D

 57 59  0  0  0  0  0  0  0  0999 V2000
   -5.4058   -0.6555   -2.3545 C   0  0  0  0  0  0  0  0  0  0  0  0
   -5.0880    0.7451   -1.8520 C   0  0  0  0  0  0  0  0  0  0  0  0
   -4.1736    0.7205   -0.7015 N   0  0  0  0  0  0  0  0  0  0  0  0
   -2.8046    0.6475   -0.9981 C   0  0  0  0  0  0  0  0  0  0  0  0
   -2.3960    0.6082   -2.1620 O   0  0  0  0  0  0  0  0  0  0  0  0
   -1.8119    0.6344    0.1744 C   0  0  0  0  0  0  0  0  0  0  0  0
   -0.4618    0.4702   -0.2680 O   0  0  0  0  0  0  0  0  0  0  0  0
   -0.1475   -0.8086   -0.5941 C   0  0  0  0  0  0  0  0  0  0  0  0
   -0.8287   -1.7984   -0.3973 O   0  0  0  0  0  0  0  0  0  0  0  0
    1.1888   -0.8180   -1.2215 C   0  0  0  0  0  0  0  0  0  0  0  0
    2.2435   -0.1566   -0.5740 C   0  0  0  0  0  0  0  0  0  0  0  0
    3.5330   -0.1703   -1.1290 C   0  0  0  0  0  0  0  0  0  0  0  0
    4.8213    0.6921   -0.2707 S   0  0  0  0  0  6  0  0  0  0  0  0
    5.4084    1.6341   -1.1962 O   0  0  0  0  0  0  0  0  0  0  0  0
    4.2837    1.1483    0.9953 O   0  0  0  0  0  0  0  0  0  0  0  0
    5.9541   -0.5233    0.0951 N   0  0  0  0  0  0  0  0  0  0  0  0
    5.4615   -1.6393    0.9667 C   0  0  0  0  0  0  0  0  0  0  0  0
    6.6412   -2.4013    1.5788 C   0  0  0  0  0  0  0  0  0  0  0  0
    7.4410   -1.5859    2.4450 O   0  0  0  0  0  0  0  0  0  0  0  0
    7.4717   -0.2045    2.0560 C   0  0  0  0  0  0  0  0  0  0  0  0
    7.2868    0.0006    0.5501 C   0  0  0  0  0  0  0  0  0  0  0  0
    3.7707   -0.8366   -2.3324 C   0  0  0  0  0  0  0  0  0  0  0  0
    5.3133   -0.9284   -3.0991 Cl  0  0  0  0  0  0  0  0  0  0  0  0
    2.7128   -1.4954   -2.9724 C   0  0  0  0  0  0  0  0  0  0  0  0
    1.4253   -1.4915   -2.4226 C   0  0  0  0  0  0  0  0  0  0  0  0
    0.1860   -2.3067   -3.3041 Cl  0  0  0  0  0  0  0  0  0  0  0  0
   -4.7170    0.9215    0.6548 C   0  0  0  0  0  0  0  0  0  0  0  0
   -5.0383    2.3990    0.9325 C   0  0  0  0  0  0  0  0  0  0  0  0
   -5.6605    2.4367    2.3225 C   0  0  0  0  0  0  0  0  0  0  0  0
   -6.6118    0.9304    2.4605 S   0  0  0  0  0  6  0  0  0  0  0  0
   -6.1297    0.1925    3.6090 O   0  0  0  0  0  0  0  0  0  0  0  0
   -8.0116    1.2426    2.2675 O   0  0  0  0  0  0  0  0  0  0  0  0
   -5.9935    0.1443    0.9828 C   0  0  0  0  0  0  0  0  0  0  0  0
   -6.0912   -0.6057   -3.2062 H   0  0  0  0  0  0  0  0  0  0  0  0
   -4.4987   -1.1762   -2.6780 H   0  0  0  0  0  0  0  0  0  0  0  0
   -5.8745   -1.2625   -1.5741 H   0  0  0  0  0  0  0  0  0  0  0  0
   -4.6289    1.3206   -2.6643 H   0  0  0  0  0  0  0  0  0  0  0  0
   -6.0071    1.2755   -1.5854 H   0  0  0  0  0  0  0  0  0  0  0  0
   -1.8662    1.6038    0.6796 H   0  0  0  0  0  0  0  0  0  0  0  0
   -2.0681   -0.1494    0.8947 H   0  0  0  0  0  0  0  0  0  0  0  0
    2.0532    0.3672    0.3625 H   0  0  0  0  0  0  0  0  0  0  0  0
    4.8637   -2.3251    0.3584 H   0  0  0  0  0  0  0  0  0  0  0  0
    4.8368   -1.2403    1.7732 H   0  0  0  0  0  0  0  0  0  0  0  0
    7.2931   -2.8039    0.7947 H   0  0  0  0  0  0  0  0  0  0  0  0
    6.2782   -3.2483    2.1695 H   0  0  0  0  0  0  0  0  0  0  0  0
    6.6907    0.3199    2.6182 H   0  0  0  0  0  0  0  0  0  0  0  0
    8.4356    0.2026    2.3771 H   0  0  0  0  0  0  0  0  0  0  0  0
    7.4075    1.0598    0.3030 H   0  0  0  0  0  0  0  0  0  0  0  0
    8.0554   -0.5488   -0.0064 H   0  0  0  0  0  0  0  0  0  0  0  0
    2.8913   -2.0145   -3.9133 H   0  0  0  0  0  0  0  0  0  0  0  0
   -3.9613    0.6153    1.3844 H   0  0  0  0  0  0  0  0  0  0  0  0
   -5.7546    2.7827    0.1961 H   0  0  0  0  0  0  0  0  0  0  0  0
   -4.1469    3.0323    0.8790 H   0  0  0  0  0  0  0  0  0  0  0  0
   -6.3116    3.3015    2.4652 H   0  0  0  0  0  0  0  0  0  0  0  0
   -4.8890    2.4172    3.0978 H   0  0  0  0  0  0  0  0  0  0  0  0
   -5.8006   -0.9131    1.1779 H   0  0  0  0  0  0  0  0  0  0  0  0
   -6.7697    0.2417    0.2202 H   0  0  0  0  0  0  0  0  0  0  0  0
  1  2  1  0
  2  3  1  0
  3  4  1  0
  4  5  2  0
  4  6  1  0
  6  7  1  0
  7  8  1  0
  8  9  2  0
  8 10  1  0
 10 11  2  0
 11 12  1  0
 12 13  1  0
 13 14  2  0
 13 15  2  0
 13 16  1  0
 16 17  1  0
 17 18  1  0
 18 19  1  0
 19 20  1  0
 20 21  1  0
 12 22  2  0
 22 23  1  0
 22 24  1  0
 24 25  2  0
 25 26  1  0
  3 27  1  0
 27 28  1  0
 28 29  1  0
 29 30  1  0
 30 31  2  0
 30 32  2  0
 30 33  1  0
 25 10  1  0
 33 27  1  0
 21 16  1  0
  1 34  1  0
  1 35  1  0
  1 36  1  0
  2 37  1  0
  2 38  1  0
  6 39  1  0
  6 40  1  0
 11 41  1  0
 17 42  1  0
 17 43  1  0
 18 44  1  0
 18 45  1  0
 20 46  1  0
 20 47  1  0
 21 48  1  0
 21 49  1  0
 24 50  1  0
 27 51  1  0
 28 52  1  0
 28 53  1  0
 29 54  1  0
 29 55  1  0
 33 56  1  0
 33 57  1  0
M  END
$$$$
