
     RDKit          3D

 66 68  0  0  0  0  0  0  0  0999 V2000
   -7.1281   -3.0860    3.2413 C   0  0  0  0  0  0  0  0  0  0  0  0
   -7.1688   -2.6114    1.7991 C   0  0  0  0  0  0  0  0  0  0  0  0
   -5.9074   -2.0703    1.4133 O   0  0  0  0  0  0  0  0  0  0  0  0
   -5.6841   -0.7211    1.5327 C   0  0  0  0  0  0  0  0  0  0  0  0
   -6.5123    0.1546    2.2451 C   0  0  0  0  0  0  0  0  0  0  0  0
   -6.2032    1.5140    2.3319 C   0  0  0  0  0  0  0  0  0  0  0  0
   -5.0582    2.0098    1.7193 C   0  0  0  0  0  0  0  0  0  0  0  0
   -4.2194    1.1469    1.0141 C   0  0  0  0  0  0  0  0  0  0  0  0
   -4.5237   -0.2211    0.8981 C   0  0  0  0  0  0  0  0  0  0  0  0
   -3.6150   -1.1339    0.1701 C   0  0  0  0  0  0  0  0  0  0  0  0
   -2.9122   -0.7916   -0.9219 C   0  0  0  0  0  0  0  0  0  0  0  0
   -2.0654   -1.7332   -1.5762 C   0  0  0  0  0  0  0  0  0  0  0  0
   -2.1877   -3.0970   -1.3894 O   0  0  0  0  0  0  0  0  0  0  0  0
   -1.2655   -3.7904   -2.1396 N   0  0  0  0  0  0  0  0  0  0  0  0
   -0.5621   -2.8667   -2.7970 C   0  0  0  0  0  0  0  0  0  0  0  0
    0.5260   -3.2805   -3.7144 C   0  0  0  0  0  0  0  0  0  0  0  0
   -1.0151   -1.5694   -2.4666 C   0  0  0  0  0  0  0  0  0  0  0  0
   -0.3013   -0.1314   -3.0505 S   0  0  0  0  0  6  0  0  0  0  0  0
   -1.0468    0.9680   -2.4814 O   0  0  0  0  0  0  0  0  0  0  0  0
   -0.2243   -0.3312   -4.4816 O   0  0  0  0  0  0  0  0  0  0  0  0
    1.2926   -0.0439   -2.4465 N   0  0  0  0  0  0  0  0  0  0  0  0
    1.4101   -0.0315   -0.9659 C   0  0  0  0  0  0  0  0  0  0  0  0
    2.8865   -0.0410   -0.5831 C   0  0  0  0  0  0  0  0  0  0  0  0
    3.6165    1.2120   -1.0954 C   0  0  0  0  0  0  0  0  0  0  0  0
    3.9123    2.1502    0.0777 C   0  0  0  0  0  0  0  0  0  0  0  0
    3.1667    3.1029    0.3143 O   0  0  0  0  0  0  0  0  0  0  0  0
    5.0000    1.8577    0.8970 N   0  0  0  0  0  0  0  0  0  0  0  0
    5.9617    0.7734    0.6815 C   0  0  0  0  0  0  0  0  0  0  0  0
    7.1463    1.2284   -0.1575 C   0  0  0  0  0  0  0  0  0  0  0  0
    5.2477    2.7351    2.0436 C   0  0  0  0  0  0  0  0  0  0  0  0
    4.5187    2.2483    3.2861 C   0  0  0  0  0  0  0  0  0  0  0  0
    2.8043    1.9324   -2.1844 C   0  0  0  0  0  0  0  0  0  0  0  0
    2.1583    0.9470   -3.1480 C   0  0  0  0  0  0  0  0  0  0  0  0
   -8.0730   -3.5621    3.5190 H   0  0  0  0  0  0  0  0  0  0  0  0
   -6.9381   -2.2579    3.9307 H   0  0  0  0  0  0  0  0  0  0  0  0
   -6.3164   -3.8072    3.3837 H   0  0  0  0  0  0  0  0  0  0  0  0
   -7.3419   -3.4812    1.1552 H   0  0  0  0  0  0  0  0  0  0  0  0
   -8.0017   -1.9265    1.6053 H   0  0  0  0  0  0  0  0  0  0  0  0
   -7.4030   -0.1896    2.7595 H   0  0  0  0  0  0  0  0  0  0  0  0
   -6.8545    2.1830    2.8887 H   0  0  0  0  0  0  0  0  0  0  0  0
   -4.8105    3.0654    1.7960 H   0  0  0  0  0  0  0  0  0  0  0  0
   -3.3182    1.5580    0.5646 H   0  0  0  0  0  0  0  0  0  0  0  0
   -3.5619   -2.1450    0.5712 H   0  0  0  0  0  0  0  0  0  0  0  0
   -2.9931    0.2090   -1.3333 H   0  0  0  0  0  0  0  0  0  0  0  0
    0.7392   -4.3515   -3.6255 H   0  0  0  0  0  0  0  0  0  0  0  0
    0.2454   -3.0813   -4.7537 H   0  0  0  0  0  0  0  0  0  0  0  0
    1.4520   -2.7412   -3.4927 H   0  0  0  0  0  0  0  0  0  0  0  0
    0.9462   -0.9348   -0.5568 H   0  0  0  0  0  0  0  0  0  0  0  0
    0.8992    0.8373   -0.5371 H   0  0  0  0  0  0  0  0  0  0  0  0
    2.9754   -0.1469    0.5048 H   0  0  0  0  0  0  0  0  0  0  0  0
    3.3602   -0.9285   -1.0234 H   0  0  0  0  0  0  0  0  0  0  0  0
    4.5660    0.9123   -1.5518 H   0  0  0  0  0  0  0  0  0  0  0  0
    6.3070    0.4150    1.6578 H   0  0  0  0  0  0  0  0  0  0  0  0
    5.4763   -0.0742    0.1933 H   0  0  0  0  0  0  0  0  0  0  0  0
    7.6813    2.0503    0.3283 H   0  0  0  0  0  0  0  0  0  0  0  0
    6.8244    1.5805   -1.1426 H   0  0  0  0  0  0  0  0  0  0  0  0
    7.8492    0.4020   -0.3020 H   0  0  0  0  0  0  0  0  0  0  0  0
    6.3255    2.7855    2.2310 H   0  0  0  0  0  0  0  0  0  0  0  0
    4.9186    3.7532    1.8078 H   0  0  0  0  0  0  0  0  0  0  0  0
    4.7139    2.9188    4.1287 H   0  0  0  0  0  0  0  0  0  0  0  0
    3.4374    2.2115    3.1201 H   0  0  0  0  0  0  0  0  0  0  0  0
    4.8464    1.2420    3.5662 H   0  0  0  0  0  0  0  0  0  0  0  0
    2.0185    2.5608   -1.7469 H   0  0  0  0  0  0  0  0  0  0  0  0
    3.4612    2.6160   -2.7363 H   0  0  0  0  0  0  0  0  0  0  0  0
    1.5923    1.5117   -3.8969 H   0  0  0  0  0  0  0  0  0  0  0  0
    2.9298    0.3865   -3.6888 H   0  0  0  0  0  0  0  0  0  0  0  0
  1  2  1  0
  2  3  1  0
  3  4  1  0
  4  5  2  0
  5  6  1  0
  6  7  2  0
  7  8  1  0
  8  9  2  0
  9 10  1  0
 10 11  2  3
 11 12  1  0
 12 13  1  0
 13 14  1  0
 14 15  2  0
 15 16  1  0
 15 17  1  0
 17 18  1  0
 18 19  2  0
 18 20  2  0
 18 21  1  0
 21 22  1  0
 22 23  1  0
 23 24  1  0
 24 25  1  0
 25 26  2  0
 25 27  1  0
 27 28  1  0
 28 29  1  0
 27 30  1  0
 30 31  1  0
 24 32  1  0
 32 33  1  0
  9  4  1  0
 17 12  2  0
 33 21  1  0
  1 34  1  0
  1 35  1  0
  1 36  1  0
  2 37  1  0
  2 38  1  0
  5 39  1  0
  6 40  1  0
  7 41  1  0
  8 42  1  0
 10 43  1  0
 11 44  1  0
 16 45  1  0
 16 46  1  0
 16 47  1  0
 22 48  1  0
 22 49  1  0
 23 50  1  0
 23 51  1  0
 24 52  1  0
 28 53  1  0
 28 54  1  0
 29 55  1  0
 29 56  1  0
 29 57  1  0
 30 58  1  0
 30 59  1  0
 31 60  1  0
 31 61  1  0
 31 62  1  0
 32 63  1  0
 32 64  1  0
 33 65  1  0
 33 66  1  0
M  END
$$$$
