
     RDKit          3D

 55 57  0  0  0  0  0  0  0  0999 V2000
   -7.5760   -3.0327   -2.2037 C   0  0  0  0  0  0  0  0  0  0  0  0
   -7.7100   -2.0675   -1.1705 O   0  0  0  0  0  0  0  0  0  0  0  0
   -6.5608   -1.5956   -0.5854 C   0  0  0  0  0  0  0  0  0  0  0  0
   -5.2733   -2.0420   -0.9003 C   0  0  0  0  0  0  0  0  0  0  0  0
   -4.1600   -1.5014   -0.2529 C   0  0  0  0  0  0  0  0  0  0  0  0
   -4.3213   -0.5074    0.7146 C   0  0  0  0  0  0  0  0  0  0  0  0
   -3.1622    0.0676    1.4033 C   0  0  0  0  0  0  0  0  0  0  0  0
   -2.2695    0.9044    0.8581 C   0  0  0  0  0  0  0  0  0  0  0  0
   -2.2364    1.5199   -0.7427 S   0  0  0  0  0  0  0  0  0  0  0  0
   -0.7956    2.4847   -0.4445 C   0  0  0  0  0  0  0  0  0  0  0  0
   -0.1218    3.4445   -1.6321 S   0  0  0  0  0  0  0  0  0  0  0  0
   -0.3662    2.2985    0.8535 N   0  0  0  0  0  0  0  0  0  0  0  0
    0.7983    2.9458    1.4629 C   0  0  0  0  0  0  0  0  0  0  0  0
    2.0158    2.0219    1.5738 C   0  0  0  0  0  0  0  0  0  0  0  0
    2.6451    1.6888    0.2216 C   0  0  0  0  0  0  0  0  0  0  0  0
    3.9259    0.8800    0.3618 C   0  0  0  0  0  0  0  0  0  0  0  0
    4.3123    0.4588    1.4442 O   0  0  0  0  0  0  0  0  0  0  0  0
    4.5442    0.6983   -0.8648 N   0  0  0  0  0  0  0  0  0  0  0  0
    5.7522    0.0182   -1.1278 C   0  0  0  0  0  0  0  0  0  0  0  0
    6.1875   -0.0067   -2.4606 C   0  0  0  0  0  0  0  0  0  0  0  0
    7.3758   -0.6491   -2.8143 C   0  0  0  0  0  0  0  0  0  0  0  0
    8.1448   -1.2754   -1.8365 C   0  0  0  0  0  0  0  0  0  0  0  0
    7.7211   -1.2624   -0.5019 C   0  0  0  0  0  0  0  0  0  0  0  0
    8.5081   -1.9202    0.5709 C   0  0  0  0  0  0  0  0  0  0  0  0
    8.2119   -1.9800    1.7491 O   0  0  0  0  0  0  0  0  0  0  0  0
    9.6433   -2.4815    0.1152 O   0  0  0  0  0  0  0  0  0  0  0  0
    6.5251   -0.6155   -0.1519 C   0  0  0  0  0  0  0  0  0  0  0  0
   -1.1346    1.4560    1.6424 C   0  0  0  0  0  0  0  0  0  0  0  0
   -0.9380    1.1946    2.8214 O   0  0  0  0  0  0  0  0  0  0  0  0
   -5.6079   -0.0627    1.0415 C   0  0  0  0  0  0  0  0  0  0  0  0
   -6.7303   -0.5981    0.3968 C   0  0  0  0  0  0  0  0  0  0  0  0
   -8.0256   -0.2183    0.6515 O   0  0  0  0  0  0  0  0  0  0  0  0
   -8.2391    0.7967    1.6212 C   0  0  0  0  0  0  0  0  0  0  0  0
   -8.5792   -3.2733   -2.5696 H   0  0  0  0  0  0  0  0  0  0  0  0
   -7.0022   -2.6333   -3.0466 H   0  0  0  0  0  0  0  0  0  0  0  0
   -7.1306   -3.9581   -1.8233 H   0  0  0  0  0  0  0  0  0  0  0  0
   -5.1010   -2.8116   -1.6453 H   0  0  0  0  0  0  0  0  0  0  0  0
   -3.1688   -1.8659   -0.5122 H   0  0  0  0  0  0  0  0  0  0  0  0
   -3.0674   -0.2199    2.4494 H   0  0  0  0  0  0  0  0  0  0  0  0
    0.5112    3.2591    2.4743 H   0  0  0  0  0  0  0  0  0  0  0  0
    1.0639    3.8570    0.9190 H   0  0  0  0  0  0  0  0  0  0  0  0
    2.7654    2.5208    2.2016 H   0  0  0  0  0  0  0  0  0  0  0  0
    1.7445    1.0942    2.0927 H   0  0  0  0  0  0  0  0  0  0  0  0
    1.9472    1.1025   -0.3865 H   0  0  0  0  0  0  0  0  0  0  0  0
    2.8861    2.6160   -0.3112 H   0  0  0  0  0  0  0  0  0  0  0  0
    4.0890    1.1152   -1.6679 H   0  0  0  0  0  0  0  0  0  0  0  0
    5.6083    0.4747   -3.2450 H   0  0  0  0  0  0  0  0  0  0  0  0
    7.7011   -0.6606   -3.8523 H   0  0  0  0  0  0  0  0  0  0  0  0
    9.0690   -1.7718   -2.1222 H   0  0  0  0  0  0  0  0  0  0  0  0
   10.0453   -2.8680    0.9221 H   0  0  0  0  0  0  0  0  0  0  0  0
    6.2240   -0.6225    0.8920 H   0  0  0  0  0  0  0  0  0  0  0  0
   -5.7116    0.7068    1.7996 H   0  0  0  0  0  0  0  0  0  0  0  0
   -9.3171    0.9711    1.6914 H   0  0  0  0  0  0  0  0  0  0  0  0
   -7.8898    0.4795    2.6090 H   0  0  0  0  0  0  0  0  0  0  0  0
   -7.7699    1.7378    1.3172 H   0  0  0  0  0  0  0  0  0  0  0  0
  1  2  1  0
  2  3  1  0
  3  4  2  0
  4  5  1  0
  5  6  2  0
  6  7  1  0
  7  8  2  3
  8  9  1  0
  9 10  1  0
 10 11  2  0
 10 12  1  0
 12 13  1  0
 13 14  1  0
 14 15  1  0
 15 16  1  0
 16 17  2  0
 16 18  1  0
 18 19  1  0
 19 20  2  0
 20 21  1  0
 21 22  2  0
 22 23  1  0
 23 24  1  0
 24 25  2  0
 24 26  1  0
 23 27  2  0
 12 28  1  0
 28 29  2  0
  6 30  1  0
 30 31  2  0
 31 32  1  0
 32 33  1  0
 31  3  1  0
 28  8  1  0
 27 19  1  0
  1 34  1  0
  1 35  1  0
  1 36  1  0
  4 37  1  0
  5 38  1  0
  7 39  1  0
 13 40  1  0
 13 41  1  0
 14 42  1  0
 14 43  1  0
 15 44  1  0
 15 45  1  0
 18 46  1  0
 20 47  1  0
 21 48  1  0
 22 49  1  0
 26 50  1  0
 27 51  1  0
 30 52  1  0
 33 53  1  0
 33 54  1  0
 33 55  1  0
M  END
$$$$
