
     RDKit          3D

 51 55  0  0  0  0  0  0  0  0999 V2000
   -1.4585    1.2672    1.5729 C   0  0  0  0  0  0  0  0  0  0  0  0
   -0.0836    1.3783    1.8133 C   0  0  0  0  0  0  0  0  0  0  0  0
    0.7995    0.6906    0.9658 C   0  0  0  0  0  0  0  0  0  0  0  0
    0.3336   -0.0836   -0.0992 C   0  0  0  0  0  0  0  0  0  0  0  0
   -1.0568   -0.1778   -0.3207 C   0  0  0  0  0  0  0  0  0  0  0  0
   -1.9611    0.5009    0.5158 C   0  0  0  0  0  0  0  0  0  0  0  0
   -3.4614    0.4074    0.2973 C   0  0  0  0  0  0  0  0  0  0  0  0
   -3.8835    0.8219   -1.1200 C   0  0  0  0  0  0  0  0  0  0  0  0
   -5.4077    0.8848   -1.2586 C   0  0  0  0  0  0  0  0  0  0  0  0
   -6.1467   -0.1043   -0.3553 C   0  0  0  0  0  0  0  0  0  0  0  0
   -5.3097   -1.3417   -0.0623 C   0  0  0  0  0  0  0  0  0  0  0  0
   -3.9997   -0.9943    0.6516 C   0  0  0  0  0  0  0  0  0  0  0  0
    1.4719   -0.6203   -0.7572 C   0  0  0  0  0  0  0  0  0  0  0  0
    2.5987   -0.1666   -0.0938 C   0  0  0  0  0  0  0  0  0  0  0  0
    2.1846    0.6122    0.9595 N   0  0  0  0  0  0  0  0  0  0  0  0
    3.0381    1.3061    1.9129 C   0  0  0  0  0  0  0  0  0  0  0  0
    4.4075    0.6778    2.1357 C   0  0  0  0  0  0  0  0  0  0  0  0
    5.3792    0.9138    0.9782 C   0  0  0  0  0  0  0  0  0  0  0  0
    4.8873    0.6525   -0.3688 N   0  0  0  0  0  0  0  0  0  0  0  0
    4.0106   -0.5083   -0.4661 C   0  0  0  0  0  0  0  0  0  0  0  0
    4.0358   -1.0166   -1.9303 C   0  0  0  0  0  0  0  0  0  0  0  0
    2.9409   -2.0689   -2.1787 C   0  0  0  0  0  0  0  0  0  0  0  0
    1.5337   -1.4832   -1.9743 C   0  0  0  0  0  0  0  0  0  0  0  0
   -2.1413    1.7982    2.2338 H   0  0  0  0  0  0  0  0  0  0  0  0
    0.2749    1.9848    2.6382 H   0  0  0  0  0  0  0  0  0  0  0  0
   -1.4177   -0.7851   -1.1456 H   0  0  0  0  0  0  0  0  0  0  0  0
   -3.9417    1.1211    0.9828 H   0  0  0  0  0  0  0  0  0  0  0  0
   -3.4555    1.7961   -1.3872 H   0  0  0  0  0  0  0  0  0  0  0  0
   -3.4943    0.1053   -1.8547 H   0  0  0  0  0  0  0  0  0  0  0  0
   -5.6722    0.6992   -2.3068 H   0  0  0  0  0  0  0  0  0  0  0  0
   -5.7594    1.8984   -1.0308 H   0  0  0  0  0  0  0  0  0  0  0  0
   -7.0961   -0.3894   -0.8224 H   0  0  0  0  0  0  0  0  0  0  0  0
   -6.4017    0.3887    0.5914 H   0  0  0  0  0  0  0  0  0  0  0  0
   -5.8816   -2.0513    0.5464 H   0  0  0  0  0  0  0  0  0  0  0  0
   -5.0828   -1.8528   -1.0065 H   0  0  0  0  0  0  0  0  0  0  0  0
   -4.1537   -1.0411    1.7379 H   0  0  0  0  0  0  0  0  0  0  0  0
   -3.2698   -1.7813    0.4247 H   0  0  0  0  0  0  0  0  0  0  0  0
    3.1234    2.3433    1.5695 H   0  0  0  0  0  0  0  0  0  0  0  0
    2.5095    1.3055    2.8727 H   0  0  0  0  0  0  0  0  0  0  0  0
    4.3032   -0.3962    2.3342 H   0  0  0  0  0  0  0  0  0  0  0  0
    4.8510    1.1137    3.0396 H   0  0  0  0  0  0  0  0  0  0  0  0
    6.2703    0.2970    1.1473 H   0  0  0  0  0  0  0  0  0  0  0  0
    5.7293    1.9527    1.0114 H   0  0  0  0  0  0  0  0  0  0  0  0
    4.3905    1.4622   -0.7395 H   0  0  0  0  0  0  0  0  0  0  0  0
    4.3690   -1.3299    0.1678 H   0  0  0  0  0  0  0  0  0  0  0  0
    5.0186   -1.4505   -2.1525 H   0  0  0  0  0  0  0  0  0  0  0  0
    3.8880   -0.1851   -2.6336 H   0  0  0  0  0  0  0  0  0  0  0  0
    3.0916   -2.9115   -1.4918 H   0  0  0  0  0  0  0  0  0  0  0  0
    3.0262   -2.4666   -3.1963 H   0  0  0  0  0  0  0  0  0  0  0  0
    1.2653   -0.8752   -2.8470 H   0  0  0  0  0  0  0  0  0  0  0  0
    0.8045   -2.2981   -1.9055 H   0  0  0  0  0  0  0  0  0  0  0  0
  1  2  2  0
  2  3  1  0
  3  4  2  0
  4  5  1  0
  5  6  2  0
  6  7  1  0
  7  8  1  0
  8  9  1  0
  9 10  1  0
 10 11  1  0
 11 12  1  0
  4 13  1  0
 13 14  2  0
 14 15  1  0
 15 16  1  0
 16 17  1  0
 17 18  1  0
 18 19  1  0
 19 20  1  0
 20 21  1  0
 21 22  1  0
 22 23  1  0
  6  1  1  0
 12  7  1  0
 23 13  1  0
 15  3  1  0
 20 14  1  0
  1 24  1  0
  2 25  1  0
  5 26  1  0
  7 27  1  0
  8 28  1  0
  8 29  1  0
  9 30  1  0
  9 31  1  0
 10 32  1  0
 10 33  1  0
 11 34  1  0
 11 35  1  0
 12 36  1  0
 12 37  1  0
 16 38  1  0
 16 39  1  0
 17 40  1  0
 17 41  1  0
 18 42  1  0
 18 43  1  0
 19 44  1  0
 20 45  1  0
 21 46  1  0
 21 47  1  0
 22 48  1  0
 22 49  1  0
 23 50  1  0
 23 51  1  0
M  END
$$$$
