
     RDKit          3D

 55 57  0  0  0  0  0  0  0  0999 V2000
    1.8842    2.2707   -1.6121 C   0  0  0  0  0  0  0  0  0  0  0  0
    0.4018    2.3076   -1.9351 C   0  0  0  0  0  0  0  0  0  0  0  0
   -0.3676    1.4537   -1.0941 O   0  0  0  0  0  0  0  0  0  0  0  0
   -0.2698    0.0639   -1.3957 C   0  0  0  0  0  0  0  0  0  0  0  0
    0.9405   -0.5172   -0.8978 O   0  0  0  0  0  0  0  0  0  0  0  0
    0.9361   -0.9070    0.4269 C   0  0  0  0  0  0  0  0  0  0  0  0
    2.2730   -1.1918    1.0742 C   0  0  0  0  0  0  0  0  0  0  0  0
    2.3564   -1.5705    2.2358 O   0  0  0  0  0  0  0  0  0  0  0  0
    3.3102   -0.9693    0.1912 N   0  0  0  0  0  0  0  0  0  0  0  0
    4.6913   -1.1076    0.4191 C   0  0  0  0  0  0  0  0  0  0  0  0
    5.2439   -1.5116    1.6353 C   0  0  0  0  0  0  0  0  0  0  0  0
    6.6307   -1.6226    1.7807 C   0  0  0  0  0  0  0  0  0  0  0  0
    7.4749   -1.3313    0.7119 C   0  0  0  0  0  0  0  0  0  0  0  0
    6.9335   -0.9271   -0.5052 C   0  0  0  0  0  0  0  0  0  0  0  0
    5.5482   -0.8158   -0.6504 C   0  0  0  0  0  0  0  0  0  0  0  0
   -0.1760   -1.0577    1.1627 C   0  0  0  0  0  0  0  0  0  0  0  0
   -1.5627   -0.8407    0.6259 C   0  0  0  0  0  0  0  0  0  0  0  0
   -2.3032    0.2281    1.4256 C   0  0  0  0  0  0  0  0  0  0  0  0
   -1.7709    1.5088    1.6414 C   0  0  0  0  0  0  0  0  0  0  0  0
   -2.4737    2.4682    2.3764 C   0  0  0  0  0  0  0  0  0  0  0  0
   -3.7161    2.1527    2.9161 C   0  0  0  0  0  0  0  0  0  0  0  0
   -4.6679    3.4486    3.9090 Br  0  0  0  0  0  0  0  0  0  0  0  0
   -4.2578    0.8842    2.7352 C   0  0  0  0  0  0  0  0  0  0  0  0
   -3.5521   -0.0720    1.9996 C   0  0  0  0  0  0  0  0  0  0  0  0
   -1.5281   -0.6919   -0.9204 C   0  0  0  0  0  0  0  0  0  0  0  0
   -2.8065   -0.1146   -1.5629 C   0  0  0  0  0  0  0  0  0  0  0  0
   -3.9956   -1.0735   -1.4968 C   0  0  0  0  0  0  0  0  0  0  0  0
   -5.2439   -0.4566   -2.1154 C   0  0  0  0  0  0  0  0  0  0  0  0
   -6.3144   -1.3894   -2.0591 O   0  0  0  0  0  0  0  0  0  0  0  0
    2.3360    1.3299   -1.9382 H   0  0  0  0  0  0  0  0  0  0  0  0
    2.0526    2.3619   -0.5344 H   0  0  0  0  0  0  0  0  0  0  0  0
    2.4079    3.0833   -2.1246 H   0  0  0  0  0  0  0  0  0  0  0  0
    0.2176    2.0792   -2.9908 H   0  0  0  0  0  0  0  0  0  0  0  0
    0.0344    3.3245   -1.7602 H   0  0  0  0  0  0  0  0  0  0  0  0
   -0.2242   -0.0482   -2.4868 H   0  0  0  0  0  0  0  0  0  0  0  0
    3.0257   -0.6658   -0.7326 H   0  0  0  0  0  0  0  0  0  0  0  0
    4.6224   -1.7477    2.4933 H   0  0  0  0  0  0  0  0  0  0  0  0
    7.0473   -1.9378    2.7340 H   0  0  0  0  0  0  0  0  0  0  0  0
    8.5516   -1.4190    0.8293 H   0  0  0  0  0  0  0  0  0  0  0  0
    7.5883   -0.6984   -1.3418 H   0  0  0  0  0  0  0  0  0  0  0  0
    5.1503   -0.4981   -1.6103 H   0  0  0  0  0  0  0  0  0  0  0  0
   -0.0995   -1.3653    2.2049 H   0  0  0  0  0  0  0  0  0  0  0  0
   -2.0907   -1.7872    0.8178 H   0  0  0  0  0  0  0  0  0  0  0  0
   -0.7924    1.7768    1.2508 H   0  0  0  0  0  0  0  0  0  0  0  0
   -2.0366    3.4522    2.5240 H   0  0  0  0  0  0  0  0  0  0  0  0
   -5.2213    0.6265    3.1662 H   0  0  0  0  0  0  0  0  0  0  0  0
   -3.9874   -1.0626    1.8862 H   0  0  0  0  0  0  0  0  0  0  0  0
   -1.4030   -1.7152   -1.3104 H   0  0  0  0  0  0  0  0  0  0  0  0
   -2.6058    0.0956   -2.6219 H   0  0  0  0  0  0  0  0  0  0  0  0
   -3.0702    0.8479   -1.1103 H   0  0  0  0  0  0  0  0  0  0  0  0
   -3.7551   -2.0051   -2.0245 H   0  0  0  0  0  0  0  0  0  0  0  0
   -4.2146   -1.3690   -0.4670 H   0  0  0  0  0  0  0  0  0  0  0  0
   -5.0729   -0.2037   -3.1664 H   0  0  0  0  0  0  0  0  0  0  0  0
   -5.5453    0.4537   -1.5869 H   0  0  0  0  0  0  0  0  0  0  0  0
   -6.5335   -1.5267   -1.1216 H   0  0  0  0  0  0  0  0  0  0  0  0
  1  2  1  0
  2  3  1  0
  3  4  1  0
  4  5  1  0
  5  6  1  0
  6  7  1  0
  7  8  2  0
  7  9  1  0
  9 10  1  0
 10 11  2  0
 11 12  1  0
 12 13  2  0
 13 14  1  0
 14 15  2  0
  6 16  2  0
 16 17  1  0
 17 18  1  0
 18 19  2  0
 19 20  1  0
 20 21  2  0
 21 22  1  0
 21 23  1  0
 23 24  2  0
 17 25  1  0
 25 26  1  0
 26 27  1  0
 27 28  1  0
 28 29  1  0
 25  4  1  0
 15 10  1  0
 24 18  1  0
  1 30  1  0
  1 31  1  0
  1 32  1  0
  2 33  1  0
  2 34  1  0
  4 35  1  0
  9 36  1  0
 11 37  1  0
 12 38  1  0
 13 39  1  0
 14 40  1  0
 15 41  1  0
 16 42  1  0
 17 43  1  0
 19 44  1  0
 20 45  1  0
 23 46  1  0
 24 47  1  0
 25 48  1  0
 26 49  1  0
 26 50  1  0
 27 51  1  0
 27 52  1  0
 28 53  1  0
 28 54  1  0
 29 55  1  0
M  END
$$$$
