
     RDKit          3D

 42 44  0  0  0  0  0  0  0  0999 V2000
   -2.4054    3.0635    0.5215 C   0  0  0  0  0  0  0  0  0  0  0  0
   -1.6518    1.8130    0.9384 C   0  0  0  0  0  0  0  0  0  0  0  0
   -1.4817    0.8730   -0.1487 N   0  0  0  0  0  0  0  0  0  0  0  0
   -0.4742    0.8317   -1.0747 C   0  0  0  0  0  0  0  0  0  0  0  0
    0.8078    1.9862   -1.1604 S   0  0  0  0  0  0  0  0  0  0  0  0
    1.7145    1.4341   -2.6333 C   0  0  0  0  0  0  0  0  0  0  0  0
    2.3631    0.0682   -2.5240 C   0  0  0  0  0  0  0  0  0  0  0  0
    2.4400   -0.6812   -3.4996 O   0  0  0  0  0  0  0  0  0  0  0  0
    3.0250   -0.3673   -1.2665 C   0  0  0  0  0  0  0  0  0  0  0  0
    2.8998   -1.7067   -0.8814 C   0  0  0  0  0  0  0  0  0  0  0  0
    3.5183   -2.1595    0.2839 C   0  0  0  0  0  0  0  0  0  0  0  0
    4.2670   -1.2814    1.0767 C   0  0  0  0  0  0  0  0  0  0  0  0
    4.9791   -1.7778    2.2997 C   0  0  0  0  0  0  0  0  0  0  0  0
    4.4095    0.0525    0.6719 C   0  0  0  0  0  0  0  0  0  0  0  0
    3.7963    0.5100   -0.4991 C   0  0  0  0  0  0  0  0  0  0  0  0
   -0.6371   -0.2030   -1.8606 N   0  0  0  0  0  0  0  0  0  0  0  0
   -1.7688   -0.8651   -1.4490 N   0  0  0  0  0  0  0  0  0  0  0  0
   -2.2847   -0.2132   -0.4255 C   0  0  0  0  0  0  0  0  0  0  0  0
   -3.4897   -0.5845    0.2967 C   0  0  0  0  0  0  0  0  0  0  0  0
   -3.4356   -1.5500    1.3016 C   0  0  0  0  0  0  0  0  0  0  0  0
   -4.6031   -1.8565    1.9771 C   0  0  0  0  0  0  0  0  0  0  0  0
   -5.7923   -1.2738    1.7169 N   0  0  0  0  0  0  0  0  0  0  0  0
   -5.8232   -0.3649    0.7196 C   0  0  0  0  0  0  0  0  0  0  0  0
   -4.7113    0.0097   -0.0136 C   0  0  0  0  0  0  0  0  0  0  0  0
   -1.8791    3.6008   -0.2750 H   0  0  0  0  0  0  0  0  0  0  0  0
   -3.4072    2.8228    0.1540 H   0  0  0  0  0  0  0  0  0  0  0  0
   -2.5121    3.7409    1.3737 H   0  0  0  0  0  0  0  0  0  0  0  0
   -0.6602    2.0708    1.3259 H   0  0  0  0  0  0  0  0  0  0  0  0
   -2.1768    1.3066    1.7567 H   0  0  0  0  0  0  0  0  0  0  0  0
    2.4980    2.1640   -2.8618 H   0  0  0  0  0  0  0  0  0  0  0  0
    1.0194    1.4216   -3.4800 H   0  0  0  0  0  0  0  0  0  0  0  0
    2.3202   -2.3970   -1.4919 H   0  0  0  0  0  0  0  0  0  0  0  0
    3.4206   -3.2054    0.5577 H   0  0  0  0  0  0  0  0  0  0  0  0
    6.0199   -2.0118    2.0539 H   0  0  0  0  0  0  0  0  0  0  0  0
    4.5012   -2.6783    2.6952 H   0  0  0  0  0  0  0  0  0  0  0  0
    4.9621   -1.0224    3.0915 H   0  0  0  0  0  0  0  0  0  0  0  0
    5.0145    0.7397    1.2600 H   0  0  0  0  0  0  0  0  0  0  0  0
    3.9447    1.5416   -0.8026 H   0  0  0  0  0  0  0  0  0  0  0  0
   -2.5090   -2.0579    1.5502 H   0  0  0  0  0  0  0  0  0  0  0  0
   -4.6145   -2.6022    2.7684 H   0  0  0  0  0  0  0  0  0  0  0  0
   -6.7999    0.0687    0.5195 H   0  0  0  0  0  0  0  0  0  0  0  0
   -4.8030    0.7403   -0.8123 H   0  0  0  0  0  0  0  0  0  0  0  0
  1  2  1  0
  2  3  1  0
  3  4  1  0
  4  5  1  0
  5  6  1  0
  6  7  1  0
  7  8  2  0
  7  9  1  0
  9 10  2  0
 10 11  1  0
 11 12  2  0
 12 13  1  0
 12 14  1  0
 14 15  2  0
  4 16  2  0
 16 17  1  0
 17 18  2  0
 18 19  1  0
 19 20  2  0
 20 21  1  0
 21 22  2  0
 22 23  1  0
 23 24  2  0
 18  3  1  0
 24 19  1  0
 15  9  1  0
  1 25  1  0
  1 26  1  0
  1 27  1  0
  2 28  1  0
  2 29  1  0
  6 30  1  0
  6 31  1  0
 10 32  1  0
 11 33  1  0
 13 34  1  0
 13 35  1  0
 13 36  1  0
 14 37  1  0
 15 38  1  0
 20 39  1  0
 21 40  1  0
 23 41  1  0
 24 42  1  0
M  END
$$$$
