
     RDKit          3D

 56 60  0  0  0  0  0  0  0  0999 V2000
   -1.3616    0.4072    2.0882 C   0  0  0  0  0  0  0  0  0  0  0  0
   -0.9720   -0.1166    0.9171 C   0  0  0  0  0  0  0  0  0  0  0  0
    0.4181   -0.4383    0.5242 C   0  0  0  0  0  0  0  0  0  0  0  0
    1.5303   -0.2218    1.2487 C   0  0  0  0  0  0  0  0  0  0  0  0
    2.9068   -0.5203    0.8704 C   0  0  0  0  0  0  0  0  0  0  0  0
    3.3628   -1.7496    0.6039 C   0  0  0  0  0  0  0  0  0  0  0  0
    2.5676   -2.8633    0.6588 O   0  0  0  0  0  0  0  0  0  0  0  0
    4.6529   -1.9712    0.2751 N   0  0  0  0  0  0  0  0  0  0  0  0
    5.6195   -1.0071    0.2099 C   0  0  0  0  0  0  0  0  0  0  0  0
    6.7578   -1.3945   -0.0566 O   0  0  0  0  0  0  0  0  0  0  0  0
    5.2228    0.2993    0.4980 N   0  0  0  0  0  0  0  0  0  0  0  0
    6.2105    1.3595    0.4499 C   0  0  0  0  0  0  0  0  0  0  0  0
    7.2732    1.3292   -0.4718 C   0  0  0  0  0  0  0  0  0  0  0  0
    8.2311    2.3508   -0.5207 C   0  0  0  0  0  0  0  0  0  0  0  0
    8.1434    3.4254    0.3553 C   0  0  0  0  0  0  0  0  0  0  0  0
    9.3175    4.6798    0.2980 Cl  0  0  0  0  0  0  0  0  0  0  0  0
    7.1064    3.4851    1.2777 C   0  0  0  0  0  0  0  0  0  0  0  0
    6.1507    2.4611    1.3227 C   0  0  0  0  0  0  0  0  0  0  0  0
    3.8974    0.6089    0.8370 C   0  0  0  0  0  0  0  0  0  0  0  0
    3.4723    1.7431    1.0729 O   0  0  0  0  0  0  0  0  0  0  0  0
    0.3660   -1.0092   -0.8166 C   0  0  0  0  0  0  0  0  0  0  0  0
   -0.9283   -1.0325   -1.1905 C   0  0  0  0  0  0  0  0  0  0  0  0
   -1.4321   -1.5021   -2.5137 C   0  0  0  0  0  0  0  0  0  0  0  0
   -1.7647   -0.5054   -0.1807 N   0  0  0  0  0  0  0  0  0  0  0  0
   -3.1279   -0.4115   -0.2542 C   0  0  0  0  0  0  0  0  0  0  0  0
   -3.9092    1.1045   -0.5149 S   0  0  0  0  0  0  0  0  0  0  0  0
   -5.4519    0.3968   -0.5027 C   0  0  0  0  0  0  0  0  0  0  0  0
   -5.4125   -0.9670   -0.2903 C   0  0  0  0  0  0  0  0  0  0  0  0
   -4.0620   -1.4314   -0.1512 C   0  0  0  0  0  0  0  0  0  0  0  0
   -3.6978   -2.7994    0.0810 C   0  0  0  0  0  0  0  0  0  0  0  0
   -3.4427   -3.9185    0.2570 N   0  0  0  0  0  0  0  0  0  0  0  0
   -6.6637   -1.7983   -0.2510 C   0  0  0  0  0  0  0  0  0  0  0  0
   -7.9204   -0.9330   -0.0661 C   0  0  0  0  0  0  0  0  0  0  0  0
   -7.8976    0.3027   -0.9767 C   0  0  0  0  0  0  0  0  0  0  0  0
   -6.6976    1.2118   -0.6706 C   0  0  0  0  0  0  0  0  0  0  0  0
   -0.6619    0.6628    2.8740 H   0  0  0  0  0  0  0  0  0  0  0  0
   -2.4079    0.5985    2.2972 H   0  0  0  0  0  0  0  0  0  0  0  0
    1.4543    0.2738    2.2136 H   0  0  0  0  0  0  0  0  0  0  0  0
    3.1200   -3.6507    0.5454 H   0  0  0  0  0  0  0  0  0  0  0  0
    4.9990   -2.8984    0.0706 H   0  0  0  0  0  0  0  0  0  0  0  0
    7.3685    0.5261   -1.1992 H   0  0  0  0  0  0  0  0  0  0  0  0
    9.0358    2.2969   -1.2494 H   0  0  0  0  0  0  0  0  0  0  0  0
    7.0306    4.3195    1.9701 H   0  0  0  0  0  0  0  0  0  0  0  0
    5.3767    2.5398    2.0828 H   0  0  0  0  0  0  0  0  0  0  0  0
    1.2081   -1.3345   -1.4033 H   0  0  0  0  0  0  0  0  0  0  0  0
   -0.6064   -1.7757   -3.1795 H   0  0  0  0  0  0  0  0  0  0  0  0
   -2.0684   -2.3841   -2.3999 H   0  0  0  0  0  0  0  0  0  0  0  0
   -2.0077   -0.7150   -3.0110 H   0  0  0  0  0  0  0  0  0  0  0  0
   -6.7413   -2.3523   -1.1947 H   0  0  0  0  0  0  0  0  0  0  0  0
   -6.6108   -2.5341    0.5594 H   0  0  0  0  0  0  0  0  0  0  0  0
   -8.8118   -1.5354   -0.2742 H   0  0  0  0  0  0  0  0  0  0  0  0
   -7.9907   -0.6064    0.9795 H   0  0  0  0  0  0  0  0  0  0  0  0
   -7.8531   -0.0248   -2.0235 H   0  0  0  0  0  0  0  0  0  0  0  0
   -8.8264    0.8723   -0.8592 H   0  0  0  0  0  0  0  0  0  0  0  0
   -6.5834    1.9470   -1.4752 H   0  0  0  0  0  0  0  0  0  0  0  0
   -6.8884    1.7629    0.2586 H   0  0  0  0  0  0  0  0  0  0  0  0
  1  2  2  0
  2  3  1  0
  3  4  2  3
  4  5  1  0
  5  6  2  0
  6  7  1  0
  6  8  1  0
  8  9  1  0
  9 10  2  0
  9 11  1  0
 11 12  1  0
 12 13  2  0
 13 14  1  0
 14 15  2  0
 15 16  1  0
 15 17  1  0
 17 18  2  0
 11 19  1  0
 19 20  2  0
  3 21  1  0
 21 22  2  0
 22 23  1  0
 22 24  1  0
 24 25  1  0
 25 26  1  0
 26 27  1  0
 27 28  2  0
 28 29  1  0
 29 30  1  0
 30 31  3  0
 28 32  1  0
 32 33  1  0
 33 34  1  0
 34 35  1  0
 24  2  1  0
 29 25  2  0
 19  5  1  0
 35 27  1  0
 18 12  1  0
  1 36  1  0
  1 37  1  0
  4 38  1  0
  7 39  1  0
  8 40  1  0
 13 41  1  0
 14 42  1  0
 17 43  1  0
 18 44  1  0
 21 45  1  0
 23 46  1  0
 23 47  1  0
 23 48  1  0
 32 49  1  0
 32 50  1  0
 33 51  1  0
 33 52  1  0
 34 53  1  0
 34 54  1  0
 35 55  1  0
 35 56  1  0
M  END
$$$$
