
     RDKit          3D

 48 51  0  0  0  0  0  0  0  0999 V2000
    8.9595    1.1447   -0.8196 C   0  0  0  0  0  0  0  0  0  0  0  0
    8.2411    0.4297    0.1774 O   0  0  0  0  0  0  0  0  0  0  0  0
    6.8786    0.4178    0.0692 C   0  0  0  0  0  0  0  0  0  0  0  0
    6.2188   -0.3093    1.0585 C   0  0  0  0  0  0  0  0  0  0  0  0
    4.8227   -0.4026    1.0644 C   0  0  0  0  0  0  0  0  0  0  0  0
    4.0418    0.2343    0.0849 C   0  0  0  0  0  0  0  0  0  0  0  0
    2.5684    0.1297    0.1099 C   0  0  0  0  0  0  0  0  0  0  0  0
    1.7277    1.1504   -0.3212 C   0  0  0  0  0  0  0  0  0  0  0  0
    0.3460    0.9663   -0.2591 C   0  0  0  0  0  0  0  0  0  0  0  0
   -0.1913   -0.2296    0.2355 C   0  0  0  0  0  0  0  0  0  0  0  0
   -1.6387   -0.3881    0.2924 C   0  0  0  0  0  0  0  0  0  0  0  0
   -2.2950   -1.2581    1.0746 N   0  0  0  0  0  0  0  0  0  0  0  0
   -3.6366   -1.0164    0.7952 O   0  0  0  0  0  0  0  0  0  0  0  0
   -3.6772   -0.0033   -0.1173 C   0  0  0  0  0  0  0  0  0  0  0  0
   -4.9820    0.4416   -0.6117 C   0  0  0  0  0  0  0  0  0  0  0  0
   -4.9932    1.2513   -1.7667 C   0  0  0  0  0  0  0  0  0  0  0  0
   -6.1871    1.7188   -2.3145 C   0  0  0  0  0  0  0  0  0  0  0  0
   -7.3945    1.3871   -1.7130 C   0  0  0  0  0  0  0  0  0  0  0  0
   -7.4093    0.5931   -0.5639 C   0  0  0  0  0  0  0  0  0  0  0  0
   -6.2144    0.1159   -0.0030 C   0  0  0  0  0  0  0  0  0  0  0  0
   -6.1704   -0.6459    1.1364 O   0  0  0  0  0  0  0  0  0  0  0  0
   -7.3990   -1.0422    1.7317 C   0  0  0  0  0  0  0  0  0  0  0  0
   -2.4761    0.4161   -0.4595 N   0  0  0  0  0  0  0  0  0  0  0  0
    0.7208   -1.2008    0.6448 C   0  0  0  0  0  0  0  0  0  0  0  0
    0.2445   -2.4142    1.0980 O   0  0  0  0  0  0  0  0  0  0  0  0
    1.2605   -3.3192    1.5145 C   0  0  0  0  0  0  0  0  0  0  0  0
    2.0696   -1.0344    0.5934 N   0  0  0  0  0  0  0  0  0  0  0  0
    4.7263    0.9558   -0.9094 C   0  0  0  0  0  0  0  0  0  0  0  0
    6.1265    1.0491   -0.9183 C   0  0  0  0  0  0  0  0  0  0  0  0
    8.7062    2.2101   -0.8006 H   0  0  0  0  0  0  0  0  0  0  0  0
    8.7909    0.7151   -1.8129 H   0  0  0  0  0  0  0  0  0  0  0  0
   10.0264    1.0522   -0.5938 H   0  0  0  0  0  0  0  0  0  0  0  0
    6.7927   -0.8127    1.8328 H   0  0  0  0  0  0  0  0  0  0  0  0
    4.3404   -0.9809    1.8511 H   0  0  0  0  0  0  0  0  0  0  0  0
    2.1239    2.0922   -0.6862 H   0  0  0  0  0  0  0  0  0  0  0  0
   -0.3098    1.7689   -0.5917 H   0  0  0  0  0  0  0  0  0  0  0  0
   -4.0545    1.5201   -2.2514 H   0  0  0  0  0  0  0  0  0  0  0  0
   -6.1708    2.3393   -3.2070 H   0  0  0  0  0  0  0  0  0  0  0  0
   -8.3294    1.7494   -2.1338 H   0  0  0  0  0  0  0  0  0  0  0  0
   -8.3768    0.3690   -0.1243 H   0  0  0  0  0  0  0  0  0  0  0  0
   -7.1638   -1.6756    2.5931 H   0  0  0  0  0  0  0  0  0  0  0  0
   -8.0026   -1.6367    1.0373 H   0  0  0  0  0  0  0  0  0  0  0  0
   -7.9551   -0.1737    2.1000 H   0  0  0  0  0  0  0  0  0  0  0  0
    1.9135   -3.5951    0.6790 H   0  0  0  0  0  0  0  0  0  0  0  0
    0.7698   -4.2318    1.8665 H   0  0  0  0  0  0  0  0  0  0  0  0
    1.8397   -2.9101    2.3500 H   0  0  0  0  0  0  0  0  0  0  0  0
    4.1781    1.4444   -1.7118 H   0  0  0  0  0  0  0  0  0  0  0  0
    6.5932    1.6180   -1.7153 H   0  0  0  0  0  0  0  0  0  0  0  0
  1  2  1  0
  2  3  1  0
  3  4  2  0
  4  5  1  0
  5  6  2  0
  6  7  1  0
  7  8  2  0
  8  9  1  0
  9 10  2  0
 10 11  1  0
 11 12  2  0
 12 13  1  0
 13 14  1  0
 14 15  1  0
 15 16  2  0
 16 17  1  0
 17 18  2  0
 18 19  1  0
 19 20  2  0
 20 21  1  0
 21 22  1  0
 14 23  2  0
 10 24  1  0
 24 25  1  0
 25 26  1  0
 24 27  2  0
  6 28  1  0
 28 29  2  0
 29  3  1  0
 27  7  1  0
 23 11  1  0
 20 15  1  0
  1 30  1  0
  1 31  1  0
  1 32  1  0
  4 33  1  0
  5 34  1  0
  8 35  1  0
  9 36  1  0
 16 37  1  0
 17 38  1  0
 18 39  1  0
 19 40  1  0
 22 41  1  0
 22 42  1  0
 22 43  1  0
 26 44  1  0
 26 45  1  0
 26 46  1  0
 28 47  1  0
 29 48  1  0
M  END
$$$$
