
     RDKit          3D

 57 59  0  0  0  0  0  0  0  0999 V2000
    0.2975    4.8548    1.0291 C   0  0  0  0  0  0  0  0  0  0  0  0
    0.3944    3.4419    0.8912 O   0  0  0  0  0  0  0  0  0  0  0  0
   -0.7332    2.7069    1.1802 C   0  0  0  0  0  0  0  0  0  0  0  0
   -1.9531    3.2455    1.6008 C   0  0  0  0  0  0  0  0  0  0  0  0
   -3.0366    2.4042    1.8637 C   0  0  0  0  0  0  0  0  0  0  0  0
   -2.8967    1.0225    1.7104 C   0  0  0  0  0  0  0  0  0  0  0  0
   -4.2655   -0.0490    2.1067 S   0  0  0  0  0  6  0  0  0  0  0  0
   -5.2046    0.7360    2.8823 O   0  0  0  0  0  0  0  0  0  0  0  0
   -3.7238   -1.2852    2.6280 O   0  0  0  0  0  0  0  0  0  0  0  0
   -4.9707   -0.3603    0.5955 N   0  0  0  0  0  0  0  0  0  0  0  0
   -5.6028    0.7650   -0.1127 C   0  0  0  0  0  0  0  0  0  0  0  0
   -6.6987    0.2264   -1.0309 C   0  0  0  0  0  0  0  0  0  0  0  0
   -6.2836   -1.0319   -1.7970 C   0  0  0  0  0  0  0  0  0  0  0  0
   -4.7823   -1.2737   -1.7216 C   0  0  0  0  0  0  0  0  0  0  0  0
   -4.3028   -1.3621   -0.2722 C   0  0  0  0  0  0  0  0  0  0  0  0
   -1.6756    0.4698    1.3176 C   0  0  0  0  0  0  0  0  0  0  0  0
   -0.5999    1.3089    1.0231 C   0  0  0  0  0  0  0  0  0  0  0  0
    0.6555    0.8289    0.5863 N   0  0  0  0  0  0  0  0  0  0  0  0
    0.9624   -0.4435    0.1474 C   0  0  0  0  0  0  0  0  0  0  0  0
    0.1615   -1.3533   -0.0365 O   0  0  0  0  0  0  0  0  0  0  0  0
    2.3995   -0.6688   -0.1900 C   0  0  0  0  0  0  0  0  0  0  0  0
    2.7161   -1.6195   -1.1665 C   0  0  0  0  0  0  0  0  0  0  0  0
    4.0483   -1.8602   -1.5137 C   0  0  0  0  0  0  0  0  0  0  0  0
    5.0855   -1.1571   -0.8853 C   0  0  0  0  0  0  0  0  0  0  0  0
    6.5213   -1.4175   -1.2581 C   0  0  0  0  0  0  0  0  0  0  0  0
    7.1915   -2.7103   -0.2170 S   0  0  0  0  0  6  0  0  0  0  0  0
    8.8579   -2.8404   -0.8140 C   0  0  0  0  0  0  0  0  0  0  0  0
    7.2715   -2.2234    1.1487 O   0  0  0  0  0  0  0  0  0  0  0  0
    6.5338   -3.9638   -0.5337 O   0  0  0  0  0  0  0  0  0  0  0  0
    4.7650   -0.2246    0.1122 C   0  0  0  0  0  0  0  0  0  0  0  0
    3.4323    0.0172    0.4610 C   0  0  0  0  0  0  0  0  0  0  0  0
    1.2682    5.2829    0.7616 H   0  0  0  0  0  0  0  0  0  0  0  0
   -0.4488    5.2671    0.3414 H   0  0  0  0  0  0  0  0  0  0  0  0
    0.0835    5.1372    2.0652 H   0  0  0  0  0  0  0  0  0  0  0  0
   -2.0935    4.3118    1.7410 H   0  0  0  0  0  0  0  0  0  0  0  0
   -3.9783    2.8318    2.2020 H   0  0  0  0  0  0  0  0  0  0  0  0
   -4.8489    1.3098   -0.6923 H   0  0  0  0  0  0  0  0  0  0  0  0
   -6.0549    1.4758    0.5860 H   0  0  0  0  0  0  0  0  0  0  0  0
   -6.9901    1.0131   -1.7373 H   0  0  0  0  0  0  0  0  0  0  0  0
   -7.5961   -0.0025   -0.4417 H   0  0  0  0  0  0  0  0  0  0  0  0
   -6.6042   -0.9556   -2.8423 H   0  0  0  0  0  0  0  0  0  0  0  0
   -6.8081   -1.8987   -1.3751 H   0  0  0  0  0  0  0  0  0  0  0  0
   -4.2584   -0.4566   -2.2337 H   0  0  0  0  0  0  0  0  0  0  0  0
   -4.5182   -2.1937   -2.2548 H   0  0  0  0  0  0  0  0  0  0  0  0
   -4.5420   -2.3564    0.1225 H   0  0  0  0  0  0  0  0  0  0  0  0
   -3.2170   -1.2465   -0.2593 H   0  0  0  0  0  0  0  0  0  0  0  0
   -1.5753   -0.6101    1.2645 H   0  0  0  0  0  0  0  0  0  0  0  0
    1.3511    1.5593    0.4766 H   0  0  0  0  0  0  0  0  0  0  0  0
    1.9243   -2.1846   -1.6552 H   0  0  0  0  0  0  0  0  0  0  0  0
    4.2655   -2.6178   -2.2645 H   0  0  0  0  0  0  0  0  0  0  0  0
    6.6068   -1.7396   -2.3009 H   0  0  0  0  0  0  0  0  0  0  0  0
    7.1308   -0.5191   -1.1178 H   0  0  0  0  0  0  0  0  0  0  0  0
    9.3659   -3.6185   -0.2419 H   0  0  0  0  0  0  0  0  0  0  0  0
    9.3608   -1.8829   -0.6675 H   0  0  0  0  0  0  0  0  0  0  0  0
    8.8351   -3.1075   -1.8718 H   0  0  0  0  0  0  0  0  0  0  0  0
    5.5537    0.3034    0.6477 H   0  0  0  0  0  0  0  0  0  0  0  0
    3.2240    0.7143    1.2679 H   0  0  0  0  0  0  0  0  0  0  0  0
  1  2  1  0
  2  3  1  0
  3  4  2  0
  4  5  1  0
  5  6  2  0
  6  7  1  0
  7  8  2  0
  7  9  2  0
  7 10  1  0
 10 11  1  0
 11 12  1  0
 12 13  1  0
 13 14  1  0
 14 15  1  0
  6 16  1  0
 16 17  2  0
 17 18  1  0
 18 19  1  0
 19 20  2  0
 19 21  1  0
 21 22  2  0
 22 23  1  0
 23 24  2  0
 24 25  1  0
 25 26  1  0
 26 27  1  0
 26 28  2  0
 26 29  2  0
 24 30  1  0
 30 31  2  0
 17  3  1  0
 31 21  1  0
 15 10  1  0
  1 32  1  0
  1 33  1  0
  1 34  1  0
  4 35  1  0
  5 36  1  0
 11 37  1  0
 11 38  1  0
 12 39  1  0
 12 40  1  0
 13 41  1  0
 13 42  1  0
 14 43  1  0
 14 44  1  0
 15 45  1  0
 15 46  1  0
 16 47  1  0
 18 48  1  0
 22 49  1  0
 23 50  1  0
 25 51  1  0
 25 52  1  0
 27 53  1  0
 27 54  1  0
 27 55  1  0
 30 56  1  0
 31 57  1  0
M  END
$$$$
