
     RDKit          3D

 50 53  0  0  0  0  0  0  0  0999 V2000
   -8.0939    1.9150    1.4241 C   0  0  0  0  0  0  0  0  0  0  0  0
   -6.8129    1.1746    1.1728 C   0  0  0  0  0  0  0  0  0  0  0  0
   -6.6960   -0.1669    1.5454 C   0  0  0  0  0  0  0  0  0  0  0  0
   -5.5106   -0.8673    1.3060 C   0  0  0  0  0  0  0  0  0  0  0  0
   -4.4222   -0.2413    0.6856 C   0  0  0  0  0  0  0  0  0  0  0  0
   -3.2649   -1.0262    0.4716 N   0  0  0  0  0  0  0  0  0  0  0  0
   -2.0814   -0.6294   -0.1351 C   0  0  0  0  0  0  0  0  0  0  0  0
   -1.8343    0.4831   -0.5954 O   0  0  0  0  0  0  0  0  0  0  0  0
   -1.0419   -1.7588   -0.2242 C   0  0  0  0  0  0  0  0  0  0  0  0
    0.3131   -1.2384   -0.4583 N   0  0  0  0  0  4  0  0  0  0  0  0
    1.3767   -1.2272    0.4438 C   0  0  0  0  0  0  0  0  0  0  0  0
    2.4635   -0.5882   -0.1432 C   0  0  0  0  0  0  0  0  0  0  0  0
    3.8640   -0.3277    0.5223 C   0  0  0  0  0  0  0  0  0  0  0  0
    4.8515    0.3891   -0.1547 C   0  0  0  0  0  0  0  0  0  0  0  0
    6.0929    0.6186    0.4472 C   0  0  0  0  0  0  0  0  0  0  0  0
    6.3665    0.1287    1.7287 C   0  0  0  0  0  0  0  0  0  0  0  0
    7.6880    0.4104    2.3820 C   0  0  0  0  0  0  0  0  0  0  0  0
    5.3690   -0.5742    2.4113 C   0  0  0  0  0  0  0  0  0  0  0  0
    4.1256   -0.8051    1.8123 C   0  0  0  0  0  0  0  0  0  0  0  0
    1.9952   -0.2606   -1.4024 N   0  0  0  0  0  0  0  0  0  0  0  0
    0.7181   -0.6022   -1.5547 C   0  0  0  0  0  0  0  0  0  0  0  0
    0.1708   -0.2346   -2.8835 C   0  0  0  0  0  0  0  0  0  0  0  0
    1.4516    0.0931   -3.6752 C   0  0  0  0  0  0  0  0  0  0  0  0
    2.5254    0.3894   -2.5927 C   0  0  0  0  0  0  0  0  0  0  0  0
   -4.5401    1.0988    0.3157 C   0  0  0  0  0  0  0  0  0  0  0  0
   -5.7266    1.8007    0.5551 C   0  0  0  0  0  0  0  0  0  0  0  0
   -8.9029    1.4771    0.8323 H   0  0  0  0  0  0  0  0  0  0  0  0
   -8.0083    2.9710    1.1494 H   0  0  0  0  0  0  0  0  0  0  0  0
   -8.3577    1.8681    2.4858 H   0  0  0  0  0  0  0  0  0  0  0  0
   -7.5307   -0.6752    2.0247 H   0  0  0  0  0  0  0  0  0  0  0  0
   -5.4636   -1.9084    1.6122 H   0  0  0  0  0  0  0  0  0  0  0  0
   -3.3362   -1.9794    0.8082 H   0  0  0  0  0  0  0  0  0  0  0  0
   -1.3068   -2.4203   -1.0576 H   0  0  0  0  0  0  0  0  0  0  0  0
   -1.0397   -2.3389    0.7066 H   0  0  0  0  0  0  0  0  0  0  0  0
    1.2206   -1.6725    1.4118 H   0  0  0  0  0  0  0  0  0  0  0  0
    4.6912    0.7977   -1.1429 H   0  0  0  0  0  0  0  0  0  0  0  0
    6.8496    1.1893   -0.0895 H   0  0  0  0  0  0  0  0  0  0  0  0
    7.9409   -0.3703    3.1066 H   0  0  0  0  0  0  0  0  0  0  0  0
    8.4914    0.4347    1.6377 H   0  0  0  0  0  0  0  0  0  0  0  0
    7.6530    1.3758    2.8997 H   0  0  0  0  0  0  0  0  0  0  0  0
    5.5565   -0.9466    3.4185 H   0  0  0  0  0  0  0  0  0  0  0  0
    3.3881   -1.3603    2.3840 H   0  0  0  0  0  0  0  0  0  0  0  0
   -0.4579    0.6461   -2.7452 H   0  0  0  0  0  0  0  0  0  0  0  0
   -0.3869   -1.0808   -3.2862 H   0  0  0  0  0  0  0  0  0  0  0  0
    1.3184    0.9178   -4.3801 H   0  0  0  0  0  0  0  0  0  0  0  0
    1.7579   -0.7924   -4.2444 H   0  0  0  0  0  0  0  0  0  0  0  0
    3.4918   -0.0358   -2.8746 H   0  0  0  0  0  0  0  0  0  0  0  0
    2.6089    1.4633   -2.4026 H   0  0  0  0  0  0  0  0  0  0  0  0
   -3.7320    1.6413   -0.1624 H   0  0  0  0  0  0  0  0  0  0  0  0
   -5.7928    2.8454    0.2536 H   0  0  0  0  0  0  0  0  0  0  0  0
  1  2  1  0
  2  3  2  0
  3  4  1  0
  4  5  2  0
  5  6  1  0
  6  7  1  0
  7  8  2  0
  7  9  1  0
  9 10  1  0
 10 11  1  0
 11 12  2  0
 12 13  1  0
 13 14  2  0
 14 15  1  0
 15 16  2  0
 16 17  1  0
 16 18  1  0
 18 19  2  0
 12 20  1  0
 20 21  1  0
 21 22  1  0
 22 23  1  0
 23 24  1  0
  5 25  1  0
 25 26  2  0
 26  2  1  0
 21 10  2  0
 19 13  1  0
 24 20  1  0
  1 27  1  0
  1 28  1  0
  1 29  1  0
  3 30  1  0
  4 31  1  0
  6 32  1  0
  9 33  1  0
  9 34  1  0
 11 35  1  0
 14 36  1  0
 15 37  1  0
 17 38  1  0
 17 39  1  0
 17 40  1  0
 18 41  1  0
 19 42  1  0
 22 43  1  0
 22 44  1  0
 23 45  1  0
 23 46  1  0
 24 47  1  0
 24 48  1  0
 25 49  1  0
 26 50  1  0
M  CHG  1  10   1
M  END
$$$$
