
     RDKit          3D

 31 33  0  0  0  0  0  0  0  0999 V2000
   -0.9305    2.4569   -0.6106 O   0  0  0  0  0  0  0  0  0  0  0  0
   -2.0062    2.2877   -0.0596 C   0  0  0  0  0  0  0  0  0  0  0  0
   -2.7421    3.3241    0.3776 O   0  0  0  0  0  0  0  0  0  0  0  0
   -2.6366    0.9691    0.1916 C   0  0  0  0  0  0  0  0  0  0  0  0
   -3.9696    0.8833    0.6222 C   0  0  0  0  0  0  0  0  0  0  0  0
   -4.5635   -0.3634    0.8297 C   0  0  0  0  0  0  0  0  0  0  0  0
   -3.8336   -1.5295    0.6079 C   0  0  0  0  0  0  0  0  0  0  0  0
   -2.5073   -1.4540    0.1810 C   0  0  0  0  0  0  0  0  0  0  0  0
   -1.9028   -0.2111   -0.0322 C   0  0  0  0  0  0  0  0  0  0  0  0
   -0.5108   -0.1859   -0.4145 N   0  0  0  0  0  0  0  0  0  0  0  0
    0.5621   -0.5086    0.8706 S   0  0  0  0  0  6  0  0  0  0  0  0
    0.3994   -1.8687    1.3339 O   0  0  0  0  0  0  0  0  0  0  0  0
    0.4479    0.6056    1.7915 O   0  0  0  0  0  0  0  0  0  0  0  0
    2.1334   -0.3911    0.0990 C   0  0  0  0  0  0  0  0  0  0  0  0
    3.0972    0.5304    0.5666 C   0  0  0  0  0  0  0  0  0  0  0  0
    4.3785    0.6639   -0.0161 C   0  0  0  0  0  0  0  0  0  0  0  0
    4.8038   -0.1080   -1.1102 C   0  0  0  0  0  0  0  0  0  0  0  0
    3.8727   -1.0466   -1.6180 C   0  0  0  0  0  0  0  0  0  0  0  0
    4.0860   -1.8706   -2.6545 N   0  0  0  0  0  0  0  0  0  0  0  0
    2.6978   -2.7598   -2.8421 S   0  0  0  0  0  0  0  0  0  0  0  0
    1.7618   -2.1285   -1.6287 N   0  0  0  0  0  0  0  0  0  0  0  0
    2.4991   -1.1968   -1.0027 C   0  0  0  0  0  0  0  0  0  0  0  0
   -2.2001    4.1155    0.1762 H   0  0  0  0  0  0  0  0  0  0  0  0
   -4.5561    1.7822    0.7981 H   0  0  0  0  0  0  0  0  0  0  0  0
   -5.5959   -0.4247    1.1664 H   0  0  0  0  0  0  0  0  0  0  0  0
   -4.2928   -2.5013    0.7744 H   0  0  0  0  0  0  0  0  0  0  0  0
   -1.9435   -2.3712    0.0204 H   0  0  0  0  0  0  0  0  0  0  0  0
   -0.2608    0.7296   -0.8169 H   0  0  0  0  0  0  0  0  0  0  0  0
    2.8550    1.1707    1.4174 H   0  0  0  0  0  0  0  0  0  0  0  0
    5.0682    1.3975    0.4039 H   0  0  0  0  0  0  0  0  0  0  0  0
    5.7893    0.0032   -1.5472 H   0  0  0  0  0  0  0  0  0  0  0  0
  1  2  2  0
  2  3  1  0
  2  4  1  0
  4  5  2  0
  5  6  1  0
  6  7  2  0
  7  8  1  0
  8  9  2  0
  9 10  1  0
 10 11  1  0
 11 12  2  0
 11 13  2  0
 11 14  1  0
 14 15  2  0
 15 16  1  0
 16 17  2  0
 17 18  1  0
 18 19  2  0
 19 20  1  0
 20 21  1  0
 21 22  2  0
  9  4  1  0
 22 14  1  0
 22 18  1  0
  3 23  1  0
  5 24  1  0
  6 25  1  0
  7 26  1  0
  8 27  1  0
 10 28  1  0
 15 29  1  0
 16 30  1  0
 17 31  1  0
M  END
$$$$
