
     RDKit          3D

 44 46  0  0  0  0  0  0  0  0999 V2000
    7.6056    0.2860   -1.8524 C   0  0  0  0  0  0  0  0  0  0  0  0
    6.8991    1.4850   -1.2483 C   0  0  0  0  0  0  0  0  0  0  0  0
    5.5377    1.1522   -0.9383 O   0  0  0  0  0  0  0  0  0  0  0  0
    5.3306    0.5931    0.2799 C   0  0  0  0  0  0  0  0  0  0  0  0
    6.1884    0.3490    1.1134 O   0  0  0  0  0  0  0  0  0  0  0  0
    3.8854    0.2988    0.4812 C   0  0  0  0  0  0  0  0  0  0  0  0
    2.9142    0.5903   -0.4831 C   0  0  0  0  0  0  0  0  0  0  0  0
    1.5664    0.2910   -0.2427 C   0  0  0  0  0  0  0  0  0  0  0  0
    1.1615   -0.2991    0.9596 C   0  0  0  0  0  0  0  0  0  0  0  0
   -0.1718   -0.6387    1.2516 N   0  0  0  0  0  0  0  0  0  0  0  0
   -1.3016   -0.7299    0.4305 C   0  0  0  0  0  0  0  0  0  0  0  0
   -1.2443   -1.2545   -0.8442 C   0  0  0  0  0  0  0  0  0  0  0  0
   -2.4263   -1.3177   -1.5512 C   0  0  0  0  0  0  0  0  0  0  0  0
   -2.4484   -1.8786   -2.9406 C   0  0  0  0  0  0  0  0  0  0  0  0
   -3.5943   -0.8973   -1.0335 N   0  0  0  0  0  0  0  0  0  0  0  0
   -3.5700   -0.4199    0.2256 C   0  0  0  0  0  0  0  0  0  0  0  0
   -4.8465    0.0348    0.8165 C   0  0  0  0  0  0  0  0  0  0  0  0
   -4.9100    0.5543    2.1246 C   0  0  0  0  0  0  0  0  0  0  0  0
   -6.1174    0.9853    2.6849 C   0  0  0  0  0  0  0  0  0  0  0  0
   -7.2947    0.9068    1.9476 C   0  0  0  0  0  0  0  0  0  0  0  0
   -7.2653    0.3986    0.6529 C   0  0  0  0  0  0  0  0  0  0  0  0
   -6.0558   -0.0312    0.0965 C   0  0  0  0  0  0  0  0  0  0  0  0
   -2.4583   -0.3301    0.9814 N   0  0  0  0  0  0  0  0  0  0  0  0
    2.1427   -0.5839    1.9198 C   0  0  0  0  0  0  0  0  0  0  0  0
    3.4905   -0.2903    1.6866 C   0  0  0  0  0  0  0  0  0  0  0  0
    7.6474   -0.5449   -1.1411 H   0  0  0  0  0  0  0  0  0  0  0  0
    8.6264    0.5452   -2.1470 H   0  0  0  0  0  0  0  0  0  0  0  0
    7.0645   -0.0755   -2.7330 H   0  0  0  0  0  0  0  0  0  0  0  0
    7.4291    1.8607   -0.3655 H   0  0  0  0  0  0  0  0  0  0  0  0
    6.8704    2.3013   -1.9775 H   0  0  0  0  0  0  0  0  0  0  0  0
    3.1857    1.0577   -1.4265 H   0  0  0  0  0  0  0  0  0  0  0  0
    0.8389    0.5618   -1.0030 H   0  0  0  0  0  0  0  0  0  0  0  0
   -0.4704   -0.2875    2.1580 H   0  0  0  0  0  0  0  0  0  0  0  0
   -0.3191   -1.6270   -1.2634 H   0  0  0  0  0  0  0  0  0  0  0  0
   -2.1217   -2.9231   -2.9320 H   0  0  0  0  0  0  0  0  0  0  0  0
   -3.4588   -1.8407   -3.3604 H   0  0  0  0  0  0  0  0  0  0  0  0
   -1.7870   -1.3000   -3.5930 H   0  0  0  0  0  0  0  0  0  0  0  0
   -4.0044    0.6275    2.7247 H   0  0  0  0  0  0  0  0  0  0  0  0
   -6.1335    1.3812    3.6969 H   0  0  0  0  0  0  0  0  0  0  0  0
   -8.2334    1.2410    2.3812 H   0  0  0  0  0  0  0  0  0  0  0  0
   -8.1812    0.3342    0.0712 H   0  0  0  0  0  0  0  0  0  0  0  0
   -6.0620   -0.4250   -0.9190 H   0  0  0  0  0  0  0  0  0  0  0  0
    1.8628   -1.0540    2.8605 H   0  0  0  0  0  0  0  0  0  0  0  0
    4.2287   -0.5278    2.4507 H   0  0  0  0  0  0  0  0  0  0  0  0
  1  2  1  0
  2  3  1  0
  3  4  1  0
  4  5  2  0
  4  6  1  0
  6  7  2  0
  7  8  1  0
  8  9  2  0
  9 10  1  0
 10 11  1  0
 11 12  2  0
 12 13  1  0
 13 14  1  0
 13 15  2  0
 15 16  1  0
 16 17  1  0
 17 18  2  0
 18 19  1  0
 19 20  2  0
 20 21  1  0
 21 22  2  0
 16 23  2  0
  9 24  1  0
 24 25  2  0
 25  6  1  0
 23 11  1  0
 22 17  1  0
  1 26  1  0
  1 27  1  0
  1 28  1  0
  2 29  1  0
  2 30  1  0
  7 31  1  0
  8 32  1  0
 10 33  1  0
 12 34  1  0
 14 35  1  0
 14 36  1  0
 14 37  1  0
 18 38  1  0
 19 39  1  0
 20 40  1  0
 21 41  1  0
 22 42  1  0
 24 43  1  0
 25 44  1  0
M  END
$$$$
