
     RDKit          3D

 44 47  0  0  0  0  0  0  0  0999 V2000
    3.5340   -0.9652    1.1669 C   0  0  0  0  0  0  0  0  0  0  0  0
    3.4024    0.4318    0.5378 C   0  0  0  0  0  0  0  0  0  0  0  0
    4.4995    1.3304    1.1345 C   0  0  0  0  0  0  0  0  0  0  0  0
    2.0337    1.0813    0.8015 C   0  0  0  0  0  0  0  0  0  0  0  0
    0.9081    0.4065   -0.0052 C   0  0  0  0  0  0  0  0  0  0  0  0
   -0.3278    1.3164    0.0563 C   0  0  0  0  0  0  0  0  0  0  0  0
   -1.5369    0.6751   -0.6332 C   0  0  0  0  0  0  0  0  0  0  0  0
   -2.7966    1.4806   -0.3603 C   0  0  0  0  0  0  0  0  0  0  0  0
   -3.5101    2.2497   -1.2625 C   0  0  0  0  0  0  0  0  0  0  0  0
   -4.6468    2.8729   -0.6722 C   0  0  0  0  0  0  0  0  0  0  0  0
   -4.7672    2.5655    0.6634 C   0  0  0  0  0  0  0  0  0  0  0  0
   -3.5161    1.5344    1.2006 S   0  0  0  0  0  0  0  0  0  0  0  0
   -1.6380   -0.7984   -0.2974 C   0  0  0  0  0  0  0  0  0  0  0  0
   -2.7861   -1.5448   -0.6259 C   0  0  0  0  0  0  0  0  0  0  0  0
   -2.8640   -2.9011   -0.3087 C   0  0  0  0  0  0  0  0  0  0  0  0
   -4.2890   -3.7864   -0.7042 Cl  0  0  0  0  0  0  0  0  0  0  0  0
   -1.7930   -3.5301    0.3232 C   0  0  0  0  0  0  0  0  0  0  0  0
   -1.8219   -4.8557    0.6583 O   0  0  0  0  0  0  0  0  0  0  0  0
   -0.6413   -2.8152    0.6266 C   0  0  0  0  0  0  0  0  0  0  0  0
   -0.5575   -1.4597    0.2993 C   0  0  0  0  0  0  0  0  0  0  0  0
    0.6279   -0.8560    0.6107 O   0  0  0  0  0  0  0  0  0  0  0  0
    1.3407    0.1728   -1.3737 N   0  0  0  0  0  0  0  0  0  0  0  0
    2.6217    0.0293   -1.7775 C   0  0  0  0  0  0  0  0  0  0  0  0
    2.9738   -0.4691   -3.3210 S   0  0  0  0  0  0  0  0  0  0  0  0
    3.6059    0.3382   -0.9031 N   0  0  0  0  0  0  0  0  0  0  0  0
    3.2749   -0.9478    2.2310 H   0  0  0  0  0  0  0  0  0  0  0  0
    2.9057   -1.7102    0.6699 H   0  0  0  0  0  0  0  0  0  0  0  0
    4.5632   -1.3345    1.0803 H   0  0  0  0  0  0  0  0  0  0  0  0
    4.3776    1.4393    2.2179 H   0  0  0  0  0  0  0  0  0  0  0  0
    5.4976    0.9180    0.9459 H   0  0  0  0  0  0  0  0  0  0  0  0
    4.4784    2.3318    0.6888 H   0  0  0  0  0  0  0  0  0  0  0  0
    2.0903    2.1394    0.5080 H   0  0  0  0  0  0  0  0  0  0  0  0
    1.8067    1.0550    1.8753 H   0  0  0  0  0  0  0  0  0  0  0  0
   -0.5603    1.5057    1.1135 H   0  0  0  0  0  0  0  0  0  0  0  0
   -0.1207    2.2928   -0.4018 H   0  0  0  0  0  0  0  0  0  0  0  0
   -1.3600    0.7176   -1.7182 H   0  0  0  0  0  0  0  0  0  0  0  0
   -3.2313    2.3606   -2.3040 H   0  0  0  0  0  0  0  0  0  0  0  0
   -5.3412    3.5148   -1.2006 H   0  0  0  0  0  0  0  0  0  0  0  0
   -5.5309    2.8980    1.3533 H   0  0  0  0  0  0  0  0  0  0  0  0
   -3.6292   -1.0652   -1.1193 H   0  0  0  0  0  0  0  0  0  0  0  0
   -2.6884   -5.2054    0.3781 H   0  0  0  0  0  0  0  0  0  0  0  0
    0.1968   -3.3150    1.1044 H   0  0  0  0  0  0  0  0  0  0  0  0
    0.6740   -0.2348   -2.0157 H   0  0  0  0  0  0  0  0  0  0  0  0
    4.5414    0.1365   -1.2409 H   0  0  0  0  0  0  0  0  0  0  0  0
  1  2  1  0
  2  3  1  0
  2  4  1  0
  4  5  1  0
  5  6  1  0
  6  7  1  0
  7  8  1  0
  8  9  2  0
  9 10  1  0
 10 11  2  0
 11 12  1  0
  7 13  1  0
 13 14  2  0
 14 15  1  0
 15 16  1  0
 15 17  2  0
 17 18  1  0
 17 19  1  0
 19 20  2  0
 20 21  1  0
  5 22  1  0
 22 23  1  0
 23 24  2  0
 23 25  1  0
 25  2  1  0
 21  5  1  0
 12  8  1  0
 20 13  1  0
  1 26  1  0
  1 27  1  0
  1 28  1  0
  3 29  1  0
  3 30  1  0
  3 31  1  0
  4 32  1  0
  4 33  1  0
  6 34  1  0
  6 35  1  0
  7 36  1  0
  9 37  1  0
 10 38  1  0
 11 39  1  0
 14 40  1  0
 18 41  1  0
 19 42  1  0
 22 43  1  0
 25 44  1  0
M  END
$$$$
