
     RDKit          3D

 51 54  0  0  0  0  0  0  0  0999 V2000
    2.0767   -2.9221    1.4453 O   0  0  0  0  0  0  0  0  0  0  0  0
    1.8195   -1.9689    0.7078 C   0  0  0  0  0  0  0  0  0  0  0  0
    2.8701   -1.0722    0.2504 C   0  0  0  0  0  0  0  0  0  0  0  0
    3.8851   -0.5261    1.0155 C   0  0  0  0  0  0  0  0  0  0  0  0
    4.7839    0.2713    0.2456 C   0  0  0  0  0  0  0  0  0  0  0  0
    4.4408    0.2596   -1.0921 C   0  0  0  0  0  0  0  0  0  0  0  0
    3.0709   -0.6954   -1.4101 S   0  0  0  0  0  0  0  0  0  0  0  0
    5.1641    1.0009   -2.1739 C   0  0  0  0  0  0  0  0  0  0  0  0
    6.5514    1.4477   -1.6852 C   0  0  0  0  0  0  0  0  0  0  0  0
    6.4959    2.0362   -0.2674 C   0  0  0  0  0  0  0  0  0  0  0  0
    5.9861    1.0074    0.7543 C   0  0  0  0  0  0  0  0  0  0  0  0
    0.4982   -1.7154    0.3285 N   0  0  0  0  0  0  0  0  0  0  0  0
   -0.5253   -2.6961    0.6943 C   0  0  0  0  0  0  0  0  0  0  0  0
   -1.7996   -2.5364   -0.1395 C   0  0  0  0  0  0  0  0  0  0  0  0
   -2.3978   -1.1678    0.0096 N   0  0  0  0  0  0  0  0  0  0  0  0
   -3.5228   -0.7939   -1.2055 S   0  0  0  0  0  6  0  0  0  0  0  0
   -4.3752   -1.9368   -1.4328 O   0  0  0  0  0  0  0  0  0  0  0  0
   -2.7804   -0.1920   -2.2935 O   0  0  0  0  0  0  0  0  0  0  0  0
   -4.5203    0.4697   -0.4350 C   0  0  0  0  0  0  0  0  0  0  0  0
   -4.3625    1.7904   -0.8901 C   0  0  0  0  0  0  0  0  0  0  0  0
   -5.1241    2.8196   -0.3409 C   0  0  0  0  0  0  0  0  0  0  0  0
   -6.0537    2.5367    0.6531 C   0  0  0  0  0  0  0  0  0  0  0  0
   -6.2260    1.2234    1.0954 C   0  0  0  0  0  0  0  0  0  0  0  0
   -5.4636    0.1617    0.5638 C   0  0  0  0  0  0  0  0  0  0  0  0
   -5.7369   -1.2400    1.0640 C   0  0  0  0  0  0  0  0  0  0  0  0
   -4.6257   -1.9739    1.3252 F   0  0  0  0  0  0  0  0  0  0  0  0
   -6.4252   -1.2332    2.2473 F   0  0  0  0  0  0  0  0  0  0  0  0
   -6.5114   -1.9643    0.2154 F   0  0  0  0  0  0  0  0  0  0  0  0
   -1.4011   -0.1040    0.3481 C   0  0  0  0  0  0  0  0  0  0  0  0
    0.0040   -0.4291   -0.1788 C   0  0  0  0  0  0  0  0  0  0  0  0
    3.9701   -0.6960    2.0830 H   0  0  0  0  0  0  0  0  0  0  0  0
    4.5760    1.8843   -2.4515 H   0  0  0  0  0  0  0  0  0  0  0  0
    5.2764    0.3816   -3.0710 H   0  0  0  0  0  0  0  0  0  0  0  0
    6.9630    2.1867   -2.3819 H   0  0  0  0  0  0  0  0  0  0  0  0
    7.2354    0.5891   -1.6888 H   0  0  0  0  0  0  0  0  0  0  0  0
    5.8340    2.9118   -0.2688 H   0  0  0  0  0  0  0  0  0  0  0  0
    7.4901    2.3865    0.0321 H   0  0  0  0  0  0  0  0  0  0  0  0
    5.7515    1.5131    1.6978 H   0  0  0  0  0  0  0  0  0  0  0  0
    6.7790    0.2779    0.9613 H   0  0  0  0  0  0  0  0  0  0  0  0
   -0.7454   -2.5544    1.7596 H   0  0  0  0  0  0  0  0  0  0  0  0
   -0.1206   -3.7068    0.5701 H   0  0  0  0  0  0  0  0  0  0  0  0
   -2.5379   -3.2775    0.1846 H   0  0  0  0  0  0  0  0  0  0  0  0
   -1.5608   -2.7192   -1.1945 H   0  0  0  0  0  0  0  0  0  0  0  0
   -3.6506    2.0281   -1.6791 H   0  0  0  0  0  0  0  0  0  0  0  0
   -4.9990    3.8402   -0.6959 H   0  0  0  0  0  0  0  0  0  0  0  0
   -6.6561    3.3367    1.0785 H   0  0  0  0  0  0  0  0  0  0  0  0
   -6.9751    1.0281    1.8639 H   0  0  0  0  0  0  0  0  0  0  0  0
   -1.7128    0.8726   -0.0331 H   0  0  0  0  0  0  0  0  0  0  0  0
   -1.3804   -0.0168    1.4416 H   0  0  0  0  0  0  0  0  0  0  0  0
   -0.0173   -0.5005   -1.2719 H   0  0  0  0  0  0  0  0  0  0  0  0
    0.6854    0.3775    0.1072 H   0  0  0  0  0  0  0  0  0  0  0  0
  1  2  2  0
  2  3  1  0
  3  4  2  0
  4  5  1  0
  5  6  2  0
  6  7  1  0
  6  8  1  0
  8  9  1  0
  9 10  1  0
 10 11  1  0
  2 12  1  0
 12 13  1  0
 13 14  1  0
 14 15  1  0
 15 16  1  0
 16 17  2  0
 16 18  2  0
 16 19  1  0
 19 20  2  0
 20 21  1  0
 21 22  2  0
 22 23  1  0
 23 24  2  0
 24 25  1  0
 25 26  1  0
 25 27  1  0
 25 28  1  0
 15 29  1  0
 29 30  1  0
  7  3  1  0
 30 12  1  0
 11  5  1  0
 24 19  1  0
  4 31  1  0
  8 32  1  0
  8 33  1  0
  9 34  1  0
  9 35  1  0
 10 36  1  0
 10 37  1  0
 11 38  1  0
 11 39  1  0
 13 40  1  0
 13 41  1  0
 14 42  1  0
 14 43  1  0
 20 44  1  0
 21 45  1  0
 22 46  1  0
 23 47  1  0
 29 48  1  0
 29 49  1  0
 30 50  1  0
 30 51  1  0
M  END
$$$$
