
     RDKit          3D

 41 43  0  0  0  0  0  0  0  0999 V2000
   -6.1193   -1.4008   -0.2281 C   0  0  0  0  0  0  0  0  0  0  0  0
   -5.4300   -1.0512    1.0793 C   0  0  0  0  0  0  0  0  0  0  0  0
   -4.9900    0.3058    1.0725 O   0  0  0  0  0  0  0  0  0  0  0  0
   -3.7386    0.5920    0.6074 C   0  0  0  0  0  0  0  0  0  0  0  0
   -3.3438    1.9185    0.7861 C   0  0  0  0  0  0  0  0  0  0  0  0
   -2.0874    2.3603    0.3563 C   0  0  0  0  0  0  0  0  0  0  0  0
   -1.2021    1.4822   -0.2804 C   0  0  0  0  0  0  0  0  0  0  0  0
    0.1069    1.9063   -0.7236 N   0  0  0  0  0  0  0  0  0  0  0  0
    1.1849    1.1103   -0.2891 C   0  0  0  0  0  0  0  0  0  0  0  0
    1.0815    0.2265    0.5608 O   0  0  0  0  0  0  0  0  0  0  0  0
    2.5173    1.4500   -0.8559 C   0  0  0  0  0  0  0  0  0  0  0  0
    3.6020    0.6508   -0.8894 C   0  0  0  0  0  0  0  0  0  0  0  0
    3.6942   -0.7118   -0.4928 C   0  0  0  0  0  0  0  0  0  0  0  0
    2.8035   -1.7760   -0.5854 C   0  0  0  0  0  0  0  0  0  0  0  0
    3.4388   -2.9328   -0.0736 C   0  0  0  0  0  0  0  0  0  0  0  0
    4.7025   -2.5384    0.2878 C   0  0  0  0  0  0  0  0  0  0  0  0
    5.8610   -3.2382    0.8750 C   0  0  0  0  0  0  0  0  0  0  0  0
    4.8695   -1.2171    0.0238 O   0  0  0  0  0  0  0  0  0  0  0  0
    2.7218    2.7950   -1.4288 C   0  0  0  0  0  0  0  0  0  0  0  0
    3.8102    3.2491   -1.7625 O   0  0  0  0  0  0  0  0  0  0  0  0
    1.5787    3.5078   -1.6321 N   0  0  0  0  0  0  0  0  0  0  0  0
    0.2838    3.0977   -1.4398 C   0  0  0  0  0  0  0  0  0  0  0  0
   -0.8768    4.0806   -2.1597 S   0  0  0  0  0  0  0  0  0  0  0  0
   -1.6021    0.1466   -0.4438 C   0  0  0  0  0  0  0  0  0  0  0  0
   -2.8608   -0.2934   -0.0110 C   0  0  0  0  0  0  0  0  0  0  0  0
   -6.9426   -0.7059   -0.4245 H   0  0  0  0  0  0  0  0  0  0  0  0
   -6.5190   -2.4183   -0.1941 H   0  0  0  0  0  0  0  0  0  0  0  0
   -5.4323   -1.3249   -1.0761 H   0  0  0  0  0  0  0  0  0  0  0  0
   -4.6275   -1.7534    1.3306 H   0  0  0  0  0  0  0  0  0  0  0  0
   -6.1642   -1.1338    1.8890 H   0  0  0  0  0  0  0  0  0  0  0  0
   -4.0175    2.6170    1.2777 H   0  0  0  0  0  0  0  0  0  0  0  0
   -1.8124    3.3906    0.5652 H   0  0  0  0  0  0  0  0  0  0  0  0
    4.5454    1.0498   -1.2611 H   0  0  0  0  0  0  0  0  0  0  0  0
    1.7968   -1.7264   -0.9752 H   0  0  0  0  0  0  0  0  0  0  0  0
    3.0253   -3.9273    0.0155 H   0  0  0  0  0  0  0  0  0  0  0  0
    5.6328   -4.2933    1.0549 H   0  0  0  0  0  0  0  0  0  0  0  0
    6.7218   -3.1857    0.2015 H   0  0  0  0  0  0  0  0  0  0  0  0
    6.1401   -2.7823    1.8298 H   0  0  0  0  0  0  0  0  0  0  0  0
    1.7084    4.3822   -2.1275 H   0  0  0  0  0  0  0  0  0  0  0  0
   -0.9434   -0.5744   -0.9226 H   0  0  0  0  0  0  0  0  0  0  0  0
   -3.1177   -1.3334   -0.1798 H   0  0  0  0  0  0  0  0  0  0  0  0
  1  2  1  0
  2  3  1  0
  3  4  1  0
  4  5  2  0
  5  6  1  0
  6  7  2  0
  7  8  1  0
  8  9  1  0
  9 10  2  0
  9 11  1  0
 11 12  2  3
 12 13  1  0
 13 14  2  0
 14 15  1  0
 15 16  2  0
 16 17  1  0
 16 18  1  0
 11 19  1  0
 19 20  2  0
 19 21  1  0
 21 22  1  0
 22 23  2  0
  7 24  1  0
 24 25  2  0
 25  4  1  0
 22  8  1  0
 18 13  1  0
  1 26  1  0
  1 27  1  0
  1 28  1  0
  2 29  1  0
  2 30  1  0
  5 31  1  0
  6 32  1  0
 12 33  1  0
 14 34  1  0
 15 35  1  0
 17 36  1  0
 17 37  1  0
 17 38  1  0
 21 39  1  0
 24 40  1  0
 25 41  1  0
M  END
$$$$
