
     RDKit          3D

 55 59  0  0  0  0  0  0  0  0999 V2000
   -1.9633    0.5872   -1.4811 C   0  0  0  0  0  0  0  0  0  0  0  0
   -2.6056    0.3046   -0.1515 C   0  0  0  0  0  0  0  0  0  0  0  0
   -3.8861   -0.2344   -0.0392 C   0  0  0  0  0  0  0  0  0  0  0  0
   -4.7173   -0.6401   -1.1842 C   0  0  0  0  0  0  0  0  0  0  0  0
   -5.9737   -0.0461   -1.3981 C   0  0  0  0  0  0  0  0  0  0  0  0
   -6.7768   -0.4229   -2.4775 C   0  0  0  0  0  0  0  0  0  0  0  0
   -6.3382   -1.4090   -3.3583 C   0  0  0  0  0  0  0  0  0  0  0  0
   -5.1032   -2.0179   -3.1501 C   0  0  0  0  0  0  0  0  0  0  0  0
   -4.5628   -3.2428   -4.2318 Cl  0  0  0  0  0  0  0  0  0  0  0  0
   -4.2987   -1.6446   -2.0729 C   0  0  0  0  0  0  0  0  0  0  0  0
   -4.4890   -0.4398    1.1596 N   0  0  0  0  0  0  0  0  0  0  0  0
   -3.8402   -0.1521    2.2968 C   0  0  0  0  0  0  0  0  0  0  0  0
   -4.4924   -0.3778    3.5020 C   0  0  0  0  0  0  0  0  0  0  0  0
   -3.8863   -0.1146    4.7322 C   0  0  0  0  0  0  0  0  0  0  0  0
   -2.5942    0.3877    4.7660 C   0  0  0  0  0  0  0  0  0  0  0  0
   -1.9193    0.6218    3.5694 C   0  0  0  0  0  0  0  0  0  0  0  0
   -2.5327    0.3557    2.3169 C   0  0  0  0  0  0  0  0  0  0  0  0
   -1.9278    0.5590    1.0548 C   0  0  0  0  0  0  0  0  0  0  0  0
   -0.5393    1.0497    1.0110 C   0  0  0  0  0  0  0  0  0  0  0  0
   -0.1937    2.1915    1.2547 O   0  0  0  0  0  0  0  0  0  0  0  0
    0.2675    0.0056    0.6994 O   0  0  0  0  0  0  0  0  0  0  0  0
    1.6565    0.3442    0.6715 C   0  0  0  0  0  0  0  0  0  0  0  0
    2.0243    1.2565   -0.5044 C   0  0  0  0  0  0  0  0  0  0  0  0
    1.3162    1.3194   -1.5185 O   0  0  0  0  0  0  0  0  0  0  0  0
    3.3256    2.0233   -0.4474 C   0  0  0  0  0  0  0  0  0  0  0  0
    3.4668    2.7873    0.7952 C   0  0  0  0  0  0  0  0  0  0  0  0
    3.5858    3.4156    1.7645 N   0  0  0  0  0  0  0  0  0  0  0  0
    4.4491    1.0570   -0.6227 C   0  0  0  0  0  0  0  0  0  0  0  0
    4.7518    0.0473    0.1702 N   0  0  0  0  0  0  0  0  0  0  0  0
    5.8416   -0.5651   -0.4000 C   0  0  0  0  0  0  0  0  0  0  0  0
    6.5708   -1.6827    0.0283 C   0  0  0  0  0  0  0  0  0  0  0  0
    7.6517   -2.1158   -0.7504 C   0  0  0  0  0  0  0  0  0  0  0  0
    7.9974   -1.4496   -1.9289 C   0  0  0  0  0  0  0  0  0  0  0  0
    7.2804   -0.3312   -2.3704 C   0  0  0  0  0  0  0  0  0  0  0  0
    6.2087    0.0786   -1.5749 C   0  0  0  0  0  0  0  0  0  0  0  0
    5.3086    1.1058   -1.6970 N   0  0  0  0  0  0  0  0  0  0  0  0
   -1.3722    1.5076   -1.4426 H   0  0  0  0  0  0  0  0  0  0  0  0
   -2.7042    0.7538   -2.2688 H   0  0  0  0  0  0  0  0  0  0  0  0
   -1.3175   -0.2457   -1.7749 H   0  0  0  0  0  0  0  0  0  0  0  0
   -6.3322    0.7173   -0.7087 H   0  0  0  0  0  0  0  0  0  0  0  0
   -7.7442    0.0501   -2.6249 H   0  0  0  0  0  0  0  0  0  0  0  0
   -6.9642   -1.7029   -4.1963 H   0  0  0  0  0  0  0  0  0  0  0  0
   -3.3452   -2.1444   -1.9178 H   0  0  0  0  0  0  0  0  0  0  0  0
   -5.5058   -0.7737    3.4826 H   0  0  0  0  0  0  0  0  0  0  0  0
   -4.4274   -0.3028    5.6558 H   0  0  0  0  0  0  0  0  0  0  0  0
   -2.1119    0.6006    5.7170 H   0  0  0  0  0  0  0  0  0  0  0  0
   -0.9096    1.0260    3.6225 H   0  0  0  0  0  0  0  0  0  0  0  0
    2.2082   -0.5937    0.5589 H   0  0  0  0  0  0  0  0  0  0  0  0
    1.9394    0.7887    1.6305 H   0  0  0  0  0  0  0  0  0  0  0  0
    3.3181    2.7347   -1.2838 H   0  0  0  0  0  0  0  0  0  0  0  0
    6.2988   -2.1957    0.9439 H   0  0  0  0  0  0  0  0  0  0  0  0
    8.2275   -2.9820   -0.4311 H   0  0  0  0  0  0  0  0  0  0  0  0
    8.8420   -1.8074   -2.5151 H   0  0  0  0  0  0  0  0  0  0  0  0
    7.5516    0.1837   -3.2857 H   0  0  0  0  0  0  0  0  0  0  0  0
    5.2865    1.7745   -2.4549 H   0  0  0  0  0  0  0  0  0  0  0  0
  1  2  1  0
  2  3  2  0
  3  4  1  0
  4  5  2  0
  5  6  1  0
  6  7  2  0
  7  8  1  0
  8  9  1  0
  8 10  2  0
  3 11  1  0
 11 12  2  0
 12 13  1  0
 13 14  2  0
 14 15  1  0
 15 16  2  0
 16 17  1  0
 17 18  2  0
 18 19  1  0
 19 20  2  0
 19 21  1  0
 21 22  1  0
 22 23  1  0
 23 24  2  0
 23 25  1  0
 25 26  1  0
 26 27  3  0
 25 28  1  0
 28 29  2  0
 29 30  1  0
 30 31  2  0
 31 32  1  0
 32 33  2  0
 33 34  1  0
 34 35  2  0
 35 36  1  0
 18  2  1  0
 36 28  1  0
 10  4  1  0
 17 12  1  0
 35 30  1  0
  1 37  1  0
  1 38  1  0
  1 39  1  0
  5 40  1  0
  6 41  1  0
  7 42  1  0
 10 43  1  0
 13 44  1  0
 14 45  1  0
 15 46  1  0
 16 47  1  0
 22 48  1  0
 22 49  1  0
 25 50  1  0
 31 51  1  0
 32 52  1  0
 33 53  1  0
 34 54  1  0
 36 55  1  0
M  END
$$$$
