
     RDKit          3D

 39 40  0  0  0  0  0  0  0  0999 V2000
    4.7748    1.8784   -2.0570 C   0  0  0  0  0  0  0  0  0  0  0  0
    4.8888    0.5016   -1.7204 O   0  0  0  0  0  0  0  0  0  0  0  0
    4.0130    0.0198   -0.7869 C   0  0  0  0  0  0  0  0  0  0  0  0
    4.1918   -1.3256   -0.4580 C   0  0  0  0  0  0  0  0  0  0  0  0
    3.3662   -1.9474    0.4817 C   0  0  0  0  0  0  0  0  0  0  0  0
    2.3441   -1.2268    1.1089 C   0  0  0  0  0  0  0  0  0  0  0  0
    1.4325   -1.8966    2.1108 C   0  0  0  0  0  0  0  0  0  0  0  0
    0.3247   -2.7123    1.4392 C   0  0  0  0  0  0  0  0  0  0  0  0
   -0.5621   -1.8742    0.6766 O   0  0  0  0  0  0  0  0  0  0  0  0
   -1.5113   -1.2169    1.3818 C   0  0  0  0  0  0  0  0  0  0  0  0
   -1.7007   -1.2983    2.5840 O   0  0  0  0  0  0  0  0  0  0  0  0
   -2.3178   -0.3481    0.4826 C   0  0  0  0  0  0  0  0  0  0  0  0
   -2.0270   -0.2021   -0.8788 C   0  0  0  0  0  0  0  0  0  0  0  0
   -2.8108    0.6327   -1.6856 C   0  0  0  0  0  0  0  0  0  0  0  0
   -3.9238    1.3125   -1.1711 C   0  0  0  0  0  0  0  0  0  0  0  0
   -4.5720    2.2367   -2.0074 N   0  0  0  0  0  0  0  0  0  0  0  0
   -4.1673    1.1974    0.2121 C   0  0  0  0  0  0  0  0  0  0  0  0
   -5.2661    1.9318    0.8394 N   0  0  0  0  0  4  0  0  0  0  0  0
   -5.1204    2.2814    2.0195 O   0  0  0  0  0  0  0  0  0  0  0  0
   -6.2834    2.1432    0.1600 O   0  0  0  0  0  1  0  0  0  0  0  0
   -3.3880    0.3636    1.0332 C   0  0  0  0  0  0  0  0  0  0  0  0
    2.1649    0.1218    0.7748 C   0  0  0  0  0  0  0  0  0  0  0  0
    2.9944    0.7419   -0.1663 C   0  0  0  0  0  0  0  0  0  0  0  0
    5.5509    2.1078   -2.7935 H   0  0  0  0  0  0  0  0  0  0  0  0
    3.8049    2.0925   -2.5180 H   0  0  0  0  0  0  0  0  0  0  0  0
    4.9470    2.5150   -1.1828 H   0  0  0  0  0  0  0  0  0  0  0  0
    4.9841   -1.8949   -0.9380 H   0  0  0  0  0  0  0  0  0  0  0  0
    3.5302   -2.9960    0.7183 H   0  0  0  0  0  0  0  0  0  0  0  0
    1.0016   -1.1337    2.7698 H   0  0  0  0  0  0  0  0  0  0  0  0
    2.0332   -2.5535    2.7518 H   0  0  0  0  0  0  0  0  0  0  0  0
    0.7489   -3.4433    0.7419 H   0  0  0  0  0  0  0  0  0  0  0  0
   -0.2438   -3.2807    2.1853 H   0  0  0  0  0  0  0  0  0  0  0  0
   -1.1805   -0.7179   -1.3288 H   0  0  0  0  0  0  0  0  0  0  0  0
   -2.5354    0.7515   -2.7323 H   0  0  0  0  0  0  0  0  0  0  0  0
   -4.5485    2.0055   -2.9967 H   0  0  0  0  0  0  0  0  0  0  0  0
   -5.5222    2.4701   -1.7032 H   0  0  0  0  0  0  0  0  0  0  0  0
   -3.6066    0.2722    2.0970 H   0  0  0  0  0  0  0  0  0  0  0  0
    1.3752    0.7027    1.2469 H   0  0  0  0  0  0  0  0  0  0  0  0
    2.8165    1.7882   -0.3898 H   0  0  0  0  0  0  0  0  0  0  0  0
  1  2  1  0
  2  3  1  0
  3  4  2  0
  4  5  1  0
  5  6  2  0
  6  7  1  0
  7  8  1  0
  8  9  1  0
  9 10  1  0
 10 11  2  0
 10 12  1  0
 12 13  2  0
 13 14  1  0
 14 15  2  0
 15 16  1  0
 15 17  1  0
 17 18  1  0
 18 19  2  0
 18 20  1  0
 17 21  2  0
  6 22  1  0
 22 23  2  0
 23  3  1  0
 21 12  1  0
  1 24  1  0
  1 25  1  0
  1 26  1  0
  4 27  1  0
  5 28  1  0
  7 29  1  0
  7 30  1  0
  8 31  1  0
  8 32  1  0
 13 33  1  0
 14 34  1  0
 16 35  1  0
 16 36  1  0
 21 37  1  0
 22 38  1  0
 23 39  1  0
M  CHG  2  18   1  20  -1
M  END
$$$$
