
     RDKit          3D

 40 40  0  0  0  0  0  0  0  0999 V2000
   -5.6211    0.0382    1.2051 C   0  0  0  0  0  0  0  0  0  0  0  0
   -5.1255    0.3743   -0.2101 C   0  0  0  0  0  0  0  0  0  0  0  0
   -6.1311   -0.1948   -1.2266 C   0  0  0  0  0  0  0  0  0  0  0  0
   -5.0541    1.8980   -0.3941 C   0  0  0  0  0  0  0  0  0  0  0  0
   -3.8198   -0.2414   -0.4654 N   0  0  0  0  0  0  0  0  0  0  0  0
   -2.6651    0.0099    0.2425 C   0  0  0  0  0  0  0  0  0  0  0  0
   -2.5356    0.7600    1.1976 O   0  0  0  0  0  0  0  0  0  0  0  0
   -1.4450   -0.7695   -0.2866 C   0  0  0  0  0  0  0  0  0  0  0  0
   -1.5407   -1.4963   -1.2691 O   0  0  0  0  0  0  0  0  0  0  0  0
   -0.2899   -0.5503    0.4339 N   0  0  0  0  0  0  0  0  0  0  0  0
    0.9279   -0.9859   -0.1186 N   0  0  0  0  0  0  0  0  0  0  0  0
    1.9922   -0.0956   -0.0775 C   0  0  0  0  0  0  0  0  0  0  0  0
    1.9505    0.9469    0.5712 O   0  0  0  0  0  0  0  0  0  0  0  0
    3.1951   -0.5659   -0.9013 C   0  0  0  0  0  0  0  0  0  0  0  0
    4.3454    0.2592   -0.8507 O   0  0  0  0  0  0  0  0  0  0  0  0
    5.2236    0.0677    0.1794 C   0  0  0  0  0  0  0  0  0  0  0  0
    4.9763   -0.6493    1.3507 C   0  0  0  0  0  0  0  0  0  0  0  0
    5.9709   -0.7625    2.3278 C   0  0  0  0  0  0  0  0  0  0  0  0
    7.2123   -0.1567    2.1416 C   0  0  0  0  0  0  0  0  0  0  0  0
    7.4599    0.5703    0.9803 C   0  0  0  0  0  0  0  0  0  0  0  0
    6.4663    0.6837    0.0065 C   0  0  0  0  0  0  0  0  0  0  0  0
   -5.6457   -1.0457    1.3660 H   0  0  0  0  0  0  0  0  0  0  0  0
   -6.6320    0.4267    1.3730 H   0  0  0  0  0  0  0  0  0  0  0  0
   -4.9745    0.4678    1.9772 H   0  0  0  0  0  0  0  0  0  0  0  0
   -7.1306    0.2309   -1.0835 H   0  0  0  0  0  0  0  0  0  0  0  0
   -6.2126   -1.2842   -1.1337 H   0  0  0  0  0  0  0  0  0  0  0  0
   -5.8178    0.0206   -2.2550 H   0  0  0  0  0  0  0  0  0  0  0  0
   -4.3897    2.3665    0.3395 H   0  0  0  0  0  0  0  0  0  0  0  0
   -6.0426    2.3573   -0.2806 H   0  0  0  0  0  0  0  0  0  0  0  0
   -4.6747    2.1565   -1.3894 H   0  0  0  0  0  0  0  0  0  0  0  0
   -3.7187   -0.8829   -1.2490 H   0  0  0  0  0  0  0  0  0  0  0  0
   -0.2546    0.2446    1.0796 H   0  0  0  0  0  0  0  0  0  0  0  0
    0.8448   -1.6613   -0.8784 H   0  0  0  0  0  0  0  0  0  0  0  0
    3.4360   -1.6086   -0.6581 H   0  0  0  0  0  0  0  0  0  0  0  0
    2.8665   -0.5652   -1.9480 H   0  0  0  0  0  0  0  0  0  0  0  0
    4.0177   -1.1146    1.5503 H   0  0  0  0  0  0  0  0  0  0  0  0
    5.7710   -1.3167    3.2414 H   0  0  0  0  0  0  0  0  0  0  0  0
    7.9810   -0.2428    2.9049 H   0  0  0  0  0  0  0  0  0  0  0  0
    8.4219    1.0534    0.8329 H   0  0  0  0  0  0  0  0  0  0  0  0
    6.6618    1.2575   -0.8960 H   0  0  0  0  0  0  0  0  0  0  0  0
  1  2  1  0
  2  3  1  0
  2  4  1  0
  2  5  1  0
  5  6  1  0
  6  7  2  0
  6  8  1  0
  8  9  2  0
  8 10  1  0
 10 11  1  0
 11 12  1  0
 12 13  2  0
 12 14  1  0
 14 15  1  0
 15 16  1  0
 16 17  2  0
 17 18  1  0
 18 19  2  0
 19 20  1  0
 20 21  2  0
 21 16  1  0
  1 22  1  0
  1 23  1  0
  1 24  1  0
  3 25  1  0
  3 26  1  0
  3 27  1  0
  4 28  1  0
  4 29  1  0
  4 30  1  0
  5 31  1  0
 10 32  1  0
 11 33  1  0
 14 34  1  0
 14 35  1  0
 17 36  1  0
 18 37  1  0
 19 38  1  0
 20 39  1  0
 21 40  1  0
M  END
$$$$
