
     RDKit          3D

 52 56  0  0  0  0  0  0  0  0999 V2000
   -5.8832    2.6228    2.2909 C   0  0  0  0  0  0  0  0  0  0  0  0
   -4.8986    1.9446    1.3850 C   0  0  0  0  0  0  0  0  0  0  0  0
   -4.4906    0.6305    1.6323 C   0  0  0  0  0  0  0  0  0  0  0  0
   -3.5507    0.0093    0.8030 C   0  0  0  0  0  0  0  0  0  0  0  0
   -2.9802    0.6949   -0.2760 C   0  0  0  0  0  0  0  0  0  0  0  0
   -2.0492    0.1100   -1.1765 N   0  0  0  0  0  0  0  0  0  0  0  0
   -1.6646   -1.2000   -1.1458 C   0  0  0  0  0  0  0  0  0  0  0  0
   -0.4372   -1.8090   -0.9374 C   0  0  0  0  0  0  0  0  0  0  0  0
    0.8132   -1.1521   -0.5982 C   0  0  0  0  0  0  0  0  0  0  0  0
    0.8706   -0.0759    0.2879 C   0  0  0  0  0  0  0  0  0  0  0  0
    2.0979    0.5339    0.5897 C   0  0  0  0  0  0  0  0  0  0  0  0
    3.3094    0.0926    0.0337 C   0  0  0  0  0  0  0  0  0  0  0  0
    4.5123    0.7070    0.3328 N   0  0  0  0  0  0  0  0  0  0  0  0
    5.7251    0.4872   -0.4703 C   0  0  0  0  0  0  0  0  0  0  0  0
    6.7116    1.6471   -0.2540 C   0  0  0  0  0  0  0  0  0  0  0  0
    7.1286    1.8175    1.1082 O   0  0  0  0  0  0  0  0  0  0  0  0
    6.1651    1.3420    2.0582 C   0  0  0  0  0  0  0  0  0  0  0  0
    4.7059    1.4588    1.5844 C   0  0  0  0  0  0  0  0  0  0  0  0
    3.2271   -0.9981   -0.8451 C   0  0  0  0  0  0  0  0  0  0  0  0
    2.0063   -1.6171   -1.1515 C   0  0  0  0  0  0  0  0  0  0  0  0
   -0.5229   -3.1714   -1.1079 N   0  0  0  0  0  0  0  0  0  0  0  0
   -1.7768   -3.4243   -1.4164 C   0  0  0  0  0  0  0  0  0  0  0  0
   -2.3580   -4.6327   -1.6832 N   0  0  0  0  0  0  0  0  0  0  0  0
   -3.6091   -4.6027   -2.0238 C   0  0  0  0  0  0  0  0  0  0  0  0
   -4.4659   -3.3925   -2.1508 C   0  0  0  0  0  0  0  0  0  0  0  0
   -3.8552   -2.2364   -1.8625 C   0  0  0  0  0  0  0  0  0  0  0  0
   -2.5158   -2.2417   -1.4789 N   0  0  0  0  0  0  0  0  0  0  0  0
   -3.3912    2.0137   -0.5147 C   0  0  0  0  0  0  0  0  0  0  0  0
   -4.3330    2.6360    0.3101 C   0  0  0  0  0  0  0  0  0  0  0  0
   -5.3534    3.1817    3.0681 H   0  0  0  0  0  0  0  0  0  0  0  0
   -6.5189    3.3129    1.7263 H   0  0  0  0  0  0  0  0  0  0  0  0
   -6.5434    1.8927    2.7704 H   0  0  0  0  0  0  0  0  0  0  0  0
   -4.9002    0.0771    2.4747 H   0  0  0  0  0  0  0  0  0  0  0  0
   -3.2555   -1.0103    1.0355 H   0  0  0  0  0  0  0  0  0  0  0  0
   -1.2999    0.7853   -1.3420 H   0  0  0  0  0  0  0  0  0  0  0  0
   -0.0284    0.2962    0.7725 H   0  0  0  0  0  0  0  0  0  0  0  0
    2.0804    1.3833    1.2668 H   0  0  0  0  0  0  0  0  0  0  0  0
    6.1902   -0.4587   -0.1693 H   0  0  0  0  0  0  0  0  0  0  0  0
    5.4865    0.4417   -1.5388 H   0  0  0  0  0  0  0  0  0  0  0  0
    7.6128    1.4922   -0.8561 H   0  0  0  0  0  0  0  0  0  0  0  0
    6.2605    2.5922   -0.5793 H   0  0  0  0  0  0  0  0  0  0  0  0
    6.4084    0.2968    2.2819 H   0  0  0  0  0  0  0  0  0  0  0  0
    6.3062    1.9126    2.9815 H   0  0  0  0  0  0  0  0  0  0  0  0
    4.0642    1.0768    2.3867 H   0  0  0  0  0  0  0  0  0  0  0  0
    4.4562    2.5106    1.4036 H   0  0  0  0  0  0  0  0  0  0  0  0
    4.1218   -1.4163   -1.2974 H   0  0  0  0  0  0  0  0  0  0  0  0
    1.9969   -2.4724   -1.8249 H   0  0  0  0  0  0  0  0  0  0  0  0
   -4.1169   -5.5554   -2.2494 H   0  0  0  0  0  0  0  0  0  0  0  0
   -5.4963   -3.4868   -2.4595 H   0  0  0  0  0  0  0  0  0  0  0  0
   -4.3529   -1.2773   -1.9194 H   0  0  0  0  0  0  0  0  0  0  0  0
   -2.9838    2.5680   -1.3570 H   0  0  0  0  0  0  0  0  0  0  0  0
   -4.6253    3.6631    0.1023 H   0  0  0  0  0  0  0  0  0  0  0  0
  1  2  1  0
  2  3  2  0
  3  4  1  0
  4  5  2  0
  5  6  1  0
  6  7  1  0
  7  8  2  0
  8  9  1  0
  9 10  2  0
 10 11  1  0
 11 12  2  0
 12 13  1  0
 13 14  1  0
 14 15  1  0
 15 16  1  0
 16 17  1  0
 17 18  1  0
 12 19  1  0
 19 20  2  0
  8 21  1  0
 21 22  2  0
 22 23  1  0
 23 24  2  0
 24 25  1  0
 25 26  2  0
 26 27  1  0
  5 28  1  0
 28 29  2  0
 29  2  1  0
 27  7  1  0
 20  9  1  0
 27 22  1  0
 18 13  1  0
  1 30  1  0
  1 31  1  0
  1 32  1  0
  3 33  1  0
  4 34  1  0
  6 35  1  0
 10 36  1  0
 11 37  1  0
 14 38  1  0
 14 39  1  0
 15 40  1  0
 15 41  1  0
 17 42  1  0
 17 43  1  0
 18 44  1  0
 18 45  1  0
 19 46  1  0
 20 47  1  0
 24 48  1  0
 25 49  1  0
 26 50  1  0
 28 51  1  0
 29 52  1  0
M  END
$$$$
