
     RDKit          3D

 90 96  0  0  0  0  0  0  0  0999 V2000
   -4.9616    1.0477   -1.9619 C   0  0  0  0  0  0  0  0  0  0  0  0
   -4.5792    1.2036   -0.4928 C   0  0  0  0  0  0  0  0  0  0  0  0
   -3.2093    0.6225   -0.1778 C   0  0  0  0  0  0  0  0  0  0  0  0
   -2.1756    1.4193    0.1749 C   0  0  0  0  0  0  0  0  0  0  0  0
   -2.3250    2.8125    0.2536 O   0  0  0  0  0  0  0  0  0  0  0  0
   -2.6949    3.2399    1.5096 C   0  0  0  0  0  0  0  0  0  0  0  0
   -2.8620    2.4899    2.4721 O   0  0  0  0  0  0  0  0  0  0  0  0
   -2.8885    4.6199    1.5785 N   0  0  0  0  0  0  0  0  0  0  0  0
   -3.1660    5.2109    2.8816 C   0  0  0  0  0  0  0  0  0  0  0  0
   -1.9308    5.3186    3.7646 C   0  0  0  0  0  0  0  0  0  0  0  0
   -2.6628    5.5096    0.4368 C   0  0  0  0  0  0  0  0  0  0  0  0
   -1.2415    6.0361    0.3516 C   0  0  0  0  0  0  0  0  0  0  0  0
   -0.9036    0.9188    0.3611 N   0  0  0  0  0  0  0  0  0  0  0  0
    0.2254    1.6738    0.5675 C   0  0  0  0  0  0  0  0  0  0  0  0
    0.3241    2.8636    0.8109 O   0  0  0  0  0  0  0  0  0  0  0  0
    1.2957    0.8718    0.3816 O   0  0  0  0  0  0  0  0  0  0  0  0
    0.8295   -0.3315   -0.0244 C   0  0  0  0  0  0  0  0  0  0  0  0
    1.5551   -1.1660   -0.6791 N   0  0  0  0  0  0  0  0  0  0  0  0
    2.9454   -0.7766   -0.9782 C   0  0  0  0  0  0  0  0  0  0  0  0
    3.0065    0.1424   -2.2015 C   0  0  0  0  0  0  0  0  0  0  0  0
    4.3986    0.3138   -2.7195 C   0  0  0  0  0  0  0  0  0  0  0  0
    4.8944   -0.2058   -3.9031 C   0  0  0  0  0  0  0  0  0  0  0  0
    6.2066    0.1631   -4.0151 N   0  0  0  0  0  0  0  0  0  0  0  0
    6.5839    0.9206   -2.9287 C   0  0  0  0  0  0  0  0  0  0  0  0
    7.8203    1.5040   -2.6243 C   0  0  0  0  0  0  0  0  0  0  0  0
    7.9197    2.2353   -1.4340 C   0  0  0  0  0  0  0  0  0  0  0  0
    6.8227    2.3822   -0.5858 C   0  0  0  0  0  0  0  0  0  0  0  0
    5.5908    1.7920   -0.9067 C   0  0  0  0  0  0  0  0  0  0  0  0
    5.4674    1.0424   -2.0992 C   0  0  0  0  0  0  0  0  0  0  0  0
   -0.6167   -0.5329    0.3975 C   0  0  0  0  0  0  0  0  0  0  0  0
   -0.6935   -0.9987    1.8860 C   0  0  0  0  0  0  0  0  0  0  0  0
   -0.0762   -2.3242    2.2657 C   0  0  0  0  0  0  0  0  0  0  0  0
    1.3156   -2.4779    2.3507 C   0  0  0  0  0  0  0  0  0  0  0  0
    1.8771   -3.7072    2.7002 C   0  0  0  0  0  0  0  0  0  0  0  0
    1.0549   -4.7944    2.9914 C   0  0  0  0  0  0  0  0  0  0  0  0
   -0.3291   -4.6488    2.9386 C   0  0  0  0  0  0  0  0  0  0  0  0
   -0.8902   -3.4191    2.5895 C   0  0  0  0  0  0  0  0  0  0  0  0
   -1.5460   -1.2713   -0.6088 C   0  0  0  0  0  0  0  0  0  0  0  0
   -3.0059   -0.8339   -0.2806 C   0  0  0  0  0  0  0  0  0  0  0  0
   -4.0116   -1.7018   -0.0365 C   0  0  0  0  0  0  0  0  0  0  0  0
   -3.9098   -3.1959   -0.0589 C   0  0  0  0  0  0  0  0  0  0  0  0
   -2.5625   -3.6634   -0.4679 C   0  0  0  0  0  0  0  0  0  0  0  0
   -1.4449   -2.7900   -0.7240 C   0  0  0  0  0  0  0  0  0  0  0  0
   -0.4316   -3.6153   -1.1932 C   0  0  0  0  0  0  0  0  0  0  0  0
    0.7831   -3.3858   -1.6735 O   0  0  0  0  0  0  0  0  0  0  0  0
   -0.8638   -4.9181   -1.1237 N   0  0  0  0  0  0  0  0  0  0  0  0
   -0.0562   -6.0649   -1.4744 C   0  0  0  0  0  0  0  0  0  0  0  0
   -2.1619   -4.9630   -0.6984 C   0  0  0  0  0  0  0  0  0  0  0  0
   -2.8083   -6.1184   -0.5912 O   0  0  0  0  0  0  0  0  0  0  0  0
   -5.0872   -0.0040   -2.2419 H   0  0  0  0  0  0  0  0  0  0  0  0
   -4.2000    1.4869   -2.6167 H   0  0  0  0  0  0  0  0  0  0  0  0
   -5.9097    1.5621   -2.1573 H   0  0  0  0  0  0  0  0  0  0  0  0
   -5.3486    0.7579    0.1462 H   0  0  0  0  0  0  0  0  0  0  0  0
   -4.6189    2.2749   -0.2623 H   0  0  0  0  0  0  0  0  0  0  0  0
   -3.6180    6.1998    2.7410 H   0  0  0  0  0  0  0  0  0  0  0  0
   -3.9094    4.5849    3.3904 H   0  0  0  0  0  0  0  0  0  0  0  0
   -1.4576    4.3419    3.9141 H   0  0  0  0  0  0  0  0  0  0  0  0
   -2.2047    5.7167    4.7480 H   0  0  0  0  0  0  0  0  0  0  0  0
   -1.1800    5.9852    3.3309 H   0  0  0  0  0  0  0  0  0  0  0  0
   -3.3720    6.3446    0.5005 H   0  0  0  0  0  0  0  0  0  0  0  0
   -2.9006    4.9733   -0.4870 H   0  0  0  0  0  0  0  0  0  0  0  0
   -1.0174    6.7051    1.1851 H   0  0  0  0  0  0  0  0  0  0  0  0
   -0.5120    5.2231    0.3665 H   0  0  0  0  0  0  0  0  0  0  0  0
   -1.0990    6.6032   -0.5756 H   0  0  0  0  0  0  0  0  0  0  0  0
    3.5002   -1.7006   -1.1804 H   0  0  0  0  0  0  0  0  0  0  0  0
    3.4284   -0.3178   -0.1071 H   0  0  0  0  0  0  0  0  0  0  0  0
    2.3680   -0.2655   -2.9979 H   0  0  0  0  0  0  0  0  0  0  0  0
    2.5883    1.1282   -1.9578 H   0  0  0  0  0  0  0  0  0  0  0  0
    4.4192   -0.8036   -4.6750 H   0  0  0  0  0  0  0  0  0  0  0  0
    6.8198   -0.0772   -4.7861 H   0  0  0  0  0  0  0  0  0  0  0  0
    8.6776    1.3956   -3.2831 H   0  0  0  0  0  0  0  0  0  0  0  0
    8.8706    2.6984   -1.1695 H   0  0  0  0  0  0  0  0  0  0  0  0
    6.9211    2.9571    0.3342 H   0  0  0  0  0  0  0  0  0  0  0  0
    4.7455    1.9111   -0.2348 H   0  0  0  0  0  0  0  0  0  0  0  0
   -1.7398   -0.9814    2.2186 H   0  0  0  0  0  0  0  0  0  0  0  0
   -0.2072   -0.2501    2.5307 H   0  0  0  0  0  0  0  0  0  0  0  0
    1.9876   -1.6449    2.1527 H   0  0  0  0  0  0  0  0  0  0  0  0
    2.9583   -3.8171    2.7464 H   0  0  0  0  0  0  0  0  0  0  0  0
    1.4938   -5.7509    3.2637 H   0  0  0  0  0  0  0  0  0  0  0  0
   -0.9741   -5.4961    3.1632 H   0  0  0  0  0  0  0  0  0  0  0  0
   -1.9742   -3.3306    2.5576 H   0  0  0  0  0  0  0  0  0  0  0  0
   -1.3315   -0.8903   -1.6220 H   0  0  0  0  0  0  0  0  0  0  0  0
   -5.0028   -1.3458    0.2277 H   0  0  0  0  0  0  0  0  0  0  0  0
   -4.1455   -3.5822    0.9403 H   0  0  0  0  0  0  0  0  0  0  0  0
   -4.6610   -3.5958   -0.7526 H   0  0  0  0  0  0  0  0  0  0  0  0
    1.0577   -2.4832   -1.3995 H   0  0  0  0  0  0  0  0  0  0  0  0
    0.9503   -5.9291   -1.0681 H   0  0  0  0  0  0  0  0  0  0  0  0
   -0.4941   -6.9701   -1.0467 H   0  0  0  0  0  0  0  0  0  0  0  0
   -0.0223   -6.1358   -2.5639 H   0  0  0  0  0  0  0  0  0  0  0  0
   -3.7064   -5.9271   -0.2731 H   0  0  0  0  0  0  0  0  0  0  0  0
  1  2  1  0
  2  3  1  0
  3  4  2  0
  4  5  1  0
  5  6  1  0
  6  7  2  0
  6  8  1  0
  8  9  1  0
  9 10  1  0
  8 11  1  0
 11 12  1  0
  4 13  1  0
 13 14  1  0
 14 15  2  0
 14 16  1  0
 16 17  1  0
 17 18  2  3
 18 19  1  0
 19 20  1  0
 20 21  1  0
 21 22  2  0
 22 23  1  0
 23 24  1  0
 24 25  2  0
 25 26  1  0
 26 27  2  0
 27 28  1  0
 28 29  2  0
 17 30  1  0
 30 31  1  0
 31 32  1  0
 32 33  2  0
 33 34  1  0
 34 35  2  0
 35 36  1  0
 36 37  2  0
 30 38  1  0
 38 39  1  0
 39 40  2  0
 40 41  1  0
 41 42  1  0
 42 43  1  0
 43 44  2  0
 44 45  1  0
 44 46  1  0
 46 47  1  0
 46 48  1  0
 48 49  1  0
 39  3  1  0
 48 42  2  0
 30 13  1  0
 37 32  1  0
 43 38  1  0
 29 21  1  0
 29 24  1  0
  1 50  1  0
  1 51  1  0
  1 52  1  0
  2 53  1  0
  2 54  1  0
  9 55  1  0
  9 56  1  0
 10 57  1  0
 10 58  1  0
 10 59  1  0
 11 60  1  0
 11 61  1  0
 12 62  1  0
 12 63  1  0
 12 64  1  0
 19 65  1  0
 19 66  1  0
 20 67  1  0
 20 68  1  0
 22 69  1  0
 23 70  1  0
 25 71  1  0
 26 72  1  0
 27 73  1  0
 28 74  1  0
 31 75  1  0
 31 76  1  0
 33 77  1  0
 34 78  1  0
 35 79  1  0
 36 80  1  0
 37 81  1  0
 38 82  1  0
 40 83  1  0
 41 84  1  0
 41 85  1  0
 45 86  1  0
 47 87  1  0
 47 88  1  0
 47 89  1  0
 49 90  1  0
M  END
$$$$
