
     RDKit          3D

 39 41  0  0  0  0  0  0  0  0999 V2000
   -6.1676    0.3365   -1.1109 C   0  0  0  0  0  0  0  0  0  0  0  0
   -4.8007   -0.0398   -1.2269 O   0  0  0  0  0  0  0  0  0  0  0  0
   -4.0021    0.1365   -0.1272 C   0  0  0  0  0  0  0  0  0  0  0  0
   -4.4015    0.7808    1.0503 C   0  0  0  0  0  0  0  0  0  0  0  0
   -3.5160    0.9114    2.1238 C   0  0  0  0  0  0  0  0  0  0  0  0
   -2.2242    0.4049    2.0288 C   0  0  0  0  0  0  0  0  0  0  0  0
   -1.8125   -0.2305    0.8569 C   0  0  0  0  0  0  0  0  0  0  0  0
   -2.6910   -0.3720   -0.2322 C   0  0  0  0  0  0  0  0  0  0  0  0
   -2.1993   -1.0500   -1.4937 C   0  0  0  0  0  0  0  0  0  0  0  0
   -1.5913    0.1305   -2.7371 S   0  0  0  0  0  0  0  0  0  0  0  0
   -0.0384    0.5069   -2.1019 C   0  0  0  0  0  0  0  0  0  0  0  0
    0.7783   -0.2830   -1.4507 N   0  0  0  0  0  0  0  0  0  0  0  0
    1.8842    0.4923   -1.1699 C   0  0  0  0  0  0  0  0  0  0  0  0
    3.0491   -0.0185   -0.4622 C   0  0  0  0  0  0  0  0  0  0  0  0
    4.0349    0.8353    0.0589 C   0  0  0  0  0  0  0  0  0  0  0  0
    5.1455    0.3135    0.7358 C   0  0  0  0  0  0  0  0  0  0  0  0
    5.2700   -1.0729    0.8974 C   0  0  0  0  0  0  0  0  0  0  0  0
    6.4277   -1.6214    1.6132 N   0  0  0  0  0  4  0  0  0  0  0  0
    6.5399   -2.8556    1.6715 O   0  0  0  0  0  0  0  0  0  0  0  0
    7.2264   -0.8195    2.1193 O   0  0  0  0  0  1  0  0  0  0  0  0
    4.2971   -1.9404    0.3860 C   0  0  0  0  0  0  0  0  0  0  0  0
    3.1938   -1.4053   -0.2918 C   0  0  0  0  0  0  0  0  0  0  0  0
    1.7129    1.7688   -1.6702 C   0  0  0  0  0  0  0  0  0  0  0  0
    0.4781    1.7573   -2.2648 N   0  0  0  0  0  0  0  0  0  0  0  0
   -6.6658   -0.2277   -0.3165 H   0  0  0  0  0  0  0  0  0  0  0  0
   -6.6648    0.0912   -2.0537 H   0  0  0  0  0  0  0  0  0  0  0  0
   -6.2712    1.4123   -0.9551 H   0  0  0  0  0  0  0  0  0  0  0  0
   -5.3979    1.1959    1.1661 H   0  0  0  0  0  0  0  0  0  0  0  0
   -3.8383    1.4120    3.0360 H   0  0  0  0  0  0  0  0  0  0  0  0
   -1.5340    0.5043    2.8620 H   0  0  0  0  0  0  0  0  0  0  0  0
   -0.7955   -0.6148    0.7908 H   0  0  0  0  0  0  0  0  0  0  0  0
   -3.0132   -1.6298   -1.9445 H   0  0  0  0  0  0  0  0  0  0  0  0
   -1.4245   -1.7875   -1.2564 H   0  0  0  0  0  0  0  0  0  0  0  0
    3.9513    1.9143   -0.0450 H   0  0  0  0  0  0  0  0  0  0  0  0
    5.8937    0.9980    1.1306 H   0  0  0  0  0  0  0  0  0  0  0  0
    4.3768   -3.0191    0.5010 H   0  0  0  0  0  0  0  0  0  0  0  0
    2.4392   -2.0841   -0.6906 H   0  0  0  0  0  0  0  0  0  0  0  0
    2.3341    2.6527   -1.6762 H   0  0  0  0  0  0  0  0  0  0  0  0
    0.0170    2.5166   -2.7444 H   0  0  0  0  0  0  0  0  0  0  0  0
  1  2  1  0
  2  3  1  0
  3  4  2  0
  4  5  1  0
  5  6  2  0
  6  7  1  0
  7  8  2  0
  8  9  1  0
  9 10  1  0
 10 11  1  0
 11 12  2  0
 12 13  1  0
 13 14  1  0
 14 15  2  0
 15 16  1  0
 16 17  2  0
 17 18  1  0
 18 19  2  0
 18 20  1  0
 17 21  1  0
 21 22  2  0
 13 23  2  0
 23 24  1  0
  8  3  1  0
 24 11  1  0
 22 14  1  0
  1 25  1  0
  1 26  1  0
  1 27  1  0
  4 28  1  0
  5 29  1  0
  6 30  1  0
  7 31  1  0
  9 32  1  0
  9 33  1  0
 15 34  1  0
 16 35  1  0
 21 36  1  0
 22 37  1  0
 23 38  1  0
 24 39  1  0
M  CHG  2  18   1  20  -1
M  END
$$$$
