
     RDKit          3D

 53 56  0  0  0  0  0  0  0  0999 V2000
   -6.3997    2.1716   -0.4432 C   0  0  0  0  0  0  0  0  0  0  0  0
   -5.7694    1.0475    0.4098 C   0  0  0  0  0  0  0  0  0  0  0  0
   -5.8068    1.5162    1.8805 C   0  0  0  0  0  0  0  0  0  0  0  0
   -6.6628   -0.2017    0.2520 C   0  0  0  0  0  0  0  0  0  0  0  0
   -4.3240    0.7022    0.0128 C   0  0  0  0  0  0  0  0  0  0  0  0
   -3.6536    1.3380   -1.0401 C   0  0  0  0  0  0  0  0  0  0  0  0
   -2.3357    0.9973   -1.3756 C   0  0  0  0  0  0  0  0  0  0  0  0
   -1.6348    0.0116   -0.6640 C   0  0  0  0  0  0  0  0  0  0  0  0
   -0.2910   -0.2921   -1.0495 N   0  0  0  0  0  0  0  0  0  0  0  0
    0.1997    0.2507   -2.2052 N   0  0  0  0  0  0  0  0  0  0  0  0
    1.4184   -0.2608   -2.3547 C   0  0  0  0  0  0  0  0  0  0  0  0
    1.7770   -1.0934   -1.2922 C   0  0  0  0  0  0  0  0  0  0  0  0
    0.6805   -1.0831   -0.4463 C   0  0  0  0  0  0  0  0  0  0  0  0
    0.6243   -1.8139    0.8518 C   0  0  0  0  0  0  0  0  0  0  0  0
    2.0288   -2.2893    1.2749 C   0  0  0  0  0  0  0  0  0  0  0  0
    2.8341   -2.8695    0.0967 C   0  0  0  0  0  0  0  0  0  0  0  0
    3.0444   -1.8302   -1.0285 C   0  0  0  0  0  0  0  0  0  0  0  0
    4.0397   -0.8484   -0.6571 N   0  0  0  0  0  0  0  0  0  0  0  0
    5.3917   -1.0979   -0.7268 C   0  0  0  0  0  0  0  0  0  0  0  0
    5.8773   -2.1257   -1.1833 O   0  0  0  0  0  0  0  0  0  0  0  0
    6.2477   -0.0065   -0.1851 C   0  0  0  0  0  0  0  0  0  0  0  0
    7.6291   -0.1168   -0.2295 C   0  0  0  0  0  0  0  0  0  0  0  0
    8.4465    0.8537    0.2549 N   0  0  0  0  0  0  0  0  0  0  0  0
    7.8180    1.9314    0.7803 C   0  0  0  0  0  0  0  0  0  0  0  0
    6.4357    2.0400    0.8257 C   0  0  0  0  0  0  0  0  0  0  0  0
    5.6115    1.0781    0.3489 N   0  0  0  0  0  0  0  0  0  0  0  0
   -2.2960   -0.6390    0.3768 C   0  0  0  0  0  0  0  0  0  0  0  0
   -3.6160   -0.2948    0.7080 C   0  0  0  0  0  0  0  0  0  0  0  0
   -5.8347    3.1072   -0.3586 H   0  0  0  0  0  0  0  0  0  0  0  0
   -6.4472    1.8958   -1.5031 H   0  0  0  0  0  0  0  0  0  0  0  0
   -7.4259    2.3845   -0.1202 H   0  0  0  0  0  0  0  0  0  0  0  0
   -5.4792    0.7337    2.5737 H   0  0  0  0  0  0  0  0  0  0  0  0
   -5.1562    2.3854    2.0341 H   0  0  0  0  0  0  0  0  0  0  0  0
   -6.8222    1.8027    2.1784 H   0  0  0  0  0  0  0  0  0  0  0  0
   -6.3507   -1.0202    0.9099 H   0  0  0  0  0  0  0  0  0  0  0  0
   -7.7070    0.0257    0.4966 H   0  0  0  0  0  0  0  0  0  0  0  0
   -6.6357   -0.5786   -0.7773 H   0  0  0  0  0  0  0  0  0  0  0  0
   -4.1300    2.1141   -1.6329 H   0  0  0  0  0  0  0  0  0  0  0  0
   -1.8662    1.5274   -2.2036 H   0  0  0  0  0  0  0  0  0  0  0  0
    2.0002    0.0125   -3.2260 H   0  0  0  0  0  0  0  0  0  0  0  0
   -0.0207   -2.6933    0.7419 H   0  0  0  0  0  0  0  0  0  0  0  0
    0.2250   -1.1782    1.6486 H   0  0  0  0  0  0  0  0  0  0  0  0
    2.5827   -1.4473    1.7097 H   0  0  0  0  0  0  0  0  0  0  0  0
    1.9318   -3.0427    2.0651 H   0  0  0  0  0  0  0  0  0  0  0  0
    2.2856   -3.7309   -0.3067 H   0  0  0  0  0  0  0  0  0  0  0  0
    3.7969   -3.2460    0.4612 H   0  0  0  0  0  0  0  0  0  0  0  0
    3.3862   -2.3460   -1.9336 H   0  0  0  0  0  0  0  0  0  0  0  0
    3.7569    0.0076   -0.1856 H   0  0  0  0  0  0  0  0  0  0  0  0
    8.1212   -0.9852   -0.6545 H   0  0  0  0  0  0  0  0  0  0  0  0
    8.4612    2.7139    1.1680 H   0  0  0  0  0  0  0  0  0  0  0  0
    5.9533    2.9134    1.2512 H   0  0  0  0  0  0  0  0  0  0  0  0
   -1.8493   -1.4419    0.9458 H   0  0  0  0  0  0  0  0  0  0  0  0
   -4.0903   -0.8342    1.5260 H   0  0  0  0  0  0  0  0  0  0  0  0
  1  2  1  0
  2  3  1  0
  2  4  1  0
  2  5  1  0
  5  6  2  0
  6  7  1  0
  7  8  2  0
  8  9  1  0
  9 10  1  0
 10 11  2  0
 11 12  1  0
 12 13  2  0
 13 14  1  0
 14 15  1  0
 15 16  1  0
 16 17  1  0
 17 18  1  0
 18 19  1  0
 19 20  2  0
 19 21  1  0
 21 22  2  0
 22 23  1  0
 23 24  2  0
 24 25  1  0
 25 26  2  0
  8 27  1  0
 27 28  2  0
 28  5  1  0
 13  9  1  0
 26 21  1  0
 17 12  1  0
  1 29  1  0
  1 30  1  0
  1 31  1  0
  3 32  1  0
  3 33  1  0
  3 34  1  0
  4 35  1  0
  4 36  1  0
  4 37  1  0
  6 38  1  0
  7 39  1  0
 11 40  1  0
 14 41  1  0
 14 42  1  0
 15 43  1  0
 15 44  1  0
 16 45  1  0
 16 46  1  0
 17 47  1  0
 18 48  1  0
 22 49  1  0
 24 50  1  0
 25 51  1  0
 27 52  1  0
 28 53  1  0
M  END
$$$$
