
     RDKit          3D

 48 50  0  0  0  0  0  0  0  0999 V2000
    4.6813    1.7903   -2.9900 C   0  0  0  0  0  0  0  0  0  0  0  0
    4.5216    2.0955   -1.6102 O   0  0  0  0  0  0  0  0  0  0  0  0
    3.9132    1.1488   -0.8345 C   0  0  0  0  0  0  0  0  0  0  0  0
    3.8186    1.4760    0.5207 C   0  0  0  0  0  0  0  0  0  0  0  0
    3.2206    0.5989    1.4285 C   0  0  0  0  0  0  0  0  0  0  0  0
    2.6990   -0.6230    0.9880 C   0  0  0  0  0  0  0  0  0  0  0  0
    2.0354   -1.5702    1.9619 C   0  0  0  0  0  0  0  0  0  0  0  0
    0.5834   -1.9097    1.6407 C   0  0  0  0  0  0  0  0  0  0  0  0
    0.1571   -3.0425    1.8507 O   0  0  0  0  0  0  0  0  0  0  0  0
   -0.1603   -0.8266    1.2007 N   0  0  0  0  0  0  0  0  0  0  0  0
   -1.4817   -0.8837    0.7868 C   0  0  0  0  0  0  0  0  0  0  0  0
   -2.3408   -1.9441    0.5944 C   0  0  0  0  0  0  0  0  0  0  0  0
   -3.5386   -1.3902    0.1546 C   0  0  0  0  0  0  0  0  0  0  0  0
   -3.5083   -0.0687    0.0770 N   0  0  0  0  0  0  0  0  0  0  0  0
   -2.2331    0.2475    0.4376 N   0  0  0  0  0  0  0  0  0  0  0  0
   -1.8380    1.6746    0.4270 C   0  0  0  0  0  0  0  0  0  0  0  0
   -3.0287    2.5935    0.0362 C   0  0  0  0  0  0  0  0  0  0  0  0
   -0.7308    1.9166   -0.6179 C   0  0  0  0  0  0  0  0  0  0  0  0
   -1.3792    2.1276    1.8276 C   0  0  0  0  0  0  0  0  0  0  0  0
   -4.6617   -2.2827   -0.1534 C   0  0  0  0  0  0  0  0  0  0  0  0
   -3.9589   -3.9984    0.0215 S   0  0  0  0  0  3  0  0  0  0  0  0
   -3.6780   -4.5762   -1.5139 O   0  0  0  0  0  1  0  0  0  0  0  0
   -2.3162   -3.4096    0.7089 C   0  0  0  0  0  0  0  0  0  0  0  0
    2.8036   -0.9531   -0.3705 C   0  0  0  0  0  0  0  0  0  0  0  0
    3.4040   -0.0708   -1.2758 C   0  0  0  0  0  0  0  0  0  0  0  0
    5.2868    0.8904   -3.1320 H   0  0  0  0  0  0  0  0  0  0  0  0
    5.2131    2.6254   -3.4560 H   0  0  0  0  0  0  0  0  0  0  0  0
    3.7090    1.6959   -3.4853 H   0  0  0  0  0  0  0  0  0  0  0  0
    4.2242    2.4204    0.8729 H   0  0  0  0  0  0  0  0  0  0  0  0
    3.1771    0.8786    2.4807 H   0  0  0  0  0  0  0  0  0  0  0  0
    2.0525   -1.1554    2.9769 H   0  0  0  0  0  0  0  0  0  0  0  0
    2.6147   -2.5016    1.9827 H   0  0  0  0  0  0  0  0  0  0  0  0
    0.3168    0.0630    1.1707 H   0  0  0  0  0  0  0  0  0  0  0  0
   -2.7295    3.6484    0.0307 H   0  0  0  0  0  0  0  0  0  0  0  0
   -3.4064    2.3592   -0.9665 H   0  0  0  0  0  0  0  0  0  0  0  0
   -3.8613    2.4937    0.7427 H   0  0  0  0  0  0  0  0  0  0  0  0
   -1.0549    1.5919   -1.6146 H   0  0  0  0  0  0  0  0  0  0  0  0
    0.1942    1.3820   -0.3896 H   0  0  0  0  0  0  0  0  0  0  0  0
   -0.4756    2.9812   -0.6809 H   0  0  0  0  0  0  0  0  0  0  0  0
   -2.1330    1.8831    2.5862 H   0  0  0  0  0  0  0  0  0  0  0  0
   -0.4403    1.6643    2.1404 H   0  0  0  0  0  0  0  0  0  0  0  0
   -1.2153    3.2117    1.8569 H   0  0  0  0  0  0  0  0  0  0  0  0
   -5.4727   -2.1855    0.5729 H   0  0  0  0  0  0  0  0  0  0  0  0
   -5.0398   -2.1667   -1.1715 H   0  0  0  0  0  0  0  0  0  0  0  0
   -1.5287   -3.8851    0.1218 H   0  0  0  0  0  0  0  0  0  0  0  0
   -2.2912   -3.7403    1.7495 H   0  0  0  0  0  0  0  0  0  0  0  0
    2.4175   -1.9017   -0.7394 H   0  0  0  0  0  0  0  0  0  0  0  0
    3.4594   -0.3724   -2.3174 H   0  0  0  0  0  0  0  0  0  0  0  0
  1  2  1  0
  2  3  1  0
  3  4  2  0
  4  5  1  0
  5  6  2  0
  6  7  1  0
  7  8  1  0
  8  9  2  0
  8 10  1  0
 10 11  1  0
 11 12  2  0
 12 13  1  0
 13 14  2  0
 14 15  1  0
 15 16  1  0
 16 17  1  0
 16 18  1  0
 16 19  1  0
 13 20  1  0
 20 21  1  0
 21 22  1  0
 21 23  1  0
  6 24  1  0
 24 25  2  0
 25  3  1  0
 15 11  1  0
 23 12  1  0
  1 26  1  0
  1 27  1  0
  1 28  1  0
  4 29  1  0
  5 30  1  0
  7 31  1  0
  7 32  1  0
 10 33  1  0
 17 34  1  0
 17 35  1  0
 17 36  1  0
 18 37  1  0
 18 38  1  0
 18 39  1  0
 19 40  1  0
 19 41  1  0
 19 42  1  0
 20 43  1  0
 20 44  1  0
 23 45  1  0
 23 46  1  0
 24 47  1  0
 25 48  1  0
M  CHG  2  21   1  22  -1
M  END
$$$$
