
     RDKit          3D

 67 72  0  0  0  0  0  0  0  0999 V2000
   -2.5334    4.0420   -0.0008 O   0  0  0  0  0  0  0  0  0  0  0  0
   -2.2084    2.8934   -0.3250 C   0  0  0  0  0  0  0  0  0  0  0  0
   -0.8011    2.6860   -0.8840 C   0  0  0  0  0  0  0  0  0  0  0  0
   -0.7193    1.9965   -2.2442 C   0  0  0  0  0  0  0  0  0  0  0  0
    0.7308    1.9772   -2.7151 C   0  0  0  0  0  0  0  0  0  0  0  0
    1.6410    1.2921   -1.6941 C   0  0  0  0  0  0  0  0  0  0  0  0
    1.4986    1.9069   -0.3715 N   0  0  0  0  0  0  0  0  0  0  0  0
    2.4288    1.5068    0.6134 C   0  0  0  0  0  0  0  0  0  0  0  0
    2.2169    1.9217    1.9037 N   0  0  0  0  0  0  0  0  0  0  0  0
    3.1019    1.6110    2.8717 C   0  0  0  0  0  0  0  0  0  0  0  0
    4.2329    0.8974    2.7628 N   0  0  0  0  0  0  0  0  0  0  0  0
    4.4152    0.4853    1.4984 C   0  0  0  0  0  0  0  0  0  0  0  0
    3.5986    0.7238    0.4012 C   0  0  0  0  0  0  0  0  0  0  0  0
    4.1257    0.0952   -0.7174 N   0  0  0  0  0  0  0  0  0  0  0  0
    5.2418   -0.4842   -0.3176 C   0  0  0  0  0  0  0  0  0  0  0  0
    5.4594   -0.2566    1.0202 N   0  0  0  0  0  0  0  0  0  0  0  0
    6.5946   -0.7214    1.7873 C   0  0  0  0  0  0  0  0  0  0  0  0
    6.6987   -2.2435    1.8350 C   0  0  0  0  0  0  0  0  0  0  0  0
    7.2436   -2.8605    0.5446 C   0  0  0  0  0  0  0  0  0  0  0  0
    6.3292   -2.7194   -0.6758 C   0  0  0  0  0  0  0  0  0  0  0  0
    6.1663   -1.2818   -1.1712 C   0  0  0  0  0  0  0  0  0  0  0  0
    0.1344    2.0768    0.1611 C   0  0  0  0  0  0  0  0  0  0  0  0
   -3.0955    1.8469   -0.1471 N   0  0  0  0  0  0  0  0  0  0  0  0
   -4.4231    2.1660    0.4027 C   0  0  0  0  0  0  0  0  0  0  0  0
   -5.5324    1.2003   -0.0539 C   0  0  0  0  0  0  0  0  0  0  0  0
   -5.1850   -0.2077    0.2189 N   0  0  0  0  0  0  0  0  0  0  0  0
   -6.1806   -1.1665    0.3760 C   0  0  0  0  0  0  0  0  0  0  0  0
   -5.9284   -2.3783    1.0473 C   0  0  0  0  0  0  0  0  0  0  0  0
   -6.9187   -3.3556    1.2254 C   0  0  0  0  0  0  0  0  0  0  0  0
   -8.2023   -3.1517    0.7332 C   0  0  0  0  0  0  0  0  0  0  0  0
   -8.4895   -1.9705    0.0606 C   0  0  0  0  0  0  0  0  0  0  0  0
   -7.4955   -1.0045   -0.1137 C   0  0  0  0  0  0  0  0  0  0  0  0
   -7.8381    0.0992   -0.8014 F   0  0  0  0  0  0  0  0  0  0  0  0
   -3.7590   -0.5271    0.3610 C   0  0  0  0  0  0  0  0  0  0  0  0
   -2.8847    0.4316   -0.4723 C   0  0  0  0  0  0  0  0  0  0  0  0
   -0.4288    3.7084   -1.0618 H   0  0  0  0  0  0  0  0  0  0  0  0
   -1.3420    2.5280   -2.9740 H   0  0  0  0  0  0  0  0  0  0  0  0
   -1.0799    0.9665   -2.2157 H   0  0  0  0  0  0  0  0  0  0  0  0
    0.8019    1.4585   -3.6779 H   0  0  0  0  0  0  0  0  0  0  0  0
    1.0751    3.0065   -2.8799 H   0  0  0  0  0  0  0  0  0  0  0  0
    2.6614    1.4102   -2.0739 H   0  0  0  0  0  0  0  0  0  0  0  0
    1.4032    0.2224   -1.6434 H   0  0  0  0  0  0  0  0  0  0  0  0
    2.8637    1.9830    3.8631 H   0  0  0  0  0  0  0  0  0  0  0  0
    6.4977   -0.3335    2.8086 H   0  0  0  0  0  0  0  0  0  0  0  0
    7.4939   -0.2673    1.3524 H   0  0  0  0  0  0  0  0  0  0  0  0
    7.3854   -2.5127    2.6468 H   0  0  0  0  0  0  0  0  0  0  0  0
    5.7270   -2.6891    2.0786 H   0  0  0  0  0  0  0  0  0  0  0  0
    7.4059   -3.9307    0.7255 H   0  0  0  0  0  0  0  0  0  0  0  0
    8.2280   -2.4326    0.3190 H   0  0  0  0  0  0  0  0  0  0  0  0
    5.3506   -3.1672   -0.4624 H   0  0  0  0  0  0  0  0  0  0  0  0
    6.7718   -3.3090   -1.4882 H   0  0  0  0  0  0  0  0  0  0  0  0
    7.1391   -0.7798   -1.2417 H   0  0  0  0  0  0  0  0  0  0  0  0
    5.7545   -1.3101   -2.1879 H   0  0  0  0  0  0  0  0  0  0  0  0
   -0.2342    1.1116    0.5217 H   0  0  0  0  0  0  0  0  0  0  0  0
    0.1336    2.7545    1.0260 H   0  0  0  0  0  0  0  0  0  0  0  0
   -4.3220    2.1227    1.4949 H   0  0  0  0  0  0  0  0  0  0  0  0
   -4.7134    3.1904    0.1416 H   0  0  0  0  0  0  0  0  0  0  0  0
   -5.7001    1.3277   -1.1302 H   0  0  0  0  0  0  0  0  0  0  0  0
   -6.4467    1.4881    0.4783 H   0  0  0  0  0  0  0  0  0  0  0  0
   -4.9495   -2.5802    1.4725 H   0  0  0  0  0  0  0  0  0  0  0  0
   -6.6824   -4.2745    1.7589 H   0  0  0  0  0  0  0  0  0  0  0  0
   -8.9722   -3.9051    0.8740 H   0  0  0  0  0  0  0  0  0  0  0  0
   -9.4820   -1.7882   -0.3394 H   0  0  0  0  0  0  0  0  0  0  0  0
   -3.5464   -1.5441    0.0139 H   0  0  0  0  0  0  0  0  0  0  0  0
   -3.4791   -0.4582    1.4182 H   0  0  0  0  0  0  0  0  0  0  0  0
   -3.1389    0.3199   -1.5331 H   0  0  0  0  0  0  0  0  0  0  0  0
   -1.8384    0.1567   -0.3446 H   0  0  0  0  0  0  0  0  0  0  0  0
  1  2  2  0
  2  3  1  0
  3  4  1  0
  4  5  1  0
  5  6  1  0
  6  7  1  0
  7  8  1  0
  8  9  2  0
  9 10  1  0
 10 11  2  0
 11 12  1  0
 12 13  2  0
 13 14  1  0
 14 15  2  0
 15 16  1  0
 16 17  1  0
 17 18  1  0
 18 19  1  0
 19 20  1  0
 20 21  1  0
  7 22  1  0
  2 23  1  0
 23 24  1  0
 24 25  1  0
 25 26  1  0
 26 27  1  0
 27 28  2  0
 28 29  1  0
 29 30  2  0
 30 31  1  0
 31 32  2  0
 32 33  1  0
 26 34  1  0
 34 35  1  0
 22  3  1  0
 35 23  1  0
 13  8  1  0
 21 15  1  0
 32 27  1  0
 16 12  1  0
  3 36  1  0
  4 37  1  0
  4 38  1  0
  5 39  1  0
  5 40  1  0
  6 41  1  0
  6 42  1  0
 10 43  1  0
 17 44  1  0
 17 45  1  0
 18 46  1  0
 18 47  1  0
 19 48  1  0
 19 49  1  0
 20 50  1  0
 20 51  1  0
 21 52  1  0
 21 53  1  0
 22 54  1  0
 22 55  1  0
 24 56  1  0
 24 57  1  0
 25 58  1  0
 25 59  1  0
 28 60  1  0
 29 61  1  0
 30 62  1  0
 31 63  1  0
 34 64  1  0
 34 65  1  0
 35 66  1  0
 35 67  1  0
M  END
$$$$
