
     RDKit          3D

 55 57  0  0  0  0  0  0  0  0999 V2000
    1.7694    0.8650   -4.4150 N   0  0  0  0  0  0  0  0  0  0  0  0
    2.3819    1.1124   -3.2410 C   0  0  0  0  0  0  0  0  0  0  0  0
    3.5636    1.6479   -3.1689 N   0  0  0  0  0  0  0  0  0  0  0  0
    3.8419    1.7353   -1.7074 C   0  0  0  0  0  0  0  0  0  0  0  0
    2.6314    1.1169   -0.9757 C   0  0  0  0  0  0  0  0  0  0  0  0
    2.9845   -0.1398   -0.1650 C   0  0  0  0  0  0  0  0  0  0  0  0
    3.6699    0.1805    1.1424 C   0  0  0  0  0  0  0  0  0  0  0  0
    5.0599    0.0756    1.2689 C   0  0  0  0  0  0  0  0  0  0  0  0
    5.6868    0.3864    2.4777 C   0  0  0  0  0  0  0  0  0  0  0  0
    4.9215    0.8015    3.5614 C   0  0  0  0  0  0  0  0  0  0  0  0
    5.4968    1.1243    4.7528 O   0  0  0  0  0  0  0  0  0  0  0  0
    3.5423    0.9067    3.4567 C   0  0  0  0  0  0  0  0  0  0  0  0
    2.9168    0.5992    2.2486 C   0  0  0  0  0  0  0  0  0  0  0  0
    1.7485    0.7531   -2.0923 N   0  0  0  0  0  0  0  0  0  0  0  0
    0.3123    0.9217   -1.8789 C   0  0  0  0  0  0  0  0  0  0  0  0
   -0.4605   -0.3288   -2.3115 C   0  0  0  0  0  0  0  0  0  0  0  0
   -1.9093   -0.3279   -1.8101 C   0  0  0  0  0  0  0  0  0  0  0  0
   -2.0277   -0.7314   -0.3372 C   0  0  0  0  0  0  0  0  0  0  0  0
   -3.4611   -0.5967    0.2145 C   0  0  0  0  0  0  0  0  0  0  0  0
   -3.5119   -0.9927    1.6956 C   0  0  0  0  0  0  0  0  0  0  0  0
   -4.8900   -0.7388    2.3157 C   0  0  0  0  0  0  0  0  0  0  0  0
   -6.0362   -0.8088    1.3051 C   0  0  0  0  0  0  0  0  0  0  0  0
   -5.7371   -1.8002    0.1906 C   0  0  0  0  0  0  0  0  0  0  0  0
   -4.4827   -1.4180   -0.5990 C   0  0  0  0  0  0  0  0  0  0  0  0
    1.4164   -0.0825   -4.4572 H   0  0  0  0  0  0  0  0  0  0  0  0
    2.4276    1.0269   -5.1736 H   0  0  0  0  0  0  0  0  0  0  0  0
    3.9557    2.7897   -1.4350 H   0  0  0  0  0  0  0  0  0  0  0  0
    4.7814    1.2260   -1.4896 H   0  0  0  0  0  0  0  0  0  0  0  0
    2.1692    1.8852   -0.3410 H   0  0  0  0  0  0  0  0  0  0  0  0
    2.0723   -0.7088    0.0607 H   0  0  0  0  0  0  0  0  0  0  0  0
    3.6064   -0.8227   -0.7600 H   0  0  0  0  0  0  0  0  0  0  0  0
    5.6660   -0.2501    0.4270 H   0  0  0  0  0  0  0  0  0  0  0  0
    6.7637    0.2947    2.5558 H   0  0  0  0  0  0  0  0  0  0  0  0
    6.4617    1.0577    4.6611 H   0  0  0  0  0  0  0  0  0  0  0  0
    2.9557    1.2292    4.3124 H   0  0  0  0  0  0  0  0  0  0  0  0
    1.8364    0.6865    2.1776 H   0  0  0  0  0  0  0  0  0  0  0  0
    0.1241    1.1128   -0.8153 H   0  0  0  0  0  0  0  0  0  0  0  0
   -0.0545    1.8070   -2.4166 H   0  0  0  0  0  0  0  0  0  0  0  0
    0.0522   -1.2389   -1.9718 H   0  0  0  0  0  0  0  0  0  0  0  0
   -0.4844   -0.3741   -3.4067 H   0  0  0  0  0  0  0  0  0  0  0  0
   -2.3630    0.6564   -1.9719 H   0  0  0  0  0  0  0  0  0  0  0  0
   -2.4725   -1.0411   -2.4193 H   0  0  0  0  0  0  0  0  0  0  0  0
   -1.6827   -1.7657   -0.2231 H   0  0  0  0  0  0  0  0  0  0  0  0
   -1.3640   -0.1137    0.2743 H   0  0  0  0  0  0  0  0  0  0  0  0
   -3.7438    0.4637    0.1451 H   0  0  0  0  0  0  0  0  0  0  0  0
   -2.7543   -0.4485    2.2730 H   0  0  0  0  0  0  0  0  0  0  0  0
   -3.2660   -2.0585    1.7918 H   0  0  0  0  0  0  0  0  0  0  0  0
   -4.9034    0.2490    2.7960 H   0  0  0  0  0  0  0  0  0  0  0  0
   -5.0540   -1.4724    3.1192 H   0  0  0  0  0  0  0  0  0  0  0  0
   -6.1982    0.1852    0.8691 H   0  0  0  0  0  0  0  0  0  0  0  0
   -6.9658   -1.0826    1.8185 H   0  0  0  0  0  0  0  0  0  0  0  0
   -5.5967   -2.7960    0.6256 H   0  0  0  0  0  0  0  0  0  0  0  0
   -6.5915   -1.8759   -0.4888 H   0  0  0  0  0  0  0  0  0  0  0  0
   -4.0285   -2.3396   -0.9869 H   0  0  0  0  0  0  0  0  0  0  0  0
   -4.7765   -0.8301   -1.4783 H   0  0  0  0  0  0  0  0  0  0  0  0
  1  2  1  0
  2  3  2  0
  3  4  1  0
  4  5  1  0
  5  6  1  0
  6  7  1  0
  7  8  2  0
  8  9  1  0
  9 10  2  0
 10 11  1  0
 10 12  1  0
 12 13  2  0
  5 14  1  0
 14 15  1  0
 15 16  1  0
 16 17  1  0
 17 18  1  0
 18 19  1  0
 19 20  1  0
 20 21  1  0
 21 22  1  0
 22 23  1  0
 23 24  1  0
 14  2  1  0
 24 19  1  0
 13  7  1  0
  1 25  1  0
  1 26  1  0
  4 27  1  0
  4 28  1  0
  5 29  1  0
  6 30  1  0
  6 31  1  0
  8 32  1  0
  9 33  1  0
 11 34  1  0
 12 35  1  0
 13 36  1  0
 15 37  1  0
 15 38  1  0
 16 39  1  0
 16 40  1  0
 17 41  1  0
 17 42  1  0
 18 43  1  0
 18 44  1  0
 19 45  1  0
 20 46  1  0
 20 47  1  0
 21 48  1  0
 21 49  1  0
 22 50  1  0
 22 51  1  0
 23 52  1  0
 23 53  1  0
 24 54  1  0
 24 55  1  0
M  END
$$$$
