
     RDKit          3D

 45 47  0  0  0  0  0  0  0  0999 V2000
    4.0539   -1.9313    3.9809 N   0  0  0  0  0  0  0  0  0  0  0  0
    4.3486   -1.2306    3.1036 C   0  0  0  0  0  0  0  0  0  0  0  0
    4.6962   -0.3672    2.0226 C   0  0  0  0  0  0  0  0  0  0  0  0
    6.0476    0.0877    1.9895 C   0  0  0  0  0  0  0  0  0  0  0  0
    7.1440    0.4667    1.9516 N   0  0  0  0  0  0  0  0  0  0  0  0
    3.7968    0.0141    1.0795 C   0  0  0  0  0  0  0  0  0  0  0  0
    2.3915   -0.4094    1.0976 C   0  0  0  0  0  0  0  0  0  0  0  0
    1.5179   -0.1538    0.1048 C   0  0  0  0  0  0  0  0  0  0  0  0
    0.1310   -0.5880    0.1988 C   0  0  0  0  0  0  0  0  0  0  0  0
   -0.7793   -0.4955   -0.7954 C   0  0  0  0  0  0  0  0  0  0  0  0
   -2.1306   -0.8835   -0.6665 N   0  0  0  0  0  0  0  0  0  0  0  0
   -3.1941   -0.4082   -1.5675 C   0  0  0  0  0  0  0  0  0  0  0  0
   -3.6154    1.0254   -1.2527 C   0  0  0  0  0  0  0  0  0  0  0  0
   -3.7227    1.4016    0.2274 C   0  0  0  0  0  0  0  0  0  0  0  0
   -4.2415    0.3028    1.1549 C   0  0  0  0  0  0  0  0  0  0  0  0
   -3.1506   -0.6791    1.5954 C   0  0  0  0  0  0  0  0  0  0  0  0
   -2.6605   -1.6189    0.4961 C   0  0  0  0  0  0  0  0  0  0  0  0
   -0.3276    0.0304   -2.1545 C   0  0  0  0  0  0  0  0  0  0  0  0
    1.1879    0.0038   -2.3647 C   0  0  0  0  0  0  0  0  0  0  0  0
    1.9140    0.5857   -1.1529 C   0  0  0  0  0  0  0  0  0  0  0  0
    3.4314    0.5526   -1.3673 C   0  0  0  0  0  0  0  0  0  0  0  0
    4.1627    0.9323   -0.0808 C   0  0  0  0  0  0  0  0  0  0  0  0
    2.0363   -0.9655    1.9647 H   0  0  0  0  0  0  0  0  0  0  0  0
   -0.1664   -0.9882    1.1627 H   0  0  0  0  0  0  0  0  0  0  0  0
   -4.0748   -1.0588   -1.4903 H   0  0  0  0  0  0  0  0  0  0  0  0
   -2.8942   -0.4848   -2.6180 H   0  0  0  0  0  0  0  0  0  0  0  0
   -2.9203    1.7268   -1.7298 H   0  0  0  0  0  0  0  0  0  0  0  0
   -4.5858    1.2025   -1.7344 H   0  0  0  0  0  0  0  0  0  0  0  0
   -4.3910    2.2690    0.3011 H   0  0  0  0  0  0  0  0  0  0  0  0
   -2.7455    1.7507    0.5844 H   0  0  0  0  0  0  0  0  0  0  0  0
   -4.6295    0.7858    2.0608 H   0  0  0  0  0  0  0  0  0  0  0  0
   -5.0854   -0.2283    0.7000 H   0  0  0  0  0  0  0  0  0  0  0  0
   -2.3078   -0.1189    2.0174 H   0  0  0  0  0  0  0  0  0  0  0  0
   -3.5502   -1.2934    2.4118 H   0  0  0  0  0  0  0  0  0  0  0  0
   -3.4852   -2.2718    0.1821 H   0  0  0  0  0  0  0  0  0  0  0  0
   -1.9060   -2.3049    0.8990 H   0  0  0  0  0  0  0  0  0  0  0  0
   -0.7678   -0.5719   -2.9573 H   0  0  0  0  0  0  0  0  0  0  0  0
   -0.6895    1.0585   -2.2742 H   0  0  0  0  0  0  0  0  0  0  0  0
    1.4393    0.5697   -3.2699 H   0  0  0  0  0  0  0  0  0  0  0  0
    1.5108   -1.0317   -2.5398 H   0  0  0  0  0  0  0  0  0  0  0  0
    1.6053    1.6346   -1.0337 H   0  0  0  0  0  0  0  0  0  0  0  0
    3.7085    1.2493   -2.1677 H   0  0  0  0  0  0  0  0  0  0  0  0
    3.7541   -0.4464   -1.6903 H   0  0  0  0  0  0  0  0  0  0  0  0
    3.9068    1.9640    0.1941 H   0  0  0  0  0  0  0  0  0  0  0  0
    5.2369    0.9160   -0.2935 H   0  0  0  0  0  0  0  0  0  0  0  0
  1  2  3  0
  2  3  1  0
  3  4  1  0
  4  5  3  0
  3  6  2  3
  6  7  1  0
  7  8  2  0
  8  9  1  0
  9 10  2  0
 10 11  1  0
 11 12  1  0
 12 13  1  0
 13 14  1  0
 14 15  1  0
 15 16  1  0
 16 17  1  0
 10 18  1  0
 18 19  1  0
 19 20  1  0
 20 21  1  0
 21 22  1  0
 22  6  1  0
 20  8  1  0
 17 11  1  0
  7 23  1  0
  9 24  1  0
 12 25  1  0
 12 26  1  0
 13 27  1  0
 13 28  1  0
 14 29  1  0
 14 30  1  0
 15 31  1  0
 15 32  1  0
 16 33  1  0
 16 34  1  0
 17 35  1  0
 17 36  1  0
 18 37  1  0
 18 38  1  0
 19 39  1  0
 19 40  1  0
 20 41  1  0
 21 42  1  0
 21 43  1  0
 22 44  1  0
 22 45  1  0
M  END
$$$$
