
     RDKit          3D

 45 47  0  0  0  0  0  0  0  0999 V2000
   -8.0235    0.5303    0.6716 N   0  0  0  0  0  0  0  0  0  0  0  0
   -7.0596    1.7805    0.1032 S   0  0  0  0  0  6  0  0  0  0  0  0
   -7.5623    2.1012   -1.2126 O   0  0  0  0  0  0  0  0  0  0  0  0
   -6.9979    2.7554    1.1667 O   0  0  0  0  0  0  0  0  0  0  0  0
   -5.4865    0.9884   -0.0527 C   0  0  0  0  0  0  0  0  0  0  0  0
   -5.0901    0.4663   -1.2846 C   0  0  0  0  0  0  0  0  0  0  0  0
   -3.8335   -0.1345   -1.4053 C   0  0  0  0  0  0  0  0  0  0  0  0
   -2.9756   -0.2280   -0.3006 C   0  0  0  0  0  0  0  0  0  0  0  0
   -1.7095   -0.8179   -0.5091 N   0  0  0  0  0  0  0  0  0  0  0  0
   -0.8428   -1.4279    0.3921 C   0  0  0  0  0  0  0  0  0  0  0  0
   -1.3507   -2.1833    1.8078 S   0  0  0  0  0  0  0  0  0  0  0  0
    0.4979   -1.4035   -0.0528 N   0  0  0  0  0  0  0  0  0  0  0  0
    1.6117   -2.0261    0.6945 C   0  0  0  0  0  0  0  0  0  0  0  0
    2.7132   -1.0076    1.0469 C   0  0  0  0  0  0  0  0  0  0  0  0
    3.2335   -0.3253   -0.1559 N   0  0  0  0  0  0  0  0  0  0  0  0
    4.5514    0.1149   -0.1726 C   0  0  0  0  0  0  0  0  0  0  0  0
    5.1939    0.5353    1.0052 C   0  0  0  0  0  0  0  0  0  0  0  0
    6.5180    0.9910    1.0092 C   0  0  0  0  0  0  0  0  0  0  0  0
    7.2395    1.0422   -0.1763 C   0  0  0  0  0  0  0  0  0  0  0  0
    6.6328    0.6417   -1.3602 C   0  0  0  0  0  0  0  0  0  0  0  0
    5.3069    0.1888   -1.3540 C   0  0  0  0  0  0  0  0  0  0  0  0
    2.4612   -0.4913   -1.3942 C   0  0  0  0  0  0  0  0  0  0  0  0
    0.9437   -0.4746   -1.1138 C   0  0  0  0  0  0  0  0  0  0  0  0
   -3.3710    0.3368    0.9156 C   0  0  0  0  0  0  0  0  0  0  0  0
   -4.6257    0.9414    1.0449 C   0  0  0  0  0  0  0  0  0  0  0  0
   -8.3699    0.7543    1.6048 H   0  0  0  0  0  0  0  0  0  0  0  0
   -8.7590    0.3222   -0.0038 H   0  0  0  0  0  0  0  0  0  0  0  0
   -5.7462    0.5224   -2.1502 H   0  0  0  0  0  0  0  0  0  0  0  0
   -3.5424   -0.5398   -2.3712 H   0  0  0  0  0  0  0  0  0  0  0  0
   -1.5016   -1.0420   -1.4719 H   0  0  0  0  0  0  0  0  0  0  0  0
    1.2831   -2.5250    1.6071 H   0  0  0  0  0  0  0  0  0  0  0  0
    2.0222   -2.8068    0.0417 H   0  0  0  0  0  0  0  0  0  0  0  0
    2.3082   -0.2537    1.7325 H   0  0  0  0  0  0  0  0  0  0  0  0
    3.5117   -1.5527    1.5649 H   0  0  0  0  0  0  0  0  0  0  0  0
    4.6583    0.5395    1.9508 H   0  0  0  0  0  0  0  0  0  0  0  0
    6.9762    1.3114    1.9410 H   0  0  0  0  0  0  0  0  0  0  0  0
    8.2666    1.3957   -0.1783 H   0  0  0  0  0  0  0  0  0  0  0  0
    7.1871    0.6771   -2.2942 H   0  0  0  0  0  0  0  0  0  0  0  0
    4.8866   -0.1274   -2.3038 H   0  0  0  0  0  0  0  0  0  0  0  0
    2.7393   -1.4383   -1.8730 H   0  0  0  0  0  0  0  0  0  0  0  0
    2.6694    0.3207   -2.1009 H   0  0  0  0  0  0  0  0  0  0  0  0
    0.6413    0.5338   -0.8043 H   0  0  0  0  0  0  0  0  0  0  0  0
    0.4145   -0.7150   -2.0415 H   0  0  0  0  0  0  0  0  0  0  0  0
   -2.7060    0.3516    1.7741 H   0  0  0  0  0  0  0  0  0  0  0  0
   -4.9143    1.3778    1.9987 H   0  0  0  0  0  0  0  0  0  0  0  0
  1  2  1  0
  2  3  2  0
  2  4  2  0
  2  5  1  0
  5  6  2  0
  6  7  1  0
  7  8  2  0
  8  9  1  0
  9 10  1  0
 10 11  2  0
 10 12  1  0
 12 13  1  0
 13 14  1  0
 14 15  1  0
 15 16  1  0
 16 17  2  0
 17 18  1  0
 18 19  2  0
 19 20  1  0
 20 21  2  0
 15 22  1  0
 22 23  1  0
  8 24  1  0
 24 25  2  0
 25  5  1  0
 23 12  1  0
 21 16  1  0
  1 26  1  0
  1 27  1  0
  6 28  1  0
  7 29  1  0
  9 30  1  0
 13 31  1  0
 13 32  1  0
 14 33  1  0
 14 34  1  0
 17 35  1  0
 18 36  1  0
 19 37  1  0
 20 38  1  0
 21 39  1  0
 22 40  1  0
 22 41  1  0
 23 42  1  0
 23 43  1  0
 24 44  1  0
 25 45  1  0
M  END
$$$$
