
     RDKit          3D

 57 61  0  0  0  0  0  0  0  0999 V2000
   -3.3712    3.9477   -0.6598 C   0  0  0  0  0  0  0  0  0  0  0  0
   -4.6847    3.3715   -0.3294 N   0  0  0  0  0  0  0  0  0  0  0  0
   -5.4229    2.8806   -1.5045 C   0  0  0  0  0  0  0  0  0  0  0  0
   -4.7946    2.4497    1.0963 S   0  0  0  0  0  6  0  0  0  0  0  0
   -4.0665    3.1368    2.1405 O   0  0  0  0  0  0  0  0  0  0  0  0
   -6.1773    2.0604    1.2767 O   0  0  0  0  0  0  0  0  0  0  0  0
   -3.8804    0.9773    0.6920 C   0  0  0  0  0  0  0  0  0  0  0  0
   -4.5412   -0.1358    0.1898 C   0  0  0  0  0  0  0  0  0  0  0  0
   -3.8165   -1.3019   -0.0951 C   0  0  0  0  0  0  0  0  0  0  0  0
   -2.4244   -1.4283    0.1307 C   0  0  0  0  0  0  0  0  0  0  0  0
   -1.7962   -2.6401   -0.1450 N   0  0  0  0  0  0  0  0  0  0  0  0
   -0.4238   -2.9680    0.2746 C   0  0  0  0  0  0  0  0  0  0  0  0
   -0.2658   -4.4396   -0.0916 C   0  0  0  0  0  0  0  0  0  0  0  0
   -1.6353   -5.0012    0.2168 C   0  0  0  0  0  0  0  0  0  0  0  0
   -2.5833   -3.8894   -0.2256 C   0  0  0  0  0  0  0  0  0  0  0  0
   -1.7935   -0.2501    0.6001 C   0  0  0  0  0  0  0  0  0  0  0  0
   -0.3301   -0.0910    0.7309 C   0  0  0  0  0  0  0  0  0  0  0  0
    0.1686   -0.1544    1.8449 O   0  0  0  0  0  0  0  0  0  0  0  0
    0.2773    0.1748   -0.4738 N   0  0  0  0  0  0  0  0  0  0  0  0
    1.6219    0.3850   -0.5877 C   0  0  0  0  0  0  0  0  0  0  0  0
    2.5381    0.3928    0.3397 N   0  0  0  0  0  0  0  0  0  0  0  0
    3.7828    0.6454   -0.2297 C   0  0  0  0  0  0  0  0  0  0  0  0
    3.7634    0.8348   -1.6147 C   0  0  0  0  0  0  0  0  0  0  0  0
    4.9280    1.1100   -2.3483 C   0  0  0  0  0  0  0  0  0  0  0  0
    6.1444    1.1905   -1.6610 C   0  0  0  0  0  0  0  0  0  0  0  0
    6.2150    1.0001   -0.2766 C   0  0  0  0  0  0  0  0  0  0  0  0
    7.4318    1.0766    0.4199 C   0  0  0  0  0  0  0  0  0  0  0  0
    7.4756    0.8878    1.8046 C   0  0  0  0  0  0  0  0  0  0  0  0
    6.3066    0.6202    2.5155 C   0  0  0  0  0  0  0  0  0  0  0  0
    5.0866    0.5396    1.8453 C   0  0  0  0  0  0  0  0  0  0  0  0
    5.0316    0.7279    0.4508 C   0  0  0  0  0  0  0  0  0  0  0  0
    2.1422    0.6731   -2.1829 S   0  0  0  0  0  0  0  0  0  0  0  0
   -2.5094    0.9243    0.9122 C   0  0  0  0  0  0  0  0  0  0  0  0
   -3.4998    4.7686   -1.3733 H   0  0  0  0  0  0  0  0  0  0  0  0
   -2.7164    3.1966   -1.1108 H   0  0  0  0  0  0  0  0  0  0  0  0
   -2.8864    4.3701    0.2244 H   0  0  0  0  0  0  0  0  0  0  0  0
   -6.4360    2.5690   -1.2356 H   0  0  0  0  0  0  0  0  0  0  0  0
   -5.5236    3.6863   -2.2392 H   0  0  0  0  0  0  0  0  0  0  0  0
   -4.8986    2.0457   -1.9770 H   0  0  0  0  0  0  0  0  0  0  0  0
   -5.6165   -0.1189    0.0223 H   0  0  0  0  0  0  0  0  0  0  0  0
   -4.3871   -2.1323   -0.5061 H   0  0  0  0  0  0  0  0  0  0  0  0
    0.3312   -2.3952   -0.2658 H   0  0  0  0  0  0  0  0  0  0  0  0
   -0.3053   -2.8367    1.3564 H   0  0  0  0  0  0  0  0  0  0  0  0
    0.5329   -4.9279    0.4730 H   0  0  0  0  0  0  0  0  0  0  0  0
   -0.0477   -4.5437   -1.1617 H   0  0  0  0  0  0  0  0  0  0  0  0
   -1.8357   -5.9481   -0.2932 H   0  0  0  0  0  0  0  0  0  0  0  0
   -1.7351   -5.1694    1.2963 H   0  0  0  0  0  0  0  0  0  0  0  0
   -2.9107   -4.0468   -1.2597 H   0  0  0  0  0  0  0  0  0  0  0  0
   -3.4569   -3.8970    0.4362 H   0  0  0  0  0  0  0  0  0  0  0  0
   -0.2614    0.1682   -1.3272 H   0  0  0  0  0  0  0  0  0  0  0  0
    4.8896    1.2622   -3.4221 H   0  0  0  0  0  0  0  0  0  0  0  0
    7.0479    1.4069   -2.2282 H   0  0  0  0  0  0  0  0  0  0  0  0
    8.3578    1.2877   -0.1095 H   0  0  0  0  0  0  0  0  0  0  0  0
    8.4251    0.9515    2.3307 H   0  0  0  0  0  0  0  0  0  0  0  0
    6.3422    0.4755    3.5922 H   0  0  0  0  0  0  0  0  0  0  0  0
    4.1756    0.3330    2.4061 H   0  0  0  0  0  0  0  0  0  0  0  0
   -1.9821    1.7876    1.3167 H   0  0  0  0  0  0  0  0  0  0  0  0
  1  2  1  0
  2  3  1  0
  2  4  1  0
  4  5  2  0
  4  6  2  0
  4  7  1  0
  7  8  2  0
  8  9  1  0
  9 10  2  0
 10 11  1  0
 11 12  1  0
 12 13  1  0
 13 14  1  0
 14 15  1  0
 10 16  1  0
 16 17  1  0
 17 18  2  0
 17 19  1  0
 19 20  1  0
 20 21  2  0
 21 22  1  0
 22 23  2  0
 23 24  1  0
 24 25  2  0
 25 26  1  0
 26 27  2  0
 27 28  1  0
 28 29  2  0
 29 30  1  0
 30 31  2  0
 23 32  1  0
 16 33  2  0
 33  7  1  0
 15 11  1  0
 32 20  1  0
 31 22  1  0
 31 26  1  0
  1 34  1  0
  1 35  1  0
  1 36  1  0
  3 37  1  0
  3 38  1  0
  3 39  1  0
  8 40  1  0
  9 41  1  0
 12 42  1  0
 12 43  1  0
 13 44  1  0
 13 45  1  0
 14 46  1  0
 14 47  1  0
 15 48  1  0
 15 49  1  0
 19 50  1  0
 24 51  1  0
 25 52  1  0
 27 53  1  0
 28 54  1  0
 29 55  1  0
 30 56  1  0
 33 57  1  0
M  END
$$$$
