
     RDKit          3D

 47 50  0  0  0  0  0  0  0  0999 V2000
   -1.1169    0.9521    0.7388 O   0  0  0  0  0  0  0  0  0  0  0  0
   -1.7961    0.1293    0.1566 C   0  0  0  0  0  0  0  0  0  0  0  0
   -3.1604    0.3749   -0.3039 C   0  0  0  0  0  0  0  0  0  0  0  0
   -3.9134    1.5325   -0.3063 C   0  0  0  0  0  0  0  0  0  0  0  0
   -5.2193    1.4419   -0.7987 C   0  0  0  0  0  0  0  0  0  0  0  0
   -5.7347    0.2128   -1.2631 C   0  0  0  0  0  0  0  0  0  0  0  0
   -4.9537   -0.9472   -1.2416 C   0  0  0  0  0  0  0  0  0  0  0  0
   -3.6662   -0.8291   -0.7568 C   0  0  0  0  0  0  0  0  0  0  0  0
   -2.6202   -1.8340   -0.5834 C   0  0  0  0  0  0  0  0  0  0  0  0
   -2.7773   -3.0237   -0.7786 O   0  0  0  0  0  0  0  0  0  0  0  0
   -1.5108   -1.1759   -0.1306 N   0  0  0  0  0  0  0  0  0  0  0  0
   -0.2917   -1.8452    0.2722 C   0  0  0  0  0  0  0  0  0  0  0  0
    0.9220   -1.3350   -0.3863 N   0  0  0  0  0  0  0  0  0  0  0  0
    1.6989   -0.3308    0.2411 C   0  0  0  0  0  0  0  0  0  0  0  0
    2.3905    0.4822   -0.3771 O   0  0  0  0  0  0  0  0  0  0  0  0
    1.6934   -0.3175    1.7857 C   0  0  0  0  0  0  0  0  0  0  0  0
    2.8140    0.3208    2.3875 O   0  0  0  0  0  0  0  0  0  0  0  0
    2.6751    1.6341    2.7408 C   0  0  0  0  0  0  0  0  0  0  0  0
    3.5572    2.0750    3.7309 C   0  0  0  0  0  0  0  0  0  0  0  0
    3.5183    3.3959    4.1808 C   0  0  0  0  0  0  0  0  0  0  0  0
    2.6013    4.2888    3.6311 C   0  0  0  0  0  0  0  0  0  0  0  0
    1.7324    3.8602    2.6287 C   0  0  0  0  0  0  0  0  0  0  0  0
    1.7722    2.5369    2.1796 C   0  0  0  0  0  0  0  0  0  0  0  0
    1.2276   -1.7896   -1.7322 C   0  0  0  0  0  0  0  0  0  0  0  0
    0.3395   -2.5992   -2.4659 C   0  0  0  0  0  0  0  0  0  0  0  0
    0.6461   -3.0538   -3.7562 C   0  0  0  0  0  0  0  0  0  0  0  0
    1.8585   -2.7198   -4.3332 C   0  0  0  0  0  0  0  0  0  0  0  0
    2.1527   -3.1569   -5.5637 F   0  0  0  0  0  0  0  0  0  0  0  0
    2.7721   -1.9486   -3.6380 C   0  0  0  0  0  0  0  0  0  0  0  0
    2.4597   -1.4966   -2.3486 C   0  0  0  0  0  0  0  0  0  0  0  0
   -3.5074    2.4701    0.0605 H   0  0  0  0  0  0  0  0  0  0  0  0
   -5.8501    2.3294   -0.8217 H   0  0  0  0  0  0  0  0  0  0  0  0
   -6.7560    0.1689   -1.6387 H   0  0  0  0  0  0  0  0  0  0  0  0
   -5.3411   -1.8998   -1.5885 H   0  0  0  0  0  0  0  0  0  0  0  0
   -0.3657   -2.9269    0.1105 H   0  0  0  0  0  0  0  0  0  0  0  0
   -0.2284   -1.7216    1.3550 H   0  0  0  0  0  0  0  0  0  0  0  0
    1.7631   -1.3611    2.1139 H   0  0  0  0  0  0  0  0  0  0  0  0
    0.7507    0.0781    2.1743 H   0  0  0  0  0  0  0  0  0  0  0  0
    4.2778    1.3817    4.1570 H   0  0  0  0  0  0  0  0  0  0  0  0
    4.2057    3.7260    4.9546 H   0  0  0  0  0  0  0  0  0  0  0  0
    2.5701    5.3190    3.9747 H   0  0  0  0  0  0  0  0  0  0  0  0
    1.0283    4.5582    2.1834 H   0  0  0  0  0  0  0  0  0  0  0  0
    1.1027    2.2500    1.3746 H   0  0  0  0  0  0  0  0  0  0  0  0
   -0.6213   -2.9129   -2.0771 H   0  0  0  0  0  0  0  0  0  0  0  0
   -0.0589   -3.6699   -4.3062 H   0  0  0  0  0  0  0  0  0  0  0  0
    3.7271   -1.7013   -4.0907 H   0  0  0  0  0  0  0  0  0  0  0  0
    3.2329   -0.9227   -1.8455 H   0  0  0  0  0  0  0  0  0  0  0  0
  1  2  2  0
  2  3  1  0
  3  4  2  0
  4  5  1  0
  5  6  2  0
  6  7  1  0
  7  8  2  0
  8  9  1  0
  9 10  2  0
  9 11  1  0
 11 12  1  0
 12 13  1  0
 13 14  1  0
 14 15  2  0
 14 16  1  0
 16 17  1  0
 17 18  1  0
 18 19  2  0
 19 20  1  0
 20 21  2  0
 21 22  1  0
 22 23  2  0
 13 24  1  0
 24 25  2  0
 25 26  1  0
 26 27  2  0
 27 28  1  0
 27 29  1  0
 29 30  2  0
 11  2  1  0
 23 18  1  0
 30 24  1  0
  8  3  1  0
  4 31  1  0
  5 32  1  0
  6 33  1  0
  7 34  1  0
 12 35  1  0
 12 36  1  0
 16 37  1  0
 16 38  1  0
 19 39  1  0
 20 40  1  0
 21 41  1  0
 22 42  1  0
 23 43  1  0
 25 44  1  0
 26 45  1  0
 29 46  1  0
 30 47  1  0
M  END
$$$$
