
     RDKit          3D

 58 61  0  0  0  0  0  0  0  0999 V2000
    7.8983    0.1924   -1.4608 C   0  0  0  0  0  0  0  0  0  0  0  0
    7.5430    0.0440   -0.0923 O   0  0  0  0  0  0  0  0  0  0  0  0
    6.2183    0.1648    0.2270 C   0  0  0  0  0  0  0  0  0  0  0  0
    5.9336    0.0062    1.5798 C   0  0  0  0  0  0  0  0  0  0  0  0
    4.6200    0.1003    2.0406 C   0  0  0  0  0  0  0  0  0  0  0  0
    3.5490    0.3519    1.1615 C   0  0  0  0  0  0  0  0  0  0  0  0
    2.1790    0.4233    1.7110 C   0  0  0  0  0  0  0  0  0  0  0  0
    1.0977   -0.2122    1.1283 C   0  0  0  0  0  0  0  0  0  0  0  0
   -0.1542   -0.0771    1.7261 C   0  0  0  0  0  0  0  0  0  0  0  0
   -1.2831   -0.7144    1.0162 C   0  0  0  0  0  0  0  0  0  0  0  0
   -1.2494   -1.9073    0.7461 O   0  0  0  0  0  0  0  0  0  0  0  0
   -2.2966    0.1400    0.6384 N   0  0  0  0  0  0  0  0  0  0  0  0
   -3.3959   -0.3211   -0.1909 C   0  0  0  0  0  0  0  0  0  0  0  0
   -3.0095   -0.3895   -1.6787 C   0  0  0  0  0  0  0  0  0  0  0  0
   -3.9975   -0.8648   -2.6503 N   0  0  0  0  0  0  0  0  0  0  0  0
   -5.2584   -0.1147   -2.7088 C   0  0  0  0  0  0  0  0  0  0  0  0
   -6.3835   -0.6525   -1.8085 C   0  0  0  0  0  0  0  0  0  0  0  0
   -6.5961   -2.0526   -2.0114 O   0  0  0  0  0  0  0  0  0  0  0  0
   -5.3952   -2.7843   -1.7394 C   0  0  0  0  0  0  0  0  0  0  0  0
   -4.2368   -2.3167   -2.6344 C   0  0  0  0  0  0  0  0  0  0  0  0
   -0.3178    0.6405    2.9298 C   0  0  0  0  0  0  0  0  0  0  0  0
   -1.5372    0.7736    3.6432 C   0  0  0  0  0  0  0  0  0  0  0  0
   -1.6025    1.5073    4.8260 C   0  0  0  0  0  0  0  0  0  0  0  0
   -0.4545    2.1107    5.3177 C   0  0  0  0  0  0  0  0  0  0  0  0
    0.7515    1.9669    4.6281 C   0  0  0  0  0  0  0  0  0  0  0  0
    0.8441    1.2388    3.4493 C   0  0  0  0  0  0  0  0  0  0  0  0
    2.0466    1.1364    2.8593 N   0  0  0  0  0  0  0  0  0  0  0  0
    3.8484    0.5310   -0.2100 C   0  0  0  0  0  0  0  0  0  0  0  0
    2.7847    0.8193   -1.0331 O   0  0  0  0  0  0  0  0  0  0  0  0
    3.0510    1.0933   -2.4024 C   0  0  0  0  0  0  0  0  0  0  0  0
    5.1760    0.4285   -0.6645 C   0  0  0  0  0  0  0  0  0  0  0  0
    7.6546    1.1958   -1.8249 H   0  0  0  0  0  0  0  0  0  0  0  0
    7.4251   -0.5788   -2.0775 H   0  0  0  0  0  0  0  0  0  0  0  0
    8.9819    0.0637   -1.5408 H   0  0  0  0  0  0  0  0  0  0  0  0
    6.7376   -0.1928    2.2842 H   0  0  0  0  0  0  0  0  0  0  0  0
    4.4267   -0.0279    3.1049 H   0  0  0  0  0  0  0  0  0  0  0  0
    1.2131   -0.7983    0.2215 H   0  0  0  0  0  0  0  0  0  0  0  0
   -2.1646    1.1375    0.7589 H   0  0  0  0  0  0  0  0  0  0  0  0
   -4.2140    0.3873   -0.0339 H   0  0  0  0  0  0  0  0  0  0  0  0
   -3.7038   -1.3027    0.1776 H   0  0  0  0  0  0  0  0  0  0  0  0
   -2.0971   -0.9903   -1.7887 H   0  0  0  0  0  0  0  0  0  0  0  0
   -2.7008    0.6183   -1.9892 H   0  0  0  0  0  0  0  0  0  0  0  0
   -5.6101   -0.1798   -3.7467 H   0  0  0  0  0  0  0  0  0  0  0  0
   -5.0943    0.9518   -2.5146 H   0  0  0  0  0  0  0  0  0  0  0  0
   -7.3204   -0.1404   -2.0514 H   0  0  0  0  0  0  0  0  0  0  0  0
   -6.1826   -0.4732   -0.7478 H   0  0  0  0  0  0  0  0  0  0  0  0
   -5.6052   -3.8409   -1.9363 H   0  0  0  0  0  0  0  0  0  0  0  0
   -5.1548   -2.6958   -0.6759 H   0  0  0  0  0  0  0  0  0  0  0  0
   -3.3230   -2.8699   -2.3882 H   0  0  0  0  0  0  0  0  0  0  0  0
   -4.4870   -2.5977   -3.6659 H   0  0  0  0  0  0  0  0  0  0  0  0
   -2.4448    0.2876    3.2904 H   0  0  0  0  0  0  0  0  0  0  0  0
   -2.5431    1.5985    5.3634 H   0  0  0  0  0  0  0  0  0  0  0  0
   -0.4866    2.6842    6.2404 H   0  0  0  0  0  0  0  0  0  0  0  0
    1.6505    2.4335    5.0261 H   0  0  0  0  0  0  0  0  0  0  0  0
    3.7103    1.9605   -2.5119 H   0  0  0  0  0  0  0  0  0  0  0  0
    3.4621    0.2131   -2.9070 H   0  0  0  0  0  0  0  0  0  0  0  0
    2.0993    1.3372   -2.8844 H   0  0  0  0  0  0  0  0  0  0  0  0
    5.3979    0.5578   -1.7152 H   0  0  0  0  0  0  0  0  0  0  0  0
  1  2  1  0
  2  3  1  0
  3  4  2  0
  4  5  1  0
  5  6  2  0
  6  7  1  0
  7  8  2  0
  8  9  1  0
  9 10  1  0
 10 11  2  0
 10 12  1  0
 12 13  1  0
 13 14  1  0
 14 15  1  0
 15 16  1  0
 16 17  1  0
 17 18  1  0
 18 19  1  0
 19 20  1  0
  9 21  2  0
 21 22  1  0
 22 23  2  0
 23 24  1  0
 24 25  2  0
 25 26  1  0
 26 27  2  0
  6 28  1  0
 28 29  1  0
 29 30  1  0
 28 31  2  0
 31  3  1  0
 27  7  1  0
 20 15  1  0
 26 21  1  0
  1 32  1  0
  1 33  1  0
  1 34  1  0
  4 35  1  0
  5 36  1  0
  8 37  1  0
 12 38  1  0
 13 39  1  0
 13 40  1  0
 14 41  1  0
 14 42  1  0
 16 43  1  0
 16 44  1  0
 17 45  1  0
 17 46  1  0
 19 47  1  0
 19 48  1  0
 20 49  1  0
 20 50  1  0
 22 51  1  0
 23 52  1  0
 24 53  1  0
 25 54  1  0
 30 55  1  0
 30 56  1  0
 30 57  1  0
 31 58  1  0
M  END
$$$$
