
     RDKit          3D

 67 72  0  0  0  0  0  0  0  0999 V2000
   -2.4536    0.3176    2.8964 O   0  0  0  0  0  0  0  0  0  0  0  0
   -2.2656    0.3708    1.6777 C   0  0  0  0  0  0  0  0  0  0  0  0
   -3.4331    0.5750    0.6932 C   0  0  0  0  0  0  0  0  0  0  0  0
   -4.6285    1.2302    1.4096 C   0  0  0  0  0  0  0  0  0  0  0  0
   -5.8796    1.2721    0.5585 C   0  0  0  0  0  0  0  0  0  0  0  0
   -6.6886    0.1347    0.4293 C   0  0  0  0  0  0  0  0  0  0  0  0
   -7.8296    0.1670   -0.3738 C   0  0  0  0  0  0  0  0  0  0  0  0
   -8.1711    1.3338   -1.0551 C   0  0  0  0  0  0  0  0  0  0  0  0
   -7.3734    2.4702   -0.9331 C   0  0  0  0  0  0  0  0  0  0  0  0
   -6.2328    2.4408   -0.1298 C   0  0  0  0  0  0  0  0  0  0  0  0
   -3.0189    1.3865   -0.4471 N   0  0  0  0  0  0  0  0  0  0  0  0
   -1.8671    0.8984   -1.0666 C   0  0  0  0  0  0  0  0  0  0  0  0
   -1.8554    1.0581   -2.3976 N   0  0  0  0  0  0  0  0  0  0  0  0
   -0.7281    0.7115   -3.0115 C   0  0  0  0  0  0  0  0  0  0  0  0
    0.3867    0.2871   -2.4129 N   0  0  0  0  0  0  0  0  0  0  0  0
    0.3698    0.1577   -1.0672 C   0  0  0  0  0  0  0  0  0  0  0  0
    1.6212   -0.0631   -0.4562 N   0  0  0  0  0  0  0  0  0  0  0  0
    2.2221    1.2382   -0.0316 C   0  0  0  0  0  0  0  0  0  0  0  0
    3.5205    1.5951   -0.7935 C   0  0  0  0  0  0  0  0  0  0  0  0
    4.5178    0.5160   -0.6718 N   0  0  0  0  0  0  0  0  0  0  0  0
    5.8675    0.7368   -0.9040 C   0  0  0  0  0  0  0  0  0  0  0  0
    6.3450    1.9118   -1.5064 C   0  0  0  0  0  0  0  0  0  0  0  0
    7.7110    2.1294   -1.7291 C   0  0  0  0  0  0  0  0  0  0  0  0
    8.6423    1.1725   -1.3449 C   0  0  0  0  0  0  0  0  0  0  0  0
    8.2051    0.0030   -0.7363 C   0  0  0  0  0  0  0  0  0  0  0  0
    6.8373   -0.2055   -0.5196 C   0  0  0  0  0  0  0  0  0  0  0  0
    3.9804   -0.8618   -0.6820 C   0  0  0  0  0  0  0  0  0  0  0  0
    2.5470   -0.9008   -1.2602 C   0  0  0  0  0  0  0  0  0  0  0  0
   -0.8027    0.3721   -0.3190 C   0  0  0  0  0  0  0  0  0  0  0  0
   -1.0092    0.1255    1.0926 N   0  0  0  0  0  0  0  0  0  0  0  0
   -0.0575   -0.5841    1.9385 C   0  0  0  0  0  0  0  0  0  0  0  0
   -0.3771   -2.0650    2.0493 C   0  0  0  0  0  0  0  0  0  0  0  0
   -0.1206   -2.9435    0.9878 C   0  0  0  0  0  0  0  0  0  0  0  0
   -0.4277   -4.3015    1.0951 C   0  0  0  0  0  0  0  0  0  0  0  0
   -0.9970   -4.7982    2.2652 C   0  0  0  0  0  0  0  0  0  0  0  0
   -1.2629   -3.9369    3.3269 C   0  0  0  0  0  0  0  0  0  0  0  0
   -0.9569   -2.5790    3.2194 C   0  0  0  0  0  0  0  0  0  0  0  0
   -3.7261   -0.4251    0.3431 H   0  0  0  0  0  0  0  0  0  0  0  0
   -4.8695    0.6877    2.3333 H   0  0  0  0  0  0  0  0  0  0  0  0
   -4.3658    2.2480    1.7283 H   0  0  0  0  0  0  0  0  0  0  0  0
   -6.4377   -0.7833    0.9563 H   0  0  0  0  0  0  0  0  0  0  0  0
   -8.4536   -0.7184   -0.4672 H   0  0  0  0  0  0  0  0  0  0  0  0
   -9.0603    1.3584   -1.6798 H   0  0  0  0  0  0  0  0  0  0  0  0
   -7.6396    3.3805   -1.4638 H   0  0  0  0  0  0  0  0  0  0  0  0
   -5.6178    3.3350   -0.0471 H   0  0  0  0  0  0  0  0  0  0  0  0
   -3.7260    1.5252   -1.1663 H   0  0  0  0  0  0  0  0  0  0  0  0
   -0.7039    0.8034   -4.0915 H   0  0  0  0  0  0  0  0  0  0  0  0
    2.4670    1.1507    1.0345 H   0  0  0  0  0  0  0  0  0  0  0  0
    1.5163    2.0751   -0.1196 H   0  0  0  0  0  0  0  0  0  0  0  0
    3.9065    2.5257   -0.3610 H   0  0  0  0  0  0  0  0  0  0  0  0
    3.2970    1.7757   -1.8523 H   0  0  0  0  0  0  0  0  0  0  0  0
    5.6574    2.6841   -1.8383 H   0  0  0  0  0  0  0  0  0  0  0  0
    8.0404    3.0494   -2.2046 H   0  0  0  0  0  0  0  0  0  0  0  0
    9.7022    1.3398   -1.5135 H   0  0  0  0  0  0  0  0  0  0  0  0
    8.9226   -0.7475   -0.4172 H   0  0  0  0  0  0  0  0  0  0  0  0
    6.5412   -1.1190   -0.0114 H   0  0  0  0  0  0  0  0  0  0  0  0
    3.9784   -1.2482    0.3443 H   0  0  0  0  0  0  0  0  0  0  0  0
    4.5996   -1.5253   -1.2979 H   0  0  0  0  0  0  0  0  0  0  0  0
    2.6021   -0.5695   -2.3056 H   0  0  0  0  0  0  0  0  0  0  0  0
    2.1898   -1.9368   -1.2588 H   0  0  0  0  0  0  0  0  0  0  0  0
    0.9805   -0.4586    1.6526 H   0  0  0  0  0  0  0  0  0  0  0  0
   -0.0985   -0.1390    2.9420 H   0  0  0  0  0  0  0  0  0  0  0  0
    0.3177   -2.5763    0.0652 H   0  0  0  0  0  0  0  0  0  0  0  0
   -0.2235   -4.9713    0.2639 H   0  0  0  0  0  0  0  0  0  0  0  0
   -1.2362   -5.8550    2.3488 H   0  0  0  0  0  0  0  0  0  0  0  0
   -1.7124   -4.3198    4.2394 H   0  0  0  0  0  0  0  0  0  0  0  0
   -1.1844   -1.9177    4.0540 H   0  0  0  0  0  0  0  0  0  0  0  0
  1  2  2  0
  2  3  1  0
  3  4  1  0
  4  5  1  0
  5  6  2  0
  6  7  1  0
  7  8  2  0
  8  9  1  0
  9 10  2  0
  3 11  1  0
 11 12  1  0
 12 13  2  0
 13 14  1  0
 14 15  2  0
 15 16  1  0
 16 17  1  0
 17 18  1  0
 18 19  1  0
 19 20  1  0
 20 21  1  0
 21 22  2  0
 22 23  1  0
 23 24  2  0
 24 25  1  0
 25 26  2  0
 20 27  1  0
 27 28  1  0
 16 29  2  0
 29 30  1  0
 30 31  1  0
 31 32  1  0
 32 33  2  0
 33 34  1  0
 34 35  2  0
 35 36  1  0
 36 37  2  0
 30  2  1  0
 37 32  1  0
 10  5  1  0
 29 12  1  0
 28 17  1  0
 26 21  1  0
  3 38  1  0
  4 39  1  0
  4 40  1  0
  6 41  1  0
  7 42  1  0
  8 43  1  0
  9 44  1  0
 10 45  1  0
 11 46  1  0
 14 47  1  0
 18 48  1  0
 18 49  1  0
 19 50  1  0
 19 51  1  0
 22 52  1  0
 23 53  1  0
 24 54  1  0
 25 55  1  0
 26 56  1  0
 27 57  1  0
 27 58  1  0
 28 59  1  0
 28 60  1  0
 31 61  1  0
 31 62  1  0
 33 63  1  0
 34 64  1  0
 35 65  1  0
 36 66  1  0
 37 67  1  0
M  END
$$$$
