
     RDKit          3D

 66 69  0  0  0  0  0  0  0  0999 V2000
   -2.1096    7.6990   -1.2885 C   0  0  0  0  0  0  0  0  0  0  0  0
   -1.7319    6.3951   -0.8442 O   0  0  0  0  0  0  0  0  0  0  0  0
   -1.4938    5.5182   -1.8512 C   0  0  0  0  0  0  0  0  0  0  0  0
   -1.5768    5.7599   -3.0452 O   0  0  0  0  0  0  0  0  0  0  0  0
   -1.1158    4.1844   -1.3096 C   0  0  0  0  0  0  0  0  0  0  0  0
   -0.9611    3.9426    0.0607 C   0  0  0  0  0  0  0  0  0  0  0  0
   -0.6051    2.6689    0.5157 C   0  0  0  0  0  0  0  0  0  0  0  0
   -0.3925    1.6168   -0.3889 C   0  0  0  0  0  0  0  0  0  0  0  0
   -0.0487    0.2346    0.1378 C   0  0  0  0  0  0  0  0  0  0  0  0
   -1.2960   -0.6743    0.1503 C   0  0  0  0  0  0  0  0  0  0  0  0
   -2.0383   -0.5890    1.4601 C   0  0  0  0  0  0  0  0  0  0  0  0
   -1.4783   -0.2297    2.4953 O   0  0  0  0  0  0  0  0  0  0  0  0
   -3.4959   -0.9158    1.5049 C   0  0  0  0  0  0  0  0  0  0  0  0
   -4.2468   -0.4101    2.5754 C   0  0  0  0  0  0  0  0  0  0  0  0
   -5.6142   -0.6655    2.6570 C   0  0  0  0  0  0  0  0  0  0  0  0
   -6.2331   -1.4373    1.6754 C   0  0  0  0  0  0  0  0  0  0  0  0
   -5.4936   -1.9671    0.6154 C   0  0  0  0  0  0  0  0  0  0  0  0
   -6.2208   -2.7185   -0.2666 O   0  0  0  0  0  0  0  0  0  0  0  0
   -5.4914   -3.4719   -1.2284 C   0  0  0  0  0  0  0  0  0  0  0  0
   -4.1250   -1.6986    0.5260 C   0  0  0  0  0  0  0  0  0  0  0  0
   -0.6793   -2.0076   -0.1102 C   0  0  0  0  0  0  0  0  0  0  0  0
   -1.2018   -3.0935    0.0624 O   0  0  0  0  0  0  0  0  0  0  0  0
    0.7068   -1.8156   -0.7070 C   0  0  0  0  0  0  0  0  0  0  0  0
    1.3848   -2.7185   -1.1456 O   0  0  0  0  0  0  0  0  0  0  0  0
    0.9696   -0.4618   -0.6425 N   0  0  0  0  0  0  0  0  0  0  0  0
    2.3069    0.0814   -0.8803 C   0  0  0  0  0  0  0  0  0  0  0  0
    3.1247    0.3577    0.3883 C   0  0  0  0  0  0  0  0  0  0  0  0
    3.5247   -0.8985    1.1716 C   0  0  0  0  0  0  0  0  0  0  0  0
    4.3558   -1.8148    0.3845 N   0  0  0  0  0  0  0  0  0  0  0  0
    4.3340   -3.1747    0.9668 C   0  0  0  0  0  0  0  0  0  0  0  0
    5.2235   -4.1417    0.1706 C   0  0  0  0  0  0  0  0  0  0  0  0
    6.5778   -3.6709    0.1170 O   0  0  0  0  0  0  0  0  0  0  0  0
    6.6163   -2.3770   -0.4989 C   0  0  0  0  0  0  0  0  0  0  0  0
    5.7599   -1.3646    0.2807 C   0  0  0  0  0  0  0  0  0  0  0  0
   -0.5580    1.8643   -1.7606 C   0  0  0  0  0  0  0  0  0  0  0  0
   -0.9108    3.1374   -2.2163 C   0  0  0  0  0  0  0  0  0  0  0  0
   -1.2753    8.1755   -1.8122 H   0  0  0  0  0  0  0  0  0  0  0  0
   -2.3571    8.2991   -0.4081 H   0  0  0  0  0  0  0  0  0  0  0  0
   -2.9936    7.6504   -1.9334 H   0  0  0  0  0  0  0  0  0  0  0  0
   -1.1158    4.7355    0.7888 H   0  0  0  0  0  0  0  0  0  0  0  0
   -0.5005    2.5046    1.5883 H   0  0  0  0  0  0  0  0  0  0  0  0
    0.3781    0.3334    1.1435 H   0  0  0  0  0  0  0  0  0  0  0  0
   -1.9588   -0.4325   -0.6881 H   0  0  0  0  0  0  0  0  0  0  0  0
   -3.7721    0.1895    3.3505 H   0  0  0  0  0  0  0  0  0  0  0  0
   -6.1964   -0.2684    3.4850 H   0  0  0  0  0  0  0  0  0  0  0  0
   -7.2998   -1.6406    1.7424 H   0  0  0  0  0  0  0  0  0  0  0  0
   -6.2053   -4.0958   -1.7753 H   0  0  0  0  0  0  0  0  0  0  0  0
   -4.7666   -4.1370   -0.7471 H   0  0  0  0  0  0  0  0  0  0  0  0
   -5.0034   -2.8112   -1.9519 H   0  0  0  0  0  0  0  0  0  0  0  0
   -3.5501   -2.1143   -0.2917 H   0  0  0  0  0  0  0  0  0  0  0  0
    2.8500   -0.6020   -1.5427 H   0  0  0  0  0  0  0  0  0  0  0  0
    2.1859    1.0190   -1.4324 H   0  0  0  0  0  0  0  0  0  0  0  0
    2.5612    1.0192    1.0567 H   0  0  0  0  0  0  0  0  0  0  0  0
    4.0231    0.9193    0.1067 H   0  0  0  0  0  0  0  0  0  0  0  0
    2.6011   -1.4027    1.4832 H   0  0  0  0  0  0  0  0  0  0  0  0
    4.0366   -0.6071    2.0979 H   0  0  0  0  0  0  0  0  0  0  0  0
    4.6859   -3.1381    2.0062 H   0  0  0  0  0  0  0  0  0  0  0  0
    3.3103   -3.5660    0.9687 H   0  0  0  0  0  0  0  0  0  0  0  0
    4.8472   -4.2820   -0.8500 H   0  0  0  0  0  0  0  0  0  0  0  0
    5.2349   -5.1215    0.6591 H   0  0  0  0  0  0  0  0  0  0  0  0
    6.2837   -2.4606   -1.5410 H   0  0  0  0  0  0  0  0  0  0  0  0
    7.6602   -2.0479   -0.5093 H   0  0  0  0  0  0  0  0  0  0  0  0
    5.8175   -0.4002   -0.2342 H   0  0  0  0  0  0  0  0  0  0  0  0
    6.1859   -1.2402    1.2847 H   0  0  0  0  0  0  0  0  0  0  0  0
   -0.4059    1.0709   -2.4910 H   0  0  0  0  0  0  0  0  0  0  0  0
   -1.0269    3.3086   -3.2855 H   0  0  0  0  0  0  0  0  0  0  0  0
  1  2  1  0
  2  3  1  0
  3  4  2  0
  3  5  1  0
  5  6  2  0
  6  7  1  0
  7  8  2  0
  8  9  1  0
  9 10  1  0
 10 11  1  0
 11 12  2  0
 11 13  1  0
 13 14  2  0
 14 15  1  0
 15 16  2  0
 16 17  1  0
 17 18  1  0
 18 19  1  0
 17 20  2  0
 10 21  1  0
 21 22  2  0
 21 23  1  0
 23 24  2  0
 23 25  1  0
 25 26  1  0
 26 27  1  0
 27 28  1  0
 28 29  1  0
 29 30  1  0
 30 31  1  0
 31 32  1  0
 32 33  1  0
 33 34  1  0
  8 35  1  0
 35 36  2  0
 36  5  1  0
 25  9  1  0
 34 29  1  0
 20 13  1  0
  1 37  1  0
  1 38  1  0
  1 39  1  0
  6 40  1  0
  7 41  1  0
  9 42  1  0
 10 43  1  0
 14 44  1  0
 15 45  1  0
 16 46  1  0
 19 47  1  0
 19 48  1  0
 19 49  1  0
 20 50  1  0
 26 51  1  0
 26 52  1  0
 27 53  1  0
 27 54  1  0
 28 55  1  0
 28 56  1  0
 30 57  1  0
 30 58  1  0
 31 59  1  0
 31 60  1  0
 33 61  1  0
 33 62  1  0
 34 63  1  0
 34 64  1  0
 35 65  1  0
 36 66  1  0
M  END
$$$$
