
     RDKit          3D

 44 46  0  0  0  0  0  0  0  0999 V2000
    7.7250    0.2579   -2.4638 C   0  0  0  0  0  0  0  0  0  0  0  0
    6.4496    0.1023   -1.6873 C   0  0  0  0  0  0  0  0  0  0  0  0
    5.9572   -1.1685   -1.3641 C   0  0  0  0  0  0  0  0  0  0  0  0
    4.7851   -1.3068   -0.6131 C   0  0  0  0  0  0  0  0  0  0  0  0
    4.0965   -0.1712   -0.1695 C   0  0  0  0  0  0  0  0  0  0  0  0
    2.8533   -0.2575    0.6427 C   0  0  0  0  0  0  0  0  0  0  0  0
    2.2335    0.7166    1.0486 O   0  0  0  0  0  0  0  0  0  0  0  0
    2.5058   -1.5496    0.8671 O   0  0  0  0  0  0  0  0  0  0  0  0
    1.3342   -1.7303    1.6639 C   0  0  0  0  0  0  0  0  0  0  0  0
    0.0358   -1.4811    0.8923 C   0  0  0  0  0  0  0  0  0  0  0  0
   -0.5926   -2.3859    0.3494 O   0  0  0  0  0  0  0  0  0  0  0  0
   -0.3657   -0.1645    0.8663 N   0  0  0  0  0  0  0  0  0  0  0  0
   -1.4847    0.2860    0.0575 C   0  0  0  0  0  0  0  0  0  0  0  0
   -2.8381    0.2648    0.7821 C   0  0  0  0  0  0  0  0  0  0  0  0
   -3.4660   -1.1281    0.8152 C   0  0  0  0  0  0  0  0  0  0  0  0
   -4.7160   -1.1147    1.5214 O   0  0  0  0  0  0  0  0  0  0  0  0
   -5.4998   -0.0569    1.1454 C   0  0  0  0  0  0  0  0  0  0  0  0
   -6.8440   -0.1103    1.5128 C   0  0  0  0  0  0  0  0  0  0  0  0
   -7.7061    0.9271    1.1516 C   0  0  0  0  0  0  0  0  0  0  0  0
   -7.2230    2.0172    0.4287 C   0  0  0  0  0  0  0  0  0  0  0  0
   -5.8735    2.0772    0.0729 C   0  0  0  0  0  0  0  0  0  0  0  0
   -5.0106    1.0461    0.4411 C   0  0  0  0  0  0  0  0  0  0  0  0
   -3.6992    1.1810    0.0737 O   0  0  0  0  0  0  0  0  0  0  0  0
    4.5899    1.1009   -0.4898 C   0  0  0  0  0  0  0  0  0  0  0  0
    5.7605    1.2360   -1.2399 C   0  0  0  0  0  0  0  0  0  0  0  0
    8.0111   -0.6795   -2.9537 H   0  0  0  0  0  0  0  0  0  0  0  0
    7.6069    1.0150   -3.2465 H   0  0  0  0  0  0  0  0  0  0  0  0
    8.5352    0.5582   -1.7924 H   0  0  0  0  0  0  0  0  0  0  0  0
    6.4841   -2.0622   -1.6946 H   0  0  0  0  0  0  0  0  0  0  0  0
    4.4274   -2.3071   -0.3807 H   0  0  0  0  0  0  0  0  0  0  0  0
    1.3237   -2.7684    2.0171 H   0  0  0  0  0  0  0  0  0  0  0  0
    1.3704   -1.1004    2.5644 H   0  0  0  0  0  0  0  0  0  0  0  0
    0.3598    0.5214    1.0731 H   0  0  0  0  0  0  0  0  0  0  0  0
   -1.2496    1.3169   -0.2372 H   0  0  0  0  0  0  0  0  0  0  0  0
   -1.5270   -0.2950   -0.8712 H   0  0  0  0  0  0  0  0  0  0  0  0
   -2.7192    0.6533    1.8039 H   0  0  0  0  0  0  0  0  0  0  0  0
   -3.6458   -1.5145   -0.1959 H   0  0  0  0  0  0  0  0  0  0  0  0
   -2.8240   -1.8359    1.3456 H   0  0  0  0  0  0  0  0  0  0  0  0
   -7.2196   -0.9626    2.0719 H   0  0  0  0  0  0  0  0  0  0  0  0
   -8.7554    0.8877    1.4405 H   0  0  0  0  0  0  0  0  0  0  0  0
   -7.8935    2.8250    0.1490 H   0  0  0  0  0  0  0  0  0  0  0  0
   -5.4940    2.9326   -0.4795 H   0  0  0  0  0  0  0  0  0  0  0  0
    4.0691    1.9956   -0.1518 H   0  0  0  0  0  0  0  0  0  0  0  0
    6.1332    2.2322   -1.4701 H   0  0  0  0  0  0  0  0  0  0  0  0
  1  2  1  0
  2  3  2  0
  3  4  1  0
  4  5  2  0
  5  6  1  0
  6  7  2  0
  6  8  1  0
  8  9  1  0
  9 10  1  0
 10 11  2  0
 10 12  1  0
 12 13  1  0
 13 14  1  0
 14 15  1  0
 15 16  1  0
 16 17  1  0
 17 18  2  0
 18 19  1  0
 19 20  2  0
 20 21  1  0
 21 22  2  0
 22 23  1  0
  5 24  1  0
 24 25  2  0
 25  2  1  0
 23 14  1  0
 22 17  1  0
  1 26  1  0
  1 27  1  0
  1 28  1  0
  3 29  1  0
  4 30  1  0
  9 31  1  0
  9 32  1  0
 12 33  1  0
 13 34  1  0
 13 35  1  0
 14 36  1  0
 15 37  1  0
 15 38  1  0
 18 39  1  0
 19 40  1  0
 20 41  1  0
 21 42  1  0
 24 43  1  0
 25 44  1  0
M  END
$$$$
