
     RDKit          3D

 59 63  0  0  0  0  0  0  0  0999 V2000
   -6.5402    0.1025   -1.5285 C   0  0  0  0  0  0  0  0  0  0  0  0
   -5.3030    0.4869   -0.7249 C   0  0  0  0  0  0  0  0  0  0  0  0
   -4.0289    0.3839   -1.5852 C   0  0  0  0  0  0  0  0  0  0  0  0
   -2.8091    0.7338   -0.8103 N   0  0  0  0  0  0  0  0  0  0  0  0
   -2.0382   -0.4076   -0.4991 C   0  0  0  0  0  0  0  0  0  0  0  0
   -2.6720   -1.5352   -0.1012 N   0  0  0  0  0  0  0  0  0  0  0  0
   -1.9220   -2.6089    0.2104 C   0  0  0  0  0  0  0  0  0  0  0  0
   -2.5462   -3.7813    0.6214 C   0  0  0  0  0  0  0  0  0  0  0  0
   -1.8083   -4.9145    0.9603 C   0  0  0  0  0  0  0  0  0  0  0  0
   -0.4214   -4.8767    0.8831 C   0  0  0  0  0  0  0  0  0  0  0  0
    0.2154   -3.7066    0.4672 C   0  0  0  0  0  0  0  0  0  0  0  0
   -0.5113   -2.5709    0.1319 C   0  0  0  0  0  0  0  0  0  0  0  0
    0.1336   -1.4558   -0.2593 N   0  0  0  0  0  0  0  0  0  0  0  0
   -0.6377   -0.3727   -0.5825 C   0  0  0  0  0  0  0  0  0  0  0  0
    0.0822    0.8737   -1.0432 C   0  0  0  0  0  0  0  0  0  0  0  0
    0.8786    0.6350   -2.2565 C   0  0  0  0  0  0  0  0  0  0  0  0
    1.4970    0.4671   -3.2288 N   0  0  0  0  0  0  0  0  0  0  0  0
    0.9325    1.4306    0.0895 C   0  0  0  0  0  0  0  0  0  0  0  0
    0.5628    2.4060    0.7437 O   0  0  0  0  0  0  0  0  0  0  0  0
    2.1097    0.7648    0.3687 N   0  0  0  0  0  0  0  0  0  0  0  0
    2.9310    1.1325    1.4993 C   0  0  0  0  0  0  0  0  0  0  0  0
    4.3510    0.6842    1.2841 C   0  0  0  0  0  0  0  0  0  0  0  0
    4.8253   -0.5151    1.8633 C   0  0  0  0  0  0  0  0  0  0  0  0
    6.1356   -0.9490    1.6391 C   0  0  0  0  0  0  0  0  0  0  0  0
    6.9415   -0.1761    0.8331 C   0  0  0  0  0  0  0  0  0  0  0  0
    6.4889    0.9867    0.2642 C   0  0  0  0  0  0  0  0  0  0  0  0
    5.2029    1.4409    0.4642 C   0  0  0  0  0  0  0  0  0  0  0  0
    7.4417    1.6003   -0.4915 O   0  0  0  0  0  0  0  0  0  0  0  0
    8.5398    0.6820   -0.3491 C   0  0  0  0  0  0  0  0  0  0  0  0
    8.2350   -0.4420    0.5068 O   0  0  0  0  0  0  0  0  0  0  0  0
   -3.1127    1.4782    0.4439 C   0  0  0  0  0  0  0  0  0  0  0  0
   -4.3030    2.4483    0.2653 C   0  0  0  0  0  0  0  0  0  0  0  0
   -3.9506    3.6417   -0.6183 C   0  0  0  0  0  0  0  0  0  0  0  0
   -5.4994    1.8336   -0.2513 O   0  0  0  0  0  0  0  0  0  0  0  0
   -6.4935   -0.9435   -1.8503 H   0  0  0  0  0  0  0  0  0  0  0  0
   -7.4507    0.2464   -0.9284 H   0  0  0  0  0  0  0  0  0  0  0  0
   -6.6444    0.7416   -2.4139 H   0  0  0  0  0  0  0  0  0  0  0  0
   -5.2408   -0.1743    0.1487 H   0  0  0  0  0  0  0  0  0  0  0  0
   -4.0935    1.1146   -2.4027 H   0  0  0  0  0  0  0  0  0  0  0  0
   -3.9506   -0.5997   -2.0678 H   0  0  0  0  0  0  0  0  0  0  0  0
   -3.6316   -3.8082    0.6791 H   0  0  0  0  0  0  0  0  0  0  0  0
   -2.3171   -5.8205    1.2823 H   0  0  0  0  0  0  0  0  0  0  0  0
    0.1670   -5.7513    1.1442 H   0  0  0  0  0  0  0  0  0  0  0  0
    1.3011   -3.6817    0.4010 H   0  0  0  0  0  0  0  0  0  0  0  0
   -0.6240    1.6732   -1.2997 H   0  0  0  0  0  0  0  0  0  0  0  0
    2.2034   -0.1847    0.0237 H   0  0  0  0  0  0  0  0  0  0  0  0
    2.5002    0.6582    2.3910 H   0  0  0  0  0  0  0  0  0  0  0  0
    2.8909    2.2152    1.6633 H   0  0  0  0  0  0  0  0  0  0  0  0
    4.1693   -1.1161    2.4913 H   0  0  0  0  0  0  0  0  0  0  0  0
    6.5055   -1.8616    2.0795 H   0  0  0  0  0  0  0  0  0  0  0  0
    4.8658    2.3576   -0.0086 H   0  0  0  0  0  0  0  0  0  0  0  0
    9.3984    1.2247    0.0718 H   0  0  0  0  0  0  0  0  0  0  0  0
    8.8148    0.3014   -1.3432 H   0  0  0  0  0  0  0  0  0  0  0  0
   -2.2254    2.0363    0.7648 H   0  0  0  0  0  0  0  0  0  0  0  0
   -3.3681    0.7802    1.2548 H   0  0  0  0  0  0  0  0  0  0  0  0
   -4.5684    2.8428    1.2522 H   0  0  0  0  0  0  0  0  0  0  0  0
   -3.1201    4.2126   -0.1928 H   0  0  0  0  0  0  0  0  0  0  0  0
   -3.6733    3.3314   -1.6285 H   0  0  0  0  0  0  0  0  0  0  0  0
   -4.8153    4.3054   -0.7219 H   0  0  0  0  0  0  0  0  0  0  0  0
  1  2  1  0
  2  3  1  0
  3  4  1  0
  4  5  1  0
  5  6  2  0
  6  7  1  0
  7  8  2  0
  8  9  1  0
  9 10  2  0
 10 11  1  0
 11 12  2  0
 12 13  1  0
 13 14  2  0
 14 15  1  0
 15 16  1  0
 16 17  3  0
 15 18  1  0
 18 19  2  0
 18 20  1  0
 20 21  1  0
 21 22  1  0
 22 23  2  0
 23 24  1  0
 24 25  2  0
 25 26  1  0
 26 27  2  0
 26 28  1  0
 28 29  1  0
 29 30  1  0
  4 31  1  0
 31 32  1  0
 32 33  1  0
 32 34  1  0
 34  2  1  0
 14  5  1  0
 27 22  1  0
 12  7  1  0
 30 25  1  0
  1 35  1  0
  1 36  1  0
  1 37  1  0
  2 38  1  0
  3 39  1  0
  3 40  1  0
  8 41  1  0
  9 42  1  0
 10 43  1  0
 11 44  1  0
 15 45  1  0
 20 46  1  0
 21 47  1  0
 21 48  1  0
 23 49  1  0
 24 50  1  0
 27 51  1  0
 29 52  1  0
 29 53  1  0
 31 54  1  0
 31 55  1  0
 32 56  1  0
 33 57  1  0
 33 58  1  0
 33 59  1  0
M  END
$$$$
