
     RDKit          3D

 40 42  0  0  0  0  0  0  0  0999 V2000
   -5.3825    1.7632    1.1765 C   0  0  0  0  0  0  0  0  0  0  0  0
   -4.3257    0.6782    0.9808 C   0  0  0  0  0  0  0  0  0  0  0  0
   -2.9143    1.2940    0.9081 C   0  0  0  0  0  0  0  0  0  0  0  0
   -1.8224    0.2155    0.8155 C   0  0  0  0  0  0  0  0  0  0  0  0
   -2.1654   -0.8625   -0.1771 C   0  0  0  0  0  0  0  0  0  0  0  0
   -1.2899   -1.8898   -0.6999 C   0  0  0  0  0  0  0  0  0  0  0  0
    0.1450   -2.0787   -0.4566 C   0  0  0  0  0  0  0  0  0  0  0  0
    0.5981   -3.1880   -0.2047 O   0  0  0  0  0  0  0  0  0  0  0  0
    0.8717   -0.9150   -0.6126 N   0  0  0  0  0  0  0  0  0  0  0  0
    2.2537   -0.7289   -0.4185 C   0  0  0  0  0  0  0  0  0  0  0  0
    2.7804    0.5303   -0.7291 C   0  0  0  0  0  0  0  0  0  0  0  0
    4.1443    0.8050   -0.5593 C   0  0  0  0  0  0  0  0  0  0  0  0
    5.0016   -0.1792   -0.0721 C   0  0  0  0  0  0  0  0  0  0  0  0
    6.3433   -0.0573    0.1440 O   0  0  0  0  0  0  0  0  0  0  0  0
    6.9501    1.1883   -0.1510 C   0  0  0  0  0  0  0  0  0  0  0  0
    6.8165    1.4990   -1.4584 F   0  0  0  0  0  0  0  0  0  0  0  0
    8.2698    1.1063    0.1282 F   0  0  0  0  0  0  0  0  0  0  0  0
    6.4231    2.1779    0.6022 F   0  0  0  0  0  0  0  0  0  0  0  0
    4.4753   -1.4343    0.2417 C   0  0  0  0  0  0  0  0  0  0  0  0
    3.1131   -1.7094    0.0723 C   0  0  0  0  0  0  0  0  0  0  0  0
   -1.9988   -2.7855   -1.4835 C   0  0  0  0  0  0  0  0  0  0  0  0
   -3.6431   -2.3678   -1.6589 S   0  0  0  0  0  0  0  0  0  0  0  0
   -3.4629   -1.0268   -0.6318 C   0  0  0  0  0  0  0  0  0  0  0  0
   -4.6268   -0.1463   -0.2882 C   0  0  0  0  0  0  0  0  0  0  0  0
   -5.3819    2.4750    0.3442 H   0  0  0  0  0  0  0  0  0  0  0  0
   -5.1977    2.3224    2.0997 H   0  0  0  0  0  0  0  0  0  0  0  0
   -6.3825    1.3224    1.2458 H   0  0  0  0  0  0  0  0  0  0  0  0
   -4.3617    0.0082    1.8511 H   0  0  0  0  0  0  0  0  0  0  0  0
   -2.7243    1.9196    1.7883 H   0  0  0  0  0  0  0  0  0  0  0  0
   -2.8490    1.9517    0.0309 H   0  0  0  0  0  0  0  0  0  0  0  0
   -1.6937   -0.2530    1.7993 H   0  0  0  0  0  0  0  0  0  0  0  0
   -0.8780    0.7048    0.5628 H   0  0  0  0  0  0  0  0  0  0  0  0
    0.3589   -0.1243   -0.9787 H   0  0  0  0  0  0  0  0  0  0  0  0
    2.1394    1.3209   -1.1122 H   0  0  0  0  0  0  0  0  0  0  0  0
    4.4924    1.8001   -0.8209 H   0  0  0  0  0  0  0  0  0  0  0  0
    5.1276   -2.2165    0.6251 H   0  0  0  0  0  0  0  0  0  0  0  0
    2.7608   -2.7012    0.3388 H   0  0  0  0  0  0  0  0  0  0  0  0
   -1.6123   -3.6676   -1.9778 H   0  0  0  0  0  0  0  0  0  0  0  0
   -5.5331   -0.7428   -0.1280 H   0  0  0  0  0  0  0  0  0  0  0  0
   -4.8193    0.5236   -1.1362 H   0  0  0  0  0  0  0  0  0  0  0  0
  1  2  1  0
  2  3  1  0
  3  4  1  0
  4  5  1  0
  5  6  1  0
  6  7  1  0
  7  8  2  0
  7  9  1  0
  9 10  1  0
 10 11  2  0
 11 12  1  0
 12 13  2  0
 13 14  1  0
 14 15  1  0
 15 16  1  0
 15 17  1  0
 15 18  1  0
 13 19  1  0
 19 20  2  0
  6 21  2  0
 21 22  1  0
 22 23  1  0
 23 24  1  0
 24  2  1  0
 23  5  2  0
 20 10  1  0
  1 25  1  0
  1 26  1  0
  1 27  1  0
  2 28  1  0
  3 29  1  0
  3 30  1  0
  4 31  1  0
  4 32  1  0
  9 33  1  0
 11 34  1  0
 12 35  1  0
 19 36  1  0
 20 37  1  0
 21 38  1  0
 24 39  1  0
 24 40  1  0
M  END
$$$$
