
     RDKit          3D

 37 37  0  0  0  0  0  0  0  0999 V2000
    5.3437   -1.2257    0.7570 C   0  0  0  0  0  0  0  0  0  0  0  0
    4.1924   -0.5929   -0.0100 C   0  0  0  0  0  0  0  0  0  0  0  0
    3.3070    0.2491    0.9096 C   0  0  0  0  0  0  0  0  0  0  0  0
    2.2009    1.0070    0.1678 C   0  0  0  0  0  0  0  0  0  0  0  0
    1.1361    0.0880   -0.4363 C   0  0  0  0  0  0  0  0  0  0  0  0
    0.0370    0.8420   -1.1934 C   0  0  0  0  0  0  0  0  0  0  0  0
   -0.7888    1.8347   -0.3672 C   0  0  0  0  0  0  0  0  0  0  0  0
   -1.5520    1.2299    0.8161 C   0  0  0  0  0  0  0  0  0  0  0  0
   -2.6038    0.2966    0.3759 N   0  0  0  0  0  0  0  0  0  0  0  0
   -3.7954    0.7625   -0.1681 C   0  0  0  0  0  0  0  0  0  0  0  0
   -4.7967   -0.0207   -0.5906 C   0  0  0  0  0  0  0  0  0  0  0  0
   -4.6293   -1.4929   -0.4683 C   0  0  0  0  0  0  0  0  0  0  0  0
   -5.5310   -2.3381   -0.8504 N   0  0  0  0  0  0  0  0  0  0  0  0
   -3.3612   -1.9824    0.1247 C   0  0  0  0  0  0  0  0  0  0  0  0
   -2.4488   -1.0786    0.5031 C   0  0  0  0  0  0  0  0  0  0  0  0
    5.9629   -1.8264    0.0834 H   0  0  0  0  0  0  0  0  0  0  0  0
    4.9723   -1.8804    1.5519 H   0  0  0  0  0  0  0  0  0  0  0  0
    5.9810   -0.4602    1.2113 H   0  0  0  0  0  0  0  0  0  0  0  0
    4.5974    0.0330   -0.8135 H   0  0  0  0  0  0  0  0  0  0  0  0
    3.6069   -1.3898   -0.4799 H   0  0  0  0  0  0  0  0  0  0  0  0
    2.8616   -0.3888    1.6828 H   0  0  0  0  0  0  0  0  0  0  0  0
    3.9328    0.9848    1.4303 H   0  0  0  0  0  0  0  0  0  0  0  0
    2.6445    1.6299   -0.6182 H   0  0  0  0  0  0  0  0  0  0  0  0
    1.7305    1.6877    0.8862 H   0  0  0  0  0  0  0  0  0  0  0  0
    1.6070   -0.6006   -1.1471 H   0  0  0  0  0  0  0  0  0  0  0  0
    0.6974   -0.5346    0.3502 H   0  0  0  0  0  0  0  0  0  0  0  0
    0.4993    1.3910   -2.0237 H   0  0  0  0  0  0  0  0  0  0  0  0
   -0.6345    0.1086   -1.6557 H   0  0  0  0  0  0  0  0  0  0  0  0
   -1.4974    2.3301   -1.0429 H   0  0  0  0  0  0  0  0  0  0  0  0
   -0.1337    2.6291    0.0084 H   0  0  0  0  0  0  0  0  0  0  0  0
   -2.0187    2.0433    1.3868 H   0  0  0  0  0  0  0  0  0  0  0  0
   -0.8600    0.7424    1.5128 H   0  0  0  0  0  0  0  0  0  0  0  0
   -3.8726    1.8439   -0.2346 H   0  0  0  0  0  0  0  0  0  0  0  0
   -5.7093    0.3760   -1.0100 H   0  0  0  0  0  0  0  0  0  0  0  0
   -6.3436   -1.8493   -1.2356 H   0  0  0  0  0  0  0  0  0  0  0  0
   -3.2240   -3.0493    0.2292 H   0  0  0  0  0  0  0  0  0  0  0  0
   -1.5098   -1.3987    0.9439 H   0  0  0  0  0  0  0  0  0  0  0  0
  1  2  1  0
  2  3  1  0
  3  4  1  0
  4  5  1  0
  5  6  1  0
  6  7  1  0
  7  8  1  0
  8  9  1  0
  9 10  1  0
 10 11  2  0
 11 12  1  0
 12 13  2  3
 12 14  1  0
 14 15  2  0
 15  9  1  0
  1 16  1  0
  1 17  1  0
  1 18  1  0
  2 19  1  0
  2 20  1  0
  3 21  1  0
  3 22  1  0
  4 23  1  0
  4 24  1  0
  5 25  1  0
  5 26  1  0
  6 27  1  0
  6 28  1  0
  7 29  1  0
  7 30  1  0
  8 31  1  0
  8 32  1  0
 10 33  1  0
 11 34  1  0
 13 35  1  0
 14 36  1  0
 15 37  1  0
M  END
$$$$
