
     RDKit          3D

 46 48  0  0  0  0  0  0  0  0999 V2000
   -6.1957    1.4976   -1.2595 C   0  0  0  0  0  0  0  0  0  0  0  0
   -5.8113    1.1549    0.0635 O   0  0  0  0  0  0  0  0  0  0  0  0
   -4.4828    0.8972    0.2969 C   0  0  0  0  0  0  0  0  0  0  0  0
   -3.4891    0.9135   -0.6879 C   0  0  0  0  0  0  0  0  0  0  0  0
   -2.1569    0.6263   -0.3606 C   0  0  0  0  0  0  0  0  0  0  0  0
   -1.8029    0.3403    0.9626 C   0  0  0  0  0  0  0  0  0  0  0  0
   -2.7994    0.3339    1.9520 C   0  0  0  0  0  0  0  0  0  0  0  0
   -4.1352    0.6015    1.6295 C   0  0  0  0  0  0  0  0  0  0  0  0
   -5.1662    0.6074    2.5367 O   0  0  0  0  0  0  0  0  0  0  0  0
   -4.8561    0.3212    3.8925 C   0  0  0  0  0  0  0  0  0  0  0  0
   -0.3614    0.1062    1.3535 C   0  0  0  0  0  0  0  0  0  0  0  0
    0.5683   -0.2283    0.2565 N   0  0  0  0  0  0  0  0  0  0  0  0
    1.9291   -0.4949    0.5310 C   0  0  0  0  0  0  0  0  0  0  0  0
    2.6668   -0.1684    2.0118 S   0  0  0  0  0  0  0  0  0  0  0  0
    2.5728   -1.1256   -0.5341 N   0  0  0  0  0  0  0  0  0  0  0  0
    3.9724   -1.2631   -0.7096 C   0  0  0  0  0  0  0  0  0  0  0  0
    4.4512   -2.5671   -0.9108 C   0  0  0  0  0  0  0  0  0  0  0  0
    5.8137   -2.8087   -1.0681 C   0  0  0  0  0  0  0  0  0  0  0  0
    6.7072   -1.7442   -1.0434 C   0  0  0  0  0  0  0  0  0  0  0  0
    6.2356   -0.4362   -0.8966 C   0  0  0  0  0  0  0  0  0  0  0  0
    7.4172    0.8300   -0.9082 Cl  0  0  0  0  0  0  0  0  0  0  0  0
    4.8583   -0.1660   -0.7629 C   0  0  0  0  0  0  0  0  0  0  0  0
    4.3783    1.2626   -0.7378 C   0  0  0  0  0  0  0  0  0  0  0  0
   -0.0158   -0.3955   -1.0842 C   0  0  0  0  0  0  0  0  0  0  0  0
   -1.0778    0.6537   -1.4044 C   0  0  0  0  0  0  0  0  0  0  0  0
   -7.2739    1.6843   -1.2570 H   0  0  0  0  0  0  0  0  0  0  0  0
   -6.0038    0.6721   -1.9527 H   0  0  0  0  0  0  0  0  0  0  0  0
   -5.7007    2.4167   -1.5902 H   0  0  0  0  0  0  0  0  0  0  0  0
   -3.7272    1.1450   -1.7208 H   0  0  0  0  0  0  0  0  0  0  0  0
   -2.5032    0.1222    2.9749 H   0  0  0  0  0  0  0  0  0  0  0  0
   -4.1744    1.0702    4.3085 H   0  0  0  0  0  0  0  0  0  0  0  0
   -5.7875    0.3662    4.4653 H   0  0  0  0  0  0  0  0  0  0  0  0
   -4.4490   -0.6895    4.0003 H   0  0  0  0  0  0  0  0  0  0  0  0
   -0.3207   -0.7224    2.0714 H   0  0  0  0  0  0  0  0  0  0  0  0
    0.0043    1.0159    1.8440 H   0  0  0  0  0  0  0  0  0  0  0  0
    2.0371   -1.9307   -0.8355 H   0  0  0  0  0  0  0  0  0  0  0  0
    3.7710   -3.4154   -0.9050 H   0  0  0  0  0  0  0  0  0  0  0  0
    6.1785   -3.8247   -1.1942 H   0  0  0  0  0  0  0  0  0  0  0  0
    7.7721   -1.9353   -1.1511 H   0  0  0  0  0  0  0  0  0  0  0  0
    4.8376    1.8343   -1.5519 H   0  0  0  0  0  0  0  0  0  0  0  0
    4.6303    1.7358    0.2159 H   0  0  0  0  0  0  0  0  0  0  0  0
    3.3006    1.3487   -0.8998 H   0  0  0  0  0  0  0  0  0  0  0  0
   -0.4439   -1.4053   -1.1190 H   0  0  0  0  0  0  0  0  0  0  0  0
    0.7608   -0.3385   -1.8533 H   0  0  0  0  0  0  0  0  0  0  0  0
   -1.4961    0.4467   -2.3961 H   0  0  0  0  0  0  0  0  0  0  0  0
   -0.6324    1.6555   -1.4254 H   0  0  0  0  0  0  0  0  0  0  0  0
  1  2  1  0
  2  3  1  0
  3  4  2  0
  4  5  1  0
  5  6  2  0
  6  7  1  0
  7  8  2  0
  8  9  1  0
  9 10  1  0
  6 11  1  0
 11 12  1  0
 12 13  1  0
 13 14  2  0
 13 15  1  0
 15 16  1  0
 16 17  2  0
 17 18  1  0
 18 19  2  0
 19 20  1  0
 20 21  1  0
 20 22  2  0
 22 23  1  0
 12 24  1  0
 24 25  1  0
  8  3  1  0
 22 16  1  0
 25  5  1  0
  1 26  1  0
  1 27  1  0
  1 28  1  0
  4 29  1  0
  7 30  1  0
 10 31  1  0
 10 32  1  0
 10 33  1  0
 11 34  1  0
 11 35  1  0
 15 36  1  0
 17 37  1  0
 18 38  1  0
 19 39  1  0
 23 40  1  0
 23 41  1  0
 23 42  1  0
 24 43  1  0
 24 44  1  0
 25 45  1  0
 25 46  1  0
M  END
$$$$
