
     RDKit          3D

 34 35  0  0  0  0  0  0  0  0999 V2000
   -3.5315   -0.4949    1.4669 C   0  0  0  0  0  0  0  0  0  0  0  0
   -2.5533   -0.3357    0.4454 O   0  0  0  0  0  0  0  0  0  0  0  0
   -2.9850   -0.3399   -0.8541 C   0  0  0  0  0  0  0  0  0  0  0  0
   -4.2397   -0.8263   -1.2464 C   0  0  0  0  0  0  0  0  0  0  0  0
   -4.6319   -0.7873   -2.5884 C   0  0  0  0  0  0  0  0  0  0  0  0
   -3.7743   -0.2621   -3.5494 C   0  0  0  0  0  0  0  0  0  0  0  0
   -4.2662   -0.2117   -5.1962 Cl  0  0  0  0  0  0  0  0  0  0  0  0
   -2.5213    0.2160   -3.1838 C   0  0  0  0  0  0  0  0  0  0  0  0
   -2.1135    0.1665   -1.8394 C   0  0  0  0  0  0  0  0  0  0  0  0
   -0.7587    0.7037   -1.5485 C   0  0  0  0  0  0  0  0  0  0  0  0
   -0.2597    1.5980   -2.2186 O   0  0  0  0  0  0  0  0  0  0  0  0
   -0.1912   -0.0015   -0.5302 O   0  0  0  0  0  0  0  0  0  0  0  0
    1.1204    0.4511   -0.2894 N   0  0  0  0  0  0  0  0  0  0  0  0
    1.6047   -0.0805    0.7942 C   0  0  0  0  0  0  0  0  0  0  0  0
    0.8897   -0.9546    1.5842 N   0  0  0  0  0  0  0  0  0  0  0  0
    3.0078    0.2749    1.1862 C   0  0  0  0  0  0  0  0  0  0  0  0
    3.4722    0.0265    2.4851 C   0  0  0  0  0  0  0  0  0  0  0  0
    4.7843    0.3587    2.8372 C   0  0  0  0  0  0  0  0  0  0  0  0
    5.6301    0.9419    1.8945 C   0  0  0  0  0  0  0  0  0  0  0  0
    7.2436    1.3479    2.3315 Cl  0  0  0  0  0  0  0  0  0  0  0  0
    5.1755    1.2015    0.6033 C   0  0  0  0  0  0  0  0  0  0  0  0
    3.8642    0.8709    0.2497 C   0  0  0  0  0  0  0  0  0  0  0  0
   -3.9035   -1.5240    1.4913 H   0  0  0  0  0  0  0  0  0  0  0  0
   -3.0460   -0.2943    2.4268 H   0  0  0  0  0  0  0  0  0  0  0  0
   -4.3520    0.2212    1.3515 H   0  0  0  0  0  0  0  0  0  0  0  0
   -4.9390   -1.2478   -0.5305 H   0  0  0  0  0  0  0  0  0  0  0  0
   -5.6102   -1.1666   -2.8746 H   0  0  0  0  0  0  0  0  0  0  0  0
   -1.8543    0.6272   -3.9400 H   0  0  0  0  0  0  0  0  0  0  0  0
    1.4139   -1.7551    1.9182 H   0  0  0  0  0  0  0  0  0  0  0  0
    0.0256   -1.2357    1.1277 H   0  0  0  0  0  0  0  0  0  0  0  0
    2.8178   -0.4016    3.2392 H   0  0  0  0  0  0  0  0  0  0  0  0
    5.1362    0.1684    3.8478 H   0  0  0  0  0  0  0  0  0  0  0  0
    5.8299    1.6629   -0.1317 H   0  0  0  0  0  0  0  0  0  0  0  0
    3.5152    1.0823   -0.7596 H   0  0  0  0  0  0  0  0  0  0  0  0
  1  2  1  0
  2  3  1  0
  3  4  2  0
  4  5  1  0
  5  6  2  0
  6  7  1  0
  6  8  1  0
  8  9  2  0
  9 10  1  0
 10 11  2  0
 10 12  1  0
 12 13  1  0
 13 14  2  3
 14 15  1  0
 14 16  1  0
 16 17  2  0
 17 18  1  0
 18 19  2  0
 19 20  1  0
 19 21  1  0
 21 22  2  0
  9  3  1  0
 22 16  1  0
  1 23  1  0
  1 24  1  0
  1 25  1  0
  4 26  1  0
  5 27  1  0
  8 28  1  0
 15 29  1  0
 15 30  1  0
 17 31  1  0
 18 32  1  0
 21 33  1  0
 22 34  1  0
M  END
$$$$
