
     RDKit          3D

 46 50  0  0  0  0  0  0  0  0999 V2000
    6.3517    2.4372    0.8094 C   0  0  0  0  0  0  0  0  0  0  0  0
    5.3297    2.7790   -0.1187 O   0  0  0  0  0  0  0  0  0  0  0  0
    4.1682    2.0610   -0.0500 C   0  0  0  0  0  0  0  0  0  0  0  0
    3.2040    2.4187   -0.9949 C   0  0  0  0  0  0  0  0  0  0  0  0
    1.9690    1.7654   -1.0383 C   0  0  0  0  0  0  0  0  0  0  0  0
    1.6819    0.7393   -0.1325 C   0  0  0  0  0  0  0  0  0  0  0  0
    0.3929    0.0594   -0.1645 C   0  0  0  0  0  0  0  0  0  0  0  0
   -0.7984    0.7495   -0.1121 N   0  0  0  0  0  0  0  0  0  0  0  0
   -1.8440   -0.1412   -0.0710 C   0  0  0  0  0  0  0  0  0  0  0  0
   -3.2620    0.2323    0.0039 C   0  0  0  0  0  0  0  0  0  0  0  0
   -4.2394   -0.7925   -0.0390 C   0  0  0  0  0  0  0  0  0  0  0  0
   -5.6080   -0.5062    0.0270 C   0  0  0  0  0  0  0  0  0  0  0  0
   -5.9763    0.8142    0.1366 C   0  0  0  0  0  0  0  0  0  0  0  0
   -5.0414    1.8201    0.1806 C   0  0  0  0  0  0  0  0  0  0  0  0
   -3.6847    1.5667    0.1175 C   0  0  0  0  0  0  0  0  0  0  0  0
   -5.6098    3.0516    0.2912 O   0  0  0  0  0  0  0  0  0  0  0  0
   -7.0105    2.7025    0.3121 C   0  0  0  0  0  0  0  0  0  0  0  0
   -7.2493    1.2836    0.2134 O   0  0  0  0  0  0  0  0  0  0  0  0
   -1.3714   -1.3725   -0.1077 N   0  0  0  0  0  0  0  0  0  0  0  0
    0.0016   -1.2700   -0.1829 C   0  0  0  0  0  0  0  0  0  0  0  0
    0.8529   -2.4475   -0.2466 C   0  0  0  0  0  0  0  0  0  0  0  0
    2.0093   -2.4863   -1.0368 C   0  0  0  0  0  0  0  0  0  0  0  0
    2.8036   -3.6357   -1.0768 C   0  0  0  0  0  0  0  0  0  0  0  0
    2.4439   -4.7601   -0.3360 C   0  0  0  0  0  0  0  0  0  0  0  0
    1.2869   -4.7400    0.4400 C   0  0  0  0  0  0  0  0  0  0  0  0
    0.4936   -3.5909    0.4804 C   0  0  0  0  0  0  0  0  0  0  0  0
    2.6494    0.3843    0.8144 C   0  0  0  0  0  0  0  0  0  0  0  0
    3.8861    1.0397    0.8560 C   0  0  0  0  0  0  0  0  0  0  0  0
    6.6836    1.4032    0.6687 H   0  0  0  0  0  0  0  0  0  0  0  0
    7.2085    3.0906    0.6185 H   0  0  0  0  0  0  0  0  0  0  0  0
    6.0234    2.6112    1.8395 H   0  0  0  0  0  0  0  0  0  0  0  0
    3.4198    3.2103   -1.7086 H   0  0  0  0  0  0  0  0  0  0  0  0
    1.2478    2.0550   -1.7985 H   0  0  0  0  0  0  0  0  0  0  0  0
   -0.8802    1.7533   -0.0690 H   0  0  0  0  0  0  0  0  0  0  0  0
   -3.9219   -1.8318   -0.1268 H   0  0  0  0  0  0  0  0  0  0  0  0
   -6.3487   -1.2968   -0.0072 H   0  0  0  0  0  0  0  0  0  0  0  0
   -2.9946    2.3995    0.1611 H   0  0  0  0  0  0  0  0  0  0  0  0
   -7.4484    3.0679    1.2482 H   0  0  0  0  0  0  0  0  0  0  0  0
   -7.5082    3.2014   -0.5274 H   0  0  0  0  0  0  0  0  0  0  0  0
    2.2983   -1.6293   -1.6398 H   0  0  0  0  0  0  0  0  0  0  0  0
    3.6987   -3.6533   -1.6930 H   0  0  0  0  0  0  0  0  0  0  0  0
    3.0598   -5.6548   -0.3710 H   0  0  0  0  0  0  0  0  0  0  0  0
    0.9963   -5.6181    1.0103 H   0  0  0  0  0  0  0  0  0  0  0  0
   -0.4131   -3.5871    1.0825 H   0  0  0  0  0  0  0  0  0  0  0  0
    2.4483   -0.4084    1.5329 H   0  0  0  0  0  0  0  0  0  0  0  0
    4.6017    0.7253    1.6083 H   0  0  0  0  0  0  0  0  0  0  0  0
  1  2  1  0
  2  3  1  0
  3  4  2  0
  4  5  1  0
  5  6  2  0
  6  7  1  0
  7  8  1  0
  8  9  1  0
  9 10  1  0
 10 11  2  0
 11 12  1  0
 12 13  2  0
 13 14  1  0
 14 15  2  0
 14 16  1  0
 16 17  1  0
 17 18  1  0
  9 19  2  0
 19 20  1  0
 20 21  1  0
 21 22  2  0
 22 23  1  0
 23 24  2  0
 24 25  1  0
 25 26  2  0
  6 27  1  0
 27 28  2  0
 28  3  1  0
 20  7  2  0
 26 21  1  0
 15 10  1  0
 18 13  1  0
  1 29  1  0
  1 30  1  0
  1 31  1  0
  4 32  1  0
  5 33  1  0
  8 34  1  0
 11 35  1  0
 12 36  1  0
 15 37  1  0
 17 38  1  0
 17 39  1  0
 22 40  1  0
 23 41  1  0
 24 42  1  0
 25 43  1  0
 26 44  1  0
 27 45  1  0
 28 46  1  0
M  END
$$$$
