
     RDKit          3D

 50 53  0  0  0  0  0  0  0  0999 V2000
   -4.3238   -0.3893    1.9804 C   0  0  0  0  0  0  0  0  0  0  0  0
   -4.1636    0.8653    1.1113 C   0  0  0  0  0  0  0  0  0  0  0  0
   -5.2817    0.9677    0.0605 C   0  0  0  0  0  0  0  0  0  0  0  0
   -4.8865    0.5078   -1.3528 C   0  0  0  0  0  0  0  0  0  0  0  0
   -4.5625    1.7016   -2.2610 C   0  0  0  0  0  0  0  0  0  0  0  0
   -3.7400   -0.5116   -1.3422 C   0  0  0  0  0  0  0  0  0  0  0  0
   -2.5989   -0.0284   -0.5821 N   0  0  0  0  0  0  0  0  0  0  0  0
   -1.3437   -0.5116   -0.8729 C   0  0  0  0  0  0  0  0  0  0  0  0
   -1.2180   -1.5017   -1.7745 N   0  0  0  0  0  0  0  0  0  0  0  0
    0.0229   -1.9584   -2.0481 C   0  0  0  0  0  0  0  0  0  0  0  0
    1.1528   -1.4634   -1.4492 C   0  0  0  0  0  0  0  0  0  0  0  0
    0.9535   -0.4577   -0.5314 C   0  0  0  0  0  0  0  0  0  0  0  0
   -0.2777    0.0237   -0.2460 N   0  0  0  0  0  0  0  0  0  0  0  0
    2.1140    0.1868    0.1763 C   0  0  0  0  0  0  0  0  0  0  0  0
    3.2840   -0.7987    0.3140 C   0  0  0  0  0  0  0  0  0  0  0  0
    4.4678   -0.1751    1.0330 C   0  0  0  0  0  0  0  0  0  0  0  0
    5.1553    0.9296    0.5048 C   0  0  0  0  0  0  0  0  0  0  0  0
    6.2407    1.4861    1.1869 C   0  0  0  0  0  0  0  0  0  0  0  0
    6.6479    0.9436    2.4025 C   0  0  0  0  0  0  0  0  0  0  0  0
    7.9838    1.6296    3.2414 Cl  0  0  0  0  0  0  0  0  0  0  0  0
    5.9789   -0.1510    2.9422 C   0  0  0  0  0  0  0  0  0  0  0  0
    4.8935   -0.7078    2.2605 C   0  0  0  0  0  0  0  0  0  0  0  0
    3.6774   -1.3514   -1.0616 C   0  0  0  0  0  0  0  0  0  0  0  0
    2.4937   -1.9772   -1.7661 C   0  0  0  0  0  0  0  0  0  0  0  0
    2.6285   -2.8521   -2.6157 O   0  0  0  0  0  0  0  0  0  0  0  0
   -2.7623    0.9379    0.4909 C   0  0  0  0  0  0  0  0  0  0  0  0
   -4.2667   -1.3108    1.3945 H   0  0  0  0  0  0  0  0  0  0  0  0
   -5.2908   -0.3795    2.4949 H   0  0  0  0  0  0  0  0  0  0  0  0
   -3.5439   -0.4300    2.7484 H   0  0  0  0  0  0  0  0  0  0  0  0
   -4.2695    1.7193    1.7940 H   0  0  0  0  0  0  0  0  0  0  0  0
   -5.6359    2.0061    0.0214 H   0  0  0  0  0  0  0  0  0  0  0  0
   -6.1500    0.3835    0.3923 H   0  0  0  0  0  0  0  0  0  0  0  0
   -5.7622    0.0185   -1.8005 H   0  0  0  0  0  0  0  0  0  0  0  0
   -4.3198    1.3624   -3.2738 H   0  0  0  0  0  0  0  0  0  0  0  0
   -5.4256    2.3718   -2.3373 H   0  0  0  0  0  0  0  0  0  0  0  0
   -3.7166    2.2875   -1.8912 H   0  0  0  0  0  0  0  0  0  0  0  0
   -3.4715   -0.7292   -2.3841 H   0  0  0  0  0  0  0  0  0  0  0  0
   -4.0918   -1.4544   -0.9061 H   0  0  0  0  0  0  0  0  0  0  0  0
    0.0695   -2.7550   -2.7857 H   0  0  0  0  0  0  0  0  0  0  0  0
    1.7944    0.5276    1.1692 H   0  0  0  0  0  0  0  0  0  0  0  0
    2.4067    1.0772   -0.3938 H   0  0  0  0  0  0  0  0  0  0  0  0
    2.9273   -1.6488    0.9154 H   0  0  0  0  0  0  0  0  0  0  0  0
    4.8572    1.3723   -0.4432 H   0  0  0  0  0  0  0  0  0  0  0  0
    6.7626    2.3408    0.7644 H   0  0  0  0  0  0  0  0  0  0  0  0
    6.2952   -0.5761    3.8911 H   0  0  0  0  0  0  0  0  0  0  0  0
    4.3845   -1.5634    2.7006 H   0  0  0  0  0  0  0  0  0  0  0  0
    4.4477   -2.1226   -0.9398 H   0  0  0  0  0  0  0  0  0  0  0  0
    4.0799   -0.5720   -1.7190 H   0  0  0  0  0  0  0  0  0  0  0  0
   -2.5872    1.9464    0.0974 H   0  0  0  0  0  0  0  0  0  0  0  0
   -2.0293    0.7843    1.2935 H   0  0  0  0  0  0  0  0  0  0  0  0
  1  2  1  0
  2  3  1  0
  3  4  1  0
  4  5  1  0
  4  6  1  0
  6  7  1  0
  7  8  1  0
  8  9  2  0
  9 10  1  0
 10 11  2  0
 11 12  1  0
 12 13  2  0
 12 14  1  0
 14 15  1  0
 15 16  1  0
 16 17  2  0
 17 18  1  0
 18 19  2  0
 19 20  1  0
 19 21  1  0
 21 22  2  0
 15 23  1  0
 23 24  1  0
 24 25  2  0
  7 26  1  0
 26  2  1  0
 13  8  1  0
 22 16  1  0
 24 11  1  0
  1 27  1  0
  1 28  1  0
  1 29  1  0
  2 30  1  0
  3 31  1  0
  3 32  1  0
  4 33  1  0
  5 34  1  0
  5 35  1  0
  5 36  1  0
  6 37  1  0
  6 38  1  0
 10 39  1  0
 14 40  1  0
 14 41  1  0
 15 42  1  0
 17 43  1  0
 18 44  1  0
 21 45  1  0
 22 46  1  0
 23 47  1  0
 23 48  1  0
 26 49  1  0
 26 50  1  0
M  END
$$$$
