
     RDKit          3D

 40 41  0  0  0  0  0  0  0  0999 V2000
    1.2291   -3.8763   -0.3817 C   0  0  0  0  0  0  0  0  0  0  0  0
    1.2914   -2.5337    0.1024 O   0  0  0  0  0  0  0  0  0  0  0  0
    1.3914   -1.6017   -0.8768 C   0  0  0  0  0  0  0  0  0  0  0  0
    1.4435   -1.8217   -2.0761 O   0  0  0  0  0  0  0  0  0  0  0  0
    1.4294   -0.2475   -0.2724 C   0  0  0  0  0  0  0  0  0  0  0  0
    2.2396    0.7040   -0.7716 C   0  0  0  0  0  0  0  0  0  0  0  0
    3.2319    0.5385   -1.8854 C   0  0  0  0  0  0  0  0  0  0  0  0
    2.1930    2.0373   -0.2908 O   0  0  0  0  0  0  0  0  0  0  0  0
    1.4254    2.3814    0.7697 C   0  0  0  0  0  0  0  0  0  0  0  0
    1.1984    3.6378    0.9703 N   0  0  0  0  0  0  0  0  0  0  0  0
    0.9351    1.2867    1.6719 C   0  0  0  0  0  0  0  0  0  0  0  0
    2.0017    0.9676    2.6340 C   0  0  0  0  0  0  0  0  0  0  0  0
    2.8214    0.6884    3.4063 N   0  0  0  0  0  0  0  0  0  0  0  0
    0.5167    0.0324    0.8912 C   0  0  0  0  0  0  0  0  0  0  0  0
   -0.9455    0.0762    0.4968 C   0  0  0  0  0  0  0  0  0  0  0  0
   -2.0084   -0.5598    1.2069 C   0  0  0  0  0  0  0  0  0  0  0  0
   -1.9327   -1.3903    2.4370 C   0  0  0  0  0  0  0  0  0  0  0  0
   -3.1916   -0.3344    0.6369 N   0  0  0  0  0  0  0  0  0  0  0  0
   -2.9109    0.4057   -0.4447 N   0  0  0  0  0  0  0  0  0  0  0  0
   -3.9933    0.7943   -1.3207 C   0  0  0  0  0  0  0  0  0  0  0  0
   -1.5759    0.7057   -0.5719 C   0  0  0  0  0  0  0  0  0  0  0  0
   -1.0436    1.5275   -1.6939 C   0  0  0  0  0  0  0  0  0  0  0  0
    2.1438   -4.1299   -0.9266 H   0  0  0  0  0  0  0  0  0  0  0  0
    0.3476   -4.0145   -1.0157 H   0  0  0  0  0  0  0  0  0  0  0  0
    1.1430   -4.5430    0.4806 H   0  0  0  0  0  0  0  0  0  0  0  0
    3.5840   -0.4913   -1.9908 H   0  0  0  0  0  0  0  0  0  0  0  0
    2.7936    0.8655   -2.8332 H   0  0  0  0  0  0  0  0  0  0  0  0
    4.1190    1.1514   -1.6911 H   0  0  0  0  0  0  0  0  0  0  0  0
    0.6301    3.7984    1.8073 H   0  0  0  0  0  0  0  0  0  0  0  0
    0.0780    1.6727    2.2398 H   0  0  0  0  0  0  0  0  0  0  0  0
    0.6155   -0.8093    1.5919 H   0  0  0  0  0  0  0  0  0  0  0  0
   -1.3797   -2.3136    2.2373 H   0  0  0  0  0  0  0  0  0  0  0  0
   -1.4205   -0.8441    3.2355 H   0  0  0  0  0  0  0  0  0  0  0  0
   -2.9282   -1.6637    2.8018 H   0  0  0  0  0  0  0  0  0  0  0  0
   -3.7635    0.4469   -2.3309 H   0  0  0  0  0  0  0  0  0  0  0  0
   -4.9247    0.3351   -0.9782 H   0  0  0  0  0  0  0  0  0  0  0  0
   -4.0849    1.8827   -1.2919 H   0  0  0  0  0  0  0  0  0  0  0  0
   -0.4218    0.9144   -2.3531 H   0  0  0  0  0  0  0  0  0  0  0  0
   -0.4424    2.3563   -1.3127 H   0  0  0  0  0  0  0  0  0  0  0  0
   -1.8346    1.9680   -2.3072 H   0  0  0  0  0  0  0  0  0  0  0  0
  1  2  1  0
  2  3  1  0
  3  4  2  0
  3  5  1  0
  5  6  2  0
  6  7  1  0
  6  8  1  0
  8  9  1  0
  9 10  2  3
  9 11  1  0
 11 12  1  0
 12 13  3  0
 11 14  1  0
 14 15  1  0
 15 16  1  0
 16 17  1  0
 16 18  2  0
 18 19  1  0
 19 20  1  0
 19 21  1  0
 21 22  1  0
 14  5  1  0
 21 15  2  0
  1 23  1  0
  1 24  1  0
  1 25  1  0
  7 26  1  0
  7 27  1  0
  7 28  1  0
 10 29  1  0
 11 30  1  0
 14 31  1  0
 17 32  1  0
 17 33  1  0
 17 34  1  0
 20 35  1  0
 20 36  1  0
 20 37  1  0
 22 38  1  0
 22 39  1  0
 22 40  1  0
M  END
$$$$
