
     RDKit          3D

 35 36  0  0  0  0  0  0  0  0999 V2000
   -5.9547    0.0203   -0.0347 C   0  0  0  0  0  0  0  0  0  0  0  0
   -4.4588   -0.0758    0.0113 C   0  0  0  0  0  0  0  0  0  0  0  0
   -3.8327   -1.3087    0.2091 C   0  0  0  0  0  0  0  0  0  0  0  0
   -2.4376   -1.4005    0.2231 C   0  0  0  0  0  0  0  0  0  0  0  0
   -1.6388   -0.2636    0.0126 C   0  0  0  0  0  0  0  0  0  0  0  0
   -0.2155   -0.4069    0.0397 N   0  0  0  0  0  0  0  0  0  0  0  0
    0.3106   -1.5285    0.5871 N   0  0  0  0  0  0  0  0  0  0  0  0
    1.6263   -1.3134    0.6740 C   0  0  0  0  0  0  0  0  0  0  0  0
    2.4517   -2.3633    1.3216 C   0  0  0  0  0  0  0  0  0  0  0  0
    1.9876   -0.0844    0.0683 C   0  0  0  0  0  0  0  0  0  0  0  0
    3.1954    0.5701   -0.1228 N   0  0  0  0  0  0  0  0  0  0  0  0
    4.4410    0.2191    0.3507 C   0  0  0  0  0  0  0  0  0  0  0  0
    4.7022   -0.7657    1.0365 O   0  0  0  0  0  0  0  0  0  0  0  0
    5.5721    1.1404   -0.0853 C   0  0  0  0  0  0  0  0  0  0  0  0
    4.9956    2.7277   -0.6497 Cl  0  0  0  0  0  0  0  0  0  0  0  0
    0.7943    0.4354   -0.4178 C   0  0  0  0  0  0  0  0  0  0  0  0
    0.5783    1.6149   -1.2996 C   0  0  0  0  0  0  0  0  0  0  0  0
   -2.2690    0.9709   -0.1754 C   0  0  0  0  0  0  0  0  0  0  0  0
   -3.6671    1.0596   -0.1871 C   0  0  0  0  0  0  0  0  0  0  0  0
   -6.2950    0.9923    0.3375 H   0  0  0  0  0  0  0  0  0  0  0  0
   -6.3063   -0.1081   -1.0630 H   0  0  0  0  0  0  0  0  0  0  0  0
   -6.4159   -0.7476    0.5953 H   0  0  0  0  0  0  0  0  0  0  0  0
   -4.4231   -2.2101    0.3584 H   0  0  0  0  0  0  0  0  0  0  0  0
   -1.9850   -2.3776    0.3863 H   0  0  0  0  0  0  0  0  0  0  0  0
    2.9081   -1.9849    2.2409 H   0  0  0  0  0  0  0  0  0  0  0  0
    3.2277   -2.7243    0.6403 H   0  0  0  0  0  0  0  0  0  0  0  0
    1.8439   -3.2320    1.6000 H   0  0  0  0  0  0  0  0  0  0  0  0
    3.1483    1.4583   -0.6107 H   0  0  0  0  0  0  0  0  0  0  0  0
    6.2383    1.3152    0.7637 H   0  0  0  0  0  0  0  0  0  0  0  0
    6.1244    0.6663   -0.9010 H   0  0  0  0  0  0  0  0  0  0  0  0
    0.3946    2.5146   -0.7049 H   0  0  0  0  0  0  0  0  0  0  0  0
   -0.2487    1.4566   -1.9980 H   0  0  0  0  0  0  0  0  0  0  0  0
    1.4595    1.8062   -1.9211 H   0  0  0  0  0  0  0  0  0  0  0  0
   -1.7166    1.8969   -0.2711 H   0  0  0  0  0  0  0  0  0  0  0  0
   -4.1350    2.0305   -0.3381 H   0  0  0  0  0  0  0  0  0  0  0  0
  1  2  1  0
  2  3  2  0
  3  4  1  0
  4  5  2  0
  5  6  1  0
  6  7  1  0
  7  8  2  0
  8  9  1  0
  8 10  1  0
 10 11  1  0
 11 12  1  0
 12 13  2  0
 12 14  1  0
 14 15  1  0
 10 16  2  0
 16 17  1  0
  5 18  1  0
 18 19  2  0
 19  2  1  0
 16  6  1  0
  1 20  1  0
  1 21  1  0
  1 22  1  0
  3 23  1  0
  4 24  1  0
  9 25  1  0
  9 26  1  0
  9 27  1  0
 11 28  1  0
 14 29  1  0
 14 30  1  0
 17 31  1  0
 17 32  1  0
 17 33  1  0
 18 34  1  0
 19 35  1  0
M  END
$$$$
