
     RDKit          3D

 95 98  0  0  0  0  0  0  0  0999 V2000
   -2.4995   -4.4234    5.6506 C   0  0  0  0  0  0  0  0  0  0  0  0
   -3.4844   -3.5710    5.9633 C   0  0  0  0  0  0  0  0  0  0  0  0
   -3.3711   -2.0797    5.8284 C   0  0  0  0  0  0  0  0  0  0  0  0
   -4.3290   -1.5037    4.7773 C   0  0  0  0  0  0  0  0  0  0  0  0
   -4.0965   -2.0256    3.3436 C   0  0  0  0  0  0  0  0  0  0  0  0
   -5.0531   -1.3902    2.3198 C   0  0  0  0  0  0  0  0  0  0  0  0
   -6.4902   -1.8300    2.4821 C   0  0  0  0  0  0  0  0  0  0  0  0
   -6.8791   -3.1278    2.1142 C   0  0  0  0  0  0  0  0  0  0  0  0
   -8.2015   -3.5421    2.2772 C   0  0  0  0  0  0  0  0  0  0  0  0
   -9.1356   -2.6579    2.8036 C   0  0  0  0  0  0  0  0  0  0  0  0
  -10.4058   -3.0549    2.9605 F   0  0  0  0  0  0  0  0  0  0  0  0
   -8.7724   -1.3676    3.1704 C   0  0  0  0  0  0  0  0  0  0  0  0
   -7.4488   -0.9529    3.0109 C   0  0  0  0  0  0  0  0  0  0  0  0
   -2.6757   -1.7792    2.8742 C   0  0  0  0  0  0  0  0  0  0  0  0
   -1.9541   -2.6480    2.4060 O   0  0  0  0  0  0  0  0  0  0  0  0
   -2.3332   -0.4687    3.0029 O   0  0  0  0  0  0  0  0  0  0  0  0
   -0.9913   -0.1282    2.6150 C   0  0  0  0  0  0  0  0  0  0  0  0
   -0.7937   -0.0309    1.0885 C   0  0  0  0  0  0  0  0  0  0  0  0
   -1.9474    0.7395    0.4081 C   0  0  0  0  0  0  0  0  0  0  0  0
   -1.8416    0.7255   -1.0901 C   0  0  0  0  0  0  0  0  0  0  0  0
   -2.2899   -0.2833   -1.9217 C   0  0  0  0  0  0  0  0  0  0  0  0
   -1.9678    0.0447   -3.2102 N   0  0  0  0  0  0  0  0  0  0  0  0
   -1.3226    1.2585   -3.2450 C   0  0  0  0  0  0  0  0  0  0  0  0
   -0.8064    1.9711   -4.3345 C   0  0  0  0  0  0  0  0  0  0  0  0
   -0.1905    3.1977   -4.0731 C   0  0  0  0  0  0  0  0  0  0  0  0
   -0.1006    3.6922   -2.7742 C   0  0  0  0  0  0  0  0  0  0  0  0
   -0.6237    2.9675   -1.6961 C   0  0  0  0  0  0  0  0  0  0  0  0
   -1.2421    1.7208   -1.9302 C   0  0  0  0  0  0  0  0  0  0  0  0
    0.4903    0.6097    0.7918 N   0  0  0  0  0  0  0  0  0  0  0  0
    1.6791   -0.0755    0.7303 C   0  0  0  0  0  0  0  0  0  0  0  0
    1.7853   -1.2783    0.9457 O   0  0  0  0  0  0  0  0  0  0  0  0
    2.8705    0.8057    0.3879 C   0  0  0  0  0  0  0  0  0  0  0  0
    3.7333    1.0178    1.6433 C   0  0  0  0  0  0  0  0  0  0  0  0
    3.0781    1.8262    2.7340 C   0  0  0  0  0  0  0  0  0  0  0  0
    2.6219    3.0770    2.5821 C   0  0  0  0  0  0  0  0  0  0  0  0
    3.6639    0.1273   -0.7400 C   0  0  0  0  0  0  0  0  0  0  0  0
    4.5206    1.1168   -1.5171 C   0  0  0  0  0  0  0  0  0  0  0  0
    4.5038    2.3170   -1.2381 O   0  0  0  0  0  0  0  0  0  0  0  0
    5.2968    0.6095   -2.5502 N   0  0  0  0  0  0  0  0  0  0  0  0
    5.4342   -0.8200   -2.8700 C   0  0  0  0  0  0  0  0  0  0  0  0
    6.5498   -1.4971   -2.0630 C   0  0  0  0  0  0  0  0  0  0  0  0
    7.8315   -1.1112   -2.5536 O   0  0  0  0  0  0  0  0  0  0  0  0
    6.0800    1.5454   -3.3582 C   0  0  0  0  0  0  0  0  0  0  0  0
    5.4027    1.8608   -4.6742 C   0  0  0  0  0  0  0  0  0  0  0  0
    4.2155    2.6083   -4.7054 C   0  0  0  0  0  0  0  0  0  0  0  0
    3.5877    2.8941   -5.9185 C   0  0  0  0  0  0  0  0  0  0  0  0
    4.1402    2.4393   -7.1134 C   0  0  0  0  0  0  0  0  0  0  0  0
    5.3198    1.6980   -7.0962 C   0  0  0  0  0  0  0  0  0  0  0  0
    5.9492    1.4094   -5.8837 C   0  0  0  0  0  0  0  0  0  0  0  0
   -1.5448   -4.0799    5.2610 H   0  0  0  0  0  0  0  0  0  0  0  0
   -2.6333   -5.4952    5.7647 H   0  0  0  0  0  0  0  0  0  0  0  0
   -4.4245   -3.9670    6.3442 H   0  0  0  0  0  0  0  0  0  0  0  0
   -2.3402   -1.7830    5.5999 H   0  0  0  0  0  0  0  0  0  0  0  0
   -3.6067   -1.6320    6.8030 H   0  0  0  0  0  0  0  0  0  0  0  0
   -5.3570   -1.7334    5.0841 H   0  0  0  0  0  0  0  0  0  0  0  0
   -4.2375   -0.4091    4.7949 H   0  0  0  0  0  0  0  0  0  0  0  0
   -4.2394   -3.1137    3.3384 H   0  0  0  0  0  0  0  0  0  0  0  0
   -4.7372   -1.6436    1.2980 H   0  0  0  0  0  0  0  0  0  0  0  0
   -4.9933   -0.2945    2.3745 H   0  0  0  0  0  0  0  0  0  0  0  0
   -6.1520   -3.8236    1.7017 H   0  0  0  0  0  0  0  0  0  0  0  0
   -8.5077   -4.5448    1.9971 H   0  0  0  0  0  0  0  0  0  0  0  0
   -9.5194   -0.6944    3.5800 H   0  0  0  0  0  0  0  0  0  0  0  0
   -7.1706    0.0562    3.3050 H   0  0  0  0  0  0  0  0  0  0  0  0
   -0.2758   -0.8269    3.0674 H   0  0  0  0  0  0  0  0  0  0  0  0
   -0.7858    0.8481    3.0716 H   0  0  0  0  0  0  0  0  0  0  0  0
   -0.7631   -1.0472    0.6764 H   0  0  0  0  0  0  0  0  0  0  0  0
   -1.9670    1.7766    0.7678 H   0  0  0  0  0  0  0  0  0  0  0  0
   -2.9131    0.2977    0.6807 H   0  0  0  0  0  0  0  0  0  0  0  0
   -2.7903   -1.2174   -1.7014 H   0  0  0  0  0  0  0  0  0  0  0  0
   -2.1610   -0.5255   -4.0213 H   0  0  0  0  0  0  0  0  0  0  0  0
   -0.8764    1.5880   -5.3475 H   0  0  0  0  0  0  0  0  0  0  0  0
    0.2221    3.7746   -4.8973 H   0  0  0  0  0  0  0  0  0  0  0  0
    0.3797    4.6513   -2.5945 H   0  0  0  0  0  0  0  0  0  0  0  0
   -0.5520    3.3712   -0.6915 H   0  0  0  0  0  0  0  0  0  0  0  0
    0.5095    1.6153    0.6825 H   0  0  0  0  0  0  0  0  0  0  0  0
    2.4976    1.7711    0.0252 H   0  0  0  0  0  0  0  0  0  0  0  0
    4.0045    0.0425    2.0696 H   0  0  0  0  0  0  0  0  0  0  0  0
    4.6816    1.5031    1.3813 H   0  0  0  0  0  0  0  0  0  0  0  0
    3.0092    1.3526    3.7136 H   0  0  0  0  0  0  0  0  0  0  0  0
    2.1862    3.6147    3.4186 H   0  0  0  0  0  0  0  0  0  0  0  0
    2.7010    3.6028    1.6327 H   0  0  0  0  0  0  0  0  0  0  0  0
    2.9573   -0.3172   -1.4547 H   0  0  0  0  0  0  0  0  0  0  0  0
    4.2933   -0.6714   -0.3309 H   0  0  0  0  0  0  0  0  0  0  0  0
    5.6259   -0.9186   -3.9443 H   0  0  0  0  0  0  0  0  0  0  0  0
    4.4888   -1.3257   -2.6615 H   0  0  0  0  0  0  0  0  0  0  0  0
    6.4726   -2.5841   -2.1650 H   0  0  0  0  0  0  0  0  0  0  0  0
    6.4921   -1.2358   -1.0014 H   0  0  0  0  0  0  0  0  0  0  0  0
    8.4894   -1.5097   -1.9555 H   0  0  0  0  0  0  0  0  0  0  0  0
    7.0769    1.1227   -3.5243 H   0  0  0  0  0  0  0  0  0  0  0  0
    6.2378    2.4860   -2.8182 H   0  0  0  0  0  0  0  0  0  0  0  0
    3.7746    2.9744   -3.7805 H   0  0  0  0  0  0  0  0  0  0  0  0
    2.6684    3.4729   -5.9281 H   0  0  0  0  0  0  0  0  0  0  0  0
    3.6522    2.6671   -8.0566 H   0  0  0  0  0  0  0  0  0  0  0  0
    5.7519    1.3434   -8.0277 H   0  0  0  0  0  0  0  0  0  0  0  0
    6.8691    0.8295   -5.8863 H   0  0  0  0  0  0  0  0  0  0  0  0
  1  2  2  0
  2  3  1  0
  3  4  1  0
  4  5  1  0
  5  6  1  0
  6  7  1  0
  7  8  2  0
  8  9  1  0
  9 10  2  0
 10 11  1  0
 10 12  1  0
 12 13  2  0
  5 14  1  0
 14 15  2  0
 14 16  1  0
 16 17  1  0
 17 18  1  0
 18 19  1  0
 19 20  1  0
 20 21  2  0
 21 22  1  0
 22 23  1  0
 23 24  2  0
 24 25  1  0
 25 26  2  0
 26 27  1  0
 27 28  2  0
 18 29  1  0
 29 30  1  0
 30 31  2  0
 30 32  1  0
 32 33  1  0
 33 34  1  0
 34 35  2  0
 32 36  1  0
 36 37  1  0
 37 38  2  0
 37 39  1  0
 39 40  1  0
 40 41  1  0
 41 42  1  0
 39 43  1  0
 43 44  1  0
 44 45  2  0
 45 46  1  0
 46 47  2  0
 47 48  1  0
 48 49  2  0
 13  7  1  0
 28 20  1  0
 49 44  1  0
 28 23  1  0
  1 50  1  0
  1 51  1  0
  2 52  1  0
  3 53  1  0
  3 54  1  0
  4 55  1  0
  4 56  1  0
  5 57  1  0
  6 58  1  0
  6 59  1  0
  8 60  1  0
  9 61  1  0
 12 62  1  0
 13 63  1  0
 17 64  1  0
 17 65  1  0
 18 66  1  0
 19 67  1  0
 19 68  1  0
 21 69  1  0
 22 70  1  0
 24 71  1  0
 25 72  1  0
 26 73  1  0
 27 74  1  0
 29 75  1  0
 32 76  1  0
 33 77  1  0
 33 78  1  0
 34 79  1  0
 35 80  1  0
 35 81  1  0
 36 82  1  0
 36 83  1  0
 40 84  1  0
 40 85  1  0
 41 86  1  0
 41 87  1  0
 42 88  1  0
 43 89  1  0
 43 90  1  0
 45 91  1  0
 46 92  1  0
 47 93  1  0
 48 94  1  0
 49 95  1  0
M  END
$$$$
