
     RDKit          3D

 36 38  0  0  0  0  0  0  0  0999 V2000
   -2.3689    4.5820    1.3598 N   0  0  0  0  0  0  0  0  0  0  0  0
   -1.8019    3.6677    0.9200 C   0  0  0  0  0  0  0  0  0  0  0  0
   -1.1362    2.5320    0.3728 C   0  0  0  0  0  0  0  0  0  0  0  0
    0.0687    2.6808   -0.2831 N   0  0  0  0  0  0  0  0  0  0  0  0
    0.3872    1.4461   -0.6139 C   0  0  0  0  0  0  0  0  0  0  0  0
    1.5871    0.9521   -1.3442 C   0  0  0  0  0  0  0  0  0  0  0  0
    2.3080    0.1075   -0.4484 O   0  0  0  0  0  0  0  0  0  0  0  0
    3.4178   -0.5363   -0.9273 C   0  0  0  0  0  0  0  0  0  0  0  0
    3.9908   -0.3041   -2.1825 C   0  0  0  0  0  0  0  0  0  0  0  0
    5.1323   -1.0104   -2.5783 C   0  0  0  0  0  0  0  0  0  0  0  0
    5.7065   -1.9479   -1.7226 C   0  0  0  0  0  0  0  0  0  0  0  0
    7.1087   -2.8104   -2.2202 Cl  0  0  0  0  0  0  0  0  0  0  0  0
    5.1535   -2.1892   -0.4701 C   0  0  0  0  0  0  0  0  0  0  0  0
    4.0143   -1.4838   -0.0755 C   0  0  0  0  0  0  0  0  0  0  0  0
    3.3584   -1.8212    1.4896 Cl  0  0  0  0  0  0  0  0  0  0  0  0
   -0.5400    0.5087   -0.2543 O   0  0  0  0  0  0  0  0  0  0  0  0
   -1.5331    1.2043    0.3931 C   0  0  0  0  0  0  0  0  0  0  0  0
   -2.5818    0.4726    0.8786 N   0  0  0  0  0  0  0  0  0  0  0  0
   -3.8806    1.1373    1.1116 C   0  0  0  0  0  0  0  0  0  0  0  0
   -4.8176    0.2455    1.9412 C   0  0  0  0  0  0  0  0  0  0  0  0
   -4.9808   -1.0484    1.3458 O   0  0  0  0  0  0  0  0  0  0  0  0
   -3.7097   -1.7082    1.2714 C   0  0  0  0  0  0  0  0  0  0  0  0
   -2.7220   -0.9225    0.3987 C   0  0  0  0  0  0  0  0  0  0  0  0
    1.2640    0.3933   -2.2302 H   0  0  0  0  0  0  0  0  0  0  0  0
    2.2048    1.8077   -1.6394 H   0  0  0  0  0  0  0  0  0  0  0  0
    3.5844    0.4229   -2.8784 H   0  0  0  0  0  0  0  0  0  0  0  0
    5.5702   -0.8211   -3.5559 H   0  0  0  0  0  0  0  0  0  0  0  0
    5.6037   -2.9198    0.1962 H   0  0  0  0  0  0  0  0  0  0  0  0
   -4.3451    1.3540    0.1417 H   0  0  0  0  0  0  0  0  0  0  0  0
   -3.7576    2.0760    1.6575 H   0  0  0  0  0  0  0  0  0  0  0  0
   -5.8072    0.7089    2.0068 H   0  0  0  0  0  0  0  0  0  0  0  0
   -4.4397    0.1241    2.9637 H   0  0  0  0  0  0  0  0  0  0  0  0
   -3.3163   -1.8459    2.2858 H   0  0  0  0  0  0  0  0  0  0  0  0
   -3.8754   -2.7012    0.8416 H   0  0  0  0  0  0  0  0  0  0  0  0
   -1.7615   -1.4505    0.4195 H   0  0  0  0  0  0  0  0  0  0  0  0
   -3.0853   -0.9024   -0.6364 H   0  0  0  0  0  0  0  0  0  0  0  0
  1  2  3  0
  2  3  1  0
  3  4  1  0
  4  5  2  0
  5  6  1  0
  6  7  1  0
  7  8  1  0
  8  9  2  0
  9 10  1  0
 10 11  2  0
 11 12  1  0
 11 13  1  0
 13 14  2  0
 14 15  1  0
  5 16  1  0
 16 17  1  0
 17 18  1  0
 18 19  1  0
 19 20  1  0
 20 21  1  0
 21 22  1  0
 22 23  1  0
 17  3  2  0
 23 18  1  0
 14  8  1  0
  6 24  1  0
  6 25  1  0
  9 26  1  0
 10 27  1  0
 13 28  1  0
 19 29  1  0
 19 30  1  0
 20 31  1  0
 20 32  1  0
 22 33  1  0
 22 34  1  0
 23 35  1  0
 23 36  1  0
M  END
$$$$
