
     RDKit          3D

 44 47  0  0  0  0  0  0  0  0999 V2000
   -7.5868    0.6383   -1.1828 C   0  0  0  0  0  0  0  0  0  0  0  0
   -6.9544   -0.7030   -1.5212 C   0  0  0  0  0  0  0  0  0  0  0  0
   -5.6072   -0.8685   -0.8670 C   0  0  0  0  0  0  0  0  0  0  0  0
   -5.4979   -1.4257    0.4104 C   0  0  0  0  0  0  0  0  0  0  0  0
   -4.2461   -1.5604    1.0194 C   0  0  0  0  0  0  0  0  0  0  0  0
   -3.0811   -1.1374    0.3671 C   0  0  0  0  0  0  0  0  0  0  0  0
   -1.8609   -1.3126    1.0534 N   0  0  0  0  0  0  0  0  0  0  0  0
   -0.5851   -0.9611    0.6214 C   0  0  0  0  0  0  0  0  0  0  0  0
   -0.3094   -0.4350   -0.4530 O   0  0  0  0  0  0  0  0  0  0  0  0
    0.4821   -1.3439    1.6560 C   0  0  0  0  0  0  0  0  0  0  0  0
    1.7912   -0.8302    1.2890 N   0  0  0  0  0  0  0  0  0  0  0  0
    2.6372   -1.7007    0.6010 N   0  0  0  0  0  0  0  0  0  0  0  0
    3.7787   -1.2440    0.1774 C   0  0  0  0  0  0  0  0  0  0  0  0
    4.1693    0.0679    0.4093 N   0  0  0  0  0  0  0  0  0  0  0  0
    3.3708    0.9397    1.0960 C   0  0  0  0  0  0  0  0  0  0  0  0
    4.0237    2.1499    1.1764 C   0  0  0  0  0  0  0  0  0  0  0  0
    5.2720    2.0066    0.5118 C   0  0  0  0  0  0  0  0  0  0  0  0
    6.3492    2.8810    0.2705 C   0  0  0  0  0  0  0  0  0  0  0  0
    7.4652    2.4201   -0.4353 C   0  0  0  0  0  0  0  0  0  0  0  0
    7.5185    1.1090   -0.8996 C   0  0  0  0  0  0  0  0  0  0  0  0
    6.4625    0.2207   -0.6740 C   0  0  0  0  0  0  0  0  0  0  0  0
    5.3454    0.6920    0.0361 C   0  0  0  0  0  0  0  0  0  0  0  0
    2.0892    0.5108    1.5828 C   0  0  0  0  0  0  0  0  0  0  0  0
    1.3305    1.2424    2.2142 O   0  0  0  0  0  0  0  0  0  0  0  0
   -3.1918   -0.5757   -0.9043 C   0  0  0  0  0  0  0  0  0  0  0  0
   -4.4442   -0.4400   -1.5154 C   0  0  0  0  0  0  0  0  0  0  0  0
   -8.5624    0.7305   -1.6705 H   0  0  0  0  0  0  0  0  0  0  0  0
   -7.7356    0.7464   -0.1031 H   0  0  0  0  0  0  0  0  0  0  0  0
   -6.9589    1.4700   -1.5201 H   0  0  0  0  0  0  0  0  0  0  0  0
   -7.6197   -1.5162   -1.2064 H   0  0  0  0  0  0  0  0  0  0  0  0
   -6.8509   -0.8002   -2.6088 H   0  0  0  0  0  0  0  0  0  0  0  0
   -6.3871   -1.7573    0.9418 H   0  0  0  0  0  0  0  0  0  0  0  0
   -4.2014   -1.9992    2.0125 H   0  0  0  0  0  0  0  0  0  0  0  0
   -1.9346   -1.7257    1.9743 H   0  0  0  0  0  0  0  0  0  0  0  0
    0.1947   -0.9386    2.6325 H   0  0  0  0  0  0  0  0  0  0  0  0
    0.5324   -2.4360    1.7275 H   0  0  0  0  0  0  0  0  0  0  0  0
    4.4601   -1.9081   -0.3759 H   0  0  0  0  0  0  0  0  0  0  0  0
    3.6392    3.0398    1.6595 H   0  0  0  0  0  0  0  0  0  0  0  0
    6.3156    3.9066    0.6277 H   0  0  0  0  0  0  0  0  0  0  0  0
    8.2970    3.0949   -0.6231 H   0  0  0  0  0  0  0  0  0  0  0  0
    8.3950    0.7704   -1.4483 H   0  0  0  0  0  0  0  0  0  0  0  0
    6.5189   -0.7979   -1.0451 H   0  0  0  0  0  0  0  0  0  0  0  0
   -2.3233   -0.2269   -1.4537 H   0  0  0  0  0  0  0  0  0  0  0  0
   -4.4994    0.0075   -2.5056 H   0  0  0  0  0  0  0  0  0  0  0  0
  1  2  1  0
  2  3  1  0
  3  4  2  0
  4  5  1  0
  5  6  2  0
  6  7  1  0
  7  8  1  0
  8  9  2  0
  8 10  1  0
 10 11  1  0
 11 12  1  0
 12 13  2  0
 13 14  1  0
 14 15  1  0
 15 16  2  0
 16 17  1  0
 17 18  2  0
 18 19  1  0
 19 20  2  0
 20 21  1  0
 21 22  2  0
 15 23  1  0
 23 24  2  0
  6 25  1  0
 25 26  2  0
 26  3  1  0
 23 11  1  0
 22 14  1  0
 22 17  1  0
  1 27  1  0
  1 28  1  0
  1 29  1  0
  2 30  1  0
  2 31  1  0
  4 32  1  0
  5 33  1  0
  7 34  1  0
 10 35  1  0
 10 36  1  0
 13 37  1  0
 16 38  1  0
 18 39  1  0
 19 40  1  0
 20 41  1  0
 21 42  1  0
 25 43  1  0
 26 44  1  0
M  END
$$$$
