
     RDKit          3D

 32 33  0  0  0  0  0  0  0  0999 V2000
   -5.1936    0.0941    1.5821 C   0  0  0  0  0  0  0  0  0  0  0  0
   -4.8759   -0.8783    0.4630 C   0  0  0  0  0  0  0  0  0  0  0  0
   -3.4821   -0.8218    0.1370 O   0  0  0  0  0  0  0  0  0  0  0  0
   -3.1334    0.0431   -0.8466 C   0  0  0  0  0  0  0  0  0  0  0  0
   -3.8925    0.7833   -1.4545 O   0  0  0  0  0  0  0  0  0  0  0  0
   -1.6737   -0.0438   -1.1210 C   0  0  0  0  0  0  0  0  0  0  0  0
   -0.8049   -0.7992   -0.3239 C   0  0  0  0  0  0  0  0  0  0  0  0
    0.5581   -0.8729   -0.6406 C   0  0  0  0  0  0  0  0  0  0  0  0
    1.0736   -0.1920   -1.7520 C   0  0  0  0  0  0  0  0  0  0  0  0
    2.5442   -0.2800   -2.0960 C   0  0  0  0  0  0  0  0  0  0  0  0
    3.4772    1.1817   -1.5702 S   0  0  0  0  0  0  0  0  0  0  0  0
    3.9700    0.7312    0.0467 C   0  0  0  0  0  0  0  0  0  0  0  0
    3.5482   -0.3564    0.6507 N   0  0  0  0  0  0  0  0  0  0  0  0
    4.1059   -0.4853    1.9137 N   0  0  0  0  0  0  0  0  0  0  0  0
    4.9264    0.4998    2.2152 C   0  0  0  0  0  0  0  0  0  0  0  0
    5.5967    0.6155    3.3812 N   0  0  0  0  0  0  0  0  0  0  0  0
    5.0648    1.6735    0.9770 S   0  0  0  0  0  0  0  0  0  0  0  0
    0.2004    0.5776   -2.5355 C   0  0  0  0  0  0  0  0  0  0  0  0
   -1.1606    0.6492   -2.2261 C   0  0  0  0  0  0  0  0  0  0  0  0
   -6.2286   -0.0403    1.9209 H   0  0  0  0  0  0  0  0  0  0  0  0
   -4.5215   -0.0753    2.4302 H   0  0  0  0  0  0  0  0  0  0  0  0
   -5.0515    1.1318    1.2564 H   0  0  0  0  0  0  0  0  0  0  0  0
   -5.5003   -0.6968   -0.4171 H   0  0  0  0  0  0  0  0  0  0  0  0
   -5.0848   -1.8990    0.8007 H   0  0  0  0  0  0  0  0  0  0  0  0
   -1.1715   -1.3388    0.5464 H   0  0  0  0  0  0  0  0  0  0  0  0
    1.2144   -1.4677   -0.0051 H   0  0  0  0  0  0  0  0  0  0  0  0
    2.9846   -1.2023   -1.7012 H   0  0  0  0  0  0  0  0  0  0  0  0
    2.6419   -0.3601   -3.1862 H   0  0  0  0  0  0  0  0  0  0  0  0
    5.9075    1.5426    3.6531 H   0  0  0  0  0  0  0  0  0  0  0  0
    5.2081    0.0790    4.1542 H   0  0  0  0  0  0  0  0  0  0  0  0
    0.5744    1.1250   -3.3977 H   0  0  0  0  0  0  0  0  0  0  0  0
   -1.8214    1.2442   -2.8547 H   0  0  0  0  0  0  0  0  0  0  0  0
  1  2  1  0
  2  3  1  0
  3  4  1  0
  4  5  2  0
  4  6  1  0
  6  7  2  0
  7  8  1  0
  8  9  2  0
  9 10  1  0
 10 11  1  0
 11 12  1  0
 12 13  2  0
 13 14  1  0
 14 15  2  0
 15 16  1  0
 15 17  1  0
  9 18  1  0
 18 19  2  0
 19  6  1  0
 17 12  1  0
  1 20  1  0
  1 21  1  0
  1 22  1  0
  2 23  1  0
  2 24  1  0
  7 25  1  0
  8 26  1  0
 10 27  1  0
 10 28  1  0
 16 29  1  0
 16 30  1  0
 18 31  1  0
 19 32  1  0
M  END
$$$$
