
     RDKit          3D

 45 47  0  0  0  0  0  0  0  0999 V2000
    4.0683    2.8194    3.8160 N   0  0  0  0  0  0  0  0  0  0  0  0
    4.4678    2.1619    2.9468 C   0  0  0  0  0  0  0  0  0  0  0  0
    4.9454    1.3476    1.8774 C   0  0  0  0  0  0  0  0  0  0  0  0
    6.3582    1.3293    1.6824 C   0  0  0  0  0  0  0  0  0  0  0  0
    7.5063    1.3042    1.5137 N   0  0  0  0  0  0  0  0  0  0  0  0
    4.1121    0.6193    1.0906 C   0  0  0  0  0  0  0  0  0  0  0  0
    2.6567    0.5904    1.2797 C   0  0  0  0  0  0  0  0  0  0  0  0
    1.8020   -0.0240    0.4391 C   0  0  0  0  0  0  0  0  0  0  0  0
    0.3676   -0.0154    0.6943 C   0  0  0  0  0  0  0  0  0  0  0  0
   -0.5727   -0.4860   -0.1539 C   0  0  0  0  0  0  0  0  0  0  0  0
   -1.9594   -0.4782    0.1126 N   0  0  0  0  0  0  0  0  0  0  0  0
   -2.8687   -1.4898   -0.4614 C   0  0  0  0  0  0  0  0  0  0  0  0
   -3.6946   -0.8906   -1.5947 C   0  0  0  0  0  0  0  0  0  0  0  0
   -4.9986   -0.2324   -1.1468 C   0  0  0  0  0  0  0  0  0  0  0  0
   -4.9752    0.5177    0.1834 C   0  0  0  0  0  0  0  0  0  0  0  0
   -3.6896    1.2887    0.4690 C   0  0  0  0  0  0  0  0  0  0  0  0
   -2.5892    0.4241    1.0928 C   0  0  0  0  0  0  0  0  0  0  0  0
   -0.1258   -1.0457   -1.5017 C   0  0  0  0  0  0  0  0  0  0  0  0
    1.2563   -0.5602   -1.9417 C   0  0  0  0  0  0  0  0  0  0  0  0
    2.2690   -0.7366   -0.8103 C   0  0  0  0  0  0  0  0  0  0  0  0
    3.6555   -0.2495   -1.2450 C   0  0  0  0  0  0  0  0  0  0  0  0
    4.6171   -0.2469   -0.0575 C   0  0  0  0  0  0  0  0  0  0  0  0
    2.2441    1.1018    2.1489 H   0  0  0  0  0  0  0  0  0  0  0  0
    0.0693    0.3811    1.6596 H   0  0  0  0  0  0  0  0  0  0  0  0
   -3.5125   -1.9131    0.3196 H   0  0  0  0  0  0  0  0  0  0  0  0
   -2.2962   -2.3409   -0.8469 H   0  0  0  0  0  0  0  0  0  0  0  0
   -3.9510   -1.6842   -2.3076 H   0  0  0  0  0  0  0  0  0  0  0  0
   -3.1006   -0.1592   -2.1563 H   0  0  0  0  0  0  0  0  0  0  0  0
   -5.3191    0.4557   -1.9395 H   0  0  0  0  0  0  0  0  0  0  0  0
   -5.7826   -0.9983   -1.0877 H   0  0  0  0  0  0  0  0  0  0  0  0
   -5.8168    1.2221    0.1818 H   0  0  0  0  0  0  0  0  0  0  0  0
   -5.1775   -0.1822    1.0036 H   0  0  0  0  0  0  0  0  0  0  0  0
   -3.3284    1.7948   -0.4341 H   0  0  0  0  0  0  0  0  0  0  0  0
   -3.9333    2.0762    1.1938 H   0  0  0  0  0  0  0  0  0  0  0  0
   -2.9787   -0.1603    1.9352 H   0  0  0  0  0  0  0  0  0  0  0  0
   -1.8598    1.1220    1.5152 H   0  0  0  0  0  0  0  0  0  0  0  0
   -0.1191   -2.1413   -1.4456 H   0  0  0  0  0  0  0  0  0  0  0  0
   -0.8365   -0.7614   -2.2854 H   0  0  0  0  0  0  0  0  0  0  0  0
    1.1947    0.4956   -2.2387 H   0  0  0  0  0  0  0  0  0  0  0  0
    1.5735   -1.1211   -2.8291 H   0  0  0  0  0  0  0  0  0  0  0  0
    2.3394   -1.8084   -0.5738 H   0  0  0  0  0  0  0  0  0  0  0  0
    3.5940    0.7619   -1.6692 H   0  0  0  0  0  0  0  0  0  0  0  0
    4.0479   -0.9015   -2.0347 H   0  0  0  0  0  0  0  0  0  0  0  0
    5.5937    0.0872   -0.4236 H   0  0  0  0  0  0  0  0  0  0  0  0
    4.7470   -1.2737    0.3091 H   0  0  0  0  0  0  0  0  0  0  0  0
  1  2  3  0
  2  3  1  0
  3  4  1  0
  4  5  3  0
  3  6  2  3
  6  7  1  0
  7  8  2  0
  8  9  1  0
  9 10  2  0
 10 11  1  0
 11 12  1  0
 12 13  1  0
 13 14  1  0
 14 15  1  0
 15 16  1  0
 16 17  1  0
 10 18  1  0
 18 19  1  0
 19 20  1  0
 20 21  1  0
 21 22  1  0
 22  6  1  0
 20  8  1  0
 17 11  1  0
  7 23  1  0
  9 24  1  0
 12 25  1  0
 12 26  1  0
 13 27  1  0
 13 28  1  0
 14 29  1  0
 14 30  1  0
 15 31  1  0
 15 32  1  0
 16 33  1  0
 16 34  1  0
 17 35  1  0
 17 36  1  0
 18 37  1  0
 18 38  1  0
 19 39  1  0
 19 40  1  0
 20 41  1  0
 21 42  1  0
 21 43  1  0
 22 44  1  0
 22 45  1  0
M  END
$$$$
