
     RDKit          3D

 52 56  0  0  0  0  0  0  0  0999 V2000
   -6.2180    3.1281    0.8166 C   0  0  0  0  0  0  0  0  0  0  0  0
   -5.1098    2.2613    0.2971 C   0  0  0  0  0  0  0  0  0  0  0  0
   -4.4720    2.5712   -0.9080 C   0  0  0  0  0  0  0  0  0  0  0  0
   -3.4167    1.7815   -1.3733 C   0  0  0  0  0  0  0  0  0  0  0  0
   -2.9784    0.6668   -0.6474 C   0  0  0  0  0  0  0  0  0  0  0  0
   -1.8891   -0.0869   -1.1671 N   0  0  0  0  0  0  0  0  0  0  0  0
   -1.5851   -1.3628   -0.7752 C   0  0  0  0  0  0  0  0  0  0  0  0
   -0.4104   -1.9367   -0.3140 C   0  0  0  0  0  0  0  0  0  0  0  0
    0.8623   -1.2656   -0.1338 C   0  0  0  0  0  0  0  0  0  0  0  0
    1.5637   -1.4216    1.0608 C   0  0  0  0  0  0  0  0  0  0  0  0
    2.7934   -0.7760    1.2543 C   0  0  0  0  0  0  0  0  0  0  0  0
    3.3762    0.0297    0.2636 C   0  0  0  0  0  0  0  0  0  0  0  0
    4.5866    0.6711    0.4564 N   0  0  0  0  0  0  0  0  0  0  0  0
    5.1811    0.8371    1.7919 C   0  0  0  0  0  0  0  0  0  0  0  0
    6.1844    2.0029    1.7753 C   0  0  0  0  0  0  0  0  0  0  0  0
    7.2641    1.8363    0.8450 O   0  0  0  0  0  0  0  0  0  0  0  0
    6.9266    0.9983   -0.2689 C   0  0  0  0  0  0  0  0  0  0  0  0
    5.4440    1.0626   -0.6751 C   0  0  0  0  0  0  0  0  0  0  0  0
    2.6586    0.1560   -0.9371 C   0  0  0  0  0  0  0  0  0  0  0  0
    1.4259   -0.4817   -1.1407 C   0  0  0  0  0  0  0  0  0  0  0  0
   -0.6011   -3.2501    0.0411 N   0  0  0  0  0  0  0  0  0  0  0  0
   -1.8451   -3.5360   -0.2792 C   0  0  0  0  0  0  0  0  0  0  0  0
   -2.5007   -4.7289   -0.1505 N   0  0  0  0  0  0  0  0  0  0  0  0
   -3.7128   -4.7676   -0.6100 C   0  0  0  0  0  0  0  0  0  0  0  0
   -4.4539   -3.6496   -1.2540 C   0  0  0  0  0  0  0  0  0  0  0  0
   -3.7791   -2.4955   -1.3308 C   0  0  0  0  0  0  0  0  0  0  0  0
   -2.4806   -2.4209   -0.8306 N   0  0  0  0  0  0  0  0  0  0  0  0
   -3.5997    0.3789    0.5735 C   0  0  0  0  0  0  0  0  0  0  0  0
   -4.6548    1.1685    1.0418 C   0  0  0  0  0  0  0  0  0  0  0  0
   -6.9142    2.5466    1.4298 H   0  0  0  0  0  0  0  0  0  0  0  0
   -6.7950    3.5595   -0.0082 H   0  0  0  0  0  0  0  0  0  0  0  0
   -5.8054    3.9401    1.4231 H   0  0  0  0  0  0  0  0  0  0  0  0
   -4.7910    3.4302   -1.4938 H   0  0  0  0  0  0  0  0  0  0  0  0
   -2.9423    2.0356   -2.3181 H   0  0  0  0  0  0  0  0  0  0  0  0
   -1.0923    0.5529   -1.2074 H   0  0  0  0  0  0  0  0  0  0  0  0
    1.1605   -2.0526    1.8507 H   0  0  0  0  0  0  0  0  0  0  0  0
    3.2994   -0.9465    2.2003 H   0  0  0  0  0  0  0  0  0  0  0  0
    5.6915   -0.0905    2.0767 H   0  0  0  0  0  0  0  0  0  0  0  0
    4.4125    1.0637    2.5397 H   0  0  0  0  0  0  0  0  0  0  0  0
    5.6723    2.9379    1.5188 H   0  0  0  0  0  0  0  0  0  0  0  0
    6.6246    2.1349    2.7688 H   0  0  0  0  0  0  0  0  0  0  0  0
    7.2033   -0.0296   -0.0059 H   0  0  0  0  0  0  0  0  0  0  0  0
    7.5595    1.2996   -1.1097 H   0  0  0  0  0  0  0  0  0  0  0  0
    5.1842    2.0842   -0.9754 H   0  0  0  0  0  0  0  0  0  0  0  0
    5.3049    0.3963   -1.5340 H   0  0  0  0  0  0  0  0  0  0  0  0
    3.0420    0.7740   -1.7442 H   0  0  0  0  0  0  0  0  0  0  0  0
    0.9289   -0.3701   -2.1009 H   0  0  0  0  0  0  0  0  0  0  0  0
   -4.2772   -5.7118   -0.5291 H   0  0  0  0  0  0  0  0  0  0  0  0
   -5.4599   -3.8016   -1.6157 H   0  0  0  0  0  0  0  0  0  0  0  0
   -4.1950   -1.6012   -1.7760 H   0  0  0  0  0  0  0  0  0  0  0  0
   -3.2583   -0.4484    1.1903 H   0  0  0  0  0  0  0  0  0  0  0  0
   -5.1124    0.9264    1.9986 H   0  0  0  0  0  0  0  0  0  0  0  0
  1  2  1  0
  2  3  2  0
  3  4  1  0
  4  5  2  0
  5  6  1  0
  6  7  1  0
  7  8  2  0
  8  9  1  0
  9 10  2  0
 10 11  1  0
 11 12  2  0
 12 13  1  0
 13 14  1  0
 14 15  1  0
 15 16  1  0
 16 17  1  0
 17 18  1  0
 12 19  1  0
 19 20  2  0
  8 21  1  0
 21 22  2  0
 22 23  1  0
 23 24  2  0
 24 25  1  0
 25 26  2  0
 26 27  1  0
  5 28  1  0
 28 29  2  0
 29  2  1  0
 27  7  1  0
 20  9  1  0
 27 22  1  0
 18 13  1  0
  1 30  1  0
  1 31  1  0
  1 32  1  0
  3 33  1  0
  4 34  1  0
  6 35  1  0
 10 36  1  0
 11 37  1  0
 14 38  1  0
 14 39  1  0
 15 40  1  0
 15 41  1  0
 17 42  1  0
 17 43  1  0
 18 44  1  0
 18 45  1  0
 19 46  1  0
 20 47  1  0
 24 48  1  0
 25 49  1  0
 26 50  1  0
 28 51  1  0
 29 52  1  0
M  END
$$$$
