
     RDKit          3D

 41 44  0  0  0  0  0  0  0  0999 V2000
    6.1059   -1.0258    0.9073 Cl  0  0  0  0  0  0  0  0  0  0  0  0
    4.6232   -0.8476    0.0532 C   0  0  0  0  0  0  0  0  0  0  0  0
    3.6825   -1.8741    0.0766 C   0  0  0  0  0  0  0  0  0  0  0  0
    2.4780   -1.7274   -0.6149 C   0  0  0  0  0  0  0  0  0  0  0  0
    2.2062   -0.5518   -1.3335 C   0  0  0  0  0  0  0  0  0  0  0  0
    0.8976   -0.3910   -2.0704 C   0  0  0  0  0  0  0  0  0  0  0  0
   -0.2293   -0.2907   -1.1584 N   0  0  0  0  0  0  0  0  0  0  0  0
   -1.0567   -1.3438   -0.9910 N   0  0  0  0  0  0  0  0  0  0  0  0
   -1.9027   -0.8900   -0.0528 C   0  0  0  0  0  0  0  0  0  0  0  0
   -3.0025   -1.6715    0.5055 C   0  0  0  0  0  0  0  0  0  0  0  0
   -3.8376   -1.1172    1.4867 C   0  0  0  0  0  0  0  0  0  0  0  0
   -4.8921   -1.8582    2.0269 C   0  0  0  0  0  0  0  0  0  0  0  0
   -5.1230   -3.1618    1.5918 C   0  0  0  0  0  0  0  0  0  0  0  0
   -4.3015   -3.7259    0.6175 C   0  0  0  0  0  0  0  0  0  0  0  0
   -3.2469   -2.9849    0.0771 C   0  0  0  0  0  0  0  0  0  0  0  0
   -1.6416    0.4013    0.3492 N   0  0  0  0  0  0  0  0  0  0  0  0
   -0.6033    0.7702   -0.3731 C   0  0  0  0  0  0  0  0  0  0  0  0
    0.0700    2.0599   -0.3159 C   0  0  0  0  0  0  0  0  0  0  0  0
    0.7694    2.4271    0.8396 C   0  0  0  0  0  0  0  0  0  0  0  0
    1.4397    3.6501    0.8994 C   0  0  0  0  0  0  0  0  0  0  0  0
    1.4046    4.5183   -0.1908 C   0  0  0  0  0  0  0  0  0  0  0  0
    0.6939    4.1693   -1.3385 C   0  0  0  0  0  0  0  0  0  0  0  0
    0.0249    2.9451   -1.4006 C   0  0  0  0  0  0  0  0  0  0  0  0
    3.1665    0.4714   -1.3498 C   0  0  0  0  0  0  0  0  0  0  0  0
    4.3704    0.3239   -0.6567 C   0  0  0  0  0  0  0  0  0  0  0  0
    3.8765   -2.7874    0.6327 H   0  0  0  0  0  0  0  0  0  0  0  0
    1.7458   -2.5340   -0.5820 H   0  0  0  0  0  0  0  0  0  0  0  0
    0.8940    0.4993   -2.7077 H   0  0  0  0  0  0  0  0  0  0  0  0
    0.7325   -1.2529   -2.7281 H   0  0  0  0  0  0  0  0  0  0  0  0
   -3.6691   -0.1001    1.8360 H   0  0  0  0  0  0  0  0  0  0  0  0
   -5.5310   -1.4154    2.7866 H   0  0  0  0  0  0  0  0  0  0  0  0
   -5.9431   -3.7380    2.0121 H   0  0  0  0  0  0  0  0  0  0  0  0
   -4.4797   -4.7423    0.2764 H   0  0  0  0  0  0  0  0  0  0  0  0
   -2.6146   -3.4389   -0.6830 H   0  0  0  0  0  0  0  0  0  0  0  0
    0.7962    1.7573    1.6971 H   0  0  0  0  0  0  0  0  0  0  0  0
    1.9830    3.9264    1.7996 H   0  0  0  0  0  0  0  0  0  0  0  0
    1.9206    5.4741   -0.1398 H   0  0  0  0  0  0  0  0  0  0  0  0
    0.6512    4.8562   -2.1801 H   0  0  0  0  0  0  0  0  0  0  0  0
   -0.5444    2.6959   -2.2932 H   0  0  0  0  0  0  0  0  0  0  0  0
    2.9835    1.3979   -1.8913 H   0  0  0  0  0  0  0  0  0  0  0  0
    5.1028    1.1268   -0.6717 H   0  0  0  0  0  0  0  0  0  0  0  0
  1  2  1  0
  2  3  2  0
  3  4  1  0
  4  5  2  0
  5  6  1  0
  6  7  1  0
  7  8  1  0
  8  9  2  0
  9 10  1  0
 10 11  2  0
 11 12  1  0
 12 13  2  0
 13 14  1  0
 14 15  2  0
  9 16  1  0
 16 17  2  0
 17 18  1  0
 18 19  2  0
 19 20  1  0
 20 21  2  0
 21 22  1  0
 22 23  2  0
  5 24  1  0
 24 25  2  0
 25  2  1  0
 17  7  1  0
 23 18  1  0
 15 10  1  0
  3 26  1  0
  4 27  1  0
  6 28  1  0
  6 29  1  0
 11 30  1  0
 12 31  1  0
 13 32  1  0
 14 33  1  0
 15 34  1  0
 19 35  1  0
 20 36  1  0
 21 37  1  0
 22 38  1  0
 23 39  1  0
 24 40  1  0
 25 41  1  0
M  END
$$$$
