
     RDKit          3D

 62 64  0  0  0  0  0  0  0  0999 V2000
   -4.7910    1.2889   -2.6385 C   0  0  0  0  0  0  0  0  0  0  0  0
   -3.7815    0.6081   -1.7499 C   0  0  0  0  0  0  0  0  0  0  0  0
   -2.4390    0.7182   -2.1839 C   0  0  0  0  0  0  0  0  0  0  0  0
   -1.3861    0.1726   -1.4629 C   0  0  0  0  0  0  0  0  0  0  0  0
   -0.1090    0.3149   -2.0261 O   0  0  0  0  0  0  0  0  0  0  0  0
    1.0014   -0.2434   -1.4241 C   0  0  0  0  0  0  0  0  0  0  0  0
    2.1139   -0.1520   -1.9411 O   0  0  0  0  0  0  0  0  0  0  0  0
    0.8100   -0.9392   -0.1193 C   0  0  0  0  0  0  0  0  0  0  0  0
    2.0968   -1.5085    0.4295 C   0  0  0  0  0  0  0  0  0  0  0  0
    2.9014   -0.4125    1.1110 C   0  0  0  0  0  0  0  0  0  0  0  0
    2.7386   -0.1237    2.2905 O   0  0  0  0  0  0  0  0  0  0  0  0
    3.8045    0.2180    0.2829 N   0  0  0  0  0  0  0  0  0  0  0  0
    4.6287    1.3268    0.7210 C   0  0  0  0  0  0  0  0  0  0  0  0
    6.1108    0.9549    0.7781 C   0  0  0  0  0  0  0  0  0  0  0  0
    6.6912    0.6843   -0.6190 C   0  0  0  0  0  0  0  0  0  0  0  0
    8.1339    0.4129   -0.6951 N   0  0  0  0  0  0  0  0  0  0  0  0
    8.5315   -0.7676    0.0651 C   0  0  0  0  0  0  0  0  0  0  0  0
    8.9482    1.5678   -0.3349 C   0  0  0  0  0  0  0  0  0  0  0  0
   -0.4060   -1.0350    0.4653 C   0  0  0  0  0  0  0  0  0  0  0  0
   -0.6209   -1.6458    1.8261 C   0  0  0  0  0  0  0  0  0  0  0  0
   -1.5671   -0.4861   -0.2598 C   0  0  0  0  0  0  0  0  0  0  0  0
   -2.9057   -0.5869    0.1629 C   0  0  0  0  0  0  0  0  0  0  0  0
   -3.3037   -1.2108    1.3007 O   0  0  0  0  0  0  0  0  0  0  0  0
   -4.6375   -1.1120    1.3871 C   0  0  0  0  0  0  0  0  0  0  0  0
   -5.1811   -0.4252    0.3149 C   0  0  0  0  0  0  0  0  0  0  0  0
   -6.6851   -0.1824    0.1459 C   0  0  0  0  0  0  0  0  0  0  0  0
   -7.0096    1.3153    0.0055 C   0  0  0  0  0  0  0  0  0  0  0  0
   -7.2360   -1.0053   -1.0353 C   0  0  0  0  0  0  0  0  0  0  0  0
   -7.4903   -0.6537    1.3927 C   0  0  0  0  0  0  0  0  0  0  0  0
   -4.0281   -0.0730   -0.5176 C   0  0  0  0  0  0  0  0  0  0  0  0
   -4.8918    2.3388   -2.3428 H   0  0  0  0  0  0  0  0  0  0  0  0
   -5.7658    0.8101   -2.6106 H   0  0  0  0  0  0  0  0  0  0  0  0
   -4.4717    1.2610   -3.6883 H   0  0  0  0  0  0  0  0  0  0  0  0
   -2.2118    1.2400   -3.1118 H   0  0  0  0  0  0  0  0  0  0  0  0
    1.9382   -2.3154    1.1504 H   0  0  0  0  0  0  0  0  0  0  0  0
    2.6932   -1.9730   -0.3651 H   0  0  0  0  0  0  0  0  0  0  0  0
    3.6732    0.0938   -0.7227 H   0  0  0  0  0  0  0  0  0  0  0  0
    4.4615    2.1548    0.0230 H   0  0  0  0  0  0  0  0  0  0  0  0
    4.3009    1.6615    1.7112 H   0  0  0  0  0  0  0  0  0  0  0  0
    6.6483    1.7855    1.2504 H   0  0  0  0  0  0  0  0  0  0  0  0
    6.2363    0.0740    1.4195 H   0  0  0  0  0  0  0  0  0  0  0  0
    6.4661    1.5359   -1.2736 H   0  0  0  0  0  0  0  0  0  0  0  0
    6.1656   -0.1669   -1.0700 H   0  0  0  0  0  0  0  0  0  0  0  0
    8.4364   -0.6242    1.1477 H   0  0  0  0  0  0  0  0  0  0  0  0
    7.9312   -1.6366   -0.2258 H   0  0  0  0  0  0  0  0  0  0  0  0
    9.5750   -1.0242   -0.1503 H   0  0  0  0  0  0  0  0  0  0  0  0
    8.8735    1.8233    0.7266 H   0  0  0  0  0  0  0  0  0  0  0  0
   10.0028    1.3749   -0.5629 H   0  0  0  0  0  0  0  0  0  0  0  0
    8.6596    2.4447   -0.9224 H   0  0  0  0  0  0  0  0  0  0  0  0
   -1.1940   -2.5749    1.7469 H   0  0  0  0  0  0  0  0  0  0  0  0
   -1.1438   -0.9466    2.4875 H   0  0  0  0  0  0  0  0  0  0  0  0
    0.3081   -1.8880    2.3473 H   0  0  0  0  0  0  0  0  0  0  0  0
   -5.0657   -1.5796    2.2637 H   0  0  0  0  0  0  0  0  0  0  0  0
   -6.5059    1.7905   -0.8305 H   0  0  0  0  0  0  0  0  0  0  0  0
   -6.7108    1.8665    0.9054 H   0  0  0  0  0  0  0  0  0  0  0  0
   -8.0850    1.4747   -0.1420 H   0  0  0  0  0  0  0  0  0  0  0  0
   -7.1493   -2.0814   -0.8358 H   0  0  0  0  0  0  0  0  0  0  0  0
   -8.2969   -0.7879   -1.2106 H   0  0  0  0  0  0  0  0  0  0  0  0
   -6.7036   -0.8292   -1.9695 H   0  0  0  0  0  0  0  0  0  0  0  0
   -7.1692   -0.1302    2.3009 H   0  0  0  0  0  0  0  0  0  0  0  0
   -7.3750   -1.7295    1.5680 H   0  0  0  0  0  0  0  0  0  0  0  0
   -8.5625   -0.4619    1.2662 H   0  0  0  0  0  0  0  0  0  0  0  0
  1  2  1  0
  2  3  2  0
  3  4  1  0
  4  5  1  0
  5  6  1  0
  6  7  2  0
  6  8  1  0
  8  9  1  0
  9 10  1  0
 10 11  2  0
 10 12  1  0
 12 13  1  0
 13 14  1  0
 14 15  1  0
 15 16  1  0
 16 17  1  0
 16 18  1  0
  8 19  2  0
 19 20  1  0
 19 21  1  0
 21 22  1  0
 22 23  1  0
 23 24  1  0
 24 25  2  0
 25 26  1  0
 26 27  1  0
 26 28  1  0
 26 29  1  0
 25 30  1  0
 30  2  1  0
 21  4  2  0
 30 22  2  0
  1 31  1  0
  1 32  1  0
  1 33  1  0
  3 34  1  0
  9 35  1  0
  9 36  1  0
 12 37  1  0
 13 38  1  0
 13 39  1  0
 14 40  1  0
 14 41  1  0
 15 42  1  0
 15 43  1  0
 17 44  1  0
 17 45  1  0
 17 46  1  0
 18 47  1  0
 18 48  1  0
 18 49  1  0
 20 50  1  0
 20 51  1  0
 20 52  1  0
 24 53  1  0
 27 54  1  0
 27 55  1  0
 27 56  1  0
 28 57  1  0
 28 58  1  0
 28 59  1  0
 29 60  1  0
 29 61  1  0
 29 62  1  0
M  END
$$$$
