
     RDKit          3D

 41 44  0  0  0  0  0  0  0  0999 V2000
    2.1173   -5.9027   -0.4617 N   0  0  0  0  0  0  0  0  0  0  0  0
    2.0354   -4.7458   -0.4146 C   0  0  0  0  0  0  0  0  0  0  0  0
    1.9223   -3.3229   -0.3322 C   0  0  0  0  0  0  0  0  0  0  0  0
    0.7952   -2.8091    0.1982 C   0  0  0  0  0  0  0  0  0  0  0  0
    0.4608   -1.4397    0.4060 C   0  0  0  0  0  0  0  0  0  0  0  0
    1.2224   -0.2857    0.5452 C   0  0  0  0  0  0  0  0  0  0  0  0
    0.3421    0.8036    0.7599 C   0  0  0  0  0  0  0  0  0  0  0  0
   -0.9307    0.2814    0.7642 C   0  0  0  0  0  0  0  0  0  0  0  0
   -2.2697    0.8416    0.9357 C   0  0  0  0  0  0  0  0  0  0  0  0
   -3.4157    0.0357    0.8256 C   0  0  0  0  0  0  0  0  0  0  0  0
   -4.6962    0.5738    0.9892 C   0  0  0  0  0  0  0  0  0  0  0  0
   -4.8396    1.9317    1.2755 C   0  0  0  0  0  0  0  0  0  0  0  0
   -6.4573    2.6234    1.4520 S   0  0  0  0  0  6  0  0  0  0  0  0
   -6.7518    2.4024    3.0898 N   0  0  0  0  0  0  0  0  0  0  0  0
   -6.3887    4.0521    1.2516 O   0  0  0  0  0  0  0  0  0  0  0  0
   -7.4108    1.7884    0.7598 O   0  0  0  0  0  0  0  0  0  0  0  0
   -3.7181    2.7560    1.3769 C   0  0  0  0  0  0  0  0  0  0  0  0
   -2.4412    2.2086    1.2108 C   0  0  0  0  0  0  0  0  0  0  0  0
   -0.8576   -1.0652    0.5663 O   0  0  0  0  0  0  0  0  0  0  0  0
    2.9778   -2.5272   -0.8712 C   0  0  0  0  0  0  0  0  0  0  0  0
    2.8635   -1.6092   -1.8118 N   0  0  0  0  0  0  0  0  0  0  0  0
    4.0896   -1.0357   -2.1010 C   0  0  0  0  0  0  0  0  0  0  0  0
    4.3239   -0.0245   -3.0542 C   0  0  0  0  0  0  0  0  0  0  0  0
    5.6197    0.4677   -3.2408 C   0  0  0  0  0  0  0  0  0  0  0  0
    6.6784   -0.0347   -2.4909 C   0  0  0  0  0  0  0  0  0  0  0  0
    6.4703   -1.0376   -1.5388 C   0  0  0  0  0  0  0  0  0  0  0  0
    5.1644   -1.5237   -1.3605 C   0  0  0  0  0  0  0  0  0  0  0  0
    4.5962   -2.7356   -0.2828 S   0  0  0  0  0  0  0  0  0  0  0  0
    0.0149   -3.5012    0.5152 H   0  0  0  0  0  0  0  0  0  0  0  0
    2.2998   -0.2185    0.5000 H   0  0  0  0  0  0  0  0  0  0  0  0
    0.6155    1.8398    0.8966 H   0  0  0  0  0  0  0  0  0  0  0  0
   -3.3209   -1.0260    0.6037 H   0  0  0  0  0  0  0  0  0  0  0  0
   -5.5669   -0.0706    0.8899 H   0  0  0  0  0  0  0  0  0  0  0  0
   -6.8624    3.3080    3.5465 H   0  0  0  0  0  0  0  0  0  0  0  0
   -7.5484    1.7773    3.2163 H   0  0  0  0  0  0  0  0  0  0  0  0
   -3.8252    3.8189    1.5822 H   0  0  0  0  0  0  0  0  0  0  0  0
   -1.5812    2.8686    1.2973 H   0  0  0  0  0  0  0  0  0  0  0  0
    3.4948    0.3637   -3.6379 H   0  0  0  0  0  0  0  0  0  0  0  0
    5.7976    1.2467   -3.9787 H   0  0  0  0  0  0  0  0  0  0  0  0
    7.6822    0.3557   -2.6472 H   0  0  0  0  0  0  0  0  0  0  0  0
    7.2983   -1.4296   -0.9558 H   0  0  0  0  0  0  0  0  0  0  0  0
  1  2  3  0
  2  3  1  0
  3  4  2  3
  4  5  1  0
  5  6  2  0
  6  7  1  0
  7  8  2  0
  8  9  1  0
  9 10  2  0
 10 11  1  0
 11 12  2  0
 12 13  1  0
 13 14  1  0
 13 15  2  0
 13 16  2  0
 12 17  1  0
 17 18  2  0
  8 19  1  0
  3 20  1  0
 20 21  2  0
 21 22  1  0
 22 23  2  0
 23 24  1  0
 24 25  2  0
 25 26  1  0
 26 27  2  0
 27 28  1  0
 19  5  1  0
 28 20  1  0
 18  9  1  0
 27 22  1  0
  4 29  1  0
  6 30  1  0
  7 31  1  0
 10 32  1  0
 11 33  1  0
 14 34  1  0
 14 35  1  0
 17 36  1  0
 18 37  1  0
 23 38  1  0
 24 39  1  0
 25 40  1  0
 26 41  1  0
M  END
$$$$
