
     RDKit          3D

 61 61  0  0  0  0  0  0  0  0999 V2000
    9.0280    2.5788   -0.9793 C   0  0  0  0  0  0  0  0  0  0  0  0
    8.2094    2.3576    0.2830 C   0  0  0  0  0  0  0  0  0  0  0  0
    6.7477    1.9978    0.0074 C   0  0  0  0  0  0  0  0  0  0  0  0
    6.5824    0.6541   -0.7080 C   0  0  0  0  0  0  0  0  0  0  0  0
    5.1261    0.1807   -0.7771 C   0  0  0  0  0  0  0  0  0  0  0  0
    4.2276    1.1051   -1.5987 C   0  0  0  0  0  0  0  0  0  0  0  0
    2.8326    0.5345   -1.8828 C   0  0  0  0  0  0  0  0  0  0  0  0
    1.9646    0.3174   -0.6372 C   0  0  0  0  0  0  0  0  0  0  0  0
    1.9980   -1.1279   -0.1311 C   0  0  0  0  0  0  0  0  0  0  0  0
    1.2442   -1.3272    1.1881 C   0  0  0  0  0  0  0  0  0  0  0  0
   -0.2482   -0.9803    1.1631 C   0  0  0  0  0  0  0  0  0  0  0  0
   -1.0436   -1.8061    0.1493 C   0  0  0  0  0  0  0  0  0  0  0  0
   -2.5597   -1.6218    0.2752 C   0  0  0  0  0  0  0  0  0  0  0  0
   -3.0223   -0.1970   -0.0393 C   0  0  0  0  0  0  0  0  0  0  0  0
   -4.5442   -0.0646   -0.1331 C   0  0  0  0  0  0  0  0  0  0  0  0
   -5.2595   -0.3388    1.1864 C   0  0  0  0  0  0  0  0  0  0  0  0
   -6.6979   -0.0809    1.0634 N   0  0  0  0  0  0  0  0  0  0  0  0
   -7.3430    1.1069    1.3691 C   0  0  0  0  0  0  0  0  0  0  0  0
   -8.6704    0.9125    1.1101 C   0  0  0  0  0  0  0  0  0  0  0  0
   -8.8017   -0.3878    0.6517 N   0  0  0  0  0  4  0  0  0  0  0  0
  -10.0497   -1.0264    0.2560 C   0  0  0  0  0  0  0  0  0  0  0  0
   -7.5975   -0.9779    0.6312 C   0  0  0  0  0  0  0  0  0  0  0  0
   10.0325    2.9271   -0.7189 H   0  0  0  0  0  0  0  0  0  0  0  0
    9.1370    1.6543   -1.5530 H   0  0  0  0  0  0  0  0  0  0  0  0
    8.5643    3.3334   -1.6217 H   0  0  0  0  0  0  0  0  0  0  0  0
    8.2346    3.2767    0.8806 H   0  0  0  0  0  0  0  0  0  0  0  0
    8.6788    1.5736    0.8888 H   0  0  0  0  0  0  0  0  0  0  0  0
    6.2868    2.7977   -0.5836 H   0  0  0  0  0  0  0  0  0  0  0  0
    6.2165    1.9639    0.9660 H   0  0  0  0  0  0  0  0  0  0  0  0
    7.1650   -0.1102   -0.1785 H   0  0  0  0  0  0  0  0  0  0  0  0
    6.9883    0.7155   -1.7241 H   0  0  0  0  0  0  0  0  0  0  0  0
    4.7350    0.0886    0.2422 H   0  0  0  0  0  0  0  0  0  0  0  0
    5.1143   -0.8224   -1.2204 H   0  0  0  0  0  0  0  0  0  0  0  0
    4.7104    1.3121   -2.5618 H   0  0  0  0  0  0  0  0  0  0  0  0
    4.1182    2.0693   -1.0888 H   0  0  0  0  0  0  0  0  0  0  0  0
    2.9137   -0.3897   -2.4675 H   0  0  0  0  0  0  0  0  0  0  0  0
    2.3184    1.2601   -2.5270 H   0  0  0  0  0  0  0  0  0  0  0  0
    0.9305    0.5636   -0.9072 H   0  0  0  0  0  0  0  0  0  0  0  0
    2.2553    1.0112    0.1601 H   0  0  0  0  0  0  0  0  0  0  0  0
    3.0332   -1.4462    0.0271 H   0  0  0  0  0  0  0  0  0  0  0  0
    1.5917   -1.7963   -0.8991 H   0  0  0  0  0  0  0  0  0  0  0  0
    1.7272   -0.7236    1.9668 H   0  0  0  0  0  0  0  0  0  0  0  0
    1.3590   -2.3739    1.4966 H   0  0  0  0  0  0  0  0  0  0  0  0
   -0.3729    0.0893    0.9640 H   0  0  0  0  0  0  0  0  0  0  0  0
   -0.6533   -1.1574    2.1671 H   0  0  0  0  0  0  0  0  0  0  0  0
   -0.8156   -2.8694    0.2932 H   0  0  0  0  0  0  0  0  0  0  0  0
   -0.7359   -1.5503   -0.8707 H   0  0  0  0  0  0  0  0  0  0  0  0
   -2.8727   -1.9062    1.2861 H   0  0  0  0  0  0  0  0  0  0  0  0
   -3.0473   -2.3193   -0.4167 H   0  0  0  0  0  0  0  0  0  0  0  0
   -2.6489    0.4978    0.7218 H   0  0  0  0  0  0  0  0  0  0  0  0
   -2.5913    0.1181   -0.9976 H   0  0  0  0  0  0  0  0  0  0  0  0
   -4.9308   -0.7375   -0.9085 H   0  0  0  0  0  0  0  0  0  0  0  0
   -4.7841    0.9532   -0.4649 H   0  0  0  0  0  0  0  0  0  0  0  0
   -4.8612    0.2958    1.9864 H   0  0  0  0  0  0  0  0  0  0  0  0
   -5.1366   -1.3821    1.4961 H   0  0  0  0  0  0  0  0  0  0  0  0
   -6.7682    1.9411    1.7324 H   0  0  0  0  0  0  0  0  0  0  0  0
   -9.5460    1.5335    1.1914 H   0  0  0  0  0  0  0  0  0  0  0  0
   -9.8455   -2.0163   -0.1600 H   0  0  0  0  0  0  0  0  0  0  0  0
  -10.6920   -1.1257    1.1346 H   0  0  0  0  0  0  0  0  0  0  0  0
  -10.5441   -0.4112   -0.5003 H   0  0  0  0  0  0  0  0  0  0  0  0
   -7.3867   -1.9949    0.3208 H   0  0  0  0  0  0  0  0  0  0  0  0
  1  2  1  0
  2  3  1  0
  3  4  1  0
  4  5  1  0
  5  6  1  0
  6  7  1  0
  7  8  1  0
  8  9  1  0
  9 10  1  0
 10 11  1  0
 11 12  1  0
 12 13  1  0
 13 14  1  0
 14 15  1  0
 15 16  1  0
 16 17  1  0
 17 18  1  0
 18 19  2  0
 19 20  1  0
 20 21  1  0
 20 22  2  0
 22 17  1  0
  1 23  1  0
  1 24  1  0
  1 25  1  0
  2 26  1  0
  2 27  1  0
  3 28  1  0
  3 29  1  0
  4 30  1  0
  4 31  1  0
  5 32  1  0
  5 33  1  0
  6 34  1  0
  6 35  1  0
  7 36  1  0
  7 37  1  0
  8 38  1  0
  8 39  1  0
  9 40  1  0
  9 41  1  0
 10 42  1  0
 10 43  1  0
 11 44  1  0
 11 45  1  0
 12 46  1  0
 12 47  1  0
 13 48  1  0
 13 49  1  0
 14 50  1  0
 14 51  1  0
 15 52  1  0
 15 53  1  0
 16 54  1  0
 16 55  1  0
 18 56  1  0
 19 57  1  0
 21 58  1  0
 21 59  1  0
 21 60  1  0
 22 61  1  0
M  CHG  1  20   1
M  END
$$$$
