
     RDKit          3D

 53 56  0  0  0  0  0  0  0  0999 V2000
    6.5926    0.6761    2.6362 C   0  0  0  0  0  0  0  0  0  0  0  0
    5.5551   -0.1685    2.1542 O   0  0  0  0  0  0  0  0  0  0  0  0
    4.8819    0.2516    1.0387 C   0  0  0  0  0  0  0  0  0  0  0  0
    5.0621    1.4701    0.3810 C   0  0  0  0  0  0  0  0  0  0  0  0
    4.2985    1.7800   -0.7538 C   0  0  0  0  0  0  0  0  0  0  0  0
    3.3502    0.8720   -1.2490 C   0  0  0  0  0  0  0  0  0  0  0  0
    2.5020    1.2184   -2.4482 C   0  0  0  0  0  0  0  0  0  0  0  0
    1.2041    1.6990   -2.0242 N   0  0  0  0  0  0  0  0  0  0  0  0
    0.0829    0.8883   -2.0517 C   0  0  0  0  0  0  0  0  0  0  0  0
    0.1082   -0.2261   -2.5881 O   0  0  0  0  0  0  0  0  0  0  0  0
   -1.1947    1.3962   -1.3863 C   0  0  0  0  0  0  0  0  0  0  0  0
   -1.1552    2.8237   -1.0415 C   0  0  0  0  0  0  0  0  0  0  0  0
   -1.0919    3.9610   -0.8072 N   0  0  0  0  0  0  0  0  0  0  0  0
   -1.4947    0.5467   -0.1731 C   0  0  0  0  0  0  0  0  0  0  0  0
   -0.5779    0.5560    0.8398 N   0  0  0  0  0  0  0  0  0  0  0  0
   -0.8262   -0.2372    1.8977 C   0  0  0  0  0  0  0  0  0  0  0  0
    0.0856   -0.2962    2.9459 C   0  0  0  0  0  0  0  0  0  0  0  0
   -0.1355   -1.1186    4.0555 C   0  0  0  0  0  0  0  0  0  0  0  0
   -1.2891   -1.8917    4.1171 C   0  0  0  0  0  0  0  0  0  0  0  0
   -2.2101   -1.8371    3.0684 C   0  0  0  0  0  0  0  0  0  0  0  0
   -1.9986   -1.0246    1.9592 C   0  0  0  0  0  0  0  0  0  0  0  0
   -2.9087   -1.0108    0.9662 N   0  0  0  0  0  0  0  0  0  0  0  0
   -2.6619   -0.2280   -0.1094 C   0  0  0  0  0  0  0  0  0  0  0  0
   -3.5680   -0.2324   -1.1860 N   0  0  0  0  0  0  0  0  0  0  0  0
   -4.9690   -0.0305   -0.7568 C   0  0  0  0  0  0  0  0  0  0  0  0
   -5.7849   -0.8424   -1.7548 C   0  0  0  0  0  0  0  0  0  0  0  0
   -4.9165   -2.0755   -1.9305 C   0  0  0  0  0  0  0  0  0  0  0  0
   -3.4900   -1.5134   -1.9282 C   0  0  0  0  0  0  0  0  0  0  0  0
    3.1659   -0.3444   -0.5777 C   0  0  0  0  0  0  0  0  0  0  0  0
    3.9308   -0.6500    0.5536 C   0  0  0  0  0  0  0  0  0  0  0  0
    7.0479    0.1842    3.5014 H   0  0  0  0  0  0  0  0  0  0  0  0
    7.3733    0.8124    1.8852 H   0  0  0  0  0  0  0  0  0  0  0  0
    6.1951    1.6400    2.9721 H   0  0  0  0  0  0  0  0  0  0  0  0
    5.7784    2.2081    0.7283 H   0  0  0  0  0  0  0  0  0  0  0  0
    4.4493    2.7406   -1.2462 H   0  0  0  0  0  0  0  0  0  0  0  0
    2.4084    0.3530   -3.1097 H   0  0  0  0  0  0  0  0  0  0  0  0
    2.9722    2.0207   -3.0280 H   0  0  0  0  0  0  0  0  0  0  0  0
    1.2215    2.5225   -1.4259 H   0  0  0  0  0  0  0  0  0  0  0  0
   -1.9677    1.2900   -2.1590 H   0  0  0  0  0  0  0  0  0  0  0  0
    0.9910    0.3062    2.8934 H   0  0  0  0  0  0  0  0  0  0  0  0
    0.5947   -1.1525    4.8634 H   0  0  0  0  0  0  0  0  0  0  0  0
   -1.4765   -2.5393    4.9713 H   0  0  0  0  0  0  0  0  0  0  0  0
   -3.1101   -2.4480    3.1122 H   0  0  0  0  0  0  0  0  0  0  0  0
   -5.2322    1.0379   -0.7999 H   0  0  0  0  0  0  0  0  0  0  0  0
   -5.1766   -0.3983    0.2588 H   0  0  0  0  0  0  0  0  0  0  0  0
   -6.7836   -1.0839   -1.3832 H   0  0  0  0  0  0  0  0  0  0  0  0
   -5.8892   -0.3017   -2.7026 H   0  0  0  0  0  0  0  0  0  0  0  0
   -5.0404   -2.7565   -1.0755 H   0  0  0  0  0  0  0  0  0  0  0  0
   -5.1478   -2.6352   -2.8397 H   0  0  0  0  0  0  0  0  0  0  0  0
   -2.7975   -2.2535   -1.4972 H   0  0  0  0  0  0  0  0  0  0  0  0
   -3.1558   -1.3006   -2.9528 H   0  0  0  0  0  0  0  0  0  0  0  0
    2.4215   -1.0587   -0.9287 H   0  0  0  0  0  0  0  0  0  0  0  0
    3.7769   -1.5994    1.0611 H   0  0  0  0  0  0  0  0  0  0  0  0
  1  2  1  0
  2  3  1  0
  3  4  2  0
  4  5  1  0
  5  6  2  0
  6  7  1  0
  7  8  1  0
  8  9  1  0
  9 10  2  0
  9 11  1  0
 11 12  1  0
 12 13  3  0
 11 14  1  0
 14 15  2  0
 15 16  1  0
 16 17  2  0
 17 18  1  0
 18 19  2  0
 19 20  1  0
 20 21  2  0
 21 22  1  0
 22 23  2  0
 23 24  1  0
 24 25  1  0
 25 26  1  0
 26 27  1  0
 27 28  1  0
  6 29  1  0
 29 30  2  0
 30  3  1  0
 23 14  1  0
 28 24  1  0
 21 16  1  0
  1 31  1  0
  1 32  1  0
  1 33  1  0
  4 34  1  0
  5 35  1  0
  7 36  1  0
  7 37  1  0
  8 38  1  0
 11 39  1  0
 17 40  1  0
 18 41  1  0
 19 42  1  0
 20 43  1  0
 25 44  1  0
 25 45  1  0
 26 46  1  0
 26 47  1  0
 27 48  1  0
 27 49  1  0
 28 50  1  0
 28 51  1  0
 29 52  1  0
 30 53  1  0
M  END
$$$$
