
     RDKit          3D

 52 57  0  0  0  0  0  0  0  0999 V2000
   -6.0490   -2.4786   -0.2427 C   0  0  0  0  0  0  0  0  0  0  0  0
   -4.6580   -1.9141   -0.1665 C   0  0  0  0  0  0  0  0  0  0  0  0
   -3.7813   -2.0476   -1.2549 C   0  0  0  0  0  0  0  0  0  0  0  0
   -2.5011   -1.4973   -1.2021 C   0  0  0  0  0  0  0  0  0  0  0  0
   -2.1241   -0.8043   -0.0582 C   0  0  0  0  0  0  0  0  0  0  0  0
   -0.7878   -0.2431    0.0127 N   0  0  0  0  0  0  0  0  0  0  0  0
   -0.4309    1.0891    0.2994 C   0  0  0  0  0  0  0  0  0  0  0  0
   -1.3112    2.4029    0.3877 C   0  0  0  0  0  0  0  0  0  0  0  0
   -0.7668    3.5640    0.9552 C   0  0  0  0  0  0  0  0  0  0  0  0
   -1.5276    4.7351    1.0367 C   0  0  0  0  0  0  0  0  0  0  0  0
   -2.8276    4.7530    0.5401 C   0  0  0  0  0  0  0  0  0  0  0  0
   -3.8547    6.3340    0.6483 Br  0  0  0  0  0  0  0  0  0  0  0  0
   -3.3702    3.6122   -0.0443 C   0  0  0  0  0  0  0  0  0  0  0  0
   -2.6108    2.4397   -0.1253 C   0  0  0  0  0  0  0  0  0  0  0  0
    0.9395    1.0543    0.4668 C   0  0  0  0  0  0  0  0  0  0  0  0
    1.3877   -0.2223    0.1933 N   0  0  0  0  0  4  0  0  0  0  0  0
    0.3257   -1.0044   -0.0624 C   0  0  0  0  0  0  0  0  0  0  0  0
    0.4622   -2.4662   -0.3440 C   0  0  0  0  0  0  0  0  0  0  0  0
    1.6900   -3.0492    0.3257 C   0  0  0  0  0  0  0  0  0  0  0  0
    2.8878   -2.1509    0.1639 C   0  0  0  0  0  0  0  0  0  0  0  0
    4.1637   -2.7120    0.1329 C   0  0  0  0  0  0  0  0  0  0  0  0
    5.2840   -1.8877    0.0606 C   0  0  0  0  0  0  0  0  0  0  0  0
    5.1536   -0.4889    0.0270 C   0  0  0  0  0  0  0  0  0  0  0  0
    6.2944    0.3207   -0.0562 C   0  0  0  0  0  0  0  0  0  0  0  0
    6.1687    1.7011   -0.1038 C   0  0  0  0  0  0  0  0  0  0  0  0
    4.8982    2.2306   -0.0663 C   0  0  0  0  0  0  0  0  0  0  0  0
    3.7748    1.4807    0.0194 N   0  0  0  0  0  0  0  0  0  0  0  0
    3.8827    0.1260    0.0709 C   0  0  0  0  0  0  0  0  0  0  0  0
    2.7734   -0.7456    0.1462 C   0  0  0  0  0  0  0  0  0  0  0  0
   -2.9720   -0.6420    1.0312 C   0  0  0  0  0  0  0  0  0  0  0  0
   -4.2491   -1.1982    0.9696 C   0  0  0  0  0  0  0  0  0  0  0  0
   -6.4090   -2.7638    0.7514 H   0  0  0  0  0  0  0  0  0  0  0  0
   -6.7306   -1.7354   -0.6674 H   0  0  0  0  0  0  0  0  0  0  0  0
   -6.0710   -3.3783   -0.8666 H   0  0  0  0  0  0  0  0  0  0  0  0
   -4.1023   -2.5775   -2.1512 H   0  0  0  0  0  0  0  0  0  0  0  0
   -1.8407   -1.5867   -2.0576 H   0  0  0  0  0  0  0  0  0  0  0  0
    0.2405    3.5902    1.3624 H   0  0  0  0  0  0  0  0  0  0  0  0
   -1.0983    5.6269    1.4889 H   0  0  0  0  0  0  0  0  0  0  0  0
   -4.3795    3.6281   -0.4507 H   0  0  0  0  0  0  0  0  0  0  0  0
   -3.0566    1.5918   -0.6332 H   0  0  0  0  0  0  0  0  0  0  0  0
    1.6450    1.8235    0.7230 H   0  0  0  0  0  0  0  0  0  0  0  0
    0.5276   -2.5369   -1.4346 H   0  0  0  0  0  0  0  0  0  0  0  0
   -0.4391   -2.9734    0.0058 H   0  0  0  0  0  0  0  0  0  0  0  0
    1.5045   -3.1658    1.4008 H   0  0  0  0  0  0  0  0  0  0  0  0
    1.8859   -4.0455   -0.0868 H   0  0  0  0  0  0  0  0  0  0  0  0
    4.3033   -3.7919    0.1728 H   0  0  0  0  0  0  0  0  0  0  0  0
    6.2720   -2.3487    0.0330 H   0  0  0  0  0  0  0  0  0  0  0  0
    7.2901   -0.1182   -0.0895 H   0  0  0  0  0  0  0  0  0  0  0  0
    7.0406    2.3433   -0.1721 H   0  0  0  0  0  0  0  0  0  0  0  0
    4.7419    3.3058   -0.1059 H   0  0  0  0  0  0  0  0  0  0  0  0
   -2.6592   -0.1041    1.9199 H   0  0  0  0  0  0  0  0  0  0  0  0
   -4.9292   -1.0744    1.8116 H   0  0  0  0  0  0  0  0  0  0  0  0
  1  2  1  0
  2  3  2  0
  3  4  1  0
  4  5  2  0
  5  6  1  0
  6  7  1  0
  7  8  1  0
  8  9  2  0
  9 10  1  0
 10 11  2  0
 11 12  1  0
 11 13  1  0
 13 14  2  0
  7 15  2  0
 15 16  1  0
 16 17  2  0
 17 18  1  0
 18 19  1  0
 19 20  1  0
 20 21  2  0
 21 22  1  0
 22 23  2  0
 23 24  1  0
 24 25  2  0
 25 26  1  0
 26 27  2  0
 27 28  1  0
 28 29  2  0
  5 30  1  0
 30 31  2  0
 31  2  1  0
 17  6  1  0
 29 20  1  0
 14  8  1  0
 29 16  1  0
 28 23  1  0
  1 32  1  0
  1 33  1  0
  1 34  1  0
  3 35  1  0
  4 36  1  0
  9 37  1  0
 10 38  1  0
 13 39  1  0
 14 40  1  0
 15 41  1  0
 18 42  1  0
 18 43  1  0
 19 44  1  0
 19 45  1  0
 21 46  1  0
 22 47  1  0
 24 48  1  0
 25 49  1  0
 26 50  1  0
 30 51  1  0
 31 52  1  0
M  CHG  1  16   1
M  END
$$$$
