
     RDKit          3D

 35 36  0  0  0  0  0  0  0  0999 V2000
    4.4680   -1.5366   -2.7167 C   0  0  0  0  0  0  0  0  0  0  0  0
    3.5278   -0.6336   -1.9750 C   0  0  0  0  0  0  0  0  0  0  0  0
    3.0251    0.5216   -2.5814 C   0  0  0  0  0  0  0  0  0  0  0  0
    2.1262    1.3461   -1.8981 C   0  0  0  0  0  0  0  0  0  0  0  0
    1.6924    1.0132   -0.6113 C   0  0  0  0  0  0  0  0  0  0  0  0
    0.8027    1.9047    0.0245 N   0  0  0  0  0  0  0  0  0  0  0  0
    0.1298    1.7749    1.1919 C   0  0  0  0  0  0  0  0  0  0  0  0
   -0.1350    3.1288    2.1332 S   0  0  0  0  0  0  0  0  0  0  0  0
   -0.4021    0.5948    1.5817 N   0  0  0  0  0  0  0  0  0  0  0  0
   -0.8937   -0.4522    0.7039 C   0  0  0  0  0  0  0  0  0  0  0  0
   -2.3083   -0.7356    1.0863 C   0  0  0  0  0  0  0  0  0  0  0  0
   -2.8054   -1.7072    1.9389 C   0  0  0  0  0  0  0  0  0  0  0  0
   -4.2113   -1.5737    1.9790 C   0  0  0  0  0  0  0  0  0  0  0  0
   -4.5445   -0.5258    1.1524 C   0  0  0  0  0  0  0  0  0  0  0  0
   -3.3886   -0.0213    0.6136 N   0  0  0  0  0  0  0  0  0  0  0  0
   -3.3374    1.0973   -0.3030 C   0  0  0  0  0  0  0  0  0  0  0  0
    2.2046   -0.1317   -0.0002 C   0  0  0  0  0  0  0  0  0  0  0  0
    3.1052   -0.9569   -0.6816 C   0  0  0  0  0  0  0  0  0  0  0  0
    5.1485   -2.0448   -2.0255 H   0  0  0  0  0  0  0  0  0  0  0  0
    3.9019   -2.2894   -3.2738 H   0  0  0  0  0  0  0  0  0  0  0  0
    5.0852   -0.9663   -3.4189 H   0  0  0  0  0  0  0  0  0  0  0  0
    3.3322    0.7906   -3.5897 H   0  0  0  0  0  0  0  0  0  0  0  0
    1.7563    2.2398   -2.3939 H   0  0  0  0  0  0  0  0  0  0  0  0
    0.8721    2.8654   -0.2947 H   0  0  0  0  0  0  0  0  0  0  0  0
   -0.8704    0.6425    2.4795 H   0  0  0  0  0  0  0  0  0  0  0  0
   -0.2819   -1.3434    0.8747 H   0  0  0  0  0  0  0  0  0  0  0  0
   -0.8189   -0.1669   -0.3484 H   0  0  0  0  0  0  0  0  0  0  0  0
   -2.2120   -2.4361    2.4765 H   0  0  0  0  0  0  0  0  0  0  0  0
   -4.9070   -2.1751    2.5497 H   0  0  0  0  0  0  0  0  0  0  0  0
   -5.5099   -0.1012    0.9095 H   0  0  0  0  0  0  0  0  0  0  0  0
   -2.7985    1.9158    0.1781 H   0  0  0  0  0  0  0  0  0  0  0  0
   -2.8305    0.7776   -1.2165 H   0  0  0  0  0  0  0  0  0  0  0  0
   -4.3541    1.4186   -0.5440 H   0  0  0  0  0  0  0  0  0  0  0  0
    1.9457   -0.3864    1.0231 H   0  0  0  0  0  0  0  0  0  0  0  0
    3.4856   -1.8477   -0.1861 H   0  0  0  0  0  0  0  0  0  0  0  0
  1  2  1  0
  2  3  2  0
  3  4  1  0
  4  5  2  0
  5  6  1  0
  6  7  1  0
  7  8  2  0
  7  9  1  0
  9 10  1  0
 10 11  1  0
 11 12  2  0
 12 13  1  0
 13 14  2  0
 14 15  1  0
 15 16  1  0
  5 17  1  0
 17 18  2  0
 18  2  1  0
 15 11  1  0
  1 19  1  0
  1 20  1  0
  1 21  1  0
  3 22  1  0
  4 23  1  0
  6 24  1  0
  9 25  1  0
 10 26  1  0
 10 27  1  0
 12 28  1  0
 13 29  1  0
 14 30  1  0
 16 31  1  0
 16 32  1  0
 16 33  1  0
 17 34  1  0
 18 35  1  0
M  END
$$$$
