
     RDKit          3D

 50 51  0  0  0  0  0  0  0  0999 V2000
    7.3764   -1.6578    2.8612 C   0  0  0  0  0  0  0  0  0  0  0  0
    6.3709   -1.5090    1.8576 O   0  0  0  0  0  0  0  0  0  0  0  0
    6.2545   -0.2444    1.3793 C   0  0  0  0  0  0  0  0  0  0  0  0
    6.9160    0.7171    1.7383 O   0  0  0  0  0  0  0  0  0  0  0  0
    5.1945   -0.1720    0.3366 C   0  0  0  0  0  0  0  0  0  0  0  0
    4.4355   -1.2866   -0.0435 C   0  0  0  0  0  0  0  0  0  0  0  0
    3.4488   -1.1657   -1.0275 C   0  0  0  0  0  0  0  0  0  0  0  0
    3.2118    0.0676   -1.6500 C   0  0  0  0  0  0  0  0  0  0  0  0
    2.1332    0.2113   -2.6936 C   0  0  0  0  0  0  0  0  0  0  0  0
    0.9146    0.7089   -2.1017 N   0  0  0  0  0  0  0  0  0  0  0  0
    0.5735    2.0429   -2.1371 C   0  0  0  0  0  0  0  0  0  0  0  0
    1.1894    2.8829   -2.7876 O   0  0  0  0  0  0  0  0  0  0  0  0
   -0.6692    2.3961   -1.3221 C   0  0  0  0  0  0  0  0  0  0  0  0
   -1.0141    1.3393   -0.4192 O   0  0  0  0  0  0  0  0  0  0  0  0
   -2.1254    1.6025    0.3251 C   0  0  0  0  0  0  0  0  0  0  0  0
   -2.7868    2.6269    0.2527 O   0  0  0  0  0  0  0  0  0  0  0  0
   -2.3873    0.4475    1.2662 C   0  0  0  0  0  0  0  0  0  0  0  0
   -3.8045    0.4401    1.8444 C   0  0  0  0  0  0  0  0  0  0  0  0
   -4.8992   -0.2060    0.9860 C   0  0  0  0  0  0  0  0  0  0  0  0
   -4.7855   -1.7250    0.8382 C   0  0  0  0  0  0  0  0  0  0  0  0
   -5.6580   -2.0715   -0.3703 C   0  0  0  0  0  0  0  0  0  0  0  0
   -5.9604   -0.7503   -1.0765 C   0  0  0  0  0  0  0  0  0  0  0  0
   -5.0001    0.2602   -0.4629 C   0  0  0  0  0  0  0  0  0  0  0  0
    3.9681    1.1822   -1.2606 C   0  0  0  0  0  0  0  0  0  0  0  0
    4.9534    1.0635   -0.2773 C   0  0  0  0  0  0  0  0  0  0  0  0
    7.3921   -2.7065    3.1716 H   0  0  0  0  0  0  0  0  0  0  0  0
    8.3614   -1.4008    2.4578 H   0  0  0  0  0  0  0  0  0  0  0  0
    7.1409   -1.0413    3.7344 H   0  0  0  0  0  0  0  0  0  0  0  0
    4.6000   -2.2571    0.4183 H   0  0  0  0  0  0  0  0  0  0  0  0
    2.8690   -2.0435   -1.3056 H   0  0  0  0  0  0  0  0  0  0  0  0
    2.4714    0.8700   -3.5012 H   0  0  0  0  0  0  0  0  0  0  0  0
    1.9039   -0.7615   -3.1420 H   0  0  0  0  0  0  0  0  0  0  0  0
    0.4549    0.1424   -1.3988 H   0  0  0  0  0  0  0  0  0  0  0  0
   -0.4444    3.3039   -0.7512 H   0  0  0  0  0  0  0  0  0  0  0  0
   -1.4902    2.5705   -2.0265 H   0  0  0  0  0  0  0  0  0  0  0  0
   -2.1707   -0.4933    0.7522 H   0  0  0  0  0  0  0  0  0  0  0  0
   -1.6709    0.5547    2.0895 H   0  0  0  0  0  0  0  0  0  0  0  0
   -3.7756   -0.0971    2.8015 H   0  0  0  0  0  0  0  0  0  0  0  0
   -4.1110    1.4658    2.0841 H   0  0  0  0  0  0  0  0  0  0  0  0
   -5.8590    0.0052    1.4804 H   0  0  0  0  0  0  0  0  0  0  0  0
   -3.7549   -2.0381    0.6406 H   0  0  0  0  0  0  0  0  0  0  0  0
   -5.1194   -2.2479    1.7404 H   0  0  0  0  0  0  0  0  0  0  0  0
   -6.5877   -2.5611   -0.0606 H   0  0  0  0  0  0  0  0  0  0  0  0
   -5.1298   -2.7631   -1.0357 H   0  0  0  0  0  0  0  0  0  0  0  0
   -5.8425   -0.8247   -2.1618 H   0  0  0  0  0  0  0  0  0  0  0  0
   -6.9964   -0.4525   -0.8743 H   0  0  0  0  0  0  0  0  0  0  0  0
   -5.3732    1.2851   -0.5485 H   0  0  0  0  0  0  0  0  0  0  0  0
   -4.0371    0.1959   -0.9804 H   0  0  0  0  0  0  0  0  0  0  0  0
    3.7889    2.1529   -1.7229 H   0  0  0  0  0  0  0  0  0  0  0  0
    5.5303    1.9417    0.0079 H   0  0  0  0  0  0  0  0  0  0  0  0
  1  2  1  0
  2  3  1  0
  3  4  2  0
  3  5  1  0
  5  6  2  0
  6  7  1  0
  7  8  2  0
  8  9  1  0
  9 10  1  0
 10 11  1  0
 11 12  2  0
 11 13  1  0
 13 14  1  0
 14 15  1  0
 15 16  2  0
 15 17  1  0
 17 18  1  0
 18 19  1  0
 19 20  1  0
 20 21  1  0
 21 22  1  0
 22 23  1  0
  8 24  1  0
 24 25  2  0
 25  5  1  0
 23 19  1  0
  1 26  1  0
  1 27  1  0
  1 28  1  0
  6 29  1  0
  7 30  1  0
  9 31  1  0
  9 32  1  0
 10 33  1  0
 13 34  1  0
 13 35  1  0
 17 36  1  0
 17 37  1  0
 18 38  1  0
 18 39  1  0
 19 40  1  0
 20 41  1  0
 20 42  1  0
 21 43  1  0
 21 44  1  0
 22 45  1  0
 22 46  1  0
 23 47  1  0
 23 48  1  0
 24 49  1  0
 25 50  1  0
M  END
$$$$
