
     RDKit          3D

 45 47  0  0  0  0  0  0  0  0999 V2000
    2.5526    2.0042    0.1381 O   0  0  0  0  0  0  0  0  0  0  0  0
    2.3996    0.7967   -0.0328 C   0  0  0  0  0  0  0  0  0  0  0  0
    3.4428   -0.0363   -0.3925 N   0  0  0  0  0  0  0  0  0  0  0  0
    4.7378    0.5237   -0.3478 N   0  0  0  0  0  0  0  0  0  0  0  0
    5.7573   -0.2681    0.1650 C   0  0  0  0  0  0  0  0  0  0  0  0
    5.5574   -1.4690    0.3652 O   0  0  0  0  0  0  0  0  0  0  0  0
    7.0066    0.4291    0.4399 C   0  0  0  0  0  0  0  0  0  0  0  0
    7.4002    1.7204    0.1288 C   0  0  0  0  0  0  0  0  0  0  0  0
    8.7192    2.0183    0.5849 C   0  0  0  0  0  0  0  0  0  0  0  0
    9.2966    0.9470    1.2255 C   0  0  0  0  0  0  0  0  0  0  0  0
    8.2569   -0.4070    1.2718 S   0  0  0  0  0  0  0  0  0  0  0  0
    1.0713    0.1559    0.1728 C   0  0  0  0  0  0  0  0  0  0  0  0
    0.7330   -1.0691   -0.4224 C   0  0  0  0  0  0  0  0  0  0  0  0
   -0.5300   -1.6288   -0.2064 C   0  0  0  0  0  0  0  0  0  0  0  0
   -1.4539   -0.9555    0.5976 C   0  0  0  0  0  0  0  0  0  0  0  0
   -3.0662   -1.6485    0.8809 S   0  0  0  0  0  6  0  0  0  0  0  0
   -3.2544   -1.7041    2.3143 O   0  0  0  0  0  0  0  0  0  0  0  0
   -3.2103   -2.8282    0.0538 O   0  0  0  0  0  0  0  0  0  0  0  0
   -4.1024   -0.4498    0.2438 N   0  0  0  0  0  0  0  0  0  0  0  0
   -4.0002   -0.1998   -1.2227 C   0  0  0  0  0  0  0  0  0  0  0  0
   -5.2525   -0.6513   -1.9615 C   0  0  0  0  0  0  0  0  0  0  0  0
   -6.4975    0.0762   -1.4589 C   0  0  0  0  0  0  0  0  0  0  0  0
   -6.4023    0.4338    0.0229 C   0  0  0  0  0  0  0  0  0  0  0  0
   -5.4930   -0.5325    0.7709 C   0  0  0  0  0  0  0  0  0  0  0  0
   -1.1305    0.2676    1.1912 C   0  0  0  0  0  0  0  0  0  0  0  0
    0.1309    0.8243    0.9716 C   0  0  0  0  0  0  0  0  0  0  0  0
    3.4088   -1.0386   -0.2026 H   0  0  0  0  0  0  0  0  0  0  0  0
    4.7585    1.5362   -0.2416 H   0  0  0  0  0  0  0  0  0  0  0  0
    6.7866    2.4326   -0.4092 H   0  0  0  0  0  0  0  0  0  0  0  0
    9.2190    2.9696    0.4461 H   0  0  0  0  0  0  0  0  0  0  0  0
   10.2823    0.8904    1.6672 H   0  0  0  0  0  0  0  0  0  0  0  0
    1.4277   -1.5937   -1.0734 H   0  0  0  0  0  0  0  0  0  0  0  0
   -0.7853   -2.5806   -0.6687 H   0  0  0  0  0  0  0  0  0  0  0  0
   -3.8379    0.8750   -1.3680 H   0  0  0  0  0  0  0  0  0  0  0  0
   -3.1291   -0.7030   -1.6537 H   0  0  0  0  0  0  0  0  0  0  0  0
   -5.3853   -1.7320   -1.8237 H   0  0  0  0  0  0  0  0  0  0  0  0
   -5.1395   -0.4851   -3.0387 H   0  0  0  0  0  0  0  0  0  0  0  0
   -7.3749   -0.5569   -1.6375 H   0  0  0  0  0  0  0  0  0  0  0  0
   -6.6568    0.9942   -2.0371 H   0  0  0  0  0  0  0  0  0  0  0  0
   -6.0089    1.4536    0.1228 H   0  0  0  0  0  0  0  0  0  0  0  0
   -7.4040    0.4381    0.4670 H   0  0  0  0  0  0  0  0  0  0  0  0
   -5.8756   -1.5561    0.6824 H   0  0  0  0  0  0  0  0  0  0  0  0
   -5.4837   -0.2574    1.8314 H   0  0  0  0  0  0  0  0  0  0  0  0
   -1.8530    0.7849    1.8195 H   0  0  0  0  0  0  0  0  0  0  0  0
    0.3819    1.7796    1.4304 H   0  0  0  0  0  0  0  0  0  0  0  0
  1  2  2  0
  2  3  1  0
  3  4  1  0
  4  5  1  0
  5  6  2  0
  5  7  1  0
  7  8  2  0
  8  9  1  0
  9 10  2  0
 10 11  1  0
  2 12  1  0
 12 13  2  0
 13 14  1  0
 14 15  2  0
 15 16  1  0
 16 17  2  0
 16 18  2  0
 16 19  1  0
 19 20  1  0
 20 21  1  0
 21 22  1  0
 22 23  1  0
 23 24  1  0
 15 25  1  0
 25 26  2  0
 11  7  1  0
 26 12  1  0
 24 19  1  0
  3 27  1  0
  4 28  1  0
  8 29  1  0
  9 30  1  0
 10 31  1  0
 13 32  1  0
 14 33  1  0
 20 34  1  0
 20 35  1  0
 21 36  1  0
 21 37  1  0
 22 38  1  0
 22 39  1  0
 23 40  1  0
 23 41  1  0
 24 42  1  0
 24 43  1  0
 25 44  1  0
 26 45  1  0
M  END
$$$$
