
     RDKit          3D

 46 49  0  0  0  0  0  0  0  0999 V2000
   -5.4587   -2.1986    0.9600 C   0  0  0  0  0  0  0  0  0  0  0  0
   -4.1310   -1.4614    0.8622 C   0  0  0  0  0  0  0  0  0  0  0  0
   -3.8037   -0.9566   -0.5606 C   0  0  0  0  0  0  0  0  0  0  0  0
   -4.8066    0.0710   -1.1084 C   0  0  0  0  0  0  0  0  0  0  0  0
   -4.6628    1.4351   -0.4452 C   0  0  0  0  0  0  0  0  0  0  0  0
   -3.2341    1.9356   -0.6029 C   0  0  0  0  0  0  0  0  0  0  0  0
   -2.2174    0.9298   -0.0726 C   0  0  0  0  0  0  0  0  0  0  0  0
   -2.4261   -0.4231   -0.6006 N   0  0  0  0  0  0  0  0  0  0  0  0
   -1.3845   -1.3394   -0.8436 C   0  0  0  0  0  0  0  0  0  0  0  0
   -1.6216   -2.4699   -1.2696 O   0  0  0  0  0  0  0  0  0  0  0  0
   -0.0253   -0.9183   -0.5545 C   0  0  0  0  0  0  0  0  0  0  0  0
    0.5348   -0.5415    0.6513 C   0  0  0  0  0  0  0  0  0  0  0  0
    1.9173   -0.2183    0.5148 C   0  0  0  0  0  0  0  0  0  0  0  0
    2.8540    0.2287    1.5242 C   0  0  0  0  0  0  0  0  0  0  0  0
    2.4958    0.4009    2.6883 O   0  0  0  0  0  0  0  0  0  0  0  0
    4.1586    0.4443    1.0466 N   0  0  0  0  0  0  0  0  0  0  0  0
    5.1272    0.8697    1.9499 C   0  0  0  0  0  0  0  0  0  0  0  0
    6.3899    1.1026    1.5790 C   0  0  0  0  0  0  0  0  0  0  0  0
    6.7834    0.9154    0.2110 C   0  0  0  0  0  0  0  0  0  0  0  0
    5.9039    0.5073   -0.7165 C   0  0  0  0  0  0  0  0  0  0  0  0
    6.2653    0.2961   -2.1538 C   0  0  0  0  0  0  0  0  0  0  0  0
    4.4774    0.2414   -0.3102 C   0  0  0  0  0  0  0  0  0  0  0  0
    3.6265   -0.1536   -1.2153 N   0  0  0  0  0  0  0  0  0  0  0  0
    2.3692   -0.3771   -0.7715 C   0  0  0  0  0  0  0  0  0  0  0  0
    1.1342   -0.9216   -1.8146 S   0  0  0  0  0  0  0  0  0  0  0  0
   -5.5713   -2.6352    1.9578 H   0  0  0  0  0  0  0  0  0  0  0  0
   -6.3058   -1.5259    0.7995 H   0  0  0  0  0  0  0  0  0  0  0  0
   -5.5136   -3.0105    0.2281 H   0  0  0  0  0  0  0  0  0  0  0  0
   -4.1271   -0.6334    1.5800 H   0  0  0  0  0  0  0  0  0  0  0  0
   -3.3383   -2.1469    1.1886 H   0  0  0  0  0  0  0  0  0  0  0  0
   -3.8549   -1.8261   -1.2280 H   0  0  0  0  0  0  0  0  0  0  0  0
   -4.6271    0.1910   -2.1855 H   0  0  0  0  0  0  0  0  0  0  0  0
   -5.8365   -0.2860   -1.0115 H   0  0  0  0  0  0  0  0  0  0  0  0
   -5.3557    2.1464   -0.9086 H   0  0  0  0  0  0  0  0  0  0  0  0
   -4.9277    1.3756    0.6163 H   0  0  0  0  0  0  0  0  0  0  0  0
   -3.0356    2.1196   -1.6665 H   0  0  0  0  0  0  0  0  0  0  0  0
   -3.1134    2.8936   -0.0851 H   0  0  0  0  0  0  0  0  0  0  0  0
   -1.2199    1.2951   -0.3307 H   0  0  0  0  0  0  0  0  0  0  0  0
   -2.2762    0.8688    1.0202 H   0  0  0  0  0  0  0  0  0  0  0  0
   -0.0132   -0.5032    1.5859 H   0  0  0  0  0  0  0  0  0  0  0  0
    4.8158    1.0072    2.9828 H   0  0  0  0  0  0  0  0  0  0  0  0
    7.1341    1.4335    2.2965 H   0  0  0  0  0  0  0  0  0  0  0  0
    7.8199    1.1156   -0.0451 H   0  0  0  0  0  0  0  0  0  0  0  0
    6.0865   -0.7435   -2.4474 H   0  0  0  0  0  0  0  0  0  0  0  0
    7.3218    0.5148   -2.3432 H   0  0  0  0  0  0  0  0  0  0  0  0
    5.6723    0.9511   -2.8005 H   0  0  0  0  0  0  0  0  0  0  0  0
  1  2  1  0
  2  3  1  0
  3  4  1  0
  4  5  1  0
  5  6  1  0
  6  7  1  0
  7  8  1  0
  8  9  1  0
  9 10  2  0
  9 11  1  0
 11 12  2  0
 12 13  1  0
 13 14  1  0
 14 15  2  0
 14 16  1  0
 16 17  1  0
 17 18  2  0
 18 19  1  0
 19 20  2  0
 20 21  1  0
 20 22  1  0
 22 23  2  0
 23 24  1  0
 24 25  1  0
  8  3  1  0
 25 11  1  0
 24 13  2  0
 22 16  1  0
  1 26  1  0
  1 27  1  0
  1 28  1  0
  2 29  1  0
  2 30  1  0
  3 31  1  0
  4 32  1  0
  4 33  1  0
  5 34  1  0
  5 35  1  0
  6 36  1  0
  6 37  1  0
  7 38  1  0
  7 39  1  0
 12 40  1  0
 17 41  1  0
 18 42  1  0
 19 43  1  0
 21 44  1  0
 21 45  1  0
 21 46  1  0
M  END
$$$$
