
     RDKit          3D

 45 46  0  0  0  0  0  0  0  0999 V2000
    4.4562   -2.6021   -1.5786 C   0  0  0  0  0  0  0  0  0  0  0  0
    3.4195   -2.7443   -0.5041 C   0  0  0  0  0  0  0  0  0  0  0  0
    3.4279   -3.8410    0.3608 C   0  0  0  0  0  0  0  0  0  0  0  0
    2.4580   -3.9546    1.3551 C   0  0  0  0  0  0  0  0  0  0  0  0
    1.4808   -2.9664    1.5053 C   0  0  0  0  0  0  0  0  0  0  0  0
    1.4751   -1.8464    0.6753 C   0  0  0  0  0  0  0  0  0  0  0  0
    0.5071   -0.8215    0.7350 N   0  0  0  0  0  0  0  0  0  0  0  0
   -0.3239   -0.3892    1.7655 C   0  0  0  0  0  0  0  0  0  0  0  0
   -0.0647   -0.6680    3.4014 S   0  0  0  0  0  0  0  0  0  0  0  0
   -1.3972    0.3848    1.2537 N   0  0  0  0  0  0  0  0  0  0  0  0
   -2.0548   -0.0345   -0.0029 C   0  0  0  0  0  0  0  0  0  0  0  0
   -1.8788    0.9836   -1.1458 C   0  0  0  0  0  0  0  0  0  0  0  0
   -2.4761    0.5558   -2.4262 N   0  0  0  0  0  0  0  0  0  0  0  0
   -1.7331   -0.5506   -3.0359 C   0  0  0  0  0  0  0  0  0  0  0  0
   -2.5178    1.6883   -3.3577 C   0  0  0  0  0  0  0  0  0  0  0  0
   -2.1640    1.3293    2.0865 C   0  0  0  0  0  0  0  0  0  0  0  0
   -1.3505    2.5554    2.4048 C   0  0  0  0  0  0  0  0  0  0  0  0
   -0.8530    2.9519    3.6330 C   0  0  0  0  0  0  0  0  0  0  0  0
   -0.1386    4.1825    3.5660 C   0  0  0  0  0  0  0  0  0  0  0  0
   -0.1242    4.6986    2.2910 C   0  0  0  0  0  0  0  0  0  0  0  0
   -0.9695    3.7050    1.1887 S   0  0  0  0  0  0  0  0  0  0  0  0
    2.4379   -1.7546   -0.3404 C   0  0  0  0  0  0  0  0  0  0  0  0
    5.0551   -3.5131   -1.6807 H   0  0  0  0  0  0  0  0  0  0  0  0
    5.1316   -1.7735   -1.3428 H   0  0  0  0  0  0  0  0  0  0  0  0
    3.9773   -2.4120   -2.5449 H   0  0  0  0  0  0  0  0  0  0  0  0
    4.1823   -4.6183    0.2631 H   0  0  0  0  0  0  0  0  0  0  0  0
    2.4550   -4.8187    2.0148 H   0  0  0  0  0  0  0  0  0  0  0  0
    0.7192   -3.1188    2.2621 H   0  0  0  0  0  0  0  0  0  0  0  0
    0.5431   -0.1583   -0.0270 H   0  0  0  0  0  0  0  0  0  0  0  0
   -1.6706   -1.0162   -0.2954 H   0  0  0  0  0  0  0  0  0  0  0  0
   -3.1205   -0.1886    0.2090 H   0  0  0  0  0  0  0  0  0  0  0  0
   -2.3739    1.9092   -0.8297 H   0  0  0  0  0  0  0  0  0  0  0  0
   -0.8163    1.2261   -1.2765 H   0  0  0  0  0  0  0  0  0  0  0  0
   -0.6778   -0.3010   -3.1967 H   0  0  0  0  0  0  0  0  0  0  0  0
   -1.7870   -1.4540   -2.4208 H   0  0  0  0  0  0  0  0  0  0  0  0
   -2.1720   -0.8208   -4.0035 H   0  0  0  0  0  0  0  0  0  0  0  0
   -2.9949    1.3958   -4.3000 H   0  0  0  0  0  0  0  0  0  0  0  0
   -1.5172    2.0757   -3.5820 H   0  0  0  0  0  0  0  0  0  0  0  0
   -3.1209    2.5050   -2.9457 H   0  0  0  0  0  0  0  0  0  0  0  0
   -2.4970    0.8264    3.0003 H   0  0  0  0  0  0  0  0  0  0  0  0
   -3.0717    1.6361    1.5521 H   0  0  0  0  0  0  0  0  0  0  0  0
   -0.9857    2.3767    4.5422 H   0  0  0  0  0  0  0  0  0  0  0  0
    0.3398    4.6619    4.4110 H   0  0  0  0  0  0  0  0  0  0  0  0
    0.3409    5.6147    1.9535 H   0  0  0  0  0  0  0  0  0  0  0  0
    2.4447   -0.8964   -1.0082 H   0  0  0  0  0  0  0  0  0  0  0  0
  1  2  1  0
  2  3  2  0
  3  4  1  0
  4  5  2  0
  5  6  1  0
  6  7  1  0
  7  8  1  0
  8  9  2  0
  8 10  1  0
 10 11  1  0
 11 12  1  0
 12 13  1  0
 13 14  1  0
 13 15  1  0
 10 16  1  0
 16 17  1  0
 17 18  2  0
 18 19  1  0
 19 20  2  0
 20 21  1  0
  6 22  2  0
 22  2  1  0
 21 17  1  0
  1 23  1  0
  1 24  1  0
  1 25  1  0
  3 26  1  0
  4 27  1  0
  5 28  1  0
  7 29  1  0
 11 30  1  0
 11 31  1  0
 12 32  1  0
 12 33  1  0
 14 34  1  0
 14 35  1  0
 14 36  1  0
 15 37  1  0
 15 38  1  0
 15 39  1  0
 16 40  1  0
 16 41  1  0
 18 42  1  0
 19 43  1  0
 20 44  1  0
 22 45  1  0
M  END
$$$$
