
     RDKit          3D

 33 34  0  0  0  0  0  0  0  0999 V2000
   -5.6212    0.9998    0.9826 C   0  0  0  0  0  0  0  0  0  0  0  0
   -4.6211   -0.0114    0.9510 O   0  0  0  0  0  0  0  0  0  0  0  0
   -3.3304    0.3982    0.7578 C   0  0  0  0  0  0  0  0  0  0  0  0
   -2.9036    1.7154    0.6150 C   0  0  0  0  0  0  0  0  0  0  0  0
   -1.5462    1.9891    0.4308 C   0  0  0  0  0  0  0  0  0  0  0  0
   -0.6027    0.9499    0.3930 C   0  0  0  0  0  0  0  0  0  0  0  0
    0.8201    1.3461    0.1890 C   0  0  0  0  0  0  0  0  0  0  0  0
    1.0529    2.3162   -0.5362 O   0  0  0  0  0  0  0  0  0  0  0  0
    1.9222    0.6380    0.9478 C   0  0  0  0  0  0  0  0  0  0  0  0
    2.8584   -0.0205   -0.0050 C   0  0  0  0  0  0  0  0  0  0  0  0
    2.8509   -1.3048   -0.3009 N   0  0  0  0  0  0  0  0  0  0  0  0
    3.8401   -1.6449   -1.1998 N   0  0  0  0  0  0  0  0  0  0  0  0
    4.5752   -0.6092   -1.5432 C   0  0  0  0  0  0  0  0  0  0  0  0
    5.7107   -0.6505   -2.4970 C   0  0  0  0  0  0  0  0  0  0  0  0
    4.1225    0.8584   -0.7769 S   0  0  0  0  0  0  0  0  0  0  0  0
   -1.0304   -0.3805    0.5036 C   0  0  0  0  0  0  0  0  0  0  0  0
   -0.0804   -1.3560    0.4103 O   0  0  0  0  0  0  0  0  0  0  0  0
   -0.5147   -2.6795    0.1188 C   0  0  0  0  0  0  0  0  0  0  0  0
   -2.3925   -0.6403    0.7027 C   0  0  0  0  0  0  0  0  0  0  0  0
   -5.6661    1.5406    0.0315 H   0  0  0  0  0  0  0  0  0  0  0  0
   -5.4617    1.6854    1.8213 H   0  0  0  0  0  0  0  0  0  0  0  0
   -6.5878    0.5092    1.1327 H   0  0  0  0  0  0  0  0  0  0  0  0
   -3.5950    2.5512    0.6393 H   0  0  0  0  0  0  0  0  0  0  0  0
   -1.2240    3.0230    0.3146 H   0  0  0  0  0  0  0  0  0  0  0  0
    2.4421    1.3935    1.5502 H   0  0  0  0  0  0  0  0  0  0  0  0
    1.5268   -0.0814    1.6697 H   0  0  0  0  0  0  0  0  0  0  0  0
    5.5145   -0.0109   -3.3633 H   0  0  0  0  0  0  0  0  0  0  0  0
    5.8686   -1.6709   -2.8611 H   0  0  0  0  0  0  0  0  0  0  0  0
    6.6366   -0.3183   -2.0171 H   0  0  0  0  0  0  0  0  0  0  0  0
   -1.1667   -2.7031   -0.7610 H   0  0  0  0  0  0  0  0  0  0  0  0
   -1.0076   -3.1257    0.9883 H   0  0  0  0  0  0  0  0  0  0  0  0
    0.3718   -3.2803   -0.1068 H   0  0  0  0  0  0  0  0  0  0  0  0
   -2.7614   -1.6555    0.8183 H   0  0  0  0  0  0  0  0  0  0  0  0
  1  2  1  0
  2  3  1  0
  3  4  2  0
  4  5  1  0
  5  6  2  0
  6  7  1  0
  7  8  2  0
  7  9  1  0
  9 10  1  0
 10 11  2  0
 11 12  1  0
 12 13  2  0
 13 14  1  0
 13 15  1  0
  6 16  1  0
 16 17  1  0
 17 18  1  0
 16 19  2  0
 19  3  1  0
 15 10  1  0
  1 20  1  0
  1 21  1  0
  1 22  1  0
  4 23  1  0
  5 24  1  0
  9 25  1  0
  9 26  1  0
 14 27  1  0
 14 28  1  0
 14 29  1  0
 18 30  1  0
 18 31  1  0
 18 32  1  0
 19 33  1  0
M  END
$$$$
