
     RDKit          3D

 48 50  0  0  0  0  0  0  0  0999 V2000
    3.9659    1.0412   -2.1919 O   0  0  0  0  0  0  0  0  0  0  0  0
    3.3152    0.1849   -1.6019 C   0  0  0  0  0  0  0  0  0  0  0  0
    2.1386   -0.5297   -2.2854 C   0  0  0  0  0  0  0  0  0  0  0  0
    1.0692   -0.8743   -1.3092 N   0  0  0  0  0  0  0  0  0  0  0  0
    0.3746    0.3599   -0.8522 C   0  0  0  0  0  0  0  0  0  0  0  0
   -1.0275    0.0949   -0.2669 C   0  0  0  0  0  0  0  0  0  0  0  0
   -1.9147   -0.5585   -1.2365 N   0  0  0  0  0  0  0  0  0  0  0  0
   -3.2164   -0.1450   -1.4577 C   0  0  0  0  0  0  0  0  0  0  0  0
   -3.7217   -0.1919   -2.5799 O   0  0  0  0  0  0  0  0  0  0  0  0
   -3.9267    0.3235   -0.3682 N   0  0  0  0  0  0  0  0  0  0  0  0
   -5.2214    0.9543   -0.6291 C   0  0  0  0  0  0  0  0  0  0  0  0
   -5.7795    1.6037    0.6384 C   0  0  0  0  0  0  0  0  0  0  0  0
   -5.9554    0.6856    1.7291 O   0  0  0  0  0  0  0  0  0  0  0  0
   -5.1463   -0.4941    1.6294 C   0  0  0  0  0  0  0  0  0  0  0  0
   -3.7805   -0.2336    0.9822 C   0  0  0  0  0  0  0  0  0  0  0  0
   -1.2382   -1.2427   -2.3380 C   0  0  0  0  0  0  0  0  0  0  0  0
    0.1099   -1.8396   -1.9018 C   0  0  0  0  0  0  0  0  0  0  0  0
    3.5452   -0.3017   -0.3264 N   0  0  0  0  0  0  0  0  0  0  0  0
    4.5459    0.0723    0.5846 C   0  0  0  0  0  0  0  0  0  0  0  0
    4.5203   -0.5348    1.8471 C   0  0  0  0  0  0  0  0  0  0  0  0
    5.4817   -0.2170    2.8111 C   0  0  0  0  0  0  0  0  0  0  0  0
    6.4752    0.7112    2.5131 C   0  0  0  0  0  0  0  0  0  0  0  0
    7.7770    1.1448    3.8122 Br  0  0  0  0  0  0  0  0  0  0  0  0
    6.5139    1.3204    1.2620 C   0  0  0  0  0  0  0  0  0  0  0  0
    5.5500    0.9998    0.2993 C   0  0  0  0  0  0  0  0  0  0  0  0
    1.7540    0.0936   -3.1009 H   0  0  0  0  0  0  0  0  0  0  0  0
    2.5636   -1.4428   -2.7207 H   0  0  0  0  0  0  0  0  0  0  0  0
    0.9830    0.8548   -0.0872 H   0  0  0  0  0  0  0  0  0  0  0  0
    0.2610    1.0673   -1.6850 H   0  0  0  0  0  0  0  0  0  0  0  0
   -0.9421   -0.5687    0.6009 H   0  0  0  0  0  0  0  0  0  0  0  0
   -1.4614    1.0451    0.0607 H   0  0  0  0  0  0  0  0  0  0  0  0
   -5.1044    1.6955   -1.4273 H   0  0  0  0  0  0  0  0  0  0  0  0
   -5.9028    0.1728   -0.9874 H   0  0  0  0  0  0  0  0  0  0  0  0
   -6.7511    2.0646    0.4348 H   0  0  0  0  0  0  0  0  0  0  0  0
   -5.1061    2.3958    0.9858 H   0  0  0  0  0  0  0  0  0  0  0  0
   -5.7084   -1.2406    1.0561 H   0  0  0  0  0  0  0  0  0  0  0  0
   -5.0151   -0.8897    2.6415 H   0  0  0  0  0  0  0  0  0  0  0  0
   -3.2060   -1.1640    0.9537 H   0  0  0  0  0  0  0  0  0  0  0  0
   -3.2369    0.5120    1.5725 H   0  0  0  0  0  0  0  0  0  0  0  0
   -1.0909   -0.5210   -3.1513 H   0  0  0  0  0  0  0  0  0  0  0  0
   -1.8965   -2.0341   -2.7152 H   0  0  0  0  0  0  0  0  0  0  0  0
   -0.0895   -2.5915   -1.1269 H   0  0  0  0  0  0  0  0  0  0  0  0
    0.5538   -2.3912   -2.7393 H   0  0  0  0  0  0  0  0  0  0  0  0
    2.8422   -0.9675   -0.0146 H   0  0  0  0  0  0  0  0  0  0  0  0
    3.7532   -1.2633    2.0973 H   0  0  0  0  0  0  0  0  0  0  0  0
    5.4460   -0.6981    3.7848 H   0  0  0  0  0  0  0  0  0  0  0  0
    7.2868    2.0452    1.0194 H   0  0  0  0  0  0  0  0  0  0  0  0
    5.6132    1.4921   -0.6664 H   0  0  0  0  0  0  0  0  0  0  0  0
  1  2  2  0
  2  3  1  0
  3  4  1  0
  4  5  1  0
  5  6  1  0
  6  7  1  0
  7  8  1  0
  8  9  2  0
  8 10  1  0
 10 11  1  0
 11 12  1  0
 12 13  1  0
 13 14  1  0
 14 15  1  0
  7 16  1  0
 16 17  1  0
  2 18  1  0
 18 19  1  0
 19 20  2  0
 20 21  1  0
 21 22  2  0
 22 23  1  0
 22 24  1  0
 24 25  2  0
 17  4  1  0
 25 19  1  0
 15 10  1  0
  3 26  1  0
  3 27  1  0
  5 28  1  0
  5 29  1  0
  6 30  1  0
  6 31  1  0
 11 32  1  0
 11 33  1  0
 12 34  1  0
 12 35  1  0
 14 36  1  0
 14 37  1  0
 15 38  1  0
 15 39  1  0
 16 40  1  0
 16 41  1  0
 17 42  1  0
 17 43  1  0
 18 44  1  0
 20 45  1  0
 21 46  1  0
 24 47  1  0
 25 48  1  0
M  END
$$$$
