
     RDKit          3D

 46 48  0  0  0  0  0  0  0  0999 V2000
   -3.9918    3.6528   -1.6089 C   0  0  0  0  0  0  0  0  0  0  0  0
   -2.8648    3.9055   -0.6267 C   0  0  0  0  0  0  0  0  0  0  0  0
   -1.7061    3.2048   -1.0869 O   0  0  0  0  0  0  0  0  0  0  0  0
   -0.6346    3.3314   -0.2827 C   0  0  0  0  0  0  0  0  0  0  0  0
   -0.5418    3.9396    0.7686 O   0  0  0  0  0  0  0  0  0  0  0  0
    0.5106    2.5256   -0.8254 C   0  0  0  0  0  0  0  0  0  0  0  0
    1.0168    2.7017   -2.0092 N   0  0  0  0  0  0  0  0  0  0  0  0
    2.0827    1.8471   -2.0996 N   0  0  0  0  0  0  0  0  0  0  0  0
    2.2815    1.0544   -0.8791 C   0  0  0  0  0  0  0  0  0  0  0  0
    2.4701   -0.4235   -1.2354 C   0  0  0  0  0  0  0  0  0  0  0  0
    2.3279   -0.8395   -2.3871 O   0  0  0  0  0  0  0  0  0  0  0  0
    2.8460   -1.3859   -0.1565 C   0  0  0  0  0  0  0  0  0  0  0  0
    3.4114   -0.9731    1.0565 C   0  0  0  0  0  0  0  0  0  0  0  0
    3.7278   -1.9173    2.0373 C   0  0  0  0  0  0  0  0  0  0  0  0
    3.4859   -3.2716    1.8117 C   0  0  0  0  0  0  0  0  0  0  0  0
    2.9318   -3.6891    0.6035 C   0  0  0  0  0  0  0  0  0  0  0  0
    2.6156   -2.7503   -0.3794 C   0  0  0  0  0  0  0  0  0  0  0  0
    1.0923    1.4285    0.0176 C   0  0  0  0  0  0  0  0  0  0  0  0
    0.0718    0.3538    0.3261 C   0  0  0  0  0  0  0  0  0  0  0  0
   -0.1569   -0.0270    1.6542 C   0  0  0  0  0  0  0  0  0  0  0  0
   -1.0874   -1.0248    1.9545 C   0  0  0  0  0  0  0  0  0  0  0  0
   -1.8089   -1.6585    0.9418 C   0  0  0  0  0  0  0  0  0  0  0  0
   -2.6832   -2.6162    1.3750 O   0  0  0  0  0  0  0  0  0  0  0  0
   -3.4306   -3.3008    0.3774 C   0  0  0  0  0  0  0  0  0  0  0  0
   -1.5937   -1.2809   -0.3818 C   0  0  0  0  0  0  0  0  0  0  0  0
   -0.6630   -0.2818   -0.6871 C   0  0  0  0  0  0  0  0  0  0  0  0
   -3.7139    3.9959   -2.6110 H   0  0  0  0  0  0  0  0  0  0  0  0
   -4.2021    2.5808   -1.6865 H   0  0  0  0  0  0  0  0  0  0  0  0
   -4.9038    4.1702   -1.2984 H   0  0  0  0  0  0  0  0  0  0  0  0
   -3.1507    3.5390    0.3657 H   0  0  0  0  0  0  0  0  0  0  0  0
   -2.6512    4.9791   -0.5752 H   0  0  0  0  0  0  0  0  0  0  0  0
    2.2137    1.4008   -3.0127 H   0  0  0  0  0  0  0  0  0  0  0  0
    3.2223    1.4355   -0.4658 H   0  0  0  0  0  0  0  0  0  0  0  0
    3.6277    0.0691    1.2668 H   0  0  0  0  0  0  0  0  0  0  0  0
    4.1672   -1.5979    2.9797 H   0  0  0  0  0  0  0  0  0  0  0  0
    3.7318   -4.0038    2.5773 H   0  0  0  0  0  0  0  0  0  0  0  0
    2.7436   -4.7450    0.4255 H   0  0  0  0  0  0  0  0  0  0  0  0
    2.1789   -3.0879   -1.3177 H   0  0  0  0  0  0  0  0  0  0  0  0
    1.4630    1.8787    0.9469 H   0  0  0  0  0  0  0  0  0  0  0  0
    0.3837    0.4432    2.4731 H   0  0  0  0  0  0  0  0  0  0  0  0
   -1.2521   -1.3128    2.9903 H   0  0  0  0  0  0  0  0  0  0  0  0
   -4.0804   -2.6112   -0.1716 H   0  0  0  0  0  0  0  0  0  0  0  0
   -4.0711   -4.0307    0.8818 H   0  0  0  0  0  0  0  0  0  0  0  0
   -2.7713   -3.8503   -0.3027 H   0  0  0  0  0  0  0  0  0  0  0  0
   -2.1296   -1.7431   -1.2044 H   0  0  0  0  0  0  0  0  0  0  0  0
   -0.5151   -0.0144   -1.7343 H   0  0  0  0  0  0  0  0  0  0  0  0
  1  2  1  0
  2  3  1  0
  3  4  1  0
  4  5  2  0
  4  6  1  0
  6  7  2  0
  7  8  1  0
  8  9  1  0
  9 10  1  0
 10 11  2  0
 10 12  1  0
 12 13  2  0
 13 14  1  0
 14 15  2  0
 15 16  1  0
 16 17  2  0
  9 18  1  0
 18 19  1  0
 19 20  2  0
 20 21  1  0
 21 22  2  0
 22 23  1  0
 23 24  1  0
 22 25  1  0
 25 26  2  0
 18  6  1  0
 26 19  1  0
 17 12  1  0
  1 27  1  0
  1 28  1  0
  1 29  1  0
  2 30  1  0
  2 31  1  0
  8 32  1  0
  9 33  1  0
 13 34  1  0
 14 35  1  0
 15 36  1  0
 16 37  1  0
 17 38  1  0
 18 39  1  0
 20 40  1  0
 21 41  1  0
 24 42  1  0
 24 43  1  0
 24 44  1  0
 25 45  1  0
 26 46  1  0
M  END
$$$$
