
     RDKit          3D

 31 33  0  0  0  0  0  0  0  0999 V2000
    1.6941   -0.8605    1.5062 O   0  0  0  0  0  0  0  0  0  0  0  0
    2.2365   -0.6214    0.4316 C   0  0  0  0  0  0  0  0  0  0  0  0
    1.5742   -0.6653   -0.7856 N   0  0  0  0  0  0  0  0  0  0  0  0
    0.1716   -0.7878   -0.7171 N   0  0  0  0  0  0  0  0  0  0  0  0
   -0.5896    0.3613   -0.6025 C   0  0  0  0  0  0  0  0  0  0  0  0
   -0.1706    1.5101   -0.6651 O   0  0  0  0  0  0  0  0  0  0  0  0
   -2.0232   -0.0156   -0.4460 C   0  0  0  0  0  0  0  0  0  0  0  0
   -2.9526    0.9320   -0.2611 C   0  0  0  0  0  0  0  0  0  0  0  0
   -4.3494    0.7040   -0.0894 C   0  0  0  0  0  0  0  0  0  0  0  0
   -5.2174   -0.1887   -0.6968 C   0  0  0  0  0  0  0  0  0  0  0  0
   -6.5601   -0.0739   -0.2302 C   0  0  0  0  0  0  0  0  0  0  0  0
   -6.6929    0.9180    0.7116 C   0  0  0  0  0  0  0  0  0  0  0  0
   -5.2125    1.7086    1.0200 S   0  0  0  0  0  0  0  0  0  0  0  0
   -2.1943   -1.7319   -0.5028 S   0  0  0  0  0  0  0  0  0  0  0  0
   -0.4671   -2.0095   -0.7080 C   0  0  0  0  0  0  0  0  0  0  0  0
    0.2039   -3.5236   -0.9047 S   0  0  0  0  0  0  0  0  0  0  0  0
    3.6600   -0.2198    0.3912 C   0  0  0  0  0  0  0  0  0  0  0  0
    4.2395    0.3901    1.5056 C   0  0  0  0  0  0  0  0  0  0  0  0
    5.5796    0.7677    1.4607 C   0  0  0  0  0  0  0  0  0  0  0  0
    6.2952    0.5152    0.3009 C   0  0  0  0  0  0  0  0  0  0  0  0
    5.7689   -0.0860   -0.7898 N   0  0  0  0  0  0  0  0  0  0  0  0
    4.4662   -0.4517   -0.7154 C   0  0  0  0  0  0  0  0  0  0  0  0
    1.9050   -0.0751   -1.5437 H   0  0  0  0  0  0  0  0  0  0  0  0
   -2.6233    1.9699   -0.2009 H   0  0  0  0  0  0  0  0  0  0  0  0
   -4.9150   -0.9002   -1.4555 H   0  0  0  0  0  0  0  0  0  0  0  0
   -7.3851   -0.6857   -0.5742 H   0  0  0  0  0  0  0  0  0  0  0  0
   -7.5915    1.2238    1.2298 H   0  0  0  0  0  0  0  0  0  0  0  0
    3.6519    0.5727    2.4027 H   0  0  0  0  0  0  0  0  0  0  0  0
    6.0536    1.2463    2.3109 H   0  0  0  0  0  0  0  0  0  0  0  0
    7.3426    0.7931    0.2175 H   0  0  0  0  0  0  0  0  0  0  0  0
    4.1016   -0.9662   -1.5996 H   0  0  0  0  0  0  0  0  0  0  0  0
  1  2  2  0
  2  3  1  0
  3  4  1  0
  4  5  1  0
  5  6  2  0
  5  7  1  0
  7  8  2  3
  8  9  1  0
  9 10  2  0
 10 11  1  0
 11 12  2  0
 12 13  1  0
  7 14  1  0
 14 15  1  0
 15 16  2  0
  2 17  1  0
 17 18  2  0
 18 19  1  0
 19 20  2  0
 20 21  1  0
 21 22  2  0
 15  4  1  0
 22 17  1  0
 13  9  1  0
  3 23  1  0
  8 24  1  0
 10 25  1  0
 11 26  1  0
 12 27  1  0
 18 28  1  0
 19 29  1  0
 20 30  1  0
 22 31  1  0
M  END
$$$$
