
     RDKit          3D

 35 37  0  0  0  0  0  0  0  0999 V2000
   -2.0994   -2.4650    0.4584 C   0  0  0  0  0  0  0  0  0  0  0  0
   -1.2554   -1.2489    0.2716 C   0  0  0  0  0  0  0  0  0  0  0  0
    0.0520   -1.2815    0.3334 N   0  0  0  0  0  0  0  0  0  0  0  0
    0.4655    0.0367    0.1636 N   0  0  0  0  0  0  0  0  0  0  0  0
    1.7978    0.3683    0.1898 C   0  0  0  0  0  0  0  0  0  0  0  0
    2.3695    1.5446    0.0514 N   0  0  0  0  0  0  0  0  0  0  0  0
    3.7198    1.3174    0.1586 C   0  0  0  0  0  0  0  0  0  0  0  0
    4.7901    2.2203    0.0875 C   0  0  0  0  0  0  0  0  0  0  0  0
    6.0941    1.7284    0.2303 C   0  0  0  0  0  0  0  0  0  0  0  0
    6.3268    0.3662    0.4393 C   0  0  0  0  0  0  0  0  0  0  0  0
    5.2711   -0.5504    0.5131 C   0  0  0  0  0  0  0  0  0  0  0  0
    3.9834   -0.0315    0.3673 C   0  0  0  0  0  0  0  0  0  0  0  0
    2.7432   -0.6087    0.3823 N   0  0  0  0  0  0  0  0  0  0  0  0
   -0.5595    0.9707   -0.0127 C   0  0  0  0  0  0  0  0  0  0  0  0
   -0.5666    2.1773   -0.1705 O   0  0  0  0  0  0  0  0  0  0  0  0
   -1.7665    0.1062    0.0188 C   0  0  0  0  0  0  0  0  0  0  0  0
   -3.0014    0.5918   -0.1452 C   0  0  0  0  0  0  0  0  0  0  0  0
   -4.2354   -0.0531   -0.2145 N   0  0  0  0  0  0  0  0  0  0  0  0
   -5.4320    0.6944    0.2084 C   0  0  0  0  0  0  0  0  0  0  0  0
   -4.5167   -0.9267   -1.3660 C   0  0  0  0  0  0  0  0  0  0  0  0
   -2.2695   -2.9435   -0.5090 H   0  0  0  0  0  0  0  0  0  0  0  0
   -3.0538   -2.2177    0.9267 H   0  0  0  0  0  0  0  0  0  0  0  0
   -1.5769   -3.1739    1.1080 H   0  0  0  0  0  0  0  0  0  0  0  0
    4.6003    3.2754   -0.0747 H   0  0  0  0  0  0  0  0  0  0  0  0
    6.9332    2.4181    0.1774 H   0  0  0  0  0  0  0  0  0  0  0  0
    7.3497    0.0107    0.5471 H   0  0  0  0  0  0  0  0  0  0  0  0
    5.4519   -1.6072    0.6755 H   0  0  0  0  0  0  0  0  0  0  0  0
    2.5178   -1.5830    0.5113 H   0  0  0  0  0  0  0  0  0  0  0  0
   -3.1128    1.6757   -0.2270 H   0  0  0  0  0  0  0  0  0  0  0  0
   -5.6945    1.4583   -0.5316 H   0  0  0  0  0  0  0  0  0  0  0  0
   -5.2564    1.1838    1.1727 H   0  0  0  0  0  0  0  0  0  0  0  0
   -6.2836    0.0170    0.3331 H   0  0  0  0  0  0  0  0  0  0  0  0
   -5.2683   -1.6755   -1.0953 H   0  0  0  0  0  0  0  0  0  0  0  0
   -3.6226   -1.4571   -1.7056 H   0  0  0  0  0  0  0  0  0  0  0  0
   -4.8949   -0.3379   -2.2093 H   0  0  0  0  0  0  0  0  0  0  0  0
  1  2  1  0
  2  3  2  0
  3  4  1  0
  4  5  1  0
  5  6  2  0
  6  7  1  0
  7  8  2  0
  8  9  1  0
  9 10  2  0
 10 11  1  0
 11 12  2  0
 12 13  1  0
  4 14  1  0
 14 15  2  0
 14 16  1  0
 16 17  2  3
 17 18  1  0
 18 19  1  0
 18 20  1  0
 16  2  1  0
 13  5  1  0
 12  7  1  0
  1 21  1  0
  1 22  1  0
  1 23  1  0
  8 24  1  0
  9 25  1  0
 10 26  1  0
 11 27  1  0
 13 28  1  0
 17 29  1  0
 19 30  1  0
 19 31  1  0
 19 32  1  0
 20 33  1  0
 20 34  1  0
 20 35  1  0
M  END
$$$$
