
     RDKit          3D

 66 68  0  0  0  0  0  0  0  0999 V2000
    0.4010    3.0364    4.6610 C   0  0  0  0  0  0  0  0  0  0  0  0
    1.5603    3.5058    3.7945 C   0  0  0  0  0  0  0  0  0  0  0  0
    2.0147    2.4409    2.8047 C   0  0  0  0  0  0  0  0  0  0  0  0
    0.9761    2.1912    1.8672 O   0  0  0  0  0  0  0  0  0  0  0  0
    0.5782    0.6397    1.5594 P   0  0  0  0  0  5  0  0  0  0  0  0
    0.2414   -0.0670    2.8511 O   0  0  0  0  0  0  0  0  0  0  0  0
    1.8964   -0.0211    0.5775 C   0  0  0  0  0  0  0  0  0  0  0  0
    2.6413    0.7811   -0.2876 C   0  0  0  0  0  0  0  0  0  0  0  0
    3.6475    0.2255   -1.0917 C   0  0  0  0  0  0  0  0  0  0  0  0
    3.9412   -1.1493   -1.0870 C   0  0  0  0  0  0  0  0  0  0  0  0
    4.9500   -1.6932   -1.8923 N   0  0  0  0  0  0  0  0  0  0  0  0
    5.3945   -0.9390   -3.0643 C   0  0  0  0  0  0  0  0  0  0  0  0
    5.0724   -3.1467   -1.9970 C   0  0  0  0  0  0  0  0  0  0  0  0
    3.1889   -1.9301   -0.1920 C   0  0  0  0  0  0  0  0  0  0  0  0
    2.1871   -1.3833    0.6231 C   0  0  0  0  0  0  0  0  0  0  0  0
   -0.9107    0.8702    0.4580 C   0  0  0  0  0  0  0  0  0  0  0  0
   -1.9153    1.6630    1.2142 N   0  0  0  0  0  0  0  0  0  0  0  0
   -2.4832    2.7657    0.5564 C   0  0  0  0  0  0  0  0  0  0  0  0
   -2.7534    3.9331    1.2850 C   0  0  0  0  0  0  0  0  0  0  0  0
   -3.3368    5.0464    0.6759 C   0  0  0  0  0  0  0  0  0  0  0  0
   -3.6928    4.9967   -0.6687 C   0  0  0  0  0  0  0  0  0  0  0  0
   -3.4819    3.8283   -1.3945 C   0  0  0  0  0  0  0  0  0  0  0  0
   -2.8935    2.7178   -0.7810 C   0  0  0  0  0  0  0  0  0  0  0  0
   -1.4901   -0.4380   -0.0463 C   0  0  0  0  0  0  0  0  0  0  0  0
   -1.0344   -0.9857   -1.2475 C   0  0  0  0  0  0  0  0  0  0  0  0
   -1.5148   -2.2226   -1.7009 C   0  0  0  0  0  0  0  0  0  0  0  0
   -2.4779   -2.9635   -0.9931 C   0  0  0  0  0  0  0  0  0  0  0  0
   -2.9396   -4.2052   -1.4546 N   0  0  0  0  0  0  0  0  0  0  0  0
   -2.8958   -4.4574   -2.8943 C   0  0  0  0  0  0  0  0  0  0  0  0
   -4.0366   -4.8598   -0.7421 C   0  0  0  0  0  0  0  0  0  0  0  0
   -2.9027   -2.4029    0.2232 C   0  0  0  0  0  0  0  0  0  0  0  0
   -2.4245   -1.1693    0.6904 C   0  0  0  0  0  0  0  0  0  0  0  0
   -0.4928    2.8486    4.0582 H   0  0  0  0  0  0  0  0  0  0  0  0
    0.1509    3.7999    5.4048 H   0  0  0  0  0  0  0  0  0  0  0  0
    0.6579    2.1152    5.1949 H   0  0  0  0  0  0  0  0  0  0  0  0
    1.2445    4.4037    3.2500 H   0  0  0  0  0  0  0  0  0  0  0  0
    2.4043    3.7889    4.4355 H   0  0  0  0  0  0  0  0  0  0  0  0
    2.3114    1.5243    3.3258 H   0  0  0  0  0  0  0  0  0  0  0  0
    2.8837    2.8083    2.2472 H   0  0  0  0  0  0  0  0  0  0  0  0
    2.4460    1.8498   -0.3468 H   0  0  0  0  0  0  0  0  0  0  0  0
    4.2003    0.9113   -1.7272 H   0  0  0  0  0  0  0  0  0  0  0  0
    4.5563   -0.7250   -3.7367 H   0  0  0  0  0  0  0  0  0  0  0  0
    6.1446   -1.4958   -3.6378 H   0  0  0  0  0  0  0  0  0  0  0  0
    5.8773   -0.0005   -2.7710 H   0  0  0  0  0  0  0  0  0  0  0  0
    5.2505   -3.6025   -1.0174 H   0  0  0  0  0  0  0  0  0  0  0  0
    4.1779   -3.5860   -2.4526 H   0  0  0  0  0  0  0  0  0  0  0  0
    5.9334   -3.4260   -2.6169 H   0  0  0  0  0  0  0  0  0  0  0  0
    3.3535   -2.9995   -0.1078 H   0  0  0  0  0  0  0  0  0  0  0  0
    1.6227   -2.0374    1.2889 H   0  0  0  0  0  0  0  0  0  0  0  0
   -0.5263    1.4561   -0.3880 H   0  0  0  0  0  0  0  0  0  0  0  0
   -1.5404    1.9307    2.1261 H   0  0  0  0  0  0  0  0  0  0  0  0
   -2.4956    3.9888    2.3399 H   0  0  0  0  0  0  0  0  0  0  0  0
   -3.5183    5.9481    1.2540 H   0  0  0  0  0  0  0  0  0  0  0  0
   -4.1504    5.8599   -1.1431 H   0  0  0  0  0  0  0  0  0  0  0  0
   -3.7829    3.7699   -2.4365 H   0  0  0  0  0  0  0  0  0  0  0  0
   -2.7794    1.8065   -1.3622 H   0  0  0  0  0  0  0  0  0  0  0  0
   -0.2824   -0.4727   -1.8446 H   0  0  0  0  0  0  0  0  0  0  0  0
   -1.0923   -2.5999   -2.6267 H   0  0  0  0  0  0  0  0  0  0  0  0
   -3.4476   -3.6889   -3.4461 H   0  0  0  0  0  0  0  0  0  0  0  0
   -1.8657   -4.5056   -3.2592 H   0  0  0  0  0  0  0  0  0  0  0  0
   -3.3460   -5.4254   -3.1420 H   0  0  0  0  0  0  0  0  0  0  0  0
   -4.9590   -4.2731   -0.8142 H   0  0  0  0  0  0  0  0  0  0  0  0
   -3.7856   -5.0300    0.3111 H   0  0  0  0  0  0  0  0  0  0  0  0
   -4.2335   -5.8516   -1.1624 H   0  0  0  0  0  0  0  0  0  0  0  0
   -3.6300   -2.9072    0.8531 H   0  0  0  0  0  0  0  0  0  0  0  0
   -2.7940   -0.7906    1.6428 H   0  0  0  0  0  0  0  0  0  0  0  0
  1  2  1  0
  2  3  1  0
  3  4  1  0
  4  5  1  0
  5  6  2  0
  5  7  1  0
  7  8  2  0
  8  9  1  0
  9 10  2  0
 10 11  1  0
 11 12  1  0
 11 13  1  0
 10 14  1  0
 14 15  2  0
  5 16  1  0
 16 17  1  0
 17 18  1  0
 18 19  2  0
 19 20  1  0
 20 21  2  0
 21 22  1  0
 22 23  2  0
 16 24  1  0
 24 25  2  0
 25 26  1  0
 26 27  2  0
 27 28  1  0
 28 29  1  0
 28 30  1  0
 27 31  1  0
 31 32  2  0
 15  7  1  0
 23 18  1  0
 32 24  1  0
  1 33  1  0
  1 34  1  0
  1 35  1  0
  2 36  1  0
  2 37  1  0
  3 38  1  0
  3 39  1  0
  8 40  1  0
  9 41  1  0
 12 42  1  0
 12 43  1  0
 12 44  1  0
 13 45  1  0
 13 46  1  0
 13 47  1  0
 14 48  1  0
 15 49  1  0
 16 50  1  0
 17 51  1  0
 19 52  1  0
 20 53  1  0
 21 54  1  0
 22 55  1  0
 23 56  1  0
 25 57  1  0
 26 58  1  0
 29 59  1  0
 29 60  1  0
 29 61  1  0
 30 62  1  0
 30 63  1  0
 30 64  1  0
 31 65  1  0
 32 66  1  0
M  END
$$$$
