
     RDKit          3D

 47 49  0  0  0  0  0  0  0  0999 V2000
   -8.0199    1.1122   -1.2441 C   0  0  0  0  0  0  0  0  0  0  0  0
   -7.2413    0.2414   -0.4365 O   0  0  0  0  0  0  0  0  0  0  0  0
   -5.8844    0.2216   -0.6456 C   0  0  0  0  0  0  0  0  0  0  0  0
   -5.2252    0.9684   -1.6270 C   0  0  0  0  0  0  0  0  0  0  0  0
   -3.8375    0.8834   -1.7674 C   0  0  0  0  0  0  0  0  0  0  0  0
   -3.0914    0.0576   -0.9238 C   0  0  0  0  0  0  0  0  0  0  0  0
   -1.6357   -0.0582   -1.0645 C   0  0  0  0  0  0  0  0  0  0  0  0
   -0.7418    0.9202   -0.8663 C   0  0  0  0  0  0  0  0  0  0  0  0
   -1.0308    2.5428   -0.3885 S   0  0  0  0  0  0  0  0  0  0  0  0
    0.6814    2.9487   -0.3862 C   0  0  0  0  0  0  0  0  0  0  0  0
    1.2296    4.4636    0.0446 S   0  0  0  0  0  0  0  0  0  0  0  0
    1.4222    1.8514   -0.7746 N   0  0  0  0  0  0  0  0  0  0  0  0
    2.8856    1.8190   -0.8696 C   0  0  0  0  0  0  0  0  0  0  0  0
    3.5258    1.3525    0.4328 C   0  0  0  0  0  0  0  0  0  0  0  0
    5.0311    1.2923    0.2949 C   0  0  0  0  0  0  0  0  0  0  0  0
    5.6362    1.8784   -0.5961 O   0  0  0  0  0  0  0  0  0  0  0  0
    5.6505    0.6040    1.3039 N   0  0  0  0  0  0  0  0  0  0  0  0
    6.0511   -0.5956    1.0535 C   0  0  0  0  0  0  0  0  0  0  0  0
    6.7220   -1.3562    1.9688 N   0  0  0  0  0  0  0  0  0  0  0  0
    7.4635   -2.4677    1.4076 C   0  0  0  0  0  0  0  0  0  0  0  0
    6.6318   -2.9834    0.2383 C   0  0  0  0  0  0  0  0  0  0  0  0
    5.8520   -1.4879   -0.4502 S   0  0  0  0  0  0  0  0  0  0  0  0
    0.7177    0.6853   -1.0205 C   0  0  0  0  0  0  0  0  0  0  0  0
    1.2026   -0.4020   -1.3031 O   0  0  0  0  0  0  0  0  0  0  0  0
   -3.7481   -0.7021    0.0525 C   0  0  0  0  0  0  0  0  0  0  0  0
   -5.1390   -0.6245    0.2005 C   0  0  0  0  0  0  0  0  0  0  0  0
   -5.8602   -1.3283    1.1339 O   0  0  0  0  0  0  0  0  0  0  0  0
   -5.1491   -2.2018    1.9989 C   0  0  0  0  0  0  0  0  0  0  0  0
   -7.7251    2.1567   -1.0978 H   0  0  0  0  0  0  0  0  0  0  0  0
   -9.0638    1.0150   -0.9307 H   0  0  0  0  0  0  0  0  0  0  0  0
   -7.9626    0.8279   -2.2999 H   0  0  0  0  0  0  0  0  0  0  0  0
   -5.7620    1.6260   -2.3023 H   0  0  0  0  0  0  0  0  0  0  0  0
   -3.3497    1.4685   -2.5439 H   0  0  0  0  0  0  0  0  0  0  0  0
   -1.2884   -1.0540   -1.3379 H   0  0  0  0  0  0  0  0  0  0  0  0
    3.2570    2.8099   -1.1513 H   0  0  0  0  0  0  0  0  0  0  0  0
    3.1658    1.1380   -1.6834 H   0  0  0  0  0  0  0  0  0  0  0  0
    3.1516    0.3581    0.7017 H   0  0  0  0  0  0  0  0  0  0  0  0
    3.2834    2.0349    1.2547 H   0  0  0  0  0  0  0  0  0  0  0  0
    7.1598   -0.8212    2.7105 H   0  0  0  0  0  0  0  0  0  0  0  0
    7.6244   -3.2502    2.1555 H   0  0  0  0  0  0  0  0  0  0  0  0
    8.4451   -2.1211    1.0630 H   0  0  0  0  0  0  0  0  0  0  0  0
    5.8414   -3.6546    0.5890 H   0  0  0  0  0  0  0  0  0  0  0  0
    7.2403   -3.5033   -0.5062 H   0  0  0  0  0  0  0  0  0  0  0  0
   -3.1532   -1.3454    0.6928 H   0  0  0  0  0  0  0  0  0  0  0  0
   -4.4393   -1.6484    2.6224 H   0  0  0  0  0  0  0  0  0  0  0  0
   -4.6477   -2.9953    1.4349 H   0  0  0  0  0  0  0  0  0  0  0  0
   -5.8756   -2.6768    2.6652 H   0  0  0  0  0  0  0  0  0  0  0  0
  1  2  1  0
  2  3  1  0
  3  4  2  0
  4  5  1  0
  5  6  2  0
  6  7  1  0
  7  8  2  3
  8  9  1  0
  9 10  1  0
 10 11  2  0
 10 12  1  0
 12 13  1  0
 13 14  1  0
 14 15  1  0
 15 16  2  0
 15 17  1  0
 17 18  2  3
 18 19  1  0
 19 20  1  0
 20 21  1  0
 21 22  1  0
 12 23  1  0
 23 24  2  0
  6 25  1  0
 25 26  2  0
 26 27  1  0
 27 28  1  0
 26  3  1  0
 23  8  1  0
 22 18  1  0
  1 29  1  0
  1 30  1  0
  1 31  1  0
  4 32  1  0
  5 33  1  0
  7 34  1  0
 13 35  1  0
 13 36  1  0
 14 37  1  0
 14 38  1  0
 19 39  1  0
 20 40  1  0
 20 41  1  0
 21 42  1  0
 21 43  1  0
 25 44  1  0
 28 45  1  0
 28 46  1  0
 28 47  1  0
M  END
$$$$
