
     RDKit          3D

 44 46  0  0  0  0  0  0  0  0999 V2000
    1.0431    0.3681    3.8360 C   0  0  0  0  0  0  0  0  0  0  0  0
    1.7306    0.4432    2.5892 O   0  0  0  0  0  0  0  0  0  0  0  0
    0.9673    0.3893    1.4535 C   0  0  0  0  0  0  0  0  0  0  0  0
   -0.3892    0.0510    1.4104 C   0  0  0  0  0  0  0  0  0  0  0  0
   -1.0816    0.0278    0.1895 C   0  0  0  0  0  0  0  0  0  0  0  0
   -2.5046   -0.3406    0.1812 C   0  0  0  0  0  0  0  0  0  0  0  0
   -3.5273    0.4627   -0.1898 C   0  0  0  0  0  0  0  0  0  0  0  0
   -3.3047    1.8120   -0.6046 C   0  0  0  0  0  0  0  0  0  0  0  0
   -3.1690    2.9116   -0.9537 N   0  0  0  0  0  0  0  0  0  0  0  0
   -4.9242   -0.0455   -0.1336 C   0  0  0  0  0  0  0  0  0  0  0  0
   -5.9461    0.5194   -0.8997 C   0  0  0  0  0  0  0  0  0  0  0  0
   -7.2402    0.0129   -0.7914 C   0  0  0  0  0  0  0  0  0  0  0  0
   -7.4913   -1.0392    0.0793 C   0  0  0  0  0  0  0  0  0  0  0  0
   -6.4308   -1.5465    0.8071 C   0  0  0  0  0  0  0  0  0  0  0  0
   -5.1638   -1.0816    0.7142 N   0  0  0  0  0  0  0  0  0  0  0  0
   -0.4057    0.3281   -0.9990 C   0  0  0  0  0  0  0  0  0  0  0  0
    0.9446    0.6661   -0.9646 C   0  0  0  0  0  0  0  0  0  0  0  0
    1.6246    0.6808    0.2528 C   0  0  0  0  0  0  0  0  0  0  0  0
    2.9421    1.0549    0.2369 O   0  0  0  0  0  0  0  0  0  0  0  0
    3.8111   -0.0764    0.3204 C   0  0  0  0  0  0  0  0  0  0  0  0
    4.5907   -0.1929   -0.9692 C   0  0  0  0  0  0  0  0  0  0  0  0
    5.3785    0.8777   -1.4132 C   0  0  0  0  0  0  0  0  0  0  0  0
    6.0937    0.7836   -2.6099 C   0  0  0  0  0  0  0  0  0  0  0  0
    6.0253   -0.3827   -3.3682 C   0  0  0  0  0  0  0  0  0  0  0  0
    6.9003   -0.4968   -4.8465 Cl  0  0  0  0  0  0  0  0  0  0  0  0
    5.2508   -1.4561   -2.9399 C   0  0  0  0  0  0  0  0  0  0  0  0
    4.5346   -1.3619   -1.7423 C   0  0  0  0  0  0  0  0  0  0  0  0
    0.2685    1.1412    3.9155 H   0  0  0  0  0  0  0  0  0  0  0  0
    1.7715    0.5488    4.6335 H   0  0  0  0  0  0  0  0  0  0  0  0
    0.6239   -0.6339    3.9887 H   0  0  0  0  0  0  0  0  0  0  0  0
   -0.9330   -0.1964    2.3179 H   0  0  0  0  0  0  0  0  0  0  0  0
   -2.6995   -1.3605    0.5255 H   0  0  0  0  0  0  0  0  0  0  0  0
   -5.7624    1.3427   -1.5830 H   0  0  0  0  0  0  0  0  0  0  0  0
   -8.0465    0.4436   -1.3801 H   0  0  0  0  0  0  0  0  0  0  0  0
   -8.4897   -1.4477    0.1934 H   0  0  0  0  0  0  0  0  0  0  0  0
   -6.5785   -2.3609    1.5161 H   0  0  0  0  0  0  0  0  0  0  0  0
   -0.9205    0.3050   -1.9572 H   0  0  0  0  0  0  0  0  0  0  0  0
    1.4691    0.9132   -1.8827 H   0  0  0  0  0  0  0  0  0  0  0  0
    4.5150    0.0980    1.1434 H   0  0  0  0  0  0  0  0  0  0  0  0
    3.2818   -1.0133    0.5427 H   0  0  0  0  0  0  0  0  0  0  0  0
    5.4253    1.7954   -0.8292 H   0  0  0  0  0  0  0  0  0  0  0  0
    6.6945    1.6232   -2.9428 H   0  0  0  0  0  0  0  0  0  0  0  0
    5.1964   -2.3655   -3.5317 H   0  0  0  0  0  0  0  0  0  0  0  0
    3.9254   -2.2019   -1.4209 H   0  0  0  0  0  0  0  0  0  0  0  0
  1  2  1  0
  2  3  1  0
  3  4  2  0
  4  5  1  0
  5  6  1  0
  6  7  2  3
  7  8  1  0
  8  9  3  0
  7 10  1  0
 10 11  2  0
 11 12  1  0
 12 13  2  0
 13 14  1  0
 14 15  2  0
  5 16  2  0
 16 17  1  0
 17 18  2  0
 18 19  1  0
 19 20  1  0
 20 21  1  0
 21 22  2  0
 22 23  1  0
 23 24  2  0
 24 25  1  0
 24 26  1  0
 26 27  2  0
 18  3  1  0
 27 21  1  0
 15 10  1  0
  1 28  1  0
  1 29  1  0
  1 30  1  0
  4 31  1  0
  6 32  1  0
 11 33  1  0
 12 34  1  0
 13 35  1  0
 14 36  1  0
 16 37  1  0
 17 38  1  0
 20 39  1  0
 20 40  1  0
 22 41  1  0
 23 42  1  0
 26 43  1  0
 27 44  1  0
M  END
$$$$
