
     RDKit          3D

 55 58  0  0  0  0  0  0  0  0999 V2000
    7.3773   -0.2498   -0.7424 C   0  0  0  0  0  0  0  0  0  0  0  0
    5.9744   -0.3105   -0.9746 O   0  0  0  0  0  0  0  0  0  0  0  0
    5.1468    0.0107    0.0687 C   0  0  0  0  0  0  0  0  0  0  0  0
    5.5830    0.4844    1.3116 C   0  0  0  0  0  0  0  0  0  0  0  0
    4.6630    0.8017    2.3143 C   0  0  0  0  0  0  0  0  0  0  0  0
    3.2990    0.6540    2.0843 C   0  0  0  0  0  0  0  0  0  0  0  0
    2.8531    0.1862    0.8506 C   0  0  0  0  0  0  0  0  0  0  0  0
    3.7686   -0.1488   -0.1648 C   0  0  0  0  0  0  0  0  0  0  0  0
    3.2327   -0.6405   -1.4893 C   0  0  0  0  0  0  0  0  0  0  0  0
    2.7292    0.4734   -2.2873 N   0  0  0  0  0  0  0  0  0  0  0  0
    1.4991    0.1927   -3.3762 S   0  0  0  0  0  6  0  0  0  0  0  0
    1.4455    1.3411   -4.2534 O   0  0  0  0  0  0  0  0  0  0  0  0
    1.6369   -1.1537   -3.8851 O   0  0  0  0  0  0  0  0  0  0  0  0
    0.0744    0.2630   -2.3178 C   0  0  0  0  0  0  0  0  0  0  0  0
   -0.5926   -0.9191   -1.9613 C   0  0  0  0  0  0  0  0  0  0  0  0
   -1.7080   -0.8737   -1.1138 C   0  0  0  0  0  0  0  0  0  0  0  0
   -2.1469    0.3534   -0.6436 C   0  0  0  0  0  0  0  0  0  0  0  0
   -1.4669    1.5238   -1.0092 C   0  0  0  0  0  0  0  0  0  0  0  0
   -0.3659    1.5035   -1.8538 C   0  0  0  0  0  0  0  0  0  0  0  0
   -2.1240    2.7391   -0.4301 C   0  0  0  0  0  0  0  0  0  0  0  0
   -3.0643    2.1078    0.6111 C   0  0  0  0  0  0  0  0  0  0  0  0
   -2.4924    2.2485    2.0266 C   0  0  0  0  0  0  0  0  0  0  0  0
   -3.2069    0.6819    0.2245 N   0  0  0  0  0  0  0  0  0  0  0  0
   -4.2645   -0.0730    0.7285 C   0  0  0  0  0  0  0  0  0  0  0  0
   -5.0221    0.4308    1.5739 O   0  0  0  0  0  0  0  0  0  0  0  0
   -4.5203   -1.5037    0.1864 C   0  0  0  0  0  0  0  0  0  0  0  0
   -3.9012   -2.6879    0.9829 C   0  0  0  0  0  0  0  0  0  0  0  0
   -5.2509   -2.8472    1.7029 C   0  0  0  0  0  0  0  0  0  0  0  0
   -5.9041   -2.1500    0.4969 C   0  0  0  0  0  0  0  0  0  0  0  0
    7.6994    0.7787   -0.5464 H   0  0  0  0  0  0  0  0  0  0  0  0
    7.8813   -0.5897   -1.6525 H   0  0  0  0  0  0  0  0  0  0  0  0
    7.6743   -0.9205    0.0707 H   0  0  0  0  0  0  0  0  0  0  0  0
    6.6359    0.6245    1.5336 H   0  0  0  0  0  0  0  0  0  0  0  0
    5.0143    1.1701    3.2756 H   0  0  0  0  0  0  0  0  0  0  0  0
    2.5836    0.9067    2.8627 H   0  0  0  0  0  0  0  0  0  0  0  0
    1.7835    0.0838    0.6770 H   0  0  0  0  0  0  0  0  0  0  0  0
    4.0012   -1.1719   -2.0587 H   0  0  0  0  0  0  0  0  0  0  0  0
    2.4420   -1.3712   -1.2829 H   0  0  0  0  0  0  0  0  0  0  0  0
    3.3942    1.1922   -2.5658 H   0  0  0  0  0  0  0  0  0  0  0  0
   -0.2436   -1.8818   -2.3317 H   0  0  0  0  0  0  0  0  0  0  0  0
   -2.1678   -1.8107   -0.8376 H   0  0  0  0  0  0  0  0  0  0  0  0
    0.1380    2.4219   -2.1413 H   0  0  0  0  0  0  0  0  0  0  0  0
   -1.4050    3.4398    0.0046 H   0  0  0  0  0  0  0  0  0  0  0  0
   -2.7005    3.2431   -1.2134 H   0  0  0  0  0  0  0  0  0  0  0  0
   -4.0474    2.5935    0.5813 H   0  0  0  0  0  0  0  0  0  0  0  0
   -1.5075    1.7741    2.1108 H   0  0  0  0  0  0  0  0  0  0  0  0
   -3.1455    1.7795    2.7689 H   0  0  0  0  0  0  0  0  0  0  0  0
   -2.3866    3.3057    2.2954 H   0  0  0  0  0  0  0  0  0  0  0  0
   -4.3429   -1.5525   -0.8951 H   0  0  0  0  0  0  0  0  0  0  0  0
   -3.0551   -2.4456    1.6317 H   0  0  0  0  0  0  0  0  0  0  0  0
   -3.6312   -3.5452    0.3546 H   0  0  0  0  0  0  0  0  0  0  0  0
   -5.5722   -3.8752    1.8881 H   0  0  0  0  0  0  0  0  0  0  0  0
   -5.3244   -2.2772    2.6364 H   0  0  0  0  0  0  0  0  0  0  0  0
   -6.7239   -1.4668    0.7350 H   0  0  0  0  0  0  0  0  0  0  0  0
   -6.2461   -2.8435   -0.2815 H   0  0  0  0  0  0  0  0  0  0  0  0
  1  2  1  0
  2  3  1  0
  3  4  2  0
  4  5  1  0
  5  6  2  0
  6  7  1  0
  7  8  2  0
  8  9  1  0
  9 10  1  0
 10 11  1  0
 11 12  2  0
 11 13  2  0
 11 14  1  0
 14 15  2  0
 15 16  1  0
 16 17  2  0
 17 18  1  0
 18 19  2  0
 18 20  1  0
 20 21  1  0
 21 22  1  0
 21 23  1  0
 23 24  1  0
 24 25  2  0
 24 26  1  0
 26 27  1  0
 27 28  1  0
 28 29  1  0
  8  3  1  0
 19 14  1  0
 29 26  1  0
 23 17  1  0
  1 30  1  0
  1 31  1  0
  1 32  1  0
  4 33  1  0
  5 34  1  0
  6 35  1  0
  7 36  1  0
  9 37  1  0
  9 38  1  0
 10 39  1  0
 15 40  1  0
 16 41  1  0
 19 42  1  0
 20 43  1  0
 20 44  1  0
 21 45  1  0
 22 46  1  0
 22 47  1  0
 22 48  1  0
 26 49  1  0
 27 50  1  0
 27 51  1  0
 28 52  1  0
 28 53  1  0
 29 54  1  0
 29 55  1  0
M  END
$$$$
