
     RDKit          3D

 58 61  0  0  0  0  0  0  0  0999 V2000
    4.0002    1.9703   -7.0725 C   0  0  0  0  0  0  0  0  0  0  0  0
    4.3069    0.8903   -6.2010 O   0  0  0  0  0  0  0  0  0  0  0  0
    3.3374    0.5158   -5.3123 C   0  0  0  0  0  0  0  0  0  0  0  0
    3.6786   -0.5639   -4.4953 C   0  0  0  0  0  0  0  0  0  0  0  0
    2.7804   -1.0499   -3.5428 C   0  0  0  0  0  0  0  0  0  0  0  0
    1.5183   -0.4628   -3.3972 C   0  0  0  0  0  0  0  0  0  0  0  0
    0.5612   -0.9707   -2.3525 C   0  0  0  0  0  0  0  0  0  0  0  0
    0.8818   -0.4034   -1.0624 N   0  0  0  0  0  0  0  0  0  0  0  0
    1.3823   -1.1674   -0.0174 C   0  0  0  0  0  0  0  0  0  0  0  0
    1.5445   -2.3807   -0.1278 O   0  0  0  0  0  0  0  0  0  0  0  0
    1.7708   -0.3619    1.2172 C   0  0  0  0  0  0  0  0  0  0  0  0
    2.2961   -1.2063    2.3018 C   0  0  0  0  0  0  0  0  0  0  0  0
    2.7410   -1.8131    3.1891 N   0  0  0  0  0  0  0  0  0  0  0  0
    0.6468    0.5387    1.6812 C   0  0  0  0  0  0  0  0  0  0  0  0
    0.8561    1.8817    1.5480 N   0  0  0  0  0  0  0  0  0  0  0  0
   -0.1322    2.6979    1.9548 C   0  0  0  0  0  0  0  0  0  0  0  0
    0.0324    4.0752    1.8675 C   0  0  0  0  0  0  0  0  0  0  0  0
   -0.9703    4.9533    2.2807 C   0  0  0  0  0  0  0  0  0  0  0  0
   -2.1584    4.4447    2.7889 C   0  0  0  0  0  0  0  0  0  0  0  0
   -2.3333    3.0628    2.8781 C   0  0  0  0  0  0  0  0  0  0  0  0
   -1.3409    2.1799    2.4702 C   0  0  0  0  0  0  0  0  0  0  0  0
   -1.5504    0.8541    2.5699 N   0  0  0  0  0  0  0  0  0  0  0  0
   -0.5611    0.0233    2.1735 C   0  0  0  0  0  0  0  0  0  0  0  0
   -0.7545   -1.3647    2.2629 N   0  0  0  0  0  0  0  0  0  0  0  0
   -0.9111   -1.7932    3.6813 C   0  0  0  0  0  0  0  0  0  0  0  0
   -2.3864   -2.0607    4.0545 C   0  0  0  0  0  0  0  0  0  0  0  0
   -3.0158   -3.1282    3.2407 N   0  0  0  0  0  0  0  0  0  0  0  0
   -4.4669   -2.9678    3.2261 C   0  0  0  0  0  0  0  0  0  0  0  0
   -2.4506   -3.1585    1.8727 C   0  0  0  0  0  0  0  0  0  0  0  0
   -1.8717   -1.8093    1.3913 C   0  0  0  0  0  0  0  0  0  0  0  0
    1.1825    0.6268   -4.2114 C   0  0  0  0  0  0  0  0  0  0  0  0
    2.0853    1.1112   -5.1652 C   0  0  0  0  0  0  0  0  0  0  0  0
    3.8294    2.8938   -6.5102 H   0  0  0  0  0  0  0  0  0  0  0  0
    4.8655    2.1320   -7.7232 H   0  0  0  0  0  0  0  0  0  0  0  0
    3.1441    1.7311   -7.7116 H   0  0  0  0  0  0  0  0  0  0  0  0
    4.6542   -1.0318   -4.6016 H   0  0  0  0  0  0  0  0  0  0  0  0
    3.0711   -1.8900   -2.9140 H   0  0  0  0  0  0  0  0  0  0  0  0
   -0.4637   -0.6663   -2.5929 H   0  0  0  0  0  0  0  0  0  0  0  0
    0.5733   -2.0656   -2.3239 H   0  0  0  0  0  0  0  0  0  0  0  0
    0.8793    0.6079   -0.9858 H   0  0  0  0  0  0  0  0  0  0  0  0
    2.6017    0.2804    0.8904 H   0  0  0  0  0  0  0  0  0  0  0  0
    0.9652    4.4727    1.4742 H   0  0  0  0  0  0  0  0  0  0  0  0
   -0.8187    6.0279    2.2086 H   0  0  0  0  0  0  0  0  0  0  0  0
   -2.9475    5.1163    3.1178 H   0  0  0  0  0  0  0  0  0  0  0  0
   -3.2623    2.6635    3.2772 H   0  0  0  0  0  0  0  0  0  0  0  0
   -0.3339   -2.7186    3.8121 H   0  0  0  0  0  0  0  0  0  0  0  0
   -0.4760   -1.0650    4.3790 H   0  0  0  0  0  0  0  0  0  0  0  0
   -2.9422   -1.1197    3.9506 H   0  0  0  0  0  0  0  0  0  0  0  0
   -2.4422   -2.3505    5.1096 H   0  0  0  0  0  0  0  0  0  0  0  0
   -4.8645   -2.9550    4.2468 H   0  0  0  0  0  0  0  0  0  0  0  0
   -4.9404   -3.8137    2.7154 H   0  0  0  0  0  0  0  0  0  0  0  0
   -4.7770   -2.0445    2.7237 H   0  0  0  0  0  0  0  0  0  0  0  0
   -1.6414   -3.9002    1.8724 H   0  0  0  0  0  0  0  0  0  0  0  0
   -3.1879   -3.5249    1.1477 H   0  0  0  0  0  0  0  0  0  0  0  0
   -2.6862   -1.0743    1.3482 H   0  0  0  0  0  0  0  0  0  0  0  0
   -1.4913   -1.9318    0.3710 H   0  0  0  0  0  0  0  0  0  0  0  0
    0.2127    1.1086   -4.1121 H   0  0  0  0  0  0  0  0  0  0  0  0
    1.7792    1.9541   -5.7752 H   0  0  0  0  0  0  0  0  0  0  0  0
  1  2  1  0
  2  3  1  0
  3  4  2  0
  4  5  1  0
  5  6  2  0
  6  7  1  0
  7  8  1  0
  8  9  1  0
  9 10  2  0
  9 11  1  0
 11 12  1  0
 12 13  3  0
 11 14  1  0
 14 15  2  0
 15 16  1  0
 16 17  2  0
 17 18  1  0
 18 19  2  0
 19 20  1  0
 20 21  2  0
 21 22  1  0
 22 23  2  0
 23 24  1  0
 24 25  1  0
 25 26  1  0
 26 27  1  0
 27 28  1  0
 27 29  1  0
 29 30  1  0
  6 31  1  0
 31 32  2  0
 32  3  1  0
 23 14  1  0
 30 24  1  0
 21 16  1  0
  1 33  1  0
  1 34  1  0
  1 35  1  0
  4 36  1  0
  5 37  1  0
  7 38  1  0
  7 39  1  0
  8 40  1  0
 11 41  1  0
 17 42  1  0
 18 43  1  0
 19 44  1  0
 20 45  1  0
 25 46  1  0
 25 47  1  0
 26 48  1  0
 26 49  1  0
 28 50  1  0
 28 51  1  0
 28 52  1  0
 29 53  1  0
 29 54  1  0
 30 55  1  0
 30 56  1  0
 31 57  1  0
 32 58  1  0
M  END
$$$$
