
     RDKit          3D

 40 43  0  0  0  0  0  0  0  0999 V2000
   -0.4315    4.3048   -0.0069 C   0  0  0  0  0  0  0  0  0  0  0  0
   -1.5049    3.6490   -0.4684 C   0  0  0  0  0  0  0  0  0  0  0  0
   -1.4617    2.5020   -1.4424 C   0  0  0  0  0  0  0  0  0  0  0  0
   -2.0042    1.3032   -0.8007 N   0  0  0  0  0  0  0  0  0  0  0  0
   -1.2354    0.3801   -0.1038 C   0  0  0  0  0  0  0  0  0  0  0  0
    0.4936    0.6550    0.0221 S   0  0  0  0  0  0  0  0  0  0  0  0
    1.0609   -1.0018    0.5075 C   0  0  0  0  0  0  0  0  0  0  0  0
    2.5746   -1.0371    0.5071 C   0  0  0  0  0  0  0  0  0  0  0  0
    3.2632   -0.9018    1.6530 C   0  0  0  0  0  0  0  0  0  0  0  0
    4.7405   -0.9406    1.6254 C   0  0  0  0  0  0  0  0  0  0  0  0
    5.3759   -0.8260    2.6692 O   0  0  0  0  0  0  0  0  0  0  0  0
    5.2784   -1.1190    0.3762 N   0  0  0  0  0  0  0  0  0  0  0  0
    6.6267   -1.1869    0.1006 C   0  0  0  0  0  0  0  0  0  0  0  0
    6.9056   -1.3917   -1.1923 C   0  0  0  0  0  0  0  0  0  0  0  0
    5.4532   -1.5133   -2.1486 S   0  0  0  0  0  0  0  0  0  0  0  0
    4.4608   -1.2708   -0.7192 C   0  0  0  0  0  0  0  0  0  0  0  0
    3.1725   -1.2479   -0.7200 N   0  0  0  0  0  0  0  0  0  0  0  0
   -1.7131   -0.6755    0.4715 N   0  0  0  0  0  0  0  0  0  0  0  0
   -3.0848   -0.9234    0.3916 C   0  0  0  0  0  0  0  0  0  0  0  0
   -3.6020   -2.0652    1.0089 C   0  0  0  0  0  0  0  0  0  0  0  0
   -4.9686   -2.3514    0.9468 C   0  0  0  0  0  0  0  0  0  0  0  0
   -5.8310   -1.4934    0.2650 C   0  0  0  0  0  0  0  0  0  0  0  0
   -5.3258   -0.3490   -0.3513 C   0  0  0  0  0  0  0  0  0  0  0  0
   -3.9545   -0.0736   -0.2820 C   0  0  0  0  0  0  0  0  0  0  0  0
   -3.3825    1.1233   -0.9183 C   0  0  0  0  0  0  0  0  0  0  0  0
   -4.1346    1.8946   -1.5107 O   0  0  0  0  0  0  0  0  0  0  0  0
   -0.5439    5.1342    0.6855 H   0  0  0  0  0  0  0  0  0  0  0  0
    0.5777    4.0331   -0.3036 H   0  0  0  0  0  0  0  0  0  0  0  0
   -2.4946    3.9697   -0.1477 H   0  0  0  0  0  0  0  0  0  0  0  0
   -0.4509    2.3257   -1.8203 H   0  0  0  0  0  0  0  0  0  0  0  0
   -2.0667    2.7663   -2.3176 H   0  0  0  0  0  0  0  0  0  0  0  0
    0.6783   -1.7556   -0.1912 H   0  0  0  0  0  0  0  0  0  0  0  0
    0.6719   -1.2406    1.5043 H   0  0  0  0  0  0  0  0  0  0  0  0
    2.7958   -0.7460    2.6163 H   0  0  0  0  0  0  0  0  0  0  0  0
    7.3460   -1.0795    0.9036 H   0  0  0  0  0  0  0  0  0  0  0  0
    7.8960   -1.4765   -1.6186 H   0  0  0  0  0  0  0  0  0  0  0  0
   -2.9332   -2.7368    1.5426 H   0  0  0  0  0  0  0  0  0  0  0  0
   -5.3578   -3.2453    1.4290 H   0  0  0  0  0  0  0  0  0  0  0  0
   -6.8942   -1.7152    0.2145 H   0  0  0  0  0  0  0  0  0  0  0  0
   -5.9956    0.3228   -0.8832 H   0  0  0  0  0  0  0  0  0  0  0  0
  1  2  2  0
  2  3  1  0
  3  4  1  0
  4  5  1  0
  5  6  1  0
  6  7  1  0
  7  8  1  0
  8  9  2  0
  9 10  1  0
 10 11  2  0
 10 12  1  0
 12 13  1  0
 13 14  2  0
 14 15  1  0
 15 16  1  0
 16 17  2  0
  5 18  2  0
 18 19  1  0
 19 20  2  0
 20 21  1  0
 21 22  2  0
 22 23  1  0
 23 24  2  0
 24 25  1  0
 25 26  2  0
 25  4  1  0
 17  8  1  0
 24 19  1  0
 16 12  1  0
  1 27  1  0
  1 28  1  0
  2 29  1  0
  3 30  1  0
  3 31  1  0
  7 32  1  0
  7 33  1  0
  9 34  1  0
 13 35  1  0
 14 36  1  0
 20 37  1  0
 21 38  1  0
 22 39  1  0
 23 40  1  0
M  END
$$$$
