
     RDKit          3D

 40 42  0  0  0  0  0  0  0  0999 V2000
    4.3610   -3.1375   -1.7487 C   0  0  0  0  0  0  0  0  0  0  0  0
    3.8916   -1.8205   -1.2122 C   0  0  0  0  0  0  0  0  0  0  0  0
    4.4177   -0.7451   -1.4543 O   0  0  0  0  0  0  0  0  0  0  0  0
    2.7868   -1.9965   -0.4381 O   0  0  0  0  0  0  0  0  0  0  0  0
    2.2740   -0.8067    0.1925 C   0  0  0  0  0  0  0  0  0  0  0  0
    1.5811    0.1217   -0.8127 C   0  0  0  0  0  0  0  0  0  0  0  0
    0.4969    0.8858   -0.1811 N   0  0  0  0  0  0  0  0  0  0  0  0
    0.7714    2.0890    0.4574 C   0  0  0  0  0  0  0  0  0  0  0  0
    1.9704    2.5670    0.5967 N   0  0  0  0  0  0  0  0  0  0  0  0
    2.1956    3.7549    1.2350 C   0  0  0  0  0  0  0  0  0  0  0  0
    3.2812    4.0358    1.7309 O   0  0  0  0  0  0  0  0  0  0  0  0
    1.1777    4.6566    1.3406 N   0  0  0  0  0  0  0  0  0  0  0  0
   -0.0951    4.2405    1.5826 C   0  0  0  0  0  0  0  0  0  0  0  0
   -0.9032    4.8736    2.2410 O   0  0  0  0  0  0  0  0  0  0  0  0
   -0.3883    2.8754    1.0209 C   0  0  0  0  0  0  0  0  0  0  0  0
   -1.6018    2.4151    1.0240 N   0  0  0  0  0  0  0  0  0  0  0  0
   -1.8308    1.1345    0.4866 C   0  0  0  0  0  0  0  0  0  0  0  0
   -3.1387    0.6431    0.5696 C   0  0  0  0  0  0  0  0  0  0  0  0
   -3.4809   -0.6214    0.0753 C   0  0  0  0  0  0  0  0  0  0  0  0
   -4.9016   -1.0996    0.1934 C   0  0  0  0  0  0  0  0  0  0  0  0
   -2.4805   -1.4122   -0.5114 C   0  0  0  0  0  0  0  0  0  0  0  0
   -2.7866   -2.7839   -1.0515 C   0  0  0  0  0  0  0  0  0  0  0  0
   -1.1648   -0.9147   -0.5967 C   0  0  0  0  0  0  0  0  0  0  0  0
   -0.8118    0.3574   -0.1126 C   0  0  0  0  0  0  0  0  0  0  0  0
    4.5854   -3.8163   -0.9220 H   0  0  0  0  0  0  0  0  0  0  0  0
    3.5959   -3.5651   -2.4014 H   0  0  0  0  0  0  0  0  0  0  0  0
    5.2749   -2.9868   -2.3304 H   0  0  0  0  0  0  0  0  0  0  0  0
    3.0770   -0.2881    0.7307 H   0  0  0  0  0  0  0  0  0  0  0  0
    1.5661   -1.1548    0.9528 H   0  0  0  0  0  0  0  0  0  0  0  0
    1.2271   -0.4323   -1.6898 H   0  0  0  0  0  0  0  0  0  0  0  0
    2.3230    0.8125   -1.2337 H   0  0  0  0  0  0  0  0  0  0  0  0
    1.4382    5.4824    1.8603 H   0  0  0  0  0  0  0  0  0  0  0  0
   -3.8962    1.2720    1.0347 H   0  0  0  0  0  0  0  0  0  0  0  0
   -5.3134   -1.3187   -0.7968 H   0  0  0  0  0  0  0  0  0  0  0  0
   -4.9493   -1.9983    0.8164 H   0  0  0  0  0  0  0  0  0  0  0  0
   -5.5442   -0.3426    0.6556 H   0  0  0  0  0  0  0  0  0  0  0  0
   -3.1717   -3.4288   -0.2553 H   0  0  0  0  0  0  0  0  0  0  0  0
   -1.8922   -3.2657   -1.4605 H   0  0  0  0  0  0  0  0  0  0  0  0
   -3.5233   -2.7184   -1.8584 H   0  0  0  0  0  0  0  0  0  0  0  0
   -0.4185   -1.5632   -1.0462 H   0  0  0  0  0  0  0  0  0  0  0  0
  1  2  1  0
  2  3  2  0
  2  4  1  0
  4  5  1  0
  5  6  1  0
  6  7  1  0
  7  8  1  0
  8  9  2  0
  9 10  1  0
 10 11  2  0
 10 12  1  0
 12 13  1  0
 13 14  2  0
 13 15  1  0
 15 16  2  0
 16 17  1  0
 17 18  2  0
 18 19  1  0
 19 20  1  0
 19 21  2  0
 21 22  1  0
 21 23  1  0
 23 24  2  0
 24  7  1  0
 15  8  1  0
 24 17  1  0
  1 25  1  0
  1 26  1  0
  1 27  1  0
  5 28  1  0
  5 29  1  0
  6 30  1  0
  6 31  1  0
 12 32  1  0
 18 33  1  0
 20 34  1  0
 20 35  1  0
 20 36  1  0
 22 37  1  0
 22 38  1  0
 22 39  1  0
 23 40  1  0
M  END
$$$$
