
     RDKit          3D

 29 31  0  0  0  0  0  0  0  0999 V2000
    0.1525   -1.6435    0.5197 O   0  0  0  0  0  0  0  0  0  0  0  0
   -0.0923   -0.4654    0.2841 C   0  0  0  0  0  0  0  0  0  0  0  0
   -1.4926    0.0216    0.1168 C   0  0  0  0  0  0  0  0  0  0  0  0
   -2.5207   -0.8159    0.3078 C   0  0  0  0  0  0  0  0  0  0  0  0
   -3.9079   -0.5144    0.2032 C   0  0  0  0  0  0  0  0  0  0  0  0
   -4.6190    0.4376   -0.5217 C   0  0  0  0  0  0  0  0  0  0  0  0
   -5.9986    0.2624   -0.2530 C   0  0  0  0  0  0  0  0  0  0  0  0
   -6.0774   -0.7969    0.6106 C   0  0  0  0  0  0  0  0  0  0  0  0
   -4.8409   -1.2748    0.8814 O   0  0  0  0  0  0  0  0  0  0  0  0
   -1.4913    1.6826   -0.2851 S   0  0  0  0  0  0  0  0  0  0  0  0
    0.2608    1.8256   -0.1440 C   0  0  0  0  0  0  0  0  0  0  0  0
    0.9678    3.3421   -0.2103 S   0  0  0  0  0  0  0  0  0  0  0  0
    0.8190    0.5751    0.0971 N   0  0  0  0  0  0  0  0  0  0  0  0
    2.2281    0.3102    0.1743 C   0  0  0  0  0  0  0  0  0  0  0  0
    3.1367    0.8980   -0.7196 C   0  0  0  0  0  0  0  0  0  0  0  0
    4.5061    0.6218   -0.6427 C   0  0  0  0  0  0  0  0  0  0  0  0
    4.9812   -0.2539    0.3219 C   0  0  0  0  0  0  0  0  0  0  0  0
    6.3209   -0.4960    0.3583 O   0  0  0  0  0  0  0  0  0  0  0  0
    4.1076   -0.8642    1.2104 C   0  0  0  0  0  0  0  0  0  0  0  0
    2.7382   -0.5854    1.1309 C   0  0  0  0  0  0  0  0  0  0  0  0
   -2.3075   -1.8399    0.6124 H   0  0  0  0  0  0  0  0  0  0  0  0
   -4.1999    1.1774   -1.1886 H   0  0  0  0  0  0  0  0  0  0  0  0
   -6.8273    0.8322   -0.6486 H   0  0  0  0  0  0  0  0  0  0  0  0
   -6.8952   -1.3114    1.0956 H   0  0  0  0  0  0  0  0  0  0  0  0
    2.8048    1.5477   -1.5248 H   0  0  0  0  0  0  0  0  0  0  0  0
    5.1962    1.0830   -1.3442 H   0  0  0  0  0  0  0  0  0  0  0  0
    6.5046   -1.1306    1.0705 H   0  0  0  0  0  0  0  0  0  0  0  0
    4.4638   -1.5557    1.9677 H   0  0  0  0  0  0  0  0  0  0  0  0
    2.0822   -1.0693    1.8518 H   0  0  0  0  0  0  0  0  0  0  0  0
  1  2  2  0
  2  3  1  0
  3  4  2  3
  4  5  1  0
  5  6  2  0
  6  7  1  0
  7  8  2  0
  8  9  1  0
  3 10  1  0
 10 11  1  0
 11 12  2  0
 11 13  1  0
 13 14  1  0
 14 15  2  0
 15 16  1  0
 16 17  2  0
 17 18  1  0
 17 19  1  0
 19 20  2  0
 13  2  1  0
 20 14  1  0
  9  5  1  0
  4 21  1  0
  6 22  1  0
  7 23  1  0
  8 24  1  0
 15 25  1  0
 16 26  1  0
 18 27  1  0
 19 28  1  0
 20 29  1  0
M  END
$$$$
