
     RDKit          3D

 61 64  0  0  0  0  0  0  0  0999 V2000
    8.4154   -0.1706   -0.0666 C   0  0  0  0  0  0  0  0  0  0  0  0
    7.0656   -0.8178    0.1255 C   0  0  0  0  0  0  0  0  0  0  0  0
    6.6660   -1.6878   -0.6393 O   0  0  0  0  0  0  0  0  0  0  0  0
    6.3799   -0.2790    1.1978 N   0  0  0  0  0  0  0  0  0  0  0  0
    5.1319   -0.6989    1.6992 C   0  0  0  0  0  0  0  0  0  0  0  0
    4.5165   -1.8948    1.3240 C   0  0  0  0  0  0  0  0  0  0  0  0
    3.2856   -2.2638    1.8830 C   0  0  0  0  0  0  0  0  0  0  0  0
    2.6542   -1.4167    2.7982 C   0  0  0  0  0  0  0  0  0  0  0  0
    1.1077   -1.8960    3.5376 S   0  0  0  0  0  6  0  0  0  0  0  0
    0.9934   -1.1916    4.7971 O   0  0  0  0  0  0  0  0  0  0  0  0
    1.0277   -3.3393    3.4789 O   0  0  0  0  0  0  0  0  0  0  0  0
   -0.0478   -1.2658    2.4833 N   0  0  0  0  0  0  0  0  0  0  0  0
   -0.2585   -1.9608    1.1769 C   0  0  0  0  0  0  0  0  0  0  0  0
   -0.4498   -0.9835    0.0053 C   0  0  0  0  0  0  0  0  0  0  0  0
   -1.5395   -0.0190    0.2805 N   0  0  0  0  0  0  0  0  0  0  0  0
   -1.7437    0.8683   -0.7296 C   0  0  0  0  0  0  0  0  0  0  0  0
   -1.1068    1.9964   -0.9494 N   0  0  0  0  0  0  0  0  0  0  0  0
   -1.6428    2.5004   -2.1099 C   0  0  0  0  0  0  0  0  0  0  0  0
   -1.3092    3.6699   -2.8133 C   0  0  0  0  0  0  0  0  0  0  0  0
   -1.9999    3.9660   -3.9977 C   0  0  0  0  0  0  0  0  0  0  0  0
   -3.0064    3.1176   -4.4690 C   0  0  0  0  0  0  0  0  0  0  0  0
   -3.3576    1.9501   -3.7776 C   0  0  0  0  0  0  0  0  0  0  0  0
   -2.6510    1.6719   -2.5997 C   0  0  0  0  0  0  0  0  0  0  0  0
   -2.7156    0.6485   -1.6813 N   0  0  0  0  0  0  0  0  0  0  0  0
   -3.6437   -0.4670   -1.7271 C   0  0  0  0  0  0  0  0  0  0  0  0
   -5.0421   -0.1357   -1.1865 C   0  0  0  0  0  0  0  0  0  0  0  0
   -5.9926   -1.2905   -1.4864 C   0  0  0  0  0  0  0  0  0  0  0  0
   -5.0290    0.1459    0.3182 C   0  0  0  0  0  0  0  0  0  0  0  0
   -1.4836    0.5822    1.6395 C   0  0  0  0  0  0  0  0  0  0  0  0
   -0.2043    0.2121    2.4148 C   0  0  0  0  0  0  0  0  0  0  0  0
    3.2701   -0.2326    3.1998 C   0  0  0  0  0  0  0  0  0  0  0  0
    4.5059    0.1211    2.6500 C   0  0  0  0  0  0  0  0  0  0  0  0
    9.0013   -0.2458    0.8546 H   0  0  0  0  0  0  0  0  0  0  0  0
    8.9593   -0.6821   -0.8676 H   0  0  0  0  0  0  0  0  0  0  0  0
    8.2846    0.8790   -0.3430 H   0  0  0  0  0  0  0  0  0  0  0  0
    6.7537    0.5820    1.5819 H   0  0  0  0  0  0  0  0  0  0  0  0
    4.9891   -2.5774    0.6180 H   0  0  0  0  0  0  0  0  0  0  0  0
    2.8441   -3.2176    1.6075 H   0  0  0  0  0  0  0  0  0  0  0  0
   -1.1560   -2.5832    1.2822 H   0  0  0  0  0  0  0  0  0  0  0  0
    0.5754   -2.6277    0.9401 H   0  0  0  0  0  0  0  0  0  0  0  0
    0.4893   -0.4499   -0.1884 H   0  0  0  0  0  0  0  0  0  0  0  0
   -0.6866   -1.5647   -0.8953 H   0  0  0  0  0  0  0  0  0  0  0  0
   -0.5225    4.3219   -2.4408 H   0  0  0  0  0  0  0  0  0  0  0  0
   -1.7465    4.8634   -4.5592 H   0  0  0  0  0  0  0  0  0  0  0  0
   -3.5212    3.3670   -5.3965 H   0  0  0  0  0  0  0  0  0  0  0  0
   -4.1419    1.2945   -4.1468 H   0  0  0  0  0  0  0  0  0  0  0  0
   -3.2115   -1.3063   -1.1774 H   0  0  0  0  0  0  0  0  0  0  0  0
   -3.7030   -0.7847   -2.7729 H   0  0  0  0  0  0  0  0  0  0  0  0
   -5.4304    0.7563   -1.6898 H   0  0  0  0  0  0  0  0  0  0  0  0
   -6.9963   -1.0715   -1.1119 H   0  0  0  0  0  0  0  0  0  0  0  0
   -6.0677   -1.4689   -2.5646 H   0  0  0  0  0  0  0  0  0  0  0  0
   -5.6492   -2.2146   -1.0169 H   0  0  0  0  0  0  0  0  0  0  0  0
   -6.0427    0.3146    0.6924 H   0  0  0  0  0  0  0  0  0  0  0  0
   -4.4509    1.0430    0.5458 H   0  0  0  0  0  0  0  0  0  0  0  0
   -4.6012   -0.6905    0.8769 H   0  0  0  0  0  0  0  0  0  0  0  0
   -1.5834    1.6764    1.6140 H   0  0  0  0  0  0  0  0  0  0  0  0
   -2.3539    0.2028    2.1923 H   0  0  0  0  0  0  0  0  0  0  0  0
   -0.2769    0.6317    3.4222 H   0  0  0  0  0  0  0  0  0  0  0  0
    0.6705    0.6570    1.9263 H   0  0  0  0  0  0  0  0  0  0  0  0
    2.8068    0.4100    3.9456 H   0  0  0  0  0  0  0  0  0  0  0  0
    4.9722    1.0460    2.9757 H   0  0  0  0  0  0  0  0  0  0  0  0
  1  2  1  0
  2  3  2  0
  2  4  1  0
  4  5  1  0
  5  6  2  0
  6  7  1  0
  7  8  2  0
  8  9  1  0
  9 10  2  0
  9 11  2  0
  9 12  1  0
 12 13  1  0
 13 14  1  0
 14 15  1  0
 15 16  1  0
 16 17  2  0
 17 18  1  0
 18 19  2  0
 19 20  1  0
 20 21  2  0
 21 22  1  0
 22 23  2  0
 23 24  1  0
 24 25  1  0
 25 26  1  0
 26 27  1  0
 26 28  1  0
 15 29  1  0
 29 30  1  0
  8 31  1  0
 31 32  2  0
 32  5  1  0
 30 12  1  0
 24 16  1  0
 23 18  1  0
  1 33  1  0
  1 34  1  0
  1 35  1  0
  4 36  1  0
  6 37  1  0
  7 38  1  0
 13 39  1  0
 13 40  1  0
 14 41  1  0
 14 42  1  0
 19 43  1  0
 20 44  1  0
 21 45  1  0
 22 46  1  0
 25 47  1  0
 25 48  1  0
 26 49  1  0
 27 50  1  0
 27 51  1  0
 27 52  1  0
 28 53  1  0
 28 54  1  0
 28 55  1  0
 29 56  1  0
 29 57  1  0
 30 58  1  0
 30 59  1  0
 31 60  1  0
 32 61  1  0
M  END
$$$$
