
     RDKit          3D

 45 47  0  0  0  0  0  0  0  0999 V2000
    5.0417   -2.1289   -3.6869 C   0  0  0  0  0  0  0  0  0  0  0  0
    3.9596   -1.5226   -2.8151 C   0  0  0  0  0  0  0  0  0  0  0  0
    2.9880   -2.3035   -2.4723 N   0  0  0  0  0  0  0  0  0  0  0  0
    4.0872   -0.0553   -2.4484 C   0  0  0  0  0  0  0  0  0  0  0  0
    5.4281    0.2370   -1.9306 C   0  0  0  0  0  0  0  0  0  0  0  0
    6.4782    0.4624   -1.4923 N   0  0  0  0  0  0  0  0  0  0  0  0
    3.0709    0.4701   -1.4647 C   0  0  0  0  0  0  0  0  0  0  0  0
    2.1894    1.2546   -1.8305 O   0  0  0  0  0  0  0  0  0  0  0  0
    3.1714   -0.0007   -0.0061 C   0  0  0  0  0  0  0  0  0  0  0  0
    1.9569    0.1741    0.7240 O   0  0  0  0  0  0  0  0  0  0  0  0
    0.9346   -0.5834    0.2556 C   0  0  0  0  0  0  0  0  0  0  0  0
    1.0044   -1.3840   -0.6632 O   0  0  0  0  0  0  0  0  0  0  0  0
   -0.3158   -0.2169    0.9407 C   0  0  0  0  0  0  0  0  0  0  0  0
   -1.3617    0.1954    0.1128 C   0  0  0  0  0  0  0  0  0  0  0  0
   -2.5600    0.5661    0.6963 C   0  0  0  0  0  0  0  0  0  0  0  0
   -3.7311    1.0253   -0.0805 C   0  0  0  0  0  0  0  0  0  0  0  0
   -4.6356    1.9552    0.4694 C   0  0  0  0  0  0  0  0  0  0  0  0
   -5.7485    2.4089   -0.2456 C   0  0  0  0  0  0  0  0  0  0  0  0
   -5.9868    1.9371   -1.5325 C   0  0  0  0  0  0  0  0  0  0  0  0
   -5.1125    1.0109   -2.0925 C   0  0  0  0  0  0  0  0  0  0  0  0
   -5.4373    0.3557   -3.8372 Br  0  0  0  0  0  0  0  0  0  0  0  0
   -3.9990    0.5560   -1.3800 C   0  0  0  0  0  0  0  0  0  0  0  0
   -2.7225    0.5388    2.0423 N   0  0  0  0  0  0  0  0  0  0  0  0
   -1.7220    0.1205    2.8363 C   0  0  0  0  0  0  0  0  0  0  0  0
   -1.9441    0.0838    4.2064 C   0  0  0  0  0  0  0  0  0  0  0  0
   -0.9675   -0.3531    5.1039 C   0  0  0  0  0  0  0  0  0  0  0  0
    0.2659   -0.7700    4.6262 C   0  0  0  0  0  0  0  0  0  0  0  0
    0.5152   -0.7406    3.2554 C   0  0  0  0  0  0  0  0  0  0  0  0
   -0.4707   -0.2862    2.3410 C   0  0  0  0  0  0  0  0  0  0  0  0
    4.7085   -3.0847   -4.1019 H   0  0  0  0  0  0  0  0  0  0  0  0
    5.2743   -1.4499   -4.5117 H   0  0  0  0  0  0  0  0  0  0  0  0
    5.9413   -2.3004   -3.0901 H   0  0  0  0  0  0  0  0  0  0  0  0
    2.2208   -1.8792   -1.9217 H   0  0  0  0  0  0  0  0  0  0  0  0
    3.9491    0.5035   -3.3836 H   0  0  0  0  0  0  0  0  0  0  0  0
    3.9361    0.6044    0.4907 H   0  0  0  0  0  0  0  0  0  0  0  0
    3.4821   -1.0496    0.0471 H   0  0  0  0  0  0  0  0  0  0  0  0
   -1.2160    0.2454   -0.9620 H   0  0  0  0  0  0  0  0  0  0  0  0
   -4.4707    2.3377    1.4766 H   0  0  0  0  0  0  0  0  0  0  0  0
   -6.4263    3.1282    0.2072 H   0  0  0  0  0  0  0  0  0  0  0  0
   -6.8533    2.2908   -2.0843 H   0  0  0  0  0  0  0  0  0  0  0  0
   -3.3498   -0.1844   -1.8413 H   0  0  0  0  0  0  0  0  0  0  0  0
   -2.9125    0.4009    4.5884 H   0  0  0  0  0  0  0  0  0  0  0  0
   -1.1788   -0.3703    6.1700 H   0  0  0  0  0  0  0  0  0  0  0  0
    1.0310   -1.1185    5.3155 H   0  0  0  0  0  0  0  0  0  0  0  0
    1.4875   -1.0806    2.9067 H   0  0  0  0  0  0  0  0  0  0  0  0
  1  2  1  0
  2  3  2  3
  2  4  1  0
  4  5  1  0
  5  6  3  0
  4  7  1  0
  7  8  2  0
  7  9  1  0
  9 10  1  0
 10 11  1  0
 11 12  2  0
 11 13  1  0
 13 14  2  0
 14 15  1  0
 15 16  1  0
 16 17  2  0
 17 18  1  0
 18 19  2  0
 19 20  1  0
 20 21  1  0
 20 22  2  0
 15 23  2  0
 23 24  1  0
 24 25  2  0
 25 26  1  0
 26 27  2  0
 27 28  1  0
 28 29  2  0
 29 13  1  0
 22 16  1  0
 29 24  1  0
  1 30  1  0
  1 31  1  0
  1 32  1  0
  3 33  1  0
  4 34  1  0
  9 35  1  0
  9 36  1  0
 14 37  1  0
 17 38  1  0
 18 39  1  0
 19 40  1  0
 22 41  1  0
 25 42  1  0
 26 43  1  0
 27 44  1  0
 28 45  1  0
M  END
$$$$
