
     RDKit          3D

 42 46  0  0  0  0  0  0  0  0999 V2000
    6.3510   -0.9421   -3.7615 N   0  0  0  0  0  0  0  0  0  0  0  0
    5.7366   -0.4042   -2.6198 C   0  0  0  0  0  0  0  0  0  0  0  0
    6.5035    0.3000   -1.6823 C   0  0  0  0  0  0  0  0  0  0  0  0
    5.9635    0.7615   -0.4732 C   0  0  0  0  0  0  0  0  0  0  0  0
    4.6284    0.4431   -0.2289 C   0  0  0  0  0  0  0  0  0  0  0  0
    3.7864    0.7133    0.8177 N   0  0  0  0  0  0  0  0  0  0  0  0
    2.5598    0.1393    0.5647 C   0  0  0  0  0  0  0  0  0  0  0  0
    1.4079    0.2307    1.4663 C   0  0  0  0  0  0  0  0  0  0  0  0
    1.5557    0.4440    2.8432 C   0  0  0  0  0  0  0  0  0  0  0  0
    0.4352    0.5262    3.6723 C   0  0  0  0  0  0  0  0  0  0  0  0
   -0.8470    0.3895    3.1367 C   0  0  0  0  0  0  0  0  0  0  0  0
   -1.0249    0.1623    1.7656 C   0  0  0  0  0  0  0  0  0  0  0  0
   -2.3546    0.0132    1.1673 C   0  0  0  0  0  0  0  0  0  0  0  0
   -2.6675    0.2345   -0.0971 N   0  0  0  0  0  0  0  0  0  0  0  0
   -4.0077   -0.0389   -0.2163 C   0  0  0  0  0  0  0  0  0  0  0  0
   -4.8469    0.0431   -1.3378 C   0  0  0  0  0  0  0  0  0  0  0  0
   -6.1914   -0.3361   -1.2170 C   0  0  0  0  0  0  0  0  0  0  0  0
   -7.0690   -0.1544   -2.2972 N   0  0  0  0  0  0  0  0  0  0  0  0
   -6.6981   -0.6884    0.0408 C   0  0  0  0  0  0  0  0  0  0  0  0
   -5.8801   -0.7739    1.1766 C   0  0  0  0  0  0  0  0  0  0  0  0
   -4.5371   -0.4447    0.9997 C   0  0  0  0  0  0  0  0  0  0  0  0
   -3.4694   -0.4095    1.8576 N   0  0  0  0  0  0  0  0  0  0  0  0
    0.1120    0.0889    0.9448 C   0  0  0  0  0  0  0  0  0  0  0  0
    2.5841   -0.4724   -0.6062 N   0  0  0  0  0  0  0  0  0  0  0  0
    3.8510   -0.2982   -1.1061 C   0  0  0  0  0  0  0  0  0  0  0  0
    4.4148   -0.7527   -2.3079 C   0  0  0  0  0  0  0  0  0  0  0  0
    5.6962   -1.1608   -4.5068 H   0  0  0  0  0  0  0  0  0  0  0  0
    7.1452   -0.4035   -4.0916 H   0  0  0  0  0  0  0  0  0  0  0  0
    7.5522    0.5021   -1.8906 H   0  0  0  0  0  0  0  0  0  0  0  0
    6.5646    1.3210    0.2342 H   0  0  0  0  0  0  0  0  0  0  0  0
    4.0189    1.2612    1.6307 H   0  0  0  0  0  0  0  0  0  0  0  0
    2.5392    0.5322    3.2959 H   0  0  0  0  0  0  0  0  0  0  0  0
    0.5616    0.6972    4.7388 H   0  0  0  0  0  0  0  0  0  0  0  0
   -1.6975    0.4813    3.8062 H   0  0  0  0  0  0  0  0  0  0  0  0
   -4.4373    0.3899   -2.2790 H   0  0  0  0  0  0  0  0  0  0  0  0
   -6.6099   -0.2003   -3.2023 H   0  0  0  0  0  0  0  0  0  0  0  0
   -7.8973   -0.7391   -2.2550 H   0  0  0  0  0  0  0  0  0  0  0  0
   -7.7585   -0.9063    0.1498 H   0  0  0  0  0  0  0  0  0  0  0  0
   -6.2833   -1.0656    2.1396 H   0  0  0  0  0  0  0  0  0  0  0  0
   -3.4902   -0.6711    2.8305 H   0  0  0  0  0  0  0  0  0  0  0  0
   -0.0149   -0.0827   -0.1256 H   0  0  0  0  0  0  0  0  0  0  0  0
    3.8144   -1.3576   -2.9769 H   0  0  0  0  0  0  0  0  0  0  0  0
  1  2  1  0
  2  3  2  0
  3  4  1  0
  4  5  2  0
  5  6  1  0
  6  7  1  0
  7  8  1  0
  8  9  2  0
  9 10  1  0
 10 11  2  0
 11 12  1  0
 12 13  1  0
 13 14  2  0
 14 15  1  0
 15 16  2  0
 16 17  1  0
 17 18  1  0
 17 19  2  0
 19 20  1  0
 20 21  2  0
 21 22  1  0
 12 23  2  0
  7 24  2  0
 24 25  1  0
 25 26  2  0
 26  2  1  0
 25  5  1  0
 23  8  1  0
 22 13  1  0
 21 15  1  0
  1 27  1  0
  1 28  1  0
  3 29  1  0
  4 30  1  0
  6 31  1  0
  9 32  1  0
 10 33  1  0
 11 34  1  0
 16 35  1  0
 18 36  1  0
 18 37  1  0
 19 38  1  0
 20 39  1  0
 22 40  1  0
 23 41  1  0
 26 42  1  0
M  END
$$$$
