
     RDKit          3D

 44 47  0  0  0  0  0  0  0  0999 V2000
    6.5273   -0.3922    1.2376 C   0  0  0  0  0  0  0  0  0  0  0  0
    5.2890   -0.0358    2.0460 C   0  0  0  0  0  0  0  0  0  0  0  0
    4.0407   -0.1389    1.2223 C   0  0  0  0  0  0  0  0  0  0  0  0
    3.2465   -1.2487    1.0091 C   0  0  0  0  0  0  0  0  0  0  0  0
    2.1385   -0.9564    0.1606 C   0  0  0  0  0  0  0  0  0  0  0  0
    1.0811   -1.8302   -0.2984 C   0  0  0  0  0  0  0  0  0  0  0  0
    1.0454   -3.0103    0.0392 O   0  0  0  0  0  0  0  0  0  0  0  0
    0.1307   -1.2146   -1.1217 N   0  0  0  0  0  0  0  0  0  0  0  0
   -0.9821   -2.0622   -1.5630 C   0  0  0  0  0  0  0  0  0  0  0  0
   -2.2378   -1.8596   -0.7362 C   0  0  0  0  0  0  0  0  0  0  0  0
   -2.2454   -2.1233    0.6421 C   0  0  0  0  0  0  0  0  0  0  0  0
   -3.4030   -1.9269    1.3976 C   0  0  0  0  0  0  0  0  0  0  0  0
   -4.5689   -1.4736    0.7852 C   0  0  0  0  0  0  0  0  0  0  0  0
   -4.5816   -1.2246   -0.5849 C   0  0  0  0  0  0  0  0  0  0  0  0
   -3.4257   -1.4220   -1.3425 C   0  0  0  0  0  0  0  0  0  0  0  0
    0.2548    0.1349   -1.4572 C   0  0  0  0  0  0  0  0  0  0  0  0
   -0.9434    0.8442   -2.5238 S   0  0  0  0  0  0  0  0  0  0  0  0
   -1.1663    2.4513   -1.7142 C   0  0  0  0  0  0  0  0  0  0  0  0
   -1.7416    2.3339   -0.3180 C   0  0  0  0  0  0  0  0  0  0  0  0
   -2.4324    3.6633   -0.1575 C   0  0  0  0  0  0  0  0  0  0  0  0
   -2.9402    3.9781   -1.4531 O   0  0  0  0  0  0  0  0  0  0  0  0
   -2.2249    3.2856   -2.3967 C   0  0  0  0  0  0  0  0  0  0  0  0
   -2.4210    3.3957   -3.5965 O   0  0  0  0  0  0  0  0  0  0  0  0
    1.2000    0.9257   -1.0511 N   0  0  0  0  0  0  0  0  0  0  0  0
    2.1194    0.3531   -0.2442 C   0  0  0  0  0  0  0  0  0  0  0  0
    3.4277    1.2354    0.3986 S   0  0  0  0  0  0  0  0  0  0  0  0
    6.4656   -1.4135    0.8465 H   0  0  0  0  0  0  0  0  0  0  0  0
    7.4218   -0.3229    1.8648 H   0  0  0  0  0  0  0  0  0  0  0  0
    6.6563    0.2856    0.3870 H   0  0  0  0  0  0  0  0  0  0  0  0
    5.3985    0.9745    2.4580 H   0  0  0  0  0  0  0  0  0  0  0  0
    5.2120   -0.7141    2.9045 H   0  0  0  0  0  0  0  0  0  0  0  0
    3.4468   -2.2251    1.4363 H   0  0  0  0  0  0  0  0  0  0  0  0
   -1.1812   -1.8725   -2.6236 H   0  0  0  0  0  0  0  0  0  0  0  0
   -0.7091   -3.1231   -1.5081 H   0  0  0  0  0  0  0  0  0  0  0  0
   -1.3536   -2.4969    1.1414 H   0  0  0  0  0  0  0  0  0  0  0  0
   -3.3962   -2.1369    2.4644 H   0  0  0  0  0  0  0  0  0  0  0  0
   -5.4708   -1.3253    1.3736 H   0  0  0  0  0  0  0  0  0  0  0  0
   -5.4938   -0.8806   -1.0665 H   0  0  0  0  0  0  0  0  0  0  0  0
   -3.4626   -1.2255   -2.4127 H   0  0  0  0  0  0  0  0  0  0  0  0
   -0.2379    3.0332   -1.7223 H   0  0  0  0  0  0  0  0  0  0  0  0
   -2.4902    1.5341   -0.2568 H   0  0  0  0  0  0  0  0  0  0  0  0
   -0.9913    2.1593    0.4583 H   0  0  0  0  0  0  0  0  0  0  0  0
   -3.2572    3.6109    0.5590 H   0  0  0  0  0  0  0  0  0  0  0  0
   -1.7434    4.4566    0.1515 H   0  0  0  0  0  0  0  0  0  0  0  0
  1  2  1  0
  2  3  1  0
  3  4  2  0
  4  5  1  0
  5  6  1  0
  6  7  2  0
  6  8  1  0
  8  9  1  0
  9 10  1  0
 10 11  2  0
 11 12  1  0
 12 13  2  0
 13 14  1  0
 14 15  2  0
  8 16  1  0
 16 17  1  0
 17 18  1  0
 18 19  1  0
 19 20  1  0
 20 21  1  0
 21 22  1  0
 22 23  2  0
 16 24  2  0
 24 25  1  0
 25 26  1  0
 26  3  1  0
 25  5  2  0
 15 10  1  0
 22 18  1  0
  1 27  1  0
  1 28  1  0
  1 29  1  0
  2 30  1  0
  2 31  1  0
  4 32  1  0
  9 33  1  0
  9 34  1  0
 11 35  1  0
 12 36  1  0
 13 37  1  0
 14 38  1  0
 15 39  1  0
 18 40  1  0
 19 41  1  0
 19 42  1  0
 20 43  1  0
 20 44  1  0
M  END
$$$$
