
     RDKit          3D

 37 38  0  0  0  0  0  0  0  0999 V2000
   -2.9285   -2.1164    0.5082 C   0  0  0  0  0  0  0  0  0  0  0  0
   -3.4857   -0.6877    0.4165 C   0  0  0  0  0  0  0  0  0  0  0  0
   -5.0161   -0.7760    0.5320 C   0  0  0  0  0  0  0  0  0  0  0  0
   -3.0511    0.0227   -0.8980 C   0  0  0  0  0  0  0  0  0  0  0  0
   -3.3638    1.5322   -0.9101 C   0  0  0  0  0  0  0  0  0  0  0  0
   -4.3773    2.0706   -0.4933 O   0  0  0  0  0  0  0  0  0  0  0  0
   -2.4363    2.2897   -1.5387 O   0  0  0  0  0  0  0  0  0  0  0  0
   -1.6254   -0.1788   -1.2575 N   0  0  0  0  0  0  0  0  0  0  0  0
   -0.6446    0.2046   -0.3522 C   0  0  0  0  0  0  0  0  0  0  0  0
   -0.8606    0.6844    0.7523 O   0  0  0  0  0  0  0  0  0  0  0  0
    0.7161   -0.0183   -0.9195 C   0  0  0  0  0  0  0  0  0  0  0  0
    1.9108    0.1719   -0.3371 C   0  0  0  0  0  0  0  0  0  0  0  0
    2.1684    0.6499    1.0075 C   0  0  0  0  0  0  0  0  0  0  0  0
    3.3432    0.8201    1.6366 C   0  0  0  0  0  0  0  0  0  0  0  0
    4.6424    0.5446    1.1221 C   0  0  0  0  0  0  0  0  0  0  0  0
    5.8668    0.8140    1.7296 C   0  0  0  0  0  0  0  0  0  0  0  0
    6.8972    0.3669    0.8696 C   0  0  0  0  0  0  0  0  0  0  0  0
    6.2630   -0.1597   -0.2243 C   0  0  0  0  0  0  0  0  0  0  0  0
    4.9203   -0.0610   -0.0834 O   0  0  0  0  0  0  0  0  0  0  0  0
    0.5708   -0.5947   -2.5408 S   0  0  0  0  0  0  0  0  0  0  0  0
   -1.1850   -0.5681   -2.5049 C   0  0  0  0  0  0  0  0  0  0  0  0
   -2.0892   -0.9978   -3.8406 S   0  0  0  0  0  0  0  0  0  0  0  0
   -3.3011   -2.6223    1.4058 H   0  0  0  0  0  0  0  0  0  0  0  0
   -1.8367   -2.1250    0.5706 H   0  0  0  0  0  0  0  0  0  0  0  0
   -3.2255   -2.7123   -0.3617 H   0  0  0  0  0  0  0  0  0  0  0  0
   -3.1289   -0.1214    1.2846 H   0  0  0  0  0  0  0  0  0  0  0  0
   -5.3051   -1.3262    1.4345 H   0  0  0  0  0  0  0  0  0  0  0  0
   -5.4499   -1.2951   -0.3296 H   0  0  0  0  0  0  0  0  0  0  0  0
   -5.4790    0.2109    0.6030 H   0  0  0  0  0  0  0  0  0  0  0  0
   -3.6669   -0.3885   -1.7042 H   0  0  0  0  0  0  0  0  0  0  0  0
   -2.7921    3.2017   -1.4702 H   0  0  0  0  0  0  0  0  0  0  0  0
    2.7907   -0.0512   -0.9355 H   0  0  0  0  0  0  0  0  0  0  0  0
    1.2903    0.9192    1.5935 H   0  0  0  0  0  0  0  0  0  0  0  0
    3.3066    1.2102    2.6521 H   0  0  0  0  0  0  0  0  0  0  0  0
    5.9932    1.2863    2.6944 H   0  0  0  0  0  0  0  0  0  0  0  0
    7.9646    0.4213    1.0291 H   0  0  0  0  0  0  0  0  0  0  0  0
    6.6046   -0.6208   -1.1404 H   0  0  0  0  0  0  0  0  0  0  0  0
  1  2  1  0
  2  3  1  0
  2  4  1  0
  4  5  1  0
  5  6  2  0
  5  7  1  0
  4  8  1  0
  8  9  1  0
  9 10  2  0
  9 11  1  0
 11 12  2  3
 12 13  1  0
 13 14  2  3
 14 15  1  0
 15 16  2  0
 16 17  1  0
 17 18  2  0
 18 19  1  0
 11 20  1  0
 20 21  1  0
 21 22  2  0
 21  8  1  0
 19 15  1  0
  1 23  1  0
  1 24  1  0
  1 25  1  0
  2 26  1  0
  3 27  1  0
  3 28  1  0
  3 29  1  0
  4 30  1  0
  7 31  1  0
 12 32  1  0
 13 33  1  0
 14 34  1  0
 16 35  1  0
 17 36  1  0
 18 37  1  0
M  END
$$$$
