
     RDKit          3D

 49 51  0  0  0  0  0  0  0  0999 V2000
    8.8771   -3.1944    3.1093 N   0  0  0  0  0  0  0  0  0  0  0  0
    7.8641   -2.8516    2.6568 C   0  0  0  0  0  0  0  0  0  0  0  0
    6.6190   -2.4473    2.0738 C   0  0  0  0  0  0  0  0  0  0  0  0
    5.9011   -1.5344    2.7812 N   0  0  0  0  0  0  0  0  0  0  0  0
    4.7205   -1.1494    2.2253 C   0  0  0  0  0  0  0  0  0  0  0  0
    4.2410   -1.6388    1.0098 C   0  0  0  0  0  0  0  0  0  0  0  0
    2.9614   -1.2281    0.3902 C   0  0  0  0  0  0  0  0  0  0  0  0
    2.7205   -1.4595   -0.9788 C   0  0  0  0  0  0  0  0  0  0  0  0
    1.5134   -1.0973   -1.5883 C   0  0  0  0  0  0  0  0  0  0  0  0
    0.4999   -0.5000   -0.8450 C   0  0  0  0  0  0  0  0  0  0  0  0
    0.7328   -0.2094    0.4996 C   0  0  0  0  0  0  0  0  0  0  0  0
    1.9324   -0.5995    1.1154 C   0  0  0  0  0  0  0  0  0  0  0  0
   -0.2097    0.4027    1.2789 O   0  0  0  0  0  0  0  0  0  0  0  0
    0.0265    1.8152    1.4277 C   0  0  0  0  0  0  0  0  0  0  0  0
   -0.9323    2.6173    0.5466 C   0  0  0  0  0  0  0  0  0  0  0  0
   -2.2806    2.3645    0.9548 O   0  0  0  0  0  0  0  0  0  0  0  0
   -3.2303    2.7982   -0.0191 C   0  0  0  0  0  0  0  0  0  0  0  0
   -4.5927    2.1732    0.2892 C   0  0  0  0  0  0  0  0  0  0  0  0
   -5.5650    2.3495   -0.7421 O   0  0  0  0  0  0  0  0  0  0  0  0
   -5.3137    1.6705   -1.9784 C   0  0  0  0  0  0  0  0  0  0  0  0
   -5.3333    0.1342   -1.8993 C   0  0  0  0  0  0  0  0  0  0  0  0
   -4.2184   -0.4343   -1.2092 O   0  0  0  0  0  0  0  0  0  0  0  0
   -2.9888   -0.3980   -1.9305 C   0  0  0  0  0  0  0  0  0  0  0  0
   -1.8382   -0.6752   -0.9605 C   0  0  0  0  0  0  0  0  0  0  0  0
   -0.6295   -0.1731   -1.5441 O   0  0  0  0  0  0  0  0  0  0  0  0
    4.9816   -2.5465    0.3156 N   0  0  0  0  0  0  0  0  0  0  0  0
    6.1675   -2.9419    0.8629 C   0  0  0  0  0  0  0  0  0  0  0  0
    6.9130   -3.8963    0.0969 C   0  0  0  0  0  0  0  0  0  0  0  0
    7.5327   -4.6673   -0.5112 N   0  0  0  0  0  0  0  0  0  0  0  0
    4.1792   -0.4096    2.8063 H   0  0  0  0  0  0  0  0  0  0  0  0
    3.4804   -1.9389   -1.5959 H   0  0  0  0  0  0  0  0  0  0  0  0
    1.3638   -1.2982   -2.6461 H   0  0  0  0  0  0  0  0  0  0  0  0
    2.0277   -0.4087    2.1813 H   0  0  0  0  0  0  0  0  0  0  0  0
   -0.1633    2.0488    2.4807 H   0  0  0  0  0  0  0  0  0  0  0  0
    1.0659    2.0885    1.2055 H   0  0  0  0  0  0  0  0  0  0  0  0
   -0.7948    2.3273   -0.4990 H   0  0  0  0  0  0  0  0  0  0  0  0
   -0.7321    3.6886    0.6481 H   0  0  0  0  0  0  0  0  0  0  0  0
   -2.8917    2.5105   -1.0168 H   0  0  0  0  0  0  0  0  0  0  0  0
   -3.3009    3.8917   -0.0013 H   0  0  0  0  0  0  0  0  0  0  0  0
   -4.5028    1.1179    0.5640 H   0  0  0  0  0  0  0  0  0  0  0  0
   -4.9940    2.6562    1.1883 H   0  0  0  0  0  0  0  0  0  0  0  0
   -6.1265    1.9759   -2.6468 H   0  0  0  0  0  0  0  0  0  0  0  0
   -4.3949    2.0540   -2.4273 H   0  0  0  0  0  0  0  0  0  0  0  0
   -5.3879   -0.2983   -2.9042 H   0  0  0  0  0  0  0  0  0  0  0  0
   -6.2268   -0.1766   -1.3490 H   0  0  0  0  0  0  0  0  0  0  0  0
   -3.0094   -1.1532   -2.7232 H   0  0  0  0  0  0  0  0  0  0  0  0
   -2.8384    0.5726   -2.4122 H   0  0  0  0  0  0  0  0  0  0  0  0
   -1.7640   -1.7537   -0.7742 H   0  0  0  0  0  0  0  0  0  0  0  0
   -2.0620   -0.1776   -0.0139 H   0  0  0  0  0  0  0  0  0  0  0  0
  1  2  3  0
  2  3  1  0
  3  4  2  0
  4  5  1  0
  5  6  2  0
  6  7  1  0
  7  8  2  0
  8  9  1  0
  9 10  2  0
 10 11  1  0
 11 12  2  0
 11 13  1  0
 13 14  1  0
 14 15  1  0
 15 16  1  0
 16 17  1  0
 17 18  1  0
 18 19  1  0
 19 20  1  0
 20 21  1  0
 21 22  1  0
 22 23  1  0
 23 24  1  0
 24 25  1  0
  6 26  1  0
 26 27  2  0
 27 28  1  0
 28 29  3  0
 27  3  1  0
 12  7  1  0
 25 10  1  0
  5 30  1  0
  8 31  1  0
  9 32  1  0
 12 33  1  0
 14 34  1  0
 14 35  1  0
 15 36  1  0
 15 37  1  0
 17 38  1  0
 17 39  1  0
 18 40  1  0
 18 41  1  0
 20 42  1  0
 20 43  1  0
 21 44  1  0
 21 45  1  0
 23 46  1  0
 23 47  1  0
 24 48  1  0
 24 49  1  0
M  END
$$$$
