
     RDKit          3D

 51 53  0  0  0  0  0  0  0  0999 V2000
   -5.2515   -2.4689   -2.0077 C   0  0  0  0  0  0  0  0  0  0  0  0
   -3.8476   -2.6789   -1.9780 O   0  0  0  0  0  0  0  0  0  0  0  0
   -3.1112   -1.9517   -1.0758 C   0  0  0  0  0  0  0  0  0  0  0  0
   -3.6460   -0.9993   -0.2027 C   0  0  0  0  0  0  0  0  0  0  0  0
   -2.8202   -0.2981    0.6908 C   0  0  0  0  0  0  0  0  0  0  0  0
   -1.4317   -0.5203    0.6917 C   0  0  0  0  0  0  0  0  0  0  0  0
   -0.9069   -1.5065   -0.1664 C   0  0  0  0  0  0  0  0  0  0  0  0
   -1.7282   -2.2091   -1.0562 C   0  0  0  0  0  0  0  0  0  0  0  0
   -1.2789   -3.1662   -1.9327 O   0  0  0  0  0  0  0  0  0  0  0  0
    0.1250   -3.3531   -2.0419 C   0  0  0  0  0  0  0  0  0  0  0  0
   -0.5149    0.2307    1.6639 C   0  0  0  0  0  0  0  0  0  0  0  0
    0.8002    0.7090    1.0450 C   0  0  0  0  0  0  0  0  0  0  0  0
    2.0059    0.5233    1.7459 C   0  0  0  0  0  0  0  0  0  0  0  0
    3.2195    0.9642    1.2131 C   0  0  0  0  0  0  0  0  0  0  0  0
    4.4380    0.8143    1.8241 O   0  0  0  0  0  0  0  0  0  0  0  0
    4.4298    0.5113    3.2126 C   0  0  0  0  0  0  0  0  0  0  0  0
    3.2233    1.5816   -0.0487 C   0  0  0  0  0  0  0  0  0  0  0  0
    4.4131    2.0461   -0.5677 O   0  0  0  0  0  0  0  0  0  0  0  0
    5.0175    1.0324   -1.3681 C   0  0  0  0  0  0  0  0  0  0  0  0
    2.0302    1.8101   -0.7542 C   0  0  0  0  0  0  0  0  0  0  0  0
    2.1507    2.4467   -1.9625 O   0  0  0  0  0  0  0  0  0  0  0  0
    0.9570    2.7192   -2.6829 C   0  0  0  0  0  0  0  0  0  0  0  0
    0.8257    1.3759   -0.1967 C   0  0  0  0  0  0  0  0  0  0  0  0
   -1.1555    1.3877    2.3178 N   0  0  0  0  0  0  0  0  0  0  0  0
   -2.4946    1.0415    2.7929 C   0  0  0  0  0  0  0  0  0  0  0  0
   -3.4283    0.7177    1.6253 C   0  0  0  0  0  0  0  0  0  0  0  0
   -5.4908   -1.4402   -2.2964 H   0  0  0  0  0  0  0  0  0  0  0  0
   -5.6732   -3.1332   -2.7682 H   0  0  0  0  0  0  0  0  0  0  0  0
   -5.7110   -2.7289   -1.0484 H   0  0  0  0  0  0  0  0  0  0  0  0
   -4.7100   -0.7851   -0.1918 H   0  0  0  0  0  0  0  0  0  0  0  0
    0.1589   -1.7101   -0.1247 H   0  0  0  0  0  0  0  0  0  0  0  0
    0.5411   -3.7549   -1.1124 H   0  0  0  0  0  0  0  0  0  0  0  0
    0.3037   -4.0902   -2.8307 H   0  0  0  0  0  0  0  0  0  0  0  0
    0.6287   -2.4255   -2.3342 H   0  0  0  0  0  0  0  0  0  0  0  0
   -0.2734   -0.4972    2.4517 H   0  0  0  0  0  0  0  0  0  0  0  0
    1.9685    0.0307    2.7127 H   0  0  0  0  0  0  0  0  0  0  0  0
    3.8229    1.2278    3.7766 H   0  0  0  0  0  0  0  0  0  0  0  0
    4.0918   -0.5155    3.3852 H   0  0  0  0  0  0  0  0  0  0  0  0
    5.4587    0.5872    3.5772 H   0  0  0  0  0  0  0  0  0  0  0  0
    5.2553    0.1427   -0.7748 H   0  0  0  0  0  0  0  0  0  0  0  0
    4.3818    0.7614   -2.2182 H   0  0  0  0  0  0  0  0  0  0  0  0
    5.9554    1.4336   -1.7637 H   0  0  0  0  0  0  0  0  0  0  0  0
    0.2937    3.3796   -2.1146 H   0  0  0  0  0  0  0  0  0  0  0  0
    0.4469    1.7925   -2.9660 H   0  0  0  0  0  0  0  0  0  0  0  0
    1.2342    3.2401   -3.6044 H   0  0  0  0  0  0  0  0  0  0  0  0
   -0.1157    1.5358   -0.7136 H   0  0  0  0  0  0  0  0  0  0  0  0
   -1.2285    2.1374    1.6314 H   0  0  0  0  0  0  0  0  0  0  0  0
   -2.9031    1.8866    3.3581 H   0  0  0  0  0  0  0  0  0  0  0  0
   -2.4378    0.1972    3.4917 H   0  0  0  0  0  0  0  0  0  0  0  0
   -4.3763    0.3391    2.0254 H   0  0  0  0  0  0  0  0  0  0  0  0
   -3.6426    1.6293    1.0537 H   0  0  0  0  0  0  0  0  0  0  0  0
  1  2  1  0
  2  3  1  0
  3  4  2  0
  4  5  1  0
  5  6  2  0
  6  7  1  0
  7  8  2  0
  8  9  1  0
  9 10  1  0
  6 11  1  0
 11 12  1  0
 12 13  2  0
 13 14  1  0
 14 15  1  0
 15 16  1  0
 14 17  2  0
 17 18  1  0
 18 19  1  0
 17 20  1  0
 20 21  1  0
 21 22  1  0
 20 23  2  0
 11 24  1  0
 24 25  1  0
 25 26  1  0
  8  3  1  0
 23 12  1  0
 26  5  1  0
  1 27  1  0
  1 28  1  0
  1 29  1  0
  4 30  1  0
  7 31  1  0
 10 32  1  0
 10 33  1  0
 10 34  1  0
 11 35  1  0
 13 36  1  0
 16 37  1  0
 16 38  1  0
 16 39  1  0
 19 40  1  0
 19 41  1  0
 19 42  1  0
 22 43  1  0
 22 44  1  0
 22 45  1  0
 23 46  1  0
 24 47  1  0
 25 48  1  0
 25 49  1  0
 26 50  1  0
 26 51  1  0
M  END
$$$$
