
     RDKit          3D

 35 36  0  0  0  0  0  0  0  0999 V2000
    2.6973   -2.5590   -0.3027 C   0  0  0  0  0  0  0  0  0  0  0  0
    2.0684   -1.3324    0.0475 O   0  0  0  0  0  0  0  0  0  0  0  0
    2.8770   -0.3303    0.5335 C   0  0  0  0  0  0  0  0  0  0  0  0
    4.2667   -0.4150    0.6608 C   0  0  0  0  0  0  0  0  0  0  0  0
    4.9914    0.6679    1.1626 C   0  0  0  0  0  0  0  0  0  0  0  0
    4.3334    1.8365    1.5372 C   0  0  0  0  0  0  0  0  0  0  0  0
    2.9459    1.9314    1.4132 C   0  0  0  0  0  0  0  0  0  0  0  0
    2.2103    0.8549    0.9139 C   0  0  0  0  0  0  0  0  0  0  0  0
    0.8103    0.8775    0.7604 N   0  0  0  0  0  0  0  0  0  0  0  0
   -0.0827    1.8926    1.0403 C   0  0  0  0  0  0  0  0  0  0  0  0
    0.1803    2.9913    1.5200 O   0  0  0  0  0  0  0  0  0  0  0  0
   -1.5318    1.4900    0.7233 C   0  0  0  0  0  0  0  0  0  0  0  0
   -1.5723    0.4952   -0.3683 N   0  0  0  0  0  0  0  0  0  0  0  0
   -2.8055   -0.0221   -0.7826 C   0  0  0  0  0  0  0  0  0  0  0  0
   -3.9518   -0.0411    0.0236 C   0  0  0  0  0  0  0  0  0  0  0  0
   -5.1354   -0.6448   -0.4160 C   0  0  0  0  0  0  0  0  0  0  0  0
   -5.1747   -1.2639   -1.6583 C   0  0  0  0  0  0  0  0  0  0  0  0
   -6.3181   -1.8387   -2.0587 F   0  0  0  0  0  0  0  0  0  0  0  0
   -4.0404   -1.2949   -2.4599 C   0  0  0  0  0  0  0  0  0  0  0  0
   -4.0668   -2.0815   -3.9916 Cl  0  0  0  0  0  0  0  0  0  0  0  0
   -2.8610   -0.6893   -2.0181 C   0  0  0  0  0  0  0  0  0  0  0  0
    3.1862   -3.0148    0.5647 H   0  0  0  0  0  0  0  0  0  0  0  0
    1.9182   -3.2472   -0.6446 H   0  0  0  0  0  0  0  0  0  0  0  0
    3.4023   -2.4186   -1.1285 H   0  0  0  0  0  0  0  0  0  0  0  0
    4.8171   -1.3058    0.3782 H   0  0  0  0  0  0  0  0  0  0  0  0
    6.0721    0.6000    1.2610 H   0  0  0  0  0  0  0  0  0  0  0  0
    4.8982    2.6795    1.9279 H   0  0  0  0  0  0  0  0  0  0  0  0
    2.4672    2.8573    1.7155 H   0  0  0  0  0  0  0  0  0  0  0  0
    0.4024    0.0185    0.3899 H   0  0  0  0  0  0  0  0  0  0  0  0
   -2.0806    2.3902    0.4259 H   0  0  0  0  0  0  0  0  0  0  0  0
   -1.9499    1.0806    1.6488 H   0  0  0  0  0  0  0  0  0  0  0  0
   -1.0228    0.8104   -1.1704 H   0  0  0  0  0  0  0  0  0  0  0  0
   -3.9553    0.4102    1.0115 H   0  0  0  0  0  0  0  0  0  0  0  0
   -6.0222   -0.6431    0.2103 H   0  0  0  0  0  0  0  0  0  0  0  0
   -1.9736   -0.7415   -2.6447 H   0  0  0  0  0  0  0  0  0  0  0  0
  1  2  1  0
  2  3  1  0
  3  4  2  0
  4  5  1  0
  5  6  2  0
  6  7  1  0
  7  8  2  0
  8  9  1  0
  9 10  1  0
 10 11  2  0
 10 12  1  0
 12 13  1  0
 13 14  1  0
 14 15  2  0
 15 16  1  0
 16 17  2  0
 17 18  1  0
 17 19  1  0
 19 20  1  0
 19 21  2  0
  8  3  1  0
 21 14  1  0
  1 22  1  0
  1 23  1  0
  1 24  1  0
  4 25  1  0
  5 26  1  0
  6 27  1  0
  7 28  1  0
  9 29  1  0
 12 30  1  0
 12 31  1  0
 13 32  1  0
 15 33  1  0
 16 34  1  0
 21 35  1  0
M  END
$$$$
