
     RDKit          3D

 50 53  0  0  0  0  0  0  0  0999 V2000
   -4.6515   -1.3047    1.5296 C   0  0  0  0  0  0  0  0  0  0  0  0
   -4.5206   -0.3947    0.3046 C   0  0  0  0  0  0  0  0  0  0  0  0
   -4.5077    1.0766    0.7507 C   0  0  0  0  0  0  0  0  0  0  0  0
   -3.8282    1.9958   -0.2649 C   0  0  0  0  0  0  0  0  0  0  0  0
   -4.6312    2.1136   -1.5640 C   0  0  0  0  0  0  0  0  0  0  0  0
   -2.3760    1.5484   -0.5176 C   0  0  0  0  0  0  0  0  0  0  0  0
   -2.1788    0.1134   -0.2946 N   0  0  0  0  0  0  0  0  0  0  0  0
   -0.9202   -0.3524   -0.6692 C   0  0  0  0  0  0  0  0  0  0  0  0
   -0.7530   -1.6572   -0.9472 N   0  0  0  0  0  0  0  0  0  0  0  0
    0.4849   -2.0861   -1.2757 C   0  0  0  0  0  0  0  0  0  0  0  0
    1.5739   -1.2558   -1.3357 C   0  0  0  0  0  0  0  0  0  0  0  0
    1.3380    0.0645   -1.0344 C   0  0  0  0  0  0  0  0  0  0  0  0
    0.1065    0.5215   -0.7107 N   0  0  0  0  0  0  0  0  0  0  0  0
    2.4512    1.0772   -1.0513 C   0  0  0  0  0  0  0  0  0  0  0  0
    3.8325    0.4464   -0.7943 C   0  0  0  0  0  0  0  0  0  0  0  0
    4.1598    0.0702    0.6513 C   0  0  0  0  0  0  0  0  0  0  0  0
    3.2118    0.0494    1.6864 C   0  0  0  0  0  0  0  0  0  0  0  0
    3.5781   -0.3036    2.9905 C   0  0  0  0  0  0  0  0  0  0  0  0
    4.8981   -0.6322    3.2796 C   0  0  0  0  0  0  0  0  0  0  0  0
    5.3443   -1.0627    4.8837 Cl  0  0  0  0  0  0  0  0  0  0  0  0
    5.8588   -0.6069    2.2757 C   0  0  0  0  0  0  0  0  0  0  0  0
    5.4921   -0.2548    0.9738 C   0  0  0  0  0  0  0  0  0  0  0  0
    4.0358   -0.7338   -1.7598 C   0  0  0  0  0  0  0  0  0  0  0  0
    2.9113   -1.7434   -1.6953 C   0  0  0  0  0  0  0  0  0  0  0  0
    3.0726   -2.9210   -2.0000 O   0  0  0  0  0  0  0  0  0  0  0  0
   -3.2983   -0.7832   -0.5529 C   0  0  0  0  0  0  0  0  0  0  0  0
   -4.7653   -2.3510    1.2265 H   0  0  0  0  0  0  0  0  0  0  0  0
   -3.7687   -1.2331    2.1740 H   0  0  0  0  0  0  0  0  0  0  0  0
   -5.5308   -1.0330    2.1234 H   0  0  0  0  0  0  0  0  0  0  0  0
   -5.4151   -0.5635   -0.3099 H   0  0  0  0  0  0  0  0  0  0  0  0
   -5.5346    1.4110    0.9440 H   0  0  0  0  0  0  0  0  0  0  0  0
   -3.9742    1.1712    1.7065 H   0  0  0  0  0  0  0  0  0  0  0  0
   -3.7943    3.0074    0.1619 H   0  0  0  0  0  0  0  0  0  0  0  0
   -4.6929    1.1683   -2.1090 H   0  0  0  0  0  0  0  0  0  0  0  0
   -5.6530    2.4482   -1.3552 H   0  0  0  0  0  0  0  0  0  0  0  0
   -4.1724    2.8513   -2.2312 H   0  0  0  0  0  0  0  0  0  0  0  0
   -2.0701    1.8392   -1.5316 H   0  0  0  0  0  0  0  0  0  0  0  0
   -1.7364    2.0986    0.1859 H   0  0  0  0  0  0  0  0  0  0  0  0
    0.5643   -3.1483   -1.4907 H   0  0  0  0  0  0  0  0  0  0  0  0
    2.4491    1.5438   -2.0451 H   0  0  0  0  0  0  0  0  0  0  0  0
    2.2485    1.8751   -0.3267 H   0  0  0  0  0  0  0  0  0  0  0  0
    4.5681    1.2209   -1.0579 H   0  0  0  0  0  0  0  0  0  0  0  0
    2.1689    0.3085    1.5201 H   0  0  0  0  0  0  0  0  0  0  0  0
    2.8244   -0.3164    3.7741 H   0  0  0  0  0  0  0  0  0  0  0  0
    6.8930   -0.8574    2.4963 H   0  0  0  0  0  0  0  0  0  0  0  0
    6.2659   -0.2341    0.2077 H   0  0  0  0  0  0  0  0  0  0  0  0
    4.0783   -0.3669   -2.7929 H   0  0  0  0  0  0  0  0  0  0  0  0
    4.9766   -1.2577   -1.5589 H   0  0  0  0  0  0  0  0  0  0  0  0
   -3.5607   -0.7338   -1.6173 H   0  0  0  0  0  0  0  0  0  0  0  0
   -3.0526   -1.8326   -0.3480 H   0  0  0  0  0  0  0  0  0  0  0  0
  1  2  1  0
  2  3  1  0
  3  4  1  0
  4  5  1  0
  4  6  1  0
  6  7  1  0
  7  8  1  0
  8  9  2  0
  9 10  1  0
 10 11  2  0
 11 12  1  0
 12 13  2  0
 12 14  1  0
 14 15  1  0
 15 16  1  0
 16 17  2  0
 17 18  1  0
 18 19  2  0
 19 20  1  0
 19 21  1  0
 21 22  2  0
 15 23  1  0
 23 24  1  0
 24 25  2  0
  7 26  1  0
 26  2  1  0
 13  8  1  0
 22 16  1  0
 24 11  1  0
  1 27  1  0
  1 28  1  0
  1 29  1  0
  2 30  1  0
  3 31  1  0
  3 32  1  0
  4 33  1  0
  5 34  1  0
  5 35  1  0
  5 36  1  0
  6 37  1  0
  6 38  1  0
 10 39  1  0
 14 40  1  0
 14 41  1  0
 15 42  1  0
 17 43  1  0
 18 44  1  0
 21 45  1  0
 22 46  1  0
 23 47  1  0
 23 48  1  0
 26 49  1  0
 26 50  1  0
M  END
$$$$
