
     RDKit          3D

 45 47  0  0  0  0  0  0  0  0999 V2000
    3.3865    0.2203    0.5203 O   0  0  0  0  0  0  0  0  0  0  0  0
    2.5265   -0.4366   -0.0723 C   0  0  0  0  0  0  0  0  0  0  0  0
    2.8781   -1.1553   -1.3673 C   0  0  0  0  0  0  0  0  0  0  0  0
    2.4440   -0.1448   -2.8240 S   0  0  0  0  0  0  0  0  0  0  0  0
    3.5859    1.2104   -2.6295 C   0  0  0  0  0  0  0  0  0  0  0  0
    4.9673    1.0140   -2.7276 C   0  0  0  0  0  0  0  0  0  0  0  0
    5.8446    2.0927   -2.5871 C   0  0  0  0  0  0  0  0  0  0  0  0
    5.3380    3.3701   -2.3557 C   0  0  0  0  0  0  0  0  0  0  0  0
    6.5237    4.8300   -2.1667 Br  0  0  0  0  0  0  0  0  0  0  0  0
    3.9634    3.5794   -2.2687 C   0  0  0  0  0  0  0  0  0  0  0  0
    3.0882    2.4992   -2.4107 C   0  0  0  0  0  0  0  0  0  0  0  0
    1.2359   -0.5561    0.4248 N   0  0  0  0  0  0  0  0  0  0  0  0
    0.1481   -1.3111   -0.2058 C   0  0  0  0  0  0  0  0  0  0  0  0
   -1.2376   -0.8070    0.2210 C   0  0  0  0  0  0  0  0  0  0  0  0
   -1.4259   -0.8803    1.7067 N   0  0  0  0  0  0  0  0  0  0  0  0
   -2.7405    0.0327    2.3115 S   0  0  0  0  0  6  0  0  0  0  0  0
   -2.5535    1.3954    1.8595 O   0  0  0  0  0  0  0  0  0  0  0  0
   -2.8919   -0.2770    3.7168 O   0  0  0  0  0  0  0  0  0  0  0  0
   -4.1298   -0.6671    1.4594 C   0  0  0  0  0  0  0  0  0  0  0  0
   -4.8166    0.0831    0.5011 C   0  0  0  0  0  0  0  0  0  0  0  0
   -5.9058   -0.4854   -0.1593 C   0  0  0  0  0  0  0  0  0  0  0  0
   -6.3046   -1.7893    0.1429 C   0  0  0  0  0  0  0  0  0  0  0  0
   -5.6203   -2.5300    1.1090 C   0  0  0  0  0  0  0  0  0  0  0  0
   -4.5304   -1.9695    1.7737 C   0  0  0  0  0  0  0  0  0  0  0  0
   -0.1546   -0.6738    2.4839 C   0  0  0  0  0  0  0  0  0  0  0  0
    0.9027    0.1028    1.6921 C   0  0  0  0  0  0  0  0  0  0  0  0
    3.9486   -1.3856   -1.3652 H   0  0  0  0  0  0  0  0  0  0  0  0
    2.3597   -2.1166   -1.4232 H   0  0  0  0  0  0  0  0  0  0  0  0
    5.3752    0.0246   -2.9173 H   0  0  0  0  0  0  0  0  0  0  0  0
    6.9158    1.9257   -2.6595 H   0  0  0  0  0  0  0  0  0  0  0  0
    3.5630    4.5736   -2.0897 H   0  0  0  0  0  0  0  0  0  0  0  0
    2.0172    2.6734   -2.3399 H   0  0  0  0  0  0  0  0  0  0  0  0
    0.2774   -2.3587    0.0910 H   0  0  0  0  0  0  0  0  0  0  0  0
    0.2296   -1.2611   -1.2933 H   0  0  0  0  0  0  0  0  0  0  0  0
   -1.3611    0.2255   -0.1256 H   0  0  0  0  0  0  0  0  0  0  0  0
   -1.9984   -1.4290   -0.2618 H   0  0  0  0  0  0  0  0  0  0  0  0
   -4.5169    1.1024    0.2681 H   0  0  0  0  0  0  0  0  0  0  0  0
   -6.4501    0.0891   -0.9052 H   0  0  0  0  0  0  0  0  0  0  0  0
   -7.1579   -2.2270   -0.3704 H   0  0  0  0  0  0  0  0  0  0  0  0
   -5.9420   -3.5411    1.3474 H   0  0  0  0  0  0  0  0  0  0  0  0
   -4.0010   -2.5422    2.5322 H   0  0  0  0  0  0  0  0  0  0  0  0
   -0.3442   -0.1592    3.4315 H   0  0  0  0  0  0  0  0  0  0  0  0
    0.2272   -1.6698    2.7405 H   0  0  0  0  0  0  0  0  0  0  0  0
    0.5339    1.1049    1.4429 H   0  0  0  0  0  0  0  0  0  0  0  0
    1.8024    0.2244    2.3045 H   0  0  0  0  0  0  0  0  0  0  0  0
  1  2  2  0
  2  3  1  0
  3  4  1  0
  4  5  1  0
  5  6  2  0
  6  7  1  0
  7  8  2  0
  8  9  1  0
  8 10  1  0
 10 11  2  0
  2 12  1  0
 12 13  1  0
 13 14  1  0
 14 15  1  0
 15 16  1  0
 16 17  2  0
 16 18  2  0
 16 19  1  0
 19 20  2  0
 20 21  1  0
 21 22  2  0
 22 23  1  0
 23 24  2  0
 15 25  1  0
 25 26  1  0
 11  5  1  0
 26 12  1  0
 24 19  1  0
  3 27  1  0
  3 28  1  0
  6 29  1  0
  7 30  1  0
 10 31  1  0
 11 32  1  0
 13 33  1  0
 13 34  1  0
 14 35  1  0
 14 36  1  0
 20 37  1  0
 21 38  1  0
 22 39  1  0
 23 40  1  0
 24 41  1  0
 25 42  1  0
 25 43  1  0
 26 44  1  0
 26 45  1  0
M  END
$$$$
