
     RDKit          3D

 38 40  0  0  0  0  0  0  0  0999 V2000
   -5.0496   -2.9695   -0.2415 C   0  0  0  0  0  0  0  0  0  0  0  0
   -4.0929   -1.8541   -0.5420 C   0  0  0  0  0  0  0  0  0  0  0  0
   -3.8734   -0.8378    0.3933 C   0  0  0  0  0  0  0  0  0  0  0  0
   -2.9589    0.1847    0.1287 C   0  0  0  0  0  0  0  0  0  0  0  0
   -2.2265    0.1992   -1.0675 C   0  0  0  0  0  0  0  0  0  0  0  0
   -1.2441    1.3032   -1.3798 C   0  0  0  0  0  0  0  0  0  0  0  0
   -0.1880    1.3084   -0.3173 C   0  0  0  0  0  0  0  0  0  0  0  0
    0.1353    2.4333    0.5023 C   0  0  0  0  0  0  0  0  0  0  0  0
    1.1804    2.0824    1.3256 C   0  0  0  0  0  0  0  0  0  0  0  0
    1.8236    2.7695    2.2610 O   0  0  0  0  0  0  0  0  0  0  0  0
    1.5293    0.7879    1.0258 N   0  0  0  0  0  0  0  0  0  0  0  0
    2.5859    0.0283    1.6841 C   0  0  0  0  0  0  0  0  0  0  0  0
    3.8834    0.1683    0.9725 C   0  0  0  0  0  0  0  0  0  0  0  0
    4.2765    0.0033   -0.3415 C   0  0  0  0  0  0  0  0  0  0  0  0
    5.6661    0.2666   -0.3829 C   0  0  0  0  0  0  0  0  0  0  0  0
    6.0368    0.5657    0.9064 C   0  0  0  0  0  0  0  0  0  0  0  0
    4.9656    0.5015    1.7374 O   0  0  0  0  0  0  0  0  0  0  0  0
    0.6907    0.2986    0.0481 C   0  0  0  0  0  0  0  0  0  0  0  0
    0.8156   -0.9543   -0.3769 O   0  0  0  0  0  0  0  0  0  0  0  0
   -2.4529   -0.8216   -2.0034 C   0  0  0  0  0  0  0  0  0  0  0  0
   -3.3686   -1.8431   -1.7383 C   0  0  0  0  0  0  0  0  0  0  0  0
   -5.4982   -3.3582   -1.1618 H   0  0  0  0  0  0  0  0  0  0  0  0
   -5.8687   -2.6206    0.3962 H   0  0  0  0  0  0  0  0  0  0  0  0
   -4.5261   -3.7840    0.2685 H   0  0  0  0  0  0  0  0  0  0  0  0
   -4.4139   -0.8336    1.3373 H   0  0  0  0  0  0  0  0  0  0  0  0
   -2.8119    0.9660    0.8718 H   0  0  0  0  0  0  0  0  0  0  0  0
   -1.7773    2.2601   -1.4206 H   0  0  0  0  0  0  0  0  0  0  0  0
   -0.7718    1.1505   -2.3574 H   0  0  0  0  0  0  0  0  0  0  0  0
   -0.3532    3.3985    0.4819 H   0  0  0  0  0  0  0  0  0  0  0  0
    1.4438    3.6653    2.2768 H   0  0  0  0  0  0  0  0  0  0  0  0
    2.6567    0.3785    2.7197 H   0  0  0  0  0  0  0  0  0  0  0  0
    2.2795   -1.0227    1.7196 H   0  0  0  0  0  0  0  0  0  0  0  0
    3.6293   -0.2705   -1.1638 H   0  0  0  0  0  0  0  0  0  0  0  0
    6.3173    0.2405   -1.2447 H   0  0  0  0  0  0  0  0  0  0  0  0
    6.9745    0.8303    1.3743 H   0  0  0  0  0  0  0  0  0  0  0  0
    0.0197   -1.1608   -0.8996 H   0  0  0  0  0  0  0  0  0  0  0  0
   -1.9168   -0.8308   -2.9503 H   0  0  0  0  0  0  0  0  0  0  0  0
   -3.5173   -2.6291   -2.4757 H   0  0  0  0  0  0  0  0  0  0  0  0
  1  2  1  0
  2  3  2  0
  3  4  1  0
  4  5  2  0
  5  6  1  0
  6  7  1  0
  7  8  1  0
  8  9  2  0
  9 10  1  0
  9 11  1  0
 11 12  1  0
 12 13  1  0
 13 14  2  0
 14 15  1  0
 15 16  2  0
 16 17  1  0
 11 18  1  0
 18 19  1  0
  5 20  1  0
 20 21  2  0
 21  2  1  0
 18  7  2  0
 17 13  1  0
  1 22  1  0
  1 23  1  0
  1 24  1  0
  3 25  1  0
  4 26  1  0
  6 27  1  0
  6 28  1  0
  8 29  1  0
 10 30  1  0
 12 31  1  0
 12 32  1  0
 14 33  1  0
 15 34  1  0
 16 35  1  0
 19 36  1  0
 20 37  1  0
 21 38  1  0
M  END
$$$$
