
     RDKit          3D

 42 44  0  0  0  0  0  0  0  0999 V2000
    5.2822    1.2614    2.5708 N   0  0  0  0  0  0  0  0  0  0  0  0
    5.0910    0.2370    2.0594 C   0  0  0  0  0  0  0  0  0  0  0  0
    4.8416   -1.0189    1.4307 C   0  0  0  0  0  0  0  0  0  0  0  0
    5.9370   -1.9315    1.3903 C   0  0  0  0  0  0  0  0  0  0  0  0
    6.8197   -2.6841    1.3519 N   0  0  0  0  0  0  0  0  0  0  0  0
    3.6312   -1.3412    0.9064 C   0  0  0  0  0  0  0  0  0  0  0  0
    2.4736   -0.4400    0.9555 C   0  0  0  0  0  0  0  0  0  0  0  0
    1.3046   -0.6851    0.3330 C   0  0  0  0  0  0  0  0  0  0  0  0
    0.1940    0.2512    0.4333 C   0  0  0  0  0  0  0  0  0  0  0  0
   -0.9605    0.1552   -0.2611 C   0  0  0  0  0  0  0  0  0  0  0  0
   -2.0278    1.0668   -0.1326 N   0  0  0  0  0  0  0  0  0  0  0  0
   -1.8512    2.4074    0.4636 C   0  0  0  0  0  0  0  0  0  0  0  0
   -2.8711    3.4014   -0.0830 C   0  0  0  0  0  0  0  0  0  0  0  0
   -4.3032    2.9649    0.2073 C   0  0  0  0  0  0  0  0  0  0  0  0
   -4.4417    1.4473    0.2719 C   0  0  0  0  0  0  0  0  0  0  0  0
   -3.3955    0.7433   -0.5866 C   0  0  0  0  0  0  0  0  0  0  0  0
   -1.1269   -0.9802   -1.2647 C   0  0  0  0  0  0  0  0  0  0  0  0
    0.1964   -1.6019   -1.7146 C   0  0  0  0  0  0  0  0  0  0  0  0
    1.0779   -1.9227   -0.5068 C   0  0  0  0  0  0  0  0  0  0  0  0
    2.4056   -2.5421   -0.9570 C   0  0  0  0  0  0  0  0  0  0  0  0
    3.3608   -2.6790    0.2277 C   0  0  0  0  0  0  0  0  0  0  0  0
    2.5683    0.4837    1.5257 H   0  0  0  0  0  0  0  0  0  0  0  0
    0.3228    1.0652    1.1410 H   0  0  0  0  0  0  0  0  0  0  0  0
   -0.8539    2.7990    0.2304 H   0  0  0  0  0  0  0  0  0  0  0  0
   -1.9359    2.3338    1.5544 H   0  0  0  0  0  0  0  0  0  0  0  0
   -2.7372    3.4928   -1.1688 H   0  0  0  0  0  0  0  0  0  0  0  0
   -2.6957    4.3977    0.3384 H   0  0  0  0  0  0  0  0  0  0  0  0
   -4.9633    3.3710   -0.5684 H   0  0  0  0  0  0  0  0  0  0  0  0
   -4.6433    3.3945    1.1571 H   0  0  0  0  0  0  0  0  0  0  0  0
   -4.3291    1.1214    1.3141 H   0  0  0  0  0  0  0  0  0  0  0  0
   -5.4506    1.1547   -0.0402 H   0  0  0  0  0  0  0  0  0  0  0  0
   -3.5808   -0.3342   -0.5130 H   0  0  0  0  0  0  0  0  0  0  0  0
   -3.5073    1.0287   -1.6394 H   0  0  0  0  0  0  0  0  0  0  0  0
   -1.6422   -0.6180   -2.1625 H   0  0  0  0  0  0  0  0  0  0  0  0
   -1.7565   -1.7583   -0.8152 H   0  0  0  0  0  0  0  0  0  0  0  0
   -0.0068   -2.5119   -2.2919 H   0  0  0  0  0  0  0  0  0  0  0  0
    0.7138   -0.9069   -2.3900 H   0  0  0  0  0  0  0  0  0  0  0  0
    0.5508   -2.6568    0.1202 H   0  0  0  0  0  0  0  0  0  0  0  0
    2.8744   -1.9260   -1.7363 H   0  0  0  0  0  0  0  0  0  0  0  0
    2.2242   -3.5291   -1.3993 H   0  0  0  0  0  0  0  0  0  0  0  0
    4.2810   -3.1443   -0.1414 H   0  0  0  0  0  0  0  0  0  0  0  0
    2.9291   -3.3663    0.9671 H   0  0  0  0  0  0  0  0  0  0  0  0
  1  2  3  0
  2  3  1  0
  3  4  1  0
  4  5  3  0
  3  6  2  3
  6  7  1  0
  7  8  2  0
  8  9  1  0
  9 10  2  0
 10 11  1  0
 11 12  1  0
 12 13  1  0
 13 14  1  0
 14 15  1  0
 15 16  1  0
 10 17  1  0
 17 18  1  0
 18 19  1  0
 19 20  1  0
 20 21  1  0
 21  6  1  0
 19  8  1  0
 16 11  1  0
  7 22  1  0
  9 23  1  0
 12 24  1  0
 12 25  1  0
 13 26  1  0
 13 27  1  0
 14 28  1  0
 14 29  1  0
 15 30  1  0
 15 31  1  0
 16 32  1  0
 16 33  1  0
 17 34  1  0
 17 35  1  0
 18 36  1  0
 18 37  1  0
 19 38  1  0
 20 39  1  0
 20 40  1  0
 21 41  1  0
 21 42  1  0
M  END
$$$$
