
     RDKit          3D

 50 53  0  0  0  0  0  0  0  0999 V2000
    7.5113    0.4452   -2.3683 C   0  0  0  0  0  0  0  0  0  0  0  0
    6.3403    0.3758   -1.4386 C   0  0  0  0  0  0  0  0  0  0  0  0
    5.0380    0.4233   -1.9332 C   0  0  0  0  0  0  0  0  0  0  0  0
    3.9407    0.3604   -1.1406 N   0  0  0  0  0  0  0  0  0  0  0  0
    4.2073    0.2453    0.1930 C   0  0  0  0  0  0  0  0  0  0  0  0
    3.0405    0.1711    1.1152 C   0  0  0  0  0  0  0  0  0  0  0  0
    3.1863   -0.0121    2.3173 O   0  0  0  0  0  0  0  0  0  0  0  0
    1.8170    0.3119    0.4985 N   0  0  0  0  0  0  0  0  0  0  0  0
    0.5698    0.1308    1.2051 C   0  0  0  0  0  0  0  0  0  0  0  0
    0.2470   -1.3728    1.3719 C   0  0  0  0  0  0  0  0  0  0  0  0
   -1.2460   -1.6601    1.7084 C   0  0  0  0  0  0  0  0  0  0  0  0
   -1.6217   -1.0484    3.0739 C   0  0  0  0  0  0  0  0  0  0  0  0
   -1.4488   -3.1846    1.7996 C   0  0  0  0  0  0  0  0  0  0  0  0
   -2.1755   -1.0976    0.5860 C   0  0  0  0  0  0  0  0  0  0  0  0
   -1.7433    0.2644    0.1507 C   0  0  0  0  0  0  0  0  0  0  0  0
   -0.5087    0.8187    0.4421 C   0  0  0  0  0  0  0  0  0  0  0  0
   -0.5848    2.1283   -0.0417 C   0  0  0  0  0  0  0  0  0  0  0  0
   -1.7525    2.3864   -0.6238 N   0  0  0  0  0  0  0  0  0  0  0  0
   -2.4625    1.2203   -0.5584 N   0  0  0  0  0  0  0  0  0  0  0  0
   -3.7489    1.1617   -1.1823 C   0  0  0  0  0  0  0  0  0  0  0  0
   -4.3317    2.3588   -1.6402 C   0  0  0  0  0  0  0  0  0  0  0  0
   -5.5869    2.3571   -2.2539 C   0  0  0  0  0  0  0  0  0  0  0  0
   -6.2742    1.1600   -2.4275 C   0  0  0  0  0  0  0  0  0  0  0  0
   -5.7022   -0.0342   -1.9952 C   0  0  0  0  0  0  0  0  0  0  0  0
   -4.4444   -0.0368   -1.3794 C   0  0  0  0  0  0  0  0  0  0  0  0
    5.4970    0.1938    0.6958 C   0  0  0  0  0  0  0  0  0  0  0  0
    6.5891    0.2579   -0.1091 N   0  0  0  0  0  0  0  0  0  0  0  0
    7.4752    1.3678   -2.9556 H   0  0  0  0  0  0  0  0  0  0  0  0
    7.5064   -0.4135   -3.0468 H   0  0  0  0  0  0  0  0  0  0  0  0
    8.4528    0.4342   -1.8097 H   0  0  0  0  0  0  0  0  0  0  0  0
    4.8415    0.5132   -2.9976 H   0  0  0  0  0  0  0  0  0  0  0  0
    1.8237    0.3388   -0.5182 H   0  0  0  0  0  0  0  0  0  0  0  0
    0.6615    0.5928    2.1959 H   0  0  0  0  0  0  0  0  0  0  0  0
    0.9016   -1.8006    2.1427 H   0  0  0  0  0  0  0  0  0  0  0  0
    0.5002   -1.9005    0.4401 H   0  0  0  0  0  0  0  0  0  0  0  0
   -1.5608    0.0441    3.0729 H   0  0  0  0  0  0  0  0  0  0  0  0
   -2.6477   -1.3148    3.3531 H   0  0  0  0  0  0  0  0  0  0  0  0
   -0.9576   -1.4170    3.8639 H   0  0  0  0  0  0  0  0  0  0  0  0
   -2.4937   -3.4316    2.0190 H   0  0  0  0  0  0  0  0  0  0  0  0
   -1.1805   -3.6782    0.8585 H   0  0  0  0  0  0  0  0  0  0  0  0
   -0.8282   -3.6195    2.5913 H   0  0  0  0  0  0  0  0  0  0  0  0
   -3.2077   -1.0813    0.9538 H   0  0  0  0  0  0  0  0  0  0  0  0
   -2.1275   -1.7636   -0.2847 H   0  0  0  0  0  0  0  0  0  0  0  0
    0.1581    2.9140    0.0171 H   0  0  0  0  0  0  0  0  0  0  0  0
   -3.8197    3.3126   -1.5169 H   0  0  0  0  0  0  0  0  0  0  0  0
   -6.0229    3.2929   -2.5949 H   0  0  0  0  0  0  0  0  0  0  0  0
   -7.2495    1.1564   -2.9068 H   0  0  0  0  0  0  0  0  0  0  0  0
   -6.2326   -0.9719   -2.1456 H   0  0  0  0  0  0  0  0  0  0  0  0
   -4.0388   -1.0015   -1.1058 H   0  0  0  0  0  0  0  0  0  0  0  0
    5.6944    0.1026    1.7589 H   0  0  0  0  0  0  0  0  0  0  0  0
  1  2  1  0
  2  3  2  0
  3  4  1  0
  4  5  2  0
  5  6  1  0
  6  7  2  0
  6  8  1  0
  8  9  1  0
  9 10  1  0
 10 11  1  0
 11 12  1  0
 11 13  1  0
 11 14  1  0
 14 15  1  0
 15 16  2  0
 16 17  1  0
 17 18  2  0
 18 19  1  0
 19 20  1  0
 20 21  2  0
 21 22  1  0
 22 23  2  0
 23 24  1  0
 24 25  2  0
  5 26  1  0
 26 27  2  0
 27  2  1  0
 16  9  1  0
 25 20  1  0
 19 15  1  0
  1 28  1  0
  1 29  1  0
  1 30  1  0
  3 31  1  0
  8 32  1  0
  9 33  1  0
 10 34  1  0
 10 35  1  0
 12 36  1  0
 12 37  1  0
 12 38  1  0
 13 39  1  0
 13 40  1  0
 13 41  1  0
 14 42  1  0
 14 43  1  0
 17 44  1  0
 21 45  1  0
 22 46  1  0
 23 47  1  0
 24 48  1  0
 25 49  1  0
 26 50  1  0
M  END
$$$$
