
     RDKit          3D

 57 60  0  0  0  0  0  0  0  0999 V2000
    7.1650    2.3895    1.7469 C   0  0  0  0  0  0  0  0  0  0  0  0
    6.7623    2.7207    0.3148 C   0  0  0  0  0  0  0  0  0  0  0  0
    6.1170    1.5283   -0.4062 C   0  0  0  0  0  0  0  0  0  0  0  0
    5.8670    1.8649   -1.8763 C   0  0  0  0  0  0  0  0  0  0  0  0
    4.8660    1.1511    0.2411 N   0  0  0  0  0  0  0  0  0  0  0  0
    4.3722   -0.1362    0.1588 C   0  0  0  0  0  0  0  0  0  0  0  0
    4.9613   -1.0520   -0.4034 O   0  0  0  0  0  0  0  0  0  0  0  0
    3.0352   -0.3706    0.7741 C   0  0  0  0  0  0  0  0  0  0  0  0
    2.5588    0.4081    1.8358 C   0  0  0  0  0  0  0  0  0  0  0  0
    1.3013    0.1459    2.3885 C   0  0  0  0  0  0  0  0  0  0  0  0
    0.5101   -0.9048    1.9003 C   0  0  0  0  0  0  0  0  0  0  0  0
   -0.8500   -1.1831    2.4965 C   0  0  0  0  0  0  0  0  0  0  0  0
   -2.1682   -0.2573    1.6553 S   0  0  0  0  0  0  0  0  0  0  0  0
   -2.5678   -1.3332    0.3571 C   0  0  0  0  0  0  0  0  0  0  0  0
   -2.3378   -2.6257    0.3597 N   0  0  0  0  0  0  0  0  0  0  0  0
   -2.7939   -3.0791   -0.8507 C   0  0  0  0  0  0  0  0  0  0  0  0
   -2.7852   -4.3739   -1.3691 C   0  0  0  0  0  0  0  0  0  0  0  0
   -3.3131   -4.5148   -2.6409 C   0  0  0  0  0  0  0  0  0  0  0  0
   -3.8184   -3.5028   -3.3847 N   0  0  0  0  0  0  0  0  0  0  0  0
   -3.8257   -2.2469   -2.8803 C   0  0  0  0  0  0  0  0  0  0  0  0
   -3.3156   -2.0360   -1.6076 C   0  0  0  0  0  0  0  0  0  0  0  0
   -3.1800   -0.9229   -0.8027 N   0  0  0  0  0  0  0  0  0  0  0  0
   -3.5516    0.4339   -1.1738 C   0  0  0  0  0  0  0  0  0  0  0  0
   -4.8543    0.8749   -0.5479 C   0  0  0  0  0  0  0  0  0  0  0  0
   -4.8812    1.9975    0.2978 C   0  0  0  0  0  0  0  0  0  0  0  0
   -6.0806    2.4313    0.8651 C   0  0  0  0  0  0  0  0  0  0  0  0
   -7.2573    1.7486    0.5871 C   0  0  0  0  0  0  0  0  0  0  0  0
   -8.4075    2.1689    1.1283 F   0  0  0  0  0  0  0  0  0  0  0  0
   -7.2574    0.6396   -0.2489 C   0  0  0  0  0  0  0  0  0  0  0  0
   -6.0594    0.2039   -0.8190 C   0  0  0  0  0  0  0  0  0  0  0  0
    0.9986   -1.6855    0.8441 C   0  0  0  0  0  0  0  0  0  0  0  0
    2.2536   -1.4241    0.2886 C   0  0  0  0  0  0  0  0  0  0  0  0
    7.6704    3.2470    2.2033 H   0  0  0  0  0  0  0  0  0  0  0  0
    6.2925    2.1475    2.3621 H   0  0  0  0  0  0  0  0  0  0  0  0
    7.8520    1.5378    1.7739 H   0  0  0  0  0  0  0  0  0  0  0  0
    7.6585    3.0383   -0.2320 H   0  0  0  0  0  0  0  0  0  0  0  0
    6.0736    3.5743    0.3273 H   0  0  0  0  0  0  0  0  0  0  0  0
    6.7997    0.6710   -0.3629 H   0  0  0  0  0  0  0  0  0  0  0  0
    5.1727    2.7067   -1.9756 H   0  0  0  0  0  0  0  0  0  0  0  0
    6.8020    2.1304   -2.3812 H   0  0  0  0  0  0  0  0  0  0  0  0
    5.4284    1.0134   -2.4071 H   0  0  0  0  0  0  0  0  0  0  0  0
    4.2226    1.8951    0.4753 H   0  0  0  0  0  0  0  0  0  0  0  0
    3.1629    1.2015    2.2658 H   0  0  0  0  0  0  0  0  0  0  0  0
    0.9469    0.7590    3.2144 H   0  0  0  0  0  0  0  0  0  0  0  0
   -1.0539   -2.2592    2.5150 H   0  0  0  0  0  0  0  0  0  0  0  0
   -0.8488   -0.8696    3.5474 H   0  0  0  0  0  0  0  0  0  0  0  0
   -2.3884   -5.2107   -0.8112 H   0  0  0  0  0  0  0  0  0  0  0  0
   -3.3436   -5.4916   -3.1185 H   0  0  0  0  0  0  0  0  0  0  0  0
   -4.2403   -1.4699   -3.5097 H   0  0  0  0  0  0  0  0  0  0  0  0
   -3.6348    0.4913   -2.2647 H   0  0  0  0  0  0  0  0  0  0  0  0
   -2.7210    1.0929   -0.8968 H   0  0  0  0  0  0  0  0  0  0  0  0
   -3.9666    2.5417    0.5263 H   0  0  0  0  0  0  0  0  0  0  0  0
   -6.1041    3.2958    1.5208 H   0  0  0  0  0  0  0  0  0  0  0  0
   -8.1892    0.1213   -0.4524 H   0  0  0  0  0  0  0  0  0  0  0  0
   -6.0811   -0.6653   -1.4729 H   0  0  0  0  0  0  0  0  0  0  0  0
    0.4051   -2.5084    0.4486 H   0  0  0  0  0  0  0  0  0  0  0  0
    2.6214   -2.0487   -0.5236 H   0  0  0  0  0  0  0  0  0  0  0  0
  1  2  1  0
  2  3  1  0
  3  4  1  0
  3  5  1  0
  5  6  1  0
  6  7  2  0
  6  8  1  0
  8  9  2  0
  9 10  1  0
 10 11  2  0
 11 12  1  0
 12 13  1  0
 13 14  1  0
 14 15  2  0
 15 16  1  0
 16 17  2  0
 17 18  1  0
 18 19  2  0
 19 20  1  0
 20 21  2  0
 21 22  1  0
 22 23  1  0
 23 24  1  0
 24 25  2  0
 25 26  1  0
 26 27  2  0
 27 28  1  0
 27 29  1  0
 29 30  2  0
 11 31  1  0
 31 32  2  0
 32  8  1  0
 22 14  1  0
 30 24  1  0
 21 16  1  0
  1 33  1  0
  1 34  1  0
  1 35  1  0
  2 36  1  0
  2 37  1  0
  3 38  1  0
  4 39  1  0
  4 40  1  0
  4 41  1  0
  5 42  1  0
  9 43  1  0
 10 44  1  0
 12 45  1  0
 12 46  1  0
 17 47  1  0
 18 48  1  0
 20 49  1  0
 23 50  1  0
 23 51  1  0
 25 52  1  0
 26 53  1  0
 29 54  1  0
 30 55  1  0
 31 56  1  0
 32 57  1  0
M  END
$$$$
