
     RDKit          3D

 61 61  0  0  0  0  0  0  0  0999 V2000
    9.1971    1.7537   -1.0844 C   0  0  0  0  0  0  0  0  0  0  0  0
    7.8933    1.9476   -1.8421 C   0  0  0  0  0  0  0  0  0  0  0  0
    6.6603    2.0106   -0.9366 C   0  0  0  0  0  0  0  0  0  0  0  0
    6.3602    0.6859   -0.2307 C   0  0  0  0  0  0  0  0  0  0  0  0
    5.1352    0.7478    0.6883 C   0  0  0  0  0  0  0  0  0  0  0  0
    3.8059    1.1196    0.0213 C   0  0  0  0  0  0  0  0  0  0  0  0
    3.3896    0.1535   -1.0901 C   0  0  0  0  0  0  0  0  0  0  0  0
    2.0550    0.5202   -1.7493 C   0  0  0  0  0  0  0  0  0  0  0  0
    0.8316    0.5560   -0.8262 C   0  0  0  0  0  0  0  0  0  0  0  0
    0.5438   -0.7842   -0.1454 C   0  0  0  0  0  0  0  0  0  0  0  0
   -0.6767   -0.7481    0.7821 C   0  0  0  0  0  0  0  0  0  0  0  0
   -2.0044   -0.5882    0.0371 C   0  0  0  0  0  0  0  0  0  0  0  0
   -3.2240   -0.5494    0.9660 C   0  0  0  0  0  0  0  0  0  0  0  0
   -3.4837   -1.8759    1.6853 C   0  0  0  0  0  0  0  0  0  0  0  0
   -4.7580   -1.8652    2.5382 C   0  0  0  0  0  0  0  0  0  0  0  0
   -6.0180   -2.2985    1.7912 C   0  0  0  0  0  0  0  0  0  0  0  0
   -6.4761   -1.3215    0.8015 N   0  0  0  0  0  0  0  0  0  0  0  0
   -6.5216   -1.5106   -0.5718 C   0  0  0  0  0  0  0  0  0  0  0  0
   -7.0375   -0.3663   -1.1110 C   0  0  0  0  0  0  0  0  0  0  0  0
   -7.3094    0.4858   -0.0539 N   0  0  0  0  0  4  0  0  0  0  0  0
   -7.8662    1.8277   -0.1600 C   0  0  0  0  0  0  0  0  0  0  0  0
   -6.9695   -0.1093    1.0988 C   0  0  0  0  0  0  0  0  0  0  0  0
    9.2401    0.7732   -0.6019 H   0  0  0  0  0  0  0  0  0  0  0  0
    9.3246    2.5237   -0.3177 H   0  0  0  0  0  0  0  0  0  0  0  0
   10.0450    1.8199   -1.7738 H   0  0  0  0  0  0  0  0  0  0  0  0
    7.7750    1.1442   -2.5780 H   0  0  0  0  0  0  0  0  0  0  0  0
    7.9573    2.8861   -2.4056 H   0  0  0  0  0  0  0  0  0  0  0  0
    5.8061    2.2943   -1.5615 H   0  0  0  0  0  0  0  0  0  0  0  0
    6.7897    2.8065   -0.1935 H   0  0  0  0  0  0  0  0  0  0  0  0
    6.2346   -0.1114   -0.9719 H   0  0  0  0  0  0  0  0  0  0  0  0
    7.2183    0.3976    0.3876 H   0  0  0  0  0  0  0  0  0  0  0  0
    5.3321    1.4714    1.4896 H   0  0  0  0  0  0  0  0  0  0  0  0
    5.0222   -0.2280    1.1776 H   0  0  0  0  0  0  0  0  0  0  0  0
    3.8544    2.1413   -0.3718 H   0  0  0  0  0  0  0  0  0  0  0  0
    3.0407    1.1278    0.8059 H   0  0  0  0  0  0  0  0  0  0  0  0
    4.1515    0.1524   -1.8782 H   0  0  0  0  0  0  0  0  0  0  0  0
    3.3498   -0.8697   -0.7001 H   0  0  0  0  0  0  0  0  0  0  0  0
    2.1562    1.5038   -2.2254 H   0  0  0  0  0  0  0  0  0  0  0  0
    1.8639   -0.1945   -2.5600 H   0  0  0  0  0  0  0  0  0  0  0  0
    0.9531    1.3397   -0.0701 H   0  0  0  0  0  0  0  0  0  0  0  0
   -0.0290    0.8503   -1.4373 H   0  0  0  0  0  0  0  0  0  0  0  0
    1.4076   -1.0763    0.4622 H   0  0  0  0  0  0  0  0  0  0  0  0
    0.4089   -1.5655   -0.9029 H   0  0  0  0  0  0  0  0  0  0  0  0
   -0.5603    0.0610    1.5131 H   0  0  0  0  0  0  0  0  0  0  0  0
   -0.6867   -1.6869    1.3468 H   0  0  0  0  0  0  0  0  0  0  0  0
   -2.1225   -1.4003   -0.6902 H   0  0  0  0  0  0  0  0  0  0  0  0
   -1.9950    0.3477   -0.5324 H   0  0  0  0  0  0  0  0  0  0  0  0
   -4.0915   -0.2783    0.3590 H   0  0  0  0  0  0  0  0  0  0  0  0
   -3.0970    0.2517    1.7044 H   0  0  0  0  0  0  0  0  0  0  0  0
   -2.6422   -2.0756    2.3589 H   0  0  0  0  0  0  0  0  0  0  0  0
   -3.5141   -2.7021    0.9654 H   0  0  0  0  0  0  0  0  0  0  0  0
   -4.9009   -0.8816    2.9998 H   0  0  0  0  0  0  0  0  0  0  0  0
   -4.6124   -2.5780    3.3601 H   0  0  0  0  0  0  0  0  0  0  0  0
   -5.8616   -3.2643    1.2971 H   0  0  0  0  0  0  0  0  0  0  0  0
   -6.8385   -2.4326    2.5065 H   0  0  0  0  0  0  0  0  0  0  0  0
   -6.1718   -2.4389   -0.9894 H   0  0  0  0  0  0  0  0  0  0  0  0
   -7.2506   -0.0450   -2.1162 H   0  0  0  0  0  0  0  0  0  0  0  0
   -8.3698    2.0912    0.7744 H   0  0  0  0  0  0  0  0  0  0  0  0
   -7.0527    2.5319   -0.3521 H   0  0  0  0  0  0  0  0  0  0  0  0
   -8.5891    1.8619   -0.9789 H   0  0  0  0  0  0  0  0  0  0  0  0
   -7.0724    0.3126    2.0919 H   0  0  0  0  0  0  0  0  0  0  0  0
  1  2  1  0
  2  3  1  0
  3  4  1  0
  4  5  1  0
  5  6  1  0
  6  7  1  0
  7  8  1  0
  8  9  1  0
  9 10  1  0
 10 11  1  0
 11 12  1  0
 12 13  1  0
 13 14  1  0
 14 15  1  0
 15 16  1  0
 16 17  1  0
 17 18  1  0
 18 19  2  0
 19 20  1  0
 20 21  1  0
 20 22  2  0
 22 17  1  0
  1 23  1  0
  1 24  1  0
  1 25  1  0
  2 26  1  0
  2 27  1  0
  3 28  1  0
  3 29  1  0
  4 30  1  0
  4 31  1  0
  5 32  1  0
  5 33  1  0
  6 34  1  0
  6 35  1  0
  7 36  1  0
  7 37  1  0
  8 38  1  0
  8 39  1  0
  9 40  1  0
  9 41  1  0
 10 42  1  0
 10 43  1  0
 11 44  1  0
 11 45  1  0
 12 46  1  0
 12 47  1  0
 13 48  1  0
 13 49  1  0
 14 50  1  0
 14 51  1  0
 15 52  1  0
 15 53  1  0
 16 54  1  0
 16 55  1  0
 18 56  1  0
 19 57  1  0
 21 58  1  0
 21 59  1  0
 21 60  1  0
 22 61  1  0
M  CHG  1  20   1
M  END
$$$$
