
     RDKit          3D

 47 50  0  0  0  0  0  0  0  0999 V2000
   -6.2666   -1.1042    0.6400 C   0  0  0  0  0  0  0  0  0  0  0  0
   -6.0133    0.4016    0.5121 C   0  0  0  0  0  0  0  0  0  0  0  0
   -5.8898    0.8405   -0.9614 C   0  0  0  0  0  0  0  0  0  0  0  0
   -4.6556    0.2519   -1.6637 C   0  0  0  0  0  0  0  0  0  0  0  0
   -3.4162    0.3523   -0.8175 C   0  0  0  0  0  0  0  0  0  0  0  0
   -3.5061    0.6105    0.5390 C   0  0  0  0  0  0  0  0  0  0  0  0
   -1.9899    0.7304    1.2854 S   0  0  0  0  0  0  0  0  0  0  0  0
   -1.1716    0.4623   -0.1723 C   0  0  0  0  0  0  0  0  0  0  0  0
    0.2145    0.4940   -0.2492 N   0  0  0  0  0  0  0  0  0  0  0  0
    1.1292    0.6810    0.7748 C   0  0  0  0  0  0  0  0  0  0  0  0
    0.8490    0.7937    1.9640 O   0  0  0  0  0  0  0  0  0  0  0  0
    2.5138    0.7227    0.3110 C   0  0  0  0  0  0  0  0  0  0  0  0
    3.1089    0.6780   -0.9406 C   0  0  0  0  0  0  0  0  0  0  0  0
    4.5091    0.7624   -0.7396 C   0  0  0  0  0  0  0  0  0  0  0  0
    4.7006    0.8524    0.6213 C   0  0  0  0  0  0  0  0  0  0  0  0
    5.9035    0.9686    1.4804 C   0  0  0  0  0  0  0  0  0  0  0  0
    6.6927   -0.2542    1.4214 N   0  0  0  0  0  0  0  0  0  0  0  0
    6.4917   -1.3920    2.1569 C   0  0  0  0  0  0  0  0  0  0  0  0
    7.4839   -2.2525    1.7718 C   0  0  0  0  0  0  0  0  0  0  0  0
    7.8011   -3.9906    2.3679 Br  0  0  0  0  0  0  0  0  0  0  0  0
    8.2419   -1.5642    0.8172 C   0  0  0  0  0  0  0  0  0  0  0  0
    7.7676   -0.3323    0.5984 N   0  0  0  0  0  0  0  0  0  0  0  0
    3.4987    0.8330    1.2609 O   0  0  0  0  0  0  0  0  0  0  0  0
   -2.0333    0.2219   -1.2403 C   0  0  0  0  0  0  0  0  0  0  0  0
   -1.5034   -0.0802   -2.5730 C   0  0  0  0  0  0  0  0  0  0  0  0
   -2.3252   -0.7470   -3.4338 N   0  0  0  0  0  0  0  0  0  0  0  0
   -0.3468    0.1748   -2.9046 O   0  0  0  0  0  0  0  0  0  0  0  0
   -4.7699    0.8347    1.3167 C   0  0  0  0  0  0  0  0  0  0  0  0
   -6.4607   -1.3710    1.6847 H   0  0  0  0  0  0  0  0  0  0  0  0
   -5.4144   -1.7008    0.3000 H   0  0  0  0  0  0  0  0  0  0  0  0
   -7.1433   -1.3996    0.0538 H   0  0  0  0  0  0  0  0  0  0  0  0
   -6.8859    0.9071    0.9460 H   0  0  0  0  0  0  0  0  0  0  0  0
   -5.8283    1.9368   -0.9941 H   0  0  0  0  0  0  0  0  0  0  0  0
   -6.7926    0.5630   -1.5184 H   0  0  0  0  0  0  0  0  0  0  0  0
   -4.8453   -0.8029   -1.8933 H   0  0  0  0  0  0  0  0  0  0  0  0
   -4.5093    0.7775   -2.6141 H   0  0  0  0  0  0  0  0  0  0  0  0
    0.5735    0.3811   -1.1934 H   0  0  0  0  0  0  0  0  0  0  0  0
    2.6070    0.5978   -1.8954 H   0  0  0  0  0  0  0  0  0  0  0  0
    5.2879    0.7533   -1.4916 H   0  0  0  0  0  0  0  0  0  0  0  0
    5.6392    1.1352    2.5302 H   0  0  0  0  0  0  0  0  0  0  0  0
    6.5403    1.7980    1.1547 H   0  0  0  0  0  0  0  0  0  0  0  0
    5.6752   -1.4816    2.8596 H   0  0  0  0  0  0  0  0  0  0  0  0
    9.1153   -1.8959    0.2714 H   0  0  0  0  0  0  0  0  0  0  0  0
   -1.8841   -1.0888   -4.2775 H   0  0  0  0  0  0  0  0  0  0  0  0
   -3.1065   -1.2786   -3.0817 H   0  0  0  0  0  0  0  0  0  0  0  0
   -4.8495    1.9081    1.5335 H   0  0  0  0  0  0  0  0  0  0  0  0
   -4.7374    0.3119    2.2801 H   0  0  0  0  0  0  0  0  0  0  0  0
  1  2  1  0
  2  3  1  0
  3  4  1  0
  4  5  1  0
  5  6  2  0
  6  7  1  0
  7  8  1  0
  8  9  1  0
  9 10  1  0
 10 11  2  0
 10 12  1  0
 12 13  2  0
 13 14  1  0
 14 15  2  0
 15 16  1  0
 16 17  1  0
 17 18  1  0
 18 19  2  0
 19 20  1  0
 19 21  1  0
 21 22  2  0
 15 23  1  0
  8 24  2  0
 24 25  1  0
 25 26  1  0
 25 27  2  0
  6 28  1  0
 28  2  1  0
 24  5  1  0
 23 12  1  0
 22 17  1  0
  1 29  1  0
  1 30  1  0
  1 31  1  0
  2 32  1  0
  3 33  1  0
  3 34  1  0
  4 35  1  0
  4 36  1  0
  9 37  1  0
 13 38  1  0
 14 39  1  0
 16 40  1  0
 16 41  1  0
 18 42  1  0
 21 43  1  0
 26 44  1  0
 26 45  1  0
 28 46  1  0
 28 47  1  0
M  END
$$$$
