
     RDKit          3D

 43 45  0  0  0  0  0  0  0  0999 V2000
    2.5580   -1.3273    3.7821 C   0  0  0  0  0  0  0  0  0  0  0  0
    2.3972   -1.8458    2.4253 N   0  0  0  0  0  0  0  0  0  0  0  0
    3.3122   -1.1759    1.4708 C   0  0  0  0  0  0  0  0  0  0  0  0
    2.9068    0.2627    1.0841 C   0  0  0  0  0  0  0  0  0  0  0  0
    1.5163    0.3042    0.6406 N   0  0  0  0  0  0  0  0  0  0  0  0
    1.2306    0.6723   -0.6647 C   0  0  0  0  0  0  0  0  0  0  0  0
    2.0441    1.1008   -1.4756 O   0  0  0  0  0  0  0  0  0  0  0  0
   -0.2019    0.5476   -1.1416 C   0  0  0  0  0  0  0  0  0  0  0  0
   -0.9109    1.8656   -1.3711 C   0  0  0  0  0  0  0  0  0  0  0  0
   -1.2455    2.5039   -0.0555 C   0  0  0  0  0  0  0  0  0  0  0  0
   -2.3088    2.2352    0.7849 C   0  0  0  0  0  0  0  0  0  0  0  0
   -2.2919    3.0427    1.9584 C   0  0  0  0  0  0  0  0  0  0  0  0
   -1.2246    3.9107    1.9708 C   0  0  0  0  0  0  0  0  0  0  0  0
   -0.2545    3.7542    0.5734 S   0  0  0  0  0  0  0  0  0  0  0  0
   -0.6535   -0.6574   -1.3381 N   0  0  0  0  0  0  0  0  0  0  0  0
   -1.9435   -0.7952   -1.7713 C   0  0  0  0  0  0  0  0  0  0  0  0
   -2.9182   -0.4761   -1.0992 O   0  0  0  0  0  0  0  0  0  0  0  0
   -2.0286   -1.3750   -3.0964 C   0  0  0  0  0  0  0  0  0  0  0  0
   -3.1307   -1.7390   -3.8504 C   0  0  0  0  0  0  0  0  0  0  0  0
   -2.6407   -2.2361   -5.0818 C   0  0  0  0  0  0  0  0  0  0  0  0
   -1.2716   -2.1474   -5.0107 C   0  0  0  0  0  0  0  0  0  0  0  0
   -0.8896   -1.6254   -3.8185 O   0  0  0  0  0  0  0  0  0  0  0  0
    0.5649   -0.2922    1.5820 C   0  0  0  0  0  0  0  0  0  0  0  0
    0.9979   -1.7263    1.9538 C   0  0  0  0  0  0  0  0  0  0  0  0
    3.5863   -1.4812    4.1284 H   0  0  0  0  0  0  0  0  0  0  0  0
    2.3270   -0.2614    3.8697 H   0  0  0  0  0  0  0  0  0  0  0  0
    1.9119   -1.8743    4.4776 H   0  0  0  0  0  0  0  0  0  0  0  0
    3.3369   -1.7848    0.5576 H   0  0  0  0  0  0  0  0  0  0  0  0
    4.3367   -1.1814    1.8610 H   0  0  0  0  0  0  0  0  0  0  0  0
    2.9972    0.9343    1.9453 H   0  0  0  0  0  0  0  0  0  0  0  0
    3.5801    0.6366    0.3060 H   0  0  0  0  0  0  0  0  0  0  0  0
   -0.2582    2.5096   -1.9725 H   0  0  0  0  0  0  0  0  0  0  0  0
   -1.8229    1.7296   -1.9598 H   0  0  0  0  0  0  0  0  0  0  0  0
   -3.0679    1.4895    0.5722 H   0  0  0  0  0  0  0  0  0  0  0  0
   -3.0295    2.9922    2.7496 H   0  0  0  0  0  0  0  0  0  0  0  0
   -0.9697    4.6368    2.7305 H   0  0  0  0  0  0  0  0  0  0  0  0
   -4.1622   -1.6509   -3.5374 H   0  0  0  0  0  0  0  0  0  0  0  0
   -3.2138   -2.6145   -5.9171 H   0  0  0  0  0  0  0  0  0  0  0  0
   -0.4672   -2.3987   -5.6884 H   0  0  0  0  0  0  0  0  0  0  0  0
    0.5494    0.3456    2.4742 H   0  0  0  0  0  0  0  0  0  0  0  0
   -0.4514   -0.3045    1.1860 H   0  0  0  0  0  0  0  0  0  0  0  0
    0.8932   -2.3620    1.0652 H   0  0  0  0  0  0  0  0  0  0  0  0
    0.3106   -2.1412    2.7008 H   0  0  0  0  0  0  0  0  0  0  0  0
  1  2  1  0
  2  3  1  0
  3  4  1  0
  4  5  1  0
  5  6  1  0
  6  7  2  0
  6  8  1  0
  8  9  1  0
  9 10  1  0
 10 11  2  0
 11 12  1  0
 12 13  2  0
 13 14  1  0
  8 15  2  3
 15 16  1  0
 16 17  2  0
 16 18  1  0
 18 19  2  0
 19 20  1  0
 20 21  2  0
 21 22  1  0
  5 23  1  0
 23 24  1  0
 24  2  1  0
 14 10  1  0
 22 18  1  0
  1 25  1  0
  1 26  1  0
  1 27  1  0
  3 28  1  0
  3 29  1  0
  4 30  1  0
  4 31  1  0
  9 32  1  0
  9 33  1  0
 11 34  1  0
 12 35  1  0
 13 36  1  0
 19 37  1  0
 20 38  1  0
 21 39  1  0
 23 40  1  0
 23 41  1  0
 24 42  1  0
 24 43  1  0
M  END
$$$$
