
     RDKit          3D

 49 51  0  0  0  0  0  0  0  0999 V2000
    8.6210   -2.1774    3.6441 N   0  0  0  0  0  0  0  0  0  0  0  0
    7.6144   -2.0044    3.0917 C   0  0  0  0  0  0  0  0  0  0  0  0
    6.3748   -1.8170    2.3975 C   0  0  0  0  0  0  0  0  0  0  0  0
    5.7030   -0.6685    2.6826 N   0  0  0  0  0  0  0  0  0  0  0  0
    4.5264   -0.4928    2.0247 C   0  0  0  0  0  0  0  0  0  0  0  0
    4.0077   -1.4139    1.1148 C   0  0  0  0  0  0  0  0  0  0  0  0
    2.7280   -1.2351    0.4024 C   0  0  0  0  0  0  0  0  0  0  0  0
    2.5321   -1.8040   -0.8722 C   0  0  0  0  0  0  0  0  0  0  0  0
    1.3251   -1.6569   -1.5644 C   0  0  0  0  0  0  0  0  0  0  0  0
    0.2760   -0.9498   -0.9880 C   0  0  0  0  0  0  0  0  0  0  0  0
    0.4574   -0.3409    0.2540 C   0  0  0  0  0  0  0  0  0  0  0  0
    1.6578   -0.5064    0.9548 C   0  0  0  0  0  0  0  0  0  0  0  0
   -0.5552    0.3632    0.8479 O   0  0  0  0  0  0  0  0  0  0  0  0
   -0.4246    1.7785    0.6410 C   0  0  0  0  0  0  0  0  0  0  0  0
   -0.9949    2.2131   -0.7107 C   0  0  0  0  0  0  0  0  0  0  0  0
   -1.3848    3.5838   -0.7452 O   0  0  0  0  0  0  0  0  0  0  0  0
   -2.5537    3.9406    0.0032 C   0  0  0  0  0  0  0  0  0  0  0  0
   -3.7170    2.9370    0.0165 C   0  0  0  0  0  0  0  0  0  0  0  0
   -4.1333    2.6427   -1.3144 O   0  0  0  0  0  0  0  0  0  0  0  0
   -5.1376    1.6268   -1.4000 C   0  0  0  0  0  0  0  0  0  0  0  0
   -4.5997    0.2041   -1.1850 C   0  0  0  0  0  0  0  0  0  0  0  0
   -3.7012   -0.1443   -2.2403 O   0  0  0  0  0  0  0  0  0  0  0  0
   -3.1573   -1.4637   -2.1246 C   0  0  0  0  0  0  0  0  0  0  0  0
   -1.9660   -1.5400   -1.1624 C   0  0  0  0  0  0  0  0  0  0  0  0
   -0.8656   -0.8116   -1.7286 O   0  0  0  0  0  0  0  0  0  0  0  0
    4.6988   -2.5529    0.8370 N   0  0  0  0  0  0  0  0  0  0  0  0
    5.8822   -2.7398    1.4907 C   0  0  0  0  0  0  0  0  0  0  0  0
    6.5768   -3.9527    1.1755 C   0  0  0  0  0  0  0  0  0  0  0  0
    7.1550   -4.9300    0.9330 N   0  0  0  0  0  0  0  0  0  0  0  0
    4.0177    0.4391    2.2526 H   0  0  0  0  0  0  0  0  0  0  0  0
    3.3316   -2.3744   -1.3449 H   0  0  0  0  0  0  0  0  0  0  0  0
    1.2064   -2.0997   -2.5499 H   0  0  0  0  0  0  0  0  0  0  0  0
    1.7302   -0.0687    1.9473 H   0  0  0  0  0  0  0  0  0  0  0  0
   -0.9762    2.2534    1.4584 H   0  0  0  0  0  0  0  0  0  0  0  0
    0.6134    2.1187    0.7538 H   0  0  0  0  0  0  0  0  0  0  0  0
   -0.2146    2.0922   -1.4709 H   0  0  0  0  0  0  0  0  0  0  0  0
   -1.8150    1.5702   -1.0356 H   0  0  0  0  0  0  0  0  0  0  0  0
   -2.2460    4.1589    1.0315 H   0  0  0  0  0  0  0  0  0  0  0  0
   -2.9054    4.8834   -0.4300 H   0  0  0  0  0  0  0  0  0  0  0  0
   -3.4109    2.0235    0.5332 H   0  0  0  0  0  0  0  0  0  0  0  0
   -4.5600    3.3710    0.5660 H   0  0  0  0  0  0  0  0  0  0  0  0
   -5.9407    1.8467   -0.6875 H   0  0  0  0  0  0  0  0  0  0  0  0
   -5.5569    1.6977   -2.4093 H   0  0  0  0  0  0  0  0  0  0  0  0
   -4.0871    0.1229   -0.2238 H   0  0  0  0  0  0  0  0  0  0  0  0
   -5.4420   -0.4967   -1.1943 H   0  0  0  0  0  0  0  0  0  0  0  0
   -3.9441   -2.1649   -1.8243 H   0  0  0  0  0  0  0  0  0  0  0  0
   -2.8233   -1.7458   -3.1289 H   0  0  0  0  0  0  0  0  0  0  0  0
   -2.2421   -1.1233   -0.1903 H   0  0  0  0  0  0  0  0  0  0  0  0
   -1.6804   -2.5918   -1.0369 H   0  0  0  0  0  0  0  0  0  0  0  0
  1  2  3  0
  2  3  1  0
  3  4  2  0
  4  5  1  0
  5  6  2  0
  6  7  1  0
  7  8  2  0
  8  9  1  0
  9 10  2  0
 10 11  1  0
 11 12  2  0
 11 13  1  0
 13 14  1  0
 14 15  1  0
 15 16  1  0
 16 17  1  0
 17 18  1  0
 18 19  1  0
 19 20  1  0
 20 21  1  0
 21 22  1  0
 22 23  1  0
 23 24  1  0
 24 25  1  0
  6 26  1  0
 26 27  2  0
 27 28  1  0
 28 29  3  0
 27  3  1  0
 12  7  1  0
 25 10  1  0
  5 30  1  0
  8 31  1  0
  9 32  1  0
 12 33  1  0
 14 34  1  0
 14 35  1  0
 15 36  1  0
 15 37  1  0
 17 38  1  0
 17 39  1  0
 18 40  1  0
 18 41  1  0
 20 42  1  0
 20 43  1  0
 21 44  1  0
 21 45  1  0
 23 46  1  0
 23 47  1  0
 24 48  1  0
 24 49  1  0
M  END
$$$$
