
     RDKit          3D

 57 60  0  0  0  0  0  0  0  0999 V2000
   -1.2506    1.4810   -1.0939 O   0  0  0  0  0  0  0  0  0  0  0  0
   -1.8403    0.4674   -0.7384 C   0  0  0  0  0  0  0  0  0  0  0  0
   -1.1657   -0.7227   -0.0799 C   0  0  0  0  0  0  0  0  0  0  0  0
    0.3579   -0.6121   -0.0194 C   0  0  0  0  0  0  0  0  0  0  0  0
    1.0148   -0.8476   -1.3838 C   0  0  0  0  0  0  0  0  0  0  0  0
    2.5355   -0.6695   -1.3594 C   0  0  0  0  0  0  0  0  0  0  0  0
    3.2599   -1.7478   -0.5467 C   0  0  0  0  0  0  0  0  0  0  0  0
    4.7090   -1.5947   -0.6291 N   0  0  0  0  0  0  0  0  0  0  0  0
    5.3684   -2.2138   -1.6795 C   0  0  0  0  0  0  0  0  0  0  0  0
    4.8141   -2.9020   -2.5357 O   0  0  0  0  0  0  0  0  0  0  0  0
    6.7204   -2.0328   -1.7494 N   0  0  0  0  0  0  0  0  0  0  0  0
    7.4484   -1.2594   -0.8508 C   0  0  0  0  0  0  0  0  0  0  0  0
    8.8295   -1.1309   -0.9991 C   0  0  0  0  0  0  0  0  0  0  0  0
    9.5512   -0.3487   -0.0940 C   0  0  0  0  0  0  0  0  0  0  0  0
    8.8943    0.3019    0.9524 C   0  0  0  0  0  0  0  0  0  0  0  0
    7.5123    0.1717    1.0968 C   0  0  0  0  0  0  0  0  0  0  0  0
    6.7922   -0.6129    0.1900 C   0  0  0  0  0  0  0  0  0  0  0  0
    5.3301   -0.7713    0.3096 C   0  0  0  0  0  0  0  0  0  0  0  0
    4.7364   -0.1824    1.2104 O   0  0  0  0  0  0  0  0  0  0  0  0
   -3.2005    0.2915   -0.8828 N   0  0  0  0  0  0  0  0  0  0  0  0
   -4.0555    1.3694   -1.3480 C   0  0  0  0  0  0  0  0  0  0  0  0
   -4.3747    2.3948   -0.2542 C   0  0  0  0  0  0  0  0  0  0  0  0
   -5.1171    1.8009    0.9066 C   0  0  0  0  0  0  0  0  0  0  0  0
   -4.5863    1.5028    2.1472 C   0  0  0  0  0  0  0  0  0  0  0  0
   -5.5803    0.9792    2.9275 N   0  0  0  0  0  0  0  0  0  0  0  0
   -6.7578    0.9183    2.2202 C   0  0  0  0  0  0  0  0  0  0  0  0
   -8.0200    0.4543    2.6099 C   0  0  0  0  0  0  0  0  0  0  0  0
   -9.0532    0.5210    1.6710 C   0  0  0  0  0  0  0  0  0  0  0  0
   -8.8309    1.0340    0.3956 C   0  0  0  0  0  0  0  0  0  0  0  0
   -7.5626    1.4944    0.0230 C   0  0  0  0  0  0  0  0  0  0  0  0
   -6.5013    1.4351    0.9497 C   0  0  0  0  0  0  0  0  0  0  0  0
   -1.4597   -1.6386   -0.6054 H   0  0  0  0  0  0  0  0  0  0  0  0
   -1.5533   -0.7838    0.9445 H   0  0  0  0  0  0  0  0  0  0  0  0
    0.7209   -1.3629    0.6914 H   0  0  0  0  0  0  0  0  0  0  0  0
    0.6517    0.3692    0.3720 H   0  0  0  0  0  0  0  0  0  0  0  0
    0.7683   -1.8533   -1.7455 H   0  0  0  0  0  0  0  0  0  0  0  0
    0.6043   -0.1424   -2.1157 H   0  0  0  0  0  0  0  0  0  0  0  0
    2.7865    0.3252   -0.9711 H   0  0  0  0  0  0  0  0  0  0  0  0
    2.9001   -0.6945   -2.3940 H   0  0  0  0  0  0  0  0  0  0  0  0
    2.9584   -1.7004    0.5050 H   0  0  0  0  0  0  0  0  0  0  0  0
    2.9804   -2.7416   -0.9161 H   0  0  0  0  0  0  0  0  0  0  0  0
    7.1796   -2.4980   -2.5216 H   0  0  0  0  0  0  0  0  0  0  0  0
    9.3549   -1.6295   -1.8091 H   0  0  0  0  0  0  0  0  0  0  0  0
   10.6284   -0.2444   -0.2047 H   0  0  0  0  0  0  0  0  0  0  0  0
    9.4582    0.9115    1.6549 H   0  0  0  0  0  0  0  0  0  0  0  0
    7.0005    0.6804    1.9112 H   0  0  0  0  0  0  0  0  0  0  0  0
   -3.6465   -0.4438   -0.3481 H   0  0  0  0  0  0  0  0  0  0  0  0
   -3.5585    1.8726   -2.1850 H   0  0  0  0  0  0  0  0  0  0  0  0
   -4.9707    0.9049   -1.7300 H   0  0  0  0  0  0  0  0  0  0  0  0
   -4.9777    3.2026   -0.6865 H   0  0  0  0  0  0  0  0  0  0  0  0
   -3.4470    2.8570    0.1058 H   0  0  0  0  0  0  0  0  0  0  0  0
   -3.5850    1.6279    2.5387 H   0  0  0  0  0  0  0  0  0  0  0  0
   -5.4733    0.6832    3.8877 H   0  0  0  0  0  0  0  0  0  0  0  0
   -8.1979    0.0585    3.6043 H   0  0  0  0  0  0  0  0  0  0  0  0
  -10.0461    0.1700    1.9429 H   0  0  0  0  0  0  0  0  0  0  0  0
   -9.6495    1.0806   -0.3183 H   0  0  0  0  0  0  0  0  0  0  0  0
   -7.4041    1.8963   -0.9731 H   0  0  0  0  0  0  0  0  0  0  0  0
  1  2  2  0
  2  3  1  0
  3  4  1  0
  4  5  1  0
  5  6  1  0
  6  7  1  0
  7  8  1  0
  8  9  1  0
  9 10  2  0
  9 11  1  0
 11 12  1  0
 12 13  2  0
 13 14  1  0
 14 15  2  0
 15 16  1  0
 16 17  2  0
 17 18  1  0
 18 19  2  0
  2 20  1  0
 20 21  1  0
 21 22  1  0
 22 23  1  0
 23 24  2  0
 24 25  1  0
 25 26  1  0
 26 27  2  0
 27 28  1  0
 28 29  2  0
 29 30  1  0
 30 31  2  0
 18  8  1  0
 31 23  1  0
 17 12  1  0
 31 26  1  0
  3 32  1  0
  3 33  1  0
  4 34  1  0
  4 35  1  0
  5 36  1  0
  5 37  1  0
  6 38  1  0
  6 39  1  0
  7 40  1  0
  7 41  1  0
 11 42  1  0
 13 43  1  0
 14 44  1  0
 15 45  1  0
 16 46  1  0
 20 47  1  0
 21 48  1  0
 21 49  1  0
 22 50  1  0
 22 51  1  0
 24 52  1  0
 25 53  1  0
 27 54  1  0
 28 55  1  0
 29 56  1  0
 30 57  1  0
M  END
$$$$
