
     RDKit          3D

 67 72  0  0  0  0  0  0  0  0999 V2000
    6.5555    1.4224    0.3289 C   0  0  0  0  0  0  0  0  0  0  0  0
    5.6113    0.9807    1.4523 C   0  0  0  0  0  0  0  0  0  0  0  0
    6.2452   -0.0872    2.3502 C   0  0  0  0  0  0  0  0  0  0  0  0
    5.2706    2.2057    2.3152 C   0  0  0  0  0  0  0  0  0  0  0  0
    4.3338    0.5386    0.9264 O   0  0  0  0  0  0  0  0  0  0  0  0
    4.2491   -0.5406    0.1063 C   0  0  0  0  0  0  0  0  0  0  0  0
    5.2061   -1.2154   -0.2505 O   0  0  0  0  0  0  0  0  0  0  0  0
    2.9457   -0.7934   -0.2874 N   0  0  0  0  0  0  0  0  0  0  0  0
    2.6769   -2.0650   -0.9815 C   0  0  0  0  0  0  0  0  0  0  0  0
    1.3391   -2.0959   -1.7637 C   0  0  0  0  0  0  0  0  0  0  0  0
    0.2827   -1.5808   -0.9097 N   0  0  0  0  0  0  0  0  0  0  0  0
    0.5700   -0.1648   -0.5227 C   0  0  2  0  0  0  0  0  0  0  0  0
    1.7972   -0.1481    0.3815 C   0  0  0  0  0  0  0  0  0  0  0  0
   -0.7407    0.2297    0.0334 C   0  0  0  0  0  0  0  0  0  0  0  0
   -1.7432   -0.6281   -0.4638 C   0  0  0  0  0  0  0  0  0  0  0  0
   -2.9565   -0.2151    0.0200 C   0  0  0  0  0  0  0  0  0  0  0  0
   -4.1582   -0.7348   -0.2012 O   0  0  0  0  0  0  0  0  0  0  0  0
   -2.6970    0.8990    0.8158 N   0  0  0  0  0  0  0  0  0  0  0  0
   -3.6741    1.6846    1.5618 C   0  0  0  0  0  0  0  0  0  0  0  0
   -4.1355    2.8991    0.7934 C   0  0  0  0  0  0  0  0  0  0  0  0
   -5.0772    2.7937   -0.2411 C   0  0  0  0  0  0  0  0  0  0  0  0
   -5.4924    3.9282   -0.9417 C   0  0  0  0  0  0  0  0  0  0  0  0
   -4.9706    5.1791   -0.6202 C   0  0  0  0  0  0  0  0  0  0  0  0
   -4.0291    5.2974    0.3992 C   0  0  0  0  0  0  0  0  0  0  0  0
   -3.6125    4.1647    1.1003 C   0  0  0  0  0  0  0  0  0  0  0  0
   -1.3297    1.1643    0.8375 C   0  0  0  0  0  0  0  0  0  0  0  0
   -0.8365    2.1796    1.5352 O   0  0  0  0  0  0  0  0  0  0  0  0
   -1.1374   -1.6716   -1.3320 C   0  0  1  0  0  0  0  0  0  0  0  0
   -1.3904   -1.4360   -2.8465 C   0  0  0  0  0  0  0  0  0  0  0  0
   -1.0190   -0.5063   -3.5488 O   0  0  0  0  0  0  0  0  0  0  0  0
   -2.1164   -2.5396   -3.3048 N   0  0  0  0  0  0  0  0  0  0  0  0
   -2.3514   -3.4499   -2.2808 C   0  0  0  0  0  0  0  0  0  0  0  0
   -3.0212   -4.6516   -2.3787 C   0  0  0  0  0  0  0  0  0  0  0  0
   -3.1214   -5.4272   -1.2210 C   0  0  0  0  0  0  0  0  0  0  0  0
   -2.5544   -4.9903   -0.0095 C   0  0  0  0  0  0  0  0  0  0  0  0
   -1.8800   -3.7680    0.0662 C   0  0  0  0  0  0  0  0  0  0  0  0
   -1.7903   -2.9974   -1.0824 C   0  0  0  0  0  0  0  0  0  0  0  0
    6.0515    2.1181   -0.3516 H   0  0  0  0  0  0  0  0  0  0  0  0
    6.8921    0.5775   -0.2793 H   0  0  0  0  0  0  0  0  0  0  0  0
    7.4492    1.9128    0.7295 H   0  0  0  0  0  0  0  0  0  0  0  0
    5.5234   -0.4514    3.0899 H   0  0  0  0  0  0  0  0  0  0  0  0
    6.5757   -0.9596    1.7786 H   0  0  0  0  0  0  0  0  0  0  0  0
    7.1193    0.3061    2.8804 H   0  0  0  0  0  0  0  0  0  0  0  0
    4.7796    2.9805    1.7149 H   0  0  0  0  0  0  0  0  0  0  0  0
    6.1636    2.6397    2.7771 H   0  0  0  0  0  0  0  0  0  0  0  0
    4.5647    1.9379    3.1103 H   0  0  0  0  0  0  0  0  0  0  0  0
    3.5032   -2.2929   -1.6641 H   0  0  0  0  0  0  0  0  0  0  0  0
    2.6682   -2.8448   -0.2090 H   0  0  0  0  0  0  0  0  0  0  0  0
    1.4397   -1.4978   -2.6773 H   0  0  0  0  0  0  0  0  0  0  0  0
    1.1340   -3.1297   -2.0629 H   0  0  0  0  0  0  0  0  0  0  0  0
    0.7635    0.4397   -1.4208 H   0  0  0  0  0  0  0  0  0  0  0  0
    1.6184   -0.6908    1.3185 H   0  0  0  0  0  0  0  0  0  0  0  0
    2.0455    0.8845    0.6489 H   0  0  0  0  0  0  0  0  0  0  0  0
   -4.8352   -0.2693    0.3108 H   0  0  0  0  0  0  0  0  0  0  0  0
   -4.5243    1.0440    1.8175 H   0  0  0  0  0  0  0  0  0  0  0  0
   -3.2173    1.9683    2.5176 H   0  0  0  0  0  0  0  0  0  0  0  0
   -5.4901    1.8292   -0.5233 H   0  0  0  0  0  0  0  0  0  0  0  0
   -6.2179    3.8344   -1.7457 H   0  0  0  0  0  0  0  0  0  0  0  0
   -5.2907    6.0600   -1.1702 H   0  0  0  0  0  0  0  0  0  0  0  0
   -3.6125    6.2707    0.6444 H   0  0  0  0  0  0  0  0  0  0  0  0
   -2.8647    4.2732    1.8839 H   0  0  0  0  0  0  0  0  0  0  0  0
    0.1124    2.2444    1.3319 H   0  0  0  0  0  0  0  0  0  0  0  0
   -2.4180   -2.6358   -4.2617 H   0  0  0  0  0  0  0  0  0  0  0  0
   -3.4539   -4.9897   -3.3127 H   0  0  0  0  0  0  0  0  0  0  0  0
   -3.6425   -6.3812   -1.2539 H   0  0  0  0  0  0  0  0  0  0  0  0
   -2.6435   -5.6105    0.8796 H   0  0  0  0  0  0  0  0  0  0  0  0
   -1.4419   -3.4269    0.9989 H   0  0  0  0  0  0  0  0  0  0  0  0
  1  2  1  0
  2  3  1  0
  2  4  1  0
  2  5  1  0
  5  6  1  0
  6  7  2  0
  6  8  1  0
  8  9  1  0
  9 10  1  0
 10 11  1  0
 11 12  1  0
 12 13  1  0
 12 14  1  0
 14 15  1  0
 15 16  2  0
 16 17  1  0
 16 18  1  0
 18 19  1  0
 19 20  1  0
 20 21  2  0
 21 22  1  0
 22 23  2  0
 23 24  1  0
 24 25  2  0
 18 26  1  0
 26 27  1  0
 15 28  1  0
 28 29  1  0
 29 30  2  0
 29 31  1  0
 31 32  1  0
 32 33  2  0
 33 34  1  0
 34 35  2  0
 35 36  1  0
 36 37  2  0
 13  8  1  0
 26 14  2  0
 37 28  1  0
 28 11  1  6
 37 32  1  0
 25 20  1  0
  1 38  1  0
  1 39  1  0
  1 40  1  0
  3 41  1  0
  3 42  1  0
  3 43  1  0
  4 44  1  0
  4 45  1  0
  4 46  1  0
  9 47  1  0
  9 48  1  0
 10 49  1  0
 10 50  1  0
 12 51  1  6
 13 52  1  0
 13 53  1  0
 17 54  1  0
 19 55  1  0
 19 56  1  0
 21 57  1  0
 22 58  1  0
 23 59  1  0
 24 60  1  0
 25 61  1  0
 27 62  1  0
 31 63  1  0
 33 64  1  0
 34 65  1  0
 35 66  1  0
 36 67  1  0
M  END
$$$$
