
     RDKit          3D

 53 56  0  0  0  0  0  0  0  0999 V2000
   -7.1551    2.8961    1.1429 C   0  0  0  0  0  0  0  0  0  0  0  0
   -5.7992    2.3078    0.8890 C   0  0  0  0  0  0  0  0  0  0  0  0
   -4.9178    2.0739    1.9488 C   0  0  0  0  0  0  0  0  0  0  0  0
   -3.6639    1.4973    1.7194 C   0  0  0  0  0  0  0  0  0  0  0  0
   -3.2687    1.1518    0.4265 C   0  0  0  0  0  0  0  0  0  0  0  0
   -2.0383    0.5225    0.1289 N   0  0  0  0  0  0  0  0  0  0  0  0
   -0.8407    0.5302    0.8324 C   0  0  0  0  0  0  0  0  0  0  0  0
   -0.3208    1.8576    1.7324 S   0  0  0  0  0  0  0  0  0  0  0  0
   -0.0753   -0.6430    0.6384 N   0  0  0  0  0  0  0  0  0  0  0  0
   -0.6161   -1.8707    0.0242 C   0  0  0  0  0  0  0  0  0  0  0  0
   -1.1599   -2.7918    1.0791 C   0  0  0  0  0  0  0  0  0  0  0  0
   -2.1321   -2.5465    2.0310 C   0  0  0  0  0  0  0  0  0  0  0  0
   -2.3857   -3.6791    2.8569 C   0  0  0  0  0  0  0  0  0  0  0  0
   -1.6076   -4.7579    2.5045 C   0  0  0  0  0  0  0  0  0  0  0  0
   -0.5846   -4.4056    1.1821 S   0  0  0  0  0  0  0  0  0  0  0  0
    1.2818   -0.8027    1.2134 C   0  0  0  0  0  0  0  0  0  0  0  0
    2.3662   -0.4212    0.2373 C   0  0  0  0  0  0  0  0  0  0  0  0
    2.2112    0.1902   -0.9511 C   0  0  0  0  0  0  0  0  0  0  0  0
    3.3587    0.5025   -1.8043 C   0  0  0  0  0  0  0  0  0  0  0  0
    3.1846    1.1422   -3.0340 C   0  0  0  0  0  0  0  0  0  0  0  0
    4.2907    1.4291   -3.8324 C   0  0  0  0  0  0  0  0  0  0  0  0
    5.5732    1.0791   -3.4062 C   0  0  0  0  0  0  0  0  0  0  0  0
    5.7713    0.4373   -2.1740 C   0  0  0  0  0  0  0  0  0  0  0  0
    7.1658    0.0770   -1.7471 C   0  0  0  0  0  0  0  0  0  0  0  0
    4.6489    0.1541   -1.3778 C   0  0  0  0  0  0  0  0  0  0  0  0
    4.7871   -0.4833   -0.1367 N   0  0  0  0  0  0  0  0  0  0  0  0
    3.7435   -0.7884    0.6925 C   0  0  0  0  0  0  0  0  0  0  0  0
    3.9370   -1.3521    1.7661 O   0  0  0  0  0  0  0  0  0  0  0  0
   -4.1665    1.3484   -0.6285 C   0  0  0  0  0  0  0  0  0  0  0  0
   -5.4201    1.9246   -0.4006 C   0  0  0  0  0  0  0  0  0  0  0  0
   -7.8744    2.0996    1.3564 H   0  0  0  0  0  0  0  0  0  0  0  0
   -7.5033    3.4644    0.2741 H   0  0  0  0  0  0  0  0  0  0  0  0
   -7.1281    3.5863    1.9926 H   0  0  0  0  0  0  0  0  0  0  0  0
   -5.2007    2.3330    2.9668 H   0  0  0  0  0  0  0  0  0  0  0  0
   -3.0277    1.3028    2.5770 H   0  0  0  0  0  0  0  0  0  0  0  0
   -1.9445    0.2247   -0.8319 H   0  0  0  0  0  0  0  0  0  0  0  0
    0.1865   -2.3390   -0.5583 H   0  0  0  0  0  0  0  0  0  0  0  0
   -1.4168   -1.6530   -0.6868 H   0  0  0  0  0  0  0  0  0  0  0  0
   -2.6363   -1.5933    2.1374 H   0  0  0  0  0  0  0  0  0  0  0  0
   -3.1019   -3.6994    3.6691 H   0  0  0  0  0  0  0  0  0  0  0  0
   -1.5914   -5.7390    2.9589 H   0  0  0  0  0  0  0  0  0  0  0  0
    1.3877   -0.2170    2.1307 H   0  0  0  0  0  0  0  0  0  0  0  0
    1.4030   -1.8511    1.5095 H   0  0  0  0  0  0  0  0  0  0  0  0
    1.2323    0.4849   -1.3107 H   0  0  0  0  0  0  0  0  0  0  0  0
    2.1935    1.4253   -3.3787 H   0  0  0  0  0  0  0  0  0  0  0  0
    4.1550    1.9287   -4.7887 H   0  0  0  0  0  0  0  0  0  0  0  0
    6.4214    1.3144   -4.0464 H   0  0  0  0  0  0  0  0  0  0  0  0
    7.4213    0.5884   -0.8134 H   0  0  0  0  0  0  0  0  0  0  0  0
    7.2517   -1.0053   -1.6071 H   0  0  0  0  0  0  0  0  0  0  0  0
    7.9065    0.3715   -2.4980 H   0  0  0  0  0  0  0  0  0  0  0  0
    5.7000   -0.7436    0.2077 H   0  0  0  0  0  0  0  0  0  0  0  0
   -3.9038    1.0654   -1.6439 H   0  0  0  0  0  0  0  0  0  0  0  0
   -6.0982    2.0719   -1.2382 H   0  0  0  0  0  0  0  0  0  0  0  0
  1  2  1  0
  2  3  2  0
  3  4  1  0
  4  5  2  0
  5  6  1  0
  6  7  1  0
  7  8  2  0
  7  9  1  0
  9 10  1  0
 10 11  1  0
 11 12  2  0
 12 13  1  0
 13 14  2  0
 14 15  1  0
  9 16  1  0
 16 17  1  0
 17 18  2  0
 18 19  1  0
 19 20  2  0
 20 21  1  0
 21 22  2  0
 22 23  1  0
 23 24  1  0
 23 25  2  0
 25 26  1  0
 26 27  1  0
 27 28  2  0
  5 29  1  0
 29 30  2  0
 30  2  1  0
 15 11  1  0
 27 17  1  0
 25 19  1  0
  1 31  1  0
  1 32  1  0
  1 33  1  0
  3 34  1  0
  4 35  1  0
  6 36  1  0
 10 37  1  0
 10 38  1  0
 12 39  1  0
 13 40  1  0
 14 41  1  0
 16 42  1  0
 16 43  1  0
 18 44  1  0
 20 45  1  0
 21 46  1  0
 22 47  1  0
 24 48  1  0
 24 49  1  0
 24 50  1  0
 26 51  1  0
 29 52  1  0
 30 53  1  0
M  END
$$$$
