
     RDKit          3D

 36 38  0  0  0  0  0  0  0  0999 V2000
    6.1002   -0.2614    3.9382 C   0  0  0  0  0  0  0  0  0  0  0  0
    5.2874   -0.1360    2.7131 C   0  0  0  0  0  0  0  0  0  0  0  0
    5.5505    0.3026    1.4403 C   0  0  0  0  0  0  0  0  0  0  0  0
    4.3370    0.1631    0.7222 C   0  0  0  0  0  0  0  0  0  0  0  0
    3.3727   -0.3428    1.5892 C   0  0  0  0  0  0  0  0  0  0  0  0
    2.0006   -0.6904    1.4206 C   0  0  0  0  0  0  0  0  0  0  0  0
    1.1564   -0.2007    0.4927 C   0  0  0  0  0  0  0  0  0  0  0  0
    1.5157    0.7738   -0.4727 C   0  0  0  0  0  0  0  0  0  0  0  0
    1.7221    1.5647   -1.2966 N   0  0  0  0  0  0  0  0  0  0  0  0
   -0.2626   -0.7220    0.5240 C   0  0  0  0  0  0  0  0  0  0  0  0
   -0.5672   -1.6019    1.3241 O   0  0  0  0  0  0  0  0  0  0  0  0
   -1.1248   -0.1373   -0.3926 N   0  0  0  0  0  0  0  0  0  0  0  0
   -2.5070   -0.4153   -0.6041 C   0  0  0  0  0  0  0  0  0  0  0  0
   -3.1868   -1.3761    0.1518 C   0  0  0  0  0  0  0  0  0  0  0  0
   -4.5358   -1.6301   -0.0706 C   0  0  0  0  0  0  0  0  0  0  0  0
   -5.2205   -0.9243   -1.0535 C   0  0  0  0  0  0  0  0  0  0  0  0
   -4.5948    0.0354   -1.8283 C   0  0  0  0  0  0  0  0  0  0  0  0
   -5.3472    0.6595   -2.7511 N   0  0  0  0  0  0  0  0  0  0  0  0
   -4.7693    1.5992   -3.5234 C   0  0  0  0  0  0  0  0  0  0  0  0
   -3.4446    1.9565   -3.4191 C   0  0  0  0  0  0  0  0  0  0  0  0
   -2.6681    1.3083   -2.4625 C   0  0  0  0  0  0  0  0  0  0  0  0
   -3.2201    0.3100   -1.6186 C   0  0  0  0  0  0  0  0  0  0  0  0
    3.9927   -0.5314    2.8076 O   0  0  0  0  0  0  0  0  0  0  0  0
    7.1244    0.0843    3.7673 H   0  0  0  0  0  0  0  0  0  0  0  0
    5.6690    0.3369    4.7467 H   0  0  0  0  0  0  0  0  0  0  0  0
    6.1425   -1.3050    4.2645 H   0  0  0  0  0  0  0  0  0  0  0  0
    6.4975    0.6691    1.0693 H   0  0  0  0  0  0  0  0  0  0  0  0
    4.2045    0.4009   -0.3242 H   0  0  0  0  0  0  0  0  0  0  0  0
    1.6300   -1.4015    2.1581 H   0  0  0  0  0  0  0  0  0  0  0  0
   -0.7495    0.5800   -0.9951 H   0  0  0  0  0  0  0  0  0  0  0  0
   -2.7015   -1.9543    0.9308 H   0  0  0  0  0  0  0  0  0  0  0  0
   -5.0544   -2.3789    0.5230 H   0  0  0  0  0  0  0  0  0  0  0  0
   -6.2757   -1.1297   -1.2202 H   0  0  0  0  0  0  0  0  0  0  0  0
   -5.4245    2.0696   -4.2507 H   0  0  0  0  0  0  0  0  0  0  0  0
   -3.0220    2.7192   -4.0635 H   0  0  0  0  0  0  0  0  0  0  0  0
   -1.6267    1.6058   -2.3992 H   0  0  0  0  0  0  0  0  0  0  0  0
  1  2  1  0
  2  3  2  0
  3  4  1  0
  4  5  2  0
  5  6  1  0
  6  7  2  3
  7  8  1  0
  8  9  3  0
  7 10  1  0
 10 11  2  0
 10 12  1  0
 12 13  1  0
 13 14  2  0
 14 15  1  0
 15 16  2  0
 16 17  1  0
 17 18  2  0
 18 19  1  0
 19 20  2  0
 20 21  1  0
 21 22  2  0
  5 23  1  0
 23  2  1  0
 22 13  1  0
 22 17  1  0
  1 24  1  0
  1 25  1  0
  1 26  1  0
  3 27  1  0
  4 28  1  0
  6 29  1  0
 12 30  1  0
 14 31  1  0
 15 32  1  0
 16 33  1  0
 19 34  1  0
 20 35  1  0
 21 36  1  0
M  END
$$$$
