
     RDKit          3D

 47 49  0  0  0  0  0  0  0  0999 V2000
    7.5861    0.5771   -0.4858 C   0  0  0  0  0  0  0  0  0  0  0  0
    6.3344   -0.0582   -0.7169 O   0  0  0  0  0  0  0  0  0  0  0  0
    5.2585    0.7598   -0.9320 C   0  0  0  0  0  0  0  0  0  0  0  0
    5.2693    2.1525   -0.9035 C   0  0  0  0  0  0  0  0  0  0  0  0
    4.0875    2.8599   -1.1280 C   0  0  0  0  0  0  0  0  0  0  0  0
    2.8943    2.1830   -1.3919 C   0  0  0  0  0  0  0  0  0  0  0  0
    2.8730    0.7905   -1.4520 C   0  0  0  0  0  0  0  0  0  0  0  0
    1.7063    0.0261   -1.6762 N   0  0  0  0  0  0  0  0  0  0  0  0
    0.5003    0.3512   -2.2857 C   0  0  0  0  0  0  0  0  0  0  0  0
    0.3058    1.5680   -3.4311 S   0  0  0  0  0  0  0  0  0  0  0  0
   -0.5373   -0.5202   -1.8936 N   0  0  0  0  0  0  0  0  0  0  0  0
   -1.8241   -0.6107   -2.5967 C   0  0  0  0  0  0  0  0  0  0  0  0
   -2.9066    0.1353   -1.8206 C   0  0  0  0  0  0  0  0  0  0  0  0
   -2.9486   -0.3211   -0.3805 C   0  0  0  0  0  0  0  0  0  0  0  0
   -4.1008   -0.0939    0.3875 C   0  0  0  0  0  0  0  0  0  0  0  0
   -4.1581   -0.4921    1.7276 C   0  0  0  0  0  0  0  0  0  0  0  0
   -5.2482   -0.3145    2.5435 O   0  0  0  0  0  0  0  0  0  0  0  0
   -6.3499    0.4141    2.0217 C   0  0  0  0  0  0  0  0  0  0  0  0
   -3.0461   -1.1292    2.3108 C   0  0  0  0  0  0  0  0  0  0  0  0
   -3.1845   -1.5000    3.6259 O   0  0  0  0  0  0  0  0  0  0  0  0
   -2.1319   -2.2494    4.2147 C   0  0  0  0  0  0  0  0  0  0  0  0
   -1.8892   -1.3348    1.5498 C   0  0  0  0  0  0  0  0  0  0  0  0
   -1.8239   -0.9256    0.2072 C   0  0  0  0  0  0  0  0  0  0  0  0
   -0.5507   -1.1787   -0.5789 C   0  0  0  0  0  0  0  0  0  0  0  0
    4.0590    0.0883   -1.1969 C   0  0  0  0  0  0  0  0  0  0  0  0
    8.3403   -0.2057   -0.3634 H   0  0  0  0  0  0  0  0  0  0  0  0
    7.8821    1.1920   -1.3422 H   0  0  0  0  0  0  0  0  0  0  0  0
    7.5646    1.1666    0.4365 H   0  0  0  0  0  0  0  0  0  0  0  0
    6.1725    2.7171   -0.7007 H   0  0  0  0  0  0  0  0  0  0  0  0
    4.0903    3.9468   -1.0899 H   0  0  0  0  0  0  0  0  0  0  0  0
    1.9922    2.7734   -1.5159 H   0  0  0  0  0  0  0  0  0  0  0  0
    1.8251   -0.9707   -1.5546 H   0  0  0  0  0  0  0  0  0  0  0  0
   -1.7591   -0.2371   -3.6214 H   0  0  0  0  0  0  0  0  0  0  0  0
   -2.0739   -1.6772   -2.6724 H   0  0  0  0  0  0  0  0  0  0  0  0
   -3.8760   -0.0405   -2.3015 H   0  0  0  0  0  0  0  0  0  0  0  0
   -2.7095    1.2138   -1.8321 H   0  0  0  0  0  0  0  0  0  0  0  0
   -4.9447    0.3954   -0.0882 H   0  0  0  0  0  0  0  0  0  0  0  0
   -7.1000    0.4981    2.8136 H   0  0  0  0  0  0  0  0  0  0  0  0
   -6.8119   -0.1171    1.1829 H   0  0  0  0  0  0  0  0  0  0  0  0
   -6.0549    1.4288    1.7346 H   0  0  0  0  0  0  0  0  0  0  0  0
   -2.4397   -2.5199    5.2302 H   0  0  0  0  0  0  0  0  0  0  0  0
   -1.9506   -3.1798    3.6653 H   0  0  0  0  0  0  0  0  0  0  0  0
   -1.2183   -1.6498    4.2922 H   0  0  0  0  0  0  0  0  0  0  0  0
   -1.0142   -1.8076    1.9844 H   0  0  0  0  0  0  0  0  0  0  0  0
    0.2957   -0.8500    0.0311 H   0  0  0  0  0  0  0  0  0  0  0  0
   -0.4560   -2.2553   -0.7617 H   0  0  0  0  0  0  0  0  0  0  0  0
    4.0713   -0.9985   -1.2121 H   0  0  0  0  0  0  0  0  0  0  0  0
  1  2  1  0
  2  3  1  0
  3  4  2  0
  4  5  1  0
  5  6  2  0
  6  7  1  0
  7  8  1  0
  8  9  1  0
  9 10  2  0
  9 11  1  0
 11 12  1  0
 12 13  1  0
 13 14  1  0
 14 15  2  0
 15 16  1  0
 16 17  1  0
 17 18  1  0
 16 19  2  0
 19 20  1  0
 20 21  1  0
 19 22  1  0
 22 23  2  0
 23 24  1  0
  7 25  2  0
 25  3  1  0
 24 11  1  0
 23 14  1  0
  1 26  1  0
  1 27  1  0
  1 28  1  0
  4 29  1  0
  5 30  1  0
  6 31  1  0
  8 32  1  0
 12 33  1  0
 12 34  1  0
 13 35  1  0
 13 36  1  0
 15 37  1  0
 18 38  1  0
 18 39  1  0
 18 40  1  0
 21 41  1  0
 21 42  1  0
 21 43  1  0
 22 44  1  0
 24 45  1  0
 24 46  1  0
 25 47  1  0
M  END
$$$$
