
     RDKit          3D

 47 50  0  0  0  0  0  0  0  0999 V2000
   -3.7947    1.3986   -1.5237 C   0  0  0  0  0  0  0  0  0  0  0  0
   -4.0181    1.6198   -0.0966 N   0  0  0  0  0  0  0  0  0  0  0  0
   -2.8386    2.2334    0.5481 C   0  0  0  0  0  0  0  0  0  0  0  0
   -1.6354    1.2811    0.7564 C   0  0  0  0  0  0  0  0  0  0  0  0
   -2.0196    0.0519    1.4641 N   0  0  0  0  0  0  0  0  0  0  0  0
   -0.8980   -0.8348    1.7864 C   0  0  0  0  0  0  0  0  0  0  0  0
   -0.1830   -1.4894    0.6257 C   0  0  0  0  0  0  0  0  0  0  0  0
   -0.6241   -2.7200    0.1346 C   0  0  0  0  0  0  0  0  0  0  0  0
    0.0221   -3.3279   -0.9462 C   0  0  0  0  0  0  0  0  0  0  0  0
   -0.6164   -4.8486   -1.4804 Cl  0  0  0  0  0  0  0  0  0  0  0  0
    1.1364   -2.7209   -1.5772 C   0  0  0  0  0  0  0  0  0  0  0  0
    1.8259   -3.2743   -2.6800 C   0  0  0  0  0  0  0  0  0  0  0  0
    2.9077   -2.6128   -3.2478 C   0  0  0  0  0  0  0  0  0  0  0  0
    3.2788   -1.4045   -2.7017 C   0  0  0  0  0  0  0  0  0  0  0  0
    2.6510   -0.8367   -1.6517 N   0  0  0  0  0  0  0  0  0  0  0  0
    1.6028   -1.4825   -1.0904 C   0  0  0  0  0  0  0  0  0  0  0  0
    0.9413   -0.9166    0.0095 C   0  0  0  0  0  0  0  0  0  0  0  0
    1.4051    0.3260    0.4834 O   0  0  0  0  0  0  0  0  0  0  0  0
    2.5615    0.2146    1.2513 C   0  0  0  0  0  0  0  0  0  0  0  0
    3.0182   -0.8424    1.6795 O   0  0  0  0  0  0  0  0  0  0  0  0
    3.1284    1.5240    1.5370 C   0  0  0  0  0  0  0  0  0  0  0  0
    4.2621    1.7802    2.2898 C   0  0  0  0  0  0  0  0  0  0  0  0
    4.5578    3.1703    2.3875 C   0  0  0  0  0  0  0  0  0  0  0  0
    3.6413    3.9373    1.7056 C   0  0  0  0  0  0  0  0  0  0  0  0
    2.4380    2.9826    0.9564 S   0  0  0  0  0  0  0  0  0  0  0  0
   -3.1577   -0.6056    0.8100 C   0  0  0  0  0  0  0  0  0  0  0  0
   -4.3487    0.3627    0.6046 C   0  0  0  0  0  0  0  0  0  0  0  0
   -2.9609    0.7219   -1.7356 H   0  0  0  0  0  0  0  0  0  0  0  0
   -4.6955    0.9833   -1.9891 H   0  0  0  0  0  0  0  0  0  0  0  0
   -3.5959    2.3504   -2.0290 H   0  0  0  0  0  0  0  0  0  0  0  0
   -3.1533    2.6149    1.5289 H   0  0  0  0  0  0  0  0  0  0  0  0
   -2.5147    3.1153   -0.0185 H   0  0  0  0  0  0  0  0  0  0  0  0
   -0.8799    1.8197    1.3404 H   0  0  0  0  0  0  0  0  0  0  0  0
   -1.1951    1.0514   -0.2206 H   0  0  0  0  0  0  0  0  0  0  0  0
   -0.1734   -0.2880    2.4033 H   0  0  0  0  0  0  0  0  0  0  0  0
   -1.2600   -1.6242    2.4596 H   0  0  0  0  0  0  0  0  0  0  0  0
   -1.4803   -3.2101    0.5948 H   0  0  0  0  0  0  0  0  0  0  0  0
    1.5250   -4.2287   -3.1060 H   0  0  0  0  0  0  0  0  0  0  0  0
    3.4429   -3.0317   -4.0922 H   0  0  0  0  0  0  0  0  0  0  0  0
    4.1161   -0.8399   -3.1020 H   0  0  0  0  0  0  0  0  0  0  0  0
    4.8525    0.9943    2.7488 H   0  0  0  0  0  0  0  0  0  0  0  0
    5.3996    3.5848    2.9290 H   0  0  0  0  0  0  0  0  0  0  0  0
    3.6196    5.0144    1.6091 H   0  0  0  0  0  0  0  0  0  0  0  0
   -3.5047   -1.4417    1.4290 H   0  0  0  0  0  0  0  0  0  0  0  0
   -2.8691   -1.0178   -0.1637 H   0  0  0  0  0  0  0  0  0  0  0  0
   -5.1594   -0.1590    0.0809 H   0  0  0  0  0  0  0  0  0  0  0  0
   -4.7575    0.6249    1.5898 H   0  0  0  0  0  0  0  0  0  0  0  0
  1  2  1  0
  2  3  1  0
  3  4  1  0
  4  5  1  0
  5  6  1  0
  6  7  1  0
  7  8  2  0
  8  9  1  0
  9 10  1  0
  9 11  2  0
 11 12  1  0
 12 13  2  0
 13 14  1  0
 14 15  2  0
 15 16  1  0
 16 17  2  0
 17 18  1  0
 18 19  1  0
 19 20  2  0
 19 21  1  0
 21 22  2  0
 22 23  1  0
 23 24  2  0
 24 25  1  0
  5 26  1  0
 26 27  1  0
 27  2  1  0
 17  7  1  0
 25 21  1  0
 16 11  1  0
  1 28  1  0
  1 29  1  0
  1 30  1  0
  3 31  1  0
  3 32  1  0
  4 33  1  0
  4 34  1  0
  6 35  1  0
  6 36  1  0
  8 37  1  0
 12 38  1  0
 13 39  1  0
 14 40  1  0
 22 41  1  0
 23 42  1  0
 24 43  1  0
 26 44  1  0
 26 45  1  0
 27 46  1  0
 27 47  1  0
M  END
$$$$
