
     RDKit          3D

 42 44  0  0  0  0  0  0  0  0999 V2000
    3.6814    0.2553    1.9578 C   0  0  0  0  0  0  0  0  0  0  0  0
    3.9557    0.0888    0.4655 C   0  0  0  0  0  0  0  0  0  0  0  0
    5.4535   -0.0785    0.2158 C   0  0  0  0  0  0  0  0  0  0  0  0
    3.0963   -1.4017   -0.1751 S   0  0  0  0  0  0  0  0  0  0  0  0
    1.4050   -0.8262   -0.2414 C   0  0  0  0  0  0  0  0  0  0  0  0
    0.3887   -1.7505   -0.1223 C   0  0  0  0  0  0  0  0  0  0  0  0
   -0.9082   -1.2878   -0.2036 C   0  0  0  0  0  0  0  0  0  0  0  0
   -1.9873   -2.1367   -0.1083 N   0  0  0  0  0  0  0  0  0  0  0  0
   -1.9455   -3.4249    0.5758 C   0  0  0  0  0  0  0  0  0  0  0  0
   -3.3817   -3.6453    1.0534 C   0  0  0  0  0  0  0  0  0  0  0  0
   -4.2129   -2.8183    0.0857 C   0  0  0  0  0  0  0  0  0  0  0  0
   -3.3389   -1.5879   -0.1349 C   0  0  0  0  0  0  0  0  0  0  0  0
   -1.1467    0.0164   -0.4229 N   0  0  0  0  0  0  0  0  0  0  0  0
   -0.0962    0.8519   -0.5218 C   0  0  0  0  0  0  0  0  0  0  0  0
   -0.3926    2.2568   -0.8257 C   0  0  0  0  0  0  0  0  0  0  0  0
   -1.3152    2.5537   -1.8539 C   0  0  0  0  0  0  0  0  0  0  0  0
   -1.6274    3.8696   -2.2056 C   0  0  0  0  0  0  0  0  0  0  0  0
   -1.0268    4.9261   -1.5320 C   0  0  0  0  0  0  0  0  0  0  0  0
   -0.1229    4.6641   -0.5043 C   0  0  0  0  0  0  0  0  0  0  0  0
    0.1910    3.3433   -0.1494 C   0  0  0  0  0  0  0  0  0  0  0  0
    1.2754    3.1441    1.1869 Cl  0  0  0  0  0  0  0  0  0  0  0  0
    1.1866    0.4779   -0.4507 N   0  0  0  0  0  0  0  0  0  0  0  0
    4.0425   -0.6031    2.5356 H   0  0  0  0  0  0  0  0  0  0  0  0
    2.6139    0.3799    2.1657 H   0  0  0  0  0  0  0  0  0  0  0  0
    4.1924    1.1461    2.3402 H   0  0  0  0  0  0  0  0  0  0  0  0
    3.6220    0.9772   -0.0800 H   0  0  0  0  0  0  0  0  0  0  0  0
    5.9992    0.8019    0.5736 H   0  0  0  0  0  0  0  0  0  0  0  0
    5.8617   -0.9521    0.7369 H   0  0  0  0  0  0  0  0  0  0  0  0
    5.6701   -0.1822   -0.8534 H   0  0  0  0  0  0  0  0  0  0  0  0
    0.6100   -2.7998    0.0144 H   0  0  0  0  0  0  0  0  0  0  0  0
   -1.6479   -4.2078   -0.1303 H   0  0  0  0  0  0  0  0  0  0  0  0
   -1.2626   -3.4371    1.4326 H   0  0  0  0  0  0  0  0  0  0  0  0
   -3.6621   -4.7023    1.0607 H   0  0  0  0  0  0  0  0  0  0  0  0
   -3.4996   -3.2549    2.0716 H   0  0  0  0  0  0  0  0  0  0  0  0
   -4.3445   -3.3641   -0.8564 H   0  0  0  0  0  0  0  0  0  0  0  0
   -5.2009   -2.5664    0.4804 H   0  0  0  0  0  0  0  0  0  0  0  0
   -3.4856   -0.8707    0.6821 H   0  0  0  0  0  0  0  0  0  0  0  0
   -3.5743   -1.1051   -1.0893 H   0  0  0  0  0  0  0  0  0  0  0  0
   -1.7950    1.7382   -2.3955 H   0  0  0  0  0  0  0  0  0  0  0  0
   -2.3381    4.0635   -3.0052 H   0  0  0  0  0  0  0  0  0  0  0  0
   -1.2654    5.9521   -1.8002 H   0  0  0  0  0  0  0  0  0  0  0  0
    0.3328    5.4962    0.0276 H   0  0  0  0  0  0  0  0  0  0  0  0
  1  2  1  0
  2  3  1  0
  2  4  1  0
  4  5  1  0
  5  6  2  0
  6  7  1  0
  7  8  1  0
  8  9  1  0
  9 10  1  0
 10 11  1  0
 11 12  1  0
  7 13  2  0
 13 14  1  0
 14 15  1  0
 15 16  2  0
 16 17  1  0
 17 18  2  0
 18 19  1  0
 19 20  2  0
 20 21  1  0
 14 22  2  0
 22  5  1  0
 12  8  1  0
 20 15  1  0
  1 23  1  0
  1 24  1  0
  1 25  1  0
  2 26  1  0
  3 27  1  0
  3 28  1  0
  3 29  1  0
  6 30  1  0
  9 31  1  0
  9 32  1  0
 10 33  1  0
 10 34  1  0
 11 35  1  0
 11 36  1  0
 12 37  1  0
 12 38  1  0
 16 39  1  0
 17 40  1  0
 18 41  1  0
 19 42  1  0
M  END
$$$$
