
     RDKit          3D

 43 46  0  0  0  0  0  0  0  0999 V2000
   -2.2037   -2.7760   -0.7501 C   0  0  0  0  0  0  0  0  0  0  0  0
   -1.9465   -2.1536    0.6092 C   0  0  0  0  0  0  0  0  0  0  0  0
   -1.9287   -0.7225    0.5025 O   0  0  0  0  0  0  0  0  0  0  0  0
   -3.1382   -0.1032    0.5897 C   0  0  0  0  0  0  0  0  0  0  0  0
   -4.1983   -0.6865    0.7765 O   0  0  0  0  0  0  0  0  0  0  0  0
   -3.0036    1.3367    0.4207 C   0  0  0  0  0  0  0  0  0  0  0  0
   -4.0822    2.2133    0.3448 C   0  0  0  0  0  0  0  0  0  0  0  0
   -3.5494    3.5119    0.1419 C   0  0  0  0  0  0  0  0  0  0  0  0
   -4.1047    5.1376   -0.0699 S   0  0  0  0  0  0  0  0  0  0  0  0
   -2.4767    5.6683   -0.2225 C   0  0  0  0  0  0  0  0  0  0  0  0
   -1.5414    4.6616   -0.1104 C   0  0  0  0  0  0  0  0  0  0  0  0
   -2.1926    3.4140    0.1069 C   0  0  0  0  0  0  0  0  0  0  0  0
   -1.8452    2.0905    0.2997 N   0  0  0  0  0  0  0  0  0  0  0  0
   -0.4591    1.6563    0.4109 C   0  0  0  0  0  0  0  0  0  0  0  0
    0.0647    1.0254   -0.8638 C   0  0  0  0  0  0  0  0  0  0  0  0
   -0.3502    1.3296   -1.9811 O   0  0  0  0  0  0  0  0  0  0  0  0
    1.1496    0.0059   -0.7596 C   0  0  0  0  0  0  0  0  0  0  0  0
    1.3695   -0.8439   -1.8548 C   0  0  0  0  0  0  0  0  0  0  0  0
    2.3674   -1.8199   -1.8054 C   0  0  0  0  0  0  0  0  0  0  0  0
    3.1562   -1.9445   -0.6657 C   0  0  0  0  0  0  0  0  0  0  0  0
    2.9312   -1.1111    0.4342 C   0  0  0  0  0  0  0  0  0  0  0  0
    1.9439   -0.1256    0.3851 C   0  0  0  0  0  0  0  0  0  0  0  0
    3.6508   -1.1954    1.5993 O   0  0  0  0  0  0  0  0  0  0  0  0
    4.3861   -2.4237    1.6737 C   0  0  0  0  0  0  0  0  0  0  0  0
    5.0869   -2.7123    0.3565 C   0  0  0  0  0  0  0  0  0  0  0  0
    4.1300   -2.9082   -0.6911 O   0  0  0  0  0  0  0  0  0  0  0  0
   -3.1880   -2.4895   -1.1336 H   0  0  0  0  0  0  0  0  0  0  0  0
   -1.4651   -2.4279   -1.4793 H   0  0  0  0  0  0  0  0  0  0  0  0
   -2.1556   -3.8670   -0.6924 H   0  0  0  0  0  0  0  0  0  0  0  0
   -0.9586   -2.4577    0.9706 H   0  0  0  0  0  0  0  0  0  0  0  0
   -2.6779   -2.4909    1.3524 H   0  0  0  0  0  0  0  0  0  0  0  0
   -5.1280    1.9408    0.4126 H   0  0  0  0  0  0  0  0  0  0  0  0
   -2.2875    6.7192   -0.3939 H   0  0  0  0  0  0  0  0  0  0  0  0
   -0.4736    4.8172   -0.1879 H   0  0  0  0  0  0  0  0  0  0  0  0
    0.1613    2.5267    0.6487 H   0  0  0  0  0  0  0  0  0  0  0  0
   -0.4125    0.9746    1.2641 H   0  0  0  0  0  0  0  0  0  0  0  0
    0.7620   -0.7498   -2.7541 H   0  0  0  0  0  0  0  0  0  0  0  0
    2.5353   -2.4711   -2.6593 H   0  0  0  0  0  0  0  0  0  0  0  0
    1.8222    0.5197    1.2490 H   0  0  0  0  0  0  0  0  0  0  0  0
    5.1201   -2.3219    2.4792 H   0  0  0  0  0  0  0  0  0  0  0  0
    3.6912   -3.2286    1.9434 H   0  0  0  0  0  0  0  0  0  0  0  0
    5.6830   -3.6266    0.4368 H   0  0  0  0  0  0  0  0  0  0  0  0
    5.7559   -1.8916    0.0690 H   0  0  0  0  0  0  0  0  0  0  0  0
  1  2  1  0
  2  3  1  0
  3  4  1  0
  4  5  2  0
  4  6  1  0
  6  7  2  0
  7  8  1  0
  8  9  1  0
  9 10  1  0
 10 11  2  0
 11 12  1  0
 12 13  1  0
 13 14  1  0
 14 15  1  0
 15 16  2  0
 15 17  1  0
 17 18  2  0
 18 19  1  0
 19 20  2  0
 20 21  1  0
 21 22  2  0
 21 23  1  0
 23 24  1  0
 24 25  1  0
 25 26  1  0
 13  6  1  0
 22 17  1  0
 12  8  2  0
 26 20  1  0
  1 27  1  0
  1 28  1  0
  1 29  1  0
  2 30  1  0
  2 31  1  0
  7 32  1  0
 10 33  1  0
 11 34  1  0
 14 35  1  0
 14 36  1  0
 18 37  1  0
 19 38  1  0
 22 39  1  0
 24 40  1  0
 24 41  1  0
 25 42  1  0
 25 43  1  0
M  END
$$$$
