
     RDKit          3D

 41 42  0  0  0  0  0  0  0  0999 V2000
   -4.9854    1.9345   -4.1324 C   0  0  0  0  0  0  0  0  0  0  0  0
   -5.7914    2.1805   -2.5274 S   0  0  0  0  0  0  0  0  0  0  0  0
   -4.5464    1.4960   -1.4499 C   0  0  0  0  0  0  0  0  0  0  0  0
   -4.1022    0.1787   -1.5849 C   0  0  0  0  0  0  0  0  0  0  0  0
   -3.1320   -0.3340   -0.7180 C   0  0  0  0  0  0  0  0  0  0  0  0
   -2.5913    0.4615    0.3021 C   0  0  0  0  0  0  0  0  0  0  0  0
   -1.5381   -0.0895    1.2411 C   0  0  0  0  0  0  0  0  0  0  0  0
   -0.1276    0.0683    0.8358 N   0  0  0  0  0  0  0  0  0  0  0  0
    0.2663    1.4784    0.7415 C   0  0  0  0  0  0  0  0  0  0  0  0
    0.1735   -0.6524   -0.4273 C   0  0  0  0  0  0  0  0  0  0  0  0
    1.6753   -0.9546   -0.5627 C   0  0  0  0  0  0  0  0  0  0  0  0
    2.1920   -1.1048   -1.6658 O   0  0  0  0  0  0  0  0  0  0  0  0
    2.2952   -1.0908    0.6670 N   0  0  0  0  0  0  0  0  0  0  0  0
    3.6361   -1.4046    0.9435 C   0  0  0  0  0  0  0  0  0  0  0  0
    4.5823   -1.7034   -0.0393 C   0  0  0  0  0  0  0  0  0  0  0  0
    5.9012   -2.0082    0.3138 C   0  0  0  0  0  0  0  0  0  0  0  0
    6.2844   -2.0179    1.6531 C   0  0  0  0  0  0  0  0  0  0  0  0
    5.3430   -1.7223    2.6347 C   0  0  0  0  0  0  0  0  0  0  0  0
    5.8536   -1.7337    4.4557 Br  0  0  0  0  0  0  0  0  0  0  0  0
    4.0255   -1.4175    2.2883 C   0  0  0  0  0  0  0  0  0  0  0  0
   -3.0585    1.7757    0.4454 C   0  0  0  0  0  0  0  0  0  0  0  0
   -4.0291    2.2866   -0.4214 C   0  0  0  0  0  0  0  0  0  0  0  0
   -4.9017    0.8706   -4.3687 H   0  0  0  0  0  0  0  0  0  0  0  0
   -3.9906    2.3887   -4.1362 H   0  0  0  0  0  0  0  0  0  0  0  0
   -5.5875    2.4122   -4.9100 H   0  0  0  0  0  0  0  0  0  0  0  0
   -4.5144   -0.4684   -2.3549 H   0  0  0  0  0  0  0  0  0  0  0  0
   -2.8092   -1.3653   -0.8421 H   0  0  0  0  0  0  0  0  0  0  0  0
   -1.6742    0.3658    2.2317 H   0  0  0  0  0  0  0  0  0  0  0  0
   -1.7405   -1.1556    1.4123 H   0  0  0  0  0  0  0  0  0  0  0  0
   -0.2241    2.0018   -0.0862 H   0  0  0  0  0  0  0  0  0  0  0  0
    0.0352    2.0053    1.6740 H   0  0  0  0  0  0  0  0  0  0  0  0
    1.3480    1.5730    0.5976 H   0  0  0  0  0  0  0  0  0  0  0  0
   -0.3183   -1.6329   -0.4347 H   0  0  0  0  0  0  0  0  0  0  0  0
   -0.1557   -0.0862   -1.3062 H   0  0  0  0  0  0  0  0  0  0  0  0
    1.6853   -0.8646    1.4498 H   0  0  0  0  0  0  0  0  0  0  0  0
    4.3244   -1.7092   -1.0941 H   0  0  0  0  0  0  0  0  0  0  0  0
    6.6267   -2.2383   -0.4628 H   0  0  0  0  0  0  0  0  0  0  0  0
    7.3111   -2.2558    1.9176 H   0  0  0  0  0  0  0  0  0  0  0  0
    3.3060   -1.1899    3.0700 H   0  0  0  0  0  0  0  0  0  0  0  0
   -2.6713    2.4137    1.2370 H   0  0  0  0  0  0  0  0  0  0  0  0
   -4.3758    3.3087   -0.2865 H   0  0  0  0  0  0  0  0  0  0  0  0
  1  2  1  0
  2  3  1  0
  3  4  2  0
  4  5  1  0
  5  6  2  0
  6  7  1  0
  7  8  1  0
  8  9  1  0
  8 10  1  0
 10 11  1  0
 11 12  2  0
 11 13  1  0
 13 14  1  0
 14 15  2  0
 15 16  1  0
 16 17  2  0
 17 18  1  0
 18 19  1  0
 18 20  2  0
  6 21  1  0
 21 22  2  0
 22  3  1  0
 20 14  1  0
  1 23  1  0
  1 24  1  0
  1 25  1  0
  4 26  1  0
  5 27  1  0
  7 28  1  0
  7 29  1  0
  9 30  1  0
  9 31  1  0
  9 32  1  0
 10 33  1  0
 10 34  1  0
 13 35  1  0
 15 36  1  0
 16 37  1  0
 17 38  1  0
 20 39  1  0
 21 40  1  0
 22 41  1  0
M  END
$$$$
