
     RDKit          3D

 36 37  0  0  0  0  0  0  0  0999 V2000
   -4.3008    0.5986    0.7326 C   0  0  0  0  0  0  0  0  0  0  0  0
   -2.9067    0.0074    0.5315 C   0  0  0  0  0  0  0  0  0  0  0  0
   -2.8558   -0.8295   -0.7537 C   0  0  0  0  0  0  0  0  0  0  0  0
   -1.4458   -1.3851   -0.9933 C   0  0  0  0  0  0  0  0  0  0  0  0
   -1.3853   -2.1421   -2.3196 C   0  0  0  0  0  0  0  0  0  0  0  0
   -0.4027   -0.2626   -0.9690 C   0  0  0  0  0  0  0  0  0  0  0  0
   -0.4949    0.5627    0.2600 N   0  0  0  0  0  0  0  0  0  0  0  0
    0.3292    0.0230    1.6470 S   0  0  0  0  0  6  0  0  0  0  0  0
    0.2144    1.0495    2.6615 O   0  0  0  0  0  0  0  0  0  0  0  0
   -0.0516   -1.3453    1.9145 O   0  0  0  0  0  0  0  0  0  0  0  0
    2.0663    0.0295    1.2418 C   0  0  0  0  0  0  0  0  0  0  0  0
    2.9411    1.0766    1.0164 C   0  0  0  0  0  0  0  0  0  0  0  0
    4.2816    0.6479    0.7045 C   0  0  0  0  0  0  0  0  0  0  0  0
    5.4047    1.5247    0.4255 C   0  0  0  0  0  0  0  0  0  0  0  0
    6.5492    1.1909    0.1617 O   0  0  0  0  0  0  0  0  0  0  0  0
    5.0921    2.8401    0.4716 O   0  0  0  0  0  0  0  0  0  0  0  0
    4.3330   -0.7290    0.7127 C   0  0  0  0  0  0  0  0  0  0  0  0
    5.6786   -1.7601    0.4025 Cl  0  0  0  0  0  0  0  0  0  0  0  0
    2.8530   -1.4749    1.0776 S   0  0  0  0  0  0  0  0  0  0  0  0
   -1.8533    1.1172    0.4825 C   0  0  0  0  0  0  0  0  0  0  0  0
   -4.3481    1.1714    1.6647 H   0  0  0  0  0  0  0  0  0  0  0  0
   -5.0542   -0.1942    0.7880 H   0  0  0  0  0  0  0  0  0  0  0  0
   -4.5732    1.2679   -0.0905 H   0  0  0  0  0  0  0  0  0  0  0  0
   -2.6956   -0.6515    1.3832 H   0  0  0  0  0  0  0  0  0  0  0  0
   -3.5725   -1.6574   -0.6857 H   0  0  0  0  0  0  0  0  0  0  0  0
   -3.1632   -0.2142   -1.6098 H   0  0  0  0  0  0  0  0  0  0  0  0
   -1.2227   -2.1032   -0.1958 H   0  0  0  0  0  0  0  0  0  0  0  0
   -1.6068   -1.4830   -3.1659 H   0  0  0  0  0  0  0  0  0  0  0  0
   -2.1099   -2.9631   -2.3313 H   0  0  0  0  0  0  0  0  0  0  0  0
   -0.3900   -2.5713   -2.4757 H   0  0  0  0  0  0  0  0  0  0  0  0
    0.6060   -0.6732   -1.0788 H   0  0  0  0  0  0  0  0  0  0  0  0
   -0.5441    0.4065   -1.8280 H   0  0  0  0  0  0  0  0  0  0  0  0
    2.6293    2.1143    1.0800 H   0  0  0  0  0  0  0  0  0  0  0  0
    5.9460    3.2778    0.2724 H   0  0  0  0  0  0  0  0  0  0  0  0
   -1.8779    1.7173    1.3986 H   0  0  0  0  0  0  0  0  0  0  0  0
   -2.0695    1.8170   -0.3354 H   0  0  0  0  0  0  0  0  0  0  0  0
  1  2  1  0
  2  3  1  0
  3  4  1  0
  4  5  1  0
  4  6  1  0
  6  7  1  0
  7  8  1  0
  8  9  2  0
  8 10  2  0
  8 11  1  0
 11 12  2  0
 12 13  1  0
 13 14  1  0
 14 15  2  0
 14 16  1  0
 13 17  2  0
 17 18  1  0
 17 19  1  0
  7 20  1  0
 20  2  1  0
 19 11  1  0
  1 21  1  0
  1 22  1  0
  1 23  1  0
  2 24  1  0
  3 25  1  0
  3 26  1  0
  4 27  1  0
  5 28  1  0
  5 29  1  0
  5 30  1  0
  6 31  1  0
  6 32  1  0
 12 33  1  0
 16 34  1  0
 20 35  1  0
 20 36  1  0
M  END
$$$$
