
     RDKit          3D

 61 64  0  0  0  0  0  0  0  0999 V2000
   -3.8967   -3.7910   -1.2650 C   0  0  0  0  0  0  0  0  0  0  0  0
   -4.4609   -2.4929   -1.4597 O   0  0  0  0  0  0  0  0  0  0  0  0
   -3.8094   -1.7404   -2.3909 C   0  0  0  0  0  0  0  0  0  0  0  0
   -2.8433   -2.1096   -3.0449 O   0  0  0  0  0  0  0  0  0  0  0  0
   -4.4760   -0.3943   -2.5351 C   0  0  0  0  0  0  0  0  0  0  0  0
   -3.4526    0.7300   -2.6807 C   0  0  0  0  0  0  0  0  0  0  0  0
   -2.8033    1.0819   -1.3661 C   0  0  0  0  0  0  0  0  0  0  0  0
   -1.5559    0.8156   -0.9126 C   0  0  0  0  0  0  0  0  0  0  0  0
   -0.6038    0.0728   -1.7624 C   0  0  0  0  0  0  0  0  0  0  0  0
    0.6806   -0.1228   -1.4034 C   0  0  0  0  0  0  0  0  0  0  0  0
    1.6970   -0.8198   -2.2552 C   0  0  0  0  0  0  0  0  0  0  0  0
    2.4709   -1.8041   -1.4003 C   0  0  0  0  0  0  0  0  0  0  0  0
    2.6367   -2.9671   -1.7836 O   0  0  0  0  0  0  0  0  0  0  0  0
    3.1026   -1.2764   -0.1047 C   0  0  0  0  0  0  0  0  0  0  0  0
    2.8180   -2.3179    0.9860 C   0  0  0  0  0  0  0  0  0  0  0  0
    4.4930   -1.1529   -0.4688 O   0  0  0  0  0  0  0  0  0  0  0  0
    5.4438   -1.0043    0.4937 C   0  0  0  0  0  0  0  0  0  0  0  0
    5.2330   -1.0805    1.6964 O   0  0  0  0  0  0  0  0  0  0  0  0
    6.7537   -0.7655   -0.0918 C   0  0  0  0  0  0  0  0  0  0  0  0
    7.9428   -0.5979    0.5973 C   0  0  0  0  0  0  0  0  0  0  0  0
    9.0557   -0.3782   -0.2644 C   0  0  0  0  0  0  0  0  0  0  0  0
    8.6855   -0.3812   -1.5882 C   0  0  0  0  0  0  0  0  0  0  0  0
    7.0084   -0.6480   -1.7836 S   0  0  0  0  0  0  0  0  0  0  0  0
    2.5330    0.0848    0.3192 C   0  0  0  0  0  0  0  0  0  0  0  0
    3.1540    0.9070    0.9879 O   0  0  0  0  0  0  0  0  0  0  0  0
    1.1466    0.3777   -0.1277 C   0  0  0  0  0  0  0  0  0  0  0  0
    0.2936    1.0299    0.6745 C   0  0  0  0  0  0  0  0  0  0  0  0
   -1.0506    1.2495    0.3492 N   0  0  0  0  0  0  0  0  0  0  0  0
   -1.8909    1.8124    1.3595 C   0  0  0  0  0  0  0  0  0  0  0  0
   -2.9642    1.0827    1.8949 C   0  0  0  0  0  0  0  0  0  0  0  0
   -3.7757    1.6254    2.8984 C   0  0  0  0  0  0  0  0  0  0  0  0
   -3.5227    2.9074    3.3853 C   0  0  0  0  0  0  0  0  0  0  0  0
   -4.2343    3.5548    4.3564 O   0  0  0  0  0  0  0  0  0  0  0  0
   -5.3070    2.8377    4.9557 C   0  0  0  0  0  0  0  0  0  0  0  0
   -2.4526    3.6373    2.8624 C   0  0  0  0  0  0  0  0  0  0  0  0
   -1.6393    3.0957    1.8637 C   0  0  0  0  0  0  0  0  0  0  0  0
   -2.8806   -3.7077   -0.8628 H   0  0  0  0  0  0  0  0  0  0  0  0
   -3.8993   -4.3585   -2.2015 H   0  0  0  0  0  0  0  0  0  0  0  0
   -4.5156   -4.3240   -0.5356 H   0  0  0  0  0  0  0  0  0  0  0  0
   -5.1282   -0.2051   -1.6741 H   0  0  0  0  0  0  0  0  0  0  0  0
   -5.1123   -0.4439   -3.4254 H   0  0  0  0  0  0  0  0  0  0  0  0
   -2.7229    0.4988   -3.4629 H   0  0  0  0  0  0  0  0  0  0  0  0
   -3.9749    1.6303   -3.0311 H   0  0  0  0  0  0  0  0  0  0  0  0
   -3.4635    1.6708   -0.7309 H   0  0  0  0  0  0  0  0  0  0  0  0
   -0.9414   -0.3117   -2.7190 H   0  0  0  0  0  0  0  0  0  0  0  0
    2.4053   -0.1047   -2.6881 H   0  0  0  0  0  0  0  0  0  0  0  0
    1.2208   -1.3661   -3.0773 H   0  0  0  0  0  0  0  0  0  0  0  0
    3.4612   -3.1973    0.8749 H   0  0  0  0  0  0  0  0  0  0  0  0
    1.7739   -2.6516    0.9541 H   0  0  0  0  0  0  0  0  0  0  0  0
    2.9795   -1.9134    1.9908 H   0  0  0  0  0  0  0  0  0  0  0  0
    8.0034   -0.6319    1.6789 H   0  0  0  0  0  0  0  0  0  0  0  0
   10.0739   -0.2236    0.0707 H   0  0  0  0  0  0  0  0  0  0  0  0
    9.3181   -0.2390   -2.4538 H   0  0  0  0  0  0  0  0  0  0  0  0
    0.5974    1.3865    1.6565 H   0  0  0  0  0  0  0  0  0  0  0  0
   -3.1634    0.0750    1.5375 H   0  0  0  0  0  0  0  0  0  0  0  0
   -4.5904    1.0182    3.2784 H   0  0  0  0  0  0  0  0  0  0  0  0
   -5.7540    3.4817    5.7189 H   0  0  0  0  0  0  0  0  0  0  0  0
   -6.0840    2.6039    4.2205 H   0  0  0  0  0  0  0  0  0  0  0  0
   -4.9475    1.9311    5.4542 H   0  0  0  0  0  0  0  0  0  0  0  0
   -2.2491    4.6379    3.2372 H   0  0  0  0  0  0  0  0  0  0  0  0
   -0.8162    3.6864    1.4684 H   0  0  0  0  0  0  0  0  0  0  0  0
  1  2  1  0
  2  3  1  0
  3  4  2  0
  3  5  1  0
  5  6  1  0
  6  7  1  0
  7  8  2  3
  8  9  1  0
  9 10  2  0
 10 11  1  0
 11 12  1  0
 12 13  2  0
 12 14  1  0
 14 15  1  0
 14 16  1  0
 16 17  1  0
 17 18  2  0
 17 19  1  0
 19 20  2  0
 20 21  1  0
 21 22  2  0
 22 23  1  0
 14 24  1  0
 24 25  2  0
 24 26  1  0
 26 27  2  0
 27 28  1  0
 28 29  1  0
 29 30  2  0
 30 31  1  0
 31 32  2  0
 32 33  1  0
 33 34  1  0
 32 35  1  0
 35 36  2  0
 28  8  1  0
 36 29  1  0
 26 10  1  0
 23 19  1  0
  1 37  1  0
  1 38  1  0
  1 39  1  0
  5 40  1  0
  5 41  1  0
  6 42  1  0
  6 43  1  0
  7 44  1  0
  9 45  1  0
 11 46  1  0
 11 47  1  0
 15 48  1  0
 15 49  1  0
 15 50  1  0
 20 51  1  0
 21 52  1  0
 22 53  1  0
 27 54  1  0
 30 55  1  0
 31 56  1  0
 34 57  1  0
 34 58  1  0
 34 59  1  0
 35 60  1  0
 36 61  1  0
M  END
$$$$
