
     RDKit          3D

 48 48  0  0  0  0  0  0  0  0999 V2000
    3.3144   -0.4560   -1.6569 C   0  0  0  0  0  0  0  0  0  0  0  0
    3.4560   -0.1691   -0.1571 C   0  0  0  0  0  0  0  0  0  0  0  0
    2.5267    0.9786    0.2698 C   0  0  0  0  0  0  0  0  0  0  0  0
    1.1239    0.6387    0.1264 N   0  0  0  0  0  0  0  0  0  0  0  0
    0.1565    1.6206    0.2190 C   0  0  0  0  0  0  0  0  0  0  0  0
    0.4135    2.8121    0.3471 O   0  0  0  0  0  0  0  0  0  0  0  0
   -1.2572    1.1533    0.2005 C   0  0  0  0  0  0  0  0  0  0  0  0
   -2.2274    1.9313    0.8351 C   0  0  0  0  0  0  0  0  0  0  0  0
   -3.5683    1.5276    0.8427 C   0  0  0  0  0  0  0  0  0  0  0  0
   -3.9770    0.3422    0.2091 C   0  0  0  0  0  0  0  0  0  0  0  0
   -5.4427   -0.1289    0.1956 C   0  0  0  0  0  0  0  0  0  0  0  0
   -5.9483   -0.2074   -1.2611 C   0  0  0  0  0  0  0  0  0  0  0  0
   -6.4060    0.8033    0.9648 C   0  0  0  0  0  0  0  0  0  0  0  0
   -5.5458   -1.5259    0.8452 C   0  0  0  0  0  0  0  0  0  0  0  0
   -2.9843   -0.4182   -0.4414 C   0  0  0  0  0  0  0  0  0  0  0  0
   -1.6423   -0.0200   -0.4510 C   0  0  0  0  0  0  0  0  0  0  0  0
    4.9114    0.2003    0.2140 C   0  0  0  0  0  0  0  0  0  0  0  0
    5.9105   -0.8273   -0.1320 N   0  0  0  0  0  0  0  0  0  0  0  0
    7.2631   -0.2796    0.0087 C   0  0  0  0  0  0  0  0  0  0  0  0
    5.7774   -2.0267    0.6972 C   0  0  0  0  0  0  0  0  0  0  0  0
    2.2815   -0.7120   -1.9149 H   0  0  0  0  0  0  0  0  0  0  0  0
    3.9405   -1.3012   -1.9602 H   0  0  0  0  0  0  0  0  0  0  0  0
    3.6057    0.4141   -2.2550 H   0  0  0  0  0  0  0  0  0  0  0  0
    3.1541   -1.0689    0.3927 H   0  0  0  0  0  0  0  0  0  0  0  0
    2.6827    1.2229    1.3273 H   0  0  0  0  0  0  0  0  0  0  0  0
    2.7321    1.8865   -0.3102 H   0  0  0  0  0  0  0  0  0  0  0  0
    0.8473   -0.3116    0.3339 H   0  0  0  0  0  0  0  0  0  0  0  0
   -1.9440    2.8585    1.3299 H   0  0  0  0  0  0  0  0  0  0  0  0
   -4.2773    2.1725    1.3551 H   0  0  0  0  0  0  0  0  0  0  0  0
   -5.8612    0.7643   -1.7617 H   0  0  0  0  0  0  0  0  0  0  0  0
   -5.3860   -0.9353   -1.8562 H   0  0  0  0  0  0  0  0  0  0  0  0
   -7.0018   -0.5085   -1.2981 H   0  0  0  0  0  0  0  0  0  0  0  0
   -7.4341    0.4231    0.9317 H   0  0  0  0  0  0  0  0  0  0  0  0
   -6.1275    0.8877    2.0217 H   0  0  0  0  0  0  0  0  0  0  0  0
   -6.4225    1.8112    0.5340 H   0  0  0  0  0  0  0  0  0  0  0  0
   -4.9781   -2.2831    0.2934 H   0  0  0  0  0  0  0  0  0  0  0  0
   -6.5862   -1.8695    0.8809 H   0  0  0  0  0  0  0  0  0  0  0  0
   -5.1636   -1.5121    1.8729 H   0  0  0  0  0  0  0  0  0  0  0  0
   -3.2479   -1.3357   -0.9644 H   0  0  0  0  0  0  0  0  0  0  0  0
   -0.9213   -0.6227   -0.9958 H   0  0  0  0  0  0  0  0  0  0  0  0
    5.1597    1.1275   -0.3209 H   0  0  0  0  0  0  0  0  0  0  0  0
    4.9706    0.4356    1.2855 H   0  0  0  0  0  0  0  0  0  0  0  0
    7.4011    0.5826   -0.6533 H   0  0  0  0  0  0  0  0  0  0  0  0
    8.0127   -1.0217   -0.2884 H   0  0  0  0  0  0  0  0  0  0  0  0
    7.4764    0.0353    1.0367 H   0  0  0  0  0  0  0  0  0  0  0  0
    5.8667   -1.8025    1.7662 H   0  0  0  0  0  0  0  0  0  0  0  0
    6.5482   -2.7613    0.4365 H   0  0  0  0  0  0  0  0  0  0  0  0
    4.8184   -2.5246    0.5248 H   0  0  0  0  0  0  0  0  0  0  0  0
  1  2  1  0
  2  3  1  0
  3  4  1  0
  4  5  1  0
  5  6  2  0
  5  7  1  0
  7  8  2  0
  8  9  1  0
  9 10  2  0
 10 11  1  0
 11 12  1  0
 11 13  1  0
 11 14  1  0
 10 15  1  0
 15 16  2  0
  2 17  1  0
 17 18  1  0
 18 19  1  0
 18 20  1  0
 16  7  1  0
  1 21  1  0
  1 22  1  0
  1 23  1  0
  2 24  1  0
  3 25  1  0
  3 26  1  0
  4 27  1  0
  8 28  1  0
  9 29  1  0
 12 30  1  0
 12 31  1  0
 12 32  1  0
 13 33  1  0
 13 34  1  0
 13 35  1  0
 14 36  1  0
 14 37  1  0
 14 38  1  0
 15 39  1  0
 16 40  1  0
 17 41  1  0
 17 42  1  0
 19 43  1  0
 19 44  1  0
 19 45  1  0
 20 46  1  0
 20 47  1  0
 20 48  1  0
M  END
$$$$
