
     RDKit          3D

 39 41  0  0  0  0  0  0  0  0999 V2000
   -0.8712   -2.2777   -1.3291 O   0  0  0  0  0  0  0  0  0  0  0  0
   -1.5193   -1.5592   -0.5703 C   0  0  0  0  0  0  0  0  0  0  0  0
   -3.0145   -1.3170   -0.7538 C   0  0  0  0  0  0  0  0  0  0  0  0
   -3.4406   -0.2502    0.0883 O   0  0  0  0  0  0  0  0  0  0  0  0
   -4.7687    0.0812    0.0865 C   0  0  0  0  0  0  0  0  0  0  0  0
   -5.7329   -0.5003   -0.7423 C   0  0  0  0  0  0  0  0  0  0  0  0
   -7.0674   -0.0857   -0.6678 C   0  0  0  0  0  0  0  0  0  0  0  0
   -7.4418    0.9099    0.2325 C   0  0  0  0  0  0  0  0  0  0  0  0
   -9.0850    1.4110    0.3149 Cl  0  0  0  0  0  0  0  0  0  0  0  0
   -6.4961    1.5004    1.0635 C   0  0  0  0  0  0  0  0  0  0  0  0
   -5.1651    1.0858    0.9881 C   0  0  0  0  0  0  0  0  0  0  0  0
   -4.0166    1.8404    2.0408 Cl  0  0  0  0  0  0  0  0  0  0  0  0
   -0.9782   -0.9260    0.5361 N   0  0  0  0  0  0  0  0  0  0  0  0
    0.4233   -0.8542    0.5987 N   0  0  0  0  0  0  0  0  0  0  0  0
    1.0711    0.1496   -0.0997 C   0  0  0  0  0  0  0  0  0  0  0  0
    0.5406    1.0600   -0.7226 O   0  0  0  0  0  0  0  0  0  0  0  0
    2.5412   -0.0294    0.0506 C   0  0  0  0  0  0  0  0  0  0  0  0
    3.4120    0.7912   -0.5523 C   0  0  0  0  0  0  0  0  0  0  0  0
    4.8725    0.6941   -0.4798 C   0  0  0  0  0  0  0  0  0  0  0  0
    5.5957    0.3517   -1.6286 C   0  0  0  0  0  0  0  0  0  0  0  0
    6.9897    0.2640   -1.5833 C   0  0  0  0  0  0  0  0  0  0  0  0
    7.6615    0.5244   -0.3906 C   0  0  0  0  0  0  0  0  0  0  0  0
    9.3775    0.4174   -0.3351 Cl  0  0  0  0  0  0  0  0  0  0  0  0
    6.9521    0.8739    0.7567 C   0  0  0  0  0  0  0  0  0  0  0  0
    5.5582    0.9616    0.7117 C   0  0  0  0  0  0  0  0  0  0  0  0
    2.8843   -1.3955    1.0473 S   0  0  0  0  0  0  0  0  0  0  0  0
    1.1807   -1.7805    1.2849 C   0  0  0  0  0  0  0  0  0  0  0  0
    0.6494   -3.0487    2.2292 S   0  0  0  0  0  0  0  0  0  0  0  0
   -3.1751   -1.0531   -1.8050 H   0  0  0  0  0  0  0  0  0  0  0  0
   -3.5311   -2.2469   -0.4910 H   0  0  0  0  0  0  0  0  0  0  0  0
   -5.4855   -1.2757   -1.4610 H   0  0  0  0  0  0  0  0  0  0  0  0
   -7.8100   -0.5442   -1.3174 H   0  0  0  0  0  0  0  0  0  0  0  0
   -6.7907    2.2766    1.7643 H   0  0  0  0  0  0  0  0  0  0  0  0
   -1.4799   -0.1081    0.8808 H   0  0  0  0  0  0  0  0  0  0  0  0
    3.0439    1.6023   -1.1796 H   0  0  0  0  0  0  0  0  0  0  0  0
    5.0816    0.1447   -2.5650 H   0  0  0  0  0  0  0  0  0  0  0  0
    7.5423   -0.0074   -2.4788 H   0  0  0  0  0  0  0  0  0  0  0  0
    7.4756    1.0794    1.6866 H   0  0  0  0  0  0  0  0  0  0  0  0
    5.0165    1.2406    1.6127 H   0  0  0  0  0  0  0  0  0  0  0  0
  1  2  2  0
  2  3  1  0
  3  4  1  0
  4  5  1  0
  5  6  2  0
  6  7  1  0
  7  8  2  0
  8  9  1  0
  8 10  1  0
 10 11  2  0
 11 12  1  0
  2 13  1  0
 13 14  1  0
 14 15  1  0
 15 16  2  0
 15 17  1  0
 17 18  2  3
 18 19  1  0
 19 20  2  0
 20 21  1  0
 21 22  2  0
 22 23  1  0
 22 24  1  0
 24 25  2  0
 17 26  1  0
 26 27  1  0
 27 28  2  0
 11  5  1  0
 27 14  1  0
 25 19  1  0
  3 29  1  0
  3 30  1  0
  6 31  1  0
  7 32  1  0
 10 33  1  0
 13 34  1  0
 18 35  1  0
 20 36  1  0
 21 37  1  0
 24 38  1  0
 25 39  1  0
M  END
$$$$
