
     RDKit          3D

 51 54  0  0  0  0  0  0  0  0999 V2000
   -1.4704    3.3090    2.3268 O   0  0  0  0  0  0  0  0  0  0  0  0
   -1.1199    2.3063    1.7042 C   0  0  0  0  0  0  0  0  0  0  0  0
    0.2542    1.7997    1.7918 C   0  0  0  0  0  0  0  0  0  0  0  0
    1.1236    1.4365    0.7284 C   0  0  0  0  0  0  0  0  0  0  0  0
    2.2881    1.0489    1.3442 C   0  0  0  0  0  0  0  0  0  0  0  0
    3.6059    0.5673    0.8707 C   0  0  0  0  0  0  0  0  0  0  0  0
    3.3580   -0.2627   -0.2638 O   0  0  0  0  0  0  0  0  0  0  0  0
    4.4433   -0.8285   -0.8735 C   0  0  0  0  0  0  0  0  0  0  0  0
    4.1341   -1.6712   -1.9454 C   0  0  0  0  0  0  0  0  0  0  0  0
    5.1434   -2.3169   -2.6597 C   0  0  0  0  0  0  0  0  0  0  0  0
    6.4765   -2.1210   -2.3076 C   0  0  0  0  0  0  0  0  0  0  0  0
    6.8094   -1.2706   -1.2418 C   0  0  0  0  0  0  0  0  0  0  0  0
    8.2496   -1.0570   -0.8460 C   0  0  0  0  0  0  0  0  0  0  0  0
    8.6094   -1.8165    0.2255 F   0  0  0  0  0  0  0  0  0  0  0  0
    9.1347   -1.3585   -1.8359 F   0  0  0  0  0  0  0  0  0  0  0  0
    8.5102    0.2343   -0.4934 F   0  0  0  0  0  0  0  0  0  0  0  0
    5.7798   -0.6332   -0.5223 C   0  0  0  0  0  0  0  0  0  0  0  0
    2.1420    1.1842    2.6888 O   0  0  0  0  0  0  0  0  0  0  0  0
    0.8772    1.6622    2.9740 N   0  0  0  0  0  0  0  0  0  0  0  0
   -1.9988    1.6342    0.8257 N   0  0  0  0  0  0  0  0  0  0  0  0
   -3.3278    2.2189    0.6807 C   0  0  0  0  0  0  0  0  0  0  0  0
   -3.9770    1.7986   -0.6333 C   0  0  0  0  0  0  0  0  0  0  0  0
   -4.0489    0.2651   -0.7871 C   0  0  0  0  0  0  0  0  0  0  0  0
   -5.1848   -0.3566    0.0193 C   0  0  0  0  0  0  0  0  0  0  0  0
   -5.0085   -1.3608    0.9756 C   0  0  0  0  0  0  0  0  0  0  0  0
   -6.1187   -1.8720    1.6395 C   0  0  0  0  0  0  0  0  0  0  0  0
   -7.3844   -1.4696    1.4153 N   0  0  0  0  0  0  0  0  0  0  0  0
   -7.5496   -0.5169    0.4782 C   0  0  0  0  0  0  0  0  0  0  0  0
   -6.5035    0.0526   -0.2351 C   0  0  0  0  0  0  0  0  0  0  0  0
   -2.6369   -0.3177   -0.5747 C   0  0  0  0  0  0  0  0  0  0  0  0
   -1.9534    0.1776    0.7009 C   0  0  0  0  0  0  0  0  0  0  0  0
    0.9242    1.4602   -0.3324 H   0  0  0  0  0  0  0  0  0  0  0  0
    4.2194    1.4306    0.5880 H   0  0  0  0  0  0  0  0  0  0  0  0
    4.1019   -0.0087    1.6607 H   0  0  0  0  0  0  0  0  0  0  0  0
    3.0953   -1.8286   -2.2264 H   0  0  0  0  0  0  0  0  0  0  0  0
    4.8876   -2.9738   -3.4887 H   0  0  0  0  0  0  0  0  0  0  0  0
    7.2572   -2.6306   -2.8711 H   0  0  0  0  0  0  0  0  0  0  0  0
    6.0603    0.0143    0.3044 H   0  0  0  0  0  0  0  0  0  0  0  0
   -3.2539    3.3123    0.7038 H   0  0  0  0  0  0  0  0  0  0  0  0
   -3.9327    1.9132    1.5426 H   0  0  0  0  0  0  0  0  0  0  0  0
   -3.3735    2.1985   -1.4603 H   0  0  0  0  0  0  0  0  0  0  0  0
   -4.9621    2.2689   -0.7203 H   0  0  0  0  0  0  0  0  0  0  0  0
   -4.3060    0.0533   -1.8362 H   0  0  0  0  0  0  0  0  0  0  0  0
   -4.0383   -1.7728    1.2213 H   0  0  0  0  0  0  0  0  0  0  0  0
   -6.0089   -2.6490    2.3911 H   0  0  0  0  0  0  0  0  0  0  0  0
   -8.5771   -0.2129    0.3030 H   0  0  0  0  0  0  0  0  0  0  0  0
   -6.7280    0.8022   -0.9876 H   0  0  0  0  0  0  0  0  0  0  0  0
   -2.0154   -0.0052   -1.4256 H   0  0  0  0  0  0  0  0  0  0  0  0
   -2.6492   -1.4135   -0.5968 H   0  0  0  0  0  0  0  0  0  0  0  0
   -0.9265   -0.1930    0.7136 H   0  0  0  0  0  0  0  0  0  0  0  0
   -2.4308   -0.2309    1.5980 H   0  0  0  0  0  0  0  0  0  0  0  0
  1  2  2  0
  2  3  1  0
  3  4  1  0
  4  5  2  0
  5  6  1  0
  6  7  1  0
  7  8  1  0
  8  9  2  0
  9 10  1  0
 10 11  2  0
 11 12  1  0
 12 13  1  0
 13 14  1  0
 13 15  1  0
 13 16  1  0
 12 17  2  0
  5 18  1  0
 18 19  1  0
  2 20  1  0
 20 21  1  0
 21 22  1  0
 22 23  1  0
 23 24  1  0
 24 25  2  0
 25 26  1  0
 26 27  2  0
 27 28  1  0
 28 29  2  0
 23 30  1  0
 30 31  1  0
 19  3  2  0
 31 20  1  0
 17  8  1  0
 29 24  1  0
  4 32  1  0
  6 33  1  0
  6 34  1  0
  9 35  1  0
 10 36  1  0
 11 37  1  0
 17 38  1  0
 21 39  1  0
 21 40  1  0
 22 41  1  0
 22 42  1  0
 23 43  1  0
 25 44  1  0
 26 45  1  0
 28 46  1  0
 29 47  1  0
 30 48  1  0
 30 49  1  0
 31 50  1  0
 31 51  1  0
M  END
$$$$
