
     RDKit          3D

 60 64  0  0  0  0  0  0  0  0999 V2000
   -6.1222   -2.7599   -0.1400 C   0  0  0  0  0  0  0  0  0  0  0  0
   -5.1174   -2.8937    0.9999 C   0  0  0  0  0  0  0  0  0  0  0  0
   -3.7140   -2.3592    0.6775 C   0  0  0  0  0  0  0  0  0  0  0  0
   -3.1791   -3.0416   -0.4930 N   0  0  0  0  0  0  0  0  0  0  0  0
   -1.9193   -2.5724   -0.8677 C   0  0  0  0  0  0  0  0  0  0  0  0
   -1.1364   -3.4977   -1.4411 N   0  0  0  0  0  0  0  0  0  0  0  0
    0.0375   -3.0630   -1.8953 C   0  0  0  0  0  0  0  0  0  0  0  0
    0.5040   -1.8157   -1.7942 N   0  0  0  0  0  0  0  0  0  0  0  0
   -0.2821   -0.9028   -1.1789 C   0  0  0  0  0  0  0  0  0  0  0  0
    0.3015    0.3608   -0.9389 N   0  0  0  0  0  0  0  0  0  0  0  0
    1.1060    0.2832    0.3179 C   0  0  0  0  0  0  0  0  0  0  0  0
    2.1856    1.3837    0.3634 C   0  0  0  0  0  0  0  0  0  0  0  0
    3.1678    1.2282   -0.7357 N   0  0  0  0  0  0  0  0  0  0  0  0
    4.4579    0.7601   -0.4480 C   0  0  0  0  0  0  0  0  0  0  0  0
    5.5101    1.0822   -1.3218 C   0  0  0  0  0  0  0  0  0  0  0  0
    6.8167    0.6404   -1.0931 C   0  0  0  0  0  0  0  0  0  0  0  0
    7.0990   -0.1419    0.0210 C   0  0  0  0  0  0  0  0  0  0  0  0
    6.0751   -0.4780    0.9005 C   0  0  0  0  0  0  0  0  0  0  0  0
    4.7692   -0.0298    0.6670 C   0  0  0  0  0  0  0  0  0  0  0  0
    2.6080    0.6170   -1.9744 C   0  0  0  0  0  0  0  0  0  0  0  0
    1.0873    0.8622   -2.1006 C   0  0  0  0  0  0  0  0  0  0  0  0
   -1.5645   -1.2246   -0.7072 C   0  0  0  0  0  0  0  0  0  0  0  0
   -2.5224   -0.3191   -0.1118 N   0  0  0  0  0  0  0  0  0  0  0  0
   -2.4663    1.1214   -0.3593 C   0  0  0  0  0  0  0  0  0  0  0  0
   -1.8751    1.9725    0.7493 C   0  0  0  0  0  0  0  0  0  0  0  0
   -2.0555    1.6838    2.1098 C   0  0  0  0  0  0  0  0  0  0  0  0
   -1.5219    2.5181    3.0958 C   0  0  0  0  0  0  0  0  0  0  0  0
   -0.8154    3.6632    2.7375 C   0  0  0  0  0  0  0  0  0  0  0  0
   -0.6500    3.9811    1.3929 C   0  0  0  0  0  0  0  0  0  0  0  0
   -1.1820    3.1465    0.4076 C   0  0  0  0  0  0  0  0  0  0  0  0
   -3.6887   -0.8275    0.4827 C   0  0  0  0  0  0  0  0  0  0  0  0
   -4.5946   -0.1068    0.9064 O   0  0  0  0  0  0  0  0  0  0  0  0
   -5.8113   -3.3355   -1.0172 H   0  0  0  0  0  0  0  0  0  0  0  0
   -7.0977   -3.1422    0.1777 H   0  0  0  0  0  0  0  0  0  0  0  0
   -6.2552   -1.7173   -0.4422 H   0  0  0  0  0  0  0  0  0  0  0  0
   -5.5152   -2.3763    1.8815 H   0  0  0  0  0  0  0  0  0  0  0  0
   -5.0430   -3.9556    1.2664 H   0  0  0  0  0  0  0  0  0  0  0  0
   -3.0750   -2.5706    1.5468 H   0  0  0  0  0  0  0  0  0  0  0  0
   -3.1606   -4.0564   -0.4792 H   0  0  0  0  0  0  0  0  0  0  0  0
    0.6767   -3.7892   -2.3852 H   0  0  0  0  0  0  0  0  0  0  0  0
    0.4436    0.3893    1.1821 H   0  0  0  0  0  0  0  0  0  0  0  0
    1.6035   -0.6923    0.4125 H   0  0  0  0  0  0  0  0  0  0  0  0
    2.6606    1.4197    1.3497 H   0  0  0  0  0  0  0  0  0  0  0  0
    1.7101    2.3626    0.2329 H   0  0  0  0  0  0  0  0  0  0  0  0
    5.3159    1.7112   -2.1871 H   0  0  0  0  0  0  0  0  0  0  0  0
    7.6094    0.9152   -1.7830 H   0  0  0  0  0  0  0  0  0  0  0  0
    8.1126   -0.4874    0.2036 H   0  0  0  0  0  0  0  0  0  0  0  0
    6.2873   -1.0934    1.7707 H   0  0  0  0  0  0  0  0  0  0  0  0
    3.9998   -0.3379    1.3669 H   0  0  0  0  0  0  0  0  0  0  0  0
    3.0996    1.0532   -2.8518 H   0  0  0  0  0  0  0  0  0  0  0  0
    2.8043   -0.4628   -1.9826 H   0  0  0  0  0  0  0  0  0  0  0  0
    0.9154    1.9452   -2.1539 H   0  0  0  0  0  0  0  0  0  0  0  0
    0.7131    0.4579   -3.0500 H   0  0  0  0  0  0  0  0  0  0  0  0
   -1.9662    1.3073   -1.3163 H   0  0  0  0  0  0  0  0  0  0  0  0
   -3.4909    1.4858   -0.5150 H   0  0  0  0  0  0  0  0  0  0  0  0
   -2.6233    0.8126    2.4231 H   0  0  0  0  0  0  0  0  0  0  0  0
   -1.6716    2.2785    4.1455 H   0  0  0  0  0  0  0  0  0  0  0  0
   -0.4069    4.3142    3.5058 H   0  0  0  0  0  0  0  0  0  0  0  0
   -0.1100    4.8805    1.1084 H   0  0  0  0  0  0  0  0  0  0  0  0
   -1.0436    3.4133   -0.6383 H   0  0  0  0  0  0  0  0  0  0  0  0
  1  2  1  0
  2  3  1  0
  3  4  1  0
  4  5  1  0
  5  6  2  0
  6  7  1  0
  7  8  2  0
  8  9  1  0
  9 10  1  0
 10 11  1  0
 11 12  1  0
 12 13  1  0
 13 14  1  0
 14 15  2  0
 15 16  1  0
 16 17  2  0
 17 18  1  0
 18 19  2  0
 13 20  1  0
 20 21  1  0
  9 22  2  0
 22 23  1  0
 23 24  1  0
 24 25  1  0
 25 26  2  0
 26 27  1  0
 27 28  2  0
 28 29  1  0
 29 30  2  0
 23 31  1  0
 31 32  2  0
 31  3  1  0
 22  5  1  0
 30 25  1  0
 21 10  1  0
 19 14  1  0
  1 33  1  0
  1 34  1  0
  1 35  1  0
  2 36  1  0
  2 37  1  0
  3 38  1  0
  4 39  1  0
  7 40  1  0
 11 41  1  0
 11 42  1  0
 12 43  1  0
 12 44  1  0
 15 45  1  0
 16 46  1  0
 17 47  1  0
 18 48  1  0
 19 49  1  0
 20 50  1  0
 20 51  1  0
 21 52  1  0
 21 53  1  0
 24 54  1  0
 24 55  1  0
 26 56  1  0
 27 57  1  0
 28 58  1  0
 29 59  1  0
 30 60  1  0
M  END
$$$$
