
     RDKit          3D

 58 62  0  0  0  0  0  0  0  0999 V2000
    2.4942    0.7568    4.4326 C   0  0  0  0  0  0  0  0  0  0  0  0
    2.8188    0.5171    3.0628 O   0  0  0  0  0  0  0  0  0  0  0  0
    3.7916   -0.4255    2.8855 C   0  0  0  0  0  0  0  0  0  0  0  0
    4.4182   -0.9813    3.7836 O   0  0  0  0  0  0  0  0  0  0  0  0
    4.0320   -0.6434    1.4348 C   0  0  0  0  0  0  0  0  0  0  0  0
    5.2022   -1.2207    1.1114 C   0  0  0  0  0  0  0  0  0  0  0  0
    5.6687   -1.4369   -0.1586 O   0  0  0  0  0  0  0  0  0  0  0  0
    4.9832   -0.6959   -1.1872 C   0  0  0  0  0  0  0  0  0  0  0  0
    5.4566   -1.2615   -2.5242 C   0  0  0  0  0  0  0  0  0  0  0  0
    3.4658   -0.8036   -0.9993 C   0  0  0  0  0  0  0  0  0  0  0  0
    2.6454   -0.1373   -2.1174 C   0  0  0  0  0  0  0  0  0  0  0  0
    1.2929    0.2327   -1.6755 N   0  0  0  0  0  0  0  0  0  0  0  0
    0.3816    0.4483   -2.8219 C   0  0  0  0  0  0  0  0  0  0  0  0
   -0.9562    1.0963   -2.3849 C   0  0  0  0  0  0  0  0  0  0  0  0
   -1.5065    0.3705   -1.2041 C   0  0  0  0  0  0  0  0  0  0  0  0
   -0.6989   -0.4482   -0.4385 C   0  0  0  0  0  0  0  0  0  0  0  0
   -1.4750   -1.0145    0.5329 N   0  0  0  0  0  0  0  0  0  0  0  0
   -2.7658   -0.5370    0.4373 C   0  0  0  0  0  0  0  0  0  0  0  0
   -3.8885   -0.8187    1.2213 C   0  0  0  0  0  0  0  0  0  0  0  0
   -5.0811   -0.1623    0.8915 C   0  0  0  0  0  0  0  0  0  0  0  0
   -6.2021   -0.4347    1.6425 O   0  0  0  0  0  0  0  0  0  0  0  0
   -6.1884    0.3476    2.8317 C   0  0  0  0  0  0  0  0  0  0  0  0
   -5.1770    0.7057   -0.2051 C   0  0  0  0  0  0  0  0  0  0  0  0
   -6.4131    1.2586   -0.4284 O   0  0  0  0  0  0  0  0  0  0  0  0
   -6.5679    2.0536   -1.5955 C   0  0  0  0  0  0  0  0  0  0  0  0
   -4.0359    0.9659   -0.9741 C   0  0  0  0  0  0  0  0  0  0  0  0
   -2.8131    0.3394   -0.6494 C   0  0  0  0  0  0  0  0  0  0  0  0
    0.7553   -0.7208   -0.6767 C   0  0  0  0  0  0  0  0  0  0  0  0
    1.5775   -0.6025    0.6266 C   0  0  0  0  0  0  0  0  0  0  0  0
    3.0555   -0.2158    0.3688 C   0  0  0  0  0  0  0  0  0  0  0  0
    2.3015   -0.1929    4.9595 H   0  0  0  0  0  0  0  0  0  0  0  0
    3.3071    1.3138    4.9193 H   0  0  0  0  0  0  0  0  0  0  0  0
    1.5773    1.3575    4.4622 H   0  0  0  0  0  0  0  0  0  0  0  0
    5.9201   -1.5906    1.8355 H   0  0  0  0  0  0  0  0  0  0  0  0
    5.3125    0.3498   -1.1194 H   0  0  0  0  0  0  0  0  0  0  0  0
    5.0906   -2.2845   -2.6663 H   0  0  0  0  0  0  0  0  0  0  0  0
    6.5503   -1.3109   -2.5552 H   0  0  0  0  0  0  0  0  0  0  0  0
    5.1162   -0.6487   -3.3632 H   0  0  0  0  0  0  0  0  0  0  0  0
    3.2181   -1.8776   -0.9840 H   0  0  0  0  0  0  0  0  0  0  0  0
    3.1499    0.7749   -2.4610 H   0  0  0  0  0  0  0  0  0  0  0  0
    2.6039   -0.8283   -2.9698 H   0  0  0  0  0  0  0  0  0  0  0  0
    0.8535    1.0996   -3.5657 H   0  0  0  0  0  0  0  0  0  0  0  0
    0.1778   -0.5119   -3.3145 H   0  0  0  0  0  0  0  0  0  0  0  0
   -0.7853    2.1445   -2.1108 H   0  0  0  0  0  0  0  0  0  0  0  0
   -1.6663    1.0673   -3.2199 H   0  0  0  0  0  0  0  0  0  0  0  0
   -1.1609   -1.6783    1.2274 H   0  0  0  0  0  0  0  0  0  0  0  0
   -3.8464   -1.5139    2.0518 H   0  0  0  0  0  0  0  0  0  0  0  0
   -5.4904   -0.0872    3.5600 H   0  0  0  0  0  0  0  0  0  0  0  0
   -7.1947    0.3181    3.2665 H   0  0  0  0  0  0  0  0  0  0  0  0
   -5.9391    1.3989    2.6336 H   0  0  0  0  0  0  0  0  0  0  0  0
   -5.9863    2.9779   -1.5121 H   0  0  0  0  0  0  0  0  0  0  0  0
   -7.6253    2.3331   -1.6765 H   0  0  0  0  0  0  0  0  0  0  0  0
   -6.3032    1.4921   -2.4999 H   0  0  0  0  0  0  0  0  0  0  0  0
   -4.0523    1.6466   -1.8140 H   0  0  0  0  0  0  0  0  0  0  0  0
    0.8358   -1.7432   -1.0706 H   0  0  0  0  0  0  0  0  0  0  0  0
    1.5259   -1.5658    1.1595 H   0  0  0  0  0  0  0  0  0  0  0  0
    1.1256    0.1462    1.2944 H   0  0  0  0  0  0  0  0  0  0  0  0
    3.1140    0.8815    0.3104 H   0  0  0  0  0  0  0  0  0  0  0  0
  1  2  1  0
  2  3  1  0
  3  4  2  0
  3  5  1  0
  5  6  2  0
  6  7  1  0
  7  8  1  0
  8  9  1  0
  8 10  1  0
 10 11  1  0
 11 12  1  0
 12 13  1  0
 13 14  1  0
 14 15  1  0
 15 16  2  0
 16 17  1  0
 17 18  1  0
 18 19  2  0
 19 20  1  0
 20 21  1  0
 21 22  1  0
 20 23  2  0
 23 24  1  0
 24 25  1  0
 23 26  1  0
 26 27  2  0
 16 28  1  0
 28 29  1  0
 29 30  1  0
 30  5  1  0
 30 10  1  0
 28 12  1  0
 27 15  1  0
 27 18  1  0
  1 31  1  0
  1 32  1  0
  1 33  1  0
  6 34  1  0
  8 35  1  0
  9 36  1  0
  9 37  1  0
  9 38  1  0
 10 39  1  0
 11 40  1  0
 11 41  1  0
 13 42  1  0
 13 43  1  0
 14 44  1  0
 14 45  1  0
 17 46  1  0
 19 47  1  0
 22 48  1  0
 22 49  1  0
 22 50  1  0
 25 51  1  0
 25 52  1  0
 25 53  1  0
 26 54  1  0
 28 55  1  0
 29 56  1  0
 29 57  1  0
 30 58  1  0
M  END
$$$$
