
     RDKit          3D

 40 42  0  0  0  0  0  0  0  0999 V2000
    2.6878    2.7526    2.7615 C   0  0  0  0  0  0  0  0  0  0  0  0
    1.9370    3.6390    1.7824 C   0  0  0  0  0  0  0  0  0  0  0  0
    0.1367    3.3488    1.8493 S   0  0  0  0  0  0  0  0  0  0  0  0
   -0.0151    1.8029    0.9630 C   0  0  0  0  0  0  0  0  0  0  0  0
   -1.2142    1.1263    1.0269 C   0  0  0  0  0  0  0  0  0  0  0  0
   -1.3185   -0.0569    0.3240 C   0  0  0  0  0  0  0  0  0  0  0  0
   -2.4863   -0.8103    0.3545 N   0  0  0  0  0  0  0  0  0  0  0  0
   -3.7946   -0.1323    0.3101 C   0  0  0  0  0  0  0  0  0  0  0  0
   -4.6928   -0.7457   -0.7782 C   0  0  0  0  0  0  0  0  0  0  0  0
   -4.9130   -2.1536   -0.6206 O   0  0  0  0  0  0  0  0  0  0  0  0
   -3.7772   -2.8512   -0.0848 C   0  0  0  0  0  0  0  0  0  0  0  0
   -2.4402   -2.1267   -0.3034 C   0  0  0  0  0  0  0  0  0  0  0  0
   -0.2671   -0.5264   -0.3679 N   0  0  0  0  0  0  0  0  0  0  0  0
    0.8669    0.1980   -0.3862 C   0  0  0  0  0  0  0  0  0  0  0  0
    2.0091   -0.3300   -1.1625 C   0  0  0  0  0  0  0  0  0  0  0  0
    3.2396    0.3560   -1.2219 C   0  0  0  0  0  0  0  0  0  0  0  0
    4.3230   -0.1423   -1.9555 C   0  0  0  0  0  0  0  0  0  0  0  0
    4.1952   -1.3418   -2.6478 C   0  0  0  0  0  0  0  0  0  0  0  0
    5.5235   -1.9562   -3.5509 Cl  0  0  0  0  0  0  0  0  0  0  0  0
    2.9960   -2.0453   -2.6121 C   0  0  0  0  0  0  0  0  0  0  0  0
    1.9164   -1.5423   -1.8762 C   0  0  0  0  0  0  0  0  0  0  0  0
    1.0319    1.3644    0.2532 N   0  0  0  0  0  0  0  0  0  0  0  0
    3.7572    2.9864    2.7271 H   0  0  0  0  0  0  0  0  0  0  0  0
    2.3480    2.9164    3.7898 H   0  0  0  0  0  0  0  0  0  0  0  0
    2.5771    1.6899    2.5259 H   0  0  0  0  0  0  0  0  0  0  0  0
    2.1038    4.6863    2.0557 H   0  0  0  0  0  0  0  0  0  0  0  0
    2.3158    3.5154    0.7632 H   0  0  0  0  0  0  0  0  0  0  0  0
   -2.0302    1.5010    1.6298 H   0  0  0  0  0  0  0  0  0  0  0  0
   -3.7048    0.9413    0.1096 H   0  0  0  0  0  0  0  0  0  0  0  0
   -4.2711   -0.2577    1.2894 H   0  0  0  0  0  0  0  0  0  0  0  0
   -5.6730   -0.2583   -0.7724 H   0  0  0  0  0  0  0  0  0  0  0  0
   -4.2559   -0.5835   -1.7707 H   0  0  0  0  0  0  0  0  0  0  0  0
   -3.7511   -3.8416   -0.5499 H   0  0  0  0  0  0  0  0  0  0  0  0
   -3.9593   -2.9965    0.9866 H   0  0  0  0  0  0  0  0  0  0  0  0
   -2.2635   -2.0041   -1.3796 H   0  0  0  0  0  0  0  0  0  0  0  0
   -1.6347   -2.7389    0.1194 H   0  0  0  0  0  0  0  0  0  0  0  0
    3.3640    1.2977   -0.6887 H   0  0  0  0  0  0  0  0  0  0  0  0
    5.2568    0.4129   -1.9799 H   0  0  0  0  0  0  0  0  0  0  0  0
    2.8896   -2.9831   -3.1504 H   0  0  0  0  0  0  0  0  0  0  0  0
    0.9872   -2.1108   -1.8632 H   0  0  0  0  0  0  0  0  0  0  0  0
  1  2  1  0
  2  3  1  0
  3  4  1  0
  4  5  2  0
  5  6  1  0
  6  7  1  0
  7  8  1  0
  8  9  1  0
  9 10  1  0
 10 11  1  0
 11 12  1  0
  6 13  2  0
 13 14  1  0
 14 15  1  0
 15 16  2  0
 16 17  1  0
 17 18  2  0
 18 19  1  0
 18 20  1  0
 20 21  2  0
 14 22  2  0
 22  4  1  0
 12  7  1  0
 21 15  1  0
  1 23  1  0
  1 24  1  0
  1 25  1  0
  2 26  1  0
  2 27  1  0
  5 28  1  0
  8 29  1  0
  8 30  1  0
  9 31  1  0
  9 32  1  0
 11 33  1  0
 11 34  1  0
 12 35  1  0
 12 36  1  0
 16 37  1  0
 17 38  1  0
 20 39  1  0
 21 40  1  0
M  END
$$$$
