
     RDKit          3D

 68 73  0  0  0  0  0  0  0  0999 V2000
   -4.4585    4.8597   -2.2014 C   0  0  0  0  0  0  0  0  0  0  0  0
   -3.4728    3.9201   -1.7925 O   0  0  0  0  0  0  0  0  0  0  0  0
   -3.4311    3.5972   -0.4634 C   0  0  0  0  0  0  0  0  0  0  0  0
   -4.2625    4.1300    0.5359 C   0  0  0  0  0  0  0  0  0  0  0  0
   -4.1440    3.7063    1.8631 C   0  0  0  0  0  0  0  0  0  0  0  0
   -3.1786    2.7639    2.1528 C   0  0  0  0  0  0  0  0  0  0  0  0
   -2.3166    2.2376    1.1876 C   0  0  0  0  0  0  0  0  0  0  0  0
   -2.4580    2.6427   -0.1343 C   0  0  0  0  0  0  0  0  0  0  0  0
   -1.3990    1.2327    1.8386 C   0  0  1  0  0  0  0  0  0  0  0  0
   -1.9464    1.2171    3.3166 C   0  0  0  0  0  0  0  0  0  0  0  0
   -1.5931    0.5249    4.2601 O   0  0  0  0  0  0  0  0  0  0  0  0
   -2.9552    2.1757    3.3862 N   0  0  0  0  0  0  0  0  0  0  0  0
   -1.5264   -0.0900    1.1814 C   0  0  0  0  0  0  0  0  0  0  0  0
   -0.2932   -0.7495    1.2308 C   0  0  0  0  0  0  0  0  0  0  0  0
   -0.4324   -1.9926    0.6821 C   0  0  0  0  0  0  0  0  0  0  0  0
    0.4484   -2.9921    0.6826 O   0  0  0  0  0  0  0  0  0  0  0  0
   -1.7419   -2.0725    0.1649 N   0  0  0  0  0  0  0  0  0  0  0  0
   -2.2621   -3.1427   -0.6304 C   0  0  0  0  0  0  0  0  0  0  0  0
   -3.6149   -3.4967   -0.5588 C   0  0  0  0  0  0  0  0  0  0  0  0
   -4.1093   -4.5484   -1.3350 C   0  0  0  0  0  0  0  0  0  0  0  0
   -3.2621   -5.2454   -2.1940 C   0  0  0  0  0  0  0  0  0  0  0  0
   -1.9185   -4.8890   -2.2842 C   0  0  0  0  0  0  0  0  0  0  0  0
   -1.4178   -3.8408   -1.5082 C   0  0  0  0  0  0  0  0  0  0  0  0
   -2.4334   -0.9055    0.5519 C   0  0  0  0  0  0  0  0  0  0  0  0
   -3.7124   -0.6968    0.2472 O   0  0  0  0  0  0  0  0  0  0  0  0
    0.7135    0.0605    1.9693 C   0  0  1  0  0  0  0  0  0  0  0  0
    2.1869   -0.1119    1.5424 C   0  0  0  0  0  0  0  0  0  0  0  0
    2.6431    0.7990    0.4936 N   0  0  0  0  0  0  0  0  0  0  0  0
    3.8092    0.5722   -0.2168 C   0  0  0  0  0  0  0  0  0  0  0  0
    4.3353    1.4103   -0.9382 O   0  0  0  0  0  0  0  0  0  0  0  0
    4.2978   -0.6777   -0.0137 O   0  0  0  0  0  0  0  0  0  0  0  0
    5.5171   -1.1236   -0.6589 C   0  0  0  0  0  0  0  0  0  0  0  0
    5.3727   -1.1344   -2.1847 C   0  0  0  0  0  0  0  0  0  0  0  0
    5.7047   -2.5700   -0.1750 C   0  0  0  0  0  0  0  0  0  0  0  0
    6.7226   -0.2948   -0.2014 C   0  0  0  0  0  0  0  0  0  0  0  0
    2.1367    2.1584    0.5834 C   0  0  0  0  0  0  0  0  0  0  0  0
    0.6098    2.1644    0.6936 C   0  0  0  0  0  0  0  0  0  0  0  0
    0.1032    1.4615    1.8914 N   0  0  0  0  0  0  0  0  0  0  0  0
   -5.4677    4.4861   -1.9993 H   0  0  0  0  0  0  0  0  0  0  0  0
   -4.2947    5.8338   -1.7294 H   0  0  0  0  0  0  0  0  0  0  0  0
   -4.3639    4.9940   -3.2834 H   0  0  0  0  0  0  0  0  0  0  0  0
   -5.0213    4.8716    0.3053 H   0  0  0  0  0  0  0  0  0  0  0  0
   -4.8003    4.1030    2.6299 H   0  0  0  0  0  0  0  0  0  0  0  0
   -1.8403    2.2206   -0.9220 H   0  0  0  0  0  0  0  0  0  0  0  0
   -3.4636    2.3615    4.2376 H   0  0  0  0  0  0  0  0  0  0  0  0
   -0.0339   -3.8310    0.5682 H   0  0  0  0  0  0  0  0  0  0  0  0
   -4.2996   -2.9921    0.1177 H   0  0  0  0  0  0  0  0  0  0  0  0
   -5.1591   -4.8230   -1.2658 H   0  0  0  0  0  0  0  0  0  0  0  0
   -3.6518   -6.0590   -2.8001 H   0  0  0  0  0  0  0  0  0  0  0  0
   -1.2624   -5.4172   -2.9717 H   0  0  0  0  0  0  0  0  0  0  0  0
   -0.3777   -3.5516   -1.6462 H   0  0  0  0  0  0  0  0  0  0  0  0
   -3.9481    0.2090    0.5145 H   0  0  0  0  0  0  0  0  0  0  0  0
    0.6584   -0.2565    3.0205 H   0  0  0  0  0  0  0  0  0  0  0  0
    2.8255    0.1078    2.4086 H   0  0  0  0  0  0  0  0  0  0  0  0
    2.3893   -1.1487    1.2550 H   0  0  0  0  0  0  0  0  0  0  0  0
    4.4553   -1.6534   -2.4849 H   0  0  0  0  0  0  0  0  0  0  0  0
    6.2253   -1.6296   -2.6621 H   0  0  0  0  0  0  0  0  0  0  0  0
    5.3108   -0.1230   -2.5975 H   0  0  0  0  0  0  0  0  0  0  0  0
    4.8448   -3.1892   -0.4565 H   0  0  0  0  0  0  0  0  0  0  0  0
    6.6097   -3.0247   -0.5918 H   0  0  0  0  0  0  0  0  0  0  0  0
    5.7688   -2.6098    0.9189 H   0  0  0  0  0  0  0  0  0  0  0  0
    6.6819    0.7308   -0.5809 H   0  0  0  0  0  0  0  0  0  0  0  0
    6.7529   -0.2237    0.8917 H   0  0  0  0  0  0  0  0  0  0  0  0
    7.6640   -0.7344   -0.5484 H   0  0  0  0  0  0  0  0  0  0  0  0
    2.5963    2.6330    1.4588 H   0  0  0  0  0  0  0  0  0  0  0  0
    2.4376    2.7351   -0.2982 H   0  0  0  0  0  0  0  0  0  0  0  0
    0.2215    1.7111   -0.2262 H   0  0  0  0  0  0  0  0  0  0  0  0
    0.2816    3.2093    0.7273 H   0  0  0  0  0  0  0  0  0  0  0  0
  1  2  1  0
  2  3  1  0
  3  4  2  0
  4  5  1  0
  5  6  2  0
  6  7  1  0
  7  8  2  0
  7  9  1  0
  9 10  1  0
 10 11  2  0
 10 12  1  0
  9 13  1  0
 13 14  1  0
 14 15  2  0
 15 16  1  0
 15 17  1  0
 17 18  1  0
 18 19  2  0
 19 20  1  0
 20 21  2  0
 21 22  1  0
 22 23  2  0
 17 24  1  0
 24 25  1  0
 14 26  1  0
 26 27  1  0
 27 28  1  0
 28 29  1  0
 29 30  2  0
 29 31  1  0
 31 32  1  0
 32 33  1  0
 32 34  1  0
 32 35  1  0
 28 36  1  0
 36 37  1  0
 37 38  1  0
  8  3  1  0
  9 38  1  1
 12  6  1  0
 24 13  2  0
 38 26  1  0
 23 18  1  0
  1 39  1  0
  1 40  1  0
  1 41  1  0
  4 42  1  0
  5 43  1  0
  8 44  1  0
 12 45  1  0
 16 46  1  0
 19 47  1  0
 20 48  1  0
 21 49  1  0
 22 50  1  0
 23 51  1  0
 25 52  1  0
 26 53  1  1
 27 54  1  0
 27 55  1  0
 33 56  1  0
 33 57  1  0
 33 58  1  0
 34 59  1  0
 34 60  1  0
 34 61  1  0
 35 62  1  0
 35 63  1  0
 35 64  1  0
 36 65  1  0
 36 66  1  0
 37 67  1  0
 37 68  1  0
M  END
$$$$
