
     RDKit          3D

 57 58  0  0  0  0  0  0  0  0999 V2000
    9.0774   -1.7804    2.2173 C   0  0  0  0  0  0  0  0  0  0  0  0
    8.3011   -0.4759    2.1274 C   0  0  0  0  0  0  0  0  0  0  0  0
    7.4445   -0.3616    0.8673 C   0  0  0  0  0  0  0  0  0  0  0  0
    6.3211   -1.3953    0.7976 C   0  0  0  0  0  0  0  0  0  0  0  0
    5.5232   -1.1890   -0.3695 O   0  0  0  0  0  0  0  0  0  0  0  0
    4.4351   -0.3673   -0.2870 C   0  0  0  0  0  0  0  0  0  0  0  0
    4.0829    0.4361    0.7949 C   0  0  0  0  0  0  0  0  0  0  0  0
    2.9346    1.2359    0.7362 C   0  0  0  0  0  0  0  0  0  0  0  0
    2.1243    1.2562   -0.4090 C   0  0  0  0  0  0  0  0  0  0  0  0
    0.8701    2.1117   -0.4294 C   0  0  0  0  0  0  0  0  0  0  0  0
    0.7627    2.9726   -1.6917 C   0  0  0  0  0  0  0  0  0  0  0  0
   -0.2975    1.2584   -0.2696 N   0  0  0  0  0  0  0  0  0  0  0  0
   -1.4995    1.7409    0.1882 C   0  0  0  0  0  0  0  0  0  0  0  0
   -1.7042    2.9188    0.4558 O   0  0  0  0  0  0  0  0  0  0  0  0
   -2.5666    0.6776    0.2888 C   0  0  0  0  0  0  0  0  0  0  0  0
   -3.7917    1.2030    1.0173 C   0  0  0  0  0  0  0  0  0  0  0  0
   -5.1418    0.0428    0.9971 S   0  0  0  0  0  6  0  0  0  0  0  0
   -4.5725   -1.2885    1.1016 O   0  0  0  0  0  0  0  0  0  0  0  0
   -6.1121    0.5154    1.9682 O   0  0  0  0  0  0  0  0  0  0  0  0
   -5.8319    0.2587   -0.6440 C   0  0  0  0  0  0  0  0  0  0  0  0
   -6.9933   -0.6820   -0.8302 C   0  0  0  0  0  0  0  0  0  0  0  0
   -8.2858   -0.3088   -0.4319 C   0  0  0  0  0  0  0  0  0  0  0  0
   -9.3623   -1.1818   -0.6025 C   0  0  0  0  0  0  0  0  0  0  0  0
   -9.1601   -2.4380   -1.1722 C   0  0  0  0  0  0  0  0  0  0  0  0
   -7.8795   -2.8189   -1.5643 C   0  0  0  0  0  0  0  0  0  0  0  0
   -7.6267   -4.3698   -2.2660 Cl  0  0  0  0  0  0  0  0  0  0  0  0
   -6.7990   -1.9519   -1.3951 C   0  0  0  0  0  0  0  0  0  0  0  0
    2.4848    0.4412   -1.4910 C   0  0  0  0  0  0  0  0  0  0  0  0
    3.6316   -0.3554   -1.4286 C   0  0  0  0  0  0  0  0  0  0  0  0
    9.6915   -1.9349    1.3244 H   0  0  0  0  0  0  0  0  0  0  0  0
    9.7424   -1.7625    3.0869 H   0  0  0  0  0  0  0  0  0  0  0  0
    8.4081   -2.6383    2.3305 H   0  0  0  0  0  0  0  0  0  0  0  0
    7.6706   -0.3646    3.0172 H   0  0  0  0  0  0  0  0  0  0  0  0
    9.0152    0.3561    2.1390 H   0  0  0  0  0  0  0  0  0  0  0  0
    8.0744   -0.4515   -0.0267 H   0  0  0  0  0  0  0  0  0  0  0  0
    7.0211    0.6486    0.8219 H   0  0  0  0  0  0  0  0  0  0  0  0
    6.7575   -2.3941    0.6864 H   0  0  0  0  0  0  0  0  0  0  0  0
    5.7190   -1.4325    1.7127 H   0  0  0  0  0  0  0  0  0  0  0  0
    4.6799    0.4747    1.6996 H   0  0  0  0  0  0  0  0  0  0  0  0
    2.6792    1.8485    1.5994 H   0  0  0  0  0  0  0  0  0  0  0  0
    0.8936    2.7988    0.4267 H   0  0  0  0  0  0  0  0  0  0  0  0
    0.6102    2.3659   -2.5909 H   0  0  0  0  0  0  0  0  0  0  0  0
   -0.0877    3.6597   -1.6243 H   0  0  0  0  0  0  0  0  0  0  0  0
    1.6675    3.5732   -1.8358 H   0  0  0  0  0  0  0  0  0  0  0  0
   -0.1760    0.2628   -0.4085 H   0  0  0  0  0  0  0  0  0  0  0  0
   -2.1550   -0.1889    0.8191 H   0  0  0  0  0  0  0  0  0  0  0  0
   -2.8208    0.3612   -0.7284 H   0  0  0  0  0  0  0  0  0  0  0  0
   -3.5518    1.3908    2.0701 H   0  0  0  0  0  0  0  0  0  0  0  0
   -4.1642    2.1410    0.5924 H   0  0  0  0  0  0  0  0  0  0  0  0
   -5.0479    0.0580   -1.3793 H   0  0  0  0  0  0  0  0  0  0  0  0
   -6.1503    1.3008   -0.7463 H   0  0  0  0  0  0  0  0  0  0  0  0
   -8.4635    0.6615    0.0303 H   0  0  0  0  0  0  0  0  0  0  0  0
  -10.3582   -0.8843   -0.2829 H   0  0  0  0  0  0  0  0  0  0  0  0
  -10.0003   -3.1151   -1.2997 H   0  0  0  0  0  0  0  0  0  0  0  0
   -5.8043   -2.2745   -1.6949 H   0  0  0  0  0  0  0  0  0  0  0  0
    1.8803    0.4127   -2.3943 H   0  0  0  0  0  0  0  0  0  0  0  0
    3.9007   -0.9777   -2.2793 H   0  0  0  0  0  0  0  0  0  0  0  0
  1  2  1  0
  2  3  1  0
  3  4  1  0
  4  5  1  0
  5  6  1  0
  6  7  2  0
  7  8  1  0
  8  9  2  0
  9 10  1  0
 10 11  1  0
 10 12  1  0
 12 13  1  0
 13 14  2  0
 13 15  1  0
 15 16  1  0
 16 17  1  0
 17 18  2  0
 17 19  2  0
 17 20  1  0
 20 21  1  0
 21 22  2  0
 22 23  1  0
 23 24  2  0
 24 25  1  0
 25 26  1  0
 25 27  2  0
  9 28  1  0
 28 29  2  0
 29  6  1  0
 27 21  1  0
  1 30  1  0
  1 31  1  0
  1 32  1  0
  2 33  1  0
  2 34  1  0
  3 35  1  0
  3 36  1  0
  4 37  1  0
  4 38  1  0
  7 39  1  0
  8 40  1  0
 10 41  1  0
 11 42  1  0
 11 43  1  0
 11 44  1  0
 12 45  1  0
 15 46  1  0
 15 47  1  0
 16 48  1  0
 16 49  1  0
 20 50  1  0
 20 51  1  0
 22 52  1  0
 23 53  1  0
 24 54  1  0
 27 55  1  0
 28 56  1  0
 29 57  1  0
M  END
$$$$
