
     RDKit          3D

 42 45  0  0  0  0  0  0  0  0999 V2000
    6.5385    0.7786   -1.6709 C   0  0  0  0  0  0  0  0  0  0  0  0
    5.9467   -0.5654   -1.2855 C   0  0  0  0  0  0  0  0  0  0  0  0
    4.8919   -0.3929   -0.2350 C   0  0  0  0  0  0  0  0  0  0  0  0
    3.6520   -0.1135   -0.5057 N   0  0  0  0  0  0  0  0  0  0  0  0
    2.9576   -0.0091    0.6897 N   0  0  0  0  0  0  0  0  0  0  0  0
    1.6070    0.2730    0.7422 C   0  0  0  0  0  0  0  0  0  0  0  0
    0.9175    0.5140   -0.3343 N   0  0  0  0  0  0  0  0  0  0  0  0
    1.0115    0.3064    2.1194 C   0  0  0  0  0  0  0  0  0  0  0  0
   -0.3041    0.4147    2.3953 C   0  0  0  0  0  0  0  0  0  0  0  0
   -1.3895    0.4711    1.4749 C   0  0  0  0  0  0  0  0  0  0  0  0
   -2.1528    1.5919    1.0963 C   0  0  0  0  0  0  0  0  0  0  0  0
   -2.0016    2.9991    1.5429 C   0  0  0  0  0  0  0  0  0  0  0  0
   -3.0970    1.2701    0.2075 N   0  0  0  0  0  0  0  0  0  0  0  0
   -2.9776   -0.0845    0.0104 N   0  0  0  0  0  0  0  0  0  0  0  0
   -3.9215   -0.7175   -0.8640 C   0  0  0  0  0  0  0  0  0  0  0  0
   -4.6933    0.0954   -1.7173 C   0  0  0  0  0  0  0  0  0  0  0  0
   -5.6290   -0.4626   -2.5926 C   0  0  0  0  0  0  0  0  0  0  0  0
   -5.8175   -1.8398   -2.6220 C   0  0  0  0  0  0  0  0  0  0  0  0
   -5.0774   -2.6552   -1.7703 C   0  0  0  0  0  0  0  0  0  0  0  0
   -4.1377   -2.0998   -0.8922 C   0  0  0  0  0  0  0  0  0  0  0  0
   -1.9265   -0.5788    0.7696 C   0  0  0  0  0  0  0  0  0  0  0  0
   -1.3642   -2.1927    0.7198 Cl  0  0  0  0  0  0  0  0  0  0  0  0
    1.9504    0.1875    3.3014 C   0  0  0  0  0  0  0  0  0  0  0  0
    1.5332    0.3471    4.4438 O   0  0  0  0  0  0  0  0  0  0  0  0
    3.2767   -0.1092    3.0593 N   0  0  0  0  0  0  0  0  0  0  0  0
    3.6808   -0.1849    1.8421 C   0  0  0  0  0  0  0  0  0  0  0  0
    5.3468   -0.5405    1.4540 S   0  0  0  0  0  0  0  0  0  0  0  0
    5.7643    1.4581   -2.0429 H   0  0  0  0  0  0  0  0  0  0  0  0
    7.2899    0.6530   -2.4565 H   0  0  0  0  0  0  0  0  0  0  0  0
    7.0183    1.2601   -0.8124 H   0  0  0  0  0  0  0  0  0  0  0  0
    6.7343   -1.2365   -0.9272 H   0  0  0  0  0  0  0  0  0  0  0  0
    5.4885   -1.0318   -2.1647 H   0  0  0  0  0  0  0  0  0  0  0  0
    1.5725    0.4259   -1.1260 H   0  0  0  0  0  0  0  0  0  0  0  0
   -0.6142    0.4482    3.4401 H   0  0  0  0  0  0  0  0  0  0  0  0
   -2.7618    3.6482    1.0958 H   0  0  0  0  0  0  0  0  0  0  0  0
   -1.0177    3.3855    1.2580 H   0  0  0  0  0  0  0  0  0  0  0  0
   -2.0988    3.0673    2.6312 H   0  0  0  0  0  0  0  0  0  0  0  0
   -4.5673    1.1773   -1.7230 H   0  0  0  0  0  0  0  0  0  0  0  0
   -6.2078    0.1826   -3.2484 H   0  0  0  0  0  0  0  0  0  0  0  0
   -6.5461   -2.2763   -3.2998 H   0  0  0  0  0  0  0  0  0  0  0  0
   -5.2376   -3.7308   -1.7786 H   0  0  0  0  0  0  0  0  0  0  0  0
   -3.6374   -2.7881   -0.2240 H   0  0  0  0  0  0  0  0  0  0  0  0
  1  2  1  0
  2  3  1  0
  3  4  2  0
  4  5  1  0
  5  6  1  0
  6  7  2  3
  6  8  1  0
  8  9  2  3
  9 10  1  0
 10 11  1  0
 11 12  1  0
 11 13  2  0
 13 14  1  0
 14 15  1  0
 15 16  2  0
 16 17  1  0
 17 18  2  0
 18 19  1  0
 19 20  2  0
 14 21  1  0
 21 22  1  0
  8 23  1  0
 23 24  2  0
 23 25  1  0
 25 26  2  0
 26 27  1  0
 27  3  1  0
 26  5  1  0
 21 10  2  0
 20 15  1  0
  1 28  1  0
  1 29  1  0
  1 30  1  0
  2 31  1  0
  2 32  1  0
  7 33  1  0
  9 34  1  0
 12 35  1  0
 12 36  1  0
 12 37  1  0
 16 38  1  0
 17 39  1  0
 18 40  1  0
 19 41  1  0
 20 42  1  0
M  END
$$$$
