
     RDKit          3D

 50 53  0  0  0  0  0  0  0  0999 V2000
   -0.4648   -0.5394    0.8829 O   0  0  0  0  0  0  0  0  0  0  0  0
    0.6702   -0.1622    0.6070 C   0  0  0  0  0  0  0  0  0  0  0  0
    0.9523    0.7516   -0.4010 N   0  0  0  0  0  0  0  0  0  0  0  0
    0.1221    1.3901   -1.3067 C   0  0  0  0  0  0  0  0  0  0  0  0
    0.8962    2.4215   -2.3705 S   0  0  0  0  0  0  0  0  0  0  0  0
   -1.2059    1.0728   -1.2030 N   0  0  0  0  0  0  0  0  0  0  0  0
   -2.3830    1.4893   -1.8730 C   0  0  0  0  0  0  0  0  0  0  0  0
   -2.4681    2.5062   -2.8225 C   0  0  0  0  0  0  0  0  0  0  0  0
   -3.6976    2.8230   -3.4111 C   0  0  0  0  0  0  0  0  0  0  0  0
   -4.8521    2.1308   -3.0536 C   0  0  0  0  0  0  0  0  0  0  0  0
   -4.7847    1.1160   -2.1011 C   0  0  0  0  0  0  0  0  0  0  0  0
   -3.5607    0.7851   -1.5009 C   0  0  0  0  0  0  0  0  0  0  0  0
   -3.4505   -0.2417   -0.5372 N   0  0  0  0  0  0  0  0  0  0  0  0
   -4.1066    0.0791    0.7507 C   0  0  0  0  0  0  0  0  0  0  0  0
   -4.1779   -1.1936    1.6075 C   0  0  0  0  0  0  0  0  0  0  0  0
   -5.0138   -2.2102    1.0226 O   0  0  0  0  0  0  0  0  0  0  0  0
   -5.0222   -2.1795   -0.4164 C   0  0  0  0  0  0  0  0  0  0  0  0
   -3.7403   -1.6038   -1.0437 C   0  0  0  0  0  0  0  0  0  0  0  0
    1.8533   -0.6239    1.3018 C   0  0  0  0  0  0  0  0  0  0  0  0
    2.0110   -1.4943    2.3597 C   0  0  0  0  0  0  0  0  0  0  0  0
    3.4027   -1.5810    2.6099 C   0  0  0  0  0  0  0  0  0  0  0  0
    4.0273   -0.7577    1.6929 C   0  0  0  0  0  0  0  0  0  0  0  0
    5.4192   -0.4151    1.4046 C   0  0  0  0  0  0  0  0  0  0  0  0
    5.7509    0.4984    0.3890 C   0  0  0  0  0  0  0  0  0  0  0  0
    7.0840    0.8211    0.1144 C   0  0  0  0  0  0  0  0  0  0  0  0
    8.1083    0.2318    0.8518 C   0  0  0  0  0  0  0  0  0  0  0  0
    7.7941   -0.6761    1.8583 C   0  0  0  0  0  0  0  0  0  0  0  0
    9.0579   -1.4073    2.7709 Cl  0  0  0  0  0  0  0  0  0  0  0  0
    6.4634   -1.0000    2.1374 C   0  0  0  0  0  0  0  0  0  0  0  0
    3.0816   -0.1695    0.8987 O   0  0  0  0  0  0  0  0  0  0  0  0
    1.9340    0.9799   -0.5158 H   0  0  0  0  0  0  0  0  0  0  0  0
   -1.4358    0.3442   -0.5151 H   0  0  0  0  0  0  0  0  0  0  0  0
   -1.6102    3.0889   -3.1295 H   0  0  0  0  0  0  0  0  0  0  0  0
   -3.7485    3.6200   -4.1501 H   0  0  0  0  0  0  0  0  0  0  0  0
   -5.8037    2.3837   -3.5137 H   0  0  0  0  0  0  0  0  0  0  0  0
   -5.6936    0.5874   -1.8292 H   0  0  0  0  0  0  0  0  0  0  0  0
   -3.5292    0.8504    1.2757 H   0  0  0  0  0  0  0  0  0  0  0  0
   -5.1269    0.4528    0.5863 H   0  0  0  0  0  0  0  0  0  0  0  0
   -3.1797   -1.6257    1.7441 H   0  0  0  0  0  0  0  0  0  0  0  0
   -4.5809   -0.9631    2.5995 H   0  0  0  0  0  0  0  0  0  0  0  0
   -5.1844   -3.2049   -0.7656 H   0  0  0  0  0  0  0  0  0  0  0  0
   -5.8965   -1.5950   -0.7258 H   0  0  0  0  0  0  0  0  0  0  0  0
   -2.8916   -2.2380   -0.7588 H   0  0  0  0  0  0  0  0  0  0  0  0
   -3.8031   -1.6343   -2.1395 H   0  0  0  0  0  0  0  0  0  0  0  0
    1.2114   -2.0060    2.8788 H   0  0  0  0  0  0  0  0  0  0  0  0
    3.8872   -2.1800    3.3687 H   0  0  0  0  0  0  0  0  0  0  0  0
    4.9715    0.9748   -0.2034 H   0  0  0  0  0  0  0  0  0  0  0  0
    7.3190    1.5323   -0.6730 H   0  0  0  0  0  0  0  0  0  0  0  0
    9.1430    0.4840    0.6387 H   0  0  0  0  0  0  0  0  0  0  0  0
    6.2517   -1.7132    2.9304 H   0  0  0  0  0  0  0  0  0  0  0  0
  1  2  2  0
  2  3  1  0
  3  4  1  0
  4  5  2  0
  4  6  1  0
  6  7  1  0
  7  8  2  0
  8  9  1  0
  9 10  2  0
 10 11  1  0
 11 12  2  0
 12 13  1  0
 13 14  1  0
 14 15  1  0
 15 16  1  0
 16 17  1  0
 17 18  1  0
  2 19  1  0
 19 20  2  0
 20 21  1  0
 21 22  2  0
 22 23  1  0
 23 24  2  0
 24 25  1  0
 25 26  2  0
 26 27  1  0
 27 28  1  0
 27 29  2  0
 22 30  1  0
 12  7  1  0
 18 13  1  0
 30 19  1  0
 29 23  1  0
  3 31  1  0
  6 32  1  0
  8 33  1  0
  9 34  1  0
 10 35  1  0
 11 36  1  0
 14 37  1  0
 14 38  1  0
 15 39  1  0
 15 40  1  0
 17 41  1  0
 17 42  1  0
 18 43  1  0
 18 44  1  0
 20 45  1  0
 21 46  1  0
 24 47  1  0
 25 48  1  0
 26 49  1  0
 29 50  1  0
M  END
$$$$
