
     RDKit          3D

 42 44  0  0  0  0  0  0  0  0999 V2000
    4.8031   -1.2406    0.9972 C   0  0  0  0  0  0  0  0  0  0  0  0
    3.8214   -0.1889    0.5052 C   0  0  0  0  0  0  0  0  0  0  0  0
    2.3757   -0.5847    0.8136 C   0  0  0  0  0  0  0  0  0  0  0  0
    1.3913    0.4731    0.3063 C   0  0  0  0  0  0  0  0  0  0  0  0
   -0.0896    0.2409    0.7104 C   0  0  0  0  0  0  0  0  0  0  0  0
   -0.6691   -1.0022    0.0641 C   0  0  0  0  0  0  0  0  0  0  0  0
   -1.4645   -0.9297   -1.0202 C   0  0  0  0  0  0  0  0  0  0  0  0
   -2.0211   -2.1197   -1.7453 C   0  0  0  0  0  0  0  0  0  0  0  0
   -1.2267   -3.3825   -1.4390 C   0  0  0  0  0  0  0  0  0  0  0  0
   -1.0569   -3.5624    0.0597 C   0  0  0  0  0  0  0  0  0  0  0  0
   -0.4649   -2.3304    0.7123 C   0  0  0  0  0  0  0  0  0  0  0  0
    0.1090   -2.4138    1.7966 O   0  0  0  0  0  0  0  0  0  0  0  0
   -1.8492    0.2888   -1.5671 O   0  0  0  0  0  0  0  0  0  0  0  0
   -1.6869    1.4376   -0.8017 C   0  0  0  0  0  0  0  0  0  0  0  0
   -0.8906    1.4573    0.2830 C   0  0  0  0  0  0  0  0  0  0  0  0
   -0.7823    2.7086    1.0863 C   0  0  0  0  0  0  0  0  0  0  0  0
   -0.0965    2.7380    2.1060 O   0  0  0  0  0  0  0  0  0  0  0  0
   -1.4783    3.9531    0.5782 C   0  0  0  0  0  0  0  0  0  0  0  0
   -2.7623    3.6069   -0.1574 C   0  0  0  0  0  0  0  0  0  0  0  0
   -2.5013    2.6054   -1.2764 C   0  0  0  0  0  0  0  0  0  0  0  0
    4.6180   -2.2060    0.5155 H   0  0  0  0  0  0  0  0  0  0  0  0
    4.7227   -1.3758    2.0805 H   0  0  0  0  0  0  0  0  0  0  0  0
    5.8295   -0.9378    0.7677 H   0  0  0  0  0  0  0  0  0  0  0  0
    3.9483   -0.0554   -0.5755 H   0  0  0  0  0  0  0  0  0  0  0  0
    4.0554    0.7706    0.9809 H   0  0  0  0  0  0  0  0  0  0  0  0
    2.2568   -0.7098    1.8961 H   0  0  0  0  0  0  0  0  0  0  0  0
    2.1693   -1.5494    0.3383 H   0  0  0  0  0  0  0  0  0  0  0  0
    1.7222    1.4482    0.6867 H   0  0  0  0  0  0  0  0  0  0  0  0
    1.4725    0.5333   -0.7882 H   0  0  0  0  0  0  0  0  0  0  0  0
   -0.1693    0.1435    1.8006 H   0  0  0  0  0  0  0  0  0  0  0  0
   -3.0715   -2.2529   -1.4602 H   0  0  0  0  0  0  0  0  0  0  0  0
   -1.9975   -1.9423   -2.8270 H   0  0  0  0  0  0  0  0  0  0  0  0
   -0.2388   -3.3162   -1.9137 H   0  0  0  0  0  0  0  0  0  0  0  0
   -1.7302   -4.2557   -1.8687 H   0  0  0  0  0  0  0  0  0  0  0  0
   -0.3884   -4.4096    0.2476 H   0  0  0  0  0  0  0  0  0  0  0  0
   -2.0213   -3.7685    0.5371 H   0  0  0  0  0  0  0  0  0  0  0  0
   -1.7147    4.5945    1.4341 H   0  0  0  0  0  0  0  0  0  0  0  0
   -0.7834    4.4915   -0.0755 H   0  0  0  0  0  0  0  0  0  0  0  0
   -3.2178    4.5150   -0.5676 H   0  0  0  0  0  0  0  0  0  0  0  0
   -3.4837    3.1786    0.5510 H   0  0  0  0  0  0  0  0  0  0  0  0
   -1.9736    3.0926   -2.1050 H   0  0  0  0  0  0  0  0  0  0  0  0
   -3.4648    2.2567   -1.6667 H   0  0  0  0  0  0  0  0  0  0  0  0
  1  2  1  0
  2  3  1  0
  3  4  1  0
  4  5  1  0
  5  6  1  0
  6  7  2  0
  7  8  1  0
  8  9  1  0
  9 10  1  0
 10 11  1  0
 11 12  2  0
  7 13  1  0
 13 14  1  0
 14 15  2  0
 15 16  1  0
 16 17  2  0
 16 18  1  0
 18 19  1  0
 19 20  1  0
 15  5  1  0
 11  6  1  0
 20 14  1  0
  1 21  1  0
  1 22  1  0
  1 23  1  0
  2 24  1  0
  2 25  1  0
  3 26  1  0
  3 27  1  0
  4 28  1  0
  4 29  1  0
  5 30  1  0
  8 31  1  0
  8 32  1  0
  9 33  1  0
  9 34  1  0
 10 35  1  0
 10 36  1  0
 18 37  1  0
 18 38  1  0
 19 39  1  0
 19 40  1  0
 20 41  1  0
 20 42  1  0
M  END
$$$$
