
     RDKit          3D

 40 40  0  0  0  0  0  0  0  0999 V2000
   -4.6255   -0.1417    2.0297 C   0  0  0  0  0  0  0  0  0  0  0  0
   -4.1404    0.2085    0.6125 C   0  0  0  0  0  0  0  0  0  0  0  0
   -5.0844   -0.4610   -0.3980 C   0  0  0  0  0  0  0  0  0  0  0  0
   -4.1784    1.7342    0.4454 C   0  0  0  0  0  0  0  0  0  0  0  0
   -2.7656   -0.2837    0.4711 N   0  0  0  0  0  0  0  0  0  0  0  0
   -2.0074   -0.2295   -0.6816 C   0  0  0  0  0  0  0  0  0  0  0  0
   -2.3810    0.1044   -1.7963 O   0  0  0  0  0  0  0  0  0  0  0  0
   -0.5365   -0.6375   -0.4535 C   0  0  0  0  0  0  0  0  0  0  0  0
   -0.1216   -0.8642    0.6776 O   0  0  0  0  0  0  0  0  0  0  0  0
    0.2079   -0.7043   -1.6117 N   0  0  0  0  0  0  0  0  0  0  0  0
    1.6047   -0.8130   -1.5032 N   0  0  0  0  0  0  0  0  0  0  0  0
    2.3706   -0.0957   -2.4080 C   0  0  0  0  0  0  0  0  0  0  0  0
    1.8906    0.4425   -3.4066 O   0  0  0  0  0  0  0  0  0  0  0  0
    3.8531   -0.0449   -2.0609 C   0  0  0  0  0  0  0  0  0  0  0  0
    4.1045    0.9734   -1.0854 O   0  0  0  0  0  0  0  0  0  0  0  0
    4.1652    0.4819    0.1889 C   0  0  0  0  0  0  0  0  0  0  0  0
    3.1847    0.8929    1.0880 C   0  0  0  0  0  0  0  0  0  0  0  0
    3.2144    0.4240    2.4025 C   0  0  0  0  0  0  0  0  0  0  0  0
    4.2462   -0.4225    2.8218 C   0  0  0  0  0  0  0  0  0  0  0  0
    5.2421   -0.8091    1.9245 C   0  0  0  0  0  0  0  0  0  0  0  0
    5.2053   -0.3579    0.6038 C   0  0  0  0  0  0  0  0  0  0  0  0
   -4.6160   -1.2255    2.1967 H   0  0  0  0  0  0  0  0  0  0  0  0
   -3.9785    0.3069    2.7938 H   0  0  0  0  0  0  0  0  0  0  0  0
   -5.6454    0.2150    2.2085 H   0  0  0  0  0  0  0  0  0  0  0  0
   -4.8643   -0.1512   -1.4256 H   0  0  0  0  0  0  0  0  0  0  0  0
   -4.9977   -1.5544   -0.3592 H   0  0  0  0  0  0  0  0  0  0  0  0
   -6.1296   -0.1983   -0.1958 H   0  0  0  0  0  0  0  0  0  0  0  0
   -3.4763    2.2275    1.1315 H   0  0  0  0  0  0  0  0  0  0  0  0
   -3.8978    2.0413   -0.5698 H   0  0  0  0  0  0  0  0  0  0  0  0
   -5.1799    2.1268    0.6496 H   0  0  0  0  0  0  0  0  0  0  0  0
   -2.2240   -0.4608    1.3177 H   0  0  0  0  0  0  0  0  0  0  0  0
   -0.1648   -0.2923   -2.4715 H   0  0  0  0  0  0  0  0  0  0  0  0
    1.9619   -1.0276   -0.5708 H   0  0  0  0  0  0  0  0  0  0  0  0
    4.1933   -1.0450   -1.7613 H   0  0  0  0  0  0  0  0  0  0  0  0
    4.4057    0.2194   -2.9707 H   0  0  0  0  0  0  0  0  0  0  0  0
    2.3968    1.5685    0.7678 H   0  0  0  0  0  0  0  0  0  0  0  0
    2.4440    0.7309    3.1039 H   0  0  0  0  0  0  0  0  0  0  0  0
    4.2773   -0.7744    3.8514 H   0  0  0  0  0  0  0  0  0  0  0  0
    6.0495   -1.4622    2.2567 H   0  0  0  0  0  0  0  0  0  0  0  0
    5.9974   -0.6413   -0.0837 H   0  0  0  0  0  0  0  0  0  0  0  0
  1  2  1  0
  2  3  1  0
  2  4  1  0
  2  5  1  0
  5  6  1  0
  6  7  2  0
  6  8  1  0
  8  9  2  0
  8 10  1  0
 10 11  1  0
 11 12  1  0
 12 13  2  0
 12 14  1  0
 14 15  1  0
 15 16  1  0
 16 17  2  0
 17 18  1  0
 18 19  2  0
 19 20  1  0
 20 21  2  0
 21 16  1  0
  1 22  1  0
  1 23  1  0
  1 24  1  0
  3 25  1  0
  3 26  1  0
  3 27  1  0
  4 28  1  0
  4 29  1  0
  4 30  1  0
  5 31  1  0
 10 32  1  0
 11 33  1  0
 14 34  1  0
 14 35  1  0
 17 36  1  0
 18 37  1  0
 19 38  1  0
 20 39  1  0
 21 40  1  0
M  END
$$$$
