
     RDKit          3D

 64 67  0  0  0  0  0  0  0  0999 V2000
   -0.5045    1.2277   -3.9269 C   0  0  0  0  0  0  0  0  0  0  0  0
   -0.9336    0.4273   -2.8261 O   0  0  0  0  0  0  0  0  0  0  0  0
   -1.2589    1.1456   -1.7020 C   0  0  0  0  0  0  0  0  0  0  0  0
   -2.0564    2.2946   -1.7833 C   0  0  0  0  0  0  0  0  0  0  0  0
   -2.3906    3.0060   -0.6293 C   0  0  0  0  0  0  0  0  0  0  0  0
   -3.1860    4.1238   -0.7119 O   0  0  0  0  0  0  0  0  0  0  0  0
   -2.5428    5.1700   -1.4435 C   0  0  0  0  0  0  0  0  0  0  0  0
   -1.9852    2.5431    0.6251 C   0  0  0  0  0  0  0  0  0  0  0  0
   -2.3528    3.2200    1.8654 C   0  0  0  0  0  0  0  0  0  0  0  0
   -1.9399    2.7458    3.0445 C   0  0  0  0  0  0  0  0  0  0  0  0
   -1.0937    1.5505    3.1491 C   0  0  0  0  0  0  0  0  0  0  0  0
   -0.7082    1.1436    4.2397 O   0  0  0  0  0  0  0  0  0  0  0  0
   -0.7651    0.9234    1.9572 O   0  0  0  0  0  0  0  0  0  0  0  0
   -1.2035    1.3821    0.6907 C   0  0  0  0  0  0  0  0  0  0  0  0
   -0.8277    0.6490   -0.4548 C   0  0  0  0  0  0  0  0  0  0  0  0
    0.0398   -0.6129   -0.3867 C   0  0  0  0  0  0  0  0  0  0  0  0
   -0.4943   -1.7340    0.5428 C   0  0  0  0  0  0  0  0  0  0  0  0
   -1.8690   -2.2519    0.0890 C   0  0  0  0  0  0  0  0  0  0  0  0
   -2.4030   -3.2763    0.9920 N   0  0  0  0  0  0  0  0  0  0  0  0
   -1.6450   -4.5285    0.9866 C   0  0  0  0  0  0  0  0  0  0  0  0
   -2.6017   -5.5273    1.6269 C   0  0  0  0  0  0  0  0  0  0  0  0
   -3.9890   -4.9212    1.4555 C   0  0  0  0  0  0  0  0  0  0  0  0
   -3.7694   -3.6617    0.6345 C   0  0  0  0  0  0  0  0  0  0  0  0
    1.5126   -0.2688   -0.1621 C   0  0  0  0  0  0  0  0  0  0  0  0
    2.0941   -0.1899    1.1039 C   0  0  0  0  0  0  0  0  0  0  0  0
    3.4472    0.1537    1.2561 C   0  0  0  0  0  0  0  0  0  0  0  0
    4.2833    0.4392    0.1629 C   0  0  0  0  0  0  0  0  0  0  0  0
    5.6355    0.7580    0.3286 N   0  0  0  0  0  0  0  0  0  0  0  0
    6.0752    1.2945    1.6160 C   0  0  0  0  0  0  0  0  0  0  0  0
    6.4322    1.1528   -0.8301 C   0  0  0  0  0  0  0  0  0  0  0  0
    3.6823    0.3421   -1.1022 C   0  0  0  0  0  0  0  0  0  0  0  0
    2.3306    0.0038   -1.2652 C   0  0  0  0  0  0  0  0  0  0  0  0
    0.0644    0.5829   -4.6037 H   0  0  0  0  0  0  0  0  0  0  0  0
   -1.3659    1.6175   -4.4817 H   0  0  0  0  0  0  0  0  0  0  0  0
    0.1567    2.0435   -3.6053 H   0  0  0  0  0  0  0  0  0  0  0  0
   -2.4523    2.6208   -2.7392 H   0  0  0  0  0  0  0  0  0  0  0  0
   -2.4739    4.9234   -2.5067 H   0  0  0  0  0  0  0  0  0  0  0  0
   -1.5496    5.3885   -1.0328 H   0  0  0  0  0  0  0  0  0  0  0  0
   -3.1559    6.0703   -1.3511 H   0  0  0  0  0  0  0  0  0  0  0  0
   -2.9816    4.1019    1.8135 H   0  0  0  0  0  0  0  0  0  0  0  0
   -2.2092    3.2212    3.9793 H   0  0  0  0  0  0  0  0  0  0  0  0
    0.0166   -1.0952   -1.3745 H   0  0  0  0  0  0  0  0  0  0  0  0
   -0.5554   -1.4144    1.5871 H   0  0  0  0  0  0  0  0  0  0  0  0
    0.2268   -2.5622    0.5239 H   0  0  0  0  0  0  0  0  0  0  0  0
   -2.5722   -1.4114    0.0740 H   0  0  0  0  0  0  0  0  0  0  0  0
   -1.8058   -2.6336   -0.9390 H   0  0  0  0  0  0  0  0  0  0  0  0
   -0.7157   -4.4563    1.5622 H   0  0  0  0  0  0  0  0  0  0  0  0
   -1.4009   -4.8519   -0.0339 H   0  0  0  0  0  0  0  0  0  0  0  0
   -2.5305   -6.5099    1.1500 H   0  0  0  0  0  0  0  0  0  0  0  0
   -2.3836   -5.6495    2.6929 H   0  0  0  0  0  0  0  0  0  0  0  0
   -4.4025   -4.6720    2.4412 H   0  0  0  0  0  0  0  0  0  0  0  0
   -4.6841   -5.6123    0.9667 H   0  0  0  0  0  0  0  0  0  0  0  0
   -3.8598   -3.8909   -0.4350 H   0  0  0  0  0  0  0  0  0  0  0  0
   -4.4974   -2.8844    0.8916 H   0  0  0  0  0  0  0  0  0  0  0  0
    1.5140   -0.3931    2.0003 H   0  0  0  0  0  0  0  0  0  0  0  0
    3.8307    0.1788    2.2722 H   0  0  0  0  0  0  0  0  0  0  0  0
    5.5045    2.1913    1.8857 H   0  0  0  0  0  0  0  0  0  0  0  0
    7.1343    1.5768    1.5890 H   0  0  0  0  0  0  0  0  0  0  0  0
    5.9832    0.5434    2.4073 H   0  0  0  0  0  0  0  0  0  0  0  0
    6.0738    2.0985   -1.2509 H   0  0  0  0  0  0  0  0  0  0  0  0
    7.4860    1.2870   -0.5599 H   0  0  0  0  0  0  0  0  0  0  0  0
    6.4209    0.3782   -1.6038 H   0  0  0  0  0  0  0  0  0  0  0  0
    4.2481    0.5369   -2.0071 H   0  0  0  0  0  0  0  0  0  0  0  0
    1.9239   -0.0480   -2.2728 H   0  0  0  0  0  0  0  0  0  0  0  0
  1  2  1  0
  2  3  1  0
  3  4  2  0
  4  5  1  0
  5  6  1  0
  6  7  1  0
  5  8  2  0
  8  9  1  0
  9 10  2  0
 10 11  1  0
 11 12  2  0
 11 13  1  0
 13 14  1  0
 14 15  2  0
 15 16  1  0
 16 17  1  0
 17 18  1  0
 18 19  1  0
 19 20  1  0
 20 21  1  0
 21 22  1  0
 22 23  1  0
 16 24  1  0
 24 25  2  0
 25 26  1  0
 26 27  2  0
 27 28  1  0
 28 29  1  0
 28 30  1  0
 27 31  1  0
 31 32  2  0
 15  3  1  0
 23 19  1  0
 32 24  1  0
 14  8  1  0
  1 33  1  0
  1 34  1  0
  1 35  1  0
  4 36  1  0
  7 37  1  0
  7 38  1  0
  7 39  1  0
  9 40  1  0
 10 41  1  0
 16 42  1  0
 17 43  1  0
 17 44  1  0
 18 45  1  0
 18 46  1  0
 20 47  1  0
 20 48  1  0
 21 49  1  0
 21 50  1  0
 22 51  1  0
 22 52  1  0
 23 53  1  0
 23 54  1  0
 25 55  1  0
 26 56  1  0
 29 57  1  0
 29 58  1  0
 29 59  1  0
 30 60  1  0
 30 61  1  0
 30 62  1  0
 31 63  1  0
 32 64  1  0
M  END
$$$$
