
     RDKit          3D

 34 35  0  0  0  0  0  0  0  0999 V2000
   -0.3492   -1.6376   -1.0602 C   0  0  0  0  0  0  0  0  0  0  0  0
   -0.8485   -0.4955   -0.1998 C   0  0  0  0  0  0  0  0  0  0  0  0
   -0.0822    0.4646    0.2576 N   0  0  0  0  0  0  0  0  0  0  0  0
    1.2650    0.3815    0.0154 N   0  0  0  0  0  0  0  0  0  0  0  0
    1.9011    1.6647   -0.2789 C   0  0  0  0  0  0  0  0  0  0  0  0
    3.2609    1.4558   -0.9414 C   0  0  0  0  0  0  0  0  0  0  0  0
    4.0542    0.2917   -0.3390 C   0  0  0  0  0  0  0  0  0  0  0  0
    3.5063   -0.1307    1.0181 C   0  0  0  0  0  0  0  0  0  0  0  0
    2.0226   -0.4945    0.9294 C   0  0  0  0  0  0  0  0  0  0  0  0
   -2.3104   -0.4356    0.1093 C   0  0  0  0  0  0  0  0  0  0  0  0
   -2.9028    0.7545    0.3168 C   0  0  0  0  0  0  0  0  0  0  0  0
   -2.2668    1.9705    0.3264 O   0  0  0  0  0  0  0  0  0  0  0  0
   -4.2378    0.8604    0.5509 N   0  0  0  0  0  0  0  0  0  0  0  0
   -5.0932   -0.1992    0.5864 C   0  0  0  0  0  0  0  0  0  0  0  0
   -6.2907   -0.0746    0.8154 O   0  0  0  0  0  0  0  0  0  0  0  0
   -4.5210   -1.4166    0.3553 N   0  0  0  0  0  0  0  0  0  0  0  0
   -3.1817   -1.6377    0.1778 C   0  0  0  0  0  0  0  0  0  0  0  0
   -2.7355   -2.7784    0.1021 O   0  0  0  0  0  0  0  0  0  0  0  0
    0.4930   -1.3214   -1.6816 H   0  0  0  0  0  0  0  0  0  0  0  0
   -0.0368   -2.4673   -0.4209 H   0  0  0  0  0  0  0  0  0  0  0  0
   -1.1334   -1.9805   -1.7410 H   0  0  0  0  0  0  0  0  0  0  0  0
    1.2501    2.2384   -0.9486 H   0  0  0  0  0  0  0  0  0  0  0  0
    1.9973    2.2249    0.6590 H   0  0  0  0  0  0  0  0  0  0  0  0
    3.1239    1.2634   -2.0129 H   0  0  0  0  0  0  0  0  0  0  0  0
    3.8393    2.3843   -0.8689 H   0  0  0  0  0  0  0  0  0  0  0  0
    4.0101   -0.5648   -1.0238 H   0  0  0  0  0  0  0  0  0  0  0  0
    5.1116    0.5666   -0.2539 H   0  0  0  0  0  0  0  0  0  0  0  0
    4.0737   -0.9790    1.4167 H   0  0  0  0  0  0  0  0  0  0  0  0
    3.6381    0.6952    1.7287 H   0  0  0  0  0  0  0  0  0  0  0  0
    1.9128   -1.5208    0.5665 H   0  0  0  0  0  0  0  0  0  0  0  0
    1.5758   -0.4353    1.9289 H   0  0  0  0  0  0  0  0  0  0  0  0
   -1.2971    1.7942    0.3076 H   0  0  0  0  0  0  0  0  0  0  0  0
   -4.6256    1.7816    0.7119 H   0  0  0  0  0  0  0  0  0  0  0  0
   -5.1232   -2.2228    0.4200 H   0  0  0  0  0  0  0  0  0  0  0  0
  1  2  1  0
  2  3  2  3
  3  4  1  0
  4  5  1  0
  5  6  1  0
  6  7  1  0
  7  8  1  0
  8  9  1  0
  2 10  1  0
 10 11  2  0
 11 12  1  0
 11 13  1  0
 13 14  1  0
 14 15  2  0
 14 16  1  0
 16 17  1  0
 17 18  2  0
  9  4  1  0
 17 10  1  0
  1 19  1  0
  1 20  1  0
  1 21  1  0
  5 22  1  0
  5 23  1  0
  6 24  1  0
  6 25  1  0
  7 26  1  0
  7 27  1  0
  8 28  1  0
  8 29  1  0
  9 30  1  0
  9 31  1  0
 12 32  1  0
 13 33  1  0
 16 34  1  0
M  END
$$$$
