
     RDKit          3D

 51 54  0  0  0  0  0  0  0  0999 V2000
   -1.1994    5.1168    0.0080 C   0  0  0  0  0  0  0  0  0  0  0  0
   -0.8439    3.6410    0.0334 C   0  0  0  0  0  0  0  0  0  0  0  0
   -1.0940    3.1469    1.3485 O   0  0  0  0  0  0  0  0  0  0  0  0
   -0.3882    2.0111    1.6645 C   0  0  0  0  0  0  0  0  0  0  0  0
   -0.3100    0.9235    0.7861 C   0  0  0  0  0  0  0  0  0  0  0  0
    0.4134   -0.2290    1.1354 C   0  0  0  0  0  0  0  0  0  0  0  0
    0.4935   -1.4463    0.2134 C   0  0  0  0  0  0  0  0  0  0  0  0
   -0.7925   -2.2790    0.3441 C   0  0  0  0  0  0  0  0  0  0  0  0
   -0.5477   -3.5369    1.1652 C   0  0  0  0  0  0  0  0  0  0  0  0
    0.3989   -3.6402    1.9444 O   0  0  0  0  0  0  0  0  0  0  0  0
   -1.5365   -4.6773    1.0059 C   0  0  0  0  0  0  0  0  0  0  0  0
   -2.8581   -4.1738    0.4427 C   0  0  0  0  0  0  0  0  0  0  0  0
   -2.6663   -3.5442   -0.9313 C   0  0  0  0  0  0  0  0  0  0  0  0
   -1.4451   -2.6395   -0.9778 C   0  0  0  0  0  0  0  0  0  0  0  0
   -1.0690   -2.2279   -2.1452 N   0  0  0  0  0  0  0  0  0  0  0  0
    0.0236   -1.4414   -2.2383 C   0  0  0  0  0  0  0  0  0  0  0  0
    0.5808   -0.9323   -3.3128 N   0  0  0  0  0  0  0  0  0  0  0  0
    1.7084   -0.2698   -2.8503 C   0  0  0  0  0  0  0  0  0  0  0  0
    2.6563    0.4403   -3.7310 C   0  0  0  0  0  0  0  0  0  0  0  0
    3.6488    1.0453   -3.3344 O   0  0  0  0  0  0  0  0  0  0  0  0
    2.3073    0.3494   -5.0543 O   0  0  0  0  0  0  0  0  0  0  0  0
    3.2063    1.0093   -5.9429 C   0  0  0  0  0  0  0  0  0  0  0  0
    1.8561   -0.3520   -1.5126 N   0  0  0  0  0  0  0  0  0  0  0  0
    0.7680   -1.0585   -1.1603 N   0  0  0  0  0  0  0  0  0  0  0  0
    1.0222   -0.2785    2.3976 C   0  0  0  0  0  0  0  0  0  0  0  0
    0.9188    0.7959    3.2879 C   0  0  0  0  0  0  0  0  0  0  0  0
    0.2099    1.9458    2.9331 C   0  0  0  0  0  0  0  0  0  0  0  0
    0.0509    3.0470    3.7340 O   0  0  0  0  0  0  0  0  0  0  0  0
    0.6623    3.0182    5.0173 C   0  0  0  0  0  0  0  0  0  0  0  0
   -1.0372    5.5380   -0.9880 H   0  0  0  0  0  0  0  0  0  0  0  0
   -2.2468    5.2666    0.2878 H   0  0  0  0  0  0  0  0  0  0  0  0
   -0.5909    5.6753    0.7269 H   0  0  0  0  0  0  0  0  0  0  0  0
    0.2125    3.5224   -0.2482 H   0  0  0  0  0  0  0  0  0  0  0  0
   -1.4758    3.1075   -0.6869 H   0  0  0  0  0  0  0  0  0  0  0  0
   -0.8209    0.9754   -0.1713 H   0  0  0  0  0  0  0  0  0  0  0  0
    1.3812   -2.0300    0.4901 H   0  0  0  0  0  0  0  0  0  0  0  0
   -1.5551   -1.7167    0.9008 H   0  0  0  0  0  0  0  0  0  0  0  0
   -1.7047   -5.1296    1.9891 H   0  0  0  0  0  0  0  0  0  0  0  0
   -1.0916   -5.4277    0.3438 H   0  0  0  0  0  0  0  0  0  0  0  0
   -3.2906   -3.4325    1.1268 H   0  0  0  0  0  0  0  0  0  0  0  0
   -3.5760   -4.9985    0.3727 H   0  0  0  0  0  0  0  0  0  0  0  0
   -2.5338   -4.3289   -1.6858 H   0  0  0  0  0  0  0  0  0  0  0  0
   -3.5499   -2.9595   -1.2087 H   0  0  0  0  0  0  0  0  0  0  0  0
    2.8254    0.8895   -6.9614 H   0  0  0  0  0  0  0  0  0  0  0  0
    4.2000    0.5543   -5.8895 H   0  0  0  0  0  0  0  0  0  0  0  0
    3.2560    2.0788   -5.7166 H   0  0  0  0  0  0  0  0  0  0  0  0
    1.5797   -1.1626    2.7073 H   0  0  0  0  0  0  0  0  0  0  0  0
    1.4052    0.7003    4.2525 H   0  0  0  0  0  0  0  0  0  0  0  0
    1.7519    2.9395    4.9363 H   0  0  0  0  0  0  0  0  0  0  0  0
    0.4347    3.9638    5.5171 H   0  0  0  0  0  0  0  0  0  0  0  0
    0.2518    2.2108    5.6344 H   0  0  0  0  0  0  0  0  0  0  0  0
  1  2  1  0
  2  3  1  0
  3  4  1  0
  4  5  2  0
  5  6  1  0
  6  7  1  0
  7  8  1  0
  8  9  1  0
  9 10  2  0
  9 11  1  0
 11 12  1  0
 12 13  1  0
 13 14  1  0
 14 15  2  0
 15 16  1  0
 16 17  2  0
 17 18  1  0
 18 19  1  0
 19 20  2  0
 19 21  1  0
 21 22  1  0
 18 23  2  0
 23 24  1  0
  6 25  2  0
 25 26  1  0
 26 27  2  0
 27 28  1  0
 28 29  1  0
 27  4  1  0
 24  7  1  0
 14  8  1  0
 24 16  1  0
  1 30  1  0
  1 31  1  0
  1 32  1  0
  2 33  1  0
  2 34  1  0
  5 35  1  0
  7 36  1  0
  8 37  1  0
 11 38  1  0
 11 39  1  0
 12 40  1  0
 12 41  1  0
 13 42  1  0
 13 43  1  0
 22 44  1  0
 22 45  1  0
 22 46  1  0
 25 47  1  0
 26 48  1  0
 29 49  1  0
 29 50  1  0
 29 51  1  0
M  END
$$$$
