
     RDKit          3D

 67 72  0  0  0  0  0  0  0  0999 V2000
    6.7144    1.4105   -0.4676 C   0  0  0  0  0  0  0  0  0  0  0  0
    6.1738    0.6222    0.7308 C   0  0  0  0  0  0  0  0  0  0  0  0
    7.0458   -0.6276    0.9299 C   0  0  0  0  0  0  0  0  0  0  0  0
    6.2036    1.4488    2.0217 C   0  0  0  0  0  0  0  0  0  0  0  0
    4.8469    0.1027    0.4597 O   0  0  0  0  0  0  0  0  0  0  0  0
    3.7949    0.9381    0.2619 C   0  0  0  0  0  0  0  0  0  0  0  0
    3.8608    2.1606    0.2890 O   0  0  0  0  0  0  0  0  0  0  0  0
    2.6279    0.2430    0.0262 N   0  0  0  0  0  0  0  0  0  0  0  0
    2.5792   -1.2173   -0.0476 C   0  0  0  0  0  0  0  0  0  0  0  0
    1.1440   -1.7614   -0.1879 C   0  0  0  0  0  0  0  0  0  0  0  0
    0.4502   -1.1591   -1.3260 N   0  0  0  0  0  0  0  0  0  0  0  0
    0.5469    0.3523   -1.3409 C   0  0  2  0  0  0  0  0  0  0  0  0
    1.3721    0.9575   -0.1864 C   0  0  0  0  0  0  0  0  0  0  0  0
   -0.8709    0.7784   -1.3312 C   0  0  0  0  0  0  0  0  0  0  0  0
   -1.7372   -0.3165   -1.4485 C   0  0  0  0  0  0  0  0  0  0  0  0
   -3.0279    0.1481   -1.4264 C   0  0  0  0  0  0  0  0  0  0  0  0
   -4.2010   -0.4684   -1.5043 O   0  0  0  0  0  0  0  0  0  0  0  0
   -2.9460    1.5234   -1.2729 N   0  0  0  0  0  0  0  0  0  0  0  0
   -4.0911    2.4209   -1.1850 C   0  0  0  0  0  0  0  0  0  0  0  0
   -4.5896    2.5494    0.2348 C   0  0  0  0  0  0  0  0  0  0  0  0
   -3.9914    3.4556    1.1225 C   0  0  0  0  0  0  0  0  0  0  0  0
   -4.4457    3.5644    2.4378 C   0  0  0  0  0  0  0  0  0  0  0  0
   -5.4992    2.7666    2.8806 C   0  0  0  0  0  0  0  0  0  0  0  0
   -6.0967    1.8565    2.0109 C   0  0  0  0  0  0  0  0  0  0  0  0
   -5.6434    1.7464    0.6954 C   0  0  0  0  0  0  0  0  0  0  0  0
   -1.6188    1.9235   -1.2558 C   0  0  0  0  0  0  0  0  0  0  0  0
   -1.2856    3.2049   -1.1717 O   0  0  0  0  0  0  0  0  0  0  0  0
   -0.9723   -1.5752   -1.5576 C   0  0  1  0  0  0  0  0  0  0  0  0
   -1.0839   -2.2375   -2.9722 C   0  0  0  0  0  0  0  0  0  0  0  0
   -0.7458   -1.7931   -4.0599 O   0  0  0  0  0  0  0  0  0  0  0  0
   -1.6583   -3.4966   -2.7839 N   0  0  0  0  0  0  0  0  0  0  0  0
   -1.9797   -3.7139   -1.4530 C   0  0  0  0  0  0  0  0  0  0  0  0
   -2.6031   -4.8290   -0.9310 C   0  0  0  0  0  0  0  0  0  0  0  0
   -2.8917   -4.8229    0.4349 C   0  0  0  0  0  0  0  0  0  0  0  0
   -2.5652   -3.7126    1.2333 C   0  0  0  0  0  0  0  0  0  0  0  0
   -1.9326   -2.5941    0.6815 C   0  0  0  0  0  0  0  0  0  0  0  0
   -1.6233   -2.6086   -0.6724 C   0  0  0  0  0  0  0  0  0  0  0  0
    6.6209    0.8246   -1.3900 H   0  0  0  0  0  0  0  0  0  0  0  0
    6.1604    2.3406   -0.6312 H   0  0  0  0  0  0  0  0  0  0  0  0
    7.7682    1.6753   -0.3285 H   0  0  0  0  0  0  0  0  0  0  0  0
    7.0370   -1.2553    0.0317 H   0  0  0  0  0  0  0  0  0  0  0  0
    6.6577   -1.2488    1.7452 H   0  0  0  0  0  0  0  0  0  0  0  0
    8.0840   -0.3660    1.1574 H   0  0  0  0  0  0  0  0  0  0  0  0
    5.6852    2.4065    1.9056 H   0  0  0  0  0  0  0  0  0  0  0  0
    5.7045    0.9164    2.8395 H   0  0  0  0  0  0  0  0  0  0  0  0
    7.2309    1.6740    2.3275 H   0  0  0  0  0  0  0  0  0  0  0  0
    3.1877   -1.5233   -0.9077 H   0  0  0  0  0  0  0  0  0  0  0  0
    3.0480   -1.6290    0.8536 H   0  0  0  0  0  0  0  0  0  0  0  0
    0.6150   -1.5546    0.7489 H   0  0  0  0  0  0  0  0  0  0  0  0
    1.2000   -2.8488   -0.3123 H   0  0  0  0  0  0  0  0  0  0  0  0
    1.0088    0.6294   -2.2968 H   0  0  0  0  0  0  0  0  0  0  0  0
    0.8189    0.9038    0.7608 H   0  0  0  0  0  0  0  0  0  0  0  0
    1.5591    2.0202   -0.3779 H   0  0  0  0  0  0  0  0  0  0  0  0
   -4.0301   -1.4270   -1.5287 H   0  0  0  0  0  0  0  0  0  0  0  0
   -4.8755    2.0377   -1.8481 H   0  0  0  0  0  0  0  0  0  0  0  0
   -3.8012    3.3999   -1.5839 H   0  0  0  0  0  0  0  0  0  0  0  0
   -3.1614    4.0772    0.7916 H   0  0  0  0  0  0  0  0  0  0  0  0
   -3.9741    4.2698    3.1168 H   0  0  0  0  0  0  0  0  0  0  0  0
   -5.8514    2.8506    3.9049 H   0  0  0  0  0  0  0  0  0  0  0  0
   -6.9130    1.2290    2.3580 H   0  0  0  0  0  0  0  0  0  0  0  0
   -6.1095    1.0233    0.0288 H   0  0  0  0  0  0  0  0  0  0  0  0
   -0.3206    3.2723   -1.2782 H   0  0  0  0  0  0  0  0  0  0  0  0
   -1.8341   -4.1279   -3.5509 H   0  0  0  0  0  0  0  0  0  0  0  0
   -2.8700   -5.6781   -1.5508 H   0  0  0  0  0  0  0  0  0  0  0  0
   -3.3844   -5.6812    0.8873 H   0  0  0  0  0  0  0  0  0  0  0  0
   -2.8147   -3.7208    2.2929 H   0  0  0  0  0  0  0  0  0  0  0  0
   -1.7065   -1.7300    1.3009 H   0  0  0  0  0  0  0  0  0  0  0  0
  1  2  1  0
  2  3  1  0
  2  4  1  0
  2  5  1  0
  5  6  1  0
  6  7  2  0
  6  8  1  0
  8  9  1  0
  9 10  1  0
 10 11  1  0
 11 12  1  0
 12 13  1  0
 12 14  1  0
 14 15  1  0
 15 16  2  0
 16 17  1  0
 16 18  1  0
 18 19  1  0
 19 20  1  0
 20 21  2  0
 21 22  1  0
 22 23  2  0
 23 24  1  0
 24 25  2  0
 18 26  1  0
 26 27  1  0
 15 28  1  0
 28 29  1  0
 29 30  2  0
 29 31  1  0
 31 32  1  0
 32 33  2  0
 33 34  1  0
 34 35  2  0
 35 36  1  0
 36 37  2  0
 13  8  1  0
 26 14  2  0
 37 28  1  0
 28 11  1  1
 37 32  1  0
 25 20  1  0
  1 38  1  0
  1 39  1  0
  1 40  1  0
  3 41  1  0
  3 42  1  0
  3 43  1  0
  4 44  1  0
  4 45  1  0
  4 46  1  0
  9 47  1  0
  9 48  1  0
 10 49  1  0
 10 50  1  0
 12 51  1  6
 13 52  1  0
 13 53  1  0
 17 54  1  0
 19 55  1  0
 19 56  1  0
 21 57  1  0
 22 58  1  0
 23 59  1  0
 24 60  1  0
 25 61  1  0
 27 62  1  0
 31 63  1  0
 33 64  1  0
 34 65  1  0
 35 66  1  0
 36 67  1  0
M  END
$$$$
