
     RDKit          3D

 60 64  0  0  0  0  0  0  0  0999 V2000
   -6.1730   -1.9589    0.1601 C   0  0  0  0  0  0  0  0  0  0  0  0
   -5.5884   -1.8511   -1.2468 C   0  0  0  0  0  0  0  0  0  0  0  0
   -4.0738   -1.5852   -1.2721 C   0  0  0  0  0  0  0  0  0  0  0  0
   -3.3734   -2.6422   -0.5539 N   0  0  0  0  0  0  0  0  0  0  0  0
   -1.9970   -2.4334   -0.4676 C   0  0  0  0  0  0  0  0  0  0  0  0
   -1.2672   -3.5593   -0.4502 N   0  0  0  0  0  0  0  0  0  0  0  0
    0.0442   -3.4003   -0.2673 C   0  0  0  0  0  0  0  0  0  0  0  0
    0.6806   -2.2335   -0.1291 N   0  0  0  0  0  0  0  0  0  0  0  0
   -0.0692   -1.1049   -0.1750 C   0  0  0  0  0  0  0  0  0  0  0  0
    0.6419    0.1154   -0.1591 N   0  0  0  0  0  0  0  0  0  0  0  0
    1.6884    0.1400    0.8957 C   0  0  0  0  0  0  0  0  0  0  0  0
    3.1109   -0.1306    0.3555 C   0  0  0  0  0  0  0  0  0  0  0  0
    3.4838    0.8455   -0.6920 N   0  0  0  0  0  0  0  0  0  0  0  0
    4.7863    0.9353   -1.1617 C   0  0  0  0  0  0  0  0  0  0  0  0
    5.7818    0.0099   -0.8042 C   0  0  0  0  0  0  0  0  0  0  0  0
    7.0991    0.1132   -1.2741 C   0  0  0  0  0  0  0  0  0  0  0  0
    7.4609    1.1580   -2.1137 C   0  0  0  0  0  0  0  0  0  0  0  0
    6.5041    2.0989   -2.4790 C   0  0  0  0  0  0  0  0  0  0  0  0
    5.1921    1.9887   -1.9995 C   0  0  0  0  0  0  0  0  0  0  0  0
    2.3607    1.3718   -1.4999 C   0  0  0  0  0  0  0  0  0  0  0  0
    1.1692    0.3863   -1.5222 C   0  0  0  0  0  0  0  0  0  0  0  0
   -1.4645   -1.1433   -0.3311 C   0  0  0  0  0  0  0  0  0  0  0  0
   -2.3712   -0.0165   -0.3351 N   0  0  0  0  0  0  0  0  0  0  0  0
   -1.9987    1.2834    0.2162 C   0  0  0  0  0  0  0  0  0  0  0  0
   -1.9813    1.3918    1.7314 C   0  0  0  0  0  0  0  0  0  0  0  0
   -1.6799    2.6458    2.3018 C   0  0  0  0  0  0  0  0  0  0  0  0
   -1.6826    2.8282    3.6860 C   0  0  0  0  0  0  0  0  0  0  0  0
   -1.9779    1.7575    4.5246 C   0  0  0  0  0  0  0  0  0  0  0  0
   -2.2752    0.5085    3.9787 C   0  0  0  0  0  0  0  0  0  0  0  0
   -2.2838    0.3268    2.5933 C   0  0  0  0  0  0  0  0  0  0  0  0
   -3.7121   -0.1902   -0.7147 C   0  0  0  0  0  0  0  0  0  0  0  0
   -4.5377    0.7261   -0.6998 O   0  0  0  0  0  0  0  0  0  0  0  0
   -6.0082   -1.0416    0.7366 H   0  0  0  0  0  0  0  0  0  0  0  0
   -7.2565   -2.1348    0.1156 H   0  0  0  0  0  0  0  0  0  0  0  0
   -5.7329   -2.7951    0.7126 H   0  0  0  0  0  0  0  0  0  0  0  0
   -6.1154   -1.0540   -1.7865 H   0  0  0  0  0  0  0  0  0  0  0  0
   -5.8006   -2.7872   -1.7807 H   0  0  0  0  0  0  0  0  0  0  0  0
   -3.7512   -1.5886   -2.3215 H   0  0  0  0  0  0  0  0  0  0  0  0
   -3.5466   -3.6006   -0.8445 H   0  0  0  0  0  0  0  0  0  0  0  0
    0.6521   -4.3006   -0.2346 H   0  0  0  0  0  0  0  0  0  0  0  0
    1.4560   -0.5485    1.7195 H   0  0  0  0  0  0  0  0  0  0  0  0
    1.6681    1.1465    1.3364 H   0  0  0  0  0  0  0  0  0  0  0  0
    3.1718   -1.1480   -0.0506 H   0  0  0  0  0  0  0  0  0  0  0  0
    3.8067   -0.0546    1.2000 H   0  0  0  0  0  0  0  0  0  0  0  0
    5.5531   -0.8291   -0.1546 H   0  0  0  0  0  0  0  0  0  0  0  0
    7.8419   -0.6232   -0.9703 H   0  0  0  0  0  0  0  0  0  0  0  0
    8.4846    1.2477   -2.4683 H   0  0  0  0  0  0  0  0  0  0  0  0
    6.7782    2.9290   -3.1235 H   0  0  0  0  0  0  0  0  0  0  0  0
    4.4921    2.7730   -2.2740 H   0  0  0  0  0  0  0  0  0  0  0  0
    2.0418    2.3331   -1.0772 H   0  0  0  0  0  0  0  0  0  0  0  0
    2.6519    1.5433   -2.5428 H   0  0  0  0  0  0  0  0  0  0  0  0
    1.5038   -0.5395   -2.0144 H   0  0  0  0  0  0  0  0  0  0  0  0
    0.3647    0.8134   -2.1360 H   0  0  0  0  0  0  0  0  0  0  0  0
   -2.7288    2.0283   -0.1353 H   0  0  0  0  0  0  0  0  0  0  0  0
   -1.0571    1.6324   -0.2111 H   0  0  0  0  0  0  0  0  0  0  0  0
   -1.4551    3.4984    1.6615 H   0  0  0  0  0  0  0  0  0  0  0  0
   -1.4708    3.8102    4.1066 H   0  0  0  0  0  0  0  0  0  0  0  0
   -1.9851    1.8952    5.6022 H   0  0  0  0  0  0  0  0  0  0  0  0
   -2.5134   -0.3287    4.6310 H   0  0  0  0  0  0  0  0  0  0  0  0
   -2.5419   -0.6584    2.2086 H   0  0  0  0  0  0  0  0  0  0  0  0
  1  2  1  0
  2  3  1  0
  3  4  1  0
  4  5  1  0
  5  6  2  0
  6  7  1  0
  7  8  2  0
  8  9  1  0
  9 10  1  0
 10 11  1  0
 11 12  1  0
 12 13  1  0
 13 14  1  0
 14 15  2  0
 15 16  1  0
 16 17  2  0
 17 18  1  0
 18 19  2  0
 13 20  1  0
 20 21  1  0
  9 22  2  0
 22 23  1  0
 23 24  1  0
 24 25  1  0
 25 26  2  0
 26 27  1  0
 27 28  2  0
 28 29  1  0
 29 30  2  0
 23 31  1  0
 31 32  2  0
 31  3  1  0
 22  5  1  0
 30 25  1  0
 21 10  1  0
 19 14  1  0
  1 33  1  0
  1 34  1  0
  1 35  1  0
  2 36  1  0
  2 37  1  0
  3 38  1  0
  4 39  1  0
  7 40  1  0
 11 41  1  0
 11 42  1  0
 12 43  1  0
 12 44  1  0
 15 45  1  0
 16 46  1  0
 17 47  1  0
 18 48  1  0
 19 49  1  0
 20 50  1  0
 20 51  1  0
 21 52  1  0
 21 53  1  0
 24 54  1  0
 24 55  1  0
 26 56  1  0
 27 57  1  0
 28 58  1  0
 29 59  1  0
 30 60  1  0
M  END
$$$$
