
     RDKit          3D

 55 57  0  0  0  0  0  0  0  0999 V2000
    3.7773    1.6159    3.4843 C   0  0  0  0  0  0  0  0  0  0  0  0
    3.1138    2.5114    2.4335 C   0  0  0  0  0  0  0  0  0  0  0  0
    4.0894    2.7838    1.2863 C   0  0  0  0  0  0  0  0  0  0  0  0
    1.7566    1.9678    1.9321 C   0  0  0  0  0  0  0  0  0  0  0  0
    0.7706    2.1225    3.0382 N   0  0  0  0  0  0  0  0  0  0  0  0
   -0.6202    3.0160    2.7702 S   0  0  0  0  0  6  0  0  0  0  0  0
   -0.2185    4.2790    2.1913 O   0  0  0  0  0  0  0  0  0  0  0  0
   -1.4033    2.9479    3.9849 O   0  0  0  0  0  0  0  0  0  0  0  0
   -1.4753    2.0773    1.5318 C   0  0  0  0  0  0  0  0  0  0  0  0
   -2.1461    0.9079    1.9070 C   0  0  0  0  0  0  0  0  0  0  0  0
   -2.8554    0.1835    0.9480 C   0  0  0  0  0  0  0  0  0  0  0  0
   -2.8977    0.6329   -0.3710 C   0  0  0  0  0  0  0  0  0  0  0  0
   -2.2077    1.7942   -0.7411 C   0  0  0  0  0  0  0  0  0  0  0  0
   -1.5137    2.5343    0.2125 C   0  0  0  0  0  0  0  0  0  0  0  0
   -2.1770    2.2682   -2.0272 O   0  0  0  0  0  0  0  0  0  0  0  0
   -2.5681    1.2518   -2.9562 C   0  0  0  0  0  0  0  0  0  0  0  0
   -3.8426    0.5721   -2.4888 C   0  0  0  0  0  0  0  0  0  0  0  0
   -3.6291   -0.1216   -1.2540 O   0  0  0  0  0  0  0  0  0  0  0  0
    1.7792    0.4871    1.5423 C   0  0  0  0  0  0  0  0  0  0  0  0
    1.2032   -0.3935    2.1754 O   0  0  0  0  0  0  0  0  0  0  0  0
    2.5176    0.2769    0.4200 O   0  0  0  0  0  0  0  0  0  0  0  0
    2.4910   -1.0693   -0.0537 C   0  0  0  0  0  0  0  0  0  0  0  0
    1.1670   -1.4260   -0.7397 C   0  0  0  0  0  0  0  0  0  0  0  0
    0.3693   -0.5563   -1.0769 O   0  0  0  0  0  0  0  0  0  0  0  0
    1.0275   -2.7876   -0.9477 N   0  0  0  0  0  0  0  0  0  0  0  0
   -0.0873   -3.4708   -1.4959 C   0  0  0  0  0  0  0  0  0  0  0  0
   -1.3117   -2.8391   -1.7380 C   0  0  0  0  0  0  0  0  0  0  0  0
   -2.3927   -3.5486   -2.2670 C   0  0  0  0  0  0  0  0  0  0  0  0
   -2.2600   -4.9026   -2.5694 C   0  0  0  0  0  0  0  0  0  0  0  0
   -1.0467   -5.5544   -2.3331 C   0  0  0  0  0  0  0  0  0  0  0  0
   -0.9570   -7.2375   -2.7226 Cl  0  0  0  0  0  0  0  0  0  0  0  0
    0.0379   -4.8471   -1.7907 C   0  0  0  0  0  0  0  0  0  0  0  0
    1.5562   -5.6428   -1.4797 Cl  0  0  0  0  0  0  0  0  0  0  0  0
    4.0577    0.6416    3.0689 H   0  0  0  0  0  0  0  0  0  0  0  0
    3.1131    1.4455    4.3375 H   0  0  0  0  0  0  0  0  0  0  0  0
    4.6895    2.0871    3.8654 H   0  0  0  0  0  0  0  0  0  0  0  0
    2.9235    3.4820    2.9122 H   0  0  0  0  0  0  0  0  0  0  0  0
    3.6237    3.4017    0.5130 H   0  0  0  0  0  0  0  0  0  0  0  0
    4.9692    3.3234    1.6546 H   0  0  0  0  0  0  0  0  0  0  0  0
    4.4448    1.8600    0.8218 H   0  0  0  0  0  0  0  0  0  0  0  0
    1.4259    2.5397    1.0577 H   0  0  0  0  0  0  0  0  0  0  0  0
    0.6113    1.2824    3.6016 H   0  0  0  0  0  0  0  0  0  0  0  0
   -2.1298    0.5635    2.9387 H   0  0  0  0  0  0  0  0  0  0  0  0
   -3.3829   -0.7229    1.2297 H   0  0  0  0  0  0  0  0  0  0  0  0
   -1.0056    3.4489   -0.0816 H   0  0  0  0  0  0  0  0  0  0  0  0
   -2.7304    1.7313   -3.9253 H   0  0  0  0  0  0  0  0  0  0  0  0
   -1.7445    0.5370   -3.0631 H   0  0  0  0  0  0  0  0  0  0  0  0
   -4.6533    1.2956   -2.3422 H   0  0  0  0  0  0  0  0  0  0  0  0
   -4.1712   -0.1639   -3.2291 H   0  0  0  0  0  0  0  0  0  0  0  0
    2.7111   -1.7720    0.7595 H   0  0  0  0  0  0  0  0  0  0  0  0
    3.2860   -1.1657   -0.8008 H   0  0  0  0  0  0  0  0  0  0  0  0
    1.8293   -3.3796   -0.7468 H   0  0  0  0  0  0  0  0  0  0  0  0
   -1.4688   -1.7905   -1.5019 H   0  0  0  0  0  0  0  0  0  0  0  0
   -3.3376   -3.0349   -2.4426 H   0  0  0  0  0  0  0  0  0  0  0  0
   -3.1076   -5.4437   -2.9835 H   0  0  0  0  0  0  0  0  0  0  0  0
  1  2  1  0
  2  3  1  0
  2  4  1  0
  4  5  1  0
  5  6  1  0
  6  7  2  0
  6  8  2  0
  6  9  1  0
  9 10  2  0
 10 11  1  0
 11 12  2  0
 12 13  1  0
 13 14  2  0
 13 15  1  0
 15 16  1  0
 16 17  1  0
 17 18  1  0
  4 19  1  0
 19 20  2  0
 19 21  1  0
 21 22  1  0
 22 23  1  0
 23 24  2  0
 23 25  1  0
 25 26  1  0
 26 27  2  0
 27 28  1  0
 28 29  2  0
 29 30  1  0
 30 31  1  0
 30 32  2  0
 32 33  1  0
 14  9  1  0
 32 26  1  0
 18 12  1  0
  1 34  1  0
  1 35  1  0
  1 36  1  0
  2 37  1  0
  3 38  1  0
  3 39  1  0
  3 40  1  0
  4 41  1  0
  5 42  1  0
 10 43  1  0
 11 44  1  0
 14 45  1  0
 16 46  1  0
 16 47  1  0
 17 48  1  0
 17 49  1  0
 22 50  1  0
 22 51  1  0
 25 52  1  0
 27 53  1  0
 28 54  1  0
 29 55  1  0
M  END
$$$$
