
     RDKit          3D

 44 46  0  0  0  0  0  0  0  0999 V2000
   -3.2556   -1.1491   -3.0163 C   0  0  0  0  0  0  0  0  0  0  0  0
   -3.7215   -0.7249   -1.6545 C   0  0  0  0  0  0  0  0  0  0  0  0
   -4.9480   -0.0755   -1.4965 C   0  0  0  0  0  0  0  0  0  0  0  0
   -5.3842    0.3057   -0.2276 C   0  0  0  0  0  0  0  0  0  0  0  0
   -4.6089    0.0286    0.9068 C   0  0  0  0  0  0  0  0  0  0  0  0
   -5.0954    0.4536    2.2644 C   0  0  0  0  0  0  0  0  0  0  0  0
   -3.3901   -0.6557    0.7589 C   0  0  0  0  0  0  0  0  0  0  0  0
   -2.6911   -0.8834    1.9166 O   0  0  0  0  0  0  0  0  0  0  0  0
   -1.7130   -1.9262    1.9187 C   0  0  0  0  0  0  0  0  0  0  0  0
   -0.3847   -1.3457    1.6214 C   0  0  0  0  0  0  0  0  0  0  0  0
    0.1994   -0.1168    1.7990 C   0  0  0  0  0  0  0  0  0  0  0  0
    1.5181   -0.2523    1.2801 C   0  0  0  0  0  0  0  0  0  0  0  0
    2.5213    0.8269    1.2158 C   0  0  0  0  0  0  0  0  0  0  0  0
    2.1562    1.9904    1.4059 O   0  0  0  0  0  0  0  0  0  0  0  0
    3.8693    0.5471    0.9528 N   0  0  0  0  0  0  0  0  0  0  0  0
    4.4264   -0.7859    0.7614 C   0  0  0  0  0  0  0  0  0  0  0  0
    4.7365    1.6727    0.6005 C   0  0  0  0  0  0  0  0  0  0  0  0
    4.8940    1.7683   -0.8926 C   0  0  0  0  0  0  0  0  0  0  0  0
    5.8104    1.1180   -1.5854 N   0  0  0  0  0  0  0  0  0  0  0  0
    5.6766    1.4139   -2.9272 C   0  0  0  0  0  0  0  0  0  0  0  0
    4.6632    2.2903   -3.2460 C   0  0  0  0  0  0  0  0  0  0  0  0
    3.8420    2.7674   -1.8211 S   0  0  0  0  0  0  0  0  0  0  0  0
    1.6914   -1.4963    0.8018 N   0  0  0  0  0  0  0  0  0  0  0  0
    0.5131   -2.1752    1.0305 O   0  0  0  0  0  0  0  0  0  0  0  0
   -2.9515   -1.0197   -0.5196 C   0  0  0  0  0  0  0  0  0  0  0  0
   -2.1632   -1.1138   -3.0834 H   0  0  0  0  0  0  0  0  0  0  0  0
   -3.6493   -0.4827   -3.7909 H   0  0  0  0  0  0  0  0  0  0  0  0
   -3.5910   -2.1696   -3.2248 H   0  0  0  0  0  0  0  0  0  0  0  0
   -5.5688    0.1473   -2.3612 H   0  0  0  0  0  0  0  0  0  0  0  0
   -6.3360    0.8228   -0.1301 H   0  0  0  0  0  0  0  0  0  0  0  0
   -6.0483    0.9891    2.2003 H   0  0  0  0  0  0  0  0  0  0  0  0
   -4.3702    1.1254    2.7348 H   0  0  0  0  0  0  0  0  0  0  0  0
   -5.2484   -0.4223    2.9030 H   0  0  0  0  0  0  0  0  0  0  0  0
   -1.9811   -2.7537    1.2517 H   0  0  0  0  0  0  0  0  0  0  0  0
   -1.6937   -2.3397    2.9334 H   0  0  0  0  0  0  0  0  0  0  0  0
   -0.2520    0.7663    2.2285 H   0  0  0  0  0  0  0  0  0  0  0  0
    4.1741   -1.1437   -0.2408 H   0  0  0  0  0  0  0  0  0  0  0  0
    5.5151   -0.7562    0.8722 H   0  0  0  0  0  0  0  0  0  0  0  0
    4.0413   -1.4701    1.5211 H   0  0  0  0  0  0  0  0  0  0  0  0
    4.3537    2.6140    1.0090 H   0  0  0  0  0  0  0  0  0  0  0  0
    5.7151    1.5091    1.0667 H   0  0  0  0  0  0  0  0  0  0  0  0
    6.3527    0.9576   -3.6399 H   0  0  0  0  0  0  0  0  0  0  0  0
    4.3745    2.6617   -4.2185 H   0  0  0  0  0  0  0  0  0  0  0  0
   -1.9982   -1.5179   -0.6670 H   0  0  0  0  0  0  0  0  0  0  0  0
  1  2  1  0
  2  3  2  0
  3  4  1  0
  4  5  2  0
  5  6  1  0
  5  7  1  0
  7  8  1  0
  8  9  1  0
  9 10  1  0
 10 11  2  0
 11 12  1  0
 12 13  1  0
 13 14  2  0
 13 15  1  0
 15 16  1  0
 15 17  1  0
 17 18  1  0
 18 19  2  0
 19 20  1  0
 20 21  2  0
 21 22  1  0
 12 23  2  0
 23 24  1  0
  7 25  2  0
 25  2  1  0
 24 10  1  0
 22 18  1  0
  1 26  1  0
  1 27  1  0
  1 28  1  0
  3 29  1  0
  4 30  1  0
  6 31  1  0
  6 32  1  0
  6 33  1  0
  9 34  1  0
  9 35  1  0
 11 36  1  0
 16 37  1  0
 16 38  1  0
 16 39  1  0
 17 40  1  0
 17 41  1  0
 20 42  1  0
 21 43  1  0
 25 44  1  0
M  END
$$$$
