
     RDKit          3D

 48 50  0  0  0  0  0  0  0  0999 V2000
    5.8231   -0.2257   -1.0906 C   0  0  0  0  0  0  0  0  0  0  0  0
    4.5925   -1.1089   -1.2268 C   0  0  0  0  0  0  0  0  0  0  0  0
    3.7359   -1.0181   -0.0372 N   0  0  0  0  0  0  0  0  0  0  0  0
    4.0664   -1.9127    1.0808 C   0  0  0  0  0  0  0  0  0  0  0  0
    4.6125   -1.1415    2.2747 C   0  0  0  0  0  0  0  0  0  0  0  0
    2.6340   -0.1684   -0.0043 C   0  0  0  0  0  0  0  0  0  0  0  0
    1.5985   -0.3184    0.9341 C   0  0  0  0  0  0  0  0  0  0  0  0
    0.4859    0.5364    0.9737 C   0  0  0  0  0  0  0  0  0  0  0  0
    0.3697    1.5819    0.0616 C   0  0  0  0  0  0  0  0  0  0  0  0
   -0.7641    2.5075    0.1095 C   0  0  0  0  0  0  0  0  0  0  0  0
   -2.0400    2.2662   -0.2553 C   0  0  0  0  0  0  0  0  0  0  0  0
   -2.9951    3.3775   -0.0501 C   0  0  0  0  0  0  0  0  0  0  0  0
   -2.6797    4.4817    0.3822 O   0  0  0  0  0  0  0  0  0  0  0  0
   -4.2868    3.0958   -0.3725 N   0  0  0  0  0  0  0  0  0  0  0  0
   -4.8000    1.8999   -0.7763 C   0  0  0  0  0  0  0  0  0  0  0  0
   -6.0100    1.8163   -0.9765 O   0  0  0  0  0  0  0  0  0  0  0  0
   -3.9041    0.8686   -0.9577 N   0  0  0  0  0  0  0  0  0  0  0  0
   -4.4314   -0.4248   -1.3726 C   0  0  0  0  0  0  0  0  0  0  0  0
   -4.5135   -1.3183   -0.1829 C   0  0  0  0  0  0  0  0  0  0  0  0
   -3.6483   -2.2430    0.3672 C   0  0  0  0  0  0  0  0  0  0  0  0
   -4.2976   -2.7667    1.5100 C   0  0  0  0  0  0  0  0  0  0  0  0
   -5.5128   -2.1278    1.5867 C   0  0  0  0  0  0  0  0  0  0  0  0
   -5.6515   -1.2442    0.5652 O   0  0  0  0  0  0  0  0  0  0  0  0
   -2.5263    0.9830   -0.8309 C   0  0  0  0  0  0  0  0  0  0  0  0
   -1.7596    0.0917   -1.1875 O   0  0  0  0  0  0  0  0  0  0  0  0
    1.3807    1.7658   -0.8764 C   0  0  0  0  0  0  0  0  0  0  0  0
    2.4862    0.9017   -0.9048 C   0  0  0  0  0  0  0  0  0  0  0  0
    5.5537    0.8192   -0.9137 H   0  0  0  0  0  0  0  0  0  0  0  0
    6.4252   -0.2737   -2.0034 H   0  0  0  0  0  0  0  0  0  0  0  0
    6.4530   -0.5534   -0.2581 H   0  0  0  0  0  0  0  0  0  0  0  0
    4.0443   -0.8644   -2.1444 H   0  0  0  0  0  0  0  0  0  0  0  0
    4.9178   -2.1473   -1.3698 H   0  0  0  0  0  0  0  0  0  0  0  0
    4.8344   -2.6331    0.7728 H   0  0  0  0  0  0  0  0  0  0  0  0
    3.2050   -2.5247    1.3694 H   0  0  0  0  0  0  0  0  0  0  0  0
    5.4981   -0.5609    1.9985 H   0  0  0  0  0  0  0  0  0  0  0  0
    4.8980   -1.8357    3.0718 H   0  0  0  0  0  0  0  0  0  0  0  0
    3.8751   -0.4459    2.6851 H   0  0  0  0  0  0  0  0  0  0  0  0
    1.6186   -1.1230    1.6617 H   0  0  0  0  0  0  0  0  0  0  0  0
   -0.2828    0.3648    1.7225 H   0  0  0  0  0  0  0  0  0  0  0  0
   -0.4854    3.4851    0.5050 H   0  0  0  0  0  0  0  0  0  0  0  0
   -4.9586    3.8361   -0.2270 H   0  0  0  0  0  0  0  0  0  0  0  0
   -5.4211   -0.3203   -1.8308 H   0  0  0  0  0  0  0  0  0  0  0  0
   -3.7748   -0.8702   -2.1288 H   0  0  0  0  0  0  0  0  0  0  0  0
   -2.6671   -2.4976   -0.0126 H   0  0  0  0  0  0  0  0  0  0  0  0
   -3.9264   -3.5161    2.1948 H   0  0  0  0  0  0  0  0  0  0  0  0
   -6.3478   -2.1842    2.2712 H   0  0  0  0  0  0  0  0  0  0  0  0
    1.3289    2.5794   -1.5956 H   0  0  0  0  0  0  0  0  0  0  0  0
    3.2475    1.1105   -1.6499 H   0  0  0  0  0  0  0  0  0  0  0  0
  1  2  1  0
  2  3  1  0
  3  4  1  0
  4  5  1  0
  3  6  1  0
  6  7  2  0
  7  8  1  0
  8  9  2  0
  9 10  1  0
 10 11  2  3
 11 12  1  0
 12 13  2  0
 12 14  1  0
 14 15  1  0
 15 16  2  0
 15 17  1  0
 17 18  1  0
 18 19  1  0
 19 20  2  0
 20 21  1  0
 21 22  2  0
 22 23  1  0
 17 24  1  0
 24 25  2  0
  9 26  1  0
 26 27  2  0
 27  6  1  0
 24 11  1  0
 23 19  1  0
  1 28  1  0
  1 29  1  0
  1 30  1  0
  2 31  1  0
  2 32  1  0
  4 33  1  0
  4 34  1  0
  5 35  1  0
  5 36  1  0
  5 37  1  0
  7 38  1  0
  8 39  1  0
 10 40  1  0
 14 41  1  0
 18 42  1  0
 18 43  1  0
 20 44  1  0
 21 45  1  0
 22 46  1  0
 26 47  1  0
 27 48  1  0
M  END
$$$$
