
     RDKit          3D

 38 41  0  0  0  0  0  0  0  0999 V2000
    8.1539    1.6586    0.3798 C   0  0  0  0  0  0  0  0  0  0  0  0
    6.6767    1.7920    0.4125 C   0  0  0  0  0  0  0  0  0  0  0  0
    6.0223    2.9085    0.6524 N   0  0  0  0  0  0  0  0  0  0  0  0
    4.6551    2.7205    0.6155 N   0  0  0  0  0  0  0  0  0  0  0  0
    4.3301    1.4743    0.3506 C   0  0  0  0  0  0  0  0  0  0  0  0
    3.0233    1.0698    0.2671 N   0  0  0  0  0  0  0  0  0  0  0  0
    2.5470   -0.1950   -0.0001 C   0  0  0  0  0  0  0  0  0  0  0  0
    3.2578   -1.1762   -0.2060 O   0  0  0  0  0  0  0  0  0  0  0  0
    1.0838   -0.3043   -0.0231 C   0  0  0  0  0  0  0  0  0  0  0  0
    0.0793    1.0045    0.4388 S   0  0  0  0  0  0  0  0  0  0  0  0
   -1.3397    0.1109    0.1688 C   0  0  0  0  0  0  0  0  0  0  0  0
   -2.5346    0.6889    0.3846 N   0  0  0  0  0  0  0  0  0  0  0  0
   -3.6087   -0.0804    0.1252 C   0  0  0  0  0  0  0  0  0  0  0  0
   -4.8922    0.6079    0.3759 C   0  0  0  0  0  0  0  0  0  0  0  0
   -5.0891    1.9292    0.7529 C   0  0  0  0  0  0  0  0  0  0  0  0
   -6.4620    2.2727    0.9151 C   0  0  0  0  0  0  0  0  0  0  0  0
   -7.2879    1.2039    0.6609 C   0  0  0  0  0  0  0  0  0  0  0  0
   -6.4083   -0.1948    0.2331 S   0  0  0  0  0  0  0  0  0  0  0  0
   -3.5062   -1.3855   -0.3408 C   0  0  0  0  0  0  0  0  0  0  0  0
   -2.2425   -1.9780   -0.5513 C   0  0  0  0  0  0  0  0  0  0  0  0
   -2.1703   -3.3793   -1.0951 C   0  0  0  0  0  0  0  0  0  0  0  0
   -1.8355   -3.4144   -2.4128 F   0  0  0  0  0  0  0  0  0  0  0  0
   -1.2582   -4.1625   -0.4509 F   0  0  0  0  0  0  0  0  0  0  0  0
   -3.3523   -4.0527   -0.9979 F   0  0  0  0  0  0  0  0  0  0  0  0
   -1.0998   -1.1825   -0.2760 C   0  0  0  0  0  0  0  0  0  0  0  0
    0.3199   -1.4085   -0.3693 C   0  0  0  0  0  0  0  0  0  0  0  0
    0.8716   -2.5798   -0.7681 N   0  0  0  0  0  0  0  0  0  0  0  0
    5.6624    0.4374    0.1268 S   0  0  0  0  0  0  0  0  0  0  0  0
    8.4928    1.3153   -0.6027 H   0  0  0  0  0  0  0  0  0  0  0  0
    8.4980    0.9482    1.1382 H   0  0  0  0  0  0  0  0  0  0  0  0
    8.6303    2.6233    0.5818 H   0  0  0  0  0  0  0  0  0  0  0  0
    2.3577    1.8145    0.4248 H   0  0  0  0  0  0  0  0  0  0  0  0
   -4.2700    2.6233    0.9056 H   0  0  0  0  0  0  0  0  0  0  0  0
   -6.8213    3.2528    1.2041 H   0  0  0  0  0  0  0  0  0  0  0  0
   -8.3680    1.1762    0.7070 H   0  0  0  0  0  0  0  0  0  0  0  0
   -4.3993   -1.9677   -0.5562 H   0  0  0  0  0  0  0  0  0  0  0  0
    1.8883   -2.6975   -0.6875 H   0  0  0  0  0  0  0  0  0  0  0  0
    0.3957   -3.4733   -0.6429 H   0  0  0  0  0  0  0  0  0  0  0  0
  1  2  1  0
  2  3  2  0
  3  4  1  0
  4  5  2  0
  5  6  1  0
  6  7  1  0
  7  8  2  0
  7  9  1  0
  9 10  1  0
 10 11  1  0
 11 12  2  0
 12 13  1  0
 13 14  1  0
 14 15  2  0
 15 16  1  0
 16 17  2  0
 17 18  1  0
 13 19  2  0
 19 20  1  0
 20 21  1  0
 21 22  1  0
 21 23  1  0
 21 24  1  0
 20 25  2  0
 25 26  1  0
 26 27  1  0
  5 28  1  0
 28  2  1  0
 26  9  2  0
 25 11  1  0
 18 14  1  0
  1 29  1  0
  1 30  1  0
  1 31  1  0
  6 32  1  0
 15 33  1  0
 16 34  1  0
 17 35  1  0
 19 36  1  0
 27 37  1  0
 27 38  1  0
M  END
$$$$
