
     RDKit          3D

 61 64  0  0  0  0  0  0  0  0999 V2000
   -6.8298   -3.7418    1.2162 C   0  0  0  0  0  0  0  0  0  0  0  0
   -6.2159   -2.4556    1.1222 O   0  0  0  0  0  0  0  0  0  0  0  0
   -5.3342   -2.3350    0.0874 C   0  0  0  0  0  0  0  0  0  0  0  0
   -5.0669   -3.2214   -0.7113 O   0  0  0  0  0  0  0  0  0  0  0  0
   -4.7505   -0.9415    0.0893 C   0  0  0  0  0  0  0  0  0  0  0  0
   -3.7128   -0.7240   -1.0115 C   0  0  0  0  0  0  0  0  0  0  0  0
   -2.3912   -1.3898   -0.7239 C   0  0  0  0  0  0  0  0  0  0  0  0
   -1.1749   -0.8488   -0.4840 C   0  0  0  0  0  0  0  0  0  0  0  0
   -0.0536   -1.8149   -0.4417 C   0  0  0  0  0  0  0  0  0  0  0  0
    1.2355   -1.4218   -0.4273 C   0  0  0  0  0  0  0  0  0  0  0  0
    2.3898   -2.3690   -0.3157 C   0  0  0  0  0  0  0  0  0  0  0  0
    3.5259   -1.9877   -1.2478 C   0  0  0  0  0  0  0  0  0  0  0  0
    4.1955   -2.8670   -1.8010 O   0  0  0  0  0  0  0  0  0  0  0  0
    3.8735   -0.4981   -1.4102 C   0  0  0  0  0  0  0  0  0  0  0  0
    3.7007   -0.1639   -2.9019 C   0  0  0  0  0  0  0  0  0  0  0  0
    5.2544   -0.2375   -1.1246 O   0  0  0  0  0  0  0  0  0  0  0  0
    5.6463   -0.4763    0.1594 C   0  0  0  0  0  0  0  0  0  0  0  0
    4.8925   -0.9266    1.0163 O   0  0  0  0  0  0  0  0  0  0  0  0
    7.0433   -0.1450    0.3729 C   0  0  0  0  0  0  0  0  0  0  0  0
    7.7424   -0.2612    1.5628 C   0  0  0  0  0  0  0  0  0  0  0  0
    9.1026    0.1466    1.4455 C   0  0  0  0  0  0  0  0  0  0  0  0
    9.4038    0.5627    0.1689 C   0  0  0  0  0  0  0  0  0  0  0  0
    8.0539    0.4583   -0.8739 S   0  0  0  0  0  0  0  0  0  0  0  0
    2.9425    0.4553   -0.6488 C   0  0  0  0  0  0  0  0  0  0  0  0
    3.2976    1.5710   -0.2689 O   0  0  0  0  0  0  0  0  0  0  0  0
    1.5408   -0.0069   -0.4689 C   0  0  0  0  0  0  0  0  0  0  0  0
    0.5373    0.8808   -0.3957 C   0  0  0  0  0  0  0  0  0  0  0  0
   -0.8160    0.5166   -0.3369 N   0  0  0  0  0  0  0  0  0  0  0  0
   -1.7254    1.5073    0.1438 C   0  0  0  0  0  0  0  0  0  0  0  0
   -2.3766    1.3482    1.3764 C   0  0  0  0  0  0  0  0  0  0  0  0
   -3.2530    2.3266    1.8614 C   0  0  0  0  0  0  0  0  0  0  0  0
   -3.4866    3.4849    1.1214 C   0  0  0  0  0  0  0  0  0  0  0  0
   -4.3174    4.5117    1.4746 O   0  0  0  0  0  0  0  0  0  0  0  0
   -4.9651    4.4106    2.7367 C   0  0  0  0  0  0  0  0  0  0  0  0
   -2.8327    3.6575   -0.1006 C   0  0  0  0  0  0  0  0  0  0  0  0
   -1.9539    2.6839   -0.5834 C   0  0  0  0  0  0  0  0  0  0  0  0
   -6.0739   -4.5163    1.3773 H   0  0  0  0  0  0  0  0  0  0  0  0
   -7.5045   -3.7334    2.0767 H   0  0  0  0  0  0  0  0  0  0  0  0
   -7.4176   -3.9527    0.3170 H   0  0  0  0  0  0  0  0  0  0  0  0
   -4.3154   -0.7536    1.0762 H   0  0  0  0  0  0  0  0  0  0  0  0
   -5.5804   -0.2427   -0.0688 H   0  0  0  0  0  0  0  0  0  0  0  0
   -3.5923    0.3463   -1.1883 H   0  0  0  0  0  0  0  0  0  0  0  0
   -4.0887   -1.1256   -1.9616 H   0  0  0  0  0  0  0  0  0  0  0  0
   -2.4603   -2.4754   -0.8215 H   0  0  0  0  0  0  0  0  0  0  0  0
   -0.2960   -2.8747   -0.4102 H   0  0  0  0  0  0  0  0  0  0  0  0
    2.7728   -2.3768    0.7100 H   0  0  0  0  0  0  0  0  0  0  0  0
    2.0783   -3.3906   -0.5629 H   0  0  0  0  0  0  0  0  0  0  0  0
    4.3973   -0.7436   -3.5191 H   0  0  0  0  0  0  0  0  0  0  0  0
    2.6839   -0.3704   -3.2543 H   0  0  0  0  0  0  0  0  0  0  0  0
    3.9194    0.8933   -3.0944 H   0  0  0  0  0  0  0  0  0  0  0  0
    7.2893   -0.6236    2.4791 H   0  0  0  0  0  0  0  0  0  0  0  0
    9.8215    0.1362    2.2557 H   0  0  0  0  0  0  0  0  0  0  0  0
   10.3526    0.9239   -0.2044 H   0  0  0  0  0  0  0  0  0  0  0  0
    0.7274    1.9519   -0.3792 H   0  0  0  0  0  0  0  0  0  0  0  0
   -2.1892    0.4592    1.9740 H   0  0  0  0  0  0  0  0  0  0  0  0
   -3.7299    2.1522    2.8198 H   0  0  0  0  0  0  0  0  0  0  0  0
   -4.2364    4.3663    3.5530 H   0  0  0  0  0  0  0  0  0  0  0  0
   -5.6427    3.5506    2.7638 H   0  0  0  0  0  0  0  0  0  0  0  0
   -5.5674    5.3134    2.8767 H   0  0  0  0  0  0  0  0  0  0  0  0
   -3.0075    4.5594   -0.6824 H   0  0  0  0  0  0  0  0  0  0  0  0
   -1.4619    2.8383   -1.5402 H   0  0  0  0  0  0  0  0  0  0  0  0
  1  2  1  0
  2  3  1  0
  3  4  2  0
  3  5  1  0
  5  6  1  0
  6  7  1  0
  7  8  2  3
  8  9  1  0
  9 10  2  0
 10 11  1  0
 11 12  1  0
 12 13  2  0
 12 14  1  0
 14 15  1  0
 14 16  1  0
 16 17  1  0
 17 18  2  0
 17 19  1  0
 19 20  2  0
 20 21  1  0
 21 22  2  0
 22 23  1  0
 14 24  1  0
 24 25  2  0
 24 26  1  0
 26 27  2  0
 27 28  1  0
 28 29  1  0
 29 30  2  0
 30 31  1  0
 31 32  2  0
 32 33  1  0
 33 34  1  0
 32 35  1  0
 35 36  2  0
 28  8  1  0
 36 29  1  0
 26 10  1  0
 23 19  1  0
  1 37  1  0
  1 38  1  0
  1 39  1  0
  5 40  1  0
  5 41  1  0
  6 42  1  0
  6 43  1  0
  7 44  1  0
  9 45  1  0
 11 46  1  0
 11 47  1  0
 15 48  1  0
 15 49  1  0
 15 50  1  0
 20 51  1  0
 21 52  1  0
 22 53  1  0
 27 54  1  0
 30 55  1  0
 31 56  1  0
 34 57  1  0
 34 58  1  0
 34 59  1  0
 35 60  1  0
 36 61  1  0
M  END
$$$$
