
     RDKit          3D

 43 45  0  0  0  0  0  0  0  0999 V2000
   -2.7774    4.7857   -0.0332 C   0  0  0  0  0  0  0  0  0  0  0  0
   -3.4026    3.4067   -0.1108 C   0  0  0  0  0  0  0  0  0  0  0  0
   -2.3484    2.4371   -0.0458 O   0  0  0  0  0  0  0  0  0  0  0  0
   -2.7695    1.1363   -0.0989 C   0  0  0  0  0  0  0  0  0  0  0  0
   -3.9485    0.8144   -0.1911 O   0  0  0  0  0  0  0  0  0  0  0  0
   -1.6673    0.1642   -0.0291 C   0  0  0  0  0  0  0  0  0  0  0  0
   -0.3161    0.4861    0.1015 C   0  0  0  0  0  0  0  0  0  0  0  0
    0.2246    1.7628    0.1727 N   0  0  0  0  0  0  0  0  0  0  0  0
    1.4941    2.2620    0.2876 C   0  0  0  0  0  0  0  0  0  0  0  0
    1.5909    3.9325    0.3960 S   0  0  0  0  0  0  0  0  0  0  0  0
    2.5502    1.3869    0.2951 N   0  0  0  0  0  0  0  0  0  0  0  0
    3.9244    1.6045    0.4185 C   0  0  0  0  0  0  0  0  0  0  0  0
    4.4496    2.6752    0.7019 O   0  0  0  0  0  0  0  0  0  0  0  0
    4.7068    0.3994    0.2103 C   0  0  0  0  0  0  0  0  0  0  0  0
    6.0692    0.1773    0.2803 C   0  0  0  0  0  0  0  0  0  0  0  0
    6.2766   -1.1904   -0.0192 C   0  0  0  0  0  0  0  0  0  0  0  0
    5.0314   -1.7227   -0.2546 C   0  0  0  0  0  0  0  0  0  0  0  0
    4.0729   -0.7708   -0.1197 O   0  0  0  0  0  0  0  0  0  0  0  0
    0.6672   -0.8941    0.1943 S   0  0  0  0  0  0  0  0  0  0  0  0
   -0.6459   -1.9460    0.0534 C   0  0  0  0  0  0  0  0  0  0  0  0
   -1.8447   -1.2764   -0.0827 C   0  0  0  0  0  0  0  0  0  0  0  0
   -3.1464   -2.0228   -0.2190 C   0  0  0  0  0  0  0  0  0  0  0  0
   -2.9347   -3.5107   -0.5433 C   0  0  0  0  0  0  0  0  0  0  0  0
   -1.8185   -4.1281    0.3072 C   0  0  0  0  0  0  0  0  0  0  0  0
   -0.4735   -3.4338    0.0539 C   0  0  0  0  0  0  0  0  0  0  0  0
   -3.5432    5.5648   -0.0793 H   0  0  0  0  0  0  0  0  0  0  0  0
   -2.2115    4.9002    0.8973 H   0  0  0  0  0  0  0  0  0  0  0  0
   -2.0708    4.9349   -0.8562 H   0  0  0  0  0  0  0  0  0  0  0  0
   -4.0902    3.2635    0.7301 H   0  0  0  0  0  0  0  0  0  0  0  0
   -3.9449    3.2990   -1.0568 H   0  0  0  0  0  0  0  0  0  0  0  0
   -0.4705    2.5092    0.1470 H   0  0  0  0  0  0  0  0  0  0  0  0
    2.3103    0.4224    0.1072 H   0  0  0  0  0  0  0  0  0  0  0  0
    6.8136    0.9252    0.5206 H   0  0  0  0  0  0  0  0  0  0  0  0
    7.2174   -1.7220   -0.0593 H   0  0  0  0  0  0  0  0  0  0  0  0
    4.6778   -2.7104   -0.5170 H   0  0  0  0  0  0  0  0  0  0  0  0
   -3.7612   -1.5804   -1.0104 H   0  0  0  0  0  0  0  0  0  0  0  0
   -3.6979   -1.9333    0.7248 H   0  0  0  0  0  0  0  0  0  0  0  0
   -2.6771   -3.6203   -1.6048 H   0  0  0  0  0  0  0  0  0  0  0  0
   -3.8725   -4.0553   -0.3853 H   0  0  0  0  0  0  0  0  0  0  0  0
   -1.7256   -5.1975    0.0864 H   0  0  0  0  0  0  0  0  0  0  0  0
   -2.0847   -4.0415    1.3685 H   0  0  0  0  0  0  0  0  0  0  0  0
   -0.0801   -3.7464   -0.9213 H   0  0  0  0  0  0  0  0  0  0  0  0
    0.2467   -3.7475    0.8183 H   0  0  0  0  0  0  0  0  0  0  0  0
  1  2  1  0
  2  3  1  0
  3  4  1  0
  4  5  2  0
  4  6  1  0
  6  7  2  0
  7  8  1  0
  8  9  1  0
  9 10  2  0
  9 11  1  0
 11 12  1  0
 12 13  2  0
 12 14  1  0
 14 15  2  0
 15 16  1  0
 16 17  2  0
 17 18  1  0
  7 19  1  0
 19 20  1  0
 20 21  2  0
 21 22  1  0
 22 23  1  0
 23 24  1  0
 24 25  1  0
 21  6  1  0
 18 14  1  0
 25 20  1  0
  1 26  1  0
  1 27  1  0
  1 28  1  0
  2 29  1  0
  2 30  1  0
  8 31  1  0
 11 32  1  0
 15 33  1  0
 16 34  1  0
 17 35  1  0
 22 36  1  0
 22 37  1  0
 23 38  1  0
 23 39  1  0
 24 40  1  0
 24 41  1  0
 25 42  1  0
 25 43  1  0
M  END
$$$$
