
     RDKit          3D

 61 65  0  0  0  0  0  0  0  0999 V2000
   -6.2004   -2.0500   -1.0716 C   0  0  0  0  0  0  0  0  0  0  0  0
   -4.9512   -2.8167   -1.0397 N   0  0  0  0  0  0  0  0  0  0  0  0
   -5.2515   -4.2343   -0.8179 C   0  0  0  0  0  0  0  0  0  0  0  0
   -4.1813   -2.6523   -2.2940 C   0  0  0  0  0  0  0  0  0  0  0  0
   -3.5031   -1.2720   -2.4678 C   0  0  0  0  0  0  0  0  0  0  0  0
   -2.5329   -0.9648   -1.4056 N   0  0  0  0  0  0  0  0  0  0  0  0
   -1.2695   -1.5544   -1.5423 C   0  0  0  0  0  0  0  0  0  0  0  0
   -1.0309   -2.4539   -2.3584 O   0  0  0  0  0  0  0  0  0  0  0  0
   -0.0784   -1.0198   -0.8411 C   0  0  0  0  0  0  0  0  0  0  0  0
    0.2391    0.3452   -0.9015 C   0  0  0  0  0  0  0  0  0  0  0  0
    1.3746    0.8189   -0.2416 C   0  0  0  0  0  0  0  0  0  0  0  0
    2.2001   -0.0807    0.4447 C   0  0  0  0  0  0  0  0  0  0  0  0
    3.6216    0.5519    1.3155 S   0  0  0  0  0  6  0  0  0  0  0  0
    4.2921   -0.5695    1.9438 O   0  0  0  0  0  0  0  0  0  0  0  0
    3.1415    1.6729    2.0980 O   0  0  0  0  0  0  0  0  0  0  0  0
    4.6015    1.1086    0.0316 N   0  0  0  0  0  0  0  0  0  0  0  0
    5.1103    0.0481   -0.9078 C   0  0  0  0  0  0  0  0  0  0  0  0
    6.6456    0.0809   -0.8441 C   0  0  0  0  0  0  0  0  0  0  0  0
    6.9173    1.3398   -0.0969 C   0  0  0  0  0  0  0  0  0  0  0  0
    8.1473    1.9344    0.1445 C   0  0  0  0  0  0  0  0  0  0  0  0
    8.1808    3.0995    0.9129 C   0  0  0  0  0  0  0  0  0  0  0  0
    6.9944    3.6507    1.4246 C   0  0  0  0  0  0  0  0  0  0  0  0
    5.7615    3.0432    1.1752 C   0  0  0  0  0  0  0  0  0  0  0  0
    5.7457    1.8729    0.4298 C   0  0  0  0  0  0  0  0  0  0  0  0
    1.9065   -1.4467    0.4813 C   0  0  0  0  0  0  0  0  0  0  0  0
    0.7708   -1.9176   -0.1781 C   0  0  0  0  0  0  0  0  0  0  0  0
   -2.9542   -0.1906   -0.3239 C   0  0  0  0  0  0  0  0  0  0  0  0
   -3.9627    0.6534   -0.3968 N   0  0  0  0  0  0  0  0  0  0  0  0
   -4.1688    1.2652    0.8241 C   0  0  0  0  0  0  0  0  0  0  0  0
   -5.1465    2.2462    1.1006 C   0  0  0  0  0  0  0  0  0  0  0  0
   -5.2160    2.8069    2.3796 C   0  0  0  0  0  0  0  0  0  0  0  0
   -4.3314    2.3964    3.3688 C   0  0  0  0  0  0  0  0  0  0  0  0
   -4.4099    2.9582    4.5830 F   0  0  0  0  0  0  0  0  0  0  0  0
   -3.3696    1.4128    3.1371 C   0  0  0  0  0  0  0  0  0  0  0  0
   -3.3089    0.8564    1.8490 C   0  0  0  0  0  0  0  0  0  0  0  0
   -2.2753   -0.3750    1.2408 S   0  0  0  0  0  0  0  0  0  0  0  0
   -6.8776   -2.3965   -1.8633 H   0  0  0  0  0  0  0  0  0  0  0  0
   -6.0216   -0.9801   -1.2228 H   0  0  0  0  0  0  0  0  0  0  0  0
   -6.7230   -2.1444   -0.1100 H   0  0  0  0  0  0  0  0  0  0  0  0
   -4.3290   -4.8104   -0.6783 H   0  0  0  0  0  0  0  0  0  0  0  0
   -5.8080   -4.6754   -1.6545 H   0  0  0  0  0  0  0  0  0  0  0  0
   -5.8432   -4.3610    0.0951 H   0  0  0  0  0  0  0  0  0  0  0  0
   -4.8237   -2.8424   -3.1639 H   0  0  0  0  0  0  0  0  0  0  0  0
   -3.3939   -3.4156   -2.3238 H   0  0  0  0  0  0  0  0  0  0  0  0
   -2.9680   -1.2710   -3.4268 H   0  0  0  0  0  0  0  0  0  0  0  0
   -4.2467   -0.4710   -2.5457 H   0  0  0  0  0  0  0  0  0  0  0  0
   -0.3989    1.0366   -1.4488 H   0  0  0  0  0  0  0  0  0  0  0  0
    1.6158    1.8806   -0.2575 H   0  0  0  0  0  0  0  0  0  0  0  0
    4.7405   -0.9561   -0.6742 H   0  0  0  0  0  0  0  0  0  0  0  0
    4.7611    0.2946   -1.9191 H   0  0  0  0  0  0  0  0  0  0  0  0
    7.0858    0.0800   -1.8450 H   0  0  0  0  0  0  0  0  0  0  0  0
    7.0266   -0.7759   -0.2802 H   0  0  0  0  0  0  0  0  0  0  0  0
    9.0677    1.4984   -0.2361 H   0  0  0  0  0  0  0  0  0  0  0  0
    9.1302    3.5869    1.1196 H   0  0  0  0  0  0  0  0  0  0  0  0
    7.0395    4.5640    2.0154 H   0  0  0  0  0  0  0  0  0  0  0  0
    4.8516    3.4818    1.5628 H   0  0  0  0  0  0  0  0  0  0  0  0
    2.5447   -2.1430    1.0196 H   0  0  0  0  0  0  0  0  0  0  0  0
    0.5376   -2.9802   -0.1669 H   0  0  0  0  0  0  0  0  0  0  0  0
   -5.8312    2.5618    0.3146 H   0  0  0  0  0  0  0  0  0  0  0  0
   -5.9533    3.5702    2.6072 H   0  0  0  0  0  0  0  0  0  0  0  0
   -2.6912    1.1036    3.9268 H   0  0  0  0  0  0  0  0  0  0  0  0
  1  2  1  0
  2  3  1  0
  2  4  1  0
  4  5  1  0
  5  6  1  0
  6  7  1  0
  7  8  2  0
  7  9  1  0
  9 10  2  0
 10 11  1  0
 11 12  2  0
 12 13  1  0
 13 14  2  0
 13 15  2  0
 13 16  1  0
 16 17  1  0
 17 18  1  0
 18 19  1  0
 19 20  2  0
 20 21  1  0
 21 22  2  0
 22 23  1  0
 23 24  2  0
 12 25  1  0
 25 26  2  0
  6 27  1  0
 27 28  2  0
 28 29  1  0
 29 30  2  0
 30 31  1  0
 31 32  2  0
 32 33  1  0
 32 34  1  0
 34 35  2  0
 35 36  1  0
 26  9  1  0
 36 27  1  0
 24 16  1  0
 35 29  1  0
 24 19  1  0
  1 37  1  0
  1 38  1  0
  1 39  1  0
  3 40  1  0
  3 41  1  0
  3 42  1  0
  4 43  1  0
  4 44  1  0
  5 45  1  0
  5 46  1  0
 10 47  1  0
 11 48  1  0
 17 49  1  0
 17 50  1  0
 18 51  1  0
 18 52  1  0
 20 53  1  0
 21 54  1  0
 22 55  1  0
 23 56  1  0
 25 57  1  0
 26 58  1  0
 30 59  1  0
 31 60  1  0
 34 61  1  0
M  END
$$$$
