
     RDKit          3D

 43 45  0  0  0  0  0  0  0  0999 V2000
   -3.4701    4.0515   -1.1999 C   0  0  0  0  0  0  0  0  0  0  0  0
   -3.0551    3.7059    0.2176 C   0  0  0  0  0  0  0  0  0  0  0  0
   -2.0930    2.6399    0.2008 O   0  0  0  0  0  0  0  0  0  0  0  0
   -2.6016    1.3697    0.2160 C   0  0  0  0  0  0  0  0  0  0  0  0
   -3.8011    1.1220    0.2429 O   0  0  0  0  0  0  0  0  0  0  0  0
   -1.5621    0.3287    0.2056 C   0  0  0  0  0  0  0  0  0  0  0  0
   -0.1911    0.5584    0.3211 C   0  0  0  0  0  0  0  0  0  0  0  0
    0.4297    1.7943    0.4429 N   0  0  0  0  0  0  0  0  0  0  0  0
    1.7260    2.2028    0.6012 C   0  0  0  0  0  0  0  0  0  0  0  0
    1.9307    3.8561    0.7996 S   0  0  0  0  0  0  0  0  0  0  0  0
    2.7201    1.2589    0.5836 N   0  0  0  0  0  0  0  0  0  0  0  0
    4.1001    1.3898    0.7406 C   0  0  0  0  0  0  0  0  0  0  0  0
    4.6608    2.3450    1.2674 O   0  0  0  0  0  0  0  0  0  0  0  0
    4.8348    0.2261    0.2815 C   0  0  0  0  0  0  0  0  0  0  0  0
    6.1884   -0.0567    0.2921 C   0  0  0  0  0  0  0  0  0  0  0  0
    6.3415   -1.3433   -0.2766 C   0  0  0  0  0  0  0  0  0  0  0  0
    5.0772   -1.7650   -0.6115 C   0  0  0  0  0  0  0  0  0  0  0  0
    4.1553   -0.8238   -0.2798 O   0  0  0  0  0  0  0  0  0  0  0  0
    0.7054   -0.8839    0.3203 S   0  0  0  0  0  0  0  0  0  0  0  0
   -0.6747   -1.8422    0.1508 C   0  0  0  0  0  0  0  0  0  0  0  0
   -1.8320   -1.0928    0.0858 C   0  0  0  0  0  0  0  0  0  0  0  0
   -3.1822   -1.7475   -0.0531 C   0  0  0  0  0  0  0  0  0  0  0  0
   -3.0754   -3.2238   -0.4680 C   0  0  0  0  0  0  0  0  0  0  0  0
   -1.9785   -3.9577    0.3136 C   0  0  0  0  0  0  0  0  0  0  0  0
   -0.5986   -3.3354    0.0566 C   0  0  0  0  0  0  0  0  0  0  0  0
   -3.9404    3.1947   -1.6923 H   0  0  0  0  0  0  0  0  0  0  0  0
   -4.1733    4.8902   -1.2043 H   0  0  0  0  0  0  0  0  0  0  0  0
   -2.5948    4.3209   -1.8006 H   0  0  0  0  0  0  0  0  0  0  0  0
   -2.5659    4.5705    0.6793 H   0  0  0  0  0  0  0  0  0  0  0  0
   -3.9213    3.4562    0.8402 H   0  0  0  0  0  0  0  0  0  0  0  0
   -0.2161    2.5843    0.4495 H   0  0  0  0  0  0  0  0  0  0  0  0
    2.4384    0.3557    0.2218 H   0  0  0  0  0  0  0  0  0  0  0  0
    6.9617    0.5974    0.6761 H   0  0  0  0  0  0  0  0  0  0  0  0
    7.2603   -1.8938   -0.4258 H   0  0  0  0  0  0  0  0  0  0  0  0
    4.6861   -2.6657   -1.0688 H   0  0  0  0  0  0  0  0  0  0  0  0
   -3.7897   -1.2200   -0.7958 H   0  0  0  0  0  0  0  0  0  0  0  0
   -3.6999   -1.6825    0.9120 H   0  0  0  0  0  0  0  0  0  0  0  0
   -4.0411   -3.7158   -0.3117 H   0  0  0  0  0  0  0  0  0  0  0  0
   -2.8542   -3.2876   -1.5409 H   0  0  0  0  0  0  0  0  0  0  0  0
   -1.9613   -5.0168    0.0319 H   0  0  0  0  0  0  0  0  0  0  0  0
   -2.2088   -3.9140    1.3868 H   0  0  0  0  0  0  0  0  0  0  0  0
    0.1230   -3.7407    0.7747 H   0  0  0  0  0  0  0  0  0  0  0  0
   -0.2572   -3.6103   -0.9484 H   0  0  0  0  0  0  0  0  0  0  0  0
  1  2  1  0
  2  3  1  0
  3  4  1  0
  4  5  2  0
  4  6  1  0
  6  7  2  0
  7  8  1  0
  8  9  1  0
  9 10  2  0
  9 11  1  0
 11 12  1  0
 12 13  2  0
 12 14  1  0
 14 15  2  0
 15 16  1  0
 16 17  2  0
 17 18  1  0
  7 19  1  0
 19 20  1  0
 20 21  2  0
 21 22  1  0
 22 23  1  0
 23 24  1  0
 24 25  1  0
 21  6  1  0
 18 14  1  0
 25 20  1  0
  1 26  1  0
  1 27  1  0
  1 28  1  0
  2 29  1  0
  2 30  1  0
  8 31  1  0
 11 32  1  0
 15 33  1  0
 16 34  1  0
 17 35  1  0
 22 36  1  0
 22 37  1  0
 23 38  1  0
 23 39  1  0
 24 40  1  0
 24 41  1  0
 25 42  1  0
 25 43  1  0
M  END
$$$$
