
     RDKit          3D

 41 42  0  0  0  0  0  0  0  0999 V2000
    4.2096   -2.7626    0.7051 C   0  0  0  0  0  0  0  0  0  0  0  0
    3.1780   -1.8095    0.4715 O   0  0  0  0  0  0  0  0  0  0  0  0
    3.5650   -0.5334    0.1281 C   0  0  0  0  0  0  0  0  0  0  0  0
    4.8905   -0.0980    0.0408 C   0  0  0  0  0  0  0  0  0  0  0  0
    5.1578    1.2320   -0.3163 C   0  0  0  0  0  0  0  0  0  0  0  0
    6.5500    1.6916   -0.4074 N   0  0  0  0  0  4  0  0  0  0  0  0
    6.7498    2.8776   -0.7035 O   0  0  0  0  0  0  0  0  0  0  0  0
    7.4441    0.8636   -0.1797 O   0  0  0  0  0  1  0  0  0  0  0  0
    4.1159    2.1260   -0.5823 C   0  0  0  0  0  0  0  0  0  0  0  0
    2.7922    1.6879   -0.4930 C   0  0  0  0  0  0  0  0  0  0  0  0
    2.5073    0.3643   -0.1448 C   0  0  0  0  0  0  0  0  0  0  0  0
    1.1953   -0.1431   -0.0299 N   0  0  0  0  0  0  0  0  0  0  0  0
    0.0074    0.4686   -0.3849 C   0  0  0  0  0  0  0  0  0  0  0  0
   -0.1010    1.5594   -0.9323 O   0  0  0  0  0  0  0  0  0  0  0  0
   -1.0761   -0.3441   -0.0328 N   0  0  0  0  0  0  0  0  0  0  0  0
   -2.3916    0.1130   -0.2770 N   0  0  0  0  0  0  0  0  0  0  0  0
   -2.9434    0.8507    0.8719 C   0  0  0  0  0  0  0  0  0  0  0  0
   -4.3962    1.3120    0.6187 C   0  0  0  0  0  0  0  0  0  0  0  0
   -5.3267    0.2419    0.2042 N   0  0  0  0  0  0  0  0  0  0  0  0
   -5.6785   -0.6347    1.3179 C   0  0  0  0  0  0  0  0  0  0  0  0
   -4.7281   -0.5073   -0.9190 C   0  0  0  0  0  0  0  0  0  0  0  0
   -3.2783   -0.9873   -0.6837 C   0  0  0  0  0  0  0  0  0  0  0  0
    3.7324   -3.7188    0.9401 H   0  0  0  0  0  0  0  0  0  0  0  0
    4.8232   -2.9078   -0.1901 H   0  0  0  0  0  0  0  0  0  0  0  0
    4.8222   -2.4759    1.5660 H   0  0  0  0  0  0  0  0  0  0  0  0
    5.7167   -0.7710    0.2463 H   0  0  0  0  0  0  0  0  0  0  0  0
    4.3094    3.1610   -0.8584 H   0  0  0  0  0  0  0  0  0  0  0  0
    2.0018    2.4049   -0.6981 H   0  0  0  0  0  0  0  0  0  0  0  0
    1.1526   -1.1293    0.1930 H   0  0  0  0  0  0  0  0  0  0  0  0
   -0.9322   -0.9614    0.7575 H   0  0  0  0  0  0  0  0  0  0  0  0
   -2.9054    0.2313    1.7773 H   0  0  0  0  0  0  0  0  0  0  0  0
   -2.3304    1.7392    1.0659 H   0  0  0  0  0  0  0  0  0  0  0  0
   -4.7810    1.8202    1.5116 H   0  0  0  0  0  0  0  0  0  0  0  0
   -4.3874    2.0748   -0.1716 H   0  0  0  0  0  0  0  0  0  0  0  0
   -4.8187   -1.1567    1.7492 H   0  0  0  0  0  0  0  0  0  0  0  0
   -6.4053   -1.3879    0.9939 H   0  0  0  0  0  0  0  0  0  0  0  0
   -6.1623   -0.0604    2.1158 H   0  0  0  0  0  0  0  0  0  0  0  0
   -5.3610   -1.3647   -1.1795 H   0  0  0  0  0  0  0  0  0  0  0  0
   -4.7404    0.1449   -1.8026 H   0  0  0  0  0  0  0  0  0  0  0  0
   -3.2719   -1.7835    0.0720 H   0  0  0  0  0  0  0  0  0  0  0  0
   -2.9053   -1.4278   -1.6165 H   0  0  0  0  0  0  0  0  0  0  0  0
  1  2  1  0
  2  3  1  0
  3  4  2  0
  4  5  1  0
  5  6  1  0
  6  7  2  0
  6  8  1  0
  5  9  2  0
  9 10  1  0
 10 11  2  0
 11 12  1  0
 12 13  1  0
 13 14  2  0
 13 15  1  0
 15 16  1  0
 16 17  1  0
 17 18  1  0
 18 19  1  0
 19 20  1  0
 19 21  1  0
 21 22  1  0
 11  3  1  0
 22 16  1  0
  1 23  1  0
  1 24  1  0
  1 25  1  0
  4 26  1  0
  9 27  1  0
 10 28  1  0
 12 29  1  0
 15 30  1  0
 17 31  1  0
 17 32  1  0
 18 33  1  0
 18 34  1  0
 20 35  1  0
 20 36  1  0
 20 37  1  0
 21 38  1  0
 21 39  1  0
 22 40  1  0
 22 41  1  0
M  CHG  2   6   1   8  -1
M  END
$$$$
