
     RDKit          3D

 68 70  0  0  0  0  0  0  0  0999 V2000
    3.5218    3.5424    2.2332 C   0  0  0  0  0  0  0  0  0  0  0  0
    2.9283    2.5319    1.2638 C   0  0  0  0  0  0  0  0  0  0  0  0
    3.9123    2.1839    0.2069 N   0  0  0  0  0  0  0  0  0  0  0  0
    5.0506    1.3473    0.6589 C   0  0  0  0  0  0  0  0  0  0  0  0
    6.3404    2.1390    0.5272 C   0  0  0  0  0  0  0  0  0  0  0  0
    3.2942    1.8558   -1.3498 S   0  0  0  0  0  6  0  0  0  0  0  0
    4.4214    1.6450   -2.2367 O   0  0  0  0  0  0  0  0  0  0  0  0
    2.2750    2.8329   -1.6669 O   0  0  0  0  0  0  0  0  0  0  0  0
    2.4804    0.2827   -1.1488 C   0  0  0  0  0  0  0  0  0  0  0  0
    3.0610   -0.8742   -1.6702 C   0  0  0  0  0  0  0  0  0  0  0  0
    2.4031   -2.1011   -1.5415 C   0  0  0  0  0  0  0  0  0  0  0  0
    1.1669   -2.1928   -0.8891 C   0  0  0  0  0  0  0  0  0  0  0  0
    0.4852   -3.4090   -0.6958 N   0  0  0  0  0  0  0  0  0  0  0  0
    0.6967   -4.0170    0.6412 C   0  0  0  0  0  0  0  0  0  0  0  0
    1.8396   -5.0399    0.6250 C   0  0  0  0  0  0  0  0  0  0  0  0
    1.6001   -6.0581   -0.3577 O   0  0  0  0  0  0  0  0  0  0  0  0
    1.5524   -5.4794   -1.6695 C   0  0  0  0  0  0  0  0  0  0  0  0
    0.4610   -4.4023   -1.7934 C   0  0  0  0  0  0  0  0  0  0  0  0
    0.5852   -0.9962   -0.3850 C   0  0  0  0  0  0  0  0  0  0  0  0
   -0.6929   -1.1241    0.2002 N   0  0  0  0  0  0  0  0  0  0  0  0
   -1.4075   -0.1730    0.8986 C   0  0  0  0  0  0  0  0  0  0  0  0
   -0.9872    0.9244    1.2502 O   0  0  0  0  0  0  0  0  0  0  0  0
   -2.7986   -0.6668    1.2643 C   0  0  0  0  0  0  0  0  0  0  0  0
   -3.7680    0.4643    1.6175 C   0  0  0  0  0  0  0  0  0  0  0  0
   -4.1466    1.3665    0.4247 C   0  0  0  0  0  0  0  0  0  0  0  0
   -5.0273    2.5334    0.8890 C   0  0  0  0  0  0  0  0  0  0  0  0
   -5.3107    3.5250   -0.2434 C   0  0  0  0  0  0  0  0  0  0  0  0
   -5.3010    2.8877   -1.6328 C   0  0  0  0  0  0  0  0  0  0  0  0
   -5.7548    1.4364   -1.5860 C   0  0  0  0  0  0  0  0  0  0  0  0
   -4.8443    0.5788   -0.7024 C   0  0  0  0  0  0  0  0  0  0  0  0
    1.2325    0.2315   -0.5289 C   0  0  0  0  0  0  0  0  0  0  0  0
    3.8919    4.4260    1.7037 H   0  0  0  0  0  0  0  0  0  0  0  0
    4.3556    3.1163    2.7995 H   0  0  0  0  0  0  0  0  0  0  0  0
    2.7627    3.8662    2.9517 H   0  0  0  0  0  0  0  0  0  0  0  0
    2.6131    1.6307    1.8007 H   0  0  0  0  0  0  0  0  0  0  0  0
    2.0365    2.9887    0.8235 H   0  0  0  0  0  0  0  0  0  0  0  0
    4.9150    1.0312    1.6995 H   0  0  0  0  0  0  0  0  0  0  0  0
    5.1267    0.4263    0.0732 H   0  0  0  0  0  0  0  0  0  0  0  0
    7.1916    1.5385    0.8636 H   0  0  0  0  0  0  0  0  0  0  0  0
    6.3080    3.0527    1.1286 H   0  0  0  0  0  0  0  0  0  0  0  0
    6.5215    2.4330   -0.5118 H   0  0  0  0  0  0  0  0  0  0  0  0
    4.0197   -0.8323   -2.1832 H   0  0  0  0  0  0  0  0  0  0  0  0
    2.8914   -2.9775   -1.9503 H   0  0  0  0  0  0  0  0  0  0  0  0
    0.8783   -3.2615    1.4150 H   0  0  0  0  0  0  0  0  0  0  0  0
   -0.2338   -4.5329    0.9090 H   0  0  0  0  0  0  0  0  0  0  0  0
    2.8061   -4.5633    0.4249 H   0  0  0  0  0  0  0  0  0  0  0  0
    1.9061   -5.5335    1.6001 H   0  0  0  0  0  0  0  0  0  0  0  0
    1.3452   -6.2889   -2.3775 H   0  0  0  0  0  0  0  0  0  0  0  0
    2.5451   -5.0909   -1.9146 H   0  0  0  0  0  0  0  0  0  0  0  0
   -0.5129   -4.9036   -1.7333 H   0  0  0  0  0  0  0  0  0  0  0  0
    0.5007   -3.9185   -2.7761 H   0  0  0  0  0  0  0  0  0  0  0  0
   -1.0815   -2.0571    0.0920 H   0  0  0  0  0  0  0  0  0  0  0  0
   -2.6832   -1.3197    2.1385 H   0  0  0  0  0  0  0  0  0  0  0  0
   -3.2019   -1.2804    0.4517 H   0  0  0  0  0  0  0  0  0  0  0  0
   -3.3311    1.0818    2.4129 H   0  0  0  0  0  0  0  0  0  0  0  0
   -4.6802    0.0208    2.0370 H   0  0  0  0  0  0  0  0  0  0  0  0
   -3.2241    1.7990    0.0145 H   0  0  0  0  0  0  0  0  0  0  0  0
   -4.5571    3.0694    1.7228 H   0  0  0  0  0  0  0  0  0  0  0  0
   -5.9791    2.1399    1.2707 H   0  0  0  0  0  0  0  0  0  0  0  0
   -6.2826    3.9986   -0.0589 H   0  0  0  0  0  0  0  0  0  0  0  0
   -4.5694    4.3330   -0.2221 H   0  0  0  0  0  0  0  0  0  0  0  0
   -5.9420    3.4656   -2.3082 H   0  0  0  0  0  0  0  0  0  0  0  0
   -4.2867    2.9358   -2.0485 H   0  0  0  0  0  0  0  0  0  0  0  0
   -5.7896    1.0145   -2.5972 H   0  0  0  0  0  0  0  0  0  0  0  0
   -6.7806    1.3941   -1.1968 H   0  0  0  0  0  0  0  0  0  0  0  0
   -4.0740    0.1135   -1.3305 H   0  0  0  0  0  0  0  0  0  0  0  0
   -5.4420   -0.2449   -0.2918 H   0  0  0  0  0  0  0  0  0  0  0  0
    0.7675    1.1545   -0.1972 H   0  0  0  0  0  0  0  0  0  0  0  0
  1  2  1  0
  2  3  1  0
  3  4  1  0
  4  5  1  0
  3  6  1  0
  6  7  2  0
  6  8  2  0
  6  9  1  0
  9 10  2  0
 10 11  1  0
 11 12  2  0
 12 13  1  0
 13 14  1  0
 14 15  1  0
 15 16  1  0
 16 17  1  0
 17 18  1  0
 12 19  1  0
 19 20  1  0
 20 21  1  0
 21 22  2  0
 21 23  1  0
 23 24  1  0
 24 25  1  0
 25 26  1  0
 26 27  1  0
 27 28  1  0
 28 29  1  0
 29 30  1  0
 19 31  2  0
 31  9  1  0
 18 13  1  0
 30 25  1  0
  1 32  1  0
  1 33  1  0
  1 34  1  0
  2 35  1  0
  2 36  1  0
  4 37  1  0
  4 38  1  0
  5 39  1  0
  5 40  1  0
  5 41  1  0
 10 42  1  0
 11 43  1  0
 14 44  1  0
 14 45  1  0
 15 46  1  0
 15 47  1  0
 17 48  1  0
 17 49  1  0
 18 50  1  0
 18 51  1  0
 20 52  1  0
 23 53  1  0
 23 54  1  0
 24 55  1  0
 24 56  1  0
 25 57  1  0
 26 58  1  0
 26 59  1  0
 27 60  1  0
 27 61  1  0
 28 62  1  0
 28 63  1  0
 29 64  1  0
 29 65  1  0
 30 66  1  0
 30 67  1  0
 31 68  1  0
M  END
$$$$
