
     RDKit          3D

 35 36  0  0  0  0  0  0  0  0999 V2000
    4.1223   -1.2601   -3.3111 C   0  0  0  0  0  0  0  0  0  0  0  0
    3.4704   -0.6747   -2.0939 C   0  0  0  0  0  0  0  0  0  0  0  0
    2.3480    0.1504   -2.2158 C   0  0  0  0  0  0  0  0  0  0  0  0
    1.7201    0.6726   -1.0791 C   0  0  0  0  0  0  0  0  0  0  0  0
    2.1886    0.3575    0.1977 C   0  0  0  0  0  0  0  0  0  0  0  0
    1.6273    0.8572    1.3904 N   0  0  0  0  0  0  0  0  0  0  0  0
    0.4207    1.4458    1.6546 C   0  0  0  0  0  0  0  0  0  0  0  0
    0.2972    2.3254    3.0716 S   0  0  0  0  0  0  0  0  0  0  0  0
   -0.5803    1.2232    0.7558 N   0  0  0  0  0  0  0  0  0  0  0  0
   -1.9622    1.6597    0.8445 C   0  0  0  0  0  0  0  0  0  0  0  0
   -2.7975    0.4602    1.1393 C   0  0  0  0  0  0  0  0  0  0  0  0
   -3.0955   -0.1127    2.3644 C   0  0  0  0  0  0  0  0  0  0  0  0
   -3.9244   -1.2329    2.1331 C   0  0  0  0  0  0  0  0  0  0  0  0
   -4.1165   -1.3230    0.7738 C   0  0  0  0  0  0  0  0  0  0  0  0
   -3.4311   -0.2965    0.1765 N   0  0  0  0  0  0  0  0  0  0  0  0
   -3.3907   -0.0690   -1.2519 C   0  0  0  0  0  0  0  0  0  0  0  0
    3.3220   -0.4534    0.3178 C   0  0  0  0  0  0  0  0  0  0  0  0
    3.9488   -0.9786   -0.8164 C   0  0  0  0  0  0  0  0  0  0  0  0
    3.6586   -2.2200   -3.5585 H   0  0  0  0  0  0  0  0  0  0  0  0
    4.0231   -0.5872   -4.1694 H   0  0  0  0  0  0  0  0  0  0  0  0
    5.1931   -1.4168   -3.1439 H   0  0  0  0  0  0  0  0  0  0  0  0
    1.9633    0.4098   -3.1997 H   0  0  0  0  0  0  0  0  0  0  0  0
    0.8979    1.3651   -1.2271 H   0  0  0  0  0  0  0  0  0  0  0  0
    2.2368    0.8419    2.2015 H   0  0  0  0  0  0  0  0  0  0  0  0
   -0.4443    0.3887    0.2029 H   0  0  0  0  0  0  0  0  0  0  0  0
   -2.2203    2.1038   -0.1215 H   0  0  0  0  0  0  0  0  0  0  0  0
   -2.1033    2.4299    1.6067 H   0  0  0  0  0  0  0  0  0  0  0  0
   -2.7440    0.2449    3.3247 H   0  0  0  0  0  0  0  0  0  0  0  0
   -4.3359   -1.9021    2.8774 H   0  0  0  0  0  0  0  0  0  0  0  0
   -4.6847   -2.0359    0.1905 H   0  0  0  0  0  0  0  0  0  0  0  0
   -3.9025   -0.8856   -1.7677 H   0  0  0  0  0  0  0  0  0  0  0  0
   -2.3458   -0.0335   -1.5699 H   0  0  0  0  0  0  0  0  0  0  0  0
   -3.8956    0.8768   -1.4634 H   0  0  0  0  0  0  0  0  0  0  0  0
    3.7206   -0.7066    1.2971 H   0  0  0  0  0  0  0  0  0  0  0  0
    4.8155   -1.6244   -0.6929 H   0  0  0  0  0  0  0  0  0  0  0  0
  1  2  1  0
  2  3  2  0
  3  4  1  0
  4  5  2  0
  5  6  1  0
  6  7  1  0
  7  8  2  0
  7  9  1  0
  9 10  1  0
 10 11  1  0
 11 12  2  0
 12 13  1  0
 13 14  2  0
 14 15  1  0
 15 16  1  0
  5 17  1  0
 17 18  2  0
 18  2  1  0
 15 11  1  0
  1 19  1  0
  1 20  1  0
  1 21  1  0
  3 22  1  0
  4 23  1  0
  6 24  1  0
  9 25  1  0
 10 26  1  0
 10 27  1  0
 12 28  1  0
 13 29  1  0
 14 30  1  0
 16 31  1  0
 16 32  1  0
 16 33  1  0
 17 34  1  0
 18 35  1  0
M  END
$$$$
