
     RDKit          3D

 40 41  0  0  0  0  0  0  0  0999 V2000
    2.5053    2.0247   -0.2644 O   0  0  0  0  0  0  0  0  0  0  0  0
    2.5041    2.5258    0.8456 C   0  0  0  0  0  0  0  0  0  0  0  0
    3.6434    3.0427    1.3524 O   0  0  0  0  0  0  0  0  0  0  0  0
    1.3355    2.7326    1.7672 C   0  0  0  0  0  0  0  0  0  0  0  0
    0.2269    1.6937    1.6070 C   0  0  0  0  0  0  0  0  0  0  0  0
    0.7259    0.3365    1.9581 N   0  0  0  0  0  0  0  0  0  0  0  0
   -0.1845   -0.4035    2.8384 C   0  0  0  0  0  0  0  0  0  0  0  0
   -1.4770   -0.7521    2.1933 C   0  0  0  0  0  0  0  0  0  0  0  0
   -2.7915   -0.4224    2.4576 C   0  0  0  0  0  0  0  0  0  0  0  0
   -3.5700   -1.0462    1.4520 C   0  0  0  0  0  0  0  0  0  0  0  0
   -2.6812   -1.7095    0.6398 C   0  0  0  0  0  0  0  0  0  0  0  0
   -1.4093   -1.5518    1.0926 O   0  0  0  0  0  0  0  0  0  0  0  0
   -0.3695    1.7828    0.1928 C   0  0  0  0  0  0  0  0  0  0  0  0
   -0.9582    2.7758   -0.2224 O   0  0  0  0  0  0  0  0  0  0  0  0
   -0.1195    0.6640   -0.5402 O   0  0  0  0  0  0  0  0  0  0  0  0
   -0.5505    0.7399   -1.9085 C   0  0  0  0  0  0  0  0  0  0  0  0
   -0.1031   -0.5039   -2.6797 C   0  0  0  0  0  0  0  0  0  0  0  0
    1.3619   -0.8838   -2.4994 C   0  0  0  0  0  0  0  0  0  0  0  0
    1.3317   -2.3631   -2.7979 C   0  0  0  0  0  0  0  0  0  0  0  0
    0.0228   -2.7783   -2.1591 C   0  0  0  0  0  0  0  0  0  0  0  0
   -0.8721   -1.6625   -2.2848 O   0  0  0  0  0  0  0  0  0  0  0  0
    4.3123    2.8545    0.6586 H   0  0  0  0  0  0  0  0  0  0  0  0
    1.6982    2.7089    2.8019 H   0  0  0  0  0  0  0  0  0  0  0  0
    0.9477    3.7399    1.5740 H   0  0  0  0  0  0  0  0  0  0  0  0
   -0.5841    1.9733    2.2914 H   0  0  0  0  0  0  0  0  0  0  0  0
    0.7956   -0.1995    1.0824 H   0  0  0  0  0  0  0  0  0  0  0  0
   -0.3543    0.1621    3.7617 H   0  0  0  0  0  0  0  0  0  0  0  0
    0.3143   -1.3333    3.1366 H   0  0  0  0  0  0  0  0  0  0  0  0
   -3.1418    0.2030    3.2685 H   0  0  0  0  0  0  0  0  0  0  0  0
   -4.6444   -1.0045    1.3234 H   0  0  0  0  0  0  0  0  0  0  0  0
   -2.7832   -2.3045   -0.2567 H   0  0  0  0  0  0  0  0  0  0  0  0
   -1.6462    0.8138   -1.9264 H   0  0  0  0  0  0  0  0  0  0  0  0
   -0.1079    1.6285   -2.3779 H   0  0  0  0  0  0  0  0  0  0  0  0
   -0.3177   -0.3495   -3.7445 H   0  0  0  0  0  0  0  0  0  0  0  0
    2.0304   -0.3188   -3.1554 H   0  0  0  0  0  0  0  0  0  0  0  0
    1.6989   -0.7360   -1.4678 H   0  0  0  0  0  0  0  0  0  0  0  0
    2.1923   -2.9105   -2.4037 H   0  0  0  0  0  0  0  0  0  0  0  0
    1.2883   -2.5225   -3.8798 H   0  0  0  0  0  0  0  0  0  0  0  0
   -0.4184   -3.6587   -2.6350 H   0  0  0  0  0  0  0  0  0  0  0  0
    0.1489   -2.9877   -1.0914 H   0  0  0  0  0  0  0  0  0  0  0  0
  1  2  2  0
  2  3  1  0
  2  4  1  0
  4  5  1  0
  5  6  1  0
  6  7  1  0
  7  8  1  0
  8  9  2  0
  9 10  1  0
 10 11  2  0
 11 12  1  0
  5 13  1  0
 13 14  2  0
 13 15  1  0
 15 16  1  0
 16 17  1  0
 17 18  1  0
 18 19  1  0
 19 20  1  0
 20 21  1  0
 12  8  1  0
 21 17  1  0
  3 22  1  0
  4 23  1  0
  4 24  1  0
  5 25  1  0
  6 26  1  0
  7 27  1  0
  7 28  1  0
  9 29  1  0
 10 30  1  0
 11 31  1  0
 16 32  1  0
 16 33  1  0
 17 34  1  0
 18 35  1  0
 18 36  1  0
 19 37  1  0
 19 38  1  0
 20 39  1  0
 20 40  1  0
M  END
$$$$
