
     RDKit          3D

 62 65  0  0  0  0  0  0  0  0999 V2000
   -1.8466    0.8368    1.2110 O   0  0  0  0  0  0  0  0  0  0  0  0
   -1.6710    0.6660    0.0101 C   0  0  0  0  0  0  0  0  0  0  0  0
   -2.6412    0.1529   -0.8255 N   0  0  0  0  0  0  0  0  0  0  0  0
   -3.9697   -0.1829   -0.3437 C   0  0  0  0  0  0  0  0  0  0  0  0
   -4.8694    1.0546   -0.2262 C   0  0  0  0  0  0  0  0  0  0  0  0
   -6.3180    0.8306    0.1696 C   0  0  0  0  0  0  0  0  0  0  0  0
   -6.8706   -0.3684    0.4371 C   0  0  0  0  0  0  0  0  0  0  0  0
   -8.2969   -0.5600    0.8699 C   0  0  0  0  0  0  0  0  0  0  0  0
   -8.9876    0.7378    1.2816 C   0  0  0  0  0  0  0  0  0  0  0  0
   -8.6481    1.8646    0.3154 C   0  0  0  0  0  0  0  0  0  0  0  0
   -7.1377    2.1027    0.2589 C   0  0  0  0  0  0  0  0  0  0  0  0
   -0.3591    0.9935   -0.7072 C   0  0  0  0  0  0  0  0  0  0  0  0
    0.6025    1.7868    0.1952 C   0  0  0  0  0  0  0  0  0  0  0  0
    1.5231    0.8673    0.9936 C   0  0  0  0  0  0  0  0  0  0  0  0
    2.4150   -0.0058    0.0857 C   0  0  0  0  0  0  0  0  0  0  0  0
    3.8329    0.5853   -0.0059 C   0  0  0  0  0  0  0  0  0  0  0  0
    4.7274   -0.1983   -0.8689 N   0  0  0  0  0  0  0  0  0  0  0  0
    5.4731   -1.2613   -0.3657 C   0  0  0  0  0  0  0  0  0  0  0  0
    4.7918   -2.3973   -0.0295 N   0  0  0  0  0  0  0  0  0  0  0  0
    5.3457   -3.5559    0.4427 C   0  0  0  0  0  0  0  0  0  0  0  0
    4.3200   -4.8466    0.7471 S   0  0  0  0  0  0  0  0  0  0  0  0
    6.6981   -3.6003    0.6353 N   0  0  0  0  0  0  0  0  0  0  0  0
    7.3810   -2.5459    0.3245 C   0  0  0  0  0  0  0  0  0  0  0  0
    8.8579   -2.5769    0.5160 C   0  0  0  0  0  0  0  0  0  0  0  0
    9.6114   -1.5117    0.2129 C   0  0  0  0  0  0  0  0  0  0  0  0
    9.0438   -0.2910   -0.3054 C   0  0  0  0  0  0  0  0  0  0  0  0
    7.7246   -0.1680   -0.5126 C   0  0  0  0  0  0  0  0  0  0  0  0
    6.8172   -1.2657   -0.2235 C   0  0  0  0  0  0  0  0  0  0  0  0
    1.7976   -0.2079   -1.3117 C   0  0  0  0  0  0  0  0  0  0  0  0
    0.2769   -0.2985   -1.2505 C   0  0  0  0  0  0  0  0  0  0  0  0
   -2.4744    0.1320   -1.8228 H   0  0  0  0  0  0  0  0  0  0  0  0
   -4.3865   -0.8991   -1.0603 H   0  0  0  0  0  0  0  0  0  0  0  0
   -3.8730   -0.6803    0.6281 H   0  0  0  0  0  0  0  0  0  0  0  0
   -4.4220    1.7470    0.4988 H   0  0  0  0  0  0  0  0  0  0  0  0
   -4.8595    1.5755   -1.1929 H   0  0  0  0  0  0  0  0  0  0  0  0
   -6.2904   -1.2838    0.3642 H   0  0  0  0  0  0  0  0  0  0  0  0
   -8.8458   -1.0265    0.0436 H   0  0  0  0  0  0  0  0  0  0  0  0
   -8.3292   -1.2611    1.7115 H   0  0  0  0  0  0  0  0  0  0  0  0
  -10.0718    0.5839    1.3183 H   0  0  0  0  0  0  0  0  0  0  0  0
   -8.6720    1.0183    2.2943 H   0  0  0  0  0  0  0  0  0  0  0  0
   -9.0191    1.6098   -0.6847 H   0  0  0  0  0  0  0  0  0  0  0  0
   -9.1563    2.7869    0.6190 H   0  0  0  0  0  0  0  0  0  0  0  0
   -6.8242    2.6502    1.1559 H   0  0  0  0  0  0  0  0  0  0  0  0
   -6.9215    2.7458   -0.6020 H   0  0  0  0  0  0  0  0  0  0  0  0
   -0.6211    1.6493   -1.5492 H   0  0  0  0  0  0  0  0  0  0  0  0
    0.0530    2.4444    0.8786 H   0  0  0  0  0  0  0  0  0  0  0  0
    1.2178    2.4455   -0.4311 H   0  0  0  0  0  0  0  0  0  0  0  0
    2.1299    1.4601    1.6890 H   0  0  0  0  0  0  0  0  0  0  0  0
    0.9068    0.2095    1.6203 H   0  0  0  0  0  0  0  0  0  0  0  0
    2.4825   -0.9852    0.5744 H   0  0  0  0  0  0  0  0  0  0  0  0
    4.2764    0.6855    0.9938 H   0  0  0  0  0  0  0  0  0  0  0  0
    3.7710    1.5996   -0.4212 H   0  0  0  0  0  0  0  0  0  0  0  0
    5.3290    0.4431   -1.3809 H   0  0  0  0  0  0  0  0  0  0  0  0
    3.7981   -2.4185   -0.2069 H   0  0  0  0  0  0  0  0  0  0  0  0
    9.2822   -3.4940    0.9080 H   0  0  0  0  0  0  0  0  0  0  0  0
   10.6864   -1.5460    0.3585 H   0  0  0  0  0  0  0  0  0  0  0  0
    9.7209    0.5323   -0.5177 H   0  0  0  0  0  0  0  0  0  0  0  0
    7.3339    0.7699   -0.8889 H   0  0  0  0  0  0  0  0  0  0  0  0
    2.0775    0.6173   -1.9793 H   0  0  0  0  0  0  0  0  0  0  0  0
    2.1985   -1.1231   -1.7632 H   0  0  0  0  0  0  0  0  0  0  0  0
   -0.1161   -0.5030   -2.2546 H   0  0  0  0  0  0  0  0  0  0  0  0
   -0.0052   -1.1612   -0.6313 H   0  0  0  0  0  0  0  0  0  0  0  0
  1  2  2  0
  2  3  1  0
  3  4  1  0
  4  5  1  0
  5  6  1  0
  6  7  2  0
  7  8  1  0
  8  9  1  0
  9 10  1  0
 10 11  1  0
  2 12  1  0
 12 13  1  0
 13 14  1  0
 14 15  1  0
 15 16  1  0
 16 17  1  0
 17 18  1  0
 18 19  1  0
 19 20  1  0
 20 21  2  0
 20 22  1  0
 22 23  2  0
 23 24  1  0
 24 25  2  0
 25 26  1  0
 26 27  2  0
 27 28  1  0
 15 29  1  0
 29 30  1  0
 11  6  1  0
 30 12  1  0
 28 18  2  0
 28 23  1  0
  3 31  1  0
  4 32  1  0
  4 33  1  0
  5 34  1  0
  5 35  1  0
  7 36  1  0
  8 37  1  0
  8 38  1  0
  9 39  1  0
  9 40  1  0
 10 41  1  0
 10 42  1  0
 11 43  1  0
 11 44  1  0
 12 45  1  0
 13 46  1  0
 13 47  1  0
 14 48  1  0
 14 49  1  0
 15 50  1  0
 16 51  1  0
 16 52  1  0
 17 53  1  0
 19 54  1  0
 24 55  1  0
 25 56  1  0
 26 57  1  0
 27 58  1  0
 29 59  1  0
 29 60  1  0
 30 61  1  0
 30 62  1  0
M  END
$$$$
