
     RDKit          3D

 49 50  0  0  0  0  0  0  0  0999 V2000
   -6.0183   -0.2197    2.1805 C   0  0  0  0  0  0  0  0  0  0  0  0
   -5.9588    0.9400    1.3579 O   0  0  0  0  0  0  0  0  0  0  0  0
   -4.7515    1.2449    0.7889 C   0  0  0  0  0  0  0  0  0  0  0  0
   -3.5227    0.7397    1.2336 C   0  0  0  0  0  0  0  0  0  0  0  0
   -2.3256    1.0702    0.5769 C   0  0  0  0  0  0  0  0  0  0  0  0
   -1.0186    0.5729    1.0306 C   0  0  0  0  0  0  0  0  0  0  0  0
   -0.8143   -0.6754    1.4803 C   0  0  0  0  0  0  0  0  0  0  0  0
    0.4918   -1.1990    1.9319 C   0  0  0  0  0  0  0  0  0  0  0  0
    0.6117   -2.3245    2.3884 O   0  0  0  0  0  0  0  0  0  0  0  0
    1.4837   -0.2941    1.7547 O   0  0  0  0  0  0  0  0  0  0  0  0
    2.7775   -0.7418    2.1687 C   0  0  0  0  0  0  0  0  0  0  0  0
    3.5124   -1.5910    1.1288 C   0  0  0  0  0  0  0  0  0  0  0  0
    4.4970   -2.2655    1.4197 O   0  0  0  0  0  0  0  0  0  0  0  0
    2.9986   -1.4915   -0.1498 N   0  0  0  0  0  0  0  0  0  0  0  0
    3.7016   -2.0413   -1.2956 C   0  0  0  0  0  0  0  0  0  0  0  0
    4.4393   -0.9505   -2.0959 C   0  0  0  0  0  0  0  0  0  0  0  0
    5.3013   -1.5286   -3.2064 C   0  0  0  0  0  0  0  0  0  0  0  0
    6.6119   -1.7828   -2.5028 C   0  0  0  0  0  0  0  0  0  0  0  0
    6.6857   -0.6291   -1.5255 C   0  0  0  0  0  0  0  0  0  0  0  0
    5.3401   -0.2211   -1.2408 O   0  0  0  0  0  0  0  0  0  0  0  0
   -2.3685    1.9385   -0.5193 C   0  0  0  0  0  0  0  0  0  0  0  0
   -3.5857    2.4564   -0.9622 C   0  0  0  0  0  0  0  0  0  0  0  0
   -4.7694    2.1327   -0.2981 C   0  0  0  0  0  0  0  0  0  0  0  0
   -5.9103    2.6688   -0.8378 O   0  0  0  0  0  0  0  0  0  0  0  0
   -6.7345    3.3729    0.1044 C   0  0  0  0  0  0  0  0  0  0  0  0
   -8.0833    2.7869    0.1726 C   0  0  0  0  0  0  0  0  0  0  0  0
   -9.1609    2.3563    0.2395 N   0  0  0  0  0  0  0  0  0  0  0  0
   -5.5160   -0.0426    3.1366 H   0  0  0  0  0  0  0  0  0  0  0  0
   -5.6025   -1.0956    1.6712 H   0  0  0  0  0  0  0  0  0  0  0  0
   -7.0722   -0.4251    2.3915 H   0  0  0  0  0  0  0  0  0  0  0  0
   -3.4801    0.0934    2.1047 H   0  0  0  0  0  0  0  0  0  0  0  0
   -0.1989    1.2848    0.9631 H   0  0  0  0  0  0  0  0  0  0  0  0
   -1.6146   -1.4056    1.5379 H   0  0  0  0  0  0  0  0  0  0  0  0
    3.3853    0.1518    2.3455 H   0  0  0  0  0  0  0  0  0  0  0  0
    2.7188   -1.2942    3.1138 H   0  0  0  0  0  0  0  0  0  0  0  0
    2.2946   -0.7825   -0.3102 H   0  0  0  0  0  0  0  0  0  0  0  0
    4.3990   -2.8105   -0.9487 H   0  0  0  0  0  0  0  0  0  0  0  0
    2.9520   -2.5245   -1.9312 H   0  0  0  0  0  0  0  0  0  0  0  0
    3.7063   -0.2405   -2.4951 H   0  0  0  0  0  0  0  0  0  0  0  0
    4.8782   -2.4198   -3.6782 H   0  0  0  0  0  0  0  0  0  0  0  0
    5.4531   -0.7713   -3.9854 H   0  0  0  0  0  0  0  0  0  0  0  0
    7.4707   -1.8215   -3.1783 H   0  0  0  0  0  0  0  0  0  0  0  0
    6.5710   -2.7332   -1.9587 H   0  0  0  0  0  0  0  0  0  0  0  0
    7.1922   -0.9008   -0.5950 H   0  0  0  0  0  0  0  0  0  0  0  0
    7.2051    0.2284   -1.9660 H   0  0  0  0  0  0  0  0  0  0  0  0
   -1.4574    2.2130   -1.0471 H   0  0  0  0  0  0  0  0  0  0  0  0
   -3.6106    3.1167   -1.8255 H   0  0  0  0  0  0  0  0  0  0  0  0
   -6.2848    3.4555    1.1016 H   0  0  0  0  0  0  0  0  0  0  0  0
   -6.8194    4.3996   -0.2712 H   0  0  0  0  0  0  0  0  0  0  0  0
  1  2  1  0
  2  3  1  0
  3  4  2  0
  4  5  1  0
  5  6  1  0
  6  7  2  3
  7  8  1  0
  8  9  2  0
  8 10  1  0
 10 11  1  0
 11 12  1  0
 12 13  2  0
 12 14  1  0
 14 15  1  0
 15 16  1  0
 16 17  1  0
 17 18  1  0
 18 19  1  0
 19 20  1  0
  5 21  2  0
 21 22  1  0
 22 23  2  0
 23 24  1  0
 24 25  1  0
 25 26  1  0
 26 27  3  0
 23  3  1  0
 20 16  1  0
  1 28  1  0
  1 29  1  0
  1 30  1  0
  4 31  1  0
  6 32  1  0
  7 33  1  0
 11 34  1  0
 11 35  1  0
 14 36  1  0
 15 37  1  0
 15 38  1  0
 16 39  1  0
 17 40  1  0
 17 41  1  0
 18 42  1  0
 18 43  1  0
 19 44  1  0
 19 45  1  0
 21 46  1  0
 22 47  1  0
 25 48  1  0
 25 49  1  0
M  END
$$$$
