
     RDKit          3D

 52 55  0  0  0  0  0  0  0  0999 V2000
    6.9254   -2.0331    2.5881 C   0  0  0  0  0  0  0  0  0  0  0  0
    5.6159   -1.3605    2.2838 C   0  0  0  0  0  0  0  0  0  0  0  0
    4.6116   -1.3005    3.2624 C   0  0  0  0  0  0  0  0  0  0  0  0
    3.3958   -0.6498    3.0233 C   0  0  0  0  0  0  0  0  0  0  0  0
    3.2401   -0.0621    1.7718 C   0  0  0  0  0  0  0  0  0  0  0  0
    2.1417    0.6204    1.3576 O   0  0  0  0  0  0  0  0  0  0  0  0
    2.3647    1.0305    0.0708 C   0  0  0  0  0  0  0  0  0  0  0  0
    1.3805    1.8588   -0.6147 C   0  0  0  0  0  0  0  0  0  0  0  0
    1.7518    2.7410   -1.3936 O   0  0  0  0  0  0  0  0  0  0  0  0
    0.0064    1.6470   -0.4009 N   0  0  0  0  0  0  0  0  0  0  0  0
   -0.9293    2.5950   -1.0130 C   0  0  0  0  0  0  0  0  0  0  0  0
   -2.2818    1.9622   -1.3313 C   0  0  0  0  0  0  0  0  0  0  0  0
   -2.9495    1.3803   -0.0698 C   0  0  0  0  0  0  0  0  0  0  0  0
   -3.6363    2.4580    0.5951 O   0  0  0  0  0  0  0  0  0  0  0  0
   -4.0066    0.3532   -0.4970 C   0  0  0  0  0  0  0  0  0  0  0  0
   -5.2412    0.7999   -1.0091 C   0  0  0  0  0  0  0  0  0  0  0  0
   -6.2262   -0.0985   -1.4220 C   0  0  0  0  0  0  0  0  0  0  0  0
   -5.9957   -1.4687   -1.3477 C   0  0  0  0  0  0  0  0  0  0  0  0
   -4.7708   -1.9520   -0.8693 C   0  0  0  0  0  0  0  0  0  0  0  0
   -4.5040   -3.4359   -0.7752 C   0  0  0  0  0  0  0  0  0  0  0  0
   -5.3891   -4.1959   -1.4750 F   0  0  0  0  0  0  0  0  0  0  0  0
   -3.2723   -3.7757   -1.2417 F   0  0  0  0  0  0  0  0  0  0  0  0
   -4.5546   -3.8913    0.5095 F   0  0  0  0  0  0  0  0  0  0  0  0
   -3.7873   -1.0346   -0.4462 C   0  0  0  0  0  0  0  0  0  0  0  0
   -1.9012    0.8743    0.9484 C   0  0  0  0  0  0  0  0  0  0  0  0
   -0.5903    0.4894    0.2691 C   0  0  0  0  0  0  0  0  0  0  0  0
    3.6423    0.6377   -0.3269 C   0  0  0  0  0  0  0  0  0  0  0  0
    4.2940    0.9361   -1.6284 C   0  0  0  0  0  0  0  0  0  0  0  0
    4.2020   -0.0852    0.7712 C   0  0  0  0  0  0  0  0  0  0  0  0
    5.4221   -0.7395    1.0343 C   0  0  0  0  0  0  0  0  0  0  0  0
    6.7834   -2.8603    3.2921 H   0  0  0  0  0  0  0  0  0  0  0  0
    7.3699   -2.4550    1.6752 H   0  0  0  0  0  0  0  0  0  0  0  0
    7.6276   -1.3107    3.0241 H   0  0  0  0  0  0  0  0  0  0  0  0
    4.7728   -1.7641    4.2351 H   0  0  0  0  0  0  0  0  0  0  0  0
    2.6141   -0.5986    3.7713 H   0  0  0  0  0  0  0  0  0  0  0  0
   -0.5033    3.0094   -1.9335 H   0  0  0  0  0  0  0  0  0  0  0  0
   -1.0495    3.4269   -0.3082 H   0  0  0  0  0  0  0  0  0  0  0  0
   -2.1207    1.1727   -2.0797 H   0  0  0  0  0  0  0  0  0  0  0  0
   -2.9278    2.7190   -1.7946 H   0  0  0  0  0  0  0  0  0  0  0  0
   -4.2457    2.0566    1.2368 H   0  0  0  0  0  0  0  0  0  0  0  0
   -5.4425    1.8688   -1.0918 H   0  0  0  0  0  0  0  0  0  0  0  0
   -7.1726    0.2751   -1.8051 H   0  0  0  0  0  0  0  0  0  0  0  0
   -6.7739   -2.1589   -1.6715 H   0  0  0  0  0  0  0  0  0  0  0  0
   -2.8398   -1.4354   -0.0831 H   0  0  0  0  0  0  0  0  0  0  0  0
   -1.6827    1.6660    1.6801 H   0  0  0  0  0  0  0  0  0  0  0  0
   -2.2841    0.0391    1.5443 H   0  0  0  0  0  0  0  0  0  0  0  0
    0.0718    0.0439    1.0082 H   0  0  0  0  0  0  0  0  0  0  0  0
   -0.7525   -0.2757   -0.5005 H   0  0  0  0  0  0  0  0  0  0  0  0
    4.6584    1.9674   -1.6418 H   0  0  0  0  0  0  0  0  0  0  0  0
    5.1421    0.2731   -1.8102 H   0  0  0  0  0  0  0  0  0  0  0  0
    3.5949    0.8055   -2.4590 H   0  0  0  0  0  0  0  0  0  0  0  0
    6.2021   -0.7651    0.2787 H   0  0  0  0  0  0  0  0  0  0  0  0
  1  2  1  0
  2  3  2  0
  3  4  1  0
  4  5  2  0
  5  6  1  0
  6  7  1  0
  7  8  1  0
  8  9  2  0
  8 10  1  0
 10 11  1  0
 11 12  1  0
 12 13  1  0
 13 14  1  0
 13 15  1  0
 15 16  2  0
 16 17  1  0
 17 18  2  0
 18 19  1  0
 19 20  1  0
 20 21  1  0
 20 22  1  0
 20 23  1  0
 19 24  2  0
 13 25  1  0
 25 26  1  0
  7 27  2  0
 27 28  1  0
 27 29  1  0
 29 30  2  0
 30  2  1  0
 29  5  1  0
 26 10  1  0
 24 15  1  0
  1 31  1  0
  1 32  1  0
  1 33  1  0
  3 34  1  0
  4 35  1  0
 11 36  1  0
 11 37  1  0
 12 38  1  0
 12 39  1  0
 14 40  1  0
 16 41  1  0
 17 42  1  0
 18 43  1  0
 24 44  1  0
 25 45  1  0
 25 46  1  0
 26 47  1  0
 26 48  1  0
 28 49  1  0
 28 50  1  0
 28 51  1  0
 30 52  1  0
M  END
$$$$
