
     RDKit          3D

 53 55  0  0  0  0  0  0  0  0999 V2000
    5.7424   -0.4011   -2.6701 C   0  0  0  0  0  0  0  0  0  0  0  0
    5.2161    0.9755   -2.5612 C   0  0  0  0  0  0  0  0  0  0  0  0
    6.0763    1.9669   -2.9311 O   0  0  0  0  0  0  0  0  0  0  0  0
    5.4008    3.1392   -2.8336 C   0  0  0  0  0  0  0  0  0  0  0  0
    4.1179    2.9179   -2.3956 C   0  0  0  0  0  0  0  0  0  0  0  0
    3.9999    1.5153   -2.1756 C   0  0  0  0  0  0  0  0  0  0  0  0
    2.8207    0.7898   -1.7367 C   0  0  0  0  0  0  0  0  0  0  0  0
    1.7734    0.8824   -2.3733 O   0  0  0  0  0  0  0  0  0  0  0  0
    2.9203    0.0104   -0.5800 N   0  0  0  0  0  0  0  0  0  0  0  0
    4.0707   -0.0075    0.3147 C   0  0  0  0  0  0  0  0  0  0  0  0
    1.7947   -0.8594   -0.2389 C   0  0  0  0  0  0  0  0  0  0  0  0
    0.6004   -0.1231    0.4018 C   0  0  0  0  0  0  0  0  0  0  0  0
    0.9570    0.5012    1.7577 C   0  0  0  0  0  0  0  0  0  0  0  0
   -0.2778    1.0843    2.4391 C   0  0  0  0  0  0  0  0  0  0  0  0
   -1.4134    0.0625    2.5091 C   0  0  0  0  0  0  0  0  0  0  0  0
   -1.7649   -0.5320    1.2136 N   0  0  0  0  0  0  0  0  0  0  0  0
   -2.4878    0.3826    0.3073 C   0  0  0  0  0  0  0  0  0  0  0  0
   -3.9285    0.7103    0.7453 C   0  0  0  0  0  0  0  0  0  0  0  0
   -4.8526   -0.4814    0.7227 C   0  0  0  0  0  0  0  0  0  0  0  0
   -5.1222   -1.2082    1.8896 C   0  0  0  0  0  0  0  0  0  0  0  0
   -5.9721   -2.3171    1.8524 C   0  0  0  0  0  0  0  0  0  0  0  0
   -6.5577   -2.7133    0.6496 C   0  0  0  0  0  0  0  0  0  0  0  0
   -6.2902   -2.0019   -0.5182 C   0  0  0  0  0  0  0  0  0  0  0  0
   -5.4421   -0.8989   -0.4739 C   0  0  0  0  0  0  0  0  0  0  0  0
   -5.1953   -0.2283   -1.6089 F   0  0  0  0  0  0  0  0  0  0  0  0
   -0.5740   -1.1079    0.5678 C   0  0  0  0  0  0  0  0  0  0  0  0
    6.4284   -0.6119   -1.8443 H   0  0  0  0  0  0  0  0  0  0  0  0
    6.2864   -0.5323   -3.6107 H   0  0  0  0  0  0  0  0  0  0  0  0
    4.9350   -1.1390   -2.6451 H   0  0  0  0  0  0  0  0  0  0  0  0
    5.9544    4.0233   -3.1177 H   0  0  0  0  0  0  0  0  0  0  0  0
    3.3527    3.6669   -2.2458 H   0  0  0  0  0  0  0  0  0  0  0  0
    4.7095    0.8678    0.1846 H   0  0  0  0  0  0  0  0  0  0  0  0
    3.7286   -0.0224    1.3529 H   0  0  0  0  0  0  0  0  0  0  0  0
    4.6457   -0.9169    0.1192 H   0  0  0  0  0  0  0  0  0  0  0  0
    2.1562   -1.6623    0.4155 H   0  0  0  0  0  0  0  0  0  0  0  0
    1.4610   -1.3401   -1.1676 H   0  0  0  0  0  0  0  0  0  0  0  0
    0.2861    0.6856   -0.2695 H   0  0  0  0  0  0  0  0  0  0  0  0
    1.7011    1.2955    1.6311 H   0  0  0  0  0  0  0  0  0  0  0  0
    1.4028   -0.2585    2.4122 H   0  0  0  0  0  0  0  0  0  0  0  0
   -0.6064    1.9814    1.9017 H   0  0  0  0  0  0  0  0  0  0  0  0
   -0.0143    1.4072    3.4530 H   0  0  0  0  0  0  0  0  0  0  0  0
   -1.1120   -0.7498    3.1841 H   0  0  0  0  0  0  0  0  0  0  0  0
   -2.2869    0.5157    2.9888 H   0  0  0  0  0  0  0  0  0  0  0  0
   -1.9402    1.3234    0.1797 H   0  0  0  0  0  0  0  0  0  0  0  0
   -2.5454   -0.0731   -0.6903 H   0  0  0  0  0  0  0  0  0  0  0  0
   -3.9464    1.1796    1.7355 H   0  0  0  0  0  0  0  0  0  0  0  0
   -4.3332    1.4737    0.0673 H   0  0  0  0  0  0  0  0  0  0  0  0
   -4.6611   -0.9204    2.8315 H   0  0  0  0  0  0  0  0  0  0  0  0
   -6.1717   -2.8757    2.7635 H   0  0  0  0  0  0  0  0  0  0  0  0
   -7.2162   -3.5773    0.6226 H   0  0  0  0  0  0  0  0  0  0  0  0
   -6.7330   -2.2990   -1.4631 H   0  0  0  0  0  0  0  0  0  0  0  0
   -0.2444   -1.9646    1.1716 H   0  0  0  0  0  0  0  0  0  0  0  0
   -0.8489   -1.5352   -0.4052 H   0  0  0  0  0  0  0  0  0  0  0  0
  1  2  1  0
  2  3  1  0
  3  4  1  0
  4  5  2  0
  5  6  1  0
  6  7  1  0
  7  8  2  0
  7  9  1  0
  9 10  1  0
  9 11  1  0
 11 12  1  0
 12 13  1  0
 13 14  1  0
 14 15  1  0
 15 16  1  0
 16 17  1  0
 17 18  1  0
 18 19  1  0
 19 20  2  0
 20 21  1  0
 21 22  2  0
 22 23  1  0
 23 24  2  0
 24 25  1  0
 16 26  1  0
  6  2  2  0
 26 12  1  0
 24 19  1  0
  1 27  1  0
  1 28  1  0
  1 29  1  0
  4 30  1  0
  5 31  1  0
 10 32  1  0
 10 33  1  0
 10 34  1  0
 11 35  1  0
 11 36  1  0
 12 37  1  0
 13 38  1  0
 13 39  1  0
 14 40  1  0
 14 41  1  0
 15 42  1  0
 15 43  1  0
 17 44  1  0
 17 45  1  0
 18 46  1  0
 18 47  1  0
 20 48  1  0
 21 49  1  0
 22 50  1  0
 23 51  1  0
 26 52  1  0
 26 53  1  0
M  END
$$$$
