
     RDKit          3D

 55 58  0  0  0  0  0  0  0  0999 V2000
   -7.8086    0.7755   -0.6558 C   0  0  0  0  0  0  0  0  0  0  0  0
   -6.8579   -0.1808   -0.2125 O   0  0  0  0  0  0  0  0  0  0  0  0
   -5.5356    0.1654   -0.2912 C   0  0  0  0  0  0  0  0  0  0  0  0
   -5.0474    1.3754   -0.7770 C   0  0  0  0  0  0  0  0  0  0  0  0
   -3.6660    1.6207   -0.8046 C   0  0  0  0  0  0  0  0  0  0  0  0
   -2.7277    0.6711   -0.3561 C   0  0  0  0  0  0  0  0  0  0  0  0
   -1.2794    0.9676   -0.3912 C   0  0  0  0  0  0  0  0  0  0  0  0
   -0.3724    0.4143    0.4951 C   0  0  0  0  0  0  0  0  0  0  0  0
    0.9700    0.7688    0.3726 C   0  0  0  0  0  0  0  0  0  0  0  0
    1.9073    0.1524    1.3278 C   0  0  0  0  0  0  0  0  0  0  0  0
    1.9486    0.6173    2.4629 O   0  0  0  0  0  0  0  0  0  0  0  0
    2.6741   -0.9296    0.8940 N   0  0  0  0  0  0  0  0  0  0  0  0
    2.4470   -1.6108   -0.3845 C   0  0  0  0  0  0  0  0  0  0  0  0
    3.3831   -2.7975   -0.5988 C   0  0  0  0  0  0  0  0  0  0  0  0
    4.8093   -2.4123   -0.2245 C   0  0  0  0  0  0  0  0  0  0  0  0
    4.9159   -1.9636    1.2451 C   0  0  0  0  0  0  0  0  0  0  0  0
    5.9148   -0.8299    1.3952 C   0  0  0  0  0  0  0  0  0  0  0  0
    5.5308    0.2801    0.7302 F   0  0  0  0  0  0  0  0  0  0  0  0
    7.1236   -1.1974    0.9083 F   0  0  0  0  0  0  0  0  0  0  0  0
    6.0926   -0.5008    2.6928 F   0  0  0  0  0  0  0  0  0  0  0  0
    3.5654   -1.5749    1.8531 C   0  0  0  0  0  0  0  0  0  0  0  0
    1.4054    1.6974   -0.5911 C   0  0  0  0  0  0  0  0  0  0  0  0
    2.7433    2.1412   -0.7400 C   0  0  0  0  0  0  0  0  0  0  0  0
    3.0849    3.0591   -1.7303 C   0  0  0  0  0  0  0  0  0  0  0  0
    2.0996    3.5456   -2.5779 C   0  0  0  0  0  0  0  0  0  0  0  0
    0.7791    3.1147   -2.4250 C   0  0  0  0  0  0  0  0  0  0  0  0
    0.4113    2.2028   -1.4441 C   0  0  0  0  0  0  0  0  0  0  0  0
   -0.8818    1.8431   -1.3502 N   0  0  0  0  0  0  0  0  0  0  0  0
   -3.2339   -0.5507    0.1166 C   0  0  0  0  0  0  0  0  0  0  0  0
   -4.6133   -0.7852    0.1671 C   0  0  0  0  0  0  0  0  0  0  0  0
   -5.0408   -2.0061    0.6329 O   0  0  0  0  0  0  0  0  0  0  0  0
   -5.2732   -1.9311    2.0389 C   0  0  0  0  0  0  0  0  0  0  0  0
   -8.8053    0.3461   -0.5122 H   0  0  0  0  0  0  0  0  0  0  0  0
   -7.7531    1.6940   -0.0607 H   0  0  0  0  0  0  0  0  0  0  0  0
   -7.6866    0.9873   -1.7241 H   0  0  0  0  0  0  0  0  0  0  0  0
   -5.7060    2.1547   -1.1454 H   0  0  0  0  0  0  0  0  0  0  0  0
   -3.3185    2.5805   -1.1844 H   0  0  0  0  0  0  0  0  0  0  0  0
   -0.6824   -0.2628    1.2835 H   0  0  0  0  0  0  0  0  0  0  0  0
    2.5917   -0.8807   -1.1880 H   0  0  0  0  0  0  0  0  0  0  0  0
    1.4042   -1.9452   -0.4232 H   0  0  0  0  0  0  0  0  0  0  0  0
    3.3364   -3.1240   -1.6439 H   0  0  0  0  0  0  0  0  0  0  0  0
    3.0593   -3.6474    0.0150 H   0  0  0  0  0  0  0  0  0  0  0  0
    5.1473   -1.6156   -0.8989 H   0  0  0  0  0  0  0  0  0  0  0  0
    5.4797   -3.2628   -0.3945 H   0  0  0  0  0  0  0  0  0  0  0  0
    5.3028   -2.8067    1.8330 H   0  0  0  0  0  0  0  0  0  0  0  0
    3.0418   -2.4791    2.1909 H   0  0  0  0  0  0  0  0  0  0  0  0
    3.7007   -0.9555    2.7465 H   0  0  0  0  0  0  0  0  0  0  0  0
    3.5268    1.7782   -0.0764 H   0  0  0  0  0  0  0  0  0  0  0  0
    4.1139    3.3944   -1.8331 H   0  0  0  0  0  0  0  0  0  0  0  0
    2.3495    4.2643   -3.3540 H   0  0  0  0  0  0  0  0  0  0  0  0
    0.0120    3.5068   -3.0893 H   0  0  0  0  0  0  0  0  0  0  0  0
   -2.5687   -1.3456    0.4441 H   0  0  0  0  0  0  0  0  0  0  0  0
   -5.8030   -1.0175    2.3361 H   0  0  0  0  0  0  0  0  0  0  0  0
   -5.8918   -2.7885    2.3255 H   0  0  0  0  0  0  0  0  0  0  0  0
   -4.3188   -2.0008    2.5756 H   0  0  0  0  0  0  0  0  0  0  0  0
  1  2  1  0
  2  3  1  0
  3  4  2  0
  4  5  1  0
  5  6  2  0
  6  7  1  0
  7  8  2  0
  8  9  1  0
  9 10  1  0
 10 11  2  0
 10 12  1  0
 12 13  1  0
 13 14  1  0
 14 15  1  0
 15 16  1  0
 16 17  1  0
 17 18  1  0
 17 19  1  0
 17 20  1  0
 16 21  1  0
  9 22  2  0
 22 23  1  0
 23 24  2  0
 24 25  1  0
 25 26  2  0
 26 27  1  0
 27 28  2  0
  6 29  1  0
 29 30  2  0
 30 31  1  0
 31 32  1  0
 30  3  1  0
 28  7  1  0
 21 12  1  0
 27 22  1  0
  1 33  1  0
  1 34  1  0
  1 35  1  0
  4 36  1  0
  5 37  1  0
  8 38  1  0
 13 39  1  0
 13 40  1  0
 14 41  1  0
 14 42  1  0
 15 43  1  0
 15 44  1  0
 16 45  1  0
 21 46  1  0
 21 47  1  0
 23 48  1  0
 24 49  1  0
 25 50  1  0
 26 51  1  0
 29 52  1  0
 32 53  1  0
 32 54  1  0
 32 55  1  0
M  END
$$$$
