
     RDKit          3D

 87 91  0  0  0  0  0  0  0  0999 V2000
   -0.4023    2.0451   -2.5443 C   0  0  0  0  0  0  0  0  0  0  0  0
   -0.1057    3.2348   -1.6145 C   0  0  0  0  0  0  0  0  0  0  0  0
    1.1734    3.9327   -2.1160 C   0  0  0  0  0  0  0  0  0  0  0  0
    1.6618    4.9338   -1.1707 N   0  0  0  0  0  0  0  0  0  0  0  0
    1.1329    6.3144   -1.2905 C   0  0  0  0  0  0  0  0  0  0  0  0
    2.2738    7.3289   -1.4417 C   0  0  0  0  0  0  0  0  0  0  0  0
    0.1744    6.7254   -0.1513 C   0  0  0  0  0  0  0  0  0  0  0  0
   -1.0680    6.0340   -0.2710 O   0  0  0  0  0  0  0  0  0  0  0  0
    2.4212    4.5733   -0.0521 C   0  0  0  0  0  0  0  0  0  0  0  0
    2.6685    5.3383    0.8756 O   0  0  0  0  0  0  0  0  0  0  0  0
    3.0013    3.2145    0.0214 C   0  0  0  0  0  0  0  0  0  0  0  0
    4.4071    3.2052    0.0231 C   0  0  0  0  0  0  0  0  0  0  0  0
    5.1119    2.0057    0.0754 C   0  0  0  0  0  0  0  0  0  0  0  0
    4.4202    0.7981    0.1418 C   0  0  0  0  0  0  0  0  0  0  0  0
    3.0237    0.7937    0.1663 C   0  0  0  0  0  0  0  0  0  0  0  0
    2.2916   -0.4115    0.3025 N   0  0  0  0  0  0  0  0  0  0  0  0
    2.7039   -1.6587   -0.1176 C   0  0  0  0  0  0  0  0  0  0  0  0
    3.7009   -1.8769   -0.7931 O   0  0  0  0  0  0  0  0  0  0  0  0
    1.8475   -2.6389    0.3575 N   0  0  0  0  0  0  0  0  0  0  0  0
    1.8467   -3.9816   -0.0693 C   0  0  0  0  0  0  0  0  0  0  0  0
    1.3771   -4.9635    0.8093 C   0  0  0  0  0  0  0  0  0  0  0  0
    1.3348   -6.3076    0.4114 C   0  0  0  0  0  0  0  0  0  0  0  0
    1.7506   -6.6847   -0.8763 C   0  0  0  0  0  0  0  0  0  0  0  0
    1.6743   -8.1246   -1.3252 C   0  0  0  0  0  0  0  0  0  0  0  0
    2.0484   -9.0104   -0.3551 F   0  0  0  0  0  0  0  0  0  0  0  0
    2.4639   -8.3978   -2.4058 F   0  0  0  0  0  0  0  0  0  0  0  0
    0.4079   -8.4807   -1.6844 F   0  0  0  0  0  0  0  0  0  0  0  0
    2.2012   -5.6897   -1.7591 C   0  0  0  0  0  0  0  0  0  0  0  0
    2.2516   -4.3528   -1.3567 C   0  0  0  0  0  0  0  0  0  0  0  0
    2.2910    2.0063    0.0992 C   0  0  0  0  0  0  0  0  0  0  0  0
    0.9388    1.7881    0.0835 O   0  0  0  0  0  0  0  0  0  0  0  0
   -0.0083    2.8399   -0.1144 C   0  0  0  0  0  0  0  0  0  0  0  0
   -1.3792    2.3338    0.4140 C   0  0  0  0  0  0  0  0  0  0  0  0
   -1.4188    1.9879    1.8572 N   0  0  0  0  0  0  0  0  0  0  0  0
   -1.1115    3.1475    2.6971 C   0  0  0  0  0  0  0  0  0  0  0  0
   -2.7399    1.4474    2.2275 C   0  0  0  0  0  0  0  0  0  0  0  0
   -2.9620    0.0304    1.7400 C   0  0  0  0  0  0  0  0  0  0  0  0
   -2.3132   -1.0438    2.3630 C   0  0  0  0  0  0  0  0  0  0  0  0
   -2.5353   -2.3541    1.9286 C   0  0  0  0  0  0  0  0  0  0  0  0
   -3.4037   -2.6309    0.8588 C   0  0  0  0  0  0  0  0  0  0  0  0
   -3.6609   -4.0148    0.4203 C   0  0  0  0  0  0  0  0  0  0  0  0
   -4.9720   -4.4872    0.2319 C   0  0  0  0  0  0  0  0  0  0  0  0
   -5.2090   -5.8026   -0.1767 C   0  0  0  0  0  0  0  0  0  0  0  0
   -4.1412   -6.6714   -0.4031 C   0  0  0  0  0  0  0  0  0  0  0  0
   -2.8346   -6.2237   -0.2247 C   0  0  0  0  0  0  0  0  0  0  0  0
   -2.5998   -4.9066    0.1822 C   0  0  0  0  0  0  0  0  0  0  0  0
   -4.0287   -1.5453    0.2269 C   0  0  0  0  0  0  0  0  0  0  0  0
   -3.8173   -0.2331    0.6627 C   0  0  0  0  0  0  0  0  0  0  0  0
   -0.4056    2.3688   -3.5920 H   0  0  0  0  0  0  0  0  0  0  0  0
    0.3464    1.2513   -2.4479 H   0  0  0  0  0  0  0  0  0  0  0  0
   -1.3871    1.6150   -2.3465 H   0  0  0  0  0  0  0  0  0  0  0  0
   -0.9393    3.9455   -1.7211 H   0  0  0  0  0  0  0  0  0  0  0  0
    1.9712    3.2063   -2.3144 H   0  0  0  0  0  0  0  0  0  0  0  0
    0.9827    4.4157   -3.0829 H   0  0  0  0  0  0  0  0  0  0  0  0
    0.5598    6.3497   -2.2255 H   0  0  0  0  0  0  0  0  0  0  0  0
    2.8573    7.4427   -0.5243 H   0  0  0  0  0  0  0  0  0  0  0  0
    1.8805    8.3184   -1.7004 H   0  0  0  0  0  0  0  0  0  0  0  0
    2.9610    7.0225   -2.2442 H   0  0  0  0  0  0  0  0  0  0  0  0
    0.5774    6.5191    0.8349 H   0  0  0  0  0  0  0  0  0  0  0  0
   -0.0451    7.7964   -0.2050 H   0  0  0  0  0  0  0  0  0  0  0  0
   -1.6561    6.4160    0.4078 H   0  0  0  0  0  0  0  0  0  0  0  0
    4.9544    4.1460   -0.0220 H   0  0  0  0  0  0  0  0  0  0  0  0
    6.1987    2.0081    0.0743 H   0  0  0  0  0  0  0  0  0  0  0  0
    4.9918   -0.1260    0.2018 H   0  0  0  0  0  0  0  0  0  0  0  0
    1.2890   -0.2789    0.3943 H   0  0  0  0  0  0  0  0  0  0  0  0
    1.4419   -2.4322    1.2613 H   0  0  0  0  0  0  0  0  0  0  0  0
    1.0619   -4.6970    1.8176 H   0  0  0  0  0  0  0  0  0  0  0  0
    0.9807   -7.0663    1.1123 H   0  0  0  0  0  0  0  0  0  0  0  0
    2.5199   -5.9491   -2.7708 H   0  0  0  0  0  0  0  0  0  0  0  0
    2.5933   -3.6070   -2.0773 H   0  0  0  0  0  0  0  0  0  0  0  0
    0.2426    3.7088    0.4933 H   0  0  0  0  0  0  0  0  0  0  0  0
   -1.6217    1.4287   -0.1467 H   0  0  0  0  0  0  0  0  0  0  0  0
   -2.1460    3.0831    0.1842 H   0  0  0  0  0  0  0  0  0  0  0  0
   -0.0755    3.4711    2.5741 H   0  0  0  0  0  0  0  0  0  0  0  0
   -1.7722    3.9960    2.4902 H   0  0  0  0  0  0  0  0  0  0  0  0
   -1.2079    2.8942    3.7585 H   0  0  0  0  0  0  0  0  0  0  0  0
   -3.5505    2.1036    1.8812 H   0  0  0  0  0  0  0  0  0  0  0  0
   -2.8471    1.4121    3.3190 H   0  0  0  0  0  0  0  0  0  0  0  0
   -1.6396   -0.8659    3.2005 H   0  0  0  0  0  0  0  0  0  0  0  0
   -2.0414   -3.1688    2.4532 H   0  0  0  0  0  0  0  0  0  0  0  0
   -5.8239   -3.8361    0.4162 H   0  0  0  0  0  0  0  0  0  0  0  0
   -6.2318   -6.1531   -0.3128 H   0  0  0  0  0  0  0  0  0  0  0  0
   -4.3288   -7.6971   -0.7179 H   0  0  0  0  0  0  0  0  0  0  0  0
   -1.9974   -6.8971   -0.4031 H   0  0  0  0  0  0  0  0  0  0  0  0
   -1.5690   -4.5759    0.2942 H   0  0  0  0  0  0  0  0  0  0  0  0
   -4.6881   -1.7151   -0.6253 H   0  0  0  0  0  0  0  0  0  0  0  0
   -4.3256    0.5800    0.1480 H   0  0  0  0  0  0  0  0  0  0  0  0
  1  2  1  0
  2  3  1  0
  3  4  1  0
  4  5  1  0
  5  6  1  0
  5  7  1  0
  7  8  1  0
  4  9  1  0
  9 10  2  0
  9 11  1  0
 11 12  2  0
 12 13  1  0
 13 14  2  0
 14 15  1  0
 15 16  1  0
 16 17  1  0
 17 18  2  0
 17 19  1  0
 19 20  1  0
 20 21  2  0
 21 22  1  0
 22 23  2  0
 23 24  1  0
 24 25  1  0
 24 26  1  0
 24 27  1  0
 23 28  1  0
 28 29  2  0
 15 30  2  0
 30 31  1  0
 31 32  1  0
 32 33  1  0
 33 34  1  0
 34 35  1  0
 34 36  1  0
 36 37  1  0
 37 38  2  0
 38 39  1  0
 39 40  2  0
 40 41  1  0
 41 42  2  0
 42 43  1  0
 43 44  2  0
 44 45  1  0
 45 46  2  0
 40 47  1  0
 47 48  2  0
 32  2  1  0
 48 37  1  0
 30 11  1  0
 46 41  1  0
 29 20  1  0
  1 49  1  0
  1 50  1  0
  1 51  1  0
  2 52  1  0
  3 53  1  0
  3 54  1  0
  5 55  1  0
  6 56  1  0
  6 57  1  0
  6 58  1  0
  7 59  1  0
  7 60  1  0
  8 61  1  0
 12 62  1  0
 13 63  1  0
 14 64  1  0
 16 65  1  0
 19 66  1  0
 21 67  1  0
 22 68  1  0
 28 69  1  0
 29 70  1  0
 32 71  1  0
 33 72  1  0
 33 73  1  0
 35 74  1  0
 35 75  1  0
 35 76  1  0
 36 77  1  0
 36 78  1  0
 38 79  1  0
 39 80  1  0
 42 81  1  0
 43 82  1  0
 44 83  1  0
 45 84  1  0
 46 85  1  0
 47 86  1  0
 48 87  1  0
M  END
$$$$
