
     RDKit          3D

 47 48  0  0  0  0  0  0  0  0999 V2000
    5.1683    0.8272    0.0839 C   0  0  0  0  0  0  0  0  0  0  0  0
    3.7697    0.6072   -0.0482 O   0  0  0  0  0  0  0  0  0  0  0  0
    3.0978    1.3855   -0.9527 C   0  0  0  0  0  0  0  0  0  0  0  0
    3.7083    2.1742   -1.9332 C   0  0  0  0  0  0  0  0  0  0  0  0
    2.9335    2.9412   -2.8120 C   0  0  0  0  0  0  0  0  0  0  0  0
    1.5428    2.9359   -2.7176 C   0  0  0  0  0  0  0  0  0  0  0  0
    0.9204    2.1503   -1.7514 C   0  0  0  0  0  0  0  0  0  0  0  0
    1.6967    1.3537   -0.8988 C   0  0  0  0  0  0  0  0  0  0  0  0
    0.9988    0.6117    0.1578 C   0  0  0  0  0  0  0  0  0  0  0  0
    0.8268    1.1974    1.2313 O   0  0  0  0  0  0  0  0  0  0  0  0
    0.5098   -0.6754   -0.0725 N   0  0  0  0  0  0  0  0  0  0  0  0
   -0.3007   -1.1630    1.0002 N   0  0  0  0  0  0  0  0  0  0  0  0
   -1.6272   -0.7701    1.0196 C   0  0  0  0  0  0  0  0  0  0  0  0
   -2.2660   -0.4048    0.0389 O   0  0  0  0  0  0  0  0  0  0  0  0
   -2.1049   -0.8632    2.3187 O   0  0  0  0  0  0  0  0  0  0  0  0
   -3.4129   -0.3991    2.4704 C   0  0  0  0  0  0  0  0  0  0  0  0
   -4.4401   -1.3291    2.6134 C   0  0  0  0  0  0  0  0  0  0  0  0
   -5.7427   -0.8757    2.8179 C   0  0  0  0  0  0  0  0  0  0  0  0
   -6.0024    0.4953    2.8910 C   0  0  0  0  0  0  0  0  0  0  0  0
   -4.9603    1.4172    2.7644 C   0  0  0  0  0  0  0  0  0  0  0  0
   -3.6556    0.9709    2.5601 C   0  0  0  0  0  0  0  0  0  0  0  0
    0.6585   -1.6334   -1.2231 C   0  0  0  0  0  0  0  0  0  0  0  0
    2.1461   -1.9419   -1.4797 C   0  0  0  0  0  0  0  0  0  0  0  0
    0.0255   -1.0716   -2.5084 C   0  0  0  0  0  0  0  0  0  0  0  0
   -0.0221   -3.0034   -0.9490 C   0  0  0  0  0  0  0  0  0  0  0  0
    5.5220    0.2287    0.9290 H   0  0  0  0  0  0  0  0  0  0  0  0
    5.3892    1.8772    0.3032 H   0  0  0  0  0  0  0  0  0  0  0  0
    5.7023    0.4883   -0.8096 H   0  0  0  0  0  0  0  0  0  0  0  0
    4.7873    2.2166   -2.0419 H   0  0  0  0  0  0  0  0  0  0  0  0
    3.4208    3.5549   -3.5665 H   0  0  0  0  0  0  0  0  0  0  0  0
    0.9462    3.5487   -3.3889 H   0  0  0  0  0  0  0  0  0  0  0  0
   -0.1636    2.1568   -1.6566 H   0  0  0  0  0  0  0  0  0  0  0  0
    0.1450   -1.0814    1.9102 H   0  0  0  0  0  0  0  0  0  0  0  0
   -4.2315   -2.3928    2.5621 H   0  0  0  0  0  0  0  0  0  0  0  0
   -6.5563   -1.5886    2.9212 H   0  0  0  0  0  0  0  0  0  0  0  0
   -7.0191    0.8464    3.0486 H   0  0  0  0  0  0  0  0  0  0  0  0
   -5.1657    2.4827    2.8250 H   0  0  0  0  0  0  0  0  0  0  0  0
   -2.8404    1.6825    2.4654 H   0  0  0  0  0  0  0  0  0  0  0  0
    2.6562   -2.2223   -0.5514 H   0  0  0  0  0  0  0  0  0  0  0  0
    2.2649   -2.7681   -2.1907 H   0  0  0  0  0  0  0  0  0  0  0  0
    2.6757   -1.0916   -1.9128 H   0  0  0  0  0  0  0  0  0  0  0  0
    0.5941   -0.2348   -2.9182 H   0  0  0  0  0  0  0  0  0  0  0  0
   -0.0100   -1.8326   -3.2970 H   0  0  0  0  0  0  0  0  0  0  0  0
   -0.9987   -0.7280   -2.3310 H   0  0  0  0  0  0  0  0  0  0  0  0
    0.3828   -3.4786   -0.0479 H   0  0  0  0  0  0  0  0  0  0  0  0
   -1.1057   -2.9015   -0.8244 H   0  0  0  0  0  0  0  0  0  0  0  0
    0.1366   -3.6994   -1.7815 H   0  0  0  0  0  0  0  0  0  0  0  0
  1  2  1  0
  2  3  1  0
  3  4  2  0
  4  5  1  0
  5  6  2  0
  6  7  1  0
  7  8  2  0
  8  9  1  0
  9 10  2  0
  9 11  1  0
 11 12  1  0
 12 13  1  0
 13 14  2  0
 13 15  1  0
 15 16  1  0
 16 17  2  0
 17 18  1  0
 18 19  2  0
 19 20  1  0
 20 21  2  0
 11 22  1  0
 22 23  1  0
 22 24  1  0
 22 25  1  0
  8  3  1  0
 21 16  1  0
  1 26  1  0
  1 27  1  0
  1 28  1  0
  4 29  1  0
  5 30  1  0
  6 31  1  0
  7 32  1  0
 12 33  1  0
 17 34  1  0
 18 35  1  0
 19 36  1  0
 20 37  1  0
 21 38  1  0
 23 39  1  0
 23 40  1  0
 23 41  1  0
 24 42  1  0
 24 43  1  0
 24 44  1  0
 25 45  1  0
 25 46  1  0
 25 47  1  0
M  END
$$$$
