
     RDKit          3D

 39 40  0  0  0  0  0  0  0  0999 V2000
   -3.1406   -1.8208    2.6743 C   0  0  0  0  0  0  0  0  0  0  0  0
   -3.6772   -1.9176    1.2547 C   0  0  0  0  0  0  0  0  0  0  0  0
   -2.6592   -1.5076    0.1888 C   0  0  0  0  0  0  0  0  0  0  0  0
   -2.2757   -0.0277    0.2551 C   0  0  0  0  0  0  0  0  0  0  0  0
   -1.3816    0.3004   -0.8499 N   0  0  0  0  0  0  0  0  0  0  0  0
   -1.7740    0.9413   -1.9850 C   0  0  0  0  0  0  0  0  0  0  0  0
   -3.0477    0.8026   -2.3962 N   0  0  0  0  0  0  0  0  0  0  0  0
   -0.9058    1.6645   -2.6277 N   0  0  0  0  0  0  0  0  0  0  0  0
    0.3477    1.5063   -1.8385 C   0  0  0  0  0  0  0  0  0  0  0  0
   -0.0372    0.7895   -0.5266 C   0  0  0  0  0  0  0  0  0  0  0  0
    0.9072   -0.3616   -0.1654 C   0  0  0  0  0  0  0  0  0  0  0  0
    2.2813    0.1109    0.2472 C   0  0  0  0  0  0  0  0  0  0  0  0
    2.4833    0.6879    1.5095 C   0  0  0  0  0  0  0  0  0  0  0  0
    3.7499    1.1359    1.8862 C   0  0  0  0  0  0  0  0  0  0  0  0
    4.8161    1.0089    1.0049 C   0  0  0  0  0  0  0  0  0  0  0  0
    6.0357    1.4600    1.4143 O   0  0  0  0  0  0  0  0  0  0  0  0
    4.6379    0.4386   -0.2508 C   0  0  0  0  0  0  0  0  0  0  0  0
    3.3702   -0.0101   -0.6282 C   0  0  0  0  0  0  0  0  0  0  0  0
   -3.8725   -2.2249    3.3810 H   0  0  0  0  0  0  0  0  0  0  0  0
   -2.9436   -0.7833    2.9592 H   0  0  0  0  0  0  0  0  0  0  0  0
   -2.2135   -2.3922    2.7837 H   0  0  0  0  0  0  0  0  0  0  0  0
   -4.5815   -1.3050    1.1627 H   0  0  0  0  0  0  0  0  0  0  0  0
   -3.9770   -2.9555    1.0665 H   0  0  0  0  0  0  0  0  0  0  0  0
   -3.0848   -1.7348   -0.7962 H   0  0  0  0  0  0  0  0  0  0  0  0
   -1.7593   -2.1285    0.2810 H   0  0  0  0  0  0  0  0  0  0  0  0
   -3.1721    0.6037    0.2325 H   0  0  0  0  0  0  0  0  0  0  0  0
   -1.7803    0.1797    1.2105 H   0  0  0  0  0  0  0  0  0  0  0  0
   -3.3596   -0.1583   -2.3787 H   0  0  0  0  0  0  0  0  0  0  0  0
   -3.1539    1.1993   -3.3243 H   0  0  0  0  0  0  0  0  0  0  0  0
    1.0619    0.9326   -2.4389 H   0  0  0  0  0  0  0  0  0  0  0  0
    0.7839    2.4892   -1.6318 H   0  0  0  0  0  0  0  0  0  0  0  0
   -0.0948    1.5304    0.2817 H   0  0  0  0  0  0  0  0  0  0  0  0
    0.4877   -0.9465    0.6637 H   0  0  0  0  0  0  0  0  0  0  0  0
    0.9858   -1.0685   -1.0020 H   0  0  0  0  0  0  0  0  0  0  0  0
    1.6578    0.7902    2.2102 H   0  0  0  0  0  0  0  0  0  0  0  0
    3.9050    1.5819    2.8646 H   0  0  0  0  0  0  0  0  0  0  0  0
    6.6765    1.3096    0.7003 H   0  0  0  0  0  0  0  0  0  0  0  0
    5.4657    0.3348   -0.9448 H   0  0  0  0  0  0  0  0  0  0  0  0
    3.2384   -0.4553   -1.6125 H   0  0  0  0  0  0  0  0  0  0  0  0
  1  2  1  0
  2  3  1  0
  3  4  1  0
  4  5  1  0
  5  6  1  0
  6  7  1  0
  6  8  2  0
  8  9  1  0
  9 10  1  0
 10 11  1  0
 11 12  1  0
 12 13  2  0
 13 14  1  0
 14 15  2  0
 15 16  1  0
 15 17  1  0
 17 18  2  0
 10  5  1  0
 18 12  1  0
  1 19  1  0
  1 20  1  0
  1 21  1  0
  2 22  1  0
  2 23  1  0
  3 24  1  0
  3 25  1  0
  4 26  1  0
  4 27  1  0
  7 28  1  0
  7 29  1  0
  9 30  1  0
  9 31  1  0
 10 32  1  0
 11 33  1  0
 11 34  1  0
 13 35  1  0
 14 36  1  0
 16 37  1  0
 17 38  1  0
 18 39  1  0
M  END
$$$$
