
     RDKit          3D

 29 31  0  0  0  0  0  0  0  0999 V2000
   -1.2724   -1.7530   -0.2940 O   0  0  0  0  0  0  0  0  0  0  0  0
   -2.3647   -1.5480   -0.7923 C   0  0  0  0  0  0  0  0  0  0  0  0
   -3.3630   -2.4855   -0.7714 N   0  0  0  0  0  0  0  0  0  0  0  0
   -4.5913   -2.1420   -1.2357 C   0  0  0  0  0  0  0  0  0  0  0  0
   -5.8991   -3.1561   -1.2204 S   0  0  0  0  0  0  0  0  0  0  0  0
   -4.5549   -0.5018   -1.8258 S   0  0  0  0  0  0  0  0  0  0  0  0
   -2.8594   -0.2971   -1.4477 C   0  0  0  0  0  0  0  0  0  0  0  0
   -2.2367    0.8524   -1.7436 C   0  0  0  0  0  0  0  0  0  0  0  0
   -0.8606    1.1381   -1.5393 C   0  0  0  0  0  0  0  0  0  0  0  0
   -0.2493    2.3868   -1.4923 C   0  0  0  0  0  0  0  0  0  0  0  0
    1.1383    2.1864   -1.3011 C   0  0  0  0  0  0  0  0  0  0  0  0
    1.3256    0.8260   -1.2365 C   0  0  0  0  0  0  0  0  0  0  0  0
    2.8084   -0.0531   -1.0000 S   0  0  0  0  0  0  0  0  0  0  0  0
    2.3406   -1.0531    0.4473 C   0  0  0  0  0  0  0  0  0  0  0  0
    2.4706   -0.2706    1.7042 C   0  0  0  0  0  0  0  0  0  0  0  0
    3.5451    0.0734    2.5006 C   0  0  0  0  0  0  0  0  0  0  0  0
    3.0212    0.8327    3.5744 C   0  0  0  0  0  0  0  0  0  0  0  0
    1.6639    0.9012    3.3681 C   0  0  0  0  0  0  0  0  0  0  0  0
    1.3199    0.2331    2.2382 O   0  0  0  0  0  0  0  0  0  0  0  0
    0.1304    0.1999   -1.4085 O   0  0  0  0  0  0  0  0  0  0  0  0
   -3.1890   -3.3832   -0.3456 H   0  0  0  0  0  0  0  0  0  0  0  0
   -2.8165    1.6573   -2.1901 H   0  0  0  0  0  0  0  0  0  0  0  0
   -0.7556    3.3383   -1.5819 H   0  0  0  0  0  0  0  0  0  0  0  0
    1.9075    2.9397   -1.2089 H   0  0  0  0  0  0  0  0  0  0  0  0
    1.3311   -1.4583    0.3330 H   0  0  0  0  0  0  0  0  0  0  0  0
    3.0216   -1.9102    0.4890 H   0  0  0  0  0  0  0  0  0  0  0  0
    4.5783   -0.1898    2.3215 H   0  0  0  0  0  0  0  0  0  0  0  0
    3.5641    1.2753    4.3972 H   0  0  0  0  0  0  0  0  0  0  0  0
    0.8458    1.3612    3.9044 H   0  0  0  0  0  0  0  0  0  0  0  0
  1  2  2  0
  2  3  1  0
  3  4  1  0
  4  5  2  0
  4  6  1  0
  6  7  1  0
  7  8  2  3
  8  9  1  0
  9 10  2  0
 10 11  1  0
 11 12  2  0
 12 13  1  0
 13 14  1  0
 14 15  1  0
 15 16  2  0
 16 17  1  0
 17 18  2  0
 18 19  1  0
 12 20  1  0
  7  2  1  0
 20  9  1  0
 19 15  1  0
  3 21  1  0
  8 22  1  0
 10 23  1  0
 11 24  1  0
 14 25  1  0
 14 26  1  0
 16 27  1  0
 17 28  1  0
 18 29  1  0
M  END
$$$$
