
     RDKit          3D

 55 58  0  0  0  0  0  0  0  0999 V2000
   -7.4060   -1.7540   -1.0026 C   0  0  0  0  0  0  0  0  0  0  0  0
   -6.8269   -0.9729    0.0324 O   0  0  0  0  0  0  0  0  0  0  0  0
   -5.5243   -0.5707   -0.1254 C   0  0  0  0  0  0  0  0  0  0  0  0
   -4.7263   -0.8881   -1.2262 C   0  0  0  0  0  0  0  0  0  0  0  0
   -3.4036   -0.4341   -1.2992 C   0  0  0  0  0  0  0  0  0  0  0  0
   -2.8385    0.3429   -0.2753 C   0  0  0  0  0  0  0  0  0  0  0  0
   -1.4407    0.8210   -0.3326 C   0  0  0  0  0  0  0  0  0  0  0  0
   -0.4237    0.1074   -0.9414 C   0  0  0  0  0  0  0  0  0  0  0  0
    0.8612    0.6480   -0.9287 C   0  0  0  0  0  0  0  0  0  0  0  0
    1.9210   -0.1575   -1.5619 C   0  0  0  0  0  0  0  0  0  0  0  0
    1.9212   -0.2338   -2.7870 O   0  0  0  0  0  0  0  0  0  0  0  0
    2.8494   -0.7990   -0.7437 N   0  0  0  0  0  0  0  0  0  0  0  0
    2.7583   -0.8647    0.7195 C   0  0  0  0  0  0  0  0  0  0  0  0
    3.3363   -2.1680    1.2574 C   0  0  0  0  0  0  0  0  0  0  0  0
    4.7906   -2.3827    0.8323 C   0  0  0  0  0  0  0  0  0  0  0  0
    5.1501   -1.6699   -0.4817 C   0  0  0  0  0  0  0  0  0  0  0  0
    6.2730   -2.3797   -1.2093 C   0  0  0  0  0  0  0  0  0  0  0  0
    6.6357   -1.7079   -2.3228 F   0  0  0  0  0  0  0  0  0  0  0  0
    7.3673   -2.4785   -0.4220 F   0  0  0  0  0  0  0  0  0  0  0  0
    5.9167   -3.6285   -1.5770 F   0  0  0  0  0  0  0  0  0  0  0  0
    3.9337   -1.5431   -1.3912 C   0  0  0  0  0  0  0  0  0  0  0  0
    1.1271    1.9069   -0.3567 C   0  0  0  0  0  0  0  0  0  0  0  0
    2.3912    2.5483   -0.3619 C   0  0  0  0  0  0  0  0  0  0  0  0
    2.5643    3.7922    0.2404 C   0  0  0  0  0  0  0  0  0  0  0  0
    1.4815    4.4111    0.8487 C   0  0  0  0  0  0  0  0  0  0  0  0
    0.2326    3.7846    0.8439 C   0  0  0  0  0  0  0  0  0  0  0  0
    0.0325    2.5465    0.2478 C   0  0  0  0  0  0  0  0  0  0  0  0
   -1.2015    2.0121    0.2732 N   0  0  0  0  0  0  0  0  0  0  0  0
   -3.6611    0.6635    0.8226 C   0  0  0  0  0  0  0  0  0  0  0  0
   -4.9883    0.2192    0.9078 C   0  0  0  0  0  0  0  0  0  0  0  0
   -5.8310    0.4932    1.9576 O   0  0  0  0  0  0  0  0  0  0  0  0
   -5.3751    1.4086    2.9436 C   0  0  0  0  0  0  0  0  0  0  0  0
   -8.4382   -1.9768   -0.7158 H   0  0  0  0  0  0  0  0  0  0  0  0
   -7.4360   -1.2000   -1.9466 H   0  0  0  0  0  0  0  0  0  0  0  0
   -6.8806   -2.7077   -1.1187 H   0  0  0  0  0  0  0  0  0  0  0  0
   -5.1021   -1.4830   -2.0517 H   0  0  0  0  0  0  0  0  0  0  0  0
   -2.8269   -0.6862   -2.1871 H   0  0  0  0  0  0  0  0  0  0  0  0
   -0.6006   -0.8576   -1.4041 H   0  0  0  0  0  0  0  0  0  0  0  0
    3.3156   -0.0103    1.1200 H   0  0  0  0  0  0  0  0  0  0  0  0
    1.7178   -0.7681    1.0421 H   0  0  0  0  0  0  0  0  0  0  0  0
    2.7334   -3.0039    0.8792 H   0  0  0  0  0  0  0  0  0  0  0  0
    3.2607   -2.1968    2.3501 H   0  0  0  0  0  0  0  0  0  0  0  0
    5.4592   -2.0151    1.6212 H   0  0  0  0  0  0  0  0  0  0  0  0
    4.9750   -3.4617    0.7610 H   0  0  0  0  0  0  0  0  0  0  0  0
    5.4961   -0.6578   -0.2309 H   0  0  0  0  0  0  0  0  0  0  0  0
    4.2028   -1.0402   -2.3274 H   0  0  0  0  0  0  0  0  0  0  0  0
    3.5331   -2.5298   -1.6556 H   0  0  0  0  0  0  0  0  0  0  0  0
    3.2470    2.0833   -0.8478 H   0  0  0  0  0  0  0  0  0  0  0  0
    3.5372    4.2771    0.2271 H   0  0  0  0  0  0  0  0  0  0  0  0
    1.5985    5.3841    1.3192 H   0  0  0  0  0  0  0  0  0  0  0  0
   -0.6135    4.2827    1.3128 H   0  0  0  0  0  0  0  0  0  0  0  0
   -3.2303    1.2678    1.6163 H   0  0  0  0  0  0  0  0  0  0  0  0
   -4.5262    0.9971    3.4993 H   0  0  0  0  0  0  0  0  0  0  0  0
   -6.1910    1.5664    3.6554 H   0  0  0  0  0  0  0  0  0  0  0  0
   -5.1278    2.3798    2.5019 H   0  0  0  0  0  0  0  0  0  0  0  0
  1  2  1  0
  2  3  1  0
  3  4  2  0
  4  5  1  0
  5  6  2  0
  6  7  1  0
  7  8  2  0
  8  9  1  0
  9 10  1  0
 10 11  2  0
 10 12  1  0
 12 13  1  0
 13 14  1  0
 14 15  1  0
 15 16  1  0
 16 17  1  0
 17 18  1  0
 17 19  1  0
 17 20  1  0
 16 21  1  0
  9 22  2  0
 22 23  1  0
 23 24  2  0
 24 25  1  0
 25 26  2  0
 26 27  1  0
 27 28  2  0
  6 29  1  0
 29 30  2  0
 30 31  1  0
 31 32  1  0
 30  3  1  0
 28  7  1  0
 21 12  1  0
 27 22  1  0
  1 33  1  0
  1 34  1  0
  1 35  1  0
  4 36  1  0
  5 37  1  0
  8 38  1  0
 13 39  1  0
 13 40  1  0
 14 41  1  0
 14 42  1  0
 15 43  1  0
 15 44  1  0
 16 45  1  0
 21 46  1  0
 21 47  1  0
 23 48  1  0
 24 49  1  0
 25 50  1  0
 26 51  1  0
 29 52  1  0
 32 53  1  0
 32 54  1  0
 32 55  1  0
M  END
$$$$
