
     RDKit          3D

 45 47  0  0  0  0  0  0  0  0999 V2000
    2.9399    1.0497   -3.9836 C   0  0  0  0  0  0  0  0  0  0  0  0
    2.5809    0.5234   -2.7093 O   0  0  0  0  0  0  0  0  0  0  0  0
    3.5561    0.5380   -1.7357 C   0  0  0  0  0  0  0  0  0  0  0  0
    4.8994    0.8557   -1.9564 C   0  0  0  0  0  0  0  0  0  0  0  0
    5.8066    0.8312   -0.8944 C   0  0  0  0  0  0  0  0  0  0  0  0
    5.3776    0.4855    0.3846 C   0  0  0  0  0  0  0  0  0  0  0  0
    4.0393    0.1582    0.6131 C   0  0  0  0  0  0  0  0  0  0  0  0
    3.1228    0.1773   -0.4399 C   0  0  0  0  0  0  0  0  0  0  0  0
    1.7539   -0.1422   -0.2958 N   0  0  0  0  0  0  0  0  0  0  0  0
    1.0776   -0.5377    0.8458 C   0  0  0  0  0  0  0  0  0  0  0  0
    1.5769   -0.6985    1.9575 O   0  0  0  0  0  0  0  0  0  0  0  0
   -0.4035   -0.8471    0.5756 C   0  0  0  0  0  0  0  0  0  0  0  0
   -0.6502   -2.3598    0.5860 C   0  0  0  0  0  0  0  0  0  0  0  0
   -1.1045   -2.6429    2.0107 C   0  0  0  0  0  0  0  0  0  0  0  0
   -1.9517   -1.4225    2.3459 C   0  0  0  0  0  0  0  0  0  0  0  0
   -1.2625   -0.3234    1.6599 N   0  0  0  0  0  0  0  0  0  0  0  0
   -1.9439    1.1940    1.5285 S   0  0  0  0  0  6  0  0  0  0  0  0
   -0.9674    2.0696    0.9164 O   0  0  0  0  0  0  0  0  0  0  0  0
   -2.5873    1.5254    2.7818 O   0  0  0  0  0  0  0  0  0  0  0  0
   -3.2429    0.9523    0.3259 C   0  0  0  0  0  0  0  0  0  0  0  0
   -3.0108    1.2648   -1.0192 C   0  0  0  0  0  0  0  0  0  0  0  0
   -4.0370    1.0999   -1.9514 C   0  0  0  0  0  0  0  0  0  0  0  0
   -5.2869    0.6389   -1.5341 C   0  0  0  0  0  0  0  0  0  0  0  0
   -6.5441    0.4271   -2.6881 Cl  0  0  0  0  0  0  0  0  0  0  0  0
   -5.5265    0.3538   -0.1887 C   0  0  0  0  0  0  0  0  0  0  0  0
   -4.5057    0.5217    0.7488 C   0  0  0  0  0  0  0  0  0  0  0  0
    2.0356    1.0748   -4.6004 H   0  0  0  0  0  0  0  0  0  0  0  0
    3.3133    2.0776   -3.9049 H   0  0  0  0  0  0  0  0  0  0  0  0
    3.6651    0.3996   -4.4859 H   0  0  0  0  0  0  0  0  0  0  0  0
    5.2759    1.1194   -2.9391 H   0  0  0  0  0  0  0  0  0  0  0  0
    6.8513    1.0818   -1.0650 H   0  0  0  0  0  0  0  0  0  0  0  0
    6.0831    0.4711    1.2116 H   0  0  0  0  0  0  0  0  0  0  0  0
    3.7440   -0.1045    1.6237 H   0  0  0  0  0  0  0  0  0  0  0  0
    1.2350   -0.0319   -1.1615 H   0  0  0  0  0  0  0  0  0  0  0  0
   -0.7005   -0.4452   -0.3985 H   0  0  0  0  0  0  0  0  0  0  0  0
    0.2278   -2.9511    0.3090 H   0  0  0  0  0  0  0  0  0  0  0  0
   -1.4612   -2.6072   -0.1108 H   0  0  0  0  0  0  0  0  0  0  0  0
   -0.2372   -2.7022    2.6796 H   0  0  0  0  0  0  0  0  0  0  0  0
   -1.6660   -3.5777    2.0986 H   0  0  0  0  0  0  0  0  0  0  0  0
   -1.9969   -1.2559    3.4258 H   0  0  0  0  0  0  0  0  0  0  0  0
   -2.9630   -1.5568    1.9527 H   0  0  0  0  0  0  0  0  0  0  0  0
   -2.0451    1.6455   -1.3449 H   0  0  0  0  0  0  0  0  0  0  0  0
   -3.8600    1.3386   -2.9972 H   0  0  0  0  0  0  0  0  0  0  0  0
   -6.5066    0.0130    0.1358 H   0  0  0  0  0  0  0  0  0  0  0  0
   -4.7006    0.3187    1.8008 H   0  0  0  0  0  0  0  0  0  0  0  0
  1  2  1  0
  2  3  1  0
  3  4  2  0
  4  5  1  0
  5  6  2  0
  6  7  1  0
  7  8  2  0
  8  9  1  0
  9 10  1  0
 10 11  2  0
 10 12  1  0
 12 13  1  0
 13 14  1  0
 14 15  1  0
 15 16  1  0
 16 17  1  0
 17 18  2  0
 17 19  2  0
 17 20  1  0
 20 21  2  0
 21 22  1  0
 22 23  2  0
 23 24  1  0
 23 25  1  0
 25 26  2  0
  8  3  1  0
 16 12  1  0
 26 20  1  0
  1 27  1  0
  1 28  1  0
  1 29  1  0
  4 30  1  0
  5 31  1  0
  6 32  1  0
  7 33  1  0
  9 34  1  0
 12 35  1  0
 13 36  1  0
 13 37  1  0
 14 38  1  0
 14 39  1  0
 15 40  1  0
 15 41  1  0
 21 42  1  0
 22 43  1  0
 25 44  1  0
 26 45  1  0
M  END
$$$$
