
     RDKit          3D

 55 57  0  0  0  0  0  0  0  0999 V2000
   -5.4347   -0.9942    0.3077 C   0  0  0  0  0  0  0  0  0  0  0  0
   -3.9408   -0.7084    0.4039 C   0  0  0  0  0  0  0  0  0  0  0  0
   -3.0260   -1.9478    0.5905 C   0  0  0  0  0  0  0  0  0  0  0  0
   -3.4018   -2.7015    1.8829 C   0  0  0  0  0  0  0  0  0  0  0  0
   -3.1565   -2.9355   -0.5831 C   0  0  0  0  0  0  0  0  0  0  0  0
   -1.6247   -1.5033    0.7453 N   0  0  0  0  0  0  0  0  0  0  0  0
   -0.8910   -0.8383   -0.2304 C   0  0  0  0  0  0  0  0  0  0  0  0
   -1.3034   -0.7040   -1.3816 O   0  0  0  0  0  0  0  0  0  0  0  0
    0.5419   -0.4023    0.2067 C   0  0  0  0  0  0  0  0  0  0  0  0
    0.6630    0.1277    1.6352 C   0  0  0  0  0  0  0  0  0  0  0  0
   -0.2414    1.0466    2.1921 C   0  0  0  0  0  0  0  0  0  0  0  0
   -0.0839    1.5037    3.5042 C   0  0  0  0  0  0  0  0  0  0  0  0
    0.9784    1.0505    4.2831 C   0  0  0  0  0  0  0  0  0  0  0  0
    1.8824    0.1366    3.7498 C   0  0  0  0  0  0  0  0  0  0  0  0
    1.7193   -0.3143    2.4421 C   0  0  0  0  0  0  0  0  0  0  0  0
    2.5917   -1.2161    1.9706 F   0  0  0  0  0  0  0  0  0  0  0  0
    1.2057    0.4548   -0.8047 N   0  0  0  0  0  0  0  0  0  0  0  0
    0.5601    1.6478   -1.1886 C   0  0  0  0  0  0  0  0  0  0  0  0
   -0.3904    2.1132   -0.5560 O   0  0  0  0  0  0  0  0  0  0  0  0
    0.9920    2.3278   -2.4365 C   0  0  0  0  0  0  0  0  0  0  0  0
    0.6406    3.6571   -2.8119 C   0  0  0  0  0  0  0  0  0  0  0  0
    1.2169    3.8628   -4.0406 C   0  0  0  0  0  0  0  0  0  0  0  0
    1.8454    2.6966   -4.3515 N   0  0  0  0  0  0  0  0  0  0  0  0
    1.7251    1.7518   -3.4099 N   0  0  0  0  0  0  0  0  0  0  0  0
    2.6125    0.2515   -0.9864 C   0  0  0  0  0  0  0  0  0  0  0  0
    3.5218    1.3090   -0.8362 C   0  0  0  0  0  0  0  0  0  0  0  0
    4.8958    1.0920   -0.9710 C   0  0  0  0  0  0  0  0  0  0  0  0
    5.3770   -0.1831   -1.2568 C   0  0  0  0  0  0  0  0  0  0  0  0
    4.4853   -1.2418   -1.4095 C   0  0  0  0  0  0  0  0  0  0  0  0
    3.1114   -1.0265   -1.2723 C   0  0  0  0  0  0  0  0  0  0  0  0
   -5.9808   -0.0572    0.1548 H   0  0  0  0  0  0  0  0  0  0  0  0
   -5.6664   -1.6507   -0.5356 H   0  0  0  0  0  0  0  0  0  0  0  0
   -5.8199   -1.4499    1.2239 H   0  0  0  0  0  0  0  0  0  0  0  0
   -3.7765   -0.0111    1.2364 H   0  0  0  0  0  0  0  0  0  0  0  0
   -3.6489   -0.1627   -0.5015 H   0  0  0  0  0  0  0  0  0  0  0  0
   -2.6963   -3.5181    2.0788 H   0  0  0  0  0  0  0  0  0  0  0  0
   -4.4027   -3.1415    1.8278 H   0  0  0  0  0  0  0  0  0  0  0  0
   -3.3722   -2.0335    2.7515 H   0  0  0  0  0  0  0  0  0  0  0  0
   -2.3938   -3.7206   -0.5206 H   0  0  0  0  0  0  0  0  0  0  0  0
   -3.0396   -2.4409   -1.5521 H   0  0  0  0  0  0  0  0  0  0  0  0
   -4.1348   -3.4281   -0.5887 H   0  0  0  0  0  0  0  0  0  0  0  0
   -1.2707   -1.4609    1.6932 H   0  0  0  0  0  0  0  0  0  0  0  0
    1.0511   -1.3758    0.2013 H   0  0  0  0  0  0  0  0  0  0  0  0
   -1.0828    1.4228    1.6115 H   0  0  0  0  0  0  0  0  0  0  0  0
   -0.7913    2.2220    3.9132 H   0  0  0  0  0  0  0  0  0  0  0  0
    1.1017    1.4109    5.3011 H   0  0  0  0  0  0  0  0  0  0  0  0
    2.7152   -0.2296    4.3421 H   0  0  0  0  0  0  0  0  0  0  0  0
    0.0375    4.3524   -2.2443 H   0  0  0  0  0  0  0  0  0  0  0  0
    1.2226    4.7098   -4.7109 H   0  0  0  0  0  0  0  0  0  0  0  0
    2.3700    2.4703   -5.1901 H   0  0  0  0  0  0  0  0  0  0  0  0
    3.1799    2.3096   -0.5875 H   0  0  0  0  0  0  0  0  0  0  0  0
    5.5884    1.9204   -0.8491 H   0  0  0  0  0  0  0  0  0  0  0  0
    6.4452   -0.3509   -1.3644 H   0  0  0  0  0  0  0  0  0  0  0  0
    4.8561   -2.2360   -1.6441 H   0  0  0  0  0  0  0  0  0  0  0  0
    2.4372   -1.8631   -1.4338 H   0  0  0  0  0  0  0  0  0  0  0  0
  1  2  1  0
  2  3  1  0
  3  4  1  0
  3  5  1  0
  3  6  1  0
  6  7  1  0
  7  8  2  0
  7  9  1  0
  9 10  1  0
 10 11  2  0
 11 12  1  0
 12 13  2  0
 13 14  1  0
 14 15  2  0
 15 16  1  0
  9 17  1  0
 17 18  1  0
 18 19  2  0
 18 20  1  0
 20 21  1  0
 21 22  2  0
 22 23  1  0
 23 24  1  0
 17 25  1  0
 25 26  2  0
 26 27  1  0
 27 28  2  0
 28 29  1  0
 29 30  2  0
 15 10  1  0
 24 20  2  0
 30 25  1  0
  1 31  1  0
  1 32  1  0
  1 33  1  0
  2 34  1  0
  2 35  1  0
  4 36  1  0
  4 37  1  0
  4 38  1  0
  5 39  1  0
  5 40  1  0
  5 41  1  0
  6 42  1  0
  9 43  1  0
 11 44  1  0
 12 45  1  0
 13 46  1  0
 14 47  1  0
 21 48  1  0
 22 49  1  0
 23 50  1  0
 26 51  1  0
 27 52  1  0
 28 53  1  0
 29 54  1  0
 30 55  1  0
M  END
$$$$
