
     RDKit          3D

 57 61  0  0  0  0  0  0  0  0999 V2000
    5.4880    1.1633    0.9148 C   0  0  0  0  0  0  0  0  0  0  0  0
    5.1336    0.6497   -0.4798 C   0  0  0  0  0  0  0  0  0  0  0  0
    6.2887    0.9215   -1.4452 C   0  0  0  0  0  0  0  0  0  0  0  0
    3.8533    1.3315   -0.9696 C   0  0  0  0  0  0  0  0  0  0  0  0
    3.9130    2.3727   -1.6269 O   0  0  0  0  0  0  0  0  0  0  0  0
    2.6318    0.7685   -0.6046 N   0  0  0  0  0  0  0  0  0  0  0  0
    1.4057    1.4041   -1.0794 C   0  0  0  0  0  0  0  0  0  0  0  0
    0.3710    0.3800   -1.5379 C   0  0  0  0  0  0  0  0  0  0  0  0
    0.0257   -0.6886   -0.4563 C   0  0  0  0  0  0  0  0  0  0  0  0
    1.0753   -0.6617    0.6842 C   0  0  0  0  0  0  0  0  0  0  0  0
    2.4858   -0.4854    0.1299 C   0  0  0  0  0  0  0  0  0  0  0  0
    0.1802   -1.9522   -1.1678 O   0  0  0  0  0  0  0  0  0  0  0  0
   -0.4299   -3.0586   -0.6541 C   0  0  0  0  0  0  0  0  0  0  0  0
   -0.0695   -4.2788   -1.2253 C   0  0  0  0  0  0  0  0  0  0  0  0
   -0.6208   -5.4686   -0.7424 C   0  0  0  0  0  0  0  0  0  0  0  0
   -1.5341   -5.4343    0.3118 C   0  0  0  0  0  0  0  0  0  0  0  0
   -2.2023   -6.9023    0.9084 Cl  0  0  0  0  0  0  0  0  0  0  0  0
   -1.9090   -4.2209    0.8815 C   0  0  0  0  0  0  0  0  0  0  0  0
   -1.3593   -3.0368    0.3814 C   0  0  0  0  0  0  0  0  0  0  0  0
   -1.7471   -1.7366    0.9428 C   0  0  0  0  0  0  0  0  0  0  0  0
   -2.2738   -1.6785    2.0503 O   0  0  0  0  0  0  0  0  0  0  0  0
   -1.4267   -0.5255    0.0760 C   0  0  0  0  0  0  0  0  0  0  0  0
   -1.7124    0.7769    0.8071 C   0  0  0  0  0  0  0  0  0  0  0  0
   -3.1098    0.9990    0.3343 C   0  0  0  0  0  0  0  0  0  0  0  0
   -4.0132    1.9856    0.9721 C   0  0  0  0  0  0  0  0  0  0  0  0
   -5.3385    2.0777    0.5246 C   0  0  0  0  0  0  0  0  0  0  0  0
   -6.2166    2.9993    1.1017 C   0  0  0  0  0  0  0  0  0  0  0  0
   -5.7703    3.8310    2.1257 C   0  0  0  0  0  0  0  0  0  0  0  0
   -6.8477    4.9668    2.8376 Cl  0  0  0  0  0  0  0  0  0  0  0  0
   -4.4535    3.7491    2.5765 C   0  0  0  0  0  0  0  0  0  0  0  0
   -3.5726    2.8273    2.0004 C   0  0  0  0  0  0  0  0  0  0  0  0
   -3.4512    0.2890   -0.6937 N   0  0  0  0  0  0  0  0  0  0  0  0
   -2.3555   -0.5387   -1.0221 O   0  0  0  0  0  0  0  0  0  0  0  0
    4.6716    1.0107    1.6267 H   0  0  0  0  0  0  0  0  0  0  0  0
    6.3746    0.6511    1.3029 H   0  0  0  0  0  0  0  0  0  0  0  0
    5.6989    2.2387    0.8961 H   0  0  0  0  0  0  0  0  0  0  0  0
    4.9876   -0.4345   -0.4514 H   0  0  0  0  0  0  0  0  0  0  0  0
    6.5314    1.9887   -1.4969 H   0  0  0  0  0  0  0  0  0  0  0  0
    7.1905    0.3852   -1.1314 H   0  0  0  0  0  0  0  0  0  0  0  0
    6.0327    0.5905   -2.4576 H   0  0  0  0  0  0  0  0  0  0  0  0
    1.6157    2.0938   -1.9036 H   0  0  0  0  0  0  0  0  0  0  0  0
    1.0189    2.0093   -0.2523 H   0  0  0  0  0  0  0  0  0  0  0  0
   -0.5239    0.9186   -1.8691 H   0  0  0  0  0  0  0  0  0  0  0  0
    0.7627   -0.1143   -2.4379 H   0  0  0  0  0  0  0  0  0  0  0  0
    1.0532   -1.5914    1.2637 H   0  0  0  0  0  0  0  0  0  0  0  0
    0.8657    0.1570    1.3832 H   0  0  0  0  0  0  0  0  0  0  0  0
    3.2005   -0.5146    0.9558 H   0  0  0  0  0  0  0  0  0  0  0  0
    2.7418   -1.3018   -0.5554 H   0  0  0  0  0  0  0  0  0  0  0  0
    0.6449   -4.3069   -2.0449 H   0  0  0  0  0  0  0  0  0  0  0  0
   -0.3335   -6.4165   -1.1914 H   0  0  0  0  0  0  0  0  0  0  0  0
   -2.6284   -4.1920    1.6965 H   0  0  0  0  0  0  0  0  0  0  0  0
   -1.1083    1.6148    0.4517 H   0  0  0  0  0  0  0  0  0  0  0  0
   -1.6347    0.7066    1.8941 H   0  0  0  0  0  0  0  0  0  0  0  0
   -5.6980    1.4314   -0.2745 H   0  0  0  0  0  0  0  0  0  0  0  0
   -7.2424    3.0601    0.7473 H   0  0  0  0  0  0  0  0  0  0  0  0
   -4.1071    4.3998    3.3758 H   0  0  0  0  0  0  0  0  0  0  0  0
   -2.5527    2.7899    2.3709 H   0  0  0  0  0  0  0  0  0  0  0  0
  1  2  1  0
  2  3  1  0
  2  4  1  0
  4  5  2  0
  4  6  1  0
  6  7  1  0
  7  8  1  0
  8  9  1  0
  9 10  1  0
 10 11  1  0
  9 12  1  0
 12 13  1  0
 13 14  2  0
 14 15  1  0
 15 16  2  0
 16 17  1  0
 16 18  1  0
 18 19  2  0
 19 20  1  0
 20 21  2  0
 20 22  1  0
 22 23  1  0
 23 24  1  0
 24 25  1  0
 25 26  2  0
 26 27  1  0
 27 28  2  0
 28 29  1  0
 28 30  1  0
 30 31  2  0
 24 32  2  0
 32 33  1  0
 11  6  1  0
 19 13  1  0
 33 22  1  0
 22  9  1  0
 31 25  1  0
  1 34  1  0
  1 35  1  0
  1 36  1  0
  2 37  1  0
  3 38  1  0
  3 39  1  0
  3 40  1  0
  7 41  1  0
  7 42  1  0
  8 43  1  0
  8 44  1  0
 10 45  1  0
 10 46  1  0
 11 47  1  0
 11 48  1  0
 14 49  1  0
 15 50  1  0
 18 51  1  0
 23 52  1  0
 23 53  1  0
 26 54  1  0
 27 55  1  0
 30 56  1  0
 31 57  1  0
M  END
$$$$
