
     RDKit          3D

 46 48  0  0  0  0  0  0  0  0999 V2000
   -2.3399    1.5512   -3.4645 C   0  0  0  0  0  0  0  0  0  0  0  0
   -2.5174    2.0457   -2.0325 C   0  0  0  0  0  0  0  0  0  0  0  0
   -1.1684    2.3327   -1.3602 C   0  0  0  0  0  0  0  0  0  0  0  0
   -1.3394    3.2680    0.2074 S   0  0  0  0  0  0  0  0  0  0  0  0
   -2.5499    2.4093    1.0933 C   0  0  0  0  0  0  0  0  0  0  0  0
   -3.5694    2.9704    1.6974 N   0  0  0  0  0  0  0  0  0  0  0  0
   -4.2443    1.9321    2.2927 C   0  0  0  0  0  0  0  0  0  0  0  0
   -5.4166    1.9470    3.0621 C   0  0  0  0  0  0  0  0  0  0  0  0
   -5.9104    0.7331    3.5577 C   0  0  0  0  0  0  0  0  0  0  0  0
   -5.2505   -0.4702    3.2930 C   0  0  0  0  0  0  0  0  0  0  0  0
   -4.0789   -0.5056    2.5279 C   0  0  0  0  0  0  0  0  0  0  0  0
   -3.6089    0.7183    2.0488 C   0  0  0  0  0  0  0  0  0  0  0  0
   -2.5188    1.0568    1.2872 N   0  0  0  0  0  0  0  0  0  0  0  0
   -0.3523    1.0679   -1.0599 C   0  0  0  0  0  0  0  0  0  0  0  0
   -0.9027    0.0106   -0.7583 O   0  0  0  0  0  0  0  0  0  0  0  0
    1.0159    1.2916   -1.0842 N   0  0  0  0  0  0  0  0  0  0  0  0
    2.0432    0.3483   -0.8786 C   0  0  0  0  0  0  0  0  0  0  0  0
    1.8319   -1.0221   -0.7391 C   0  0  0  0  0  0  0  0  0  0  0  0
    2.9110   -1.8977   -0.5439 C   0  0  0  0  0  0  0  0  0  0  0  0
    4.2180   -1.4172   -0.4873 C   0  0  0  0  0  0  0  0  0  0  0  0
    5.3529   -2.2303   -0.2936 N   0  0  0  0  0  0  0  0  0  0  0  0
    5.3870   -3.6049   -0.1368 C   0  0  0  0  0  0  0  0  0  0  0  0
    6.7950   -4.1128    0.0480 C   0  0  0  0  0  0  0  0  0  0  0  0
    4.4346   -4.3751   -0.1423 O   0  0  0  0  0  0  0  0  0  0  0  0
    4.4309   -0.0428   -0.6319 C   0  0  0  0  0  0  0  0  0  0  0  0
    3.3546    0.8310   -0.8284 C   0  0  0  0  0  0  0  0  0  0  0  0
   -1.7858    0.6080   -3.4953 H   0  0  0  0  0  0  0  0  0  0  0  0
   -1.8017    2.2876   -4.0700 H   0  0  0  0  0  0  0  0  0  0  0  0
   -3.3172    1.3824   -3.9279 H   0  0  0  0  0  0  0  0  0  0  0  0
   -3.0921    1.2917   -1.4833 H   0  0  0  0  0  0  0  0  0  0  0  0
   -3.1235    2.9595   -2.0648 H   0  0  0  0  0  0  0  0  0  0  0  0
   -0.5812    2.9719   -2.0308 H   0  0  0  0  0  0  0  0  0  0  0  0
   -5.9234    2.8842    3.2628 H   0  0  0  0  0  0  0  0  0  0  0  0
   -6.8187    0.7306    4.1557 H   0  0  0  0  0  0  0  0  0  0  0  0
   -5.6550   -1.3994    3.6897 H   0  0  0  0  0  0  0  0  0  0  0  0
   -3.5657   -1.4389    2.3218 H   0  0  0  0  0  0  0  0  0  0  0  0
   -1.8438    0.4104    0.8978 H   0  0  0  0  0  0  0  0  0  0  0  0
    1.3168    2.2542   -1.1877 H   0  0  0  0  0  0  0  0  0  0  0  0
    0.8389   -1.4585   -0.7855 H   0  0  0  0  0  0  0  0  0  0  0  0
    2.6861   -2.9552   -0.4411 H   0  0  0  0  0  0  0  0  0  0  0  0
    6.2441   -1.7514   -0.2685 H   0  0  0  0  0  0  0  0  0  0  0  0
    7.3851   -3.9034   -0.8483 H   0  0  0  0  0  0  0  0  0  0  0  0
    7.2549   -3.6330    0.9167 H   0  0  0  0  0  0  0  0  0  0  0  0
    6.7769   -5.1936    0.2147 H   0  0  0  0  0  0  0  0  0  0  0  0
    5.4348    0.3722   -0.5946 H   0  0  0  0  0  0  0  0  0  0  0  0
    3.5633    1.8924   -0.9354 H   0  0  0  0  0  0  0  0  0  0  0  0
  1  2  1  0
  2  3  1  0
  3  4  1  0
  4  5  1  0
  5  6  2  0
  6  7  1  0
  7  8  2  0
  8  9  1  0
  9 10  2  0
 10 11  1  0
 11 12  2  0
 12 13  1  0
  3 14  1  0
 14 15  2  0
 14 16  1  0
 16 17  1  0
 17 18  2  0
 18 19  1  0
 19 20  2  0
 20 21  1  0
 21 22  1  0
 22 23  1  0
 22 24  2  0
 20 25  1  0
 25 26  2  0
 13  5  1  0
 26 17  1  0
 12  7  1  0
  1 27  1  0
  1 28  1  0
  1 29  1  0
  2 30  1  0
  2 31  1  0
  3 32  1  0
  8 33  1  0
  9 34  1  0
 10 35  1  0
 11 36  1  0
 13 37  1  0
 16 38  1  0
 18 39  1  0
 19 40  1  0
 21 41  1  0
 23 42  1  0
 23 43  1  0
 23 44  1  0
 25 45  1  0
 26 46  1  0
M  END
$$$$
