
     RDKit          3D

 37 38  0  0  0  0  0  0  0  0999 V2000
    3.8800    1.5144   -2.3366 C   0  0  0  0  0  0  0  0  0  0  0  0
    2.7313    0.7937   -1.9107 O   0  0  0  0  0  0  0  0  0  0  0  0
    2.7793    0.1946   -0.6776 C   0  0  0  0  0  0  0  0  0  0  0  0
    3.9094    0.1638    0.1479 C   0  0  0  0  0  0  0  0  0  0  0  0
    3.8619   -0.4731    1.3902 C   0  0  0  0  0  0  0  0  0  0  0  0
    2.6813   -1.0736    1.8239 C   0  0  0  0  0  0  0  0  0  0  0  0
    1.5328   -1.0394    1.0208 C   0  0  0  0  0  0  0  0  0  0  0  0
    0.3167   -1.6930    1.5622 C   0  0  0  0  0  0  0  0  0  0  0  0
    0.3818   -2.6514    2.3217 O   0  0  0  0  0  0  0  0  0  0  0  0
   -0.7916   -1.0121    1.1599 O   0  0  0  0  0  0  0  0  0  0  0  0
   -1.9535   -1.6218    1.6620 N   0  0  0  0  0  0  0  0  0  0  0  0
   -3.0353   -0.9535    1.3793 C   0  0  0  0  0  0  0  0  0  0  0  0
   -4.2326   -1.5171    1.7494 N   0  0  0  0  0  0  0  0  0  0  0  0
   -3.0812    0.3740    0.7063 C   0  0  0  0  0  0  0  0  0  0  0  0
   -3.9837    0.5726   -0.3367 C   0  0  0  0  0  0  0  0  0  0  0  0
   -4.0415    1.8321   -0.9055 C   0  0  0  0  0  0  0  0  0  0  0  0
   -3.2845    2.8746   -0.4985 N   0  0  0  0  0  0  0  0  0  0  0  0
   -2.4206    2.6478    0.5151 C   0  0  0  0  0  0  0  0  0  0  0  0
   -2.2880    1.4283    1.1527 C   0  0  0  0  0  0  0  0  0  0  0  0
    1.5945   -0.4317   -0.2432 C   0  0  0  0  0  0  0  0  0  0  0  0
    0.4835   -0.3899   -1.0512 O   0  0  0  0  0  0  0  0  0  0  0  0
    0.5090   -1.4659   -1.9898 C   0  0  0  0  0  0  0  0  0  0  0  0
    4.7371    0.8453   -2.4685 H   0  0  0  0  0  0  0  0  0  0  0  0
    4.1168    2.3294   -1.6430 H   0  0  0  0  0  0  0  0  0  0  0  0
    3.6531    1.9610   -3.3092 H   0  0  0  0  0  0  0  0  0  0  0  0
    4.8468    0.6234   -0.1487 H   0  0  0  0  0  0  0  0  0  0  0  0
    4.7463   -0.4976    2.0231 H   0  0  0  0  0  0  0  0  0  0  0  0
    2.6555   -1.5663    2.7950 H   0  0  0  0  0  0  0  0  0  0  0  0
   -4.9424   -0.8699    2.0746 H   0  0  0  0  0  0  0  0  0  0  0  0
   -4.0920   -2.2943    2.3893 H   0  0  0  0  0  0  0  0  0  0  0  0
   -4.6127   -0.2308   -0.7016 H   0  0  0  0  0  0  0  0  0  0  0  0
   -4.7207    2.0478   -1.7254 H   0  0  0  0  0  0  0  0  0  0  0  0
   -1.8225    3.5045    0.8134 H   0  0  0  0  0  0  0  0  0  0  0  0
   -1.5922    1.3083    1.9760 H   0  0  0  0  0  0  0  0  0  0  0  0
   -0.4499   -1.4735   -2.5167 H   0  0  0  0  0  0  0  0  0  0  0  0
    0.6248   -2.4337   -1.4878 H   0  0  0  0  0  0  0  0  0  0  0  0
    1.3029   -1.3271   -2.7301 H   0  0  0  0  0  0  0  0  0  0  0  0
  1  2  1  0
  2  3  1  0
  3  4  2  0
  4  5  1  0
  5  6  2  0
  6  7  1  0
  7  8  1  0
  8  9  2  0
  8 10  1  0
 10 11  1  0
 11 12  2  3
 12 13  1  0
 12 14  1  0
 14 15  2  0
 15 16  1  0
 16 17  2  0
 17 18  1  0
 18 19  2  0
  7 20  2  0
 20 21  1  0
 21 22  1  0
 20  3  1  0
 19 14  1  0
  1 23  1  0
  1 24  1  0
  1 25  1  0
  4 26  1  0
  5 27  1  0
  6 28  1  0
 13 29  1  0
 13 30  1  0
 15 31  1  0
 16 32  1  0
 18 33  1  0
 19 34  1  0
 22 35  1  0
 22 36  1  0
 22 37  1  0
M  END
$$$$
