
     RDKit          3D

 49 51  0  0  0  0  0  0  0  0999 V2000
    5.3399    2.0583    1.1043 C   0  0  0  0  0  0  0  0  0  0  0  0
    5.8376    1.6350   -0.2716 C   0  0  0  0  0  0  0  0  0  0  0  0
    5.4226   -0.0998   -0.6347 S   0  0  0  0  0  0  0  0  0  0  0  0
    3.6784   -0.0056   -0.7024 C   0  0  0  0  0  0  0  0  0  0  0  0
    3.1041    0.9818   -1.3031 N   0  0  0  0  0  0  0  0  0  0  0  0
    1.7272    1.0144   -1.2986 C   0  0  0  0  0  0  0  0  0  0  0  0
    1.0927    1.9836   -1.7087 O   0  0  0  0  0  0  0  0  0  0  0  0
    0.9793   -0.1643   -0.7524 C   0  0  0  0  0  0  0  0  0  0  0  0
    1.6674   -1.1402   -0.1330 C   0  0  0  0  0  0  0  0  0  0  0  0
    3.0261   -1.0259   -0.0998 N   0  0  0  0  0  0  0  0  0  0  0  0
    1.0489   -2.2318    0.4246 N   0  0  0  0  0  0  0  0  0  0  0  0
   -0.2309   -2.1864    0.6465 C   0  0  0  0  0  0  0  0  0  0  0  0
   -0.8794   -3.3778    1.3036 C   0  0  0  0  0  0  0  0  0  0  0  0
   -1.1297   -1.0181    0.2905 C   0  0  0  0  0  0  0  0  0  0  0  0
   -1.3946   -0.1432    1.4938 C   0  0  0  0  0  0  0  0  0  0  0  0
   -0.6503   -0.0300    2.4557 O   0  0  0  0  0  0  0  0  0  0  0  0
   -2.5730    0.5189    1.3327 O   0  0  0  0  0  0  0  0  0  0  0  0
   -2.9429    1.4371    2.3800 C   0  0  0  0  0  0  0  0  0  0  0  0
   -3.9879    2.3814    1.7915 C   0  0  0  0  0  0  0  0  0  0  0  0
   -3.5263    0.6729    3.5638 C   0  0  0  0  0  0  0  0  0  0  0  0
   -0.5193   -0.1622   -0.8324 C   0  0  0  0  0  0  0  0  0  0  0  0
   -1.0104   -0.5906   -2.2134 C   0  0  0  0  0  0  0  0  0  0  0  0
   -0.8867   -1.9040   -2.6855 C   0  0  0  0  0  0  0  0  0  0  0  0
   -1.3661   -2.2087   -3.9519 C   0  0  0  0  0  0  0  0  0  0  0  0
   -1.9454   -1.3103   -4.7728 N   0  0  0  0  0  0  0  0  0  0  0  0
   -2.0317   -0.0435   -4.3175 C   0  0  0  0  0  0  0  0  0  0  0  0
   -1.5882    0.3583   -3.0664 C   0  0  0  0  0  0  0  0  0  0  0  0
    4.2455    2.0722    1.1602 H   0  0  0  0  0  0  0  0  0  0  0  0
    5.7131    1.3957    1.8938 H   0  0  0  0  0  0  0  0  0  0  0  0
    5.6874    3.0703    1.3389 H   0  0  0  0  0  0  0  0  0  0  0  0
    5.4467    2.2917   -1.0573 H   0  0  0  0  0  0  0  0  0  0  0  0
    6.9279    1.7210   -0.2979 H   0  0  0  0  0  0  0  0  0  0  0  0
    3.5387   -1.8095    0.2763 H   0  0  0  0  0  0  0  0  0  0  0  0
   -0.1234   -4.0912    1.6430 H   0  0  0  0  0  0  0  0  0  0  0  0
   -1.5404   -3.8680    0.5836 H   0  0  0  0  0  0  0  0  0  0  0  0
   -1.4665   -3.0473    2.1612 H   0  0  0  0  0  0  0  0  0  0  0  0
   -2.0975   -1.4418   -0.0127 H   0  0  0  0  0  0  0  0  0  0  0  0
   -2.0707    2.0245    2.6871 H   0  0  0  0  0  0  0  0  0  0  0  0
   -4.2549    3.1642    2.5085 H   0  0  0  0  0  0  0  0  0  0  0  0
   -4.8965    1.8292    1.5159 H   0  0  0  0  0  0  0  0  0  0  0  0
   -3.6148    2.8544    0.8713 H   0  0  0  0  0  0  0  0  0  0  0  0
   -2.7797    0.0125    4.0159 H   0  0  0  0  0  0  0  0  0  0  0  0
   -3.8897    1.3583    4.3370 H   0  0  0  0  0  0  0  0  0  0  0  0
   -4.3560    0.0309    3.2415 H   0  0  0  0  0  0  0  0  0  0  0  0
   -0.8646    0.8700   -0.6741 H   0  0  0  0  0  0  0  0  0  0  0  0
   -0.4174   -2.6880   -2.1010 H   0  0  0  0  0  0  0  0  0  0  0  0
   -1.2897   -3.2167   -4.3513 H   0  0  0  0  0  0  0  0  0  0  0  0
   -2.4777    0.6667   -5.0061 H   0  0  0  0  0  0  0  0  0  0  0  0
   -1.6810    1.4017   -2.7765 H   0  0  0  0  0  0  0  0  0  0  0  0
  1  2  1  0
  2  3  1  0
  3  4  1  0
  4  5  2  0
  5  6  1  0
  6  7  2  0
  6  8  1  0
  8  9  2  0
  9 10  1  0
  9 11  1  0
 11 12  2  0
 12 13  1  0
 12 14  1  0
 14 15  1  0
 15 16  2  0
 15 17  1  0
 17 18  1  0
 18 19  1  0
 18 20  1  0
 14 21  1  0
 21 22  1  0
 22 23  2  0
 23 24  1  0
 24 25  2  0
 25 26  1  0
 26 27  2  0
 10  4  1  0
 27 22  1  0
 21  8  1  0
  1 28  1  0
  1 29  1  0
  1 30  1  0
  2 31  1  0
  2 32  1  0
 10 33  1  0
 13 34  1  0
 13 35  1  0
 13 36  1  0
 14 37  1  0
 18 38  1  0
 19 39  1  0
 19 40  1  0
 19 41  1  0
 20 42  1  0
 20 43  1  0
 20 44  1  0
 21 45  1  0
 23 46  1  0
 24 47  1  0
 26 48  1  0
 27 49  1  0
M  END
$$$$
