
     RDKit          3D

 30 31  0  0  0  0  0  0  0  0999 V2000
   -1.3479    1.8580   -1.2196 N   0  0  0  0  0  0  0  0  0  0  0  0
   -1.5111    1.3185   -0.0493 C   0  0  0  0  0  0  0  0  0  0  0  0
   -0.5830    1.4587    0.9666 N   0  0  0  0  0  0  0  0  0  0  0  0
    0.6835    1.8327    0.4715 O   0  0  0  0  0  0  0  0  0  0  0  0
    1.5470    0.7637    0.4206 C   0  0  0  0  0  0  0  0  0  0  0  0
    1.2962   -0.3262    0.9244 O   0  0  0  0  0  0  0  0  0  0  0  0
    2.8108    1.1865   -0.2926 C   0  0  0  0  0  0  0  0  0  0  0  0
    3.7474    0.0308   -0.4810 C   0  0  0  0  0  0  0  0  0  0  0  0
    4.7323   -0.4233    0.3750 C   0  0  0  0  0  0  0  0  0  0  0  0
    5.4294   -1.5494   -0.1506 C   0  0  0  0  0  0  0  0  0  0  0  0
    4.9576   -1.9149   -1.3910 C   0  0  0  0  0  0  0  0  0  0  0  0
    3.6835   -0.9043   -1.9168 S   0  0  0  0  0  0  0  0  0  0  0  0
   -2.7332    0.5112    0.2396 C   0  0  0  0  0  0  0  0  0  0  0  0
   -3.3892    0.6586    1.4674 C   0  0  0  0  0  0  0  0  0  0  0  0
   -4.5282   -0.1028    1.7415 C   0  0  0  0  0  0  0  0  0  0  0  0
   -5.0020   -1.0091    0.7924 C   0  0  0  0  0  0  0  0  0  0  0  0
   -6.4035   -1.9464    1.1335 Cl  0  0  0  0  0  0  0  0  0  0  0  0
   -4.3474   -1.1625   -0.4299 C   0  0  0  0  0  0  0  0  0  0  0  0
   -3.2095   -0.4014   -0.7090 C   0  0  0  0  0  0  0  0  0  0  0  0
   -2.1535    1.6859   -1.8275 H   0  0  0  0  0  0  0  0  0  0  0  0
   -0.5161    0.6489    1.5885 H   0  0  0  0  0  0  0  0  0  0  0  0
    3.3011    1.9595    0.3102 H   0  0  0  0  0  0  0  0  0  0  0  0
    2.5397    1.6239   -1.2603 H   0  0  0  0  0  0  0  0  0  0  0  0
    4.9418    0.0248    1.3390 H   0  0  0  0  0  0  0  0  0  0  0  0
    6.2343   -2.0669    0.3566 H   0  0  0  0  0  0  0  0  0  0  0  0
    5.2986   -2.7287   -2.0160 H   0  0  0  0  0  0  0  0  0  0  0  0
   -3.0339    1.3750    2.2045 H   0  0  0  0  0  0  0  0  0  0  0  0
   -5.0420    0.0168    2.6921 H   0  0  0  0  0  0  0  0  0  0  0  0
   -4.7136   -1.8753   -1.1646 H   0  0  0  0  0  0  0  0  0  0  0  0
   -2.6892   -0.5424   -1.6537 H   0  0  0  0  0  0  0  0  0  0  0  0
  1  2  2  3
  2  3  1  0
  3  4  1  0
  4  5  1  0
  5  6  2  0
  5  7  1  0
  7  8  1  0
  8  9  2  0
  9 10  1  0
 10 11  2  0
 11 12  1  0
  2 13  1  0
 13 14  2  0
 14 15  1  0
 15 16  2  0
 16 17  1  0
 16 18  1  0
 18 19  2  0
 12  8  1  0
 19 13  1  0
  1 20  1  0
  3 21  1  0
  7 22  1  0
  7 23  1  0
  9 24  1  0
 10 25  1  0
 11 26  1  0
 14 27  1  0
 15 28  1  0
 18 29  1  0
 19 30  1  0
M  END
$$$$
