
     RDKit          3D

 70 72  0  0  0  0  0  0  0  0999 V2000
    9.5068    0.7026   -0.5999 C   0  0  0  0  0  0  0  0  0  0  0  0
    8.6399   -0.2321    0.2299 C   0  0  0  0  0  0  0  0  0  0  0  0
    8.1619   -1.4657   -0.5395 C   0  0  0  0  0  0  0  0  0  0  0  0
    7.3178   -1.1821   -1.7873 C   0  0  0  0  0  0  0  0  0  0  0  0
    6.0616   -0.3362   -1.5603 C   0  0  0  0  0  0  0  0  0  0  0  0
    5.0417   -1.0008   -0.6335 C   0  0  0  0  0  0  0  0  0  0  0  0
    3.7839   -0.1390   -0.4890 C   0  0  0  0  0  0  0  0  0  0  0  0
    2.7463   -0.8160    0.4095 C   0  0  0  0  0  0  0  0  0  0  0  0
    1.5344    0.0738    0.7174 C   0  0  0  0  0  0  0  0  0  0  0  0
    0.6969    0.3781   -0.5285 C   0  0  0  0  0  0  0  0  0  0  0  0
   -0.5896    1.2035   -0.2400 N   0  0  0  0  0  4  0  0  0  0  0  0
   -0.2436    2.4999    0.4862 C   0  0  0  0  0  0  0  0  0  0  0  0
   -1.1836    1.5623   -1.6147 C   0  0  0  0  0  0  0  0  0  0  0  0
   -1.5962    0.3454    0.5669 C   0  0  0  0  0  0  0  0  0  0  0  0
   -2.8871    1.0855    0.9503 C   0  0  0  0  0  0  0  0  0  0  0  0
   -3.9171    0.1460    1.5290 C   0  0  0  0  0  0  0  0  0  0  0  0
   -5.1049   -0.2290    1.0000 C   0  0  0  0  0  0  0  0  0  0  0  0
   -6.0563   -0.9528    1.8887 C   0  0  0  0  0  0  0  0  0  0  0  0
   -5.6754   -2.0820    2.6305 C   0  0  0  0  0  0  0  0  0  0  0  0
   -6.5993   -2.7299    3.4528 C   0  0  0  0  0  0  0  0  0  0  0  0
   -7.9081   -2.2612    3.5384 C   0  0  0  0  0  0  0  0  0  0  0  0
   -8.3042   -1.1509    2.7909 C   0  0  0  0  0  0  0  0  0  0  0  0
   -7.3897   -0.4998    1.9552 C   0  0  0  0  0  0  0  0  0  0  0  0
   -7.9616    0.9077    0.9961 S   0  0  0  0  0  0  0  0  0  0  0  0
   -6.8661    0.8165   -0.4196 C   0  0  0  0  0  0  0  0  0  0  0  0
   -7.3217    1.3054   -1.6514 C   0  0  0  0  0  0  0  0  0  0  0  0
   -6.5175    1.2115   -2.7900 C   0  0  0  0  0  0  0  0  0  0  0  0
   -5.2683    0.6052   -2.7006 C   0  0  0  0  0  0  0  0  0  0  0  0
   -4.2641    0.4825   -4.0920 Cl  0  0  0  0  0  0  0  0  0  0  0  0
   -4.8061    0.1075   -1.4828 C   0  0  0  0  0  0  0  0  0  0  0  0
   -5.5780    0.2541   -0.3224 C   0  0  0  0  0  0  0  0  0  0  0  0
    8.9342    1.1692   -1.4070 H   0  0  0  0  0  0  0  0  0  0  0  0
    9.9049    1.5055    0.0294 H   0  0  0  0  0  0  0  0  0  0  0  0
   10.3521    0.1673   -1.0422 H   0  0  0  0  0  0  0  0  0  0  0  0
    7.7846    0.3224    0.6326 H   0  0  0  0  0  0  0  0  0  0  0  0
    9.2228   -0.5699    1.0962 H   0  0  0  0  0  0  0  0  0  0  0  0
    9.0388   -2.0498   -0.8472 H   0  0  0  0  0  0  0  0  0  0  0  0
    7.5987   -2.1108    0.1449 H   0  0  0  0  0  0  0  0  0  0  0  0
    7.0238   -2.1431   -2.2301 H   0  0  0  0  0  0  0  0  0  0  0  0
    7.9420   -0.6835   -2.5388 H   0  0  0  0  0  0  0  0  0  0  0  0
    5.5912   -0.1582   -2.5356 H   0  0  0  0  0  0  0  0  0  0  0  0
    6.3348    0.6498   -1.1686 H   0  0  0  0  0  0  0  0  0  0  0  0
    4.7707   -1.9857   -1.0331 H   0  0  0  0  0  0  0  0  0  0  0  0
    5.4811   -1.1610    0.3577 H   0  0  0  0  0  0  0  0  0  0  0  0
    3.3573    0.0448   -1.4810 H   0  0  0  0  0  0  0  0  0  0  0  0
    4.0571    0.8342   -0.0654 H   0  0  0  0  0  0  0  0  0  0  0  0
    3.2196   -1.0874    1.3614 H   0  0  0  0  0  0  0  0  0  0  0  0
    2.4086   -1.7508   -0.0530 H   0  0  0  0  0  0  0  0  0  0  0  0
    0.9342   -0.4468    1.4696 H   0  0  0  0  0  0  0  0  0  0  0  0
    1.8924    1.0019    1.1782 H   0  0  0  0  0  0  0  0  0  0  0  0
    1.2832    0.9663   -1.2441 H   0  0  0  0  0  0  0  0  0  0  0  0
    0.3727   -0.5474   -1.0199 H   0  0  0  0  0  0  0  0  0  0  0  0
   -1.1177    3.1568    0.4716 H   0  0  0  0  0  0  0  0  0  0  0  0
    0.0274    2.2632    1.5187 H   0  0  0  0  0  0  0  0  0  0  0  0
    0.5888    2.9786   -0.0378 H   0  0  0  0  0  0  0  0  0  0  0  0
   -1.4744    0.6341   -2.1147 H   0  0  0  0  0  0  0  0  0  0  0  0
   -2.0448    2.2190   -1.4764 H   0  0  0  0  0  0  0  0  0  0  0  0
   -0.4182    2.0873   -2.1950 H   0  0  0  0  0  0  0  0  0  0  0  0
   -1.0915    0.0269    1.4827 H   0  0  0  0  0  0  0  0  0  0  0  0
   -1.8069   -0.5421   -0.0419 H   0  0  0  0  0  0  0  0  0  0  0  0
   -2.6611    1.8339    1.7205 H   0  0  0  0  0  0  0  0  0  0  0  0
   -3.3012    1.6490    0.1131 H   0  0  0  0  0  0  0  0  0  0  0  0
   -3.6852   -0.1712    2.5477 H   0  0  0  0  0  0  0  0  0  0  0  0
   -4.6659   -2.4779    2.5675 H   0  0  0  0  0  0  0  0  0  0  0  0
   -6.3012   -3.6054    4.0251 H   0  0  0  0  0  0  0  0  0  0  0  0
   -8.6256   -2.7662    4.1818 H   0  0  0  0  0  0  0  0  0  0  0  0
   -9.3336   -0.8040    2.8627 H   0  0  0  0  0  0  0  0  0  0  0  0
   -8.3112    1.7524   -1.7354 H   0  0  0  0  0  0  0  0  0  0  0  0
   -6.8847    1.5950   -3.7392 H   0  0  0  0  0  0  0  0  0  0  0  0
   -3.8504   -0.4060   -1.4452 H   0  0  0  0  0  0  0  0  0  0  0  0
  1  2  1  0
  2  3  1  0
  3  4  1  0
  4  5  1  0
  5  6  1  0
  6  7  1  0
  7  8  1  0
  8  9  1  0
  9 10  1  0
 10 11  1  0
 11 12  1  0
 11 13  1  0
 11 14  1  0
 14 15  1  0
 15 16  1  0
 16 17  2  3
 17 18  1  0
 18 19  2  0
 19 20  1  0
 20 21  2  0
 21 22  1  0
 22 23  2  0
 23 24  1  0
 24 25  1  0
 25 26  2  0
 26 27  1  0
 27 28  2  0
 28 29  1  0
 28 30  1  0
 30 31  2  0
 31 17  1  0
 23 18  1  0
 31 25  1  0
  1 32  1  0
  1 33  1  0
  1 34  1  0
  2 35  1  0
  2 36  1  0
  3 37  1  0
  3 38  1  0
  4 39  1  0
  4 40  1  0
  5 41  1  0
  5 42  1  0
  6 43  1  0
  6 44  1  0
  7 45  1  0
  7 46  1  0
  8 47  1  0
  8 48  1  0
  9 49  1  0
  9 50  1  0
 10 51  1  0
 10 52  1  0
 12 53  1  0
 12 54  1  0
 12 55  1  0
 13 56  1  0
 13 57  1  0
 13 58  1  0
 14 59  1  0
 14 60  1  0
 15 61  1  0
 15 62  1  0
 16 63  1  0
 19 64  1  0
 20 65  1  0
 21 66  1  0
 22 67  1  0
 26 68  1  0
 27 69  1  0
 30 70  1  0
M  CHG  1  11   1
M  END
$$$$
