
     RDKit          3D

 50 52  0  0  0  0  0  0  0  0999 V2000
   -8.7886    0.1052    1.2204 C   0  0  0  0  0  0  0  0  0  0  0  0
   -8.0303    0.3602    0.0466 O   0  0  0  0  0  0  0  0  0  0  0  0
   -6.6658    0.2362    0.1278 C   0  0  0  0  0  0  0  0  0  0  0  0
   -5.9740   -0.1312    1.2864 C   0  0  0  0  0  0  0  0  0  0  0  0
   -4.5815   -0.2350    1.2718 C   0  0  0  0  0  0  0  0  0  0  0  0
   -3.8704    0.0163    0.0956 C   0  0  0  0  0  0  0  0  0  0  0  0
   -2.3896   -0.1118    0.1293 C   0  0  0  0  0  0  0  0  0  0  0  0
   -1.7726    0.1375    1.1610 O   0  0  0  0  0  0  0  0  0  0  0  0
   -1.7884   -0.5639   -1.0381 N   0  0  0  0  0  0  0  0  0  0  0  0
   -0.4381   -0.7208   -1.3273 C   0  0  0  0  0  0  0  0  0  0  0  0
   -0.1052   -1.3065   -2.8549 S   0  0  0  0  0  0  0  0  0  0  0  0
    0.4079   -0.3645   -0.3052 N   0  0  0  0  0  0  0  0  0  0  0  0
    1.8116   -0.3311   -0.1608 C   0  0  0  0  0  0  0  0  0  0  0  0
    2.7460   -0.6423   -1.1382 C   0  0  0  0  0  0  0  0  0  0  0  0
    4.1246   -0.5662   -0.8653 C   0  0  0  0  0  0  0  0  0  0  0  0
    4.6274   -0.1793    0.3839 C   0  0  0  0  0  0  0  0  0  0  0  0
    5.9751   -0.1084    0.6394 N   0  0  0  0  0  0  0  0  0  0  0  0
    7.0153   -0.3191   -0.3645 C   0  0  0  0  0  0  0  0  0  0  0  0
    8.2951    0.1297    0.3361 C   0  0  0  0  0  0  0  0  0  0  0  0
    8.0262   -0.2134    1.7904 C   0  0  0  0  0  0  0  0  0  0  0  0
    6.5494    0.1345    1.9605 C   0  0  0  0  0  0  0  0  0  0  0  0
    3.6695    0.1357    1.3538 C   0  0  0  0  0  0  0  0  0  0  0  0
    2.2927    0.0634    1.0911 C   0  0  0  0  0  0  0  0  0  0  0  0
   -4.5518    0.4055   -1.0653 C   0  0  0  0  0  0  0  0  0  0  0  0
   -5.9480    0.5129   -1.0558 C   0  0  0  0  0  0  0  0  0  0  0  0
   -6.7031    0.8803   -2.1423 O   0  0  0  0  0  0  0  0  0  0  0  0
   -6.0269    1.2290   -3.3415 C   0  0  0  0  0  0  0  0  0  0  0  0
   -9.8447    0.2530    0.9749 H   0  0  0  0  0  0  0  0  0  0  0  0
   -8.6665   -0.9312    1.5518 H   0  0  0  0  0  0  0  0  0  0  0  0
   -8.5313    0.8098    2.0181 H   0  0  0  0  0  0  0  0  0  0  0  0
   -6.4878   -0.3412    2.2188 H   0  0  0  0  0  0  0  0  0  0  0  0
   -4.0552   -0.5171    2.1823 H   0  0  0  0  0  0  0  0  0  0  0  0
   -2.3832   -0.8603   -1.7998 H   0  0  0  0  0  0  0  0  0  0  0  0
   -0.0956   -0.0829    0.5383 H   0  0  0  0  0  0  0  0  0  0  0  0
    2.4673   -0.9483   -2.1367 H   0  0  0  0  0  0  0  0  0  0  0  0
    4.8026   -0.8309   -1.6722 H   0  0  0  0  0  0  0  0  0  0  0  0
    6.8539    0.2734   -1.2714 H   0  0  0  0  0  0  0  0  0  0  0  0
    7.0747   -1.3813   -0.6287 H   0  0  0  0  0  0  0  0  0  0  0  0
    8.4247    1.2133    0.2255 H   0  0  0  0  0  0  0  0  0  0  0  0
    9.1858   -0.3648   -0.0614 H   0  0  0  0  0  0  0  0  0  0  0  0
    8.1809   -1.2867    1.9555 H   0  0  0  0  0  0  0  0  0  0  0  0
    8.6682    0.3351    2.4851 H   0  0  0  0  0  0  0  0  0  0  0  0
    6.1030   -0.4939    2.7384 H   0  0  0  0  0  0  0  0  0  0  0  0
    6.4316    1.1894    2.2333 H   0  0  0  0  0  0  0  0  0  0  0  0
    3.9729    0.4578    2.3456 H   0  0  0  0  0  0  0  0  0  0  0  0
    1.6044    0.3249    1.8921 H   0  0  0  0  0  0  0  0  0  0  0  0
   -3.9878    0.6496   -1.9579 H   0  0  0  0  0  0  0  0  0  0  0  0
   -5.4708    0.3754   -3.7425 H   0  0  0  0  0  0  0  0  0  0  0  0
   -5.3715    2.0926   -3.1887 H   0  0  0  0  0  0  0  0  0  0  0  0
   -6.7818    1.5114   -4.0817 H   0  0  0  0  0  0  0  0  0  0  0  0
  1  2  1  0
  2  3  1  0
  3  4  2  0
  4  5  1  0
  5  6  2  0
  6  7  1  0
  7  8  2  0
  7  9  1  0
  9 10  1  0
 10 11  2  0
 10 12  1  0
 12 13  1  0
 13 14  2  0
 14 15  1  0
 15 16  2  0
 16 17  1  0
 17 18  1  0
 18 19  1  0
 19 20  1  0
 20 21  1  0
 16 22  1  0
 22 23  2  0
  6 24  1  0
 24 25  2  0
 25 26  1  0
 26 27  1  0
 25  3  1  0
 23 13  1  0
 21 17  1  0
  1 28  1  0
  1 29  1  0
  1 30  1  0
  4 31  1  0
  5 32  1  0
  9 33  1  0
 12 34  1  0
 14 35  1  0
 15 36  1  0
 18 37  1  0
 18 38  1  0
 19 39  1  0
 19 40  1  0
 20 41  1  0
 20 42  1  0
 21 43  1  0
 21 44  1  0
 22 45  1  0
 23 46  1  0
 24 47  1  0
 27 48  1  0
 27 49  1  0
 27 50  1  0
M  END
$$$$
