
     RDKit          3D

 44 46  0  0  0  0  0  0  0  0999 V2000
    3.9533   -2.0424   -2.3268 C   0  0  0  0  0  0  0  0  0  0  0  0
    3.5417   -0.8019   -1.7686 O   0  0  0  0  0  0  0  0  0  0  0  0
    4.6166    0.1326   -1.7095 C   0  0  0  0  0  0  0  0  0  0  0  0
    4.1306    1.4398   -1.0931 C   0  0  0  0  0  0  0  0  0  0  0  0
    3.8655    1.3636    0.4199 C   0  0  0  0  0  0  0  0  0  0  0  0
    2.7419    0.4933    0.7937 N   0  0  0  0  0  0  0  0  0  0  0  0
    2.9341   -0.7545    1.3870 C   0  0  0  0  0  0  0  0  0  0  0  0
    4.3905   -1.4554    1.8479 S   0  0  0  0  0  0  0  0  0  0  0  0
    1.8128   -1.4980    1.6432 N   0  0  0  0  0  0  0  0  0  0  0  0
    0.5190   -1.0856    1.3435 C   0  0  0  0  0  0  0  0  0  0  0  0
   -0.5612   -1.9140    1.6177 C   0  0  0  0  0  0  0  0  0  0  0  0
   -1.8595   -1.4813    1.3148 C   0  0  0  0  0  0  0  0  0  0  0  0
   -2.1166   -0.2245    0.7385 C   0  0  0  0  0  0  0  0  0  0  0  0
   -3.4017    0.1893    0.4410 N   0  0  0  0  0  0  0  0  0  0  0  0
   -4.5863   -0.4021    1.0854 C   0  0  0  0  0  0  0  0  0  0  0  0
   -5.7251    0.6299    1.1530 C   0  0  0  0  0  0  0  0  0  0  0  0
   -6.1369    1.1295   -0.1262 O   0  0  0  0  0  0  0  0  0  0  0  0
   -5.0768    1.1552   -1.0926 C   0  0  0  0  0  0  0  0  0  0  0  0
   -3.6717    1.3040   -0.4841 C   0  0  0  0  0  0  0  0  0  0  0  0
   -0.9979    0.5823    0.4763 C   0  0  0  0  0  0  0  0  0  0  0  0
    0.3051    0.1555    0.7758 C   0  0  0  0  0  0  0  0  0  0  0  0
    1.4698    1.0163    0.5038 C   0  0  0  0  0  0  0  0  0  0  0  0
    1.2760    2.1466    0.0568 O   0  0  0  0  0  0  0  0  0  0  0  0
    4.3023   -1.9024   -3.3544 H   0  0  0  0  0  0  0  0  0  0  0  0
    4.7429   -2.4944   -1.7190 H   0  0  0  0  0  0  0  0  0  0  0  0
    3.0927   -2.7164   -2.3385 H   0  0  0  0  0  0  0  0  0  0  0  0
    5.4503   -0.2813   -1.1316 H   0  0  0  0  0  0  0  0  0  0  0  0
    4.9668    0.3286   -2.7297 H   0  0  0  0  0  0  0  0  0  0  0  0
    3.2259    1.7696   -1.6160 H   0  0  0  0  0  0  0  0  0  0  0  0
    4.8985    2.2050   -1.2591 H   0  0  0  0  0  0  0  0  0  0  0  0
    4.7859    1.0778    0.9352 H   0  0  0  0  0  0  0  0  0  0  0  0
    3.6315    2.3757    0.7754 H   0  0  0  0  0  0  0  0  0  0  0  0
    1.9643   -2.4077    2.0629 H   0  0  0  0  0  0  0  0  0  0  0  0
   -0.4184   -2.8966    2.0576 H   0  0  0  0  0  0  0  0  0  0  0  0
   -2.6762   -2.1690    1.5198 H   0  0  0  0  0  0  0  0  0  0  0  0
   -4.9068   -1.2740    0.5035 H   0  0  0  0  0  0  0  0  0  0  0  0
   -4.3648   -0.7226    2.1098 H   0  0  0  0  0  0  0  0  0  0  0  0
   -5.4218    1.4897    1.7623 H   0  0  0  0  0  0  0  0  0  0  0  0
   -6.6049    0.1872    1.6310 H   0  0  0  0  0  0  0  0  0  0  0  0
   -5.2789    1.9833   -1.7794 H   0  0  0  0  0  0  0  0  0  0  0  0
   -5.1399    0.2274   -1.6735 H   0  0  0  0  0  0  0  0  0  0  0  0
   -3.6009    2.2495    0.0661 H   0  0  0  0  0  0  0  0  0  0  0  0
   -2.9499    1.3181   -1.3087 H   0  0  0  0  0  0  0  0  0  0  0  0
   -1.1217    1.5745    0.0498 H   0  0  0  0  0  0  0  0  0  0  0  0
  1  2  1  0
  2  3  1  0
  3  4  1  0
  4  5  1  0
  5  6  1  0
  6  7  1  0
  7  8  2  0
  7  9  1  0
  9 10  1  0
 10 11  2  0
 11 12  1  0
 12 13  2  0
 13 14  1  0
 14 15  1  0
 15 16  1  0
 16 17  1  0
 17 18  1  0
 18 19  1  0
 13 20  1  0
 20 21  2  0
 21 22  1  0
 22 23  2  0
 22  6  1  0
 21 10  1  0
 19 14  1  0
  1 24  1  0
  1 25  1  0
  1 26  1  0
  3 27  1  0
  3 28  1  0
  4 29  1  0
  4 30  1  0
  5 31  1  0
  5 32  1  0
  9 33  1  0
 11 34  1  0
 12 35  1  0
 15 36  1  0
 15 37  1  0
 16 38  1  0
 16 39  1  0
 18 40  1  0
 18 41  1  0
 19 42  1  0
 19 43  1  0
 20 44  1  0
M  END
$$$$
