
     RDKit          3D

 60 63  0  0  0  0  0  0  0  0999 V2000
   -7.9005    1.9761    1.9957 C   0  0  0  0  0  0  0  0  0  0  0  0
   -6.4509    2.0828    1.5563 C   0  0  0  0  0  0  0  0  0  0  0  0
   -5.9213    0.7544    1.4425 O   0  0  0  0  0  0  0  0  0  0  0  0
   -4.6309    0.7014    0.9947 C   0  0  0  0  0  0  0  0  0  0  0  0
   -3.9605    1.6883    0.7115 O   0  0  0  0  0  0  0  0  0  0  0  0
   -4.1643   -0.7550    0.9113 C   0  0  0  0  0  0  0  0  0  0  0  0
   -5.0223   -1.5966   -0.0309 C   0  0  0  0  0  0  0  0  0  0  0  0
   -4.8993   -1.1627   -1.4871 C   0  0  0  0  0  0  0  0  0  0  0  0
   -3.4993   -0.6595   -1.8243 C   0  0  0  0  0  0  0  0  0  0  0  0
   -2.4453   -1.2298   -0.8827 C   0  0  0  0  0  0  0  0  0  0  0  0
   -2.7113   -0.8147    0.5185 N   0  0  0  0  0  0  0  0  0  0  0  0
   -1.7352   -1.5217    1.7207 S   0  0  0  0  0  6  0  0  0  0  0  0
   -1.9837   -0.8201    2.9641 O   0  0  0  0  0  0  0  0  0  0  0  0
   -1.9266   -2.9557    1.6272 O   0  0  0  0  0  0  0  0  0  0  0  0
   -0.0826   -1.1349    1.2075 C   0  0  0  0  0  0  0  0  0  0  0  0
    0.7511   -2.1552    0.7172 C   0  0  0  0  0  0  0  0  0  0  0  0
    2.0630   -1.8630    0.3292 C   0  0  0  0  0  0  0  0  0  0  0  0
    2.5215   -0.5617    0.4641 C   0  0  0  0  0  0  0  0  0  0  0  0
    1.6829    0.4462    0.9527 C   0  0  0  0  0  0  0  0  0  0  0  0
    0.3741    0.1811    1.3275 C   0  0  0  0  0  0  0  0  0  0  0  0
    2.3703    1.7750    0.9112 C   0  0  0  0  0  0  0  0  0  0  0  0
    3.8437    1.3470    0.7282 C   0  0  0  0  0  0  0  0  0  0  0  0
    4.5715    1.3718    2.0786 C   0  0  0  0  0  0  0  0  0  0  0  0
    3.7958   -0.0291    0.1725 N   0  0  0  0  0  0  0  0  0  0  0  0
    4.8017   -0.6872   -0.5332 C   0  0  0  0  0  0  0  0  0  0  0  0
    4.6759   -1.8463   -0.9554 O   0  0  0  0  0  0  0  0  0  0  0  0
    6.0943    0.1377   -0.8276 C   0  0  0  0  0  0  0  0  0  0  0  0
    6.0798    1.0273   -2.1042 C   0  0  0  0  0  0  0  0  0  0  0  0
    6.8043   -0.1133   -2.8482 C   0  0  0  0  0  0  0  0  0  0  0  0
    7.2961   -0.6128   -1.4763 C   0  0  0  0  0  0  0  0  0  0  0  0
   -7.9932    1.3780    2.9073 H   0  0  0  0  0  0  0  0  0  0  0  0
   -8.3253    2.9646    2.1737 H   0  0  0  0  0  0  0  0  0  0  0  0
   -8.4946    1.4736    1.2243 H   0  0  0  0  0  0  0  0  0  0  0  0
   -5.8725    2.6494    2.3004 H   0  0  0  0  0  0  0  0  0  0  0  0
   -6.3986    2.5865    0.5818 H   0  0  0  0  0  0  0  0  0  0  0  0
   -4.2893   -1.1547    1.9226 H   0  0  0  0  0  0  0  0  0  0  0  0
   -4.7021   -2.6444    0.0453 H   0  0  0  0  0  0  0  0  0  0  0  0
   -6.0784   -1.5779    0.2671 H   0  0  0  0  0  0  0  0  0  0  0  0
   -5.6302   -0.3781   -1.7112 H   0  0  0  0  0  0  0  0  0  0  0  0
   -5.1538   -2.0110   -2.1312 H   0  0  0  0  0  0  0  0  0  0  0  0
   -3.2576   -0.9159   -2.8620 H   0  0  0  0  0  0  0  0  0  0  0  0
   -3.4856    0.4393   -1.7671 H   0  0  0  0  0  0  0  0  0  0  0  0
   -2.4123   -2.3255   -0.9654 H   0  0  0  0  0  0  0  0  0  0  0  0
   -1.4707   -0.8335   -1.1939 H   0  0  0  0  0  0  0  0  0  0  0  0
    0.3903   -3.1807    0.6388 H   0  0  0  0  0  0  0  0  0  0  0  0
    2.6977   -2.6617   -0.0418 H   0  0  0  0  0  0  0  0  0  0  0  0
   -0.2752    0.9665    1.6979 H   0  0  0  0  0  0  0  0  0  0  0  0
    2.1978    2.3713    1.8075 H   0  0  0  0  0  0  0  0  0  0  0  0
    2.0200    2.3259    0.0352 H   0  0  0  0  0  0  0  0  0  0  0  0
    4.3586    2.0150    0.0285 H   0  0  0  0  0  0  0  0  0  0  0  0
    4.0501    0.7631    2.8320 H   0  0  0  0  0  0  0  0  0  0  0  0
    4.6289    2.3982    2.4609 H   0  0  0  0  0  0  0  0  0  0  0  0
    5.5889    0.9806    2.0032 H   0  0  0  0  0  0  0  0  0  0  0  0
    6.4374    0.6845    0.0579 H   0  0  0  0  0  0  0  0  0  0  0  0
    6.6733    1.9429   -2.0109 H   0  0  0  0  0  0  0  0  0  0  0  0
    5.0956    1.2889   -2.5023 H   0  0  0  0  0  0  0  0  0  0  0  0
    6.1261   -0.8087   -3.3554 H   0  0  0  0  0  0  0  0  0  0  0  0
    7.5847    0.1982   -3.5486 H   0  0  0  0  0  0  0  0  0  0  0  0
    7.3268   -1.6994   -1.3457 H   0  0  0  0  0  0  0  0  0  0  0  0
    8.2712   -0.2047   -1.1830 H   0  0  0  0  0  0  0  0  0  0  0  0
  1  2  1  0
  2  3  1  0
  3  4  1  0
  4  5  2  0
  4  6  1  0
  6  7  1  0
  7  8  1  0
  8  9  1  0
  9 10  1  0
 10 11  1  0
 11 12  1  0
 12 13  2  0
 12 14  2  0
 12 15  1  0
 15 16  2  0
 16 17  1  0
 17 18  2  0
 18 19  1  0
 19 20  2  0
 19 21  1  0
 21 22  1  0
 22 23  1  0
 22 24  1  0
 24 25  1  0
 25 26  2  0
 25 27  1  0
 27 28  1  0
 28 29  1  0
 29 30  1  0
 11  6  1  0
 20 15  1  0
 30 27  1  0
 24 18  1  0
  1 31  1  0
  1 32  1  0
  1 33  1  0
  2 34  1  0
  2 35  1  0
  6 36  1  0
  7 37  1  0
  7 38  1  0
  8 39  1  0
  8 40  1  0
  9 41  1  0
  9 42  1  0
 10 43  1  0
 10 44  1  0
 16 45  1  0
 17 46  1  0
 20 47  1  0
 21 48  1  0
 21 49  1  0
 22 50  1  0
 23 51  1  0
 23 52  1  0
 23 53  1  0
 27 54  1  0
 28 55  1  0
 28 56  1  0
 29 57  1  0
 29 58  1  0
 30 59  1  0
 30 60  1  0
M  END
$$$$
