
     RDKit          3D

 37 40  0  0  0  0  0  0  0  0999 V2000
    2.0897    1.4293    1.3621 O   0  0  0  0  0  0  0  0  0  0  0  0
    1.9117    0.6511    0.4364 C   0  0  0  0  0  0  0  0  0  0  0  0
    2.7382    0.3805   -0.6278 N   0  0  0  0  0  0  0  0  0  0  0  0
    3.9731    0.9485   -0.7615 C   0  0  0  0  0  0  0  0  0  0  0  0
    4.6022    1.7765    0.0298 N   0  0  0  0  0  0  0  0  0  0  0  0
    5.8342    2.0809   -0.5133 C   0  0  0  0  0  0  0  0  0  0  0  0
    6.1210    1.4690   -1.7154 C   0  0  0  0  0  0  0  0  0  0  0  0
    4.7999    0.4775   -2.1817 S   0  0  0  0  0  0  0  0  0  0  0  0
    0.6200   -0.0698    0.3774 C   0  0  0  0  0  0  0  0  0  0  0  0
   -0.5257    0.7252    0.3140 C   0  0  0  0  0  0  0  0  0  0  0  0
   -1.7553    0.1046    0.1834 C   0  0  0  0  0  0  0  0  0  0  0  0
   -3.0336    0.8445    0.0915 C   0  0  0  0  0  0  0  0  0  0  0  0
   -3.1147    2.1470   -0.4370 C   0  0  0  0  0  0  0  0  0  0  0  0
   -4.3340    2.8303   -0.5109 C   0  0  0  0  0  0  0  0  0  0  0  0
   -5.5031    2.2249   -0.0610 C   0  0  0  0  0  0  0  0  0  0  0  0
   -5.4553    0.9359    0.4587 C   0  0  0  0  0  0  0  0  0  0  0  0
   -4.2354    0.2561    0.5309 C   0  0  0  0  0  0  0  0  0  0  0  0
   -1.8532   -1.2484    0.1284 N   0  0  0  0  0  0  0  0  0  0  0  0
   -0.7529   -2.0132    0.2274 C   0  0  0  0  0  0  0  0  0  0  0  0
   -0.9043   -3.3929    0.1919 C   0  0  0  0  0  0  0  0  0  0  0  0
    0.1838   -4.2609    0.3079 C   0  0  0  0  0  0  0  0  0  0  0  0
    1.4602   -3.7439    0.4729 C   0  0  0  0  0  0  0  0  0  0  0  0
    1.6401   -2.3627    0.5074 C   0  0  0  0  0  0  0  0  0  0  0  0
    0.5389   -1.4780    0.3671 C   0  0  0  0  0  0  0  0  0  0  0  0
    2.4450   -0.2393   -1.3686 H   0  0  0  0  0  0  0  0  0  0  0  0
    6.4901    2.7616    0.0158 H   0  0  0  0  0  0  0  0  0  0  0  0
    7.0122    1.5545   -2.3199 H   0  0  0  0  0  0  0  0  0  0  0  0
   -0.4364    1.8052    0.3765 H   0  0  0  0  0  0  0  0  0  0  0  0
   -2.2287    2.6505   -0.8164 H   0  0  0  0  0  0  0  0  0  0  0  0
   -4.3679    3.8352   -0.9242 H   0  0  0  0  0  0  0  0  0  0  0  0
   -6.4500    2.7549   -0.1185 H   0  0  0  0  0  0  0  0  0  0  0  0
   -6.3641    0.4540    0.8093 H   0  0  0  0  0  0  0  0  0  0  0  0
   -4.2243   -0.7523    0.9428 H   0  0  0  0  0  0  0  0  0  0  0  0
   -1.9044   -3.8067    0.0778 H   0  0  0  0  0  0  0  0  0  0  0  0
    0.0251   -5.3361    0.2830 H   0  0  0  0  0  0  0  0  0  0  0  0
    2.3113   -4.4109    0.5864 H   0  0  0  0  0  0  0  0  0  0  0  0
    2.6468   -1.9826    0.6717 H   0  0  0  0  0  0  0  0  0  0  0  0
  1  2  2  0
  2  3  1  0
  3  4  1  0
  4  5  2  0
  5  6  1  0
  6  7  2  0
  7  8  1  0
  2  9  1  0
  9 10  2  0
 10 11  1  0
 11 12  1  0
 12 13  2  0
 13 14  1  0
 14 15  2  0
 15 16  1  0
 16 17  2  0
 11 18  2  0
 18 19  1  0
 19 20  2  0
 20 21  1  0
 21 22  2  0
 22 23  1  0
 23 24  2  0
  8  4  1  0
 24  9  1  0
 17 12  1  0
 24 19  1  0
  3 25  1  0
  6 26  1  0
  7 27  1  0
 10 28  1  0
 13 29  1  0
 14 30  1  0
 15 31  1  0
 16 32  1  0
 17 33  1  0
 20 34  1  0
 21 35  1  0
 22 36  1  0
 23 37  1  0
M  END
$$$$
