
     RDKit          3D

 64 64  0  0  0  0  0  0  0  0999 V2000
   -8.2429   -2.0026    1.6269 C   0  0  0  0  0  0  0  0  0  0  0  0
   -7.2004   -1.3361    0.7415 C   0  0  0  0  0  0  0  0  0  0  0  0
   -7.6264    0.0793    0.3493 C   0  0  0  0  0  0  0  0  0  0  0  0
   -6.6509    0.7716   -0.6098 C   0  0  0  0  0  0  0  0  0  0  0  0
   -5.6132    1.6729    0.0688 C   0  0  0  0  0  0  0  0  0  0  0  0
   -4.5499    0.9714    0.9156 C   0  0  0  0  0  0  0  0  0  0  0  0
   -3.6852   -0.0544    0.1751 C   0  0  0  0  0  0  0  0  0  0  0  0
   -2.9163    0.4807   -1.0376 C   0  0  0  0  0  0  0  0  0  0  0  0
   -1.9628    1.6456   -0.7544 C   0  0  0  0  0  0  0  0  0  0  0  0
   -0.8798    1.3747    0.2952 C   0  0  0  0  0  0  0  0  0  0  0  0
    0.0295    0.1714    0.0225 C   0  0  0  0  0  0  0  0  0  0  0  0
    0.8379    0.3022   -1.2708 C   0  0  0  0  0  0  0  0  0  0  0  0
    1.7437   -0.9026   -1.5468 C   0  0  0  0  0  0  0  0  0  0  0  0
    2.8728   -1.0643   -0.5258 C   0  0  0  0  0  0  0  0  0  0  0  0
    3.8269   -2.1918   -0.9306 C   0  0  0  0  0  0  0  0  0  0  0  0
    4.9006   -2.4725    0.1171 C   0  0  0  0  0  0  0  0  0  0  0  0
    5.8327   -1.3224    0.2423 N   0  0  0  0  0  4  0  0  0  0  0  0
    5.7232   -0.4764    1.2950 C   0  0  0  0  0  0  0  0  0  0  0  0
    6.5929    0.5980    1.4391 C   0  0  0  0  0  0  0  0  0  0  0  0
    7.5870    0.7880    0.4871 C   0  0  0  0  0  0  0  0  0  0  0  0
    8.5160    1.9236    0.6282 C   0  0  0  0  0  0  0  0  0  0  0  0
    9.4597    2.1276   -0.2321 N   0  0  0  0  0  0  0  0  0  0  0  0
   10.1745    3.2664    0.1555 O   0  0  0  0  0  0  0  0  0  0  0  0
    7.6982   -0.0920   -0.5849 C   0  0  0  0  0  0  0  0  0  0  0  0
    6.8051   -1.1486   -0.6846 C   0  0  0  0  0  0  0  0  0  0  0  0
   -9.2061   -2.0772    1.1121 H   0  0  0  0  0  0  0  0  0  0  0  0
   -7.9219   -3.0144    1.8940 H   0  0  0  0  0  0  0  0  0  0  0  0
   -8.3900   -1.4371    2.5527 H   0  0  0  0  0  0  0  0  0  0  0  0
   -7.0564   -1.9439   -0.1593 H   0  0  0  0  0  0  0  0  0  0  0  0
   -6.2478   -1.3214    1.2770 H   0  0  0  0  0  0  0  0  0  0  0  0
   -7.7851    0.6921    1.2445 H   0  0  0  0  0  0  0  0  0  0  0  0
   -8.5993    0.0091   -0.1548 H   0  0  0  0  0  0  0  0  0  0  0  0
   -7.2465    1.4227   -1.2637 H   0  0  0  0  0  0  0  0  0  0  0  0
   -6.1688    0.0453   -1.2730 H   0  0  0  0  0  0  0  0  0  0  0  0
   -6.1373    2.3975    0.7052 H   0  0  0  0  0  0  0  0  0  0  0  0
   -5.1168    2.2688   -0.7065 H   0  0  0  0  0  0  0  0  0  0  0  0
   -5.0301    0.4810    1.7694 H   0  0  0  0  0  0  0  0  0  0  0  0
   -3.9001    1.7384    1.3542 H   0  0  0  0  0  0  0  0  0  0  0  0
   -4.3126   -0.8884   -0.1592 H   0  0  0  0  0  0  0  0  0  0  0  0
   -2.9775   -0.4897    0.8906 H   0  0  0  0  0  0  0  0  0  0  0  0
   -3.6294    0.7962   -1.8086 H   0  0  0  0  0  0  0  0  0  0  0  0
   -2.3534   -0.3480   -1.4838 H   0  0  0  0  0  0  0  0  0  0  0  0
   -1.4879    1.9417   -1.6973 H   0  0  0  0  0  0  0  0  0  0  0  0
   -2.5420    2.5202   -0.4348 H   0  0  0  0  0  0  0  0  0  0  0  0
   -1.3519    1.2376    1.2752 H   0  0  0  0  0  0  0  0  0  0  0  0
   -0.2572    2.2739    0.3860 H   0  0  0  0  0  0  0  0  0  0  0  0
    0.7138    0.0807    0.8738 H   0  0  0  0  0  0  0  0  0  0  0  0
   -0.5607   -0.7515    0.0011 H   0  0  0  0  0  0  0  0  0  0  0  0
    0.1550    0.4024   -2.1219 H   0  0  0  0  0  0  0  0  0  0  0  0
    1.4423    1.2167   -1.2392 H   0  0  0  0  0  0  0  0  0  0  0  0
    2.1807   -0.7774   -2.5455 H   0  0  0  0  0  0  0  0  0  0  0  0
    1.1391   -1.8171   -1.5792 H   0  0  0  0  0  0  0  0  0  0  0  0
    2.4559   -1.2862    0.4626 H   0  0  0  0  0  0  0  0  0  0  0  0
    3.4233   -0.1203   -0.4470 H   0  0  0  0  0  0  0  0  0  0  0  0
    4.2923   -1.9478   -1.8928 H   0  0  0  0  0  0  0  0  0  0  0  0
    3.2489   -3.1118   -1.0815 H   0  0  0  0  0  0  0  0  0  0  0  0
    4.4637   -2.6783    1.1002 H   0  0  0  0  0  0  0  0  0  0  0  0
    5.5052   -3.3420   -0.1660 H   0  0  0  0  0  0  0  0  0  0  0  0
    4.9296   -0.6649    2.0133 H   0  0  0  0  0  0  0  0  0  0  0  0
    6.4883    1.2716    2.2868 H   0  0  0  0  0  0  0  0  0  0  0  0
    8.3769    2.5942    1.4965 H   0  0  0  0  0  0  0  0  0  0  0  0
   10.8622    3.3401   -0.5340 H   0  0  0  0  0  0  0  0  0  0  0  0
    8.4729    0.0396   -1.3382 H   0  0  0  0  0  0  0  0  0  0  0  0
    6.8557   -1.8620   -1.5029 H   0  0  0  0  0  0  0  0  0  0  0  0
  1  2  1  0
  2  3  1  0
  3  4  1  0
  4  5  1  0
  5  6  1  0
  6  7  1  0
  7  8  1  0
  8  9  1  0
  9 10  1  0
 10 11  1  0
 11 12  1  0
 12 13  1  0
 13 14  1  0
 14 15  1  0
 15 16  1  0
 16 17  1  0
 17 18  2  0
 18 19  1  0
 19 20  2  0
 20 21  1  0
 21 22  2  3
 22 23  1  0
 20 24  1  0
 24 25  2  0
 25 17  1  0
  1 26  1  0
  1 27  1  0
  1 28  1  0
  2 29  1  0
  2 30  1  0
  3 31  1  0
  3 32  1  0
  4 33  1  0
  4 34  1  0
  5 35  1  0
  5 36  1  0
  6 37  1  0
  6 38  1  0
  7 39  1  0
  7 40  1  0
  8 41  1  0
  8 42  1  0
  9 43  1  0
  9 44  1  0
 10 45  1  0
 10 46  1  0
 11 47  1  0
 11 48  1  0
 12 49  1  0
 12 50  1  0
 13 51  1  0
 13 52  1  0
 14 53  1  0
 14 54  1  0
 15 55  1  0
 15 56  1  0
 16 57  1  0
 16 58  1  0
 18 59  1  0
 19 60  1  0
 21 61  1  0
 23 62  1  0
 24 63  1  0
 25 64  1  0
M  CHG  1  17   1
M  END
$$$$
