
     RDKit          3D

 31 33  0  0  0  0  0  0  0  0999 V2000
    5.7356    0.3669    0.0425 O   0  0  0  0  0  0  0  0  0  0  0  0
    4.6559    0.8713   -0.2127 C   0  0  0  0  0  0  0  0  0  0  0  0
    4.3914    2.1531    0.1318 O   0  0  0  0  0  0  0  0  0  0  0  0
    3.5175    0.2374   -0.9813 C   0  0  0  0  0  0  0  0  0  0  0  0
    2.1829    0.7296   -0.5206 N   0  0  0  0  0  0  0  0  0  0  0  0
    1.7330    0.1409    1.0087 S   0  0  0  0  0  6  0  0  0  0  0  0
    2.1017   -1.2521    1.1028 O   0  0  0  0  0  0  0  0  0  0  0  0
    2.2085    1.1188    1.9617 O   0  0  0  0  0  0  0  0  0  0  0  0
   -0.0363    0.2442    0.9271 C   0  0  0  0  0  0  0  0  0  0  0  0
   -0.7013    1.1517    1.7975 C   0  0  0  0  0  0  0  0  0  0  0  0
   -2.0996    1.2807    1.7826 C   0  0  0  0  0  0  0  0  0  0  0  0
   -2.7936    0.4931    0.8947 C   0  0  0  0  0  0  0  0  0  0  0  0
   -2.1420   -0.3811    0.0642 C   0  0  0  0  0  0  0  0  0  0  0  0
   -3.0596   -1.0417   -0.7133 C   0  0  0  0  0  0  0  0  0  0  0  0
   -2.6625   -1.9838   -1.6375 C   0  0  0  0  0  0  0  0  0  0  0  0
   -1.2878   -2.2358   -1.7463 C   0  0  0  0  0  0  0  0  0  0  0  0
   -0.3492   -1.5472   -0.9390 C   0  0  0  0  0  0  0  0  0  0  0  0
   -0.7641   -0.5733    0.0147 C   0  0  0  0  0  0  0  0  0  0  0  0
   -4.3962   -0.5336   -0.3345 C   0  0  0  0  0  0  0  0  0  0  0  0
   -5.4601   -0.8779   -0.8059 O   0  0  0  0  0  0  0  0  0  0  0  0
   -4.1618    0.4060    0.6581 N   0  0  0  0  0  0  0  0  0  0  0  0
    5.1717    2.4234    0.6630 H   0  0  0  0  0  0  0  0  0  0  0  0
    3.6333    0.5170   -2.0337 H   0  0  0  0  0  0  0  0  0  0  0  0
    3.5737   -0.8523   -0.9160 H   0  0  0  0  0  0  0  0  0  0  0  0
    2.2468    1.7525   -0.4375 H   0  0  0  0  0  0  0  0  0  0  0  0
   -0.1278    1.7612    2.4953 H   0  0  0  0  0  0  0  0  0  0  0  0
   -2.6033    1.9729    2.4480 H   0  0  0  0  0  0  0  0  0  0  0  0
   -3.3885   -2.5073   -2.2503 H   0  0  0  0  0  0  0  0  0  0  0  0
   -0.9329   -2.9762   -2.4613 H   0  0  0  0  0  0  0  0  0  0  0  0
    0.7059   -1.7854   -1.0607 H   0  0  0  0  0  0  0  0  0  0  0  0
   -4.8911    0.9271    1.1204 H   0  0  0  0  0  0  0  0  0  0  0  0
  1  2  2  0
  2  3  1  0
  2  4  1  0
  4  5  1  0
  5  6  1  0
  6  7  2  0
  6  8  2  0
  6  9  1  0
  9 10  2  0
 10 11  1  0
 11 12  2  0
 12 13  1  0
 13 14  2  0
 14 15  1  0
 15 16  2  0
 16 17  1  0
 17 18  2  0
 14 19  1  0
 19 20  2  0
 19 21  1  0
 18  9  1  0
 21 12  1  0
 18 13  1  0
  3 22  1  0
  4 23  1  0
  4 24  1  0
  5 25  1  0
 10 26  1  0
 11 27  1  0
 15 28  1  0
 16 29  1  0
 17 30  1  0
 21 31  1  0
M  END
$$$$
