
     RDKit          3D

 37 38  0  0  0  0  0  0  0  0999 V2000
    2.2900   -2.9867    1.1971 C   0  0  0  0  0  0  0  0  0  0  0  0
    1.7133   -1.7021    1.5135 N   0  0  0  0  0  0  0  0  0  0  0  0
    1.2063   -0.9261    0.4827 C   0  0  0  0  0  0  0  0  0  0  0  0
    1.3000   -1.2428   -0.6958 O   0  0  0  0  0  0  0  0  0  0  0  0
    0.6058    0.2254    0.9501 N   0  0  0  0  0  0  0  0  0  0  0  0
    0.9076    0.6257    2.2781 O   0  0  0  0  0  0  0  0  0  0  0  0
    0.0516    1.3171    0.1339 C   0  0  0  0  0  0  0  0  0  0  0  0
   -0.9424    0.9273   -0.8724 N   0  0  0  0  0  0  0  0  0  0  0  0
   -1.8661   -0.1300   -0.6055 C   0  0  0  0  0  0  0  0  0  0  0  0
   -2.2512   -1.0082   -1.6263 C   0  0  0  0  0  0  0  0  0  0  0  0
   -3.1321   -2.0629   -1.3708 C   0  0  0  0  0  0  0  0  0  0  0  0
   -3.6345   -2.2581   -0.0876 C   0  0  0  0  0  0  0  0  0  0  0  0
   -3.2501   -1.4037    0.9419 C   0  0  0  0  0  0  0  0  0  0  0  0
   -2.3667   -0.3507    0.6863 C   0  0  0  0  0  0  0  0  0  0  0  0
   -1.1289    1.8877   -1.8752 C   0  0  0  0  0  0  0  0  0  0  0  0
   -2.3239    2.0197   -3.0369 S   0  0  0  0  0  0  0  0  0  0  0  0
    0.0976    3.1579   -1.7353 S   0  0  0  0  0  0  0  0  0  0  0  0
    1.1139    2.2207   -0.5420 C   0  0  0  0  0  0  0  0  0  0  0  0
    2.2073    1.5114   -1.3450 C   0  0  0  0  0  0  0  0  0  0  0  0
    1.7516    3.1995    0.4489 C   0  0  0  0  0  0  0  0  0  0  0  0
    2.7230   -3.4060    2.1080 H   0  0  0  0  0  0  0  0  0  0  0  0
    3.0650   -2.8671    0.4350 H   0  0  0  0  0  0  0  0  0  0  0  0
    1.5056   -3.6480    0.8185 H   0  0  0  0  0  0  0  0  0  0  0  0
    1.1026   -1.6843    2.3220 H   0  0  0  0  0  0  0  0  0  0  0  0
    1.8079    0.2599    2.3997 H   0  0  0  0  0  0  0  0  0  0  0  0
   -0.5135    1.9431    0.8432 H   0  0  0  0  0  0  0  0  0  0  0  0
   -1.8395   -0.9114   -2.6279 H   0  0  0  0  0  0  0  0  0  0  0  0
   -3.4165   -2.7347   -2.1766 H   0  0  0  0  0  0  0  0  0  0  0  0
   -4.3217   -3.0768    0.1090 H   0  0  0  0  0  0  0  0  0  0  0  0
   -3.6421   -1.5518    1.9447 H   0  0  0  0  0  0  0  0  0  0  0  0
   -2.1058    0.3065    1.5111 H   0  0  0  0  0  0  0  0  0  0  0  0
    2.8390    2.2299   -1.8825 H   0  0  0  0  0  0  0  0  0  0  0  0
    1.7975    0.8194   -2.0887 H   0  0  0  0  0  0  0  0  0  0  0  0
    2.8772    0.9479   -0.6869 H   0  0  0  0  0  0  0  0  0  0  0  0
    2.3995    3.9245   -0.0580 H   0  0  0  0  0  0  0  0  0  0  0  0
    2.3738    2.6659    1.1760 H   0  0  0  0  0  0  0  0  0  0  0  0
    0.9988    3.7618    1.0135 H   0  0  0  0  0  0  0  0  0  0  0  0
  1  2  1  0
  2  3  1  0
  3  4  2  0
  3  5  1  0
  5  6  1  0
  5  7  1  0
  7  8  1  0
  8  9  1  0
  9 10  2  0
 10 11  1  0
 11 12  2  0
 12 13  1  0
 13 14  2  0
  8 15  1  0
 15 16  2  0
 15 17  1  0
 17 18  1  0
 18 19  1  0
 18 20  1  0
 18  7  1  0
 14  9  1  0
  1 21  1  0
  1 22  1  0
  1 23  1  0
  2 24  1  0
  6 25  1  0
  7 26  1  0
 10 27  1  0
 11 28  1  0
 12 29  1  0
 13 30  1  0
 14 31  1  0
 19 32  1  0
 19 33  1  0
 19 34  1  0
 20 35  1  0
 20 36  1  0
 20 37  1  0
M  END
$$$$
