
     RDKit          3D

 59 62  0  0  0  0  0  0  0  0999 V2000
    5.1605   -2.7083    2.0652 C   0  0  0  0  0  0  0  0  0  0  0  0
    5.7413   -1.6219    1.3543 O   0  0  0  0  0  0  0  0  0  0  0  0
    4.9089   -0.8790    0.5537 C   0  0  0  0  0  0  0  0  0  0  0  0
    3.5101   -0.9573    0.5773 C   0  0  0  0  0  0  0  0  0  0  0  0
    2.7365   -0.1561   -0.2663 C   0  0  0  0  0  0  0  0  0  0  0  0
    1.3240   -0.1566   -0.2792 N   0  0  0  0  0  0  0  0  0  0  0  0
    0.4772   -0.9780    0.4425 C   0  0  0  0  0  0  0  0  0  0  0  0
    0.7947   -1.9159    1.1623 O   0  0  0  0  0  0  0  0  0  0  0  0
   -0.9623   -0.6746    0.2805 C   0  0  0  0  0  0  0  0  0  0  0  0
   -1.4389    0.6425    0.2247 C   0  0  0  0  0  0  0  0  0  0  0  0
   -2.8070    0.8778    0.0708 C   0  0  0  0  0  0  0  0  0  0  0  0
   -3.3573    2.2488    0.0052 C   0  0  0  0  0  0  0  0  0  0  0  0
   -4.4161    2.5542   -0.8701 C   0  0  0  0  0  0  0  0  0  0  0  0
   -4.9421    3.8464   -0.9546 C   0  0  0  0  0  0  0  0  0  0  0  0
   -4.4231    4.8625   -0.1578 C   0  0  0  0  0  0  0  0  0  0  0  0
   -3.3843    4.5855    0.7259 C   0  0  0  0  0  0  0  0  0  0  0  0
   -2.8591    3.2917    0.8082 C   0  0  0  0  0  0  0  0  0  0  0  0
   -3.7254   -0.1126   -0.0437 N   0  0  0  0  0  0  0  0  0  0  0  0
   -3.2269   -1.3605    0.0458 C   0  0  0  0  0  0  0  0  0  0  0  0
   -1.8976   -1.7141    0.2107 C   0  0  0  0  0  0  0  0  0  0  0  0
   -1.9110   -3.1240    0.2447 C   0  0  0  0  0  0  0  0  0  0  0  0
   -3.1384   -3.6353    0.1035 N   0  0  0  0  0  0  0  0  0  0  0  0
   -3.9287   -2.5394   -0.0059 N   0  0  0  0  0  0  0  0  0  0  0  0
   -5.3691   -2.7105   -0.1548 C   0  0  0  0  0  0  0  0  0  0  0  0
   -5.8785   -2.1612   -1.4872 C   0  0  0  0  0  0  0  0  0  0  0  0
   -6.1404   -2.1267    1.0287 C   0  0  0  0  0  0  0  0  0  0  0  0
    3.3776    0.7192   -1.1497 C   0  0  0  0  0  0  0  0  0  0  0  0
    4.7725    0.7998   -1.2034 C   0  0  0  0  0  0  0  0  0  0  0  0
    5.2454    1.7001   -2.1222 O   0  0  0  0  0  0  0  0  0  0  0  0
    6.4519    1.3262   -2.7831 C   0  0  0  0  0  0  0  0  0  0  0  0
    5.5358    0.0323   -0.3165 C   0  0  0  0  0  0  0  0  0  0  0  0
    6.9063    0.1367   -0.3052 O   0  0  0  0  0  0  0  0  0  0  0  0
    7.3137    1.0481    0.7167 C   0  0  0  0  0  0  0  0  0  0  0  0
    4.6378   -3.3947    1.3904 H   0  0  0  0  0  0  0  0  0  0  0  0
    5.9721   -3.2657    2.5420 H   0  0  0  0  0  0  0  0  0  0  0  0
    4.4966   -2.3467    2.8570 H   0  0  0  0  0  0  0  0  0  0  0  0
    3.0235   -1.6317    1.2702 H   0  0  0  0  0  0  0  0  0  0  0  0
    0.8976    0.4807   -0.9406 H   0  0  0  0  0  0  0  0  0  0  0  0
   -0.7505    1.4772    0.3119 H   0  0  0  0  0  0  0  0  0  0  0  0
   -4.8395    1.7739   -1.5004 H   0  0  0  0  0  0  0  0  0  0  0  0
   -5.7592    4.0550   -1.6399 H   0  0  0  0  0  0  0  0  0  0  0  0
   -4.8336    5.8672   -0.2195 H   0  0  0  0  0  0  0  0  0  0  0  0
   -2.9861    5.3744    1.3603 H   0  0  0  0  0  0  0  0  0  0  0  0
   -2.0654    3.1057    1.5291 H   0  0  0  0  0  0  0  0  0  0  0  0
   -1.0718   -3.7986    0.3656 H   0  0  0  0  0  0  0  0  0  0  0  0
   -5.5457   -3.7948   -0.1586 H   0  0  0  0  0  0  0  0  0  0  0  0
   -6.9369   -2.4072   -1.6255 H   0  0  0  0  0  0  0  0  0  0  0  0
   -5.7805   -1.0722   -1.5462 H   0  0  0  0  0  0  0  0  0  0  0  0
   -5.3204   -2.5920   -2.3263 H   0  0  0  0  0  0  0  0  0  0  0  0
   -7.2068   -2.3605    0.9461 H   0  0  0  0  0  0  0  0  0  0  0  0
   -5.7767   -2.5436    1.9738 H   0  0  0  0  0  0  0  0  0  0  0  0
   -6.0414   -1.0381    1.0849 H   0  0  0  0  0  0  0  0  0  0  0  0
    2.8020    1.3481   -1.8239 H   0  0  0  0  0  0  0  0  0  0  0  0
    6.4701    1.8389   -3.7509 H   0  0  0  0  0  0  0  0  0  0  0  0
    7.3207    1.6725   -2.2163 H   0  0  0  0  0  0  0  0  0  0  0  0
    6.5055    0.2495   -2.9810 H   0  0  0  0  0  0  0  0  0  0  0  0
    7.0466    0.6840    1.7136 H   0  0  0  0  0  0  0  0  0  0  0  0
    8.4030    1.1351    0.6704 H   0  0  0  0  0  0  0  0  0  0  0  0
    6.8887    2.0434    0.5493 H   0  0  0  0  0  0  0  0  0  0  0  0
  1  2  1  0
  2  3  1  0
  3  4  2  0
  4  5  1  0
  5  6  1  0
  6  7  1  0
  7  8  2  0
  7  9  1  0
  9 10  2  0
 10 11  1  0
 11 12  1  0
 12 13  2  0
 13 14  1  0
 14 15  2  0
 15 16  1  0
 16 17  2  0
 11 18  2  0
 18 19  1  0
 19 20  2  0
 20 21  1  0
 21 22  2  0
 22 23  1  0
 23 24  1  0
 24 25  1  0
 24 26  1  0
  5 27  2  0
 27 28  1  0
 28 29  1  0
 29 30  1  0
 28 31  2  0
 31 32  1  0
 32 33  1  0
 31  3  1  0
 20  9  1  0
 17 12  1  0
 23 19  1  0
  1 34  1  0
  1 35  1  0
  1 36  1  0
  4 37  1  0
  6 38  1  0
 10 39  1  0
 13 40  1  0
 14 41  1  0
 15 42  1  0
 16 43  1  0
 17 44  1  0
 21 45  1  0
 24 46  1  0
 25 47  1  0
 25 48  1  0
 25 49  1  0
 26 50  1  0
 26 51  1  0
 26 52  1  0
 27 53  1  0
 30 54  1  0
 30 55  1  0
 30 56  1  0
 33 57  1  0
 33 58  1  0
 33 59  1  0
M  END
$$$$
