
     RDKit          3D

 36 37  0  0  0  0  0  0  0  0999 V2000
   -5.2690    0.7945   -0.4414 C   0  0  0  0  0  0  0  0  0  0  0  0
   -3.9858    0.2452   -0.0463 N   0  0  0  0  0  0  0  0  0  0  0  0
   -3.7905   -1.1216   -0.1971 C   0  0  0  0  0  0  0  0  0  0  0  0
   -4.6475   -1.8835   -0.6419 O   0  0  0  0  0  0  0  0  0  0  0  0
   -2.4656   -1.6454    0.1991 C   0  0  0  0  0  0  0  0  0  0  0  0
   -2.1889   -3.0333    0.1074 C   0  0  0  0  0  0  0  0  0  0  0  0
   -1.9032   -4.1576    0.0608 N   0  0  0  0  0  0  0  0  0  0  0  0
   -1.5438   -0.7786    0.6265 C   0  0  0  0  0  0  0  0  0  0  0  0
   -1.7813    0.5760    0.7071 N   0  0  0  0  0  0  0  0  0  0  0  0
   -0.6751    1.4684    1.0899 C   0  0  0  0  0  0  0  0  0  0  0  0
    0.0552    2.0736   -0.1240 C   0  0  0  0  0  0  0  0  0  0  0  0
    0.6223    1.0520   -1.0134 N   0  0  0  0  0  0  0  0  0  0  0  0
    1.8490    0.4856   -0.6258 C   0  0  0  0  0  0  0  0  0  0  0  0
    2.3075    0.7026    0.6283 N   0  0  0  0  0  0  0  0  0  0  0  0
    3.4644    0.1053    1.0061 C   0  0  0  0  0  0  0  0  0  0  0  0
    4.2123   -0.7287    0.1906 C   0  0  0  0  0  0  0  0  0  0  0  0
    5.4666   -1.3593    0.7092 C   0  0  0  0  0  0  0  0  0  0  0  0
    5.2150   -2.4576    1.4704 F   0  0  0  0  0  0  0  0  0  0  0  0
    6.1937   -0.5173    1.4934 F   0  0  0  0  0  0  0  0  0  0  0  0
    6.3082   -1.7690   -0.2786 F   0  0  0  0  0  0  0  0  0  0  0  0
    3.7246   -0.9723   -1.0943 C   0  0  0  0  0  0  0  0  0  0  0  0
    2.5377   -0.3660   -1.5061 C   0  0  0  0  0  0  0  0  0  0  0  0
    1.9628   -0.6766   -3.1050 Cl  0  0  0  0  0  0  0  0  0  0  0  0
   -2.9921    1.1470    0.3276 C   0  0  0  0  0  0  0  0  0  0  0  0
   -3.1618    2.3669    0.3171 O   0  0  0  0  0  0  0  0  0  0  0  0
   -5.2035    1.0988   -1.4909 H   0  0  0  0  0  0  0  0  0  0  0  0
   -5.5181    1.6706    0.1651 H   0  0  0  0  0  0  0  0  0  0  0  0
   -6.0684    0.0557   -0.3347 H   0  0  0  0  0  0  0  0  0  0  0  0
   -0.5471   -1.1113    0.9108 H   0  0  0  0  0  0  0  0  0  0  0  0
    0.0099    0.9246    1.7493 H   0  0  0  0  0  0  0  0  0  0  0  0
   -1.0901    2.2887    1.6887 H   0  0  0  0  0  0  0  0  0  0  0  0
   -0.6636    2.6534   -0.7151 H   0  0  0  0  0  0  0  0  0  0  0  0
    0.8224    2.7859    0.2036 H   0  0  0  0  0  0  0  0  0  0  0  0
    0.7022    1.3848   -1.9730 H   0  0  0  0  0  0  0  0  0  0  0  0
    3.7769    0.3296    2.0250 H   0  0  0  0  0  0  0  0  0  0  0  0
    4.2646   -1.6313   -1.7716 H   0  0  0  0  0  0  0  0  0  0  0  0
  1  2  1  0
  2  3  1  0
  3  4  2  0
  3  5  1  0
  5  6  1  0
  6  7  3  0
  5  8  2  0
  8  9  1  0
  9 10  1  0
 10 11  1  0
 11 12  1  0
 12 13  1  0
 13 14  2  0
 14 15  1  0
 15 16  2  0
 16 17  1  0
 17 18  1  0
 17 19  1  0
 17 20  1  0
 16 21  1  0
 21 22  2  0
 22 23  1  0
  9 24  1  0
 24 25  2  0
 24  2  1  0
 22 13  1  0
  1 26  1  0
  1 27  1  0
  1 28  1  0
  8 29  1  0
 10 30  1  0
 10 31  1  0
 11 32  1  0
 11 33  1  0
 12 34  1  0
 15 35  1  0
 21 36  1  0
M  END
$$$$
