
     RDKit          3D

 49 51  0  0  0  0  0  0  0  0999 V2000
   -8.0238    2.3252    1.8632 C   0  0  0  0  0  0  0  0  0  0  0  0
   -7.7041    1.2558    0.9853 O   0  0  0  0  0  0  0  0  0  0  0  0
   -6.4060    1.1543    0.5495 C   0  0  0  0  0  0  0  0  0  0  0  0
   -5.3918    2.0643    0.8682 C   0  0  0  0  0  0  0  0  0  0  0  0
   -4.0972    1.8811    0.3750 C   0  0  0  0  0  0  0  0  0  0  0  0
   -3.8048    0.7873   -0.4413 C   0  0  0  0  0  0  0  0  0  0  0  0
   -2.4454    0.5986   -0.9526 C   0  0  0  0  0  0  0  0  0  0  0  0
   -1.5122   -0.1764   -0.3851 C   0  0  0  0  0  0  0  0  0  0  0  0
   -1.6427   -1.1094    1.0534 S   0  0  0  0  0  0  0  0  0  0  0  0
    0.0139   -1.6731    0.9356 C   0  0  0  0  0  0  0  0  0  0  0  0
    0.5465   -2.3509    1.7996 O   0  0  0  0  0  0  0  0  0  0  0  0
    0.5865   -1.2092   -0.2188 N   0  0  0  0  0  0  0  0  0  0  0  0
    1.9643   -1.5287   -0.5595 C   0  0  0  0  0  0  0  0  0  0  0  0
    2.9472   -0.5352    0.0533 C   0  0  0  0  0  0  0  0  0  0  0  0
    4.3769   -0.8916   -0.3073 C   0  0  0  0  0  0  0  0  0  0  0  0
    4.6421   -1.8736   -0.9904 O   0  0  0  0  0  0  0  0  0  0  0  0
    5.2784    0.0127    0.2299 N   0  0  0  0  0  0  0  0  0  0  0  0
    6.6843   -0.0011    0.1101 C   0  0  0  0  0  0  0  0  0  0  0  0
    7.3900    1.0287    0.7475 C   0  0  0  0  0  0  0  0  0  0  0  0
    8.7849    1.0875    0.6799 C   0  0  0  0  0  0  0  0  0  0  0  0
    9.4883    0.1169   -0.0277 C   0  0  0  0  0  0  0  0  0  0  0  0
    8.7965   -0.9102   -0.6644 C   0  0  0  0  0  0  0  0  0  0  0  0
    7.4003   -0.9694   -0.5960 C   0  0  0  0  0  0  0  0  0  0  0  0
   -0.1513   -0.3223   -0.9668 C   0  0  0  0  0  0  0  0  0  0  0  0
    0.2397    0.2906   -1.9500 O   0  0  0  0  0  0  0  0  0  0  0  0
   -4.8146   -0.1273   -0.7657 C   0  0  0  0  0  0  0  0  0  0  0  0
   -6.1147    0.0478   -0.2757 C   0  0  0  0  0  0  0  0  0  0  0  0
   -7.1649   -0.7967   -0.5433 O   0  0  0  0  0  0  0  0  0  0  0  0
   -6.9056   -1.9439   -1.3402 C   0  0  0  0  0  0  0  0  0  0  0  0
   -7.8843    3.2942    1.3724 H   0  0  0  0  0  0  0  0  0  0  0  0
   -7.4444    2.2629    2.7906 H   0  0  0  0  0  0  0  0  0  0  0  0
   -9.0825    2.2364    2.1266 H   0  0  0  0  0  0  0  0  0  0  0  0
   -5.5760    2.9284    1.4981 H   0  0  0  0  0  0  0  0  0  0  0  0
   -3.3232    2.5997    0.6364 H   0  0  0  0  0  0  0  0  0  0  0  0
   -2.2209    1.1469   -1.8661 H   0  0  0  0  0  0  0  0  0  0  0  0
    2.0623   -1.5302   -1.6520 H   0  0  0  0  0  0  0  0  0  0  0  0
    2.1846   -2.5437   -0.2070 H   0  0  0  0  0  0  0  0  0  0  0  0
    2.7352    0.4785   -0.3060 H   0  0  0  0  0  0  0  0  0  0  0  0
    2.8518   -0.5338    1.1456 H   0  0  0  0  0  0  0  0  0  0  0  0
    4.8933    0.7751    0.7731 H   0  0  0  0  0  0  0  0  0  0  0  0
    6.8676    1.8003    1.3068 H   0  0  0  0  0  0  0  0  0  0  0  0
    9.3209    1.8906    1.1792 H   0  0  0  0  0  0  0  0  0  0  0  0
   10.5731    0.1584   -0.0827 H   0  0  0  0  0  0  0  0  0  0  0  0
    9.3403   -1.6720   -1.2180 H   0  0  0  0  0  0  0  0  0  0  0  0
    6.9052   -1.7891   -1.1067 H   0  0  0  0  0  0  0  0  0  0  0  0
   -4.5653   -0.9691   -1.4035 H   0  0  0  0  0  0  0  0  0  0  0  0
   -6.5888   -1.6592   -2.3492 H   0  0  0  0  0  0  0  0  0  0  0  0
   -7.8402   -2.5062   -1.4326 H   0  0  0  0  0  0  0  0  0  0  0  0
   -6.1696   -2.5998   -0.8625 H   0  0  0  0  0  0  0  0  0  0  0  0
  1  2  1  0
  2  3  1  0
  3  4  2  0
  4  5  1  0
  5  6  2  0
  6  7  1  0
  7  8  2  3
  8  9  1  0
  9 10  1  0
 10 11  2  0
 10 12  1  0
 12 13  1  0
 13 14  1  0
 14 15  1  0
 15 16  2  0
 15 17  1  0
 17 18  1  0
 18 19  2  0
 19 20  1  0
 20 21  2  0
 21 22  1  0
 22 23  2  0
 12 24  1  0
 24 25  2  0
  6 26  1  0
 26 27  2  0
 27 28  1  0
 28 29  1  0
 27  3  1  0
 24  8  1  0
 23 18  1  0
  1 30  1  0
  1 31  1  0
  1 32  1  0
  4 33  1  0
  5 34  1  0
  7 35  1  0
 13 36  1  0
 13 37  1  0
 14 38  1  0
 14 39  1  0
 17 40  1  0
 19 41  1  0
 20 42  1  0
 21 43  1  0
 22 44  1  0
 23 45  1  0
 26 46  1  0
 29 47  1  0
 29 48  1  0
 29 49  1  0
M  END
$$$$
