
     RDKit          3D

 53 56  0  0  0  0  0  0  0  0999 V2000
   -3.0275    5.1237   -0.8461 C   0  0  0  0  0  0  0  0  0  0  0  0
   -2.8246    3.6491   -0.6672 C   0  0  0  0  0  0  0  0  0  0  0  0
   -3.0098    2.7697   -1.7372 C   0  0  0  0  0  0  0  0  0  0  0  0
   -2.8507    1.3926   -1.5559 C   0  0  0  0  0  0  0  0  0  0  0  0
   -2.5327    0.8660   -0.2982 C   0  0  0  0  0  0  0  0  0  0  0  0
   -2.3430   -0.5327   -0.2151 N   0  0  0  0  0  0  0  0  0  0  0  0
   -2.2976   -1.3774    0.8876 C   0  0  0  0  0  0  0  0  0  0  0  0
   -3.2191   -1.1191    2.2758 S   0  0  0  0  0  0  0  0  0  0  0  0
   -1.4411   -2.4940    0.7005 N   0  0  0  0  0  0  0  0  0  0  0  0
   -1.4793   -3.6651    1.5992 C   0  0  0  0  0  0  0  0  0  0  0  0
   -0.2085   -3.7903    2.3915 C   0  0  0  0  0  0  0  0  0  0  0  0
    0.8767   -4.6127    2.1478 C   0  0  0  0  0  0  0  0  0  0  0  0
    1.9024   -4.4690    3.1263 C   0  0  0  0  0  0  0  0  0  0  0  0
    1.5627   -3.5540    4.0959 C   0  0  0  0  0  0  0  0  0  0  0  0
    0.0167   -2.8784    3.8275 S   0  0  0  0  0  0  0  0  0  0  0  0
   -0.5958   -2.6564   -0.5013 C   0  0  0  0  0  0  0  0  0  0  0  0
    0.3915   -1.5349   -0.6750 C   0  0  0  0  0  0  0  0  0  0  0  0
    1.3003   -1.1689    0.2451 C   0  0  0  0  0  0  0  0  0  0  0  0
    2.2108   -0.0490    0.0110 C   0  0  0  0  0  0  0  0  0  0  0  0
    3.1385    0.3331    0.9825 C   0  0  0  0  0  0  0  0  0  0  0  0
    3.9938    1.4073    0.7430 C   0  0  0  0  0  0  0  0  0  0  0  0
    3.9241    2.1034   -0.4654 C   0  0  0  0  0  0  0  0  0  0  0  0
    2.9981    1.7372   -1.4546 C   0  0  0  0  0  0  0  0  0  0  0  0
    2.9460    2.5149   -2.7385 C   0  0  0  0  0  0  0  0  0  0  0  0
    2.1424    0.6519   -1.2025 C   0  0  0  0  0  0  0  0  0  0  0  0
    1.1955    0.2425   -2.1538 N   0  0  0  0  0  0  0  0  0  0  0  0
    0.3156   -0.7866   -1.9655 C   0  0  0  0  0  0  0  0  0  0  0  0
   -0.5154   -1.0766   -2.8238 O   0  0  0  0  0  0  0  0  0  0  0  0
   -2.3335    1.7461    0.7649 C   0  0  0  0  0  0  0  0  0  0  0  0
   -2.4924    3.1254    0.5860 C   0  0  0  0  0  0  0  0  0  0  0  0
   -2.7815    5.4312   -1.8680 H   0  0  0  0  0  0  0  0  0  0  0  0
   -2.3784    5.6918   -0.1715 H   0  0  0  0  0  0  0  0  0  0  0  0
   -4.0695    5.3858   -0.6391 H   0  0  0  0  0  0  0  0  0  0  0  0
   -3.2765    3.1479   -2.7212 H   0  0  0  0  0  0  0  0  0  0  0  0
   -2.9855    0.7360   -2.4125 H   0  0  0  0  0  0  0  0  0  0  0  0
   -2.3302   -0.9965   -1.1157 H   0  0  0  0  0  0  0  0  0  0  0  0
   -1.6183   -4.5537    0.9696 H   0  0  0  0  0  0  0  0  0  0  0  0
   -2.3419   -3.6531    2.2698 H   0  0  0  0  0  0  0  0  0  0  0  0
    0.9364   -5.2882    1.3028 H   0  0  0  0  0  0  0  0  0  0  0  0
    2.8384   -5.0143    3.1232 H   0  0  0  0  0  0  0  0  0  0  0  0
    2.1437   -3.2528    4.9568 H   0  0  0  0  0  0  0  0  0  0  0  0
   -0.0367   -3.5974   -0.4404 H   0  0  0  0  0  0  0  0  0  0  0  0
   -1.2728   -2.7782   -1.3530 H   0  0  0  0  0  0  0  0  0  0  0  0
    1.3714   -1.6816    1.1966 H   0  0  0  0  0  0  0  0  0  0  0  0
    3.1989   -0.1957    1.9306 H   0  0  0  0  0  0  0  0  0  0  0  0
    4.7138    1.7067    1.5008 H   0  0  0  0  0  0  0  0  0  0  0  0
    4.5997    2.9412   -0.6275 H   0  0  0  0  0  0  0  0  0  0  0  0
    3.1517    1.8578   -3.5896 H   0  0  0  0  0  0  0  0  0  0  0  0
    1.9612    2.9768   -2.8625 H   0  0  0  0  0  0  0  0  0  0  0  0
    3.6913    3.3172   -2.7544 H   0  0  0  0  0  0  0  0  0  0  0  0
    1.1026    0.7401   -3.0270 H   0  0  0  0  0  0  0  0  0  0  0  0
   -2.0199    1.3948    1.7421 H   0  0  0  0  0  0  0  0  0  0  0  0
   -2.3422    3.7867    1.4366 H   0  0  0  0  0  0  0  0  0  0  0  0
  1  2  1  0
  2  3  2  0
  3  4  1  0
  4  5  2  0
  5  6  1  0
  6  7  1  0
  7  8  2  0
  7  9  1  0
  9 10  1  0
 10 11  1  0
 11 12  2  0
 12 13  1  0
 13 14  2  0
 14 15  1  0
  9 16  1  0
 16 17  1  0
 17 18  2  0
 18 19  1  0
 19 20  2  0
 20 21  1  0
 21 22  2  0
 22 23  1  0
 23 24  1  0
 23 25  2  0
 25 26  1  0
 26 27  1  0
 27 28  2  0
  5 29  1  0
 29 30  2  0
 30  2  1  0
 15 11  1  0
 27 17  1  0
 25 19  1  0
  1 31  1  0
  1 32  1  0
  1 33  1  0
  3 34  1  0
  4 35  1  0
  6 36  1  0
 10 37  1  0
 10 38  1  0
 12 39  1  0
 13 40  1  0
 14 41  1  0
 16 42  1  0
 16 43  1  0
 18 44  1  0
 20 45  1  0
 21 46  1  0
 22 47  1  0
 24 48  1  0
 24 49  1  0
 24 50  1  0
 26 51  1  0
 29 52  1  0
 30 53  1  0
M  END
$$$$
