
     RDKit          3D

 49 51  0  0  0  0  0  0  0  0999 V2000
   -1.5602    2.2076    3.5572 O   0  0  0  0  0  0  0  0  0  0  0  0
   -1.5508    1.7845    2.4047 C   0  0  0  0  0  0  0  0  0  0  0  0
   -2.8519    1.4270    1.7060 C   0  0  0  0  0  0  0  0  0  0  0  0
   -2.8811   -0.0299    1.2354 C   0  0  0  0  0  0  0  0  0  0  0  0
   -2.0383   -0.2868    0.0506 N   0  0  0  0  0  0  0  0  0  0  0  0
   -2.5633    0.3854   -1.1569 C   0  0  0  0  0  0  0  0  0  0  0  0
   -2.0748   -0.2584   -2.4527 C   0  0  0  0  0  0  0  0  0  0  0  0
   -2.5417   -1.7084   -2.5622 C   0  0  0  0  0  0  0  0  0  0  0  0
   -2.7232   -2.3612   -1.1939 C   0  0  0  0  0  0  0  0  0  0  0  0
   -1.8057   -1.7290   -0.1508 C   0  0  0  0  0  0  0  0  0  0  0  0
   -0.4405    1.6049    1.6066 N   0  0  0  0  0  0  0  0  0  0  0  0
    0.9166    1.8624    1.9077 C   0  0  0  0  0  0  0  0  0  0  0  0
    1.3261    2.4170    3.1254 C   0  0  0  0  0  0  0  0  0  0  0  0
    2.6807    2.6521    3.3902 C   0  0  0  0  0  0  0  0  0  0  0  0
    3.6424    2.3397    2.4349 C   0  0  0  0  0  0  0  0  0  0  0  0
    5.4683    2.6653    2.7970 Br  0  0  0  0  0  0  0  0  0  0  0  0
    3.2670    1.7896    1.2141 C   0  0  0  0  0  0  0  0  0  0  0  0
    1.9097    1.5408    0.9578 C   0  0  0  0  0  0  0  0  0  0  0  0
    1.5438    0.9648   -0.3566 C   0  0  0  0  0  0  0  0  0  0  0  0
    0.6938    1.5370   -1.0338 O   0  0  0  0  0  0  0  0  0  0  0  0
    2.1804   -0.2837   -0.8540 C   0  0  0  0  0  0  0  0  0  0  0  0
    2.7140   -1.2430    0.0163 C   0  0  0  0  0  0  0  0  0  0  0  0
    3.2982   -2.4036   -0.4979 C   0  0  0  0  0  0  0  0  0  0  0  0
    3.3428   -2.6137   -1.8762 C   0  0  0  0  0  0  0  0  0  0  0  0
    2.7943   -1.6707   -2.7446 C   0  0  0  0  0  0  0  0  0  0  0  0
    2.2098   -0.5098   -2.2353 C   0  0  0  0  0  0  0  0  0  0  0  0
   -3.6609    1.5697    2.4332 H   0  0  0  0  0  0  0  0  0  0  0  0
   -3.0318    2.1410    0.8956 H   0  0  0  0  0  0  0  0  0  0  0  0
   -3.9175   -0.3287    1.0321 H   0  0  0  0  0  0  0  0  0  0  0  0
   -2.5325   -0.6494    2.0726 H   0  0  0  0  0  0  0  0  0  0  0  0
   -3.6612    0.3726   -1.1632 H   0  0  0  0  0  0  0  0  0  0  0  0
   -2.2539    1.4352   -1.1481 H   0  0  0  0  0  0  0  0  0  0  0  0
   -2.4311    0.3104   -3.3191 H   0  0  0  0  0  0  0  0  0  0  0  0
   -0.9795   -0.2236   -2.4893 H   0  0  0  0  0  0  0  0  0  0  0  0
   -1.8139   -2.2703   -3.1577 H   0  0  0  0  0  0  0  0  0  0  0  0
   -3.4900   -1.7592   -3.1094 H   0  0  0  0  0  0  0  0  0  0  0  0
   -3.7675   -2.2574   -0.8738 H   0  0  0  0  0  0  0  0  0  0  0  0
   -2.5267   -3.4371   -1.2702 H   0  0  0  0  0  0  0  0  0  0  0  0
   -0.7652   -1.8538   -0.4787 H   0  0  0  0  0  0  0  0  0  0  0  0
   -1.8771   -2.2863    0.7908 H   0  0  0  0  0  0  0  0  0  0  0  0
   -0.6315    1.2172    0.6770 H   0  0  0  0  0  0  0  0  0  0  0  0
    0.6115    2.6870    3.8974 H   0  0  0  0  0  0  0  0  0  0  0  0
    2.9656    3.0848    4.3462 H   0  0  0  0  0  0  0  0  0  0  0  0
    4.0206    1.5667    0.4625 H   0  0  0  0  0  0  0  0  0  0  0  0
    2.6710   -1.1148    1.0947 H   0  0  0  0  0  0  0  0  0  0  0  0
    3.7155   -3.1478    0.1767 H   0  0  0  0  0  0  0  0  0  0  0  0
    3.8003   -3.5169   -2.2754 H   0  0  0  0  0  0  0  0  0  0  0  0
    2.8207   -1.8387   -3.8184 H   0  0  0  0  0  0  0  0  0  0  0  0
    1.7787    0.2193   -2.9189 H   0  0  0  0  0  0  0  0  0  0  0  0
  1  2  2  0
  2  3  1  0
  3  4  1  0
  4  5  1  0
  5  6  1  0
  6  7  1  0
  7  8  1  0
  8  9  1  0
  9 10  1  0
  2 11  1  0
 11 12  1  0
 12 13  2  0
 13 14  1  0
 14 15  2  0
 15 16  1  0
 15 17  1  0
 17 18  2  0
 18 19  1  0
 19 20  2  0
 19 21  1  0
 21 22  2  0
 22 23  1  0
 23 24  2  0
 24 25  1  0
 25 26  2  0
 10  5  1  0
 18 12  1  0
 26 21  1  0
  3 27  1  0
  3 28  1  0
  4 29  1  0
  4 30  1  0
  6 31  1  0
  6 32  1  0
  7 33  1  0
  7 34  1  0
  8 35  1  0
  8 36  1  0
  9 37  1  0
  9 38  1  0
 10 39  1  0
 10 40  1  0
 11 41  1  0
 13 42  1  0
 14 43  1  0
 17 44  1  0
 22 45  1  0
 23 46  1  0
 24 47  1  0
 25 48  1  0
 26 49  1  0
M  END
$$$$
