
     RDKit          3D

 49 52  0  0  0  0  0  0  0  0999 V2000
    0.6271   -0.9772    2.9105 N   0  0  0  0  0  0  0  0  0  0  0  0
    0.0192   -1.0647    1.9223 C   0  0  0  0  0  0  0  0  0  0  0  0
   -0.7575   -1.2765    0.6935 C   0  0  0  0  0  0  0  0  0  0  0  0
    0.1625   -1.5345   -0.4962 C   0  0  0  0  0  0  0  0  0  0  0  0
    0.2486   -0.7978   -1.4781 O   0  0  0  0  0  0  0  0  0  0  0  0
    0.8611   -2.7355   -0.4280 N   0  0  0  0  0  0  0  0  0  0  0  0
    1.8146   -3.1185   -1.4476 C   0  0  0  0  0  0  0  0  0  0  0  0
    3.2183   -3.0143   -0.9191 C   0  0  0  0  0  0  0  0  0  0  0  0
    3.8653   -1.7705   -0.8869 C   0  0  0  0  0  0  0  0  0  0  0  0
    5.1671   -1.6639   -0.3982 C   0  0  0  0  0  0  0  0  0  0  0  0
    5.8338   -2.7960    0.0640 C   0  0  0  0  0  0  0  0  0  0  0  0
    5.1946   -4.0318    0.0536 C   0  0  0  0  0  0  0  0  0  0  0  0
    3.8898   -4.1430   -0.4307 C   0  0  0  0  0  0  0  0  0  0  0  0
   -1.7820   -0.2039    0.4173 C   0  0  0  0  0  0  0  0  0  0  0  0
   -3.0494   -0.6491    0.1526 N   0  0  0  0  0  0  0  0  0  0  0  0
   -3.9851    0.2804   -0.1137 C   0  0  0  0  0  0  0  0  0  0  0  0
   -5.2908   -0.1084   -0.3791 C   0  0  0  0  0  0  0  0  0  0  0  0
   -6.2890    0.8304   -0.6494 C   0  0  0  0  0  0  0  0  0  0  0  0
   -5.9737    2.1818   -0.6453 C   0  0  0  0  0  0  0  0  0  0  0  0
   -4.6637    2.5796   -0.3835 C   0  0  0  0  0  0  0  0  0  0  0  0
   -3.6653    1.6540   -0.1121 C   0  0  0  0  0  0  0  0  0  0  0  0
   -2.4203    2.0862    0.1623 N   0  0  0  0  0  0  0  0  0  0  0  0
   -1.4652    1.1626    0.4197 C   0  0  0  0  0  0  0  0  0  0  0  0
   -0.1526    1.5977    0.7114 N   0  0  0  0  0  0  0  0  0  0  0  0
   -0.1485    2.6477    1.7495 C   0  0  0  0  0  0  0  0  0  0  0  0
    0.0521    3.9614    1.0075 C   0  0  0  0  0  0  0  0  0  0  0  0
    0.9873    3.5492   -0.1105 C   0  0  0  0  0  0  0  0  0  0  0  0
    0.4699    2.1700   -0.5110 C   0  0  0  0  0  0  0  0  0  0  0  0
   -1.3193   -2.2124    0.8368 H   0  0  0  0  0  0  0  0  0  0  0  0
    0.9223   -3.2321    0.4541 H   0  0  0  0  0  0  0  0  0  0  0  0
    1.5869   -4.1510   -1.7303 H   0  0  0  0  0  0  0  0  0  0  0  0
    1.7044   -2.5100   -2.3514 H   0  0  0  0  0  0  0  0  0  0  0  0
    3.3540   -0.8813   -1.2511 H   0  0  0  0  0  0  0  0  0  0  0  0
    5.6605   -0.6982   -0.3751 H   0  0  0  0  0  0  0  0  0  0  0  0
    6.8520   -2.7123    0.4347 H   0  0  0  0  0  0  0  0  0  0  0  0
    5.7152   -4.9118    0.4174 H   0  0  0  0  0  0  0  0  0  0  0  0
    3.4052   -5.1149   -0.4277 H   0  0  0  0  0  0  0  0  0  0  0  0
   -5.5373   -1.1660   -0.3688 H   0  0  0  0  0  0  0  0  0  0  0  0
   -7.3084    0.5047   -0.8373 H   0  0  0  0  0  0  0  0  0  0  0  0
   -6.7394    2.9256   -0.8387 H   0  0  0  0  0  0  0  0  0  0  0  0
   -4.4116    3.6364   -0.3793 H   0  0  0  0  0  0  0  0  0  0  0  0
   -1.0253    2.6461    2.4040 H   0  0  0  0  0  0  0  0  0  0  0  0
    0.7223    2.4691    2.3924 H   0  0  0  0  0  0  0  0  0  0  0  0
   -0.8953    4.3311    0.5987 H   0  0  0  0  0  0  0  0  0  0  0  0
    0.4785    4.7404    1.6462 H   0  0  0  0  0  0  0  0  0  0  0  0
    2.0148    3.4734    0.2631 H   0  0  0  0  0  0  0  0  0  0  0  0
    0.9832    4.2521   -0.9492 H   0  0  0  0  0  0  0  0  0  0  0  0
   -0.2292    2.2624   -1.3540 H   0  0  0  0  0  0  0  0  0  0  0  0
    1.2984    1.5332   -0.8338 H   0  0  0  0  0  0  0  0  0  0  0  0
  1  2  3  0
  2  3  1  0
  3  4  1  0
  4  5  2  0
  4  6  1  0
  6  7  1  0
  7  8  1  0
  8  9  2  0
  9 10  1  0
 10 11  2  0
 11 12  1  0
 12 13  2  0
  3 14  1  0
 14 15  2  0
 15 16  1  0
 16 17  2  0
 17 18  1  0
 18 19  2  0
 19 20  1  0
 20 21  2  0
 21 22  1  0
 22 23  2  0
 23 24  1  0
 24 25  1  0
 25 26  1  0
 26 27  1  0
 27 28  1  0
 13  8  1  0
 23 14  1  0
 28 24  1  0
 21 16  1  0
  3 29  1  0
  6 30  1  0
  7 31  1  0
  7 32  1  0
  9 33  1  0
 10 34  1  0
 11 35  1  0
 12 36  1  0
 13 37  1  0
 17 38  1  0
 18 39  1  0
 19 40  1  0
 20 41  1  0
 25 42  1  0
 25 43  1  0
 26 44  1  0
 26 45  1  0
 27 46  1  0
 27 47  1  0
 28 48  1  0
 28 49  1  0
M  END
$$$$
