
     RDKit          3D

 31 31  0  0  0  0  0  0  0  0999 V2000
    4.7831   -0.7879   -1.5076 N   0  0  0  0  0  0  0  0  0  0  0  0
    3.6325   -0.9798   -0.8069 C   0  0  0  0  0  0  0  0  0  0  0  0
    3.0768   -2.5248   -0.5315 S   0  0  0  0  0  0  0  0  0  0  0  0
    3.0550    0.1920   -0.3840 N   0  0  0  0  0  0  0  0  0  0  0  0
    1.7594    0.1990    0.1700 N   0  0  0  0  0  0  0  0  0  0  0  0
    0.9426    1.2544   -0.1756 C   0  0  0  0  0  0  0  0  0  0  0  0
    1.3607    2.2193   -0.8181 O   0  0  0  0  0  0  0  0  0  0  0  0
   -0.5226    1.1449    0.2339 C   0  0  0  0  0  0  0  0  0  0  0  0
   -0.7247    0.6509    1.6737 C   0  0  0  0  0  0  0  0  0  0  0  0
   -2.2040    0.5952    2.0435 C   0  0  0  0  0  0  0  0  0  0  0  0
   -3.0038   -0.2306    1.0420 C   0  0  0  0  0  0  0  0  0  0  0  0
   -2.8374    0.2927   -0.3838 C   0  0  0  0  0  0  0  0  0  0  0  0
   -1.3684    0.3988   -0.8143 C   0  0  0  0  0  0  0  0  0  0  0  0
   -0.8676   -0.9648   -1.2426 C   0  0  0  0  0  0  0  0  0  0  0  0
   -1.0388   -1.4658   -2.3417 O   0  0  0  0  0  0  0  0  0  0  0  0
   -0.2427   -1.6593   -0.2769 O   0  0  0  0  0  0  0  0  0  0  0  0
    5.3200   -1.6152   -1.7422 H   0  0  0  0  0  0  0  0  0  0  0  0
    5.3153    0.0619   -1.3754 H   0  0  0  0  0  0  0  0  0  0  0  0
    3.2852    1.0500   -0.8875 H   0  0  0  0  0  0  0  0  0  0  0  0
    1.3499   -0.7158    0.3713 H   0  0  0  0  0  0  0  0  0  0  0  0
   -0.8828    2.1861    0.2360 H   0  0  0  0  0  0  0  0  0  0  0  0
   -0.2016    1.3200    2.3683 H   0  0  0  0  0  0  0  0  0  0  0  0
   -0.2851   -0.3400    1.8281 H   0  0  0  0  0  0  0  0  0  0  0  0
   -2.6093    1.6138    2.0838 H   0  0  0  0  0  0  0  0  0  0  0  0
   -2.3163    0.1688    3.0468 H   0  0  0  0  0  0  0  0  0  0  0  0
   -2.6873   -1.2791    1.0931 H   0  0  0  0  0  0  0  0  0  0  0  0
   -4.0648   -0.2080    1.3160 H   0  0  0  0  0  0  0  0  0  0  0  0
   -3.2957    1.2882   -0.4471 H   0  0  0  0  0  0  0  0  0  0  0  0
   -3.3967   -0.3531   -1.0716 H   0  0  0  0  0  0  0  0  0  0  0  0
   -1.3272    0.9983   -1.7358 H   0  0  0  0  0  0  0  0  0  0  0  0
   -0.0036   -2.5101   -0.7140 H   0  0  0  0  0  0  0  0  0  0  0  0
  1  2  1  0
  2  3  2  0
  2  4  1  0
  4  5  1  0
  5  6  1  0
  6  7  2  0
  6  8  1  0
  8  9  1  0
  9 10  1  0
 10 11  1  0
 11 12  1  0
 12 13  1  0
 13 14  1  0
 14 15  2  0
 14 16  1  0
 13  8  1  0
  1 17  1  0
  1 18  1  0
  4 19  1  0
  5 20  1  0
  8 21  1  0
  9 22  1  0
  9 23  1  0
 10 24  1  0
 10 25  1  0
 11 26  1  0
 11 27  1  0
 12 28  1  0
 12 29  1  0
 13 30  1  0
 16 31  1  0
M  END
$$$$
