
     RDKit          3D

 57 60  0  0  0  0  0  0  0  0999 V2000
   -1.8368    6.3844   -0.3108 C   0  0  0  0  0  0  0  0  0  0  0  0
   -1.4489    4.9469    0.0311 C   0  0  0  0  0  0  0  0  0  0  0  0
   -0.6969    4.2855   -1.1444 C   0  0  0  0  0  0  0  0  0  0  0  0
   -0.1980    2.8761   -0.7820 C   0  0  0  0  0  0  0  0  0  0  0  0
   -1.2467    2.0705   -0.0722 C   0  0  0  0  0  0  0  0  0  0  0  0
   -2.3706    2.6659    0.4729 C   0  0  0  0  0  0  0  0  0  0  0  0
   -3.4151    1.5436    1.2048 S   0  0  0  0  0  0  0  0  0  0  0  0
   -2.3805    0.2444    0.8231 C   0  0  0  0  0  0  0  0  0  0  0  0
   -2.7120   -1.0054    1.1769 N   0  0  0  0  0  0  0  0  0  0  0  0
   -1.8021   -1.9209    0.8251 C   0  0  0  0  0  0  0  0  0  0  0  0
   -2.1211   -3.3793    1.1553 C   0  0  0  0  0  0  0  0  0  0  0  0
   -0.8996   -4.2965    0.9435 C   0  0  0  0  0  0  0  0  0  0  0  0
   -2.5602   -3.5001    2.6265 C   0  0  0  0  0  0  0  0  0  0  0  0
   -3.2597   -3.8545    0.2379 C   0  0  0  0  0  0  0  0  0  0  0  0
   -0.6507   -1.6588    0.1758 N   0  0  0  0  0  0  0  0  0  0  0  0
   -0.3321   -0.3886   -0.1697 C   0  0  0  0  0  0  0  0  0  0  0  0
    0.9010   -0.1371   -0.8085 N   0  0  0  0  0  0  0  0  0  0  0  0
    1.1890   -1.1453   -1.8602 C   0  0  0  0  0  0  0  0  0  0  0  0
    2.2850   -2.1449   -1.4577 C   0  0  0  0  0  0  0  0  0  0  0  0
    3.5259   -1.4620   -1.0647 N   0  0  0  0  0  0  0  0  0  0  0  0
    4.7510   -2.0494   -1.3694 C   0  0  0  0  0  0  0  0  0  0  0  0
    4.8093   -3.1624   -1.8950 O   0  0  0  0  0  0  0  0  0  0  0  0
    5.9969   -1.2584   -0.9897 C   0  0  0  0  0  0  0  0  0  0  0  0
    7.4066   -1.7708   -1.9429 Cl  0  0  0  0  0  0  0  0  0  0  0  0
    3.3561   -0.1828   -0.3652 C   0  0  0  0  0  0  0  0  0  0  0  0
    1.9477   -0.0151    0.2330 C   0  0  0  0  0  0  0  0  0  0  0  0
   -1.2355    0.6428    0.1529 C   0  0  0  0  0  0  0  0  0  0  0  0
   -2.7004    4.1264    0.4103 C   0  0  0  0  0  0  0  0  0  0  0  0
   -0.9459    6.9874   -0.5160 H   0  0  0  0  0  0  0  0  0  0  0  0
   -2.4832    6.4238   -1.1955 H   0  0  0  0  0  0  0  0  0  0  0  0
   -2.3740    6.8518    0.5222 H   0  0  0  0  0  0  0  0  0  0  0  0
   -0.7717    4.9740    0.8972 H   0  0  0  0  0  0  0  0  0  0  0  0
    0.1595    4.9005   -1.4460 H   0  0  0  0  0  0  0  0  0  0  0  0
   -1.3681    4.2204   -2.0110 H   0  0  0  0  0  0  0  0  0  0  0  0
    0.1206    2.3693   -1.6993 H   0  0  0  0  0  0  0  0  0  0  0  0
    0.6781    2.9633   -0.1283 H   0  0  0  0  0  0  0  0  0  0  0  0
   -0.0512   -3.9809    1.5616 H   0  0  0  0  0  0  0  0  0  0  0  0
   -1.1346   -5.3335    1.2081 H   0  0  0  0  0  0  0  0  0  0  0  0
   -0.5678   -4.2939   -0.1015 H   0  0  0  0  0  0  0  0  0  0  0  0
   -1.7821   -3.1293    3.3036 H   0  0  0  0  0  0  0  0  0  0  0  0
   -2.7667   -4.5427    2.8927 H   0  0  0  0  0  0  0  0  0  0  0  0
   -3.4726   -2.9273    2.8294 H   0  0  0  0  0  0  0  0  0  0  0  0
   -4.1697   -3.2603    0.3816 H   0  0  0  0  0  0  0  0  0  0  0  0
   -2.9791   -3.7719   -0.8183 H   0  0  0  0  0  0  0  0  0  0  0  0
   -3.5162   -4.9013    0.4347 H   0  0  0  0  0  0  0  0  0  0  0  0
    0.2906   -1.6811   -2.1879 H   0  0  0  0  0  0  0  0  0  0  0  0
    1.5386   -0.5905   -2.7386 H   0  0  0  0  0  0  0  0  0  0  0  0
    2.4766   -2.8336   -2.2890 H   0  0  0  0  0  0  0  0  0  0  0  0
    1.9650   -2.7447   -0.5964 H   0  0  0  0  0  0  0  0  0  0  0  0
    5.8585   -0.1915   -1.1865 H   0  0  0  0  0  0  0  0  0  0  0  0
    6.2192   -1.4204    0.0695 H   0  0  0  0  0  0  0  0  0  0  0  0
    4.1059   -0.1029    0.4274 H   0  0  0  0  0  0  0  0  0  0  0  0
    3.5502    0.6086   -1.0971 H   0  0  0  0  0  0  0  0  0  0  0  0
    1.8190   -0.7728    1.0205 H   0  0  0  0  0  0  0  0  0  0  0  0
    1.8777    0.9705    0.7100 H   0  0  0  0  0  0  0  0  0  0  0  0
   -3.0900    4.4785    1.3728 H   0  0  0  0  0  0  0  0  0  0  0  0
   -3.4880    4.2762   -0.3391 H   0  0  0  0  0  0  0  0  0  0  0  0
  1  2  1  0
  2  3  1  0
  3  4  1  0
  4  5  1  0
  5  6  2  0
  6  7  1  0
  7  8  1  0
  8  9  2  0
  9 10  1  0
 10 11  1  0
 11 12  1  0
 11 13  1  0
 11 14  1  0
 10 15  2  0
 15 16  1  0
 16 17  1  0
 17 18  1  0
 18 19  1  0
 19 20  1  0
 20 21  1  0
 21 22  2  0
 21 23  1  0
 23 24  1  0
 20 25  1  0
 25 26  1  0
 16 27  2  0
  6 28  1  0
 28  2  1  0
 27  5  1  0
 27  8  1  0
 26 17  1  0
  1 29  1  0
  1 30  1  0
  1 31  1  0
  2 32  1  0
  3 33  1  0
  3 34  1  0
  4 35  1  0
  4 36  1  0
 12 37  1  0
 12 38  1  0
 12 39  1  0
 13 40  1  0
 13 41  1  0
 13 42  1  0
 14 43  1  0
 14 44  1  0
 14 45  1  0
 18 46  1  0
 18 47  1  0
 19 48  1  0
 19 49  1  0
 23 50  1  0
 23 51  1  0
 25 52  1  0
 25 53  1  0
 26 54  1  0
 26 55  1  0
 28 56  1  0
 28 57  1  0
M  END
$$$$
