
     RDKit          3D

 69 71  0  0  0  0  0  0  0  0999 V2000
    6.9642    4.4421   -0.8756 C   0  0  0  0  0  0  0  0  0  0  0  0
    7.9459    3.4787   -0.2273 C   0  0  0  0  0  0  0  0  0  0  0  0
    7.3392    2.6581    0.9142 C   0  0  0  0  0  0  0  0  0  0  0  0
    6.1393    1.7824    0.5394 C   0  0  0  0  0  0  0  0  0  0  0  0
    6.4546    0.7571   -0.5518 C   0  0  0  0  0  0  0  0  0  0  0  0
    5.3438   -0.2811   -0.7473 C   0  0  0  0  0  0  0  0  0  0  0  0
    4.0132    0.3291   -1.1958 C   0  0  0  0  0  0  0  0  0  0  0  0
    2.9844   -0.7175   -1.6374 C   0  0  0  0  0  0  0  0  0  0  0  0
    2.5437   -1.6558   -0.5083 C   0  0  0  0  0  0  0  0  0  0  0  0
    1.4890   -2.6562   -0.9765 C   0  0  0  0  0  0  0  0  0  0  0  0
    0.2852   -1.9778   -1.3800 O   0  0  0  0  0  0  0  0  0  0  0  0
   -0.6601   -1.8086   -0.4194 C   0  0  0  0  0  0  0  0  0  0  0  0
   -0.5598   -2.1406    0.7563 O   0  0  0  0  0  0  0  0  0  0  0  0
   -1.8818   -1.0989   -0.9874 C   0  0  0  0  0  0  0  0  0  0  0  0
   -3.1279   -1.5613   -0.3297 N   0  0  0  0  0  0  0  0  0  0  0  0
   -3.4530   -1.3426    0.9722 C   0  0  0  0  0  0  0  0  0  0  0  0
   -2.7269   -0.4509    1.9732 C   0  0  0  0  0  0  0  0  0  0  0  0
   -3.6142    0.3208    2.7823 O   0  0  0  0  0  0  0  0  0  0  0  0
   -4.3072    1.3432    2.1992 C   0  0  0  0  0  0  0  0  0  0  0  0
   -5.3552    1.8471    2.9777 C   0  0  0  0  0  0  0  0  0  0  0  0
   -6.1616    2.8844    2.5038 C   0  0  0  0  0  0  0  0  0  0  0  0
   -5.9126    3.4292    1.2486 C   0  0  0  0  0  0  0  0  0  0  0  0
   -6.8991    4.7042    0.6533 Cl  0  0  0  0  0  0  0  0  0  0  0  0
   -4.8607    2.9476    0.4723 C   0  0  0  0  0  0  0  0  0  0  0  0
   -4.0545    1.9062    0.9479 C   0  0  0  0  0  0  0  0  0  0  0  0
   -4.5615   -2.0801    1.2281 N   0  0  0  0  0  4  0  0  0  0  0  0
   -5.2039   -2.1869    2.5387 C   0  0  0  0  0  0  0  0  0  0  0  0
   -5.0198   -2.6851    0.0661 C   0  0  0  0  0  0  0  0  0  0  0  0
   -6.1368   -3.4822   -0.1808 C   0  0  0  0  0  0  0  0  0  0  0  0
   -6.2869   -3.9466   -1.4940 C   0  0  0  0  0  0  0  0  0  0  0  0
   -5.3590   -3.6242   -2.5016 C   0  0  0  0  0  0  0  0  0  0  0  0
   -4.2391   -2.8218   -2.2428 C   0  0  0  0  0  0  0  0  0  0  0  0
   -4.0994   -2.3597   -0.9337 C   0  0  0  0  0  0  0  0  0  0  0  0
    7.4847    5.0771   -1.6005 H   0  0  0  0  0  0  0  0  0  0  0  0
    6.4996    5.0930   -0.1283 H   0  0  0  0  0  0  0  0  0  0  0  0
    6.1745    3.9083   -1.4117 H   0  0  0  0  0  0  0  0  0  0  0  0
    8.7860    4.0570    0.1754 H   0  0  0  0  0  0  0  0  0  0  0  0
    8.3668    2.8158   -0.9915 H   0  0  0  0  0  0  0  0  0  0  0  0
    7.0319    3.3401    1.7177 H   0  0  0  0  0  0  0  0  0  0  0  0
    8.1259    2.0198    1.3373 H   0  0  0  0  0  0  0  0  0  0  0  0
    5.3059    2.4197    0.2285 H   0  0  0  0  0  0  0  0  0  0  0  0
    5.8077    1.2565    1.4426 H   0  0  0  0  0  0  0  0  0  0  0  0
    6.6389    1.2663   -1.5049 H   0  0  0  0  0  0  0  0  0  0  0  0
    7.3780    0.2242   -0.2931 H   0  0  0  0  0  0  0  0  0  0  0  0
    5.2061   -0.8348    0.1883 H   0  0  0  0  0  0  0  0  0  0  0  0
    5.6826   -1.0047   -1.4987 H   0  0  0  0  0  0  0  0  0  0  0  0
    3.5846    0.9332   -0.3879 H   0  0  0  0  0  0  0  0  0  0  0  0
    4.1945    1.0071   -2.0392 H   0  0  0  0  0  0  0  0  0  0  0  0
    3.3966   -1.3068   -2.4660 H   0  0  0  0  0  0  0  0  0  0  0  0
    2.1096   -0.1872   -2.0333 H   0  0  0  0  0  0  0  0  0  0  0  0
    2.1427   -1.0558    0.3177 H   0  0  0  0  0  0  0  0  0  0  0  0
    3.4045   -2.2160   -0.1276 H   0  0  0  0  0  0  0  0  0  0  0  0
    1.8520   -3.2125   -1.8474 H   0  0  0  0  0  0  0  0  0  0  0  0
    1.2791   -3.3948   -0.1944 H   0  0  0  0  0  0  0  0  0  0  0  0
   -1.7762   -0.0217   -0.8381 H   0  0  0  0  0  0  0  0  0  0  0  0
   -1.9475   -1.2892   -2.0611 H   0  0  0  0  0  0  0  0  0  0  0  0
   -1.9916    0.1684    1.4557 H   0  0  0  0  0  0  0  0  0  0  0  0
   -2.1971   -1.1496    2.6270 H   0  0  0  0  0  0  0  0  0  0  0  0
   -5.5504    1.4350    3.9659 H   0  0  0  0  0  0  0  0  0  0  0  0
   -6.9736    3.2640    3.1196 H   0  0  0  0  0  0  0  0  0  0  0  0
   -4.6589    3.3904   -0.5007 H   0  0  0  0  0  0  0  0  0  0  0  0
   -3.2330    1.5898    0.3184 H   0  0  0  0  0  0  0  0  0  0  0  0
   -4.4561   -2.1199    3.3341 H   0  0  0  0  0  0  0  0  0  0  0  0
   -5.7091   -3.1515    2.6333 H   0  0  0  0  0  0  0  0  0  0  0  0
   -5.9360   -1.3811    2.6403 H   0  0  0  0  0  0  0  0  0  0  0  0
   -6.8508   -3.7310    0.5956 H   0  0  0  0  0  0  0  0  0  0  0  0
   -7.1436   -4.5742   -1.7440 H   0  0  0  0  0  0  0  0  0  0  0  0
   -5.5180   -4.0093   -3.5104 H   0  0  0  0  0  0  0  0  0  0  0  0
   -3.5318   -2.5778   -3.0265 H   0  0  0  0  0  0  0  0  0  0  0  0
  1  2  1  0
  2  3  1  0
  3  4  1  0
  4  5  1  0
  5  6  1  0
  6  7  1  0
  7  8  1  0
  8  9  1  0
  9 10  1  0
 10 11  1  0
 11 12  1  0
 12 13  2  0
 12 14  1  0
 14 15  1  0
 15 16  1  0
 16 17  1  0
 17 18  1  0
 18 19  1  0
 19 20  2  0
 20 21  1  0
 21 22  2  0
 22 23  1  0
 22 24  1  0
 24 25  2  0
 16 26  2  0
 26 27  1  0
 26 28  1  0
 28 29  2  0
 29 30  1  0
 30 31  2  0
 31 32  1  0
 32 33  2  0
 33 15  1  0
 25 19  1  0
 33 28  1  0
  1 34  1  0
  1 35  1  0
  1 36  1  0
  2 37  1  0
  2 38  1  0
  3 39  1  0
  3 40  1  0
  4 41  1  0
  4 42  1  0
  5 43  1  0
  5 44  1  0
  6 45  1  0
  6 46  1  0
  7 47  1  0
  7 48  1  0
  8 49  1  0
  8 50  1  0
  9 51  1  0
  9 52  1  0
 10 53  1  0
 10 54  1  0
 14 55  1  0
 14 56  1  0
 17 57  1  0
 17 58  1  0
 20 59  1  0
 21 60  1  0
 24 61  1  0
 25 62  1  0
 27 63  1  0
 27 64  1  0
 27 65  1  0
 29 66  1  0
 30 67  1  0
 31 68  1  0
 32 69  1  0
M  CHG  1  26   1
M  END
$$$$
