
     RDKit          3D

 45 47  0  0  0  0  0  0  0  0999 V2000
    1.9568   -0.2306   -3.5382 C   0  0  0  0  0  0  0  0  0  0  0  0
    2.0683    1.0483   -2.9074 O   0  0  0  0  0  0  0  0  0  0  0  0
    3.1579    1.0740   -2.0654 C   0  0  0  0  0  0  0  0  0  0  0  0
    4.4527    1.0504   -2.5915 C   0  0  0  0  0  0  0  0  0  0  0  0
    5.5479    1.0938   -1.7302 C   0  0  0  0  0  0  0  0  0  0  0  0
    5.3424    1.1784   -0.3527 C   0  0  0  0  0  0  0  0  0  0  0  0
    4.0433    1.2162    0.1716 C   0  0  0  0  0  0  0  0  0  0  0  0
    2.9376    1.1692   -0.6795 C   0  0  0  0  0  0  0  0  0  0  0  0
    1.5982    1.2342   -0.2375 N   0  0  0  0  0  0  0  0  0  0  0  0
    1.1285    1.1663    1.0612 C   0  0  0  0  0  0  0  0  0  0  0  0
    1.8128    0.9021    2.0441 O   0  0  0  0  0  0  0  0  0  0  0  0
   -0.3689    1.4934    1.1802 C   0  0  0  0  0  0  0  0  0  0  0  0
   -0.7115    1.9584    2.6126 C   0  0  0  0  0  0  0  0  0  0  0  0
   -2.1084    1.4218    2.8657 C   0  0  0  0  0  0  0  0  0  0  0  0
   -2.0697    0.0808    2.1523 C   0  0  0  0  0  0  0  0  0  0  0  0
   -1.3650    0.4037    0.8945 N   0  0  0  0  0  0  0  0  0  0  0  0
   -0.9072   -0.8667   -0.1067 S   0  0  0  0  0  6  0  0  0  0  0  0
   -0.4383   -0.2811   -1.3446 O   0  0  0  0  0  0  0  0  0  0  0  0
   -0.0876   -1.7822    0.6535 O   0  0  0  0  0  0  0  0  0  0  0  0
   -2.4532   -1.6692   -0.4628 C   0  0  0  0  0  0  0  0  0  0  0  0
   -3.3215   -1.0926   -1.4001 C   0  0  0  0  0  0  0  0  0  0  0  0
   -4.5272   -1.7291   -1.7035 C   0  0  0  0  0  0  0  0  0  0  0  0
   -4.8519   -2.9335   -1.0758 C   0  0  0  0  0  0  0  0  0  0  0  0
   -6.3381   -3.7157   -1.4541 Cl  0  0  0  0  0  0  0  0  0  0  0  0
   -3.9795   -3.5119   -0.1481 C   0  0  0  0  0  0  0  0  0  0  0  0
   -2.7706   -2.8822    0.1581 C   0  0  0  0  0  0  0  0  0  0  0  0
    2.1411   -1.0550   -2.8332 H   0  0  0  0  0  0  0  0  0  0  0  0
    2.6448   -0.2973   -4.3888 H   0  0  0  0  0  0  0  0  0  0  0  0
    0.9351   -0.3293   -3.9212 H   0  0  0  0  0  0  0  0  0  0  0  0
    4.6093    1.0111   -3.6642 H   0  0  0  0  0  0  0  0  0  0  0  0
    6.5611    1.0716   -2.1282 H   0  0  0  0  0  0  0  0  0  0  0  0
    6.1953    1.2136    0.3226 H   0  0  0  0  0  0  0  0  0  0  0  0
    3.9324    1.2840    1.2478 H   0  0  0  0  0  0  0  0  0  0  0  0
    0.9109    1.1766   -0.9932 H   0  0  0  0  0  0  0  0  0  0  0  0
   -0.5948    2.3159    0.4877 H   0  0  0  0  0  0  0  0  0  0  0  0
   -0.6649    3.0484    2.7076 H   0  0  0  0  0  0  0  0  0  0  0  0
   -0.0295    1.5390    3.3609 H   0  0  0  0  0  0  0  0  0  0  0  0
   -2.8570    2.0818    2.4082 H   0  0  0  0  0  0  0  0  0  0  0  0
   -2.3384    1.3221    3.9319 H   0  0  0  0  0  0  0  0  0  0  0  0
   -3.0880   -0.2796    1.9659 H   0  0  0  0  0  0  0  0  0  0  0  0
   -1.5126   -0.6591    2.7346 H   0  0  0  0  0  0  0  0  0  0  0  0
   -3.0629   -0.1571   -1.8942 H   0  0  0  0  0  0  0  0  0  0  0  0
   -5.2074   -1.2878   -2.4316 H   0  0  0  0  0  0  0  0  0  0  0  0
   -4.2346   -4.4544    0.3316 H   0  0  0  0  0  0  0  0  0  0  0  0
   -2.0877   -3.3408    0.8729 H   0  0  0  0  0  0  0  0  0  0  0  0
  1  2  1  0
  2  3  1  0
  3  4  2  0
  4  5  1  0
  5  6  2  0
  6  7  1  0
  7  8  2  0
  8  9  1  0
  9 10  1  0
 10 11  2  0
 10 12  1  0
 12 13  1  0
 13 14  1  0
 14 15  1  0
 15 16  1  0
 16 17  1  0
 17 18  2  0
 17 19  2  0
 17 20  1  0
 20 21  2  0
 21 22  1  0
 22 23  2  0
 23 24  1  0
 23 25  1  0
 25 26  2  0
  8  3  1  0
 16 12  1  0
 26 20  1  0
  1 27  1  0
  1 28  1  0
  1 29  1  0
  4 30  1  0
  5 31  1  0
  6 32  1  0
  7 33  1  0
  9 34  1  0
 12 35  1  0
 13 36  1  0
 13 37  1  0
 14 38  1  0
 14 39  1  0
 15 40  1  0
 15 41  1  0
 21 42  1  0
 22 43  1  0
 25 44  1  0
 26 45  1  0
M  END
$$$$
