
     RDKit          3D

 52 55  0  0  0  0  0  0  0  0999 V2000
    7.7952   -0.8784    0.5912 C   0  0  0  0  0  0  0  0  0  0  0  0
    6.9929   -1.0699    1.8643 C   0  0  0  0  0  0  0  0  0  0  0  0
    5.5955   -0.8829    1.5967 O   0  0  0  0  0  0  0  0  0  0  0  0
    4.9085   -1.9884    1.1863 C   0  0  0  0  0  0  0  0  0  0  0  0
    5.4242   -3.0914    1.0422 O   0  0  0  0  0  0  0  0  0  0  0  0
    3.5144   -1.6504    0.9198 C   0  0  0  0  0  0  0  0  0  0  0  0
    2.5837   -2.8144    0.0638 S   0  0  0  0  0  0  0  0  0  0  0  0
    1.2120   -1.8197    0.0330 C   0  0  0  0  0  0  0  0  0  0  0  0
    0.0790   -2.2280   -0.5773 N   0  0  0  0  0  0  0  0  0  0  0  0
   -0.9136   -1.3861   -0.5727 C   0  0  0  0  0  0  0  0  0  0  0  0
   -2.2230   -1.7382   -1.2458 C   0  0  0  0  0  0  0  0  0  0  0  0
   -2.4232   -3.2529   -2.0664 S   0  0  0  0  0  0  0  0  0  0  0  0
   -1.0138   -3.3267   -3.2120 C   0  0  0  0  0  0  0  0  0  0  0  0
   -0.8720   -2.1108   -4.0990 C   0  0  0  0  0  0  0  0  0  0  0  0
   -1.2957   -0.9805   -3.9202 O   0  0  0  0  0  0  0  0  0  0  0  0
   -0.1295   -2.3764   -5.1977 O   0  0  0  0  0  0  0  0  0  0  0  0
   -3.2483   -0.8765   -1.1799 C   0  0  0  0  0  0  0  0  0  0  0  0
   -3.1286    0.3969   -0.5126 C   0  0  0  0  0  0  0  0  0  0  0  0
   -4.2837    1.3462   -0.5300 C   0  0  0  0  0  0  0  0  0  0  0  0
   -4.9871    1.4562   -1.5344 O   0  0  0  0  0  0  0  0  0  0  0  0
   -4.5935    2.1935    0.6498 C   0  0  0  0  0  0  0  0  0  0  0  0
   -4.3106    1.7705    1.9569 C   0  0  0  0  0  0  0  0  0  0  0  0
   -4.5991    2.6038    3.0412 C   0  0  0  0  0  0  0  0  0  0  0  0
   -5.1824    3.8525    2.8297 C   0  0  0  0  0  0  0  0  0  0  0  0
   -5.4955    4.2667    1.5358 C   0  0  0  0  0  0  0  0  0  0  0  0
   -5.2158    3.4351    0.4544 C   0  0  0  0  0  0  0  0  0  0  0  0
   -5.5804    3.9019   -0.7806 O   0  0  0  0  0  0  0  0  0  0  0  0
   -1.9526    0.7397    0.0318 C   0  0  0  0  0  0  0  0  0  0  0  0
   -0.8514   -0.1174    0.0389 N   0  0  0  0  0  0  0  0  0  0  0  0
    0.3211    0.3263    0.6832 C   0  0  0  0  0  0  0  0  0  0  0  0
    0.4202    1.4272    1.2231 O   0  0  0  0  0  0  0  0  0  0  0  0
    1.4247   -0.6234    0.6693 C   0  0  0  0  0  0  0  0  0  0  0  0
    2.7540   -0.5225    1.2370 C   0  0  0  0  0  0  0  0  0  0  0  0
    3.2413    0.6469    2.0399 C   0  0  0  0  0  0  0  0  0  0  0  0
    7.5203   -1.6236   -0.1621 H   0  0  0  0  0  0  0  0  0  0  0  0
    7.5939    0.1051    0.1543 H   0  0  0  0  0  0  0  0  0  0  0  0
    8.8667   -0.9626    0.7917 H   0  0  0  0  0  0  0  0  0  0  0  0
    7.1881   -2.0474    2.3200 H   0  0  0  0  0  0  0  0  0  0  0  0
    7.2819   -0.3107    2.5988 H   0  0  0  0  0  0  0  0  0  0  0  0
   -1.1958   -4.1926   -3.8571 H   0  0  0  0  0  0  0  0  0  0  0  0
   -0.0742   -3.5007   -2.6853 H   0  0  0  0  0  0  0  0  0  0  0  0
   -0.0997   -1.5213   -5.6784 H   0  0  0  0  0  0  0  0  0  0  0  0
   -4.2006   -1.0981   -1.6571 H   0  0  0  0  0  0  0  0  0  0  0  0
   -3.8783    0.7940    2.1576 H   0  0  0  0  0  0  0  0  0  0  0  0
   -4.3725    2.2780    4.0542 H   0  0  0  0  0  0  0  0  0  0  0  0
   -5.4046    4.5012    3.6737 H   0  0  0  0  0  0  0  0  0  0  0  0
   -5.9650    5.2324    1.3689 H   0  0  0  0  0  0  0  0  0  0  0  0
   -5.5362    3.1514   -1.4149 H   0  0  0  0  0  0  0  0  0  0  0  0
   -1.8010    1.7136    0.4934 H   0  0  0  0  0  0  0  0  0  0  0  0
    3.8253    1.3230    1.4073 H   0  0  0  0  0  0  0  0  0  0  0  0
    2.4217    1.2140    2.4870 H   0  0  0  0  0  0  0  0  0  0  0  0
    3.8630    0.3158    2.8782 H   0  0  0  0  0  0  0  0  0  0  0  0
  1  2  1  0
  2  3  1  0
  3  4  1  0
  4  5  2  0
  4  6  1  0
  6  7  1  0
  7  8  1  0
  8  9  1  0
  9 10  2  0
 10 11  1  0
 11 12  1  0
 12 13  1  0
 13 14  1  0
 14 15  2  0
 14 16  1  0
 11 17  2  0
 17 18  1  0
 18 19  1  0
 19 20  2  0
 19 21  1  0
 21 22  2  0
 22 23  1  0
 23 24  2  0
 24 25  1  0
 25 26  2  0
 26 27  1  0
 18 28  2  0
 28 29  1  0
 29 30  1  0
 30 31  2  0
 30 32  1  0
 32 33  1  0
 33 34  1  0
 33  6  2  0
 32  8  2  0
 29 10  1  0
 26 21  1  0
  1 35  1  0
  1 36  1  0
  1 37  1  0
  2 38  1  0
  2 39  1  0
 13 40  1  0
 13 41  1  0
 16 42  1  0
 17 43  1  0
 22 44  1  0
 23 45  1  0
 24 46  1  0
 25 47  1  0
 27 48  1  0
 28 49  1  0
 34 50  1  0
 34 51  1  0
 34 52  1  0
M  END
$$$$
