
     RDKit          3D

 37 39  0  0  0  0  0  0  0  0999 V2000
   -1.8206    1.2073   -3.2256 O   0  0  0  0  0  0  0  0  0  0  0  0
   -1.2541    1.9523   -2.4456 C   0  0  0  0  0  0  0  0  0  0  0  0
   -1.2294    3.2821   -2.6742 O   0  0  0  0  0  0  0  0  0  0  0  0
   -0.5115    1.5889   -1.1925 C   0  0  0  0  0  0  0  0  0  0  0  0
   -0.7102    0.1101   -0.7989 C   0  0  0  0  0  0  0  0  0  0  0  0
   -1.9650   -0.0161    0.0757 C   0  0  0  0  0  0  0  0  0  0  0  0
   -3.2447    0.0519   -0.4989 C   0  0  0  0  0  0  0  0  0  0  0  0
   -4.3902    0.0067    0.2976 C   0  0  0  0  0  0  0  0  0  0  0  0
   -4.2753   -0.1099    1.6795 C   0  0  0  0  0  0  0  0  0  0  0  0
   -3.0156   -0.2051    2.2660 C   0  0  0  0  0  0  0  0  0  0  0  0
   -1.8634   -0.1804    1.4693 C   0  0  0  0  0  0  0  0  0  0  0  0
   -0.5037   -0.3455    2.0864 C   0  0  0  0  0  0  0  0  0  0  0  0
    0.3800   -1.1245    1.1184 C   0  0  0  0  0  0  0  0  0  0  0  0
    0.5729   -0.3391   -0.1292 N   0  0  0  0  0  0  0  0  0  0  0  0
    1.6883   -1.0447   -1.2259 S   0  0  0  0  0  6  0  0  0  0  0  0
    1.3848   -2.4560   -1.3127 O   0  0  0  0  0  0  0  0  0  0  0  0
    1.7626   -0.1972   -2.3961 O   0  0  0  0  0  0  0  0  0  0  0  0
    3.2974   -0.9015   -0.4769 C   0  0  0  0  0  0  0  0  0  0  0  0
    3.8128   -0.0015    0.4378 C   0  0  0  0  0  0  0  0  0  0  0  0
    5.1786   -0.2647    0.7467 C   0  0  0  0  0  0  0  0  0  0  0  0
    5.6629   -1.3480    0.0475 C   0  0  0  0  0  0  0  0  0  0  0  0
    4.4763   -2.0346   -0.9769 S   0  0  0  0  0  0  0  0  0  0  0  0
   -1.7039    3.3885   -3.5255 H   0  0  0  0  0  0  0  0  0  0  0  0
    0.5436    1.8128   -1.3862 H   0  0  0  0  0  0  0  0  0  0  0  0
   -0.8420    2.2530   -0.3840 H   0  0  0  0  0  0  0  0  0  0  0  0
   -0.8768   -0.5329   -1.6732 H   0  0  0  0  0  0  0  0  0  0  0  0
   -3.3674    0.1362   -1.5769 H   0  0  0  0  0  0  0  0  0  0  0  0
   -5.3730    0.0643   -0.1637 H   0  0  0  0  0  0  0  0  0  0  0  0
   -5.1682   -0.1401    2.2985 H   0  0  0  0  0  0  0  0  0  0  0  0
   -2.9390   -0.3156    3.3452 H   0  0  0  0  0  0  0  0  0  0  0  0
   -0.5761   -0.8997    3.0292 H   0  0  0  0  0  0  0  0  0  0  0  0
   -0.0807    0.6430    2.3007 H   0  0  0  0  0  0  0  0  0  0  0  0
   -0.0649   -2.1004    0.8876 H   0  0  0  0  0  0  0  0  0  0  0  0
    1.3484   -1.2954    1.5995 H   0  0  0  0  0  0  0  0  0  0  0  0
    3.2294    0.8092    0.8579 H   0  0  0  0  0  0  0  0  0  0  0  0
    5.7783    0.3142    1.4390 H   0  0  0  0  0  0  0  0  0  0  0  0
    6.6594   -1.7677    0.0802 H   0  0  0  0  0  0  0  0  0  0  0  0
  1  2  2  0
  2  3  1  0
  2  4  1  0
  4  5  1  0
  5  6  1  0
  6  7  2  0
  7  8  1  0
  8  9  2  0
  9 10  1  0
 10 11  2  0
 11 12  1  0
 12 13  1  0
 13 14  1  0
 14 15  1  0
 15 16  2  0
 15 17  2  0
 15 18  1  0
 18 19  2  0
 19 20  1  0
 20 21  2  0
 21 22  1  0
 14  5  1  0
 22 18  1  0
 11  6  1  0
  3 23  1  0
  4 24  1  0
  4 25  1  0
  5 26  1  0
  7 27  1  0
  8 28  1  0
  9 29  1  0
 10 30  1  0
 12 31  1  0
 12 32  1  0
 13 33  1  0
 13 34  1  0
 19 35  1  0
 20 36  1  0
 21 37  1  0
M  END
$$$$
