
     RDKit          3D

 54 56  0  0  0  0  0  0  0  0999 V2000
   -5.5158   -0.6515    0.4154 C   0  0  0  0  0  0  0  0  0  0  0  0
   -4.5586   -0.3546    1.5541 C   0  0  0  0  0  0  0  0  0  0  0  0
   -3.2894   -0.0217    0.9855 O   0  0  0  0  0  0  0  0  0  0  0  0
   -2.3239    0.3058    1.8933 C   0  0  0  0  0  0  0  0  0  0  0  0
   -2.4899    0.2632    3.1067 O   0  0  0  0  0  0  0  0  0  0  0  0
   -1.0501    0.6525    1.2668 C   0  0  0  0  0  0  0  0  0  0  0  0
   -0.9517    1.3793    0.0856 C   0  0  0  0  0  0  0  0  0  0  0  0
   -1.9187    1.9533   -0.6808 N   0  0  0  0  0  0  0  0  0  0  0  0
   -2.3937    1.1965   -1.6160 C   0  0  0  0  0  0  0  0  0  0  0  0
   -3.3759    1.5409   -2.5197 N   0  0  0  0  0  0  0  0  0  0  0  0
   -3.6507    0.6876   -3.6643 C   0  0  0  0  0  0  0  0  0  0  0  0
   -3.7688    2.9374   -2.6523 C   0  0  0  0  0  0  0  0  0  0  0  0
    0.6882    1.6370   -0.3555 S   0  0  0  0  0  0  0  0  0  0  0  0
    1.2842    0.7484    0.9691 C   0  0  0  0  0  0  0  0  0  0  0  0
    2.7111    0.5997    1.1801 C   0  0  0  0  0  0  0  0  0  0  0  0
    3.6357    0.2617    0.3260 N   0  0  0  0  0  0  0  0  0  0  0  0
    3.2673   -0.0225   -0.9524 N   0  0  0  0  0  0  0  0  0  0  0  0
    4.2827   -0.3149   -1.8895 C   0  0  0  0  0  0  0  0  0  0  0  0
    3.9581   -0.3826   -3.2527 C   0  0  0  0  0  0  0  0  0  0  0  0
    4.9202   -0.7332   -4.2053 C   0  0  0  0  0  0  0  0  0  0  0  0
    6.2172   -1.0435   -3.8038 C   0  0  0  0  0  0  0  0  0  0  0  0
    6.5484   -1.0131   -2.4511 C   0  0  0  0  0  0  0  0  0  0  0  0
    5.5839   -0.6613   -1.5023 C   0  0  0  0  0  0  0  0  0  0  0  0
    0.2566    0.3127    1.7905 C   0  0  0  0  0  0  0  0  0  0  0  0
    0.5444   -0.4652    2.9904 C   0  0  0  0  0  0  0  0  0  0  0  0
    0.9810   -1.7923    2.8796 C   0  0  0  0  0  0  0  0  0  0  0  0
    1.2763   -2.5293    4.0288 C   0  0  0  0  0  0  0  0  0  0  0  0
    1.1341   -1.9413    5.2849 C   0  0  0  0  0  0  0  0  0  0  0  0
    1.4991   -2.8492    6.6994 Cl  0  0  0  0  0  0  0  0  0  0  0  0
    0.6993   -0.6221    5.4032 C   0  0  0  0  0  0  0  0  0  0  0  0
    0.4050    0.1171    4.2550 C   0  0  0  0  0  0  0  0  0  0  0  0
   -6.5042   -0.9229    0.7960 H   0  0  0  0  0  0  0  0  0  0  0  0
   -5.6173    0.2219   -0.2358 H   0  0  0  0  0  0  0  0  0  0  0  0
   -5.1371   -1.4695   -0.2040 H   0  0  0  0  0  0  0  0  0  0  0  0
   -4.9381    0.4919    2.1390 H   0  0  0  0  0  0  0  0  0  0  0  0
   -4.4575   -1.2356    2.1990 H   0  0  0  0  0  0  0  0  0  0  0  0
   -2.0326    0.1591   -1.7654 H   0  0  0  0  0  0  0  0  0  0  0  0
   -4.6424    0.8921   -4.0800 H   0  0  0  0  0  0  0  0  0  0  0  0
   -2.9051    0.8476   -4.4506 H   0  0  0  0  0  0  0  0  0  0  0  0
   -3.6309   -0.3695   -3.3782 H   0  0  0  0  0  0  0  0  0  0  0  0
   -3.9255    3.3997   -1.6705 H   0  0  0  0  0  0  0  0  0  0  0  0
   -4.7074    3.0329   -3.2090 H   0  0  0  0  0  0  0  0  0  0  0  0
   -2.9952    3.5008   -3.1854 H   0  0  0  0  0  0  0  0  0  0  0  0
    3.0573    0.7505    2.2174 H   0  0  0  0  0  0  0  0  0  0  0  0
    2.5000    0.5142   -1.3573 H   0  0  0  0  0  0  0  0  0  0  0  0
    2.9478   -0.1609   -3.5854 H   0  0  0  0  0  0  0  0  0  0  0  0
    4.6544   -0.7684   -5.2586 H   0  0  0  0  0  0  0  0  0  0  0  0
    6.9662   -1.3184   -4.5414 H   0  0  0  0  0  0  0  0  0  0  0  0
    7.5551   -1.2664   -2.1283 H   0  0  0  0  0  0  0  0  0  0  0  0
    5.8545   -0.6550   -0.4492 H   0  0  0  0  0  0  0  0  0  0  0  0
    1.0973   -2.2595    1.9033 H   0  0  0  0  0  0  0  0  0  0  0  0
    1.6150   -3.5583    3.9372 H   0  0  0  0  0  0  0  0  0  0  0  0
    0.5838   -0.1645    6.3824 H   0  0  0  0  0  0  0  0  0  0  0  0
    0.0567    1.1434    4.3563 H   0  0  0  0  0  0  0  0  0  0  0  0
  1  2  1  0
  2  3  1  0
  3  4  1  0
  4  5  2  0
  4  6  1  0
  6  7  2  0
  7  8  1  0
  8  9  2  3
  9 10  1  0
 10 11  1  0
 10 12  1  0
  7 13  1  0
 13 14  1  0
 14 15  1  0
 15 16  2  3
 16 17  1  0
 17 18  1  0
 18 19  2  0
 19 20  1  0
 20 21  2  0
 21 22  1  0
 22 23  2  0
 14 24  2  0
 24 25  1  0
 25 26  2  0
 26 27  1  0
 27 28  2  0
 28 29  1  0
 28 30  1  0
 30 31  2  0
 24  6  1  0
 31 25  1  0
 23 18  1  0
  1 32  1  0
  1 33  1  0
  1 34  1  0
  2 35  1  0
  2 36  1  0
  9 37  1  0
 11 38  1  0
 11 39  1  0
 11 40  1  0
 12 41  1  0
 12 42  1  0
 12 43  1  0
 15 44  1  0
 17 45  1  0
 19 46  1  0
 20 47  1  0
 21 48  1  0
 22 49  1  0
 23 50  1  0
 26 51  1  0
 27 52  1  0
 30 53  1  0
 31 54  1  0
M  END
$$$$
