
     RDKit          3D

 51 53  0  0  0  0  0  0  0  0999 V2000
   -1.1551    6.5365   -0.4891 C   0  0  0  0  0  0  0  0  0  0  0  0
   -1.9881    5.3772   -1.0193 C   0  0  0  0  0  0  0  0  0  0  0  0
   -1.3294    4.0364   -0.7026 C   0  0  0  0  0  0  0  0  0  0  0  0
   -2.3741    2.6749   -1.3213 S   0  0  0  0  0  0  0  0  0  0  0  0
   -1.4214    1.2581   -0.7883 C   0  0  0  0  0  0  0  0  0  0  0  0
   -1.9482    0.0001   -0.9873 C   0  0  0  0  0  0  0  0  0  0  0  0
   -1.1942   -1.0803   -0.5761 C   0  0  0  0  0  0  0  0  0  0  0  0
   -1.6643   -2.3821   -0.7224 N   0  0  0  0  0  0  0  0  0  0  0  0
   -0.8414   -3.4467   -0.1224 C   0  0  0  0  0  0  0  0  0  0  0  0
   -1.5963   -4.7923   -0.2031 C   0  0  0  0  0  0  0  0  0  0  0  0
   -1.8990   -5.2387   -1.5829 N   0  0  0  0  0  0  0  0  0  0  0  0
   -3.1430   -6.0036   -1.6129 C   0  0  0  0  0  0  0  0  0  0  0  0
   -1.9251   -4.1033   -2.5262 C   0  0  0  0  0  0  0  0  0  0  0  0
   -2.3997   -2.7486   -1.9463 C   0  0  0  0  0  0  0  0  0  0  0  0
   -0.0058   -0.8852    0.0196 N   0  0  0  0  0  0  0  0  0  0  0  0
    0.4408    0.3747    0.1738 C   0  0  0  0  0  0  0  0  0  0  0  0
    1.7563    0.5650    0.8199 C   0  0  0  0  0  0  0  0  0  0  0  0
    2.2969    1.8479    1.0311 C   0  0  0  0  0  0  0  0  0  0  0  0
    3.5446    2.0346    1.6452 C   0  0  0  0  0  0  0  0  0  0  0  0
    4.2887    0.9362    2.0666 C   0  0  0  0  0  0  0  0  0  0  0  0
    5.5115    0.9751    2.6763 O   0  0  0  0  0  0  0  0  0  0  0  0
    6.0815    2.2599    2.8913 C   0  0  0  0  0  0  0  0  0  0  0  0
    3.7739   -0.3437    1.8675 C   0  0  0  0  0  0  0  0  0  0  0  0
    2.5286   -0.5269    1.2539 C   0  0  0  0  0  0  0  0  0  0  0  0
   -0.2280    1.4687   -0.2185 N   0  0  0  0  0  0  0  0  0  0  0  0
   -1.6374    7.4897   -0.7275 H   0  0  0  0  0  0  0  0  0  0  0  0
   -1.0453    6.4745    0.5991 H   0  0  0  0  0  0  0  0  0  0  0  0
   -0.1553    6.5397   -0.9365 H   0  0  0  0  0  0  0  0  0  0  0  0
   -2.1086    5.4964   -2.1034 H   0  0  0  0  0  0  0  0  0  0  0  0
   -2.9870    5.4284   -0.5688 H   0  0  0  0  0  0  0  0  0  0  0  0
   -1.1985    3.9335    0.3799 H   0  0  0  0  0  0  0  0  0  0  0  0
   -0.3443    3.9844   -1.1799 H   0  0  0  0  0  0  0  0  0  0  0  0
   -2.9277   -0.1275   -1.4278 H   0  0  0  0  0  0  0  0  0  0  0  0
    0.1259   -3.5273   -0.6353 H   0  0  0  0  0  0  0  0  0  0  0  0
   -0.6501   -3.2297    0.9362 H   0  0  0  0  0  0  0  0  0  0  0  0
   -1.0023   -5.5702    0.2897 H   0  0  0  0  0  0  0  0  0  0  0  0
   -2.5241   -4.6813    0.3755 H   0  0  0  0  0  0  0  0  0  0  0  0
   -3.0855   -6.8566   -0.9271 H   0  0  0  0  0  0  0  0  0  0  0  0
   -3.3178   -6.4171   -2.6126 H   0  0  0  0  0  0  0  0  0  0  0  0
   -4.0120   -5.3949   -1.3366 H   0  0  0  0  0  0  0  0  0  0  0  0
   -0.8967   -3.9690   -2.8872 H   0  0  0  0  0  0  0  0  0  0  0  0
   -2.5126   -4.3473   -3.4200 H   0  0  0  0  0  0  0  0  0  0  0  0
   -2.2763   -1.9969   -2.7351 H   0  0  0  0  0  0  0  0  0  0  0  0
   -3.4678   -2.8055   -1.7064 H   0  0  0  0  0  0  0  0  0  0  0  0
    1.7405    2.7286    0.7138 H   0  0  0  0  0  0  0  0  0  0  0  0
    3.8988    3.0512    1.7761 H   0  0  0  0  0  0  0  0  0  0  0  0
    6.2555    2.7788    1.9425 H   0  0  0  0  0  0  0  0  0  0  0  0
    5.4593    2.8603    3.5631 H   0  0  0  0  0  0  0  0  0  0  0  0
    7.0524    2.1175    3.3753 H   0  0  0  0  0  0  0  0  0  0  0  0
    4.3447   -1.2105    2.1912 H   0  0  0  0  0  0  0  0  0  0  0  0
    2.1625   -1.5430    1.1158 H   0  0  0  0  0  0  0  0  0  0  0  0
  1  2  1  0
  2  3  1  0
  3  4  1  0
  4  5  1  0
  5  6  2  0
  6  7  1  0
  7  8  1  0
  8  9  1  0
  9 10  1  0
 10 11  1  0
 11 12  1  0
 11 13  1  0
 13 14  1  0
  7 15  2  0
 15 16  1  0
 16 17  1  0
 17 18  2  0
 18 19  1  0
 19 20  2  0
 20 21  1  0
 21 22  1  0
 20 23  1  0
 23 24  2  0
 16 25  2  0
 25  5  1  0
 14  8  1  0
 24 17  1  0
  1 26  1  0
  1 27  1  0
  1 28  1  0
  2 29  1  0
  2 30  1  0
  3 31  1  0
  3 32  1  0
  6 33  1  0
  9 34  1  0
  9 35  1  0
 10 36  1  0
 10 37  1  0
 12 38  1  0
 12 39  1  0
 12 40  1  0
 13 41  1  0
 13 42  1  0
 14 43  1  0
 14 44  1  0
 18 45  1  0
 19 46  1  0
 22 47  1  0
 22 48  1  0
 22 49  1  0
 23 50  1  0
 24 51  1  0
M  END
$$$$
