
     RDKit          3D

 50 53  0  0  0  0  0  0  0  0999 V2000
    6.0126    0.4396    3.2147 C   0  0  0  0  0  0  0  0  0  0  0  0
    5.8980   -0.6714    2.1805 C   0  0  0  0  0  0  0  0  0  0  0  0
    5.3486   -0.1786    0.9082 N   0  0  0  0  0  0  0  0  0  0  0  0
    6.3219    0.0862   -0.1618 C   0  0  0  0  0  0  0  0  0  0  0  0
    6.7074    1.5571   -0.2205 C   0  0  0  0  0  0  0  0  0  0  0  0
    3.9801    0.0012    0.7177 C   0  0  0  0  0  0  0  0  0  0  0  0
    3.0340   -0.3032    1.7128 C   0  0  0  0  0  0  0  0  0  0  0  0
    1.6531   -0.1287    1.5271 C   0  0  0  0  0  0  0  0  0  0  0  0
    1.1597    0.3551    0.3193 C   0  0  0  0  0  0  0  0  0  0  0  0
   -0.2733    0.5651    0.0988 C   0  0  0  0  0  0  0  0  0  0  0  0
   -1.2150   -0.3883    0.0677 C   0  0  0  0  0  0  0  0  0  0  0  0
   -0.9927   -2.1111    0.2641 S   0  0  0  0  0  0  0  0  0  0  0  0
   -2.6786   -2.3415    0.0512 C   0  0  0  0  0  0  0  0  0  0  0  0
   -3.4715   -3.3734    0.0682 N   0  0  0  0  0  0  0  0  0  0  0  0
   -4.7474   -2.8732   -0.1567 N   0  0  0  0  0  0  0  0  0  0  0  0
   -4.6709   -1.5565   -0.3177 C   0  0  0  0  0  0  0  0  0  0  0  0
   -5.7840   -0.6485   -0.5601 C   0  0  0  0  0  0  0  0  0  0  0  0
   -6.6776   -0.4016    0.4945 C   0  0  0  0  0  0  0  0  0  0  0  0
   -7.7536    0.4697    0.3283 C   0  0  0  0  0  0  0  0  0  0  0  0
   -7.9507    1.0996   -0.8959 C   0  0  0  0  0  0  0  0  0  0  0  0
   -7.0814    0.8486   -1.9581 C   0  0  0  0  0  0  0  0  0  0  0  0
   -6.0008   -0.0376   -1.8118 C   0  0  0  0  0  0  0  0  0  0  0  0
   -5.1030   -0.2867   -2.9930 C   0  0  0  0  0  0  0  0  0  0  0  0
   -3.3584   -1.1947   -0.1698 N   0  0  0  0  0  0  0  0  0  0  0  0
   -2.6419   -0.0244   -0.1792 C   0  0  0  0  0  0  0  0  0  0  0  0
   -3.1438    1.0681   -0.3609 O   0  0  0  0  0  0  0  0  0  0  0  0
    2.0668    0.6796   -0.6843 C   0  0  0  0  0  0  0  0  0  0  0  0
    3.4451    0.5004   -0.4833 C   0  0  0  0  0  0  0  0  0  0  0  0
    5.0459    0.9049    3.4279 H   0  0  0  0  0  0  0  0  0  0  0  0
    6.6919    1.2271    2.8759 H   0  0  0  0  0  0  0  0  0  0  0  0
    6.4080    0.0387    4.1534 H   0  0  0  0  0  0  0  0  0  0  0  0
    5.3078   -1.5082    2.5711 H   0  0  0  0  0  0  0  0  0  0  0  0
    6.8991   -1.0921    2.0239 H   0  0  0  0  0  0  0  0  0  0  0  0
    7.2347   -0.4997    0.0029 H   0  0  0  0  0  0  0  0  0  0  0  0
    5.9505   -0.2575   -1.1339 H   0  0  0  0  0  0  0  0  0  0  0  0
    7.1980    1.8740    0.7043 H   0  0  0  0  0  0  0  0  0  0  0  0
    5.8384    2.2036   -0.3739 H   0  0  0  0  0  0  0  0  0  0  0  0
    7.4068    1.7295   -1.0446 H   0  0  0  0  0  0  0  0  0  0  0  0
    3.3425   -0.6887    2.6793 H   0  0  0  0  0  0  0  0  0  0  0  0
    0.9810   -0.3759    2.3453 H   0  0  0  0  0  0  0  0  0  0  0  0
   -0.5519    1.6051   -0.0695 H   0  0  0  0  0  0  0  0  0  0  0  0
   -6.5386   -0.8921    1.4563 H   0  0  0  0  0  0  0  0  0  0  0  0
   -8.4362    0.6555    1.1534 H   0  0  0  0  0  0  0  0  0  0  0  0
   -8.7860    1.7828   -1.0279 H   0  0  0  0  0  0  0  0  0  0  0  0
   -7.2584    1.3464   -2.9094 H   0  0  0  0  0  0  0  0  0  0  0  0
   -5.5776    0.0349   -3.9266 H   0  0  0  0  0  0  0  0  0  0  0  0
   -4.8862   -1.3542   -3.1011 H   0  0  0  0  0  0  0  0  0  0  0  0
   -4.1660    0.2664   -2.8821 H   0  0  0  0  0  0  0  0  0  0  0  0
    1.7233    1.0726   -1.6382 H   0  0  0  0  0  0  0  0  0  0  0  0
    4.0904    0.7762   -1.3113 H   0  0  0  0  0  0  0  0  0  0  0  0
  1  2  1  0
  2  3  1  0
  3  4  1  0
  4  5  1  0
  3  6  1  0
  6  7  2  0
  7  8  1  0
  8  9  2  0
  9 10  1  0
 10 11  2  3
 11 12  1  0
 12 13  1  0
 13 14  2  0
 14 15  1  0
 15 16  2  0
 16 17  1  0
 17 18  2  0
 18 19  1  0
 19 20  2  0
 20 21  1  0
 21 22  2  0
 22 23  1  0
 16 24  1  0
 24 25  1  0
 25 26  2  0
  9 27  1  0
 27 28  2  0
 28  6  1  0
 25 11  1  0
 24 13  1  0
 22 17  1  0
  1 29  1  0
  1 30  1  0
  1 31  1  0
  2 32  1  0
  2 33  1  0
  4 34  1  0
  4 35  1  0
  5 36  1  0
  5 37  1  0
  5 38  1  0
  7 39  1  0
  8 40  1  0
 10 41  1  0
 18 42  1  0
 19 43  1  0
 20 44  1  0
 21 45  1  0
 23 46  1  0
 23 47  1  0
 23 48  1  0
 27 49  1  0
 28 50  1  0
M  END
$$$$
