
     RDKit          3D

 53 56  0  0  0  0  0  0  0  0999 V2000
    8.3544   -0.8877    2.1660 C   0  0  0  0  0  0  0  0  0  0  0  0
    6.8529   -0.6890    2.0602 C   0  0  0  0  0  0  0  0  0  0  0  0
    6.5291   -0.5080    0.6831 O   0  0  0  0  0  0  0  0  0  0  0  0
    5.2141   -0.3017    0.3740 C   0  0  0  0  0  0  0  0  0  0  0  0
    4.9536   -0.1182   -0.9824 C   0  0  0  0  0  0  0  0  0  0  0  0
    3.6480    0.1032   -1.4351 C   0  0  0  0  0  0  0  0  0  0  0  0
    2.5600    0.1530   -0.5462 C   0  0  0  0  0  0  0  0  0  0  0  0
    1.1879    0.3926   -1.0452 C   0  0  0  0  0  0  0  0  0  0  0  0
    0.2004    0.9983   -0.2882 C   0  0  0  0  0  0  0  0  0  0  0  0
   -1.0625    1.1624   -0.8564 C   0  0  0  0  0  0  0  0  0  0  0  0
   -2.0915    1.7918   -0.0077 C   0  0  0  0  0  0  0  0  0  0  0  0
   -1.9533    2.9819    0.2604 O   0  0  0  0  0  0  0  0  0  0  0  0
   -3.1489    1.0069    0.4520 N   0  0  0  0  0  0  0  0  0  0  0  0
   -3.0880   -0.4596    0.5263 C   0  0  0  0  0  0  0  0  0  0  0  0
   -4.4851   -1.1076    0.5849 C   0  0  0  0  0  0  0  0  0  0  0  0
   -5.4011   -0.5321    1.5887 N   0  0  0  0  0  0  0  0  0  0  0  0
   -5.0218   -0.9028    2.9501 C   0  0  0  0  0  0  0  0  0  0  0  0
   -5.4567    0.9338    1.4147 C   0  0  0  0  0  0  0  0  0  0  0  0
   -4.0884    1.6396    1.3800 C   0  0  0  0  0  0  0  0  0  0  0  0
   -1.3309    0.7751   -2.1839 C   0  0  0  0  0  0  0  0  0  0  0  0
   -2.5705    0.9580   -2.8475 C   0  0  0  0  0  0  0  0  0  0  0  0
   -2.7481    0.5324   -4.1618 C   0  0  0  0  0  0  0  0  0  0  0  0
   -1.6940   -0.0745   -4.8295 C   0  0  0  0  0  0  0  0  0  0  0  0
   -0.4690   -0.2458   -4.1796 C   0  0  0  0  0  0  0  0  0  0  0  0
   -0.2652    0.1715   -2.8708 C   0  0  0  0  0  0  0  0  0  0  0  0
    0.9445   -0.0203   -2.3157 N   0  0  0  0  0  0  0  0  0  0  0  0
    2.8441   -0.0432    0.8177 C   0  0  0  0  0  0  0  0  0  0  0  0
    4.1527   -0.2659    1.2742 C   0  0  0  0  0  0  0  0  0  0  0  0
    8.6562   -1.0320    3.2072 H   0  0  0  0  0  0  0  0  0  0  0  0
    8.8874   -0.0215    1.7600 H   0  0  0  0  0  0  0  0  0  0  0  0
    8.6701   -1.7587    1.5822 H   0  0  0  0  0  0  0  0  0  0  0  0
    6.5679    0.1976    2.6383 H   0  0  0  0  0  0  0  0  0  0  0  0
    6.3461   -1.5764    2.4565 H   0  0  0  0  0  0  0  0  0  0  0  0
    5.7710   -0.1473   -1.6986 H   0  0  0  0  0  0  0  0  0  0  0  0
    3.4838    0.2426   -2.5029 H   0  0  0  0  0  0  0  0  0  0  0  0
    0.3907    1.3587    0.7168 H   0  0  0  0  0  0  0  0  0  0  0  0
   -2.5437   -0.8709   -0.3271 H   0  0  0  0  0  0  0  0  0  0  0  0
   -2.5085   -0.7104    1.4228 H   0  0  0  0  0  0  0  0  0  0  0  0
   -4.3846   -2.1889    0.7392 H   0  0  0  0  0  0  0  0  0  0  0  0
   -4.9582   -0.9926   -0.3994 H   0  0  0  0  0  0  0  0  0  0  0  0
   -5.7470   -0.5046    3.6684 H   0  0  0  0  0  0  0  0  0  0  0  0
   -4.0281   -0.5449    3.2374 H   0  0  0  0  0  0  0  0  0  0  0  0
   -5.0367   -1.9923    3.0652 H   0  0  0  0  0  0  0  0  0  0  0  0
   -5.9710    1.1338    0.4652 H   0  0  0  0  0  0  0  0  0  0  0  0
   -6.0864    1.3846    2.1915 H   0  0  0  0  0  0  0  0  0  0  0  0
   -3.6225    1.6308    2.3726 H   0  0  0  0  0  0  0  0  0  0  0  0
   -4.2327    2.6892    1.0995 H   0  0  0  0  0  0  0  0  0  0  0  0
   -3.4045    1.4417   -2.3418 H   0  0  0  0  0  0  0  0  0  0  0  0
   -3.7026    0.6795   -4.6608 H   0  0  0  0  0  0  0  0  0  0  0  0
   -1.8150   -0.4101   -5.8563 H   0  0  0  0  0  0  0  0  0  0  0  0
    0.3546   -0.7160   -4.7130 H   0  0  0  0  0  0  0  0  0  0  0  0
    2.0454   -0.0428    1.5559 H   0  0  0  0  0  0  0  0  0  0  0  0
    4.3018   -0.4113    2.3388 H   0  0  0  0  0  0  0  0  0  0  0  0
  1  2  1  0
  2  3  1  0
  3  4  1  0
  4  5  2  0
  5  6  1  0
  6  7  2  0
  7  8  1  0
  8  9  2  0
  9 10  1  0
 10 11  1  0
 11 12  2  0
 11 13  1  0
 13 14  1  0
 14 15  1  0
 15 16  1  0
 16 17  1  0
 16 18  1  0
 18 19  1  0
 10 20  2  0
 20 21  1  0
 21 22  2  0
 22 23  1  0
 23 24  2  0
 24 25  1  0
 25 26  2  0
  7 27  1  0
 27 28  2  0
 28  4  1  0
 26  8  1  0
 19 13  1  0
 25 20  1  0
  1 29  1  0
  1 30  1  0
  1 31  1  0
  2 32  1  0
  2 33  1  0
  5 34  1  0
  6 35  1  0
  9 36  1  0
 14 37  1  0
 14 38  1  0
 15 39  1  0
 15 40  1  0
 17 41  1  0
 17 42  1  0
 17 43  1  0
 18 44  1  0
 18 45  1  0
 19 46  1  0
 19 47  1  0
 21 48  1  0
 22 49  1  0
 23 50  1  0
 24 51  1  0
 27 52  1  0
 28 53  1  0
M  END
$$$$
