
     RDKit          3D

 52 55  0  0  0  0  0  0  0  0999 V2000
    2.3466   -1.4581    4.7224 N   0  0  0  0  0  0  0  0  0  0  0  0
    3.0193    0.0549    5.0271 S   0  0  0  0  0  6  0  0  0  0  0  0
    2.0494    0.7537    5.8387 O   0  0  0  0  0  0  0  0  0  0  0  0
    4.3877   -0.1392    5.4418 O   0  0  0  0  0  0  0  0  0  0  0  0
    3.0217    0.7757    3.4067 C   0  0  0  0  0  0  0  0  0  0  0  0
    4.0747    0.4902    2.5343 C   0  0  0  0  0  0  0  0  0  0  0  0
    4.0905    1.0668    1.2635 C   0  0  0  0  0  0  0  0  0  0  0  0
    3.0626    1.9336    0.8627 C   0  0  0  0  0  0  0  0  0  0  0  0
    3.0771    2.5524   -0.5184 C   0  0  0  0  0  0  0  0  0  0  0  0
    2.7752    1.5495   -1.6350 C   0  0  0  0  0  0  0  0  0  0  0  0
    1.4534    0.9597   -1.5105 N   0  0  0  0  0  0  0  0  0  0  0  0
    0.8549    0.3409   -2.5898 C   0  0  0  0  0  0  0  0  0  0  0  0
    1.2962    0.3703   -3.7297 O   0  0  0  0  0  0  0  0  0  0  0  0
   -0.3894   -0.4000   -2.2647 C   0  0  0  0  0  0  0  0  0  0  0  0
   -1.3719    0.2832   -1.5417 C   0  0  0  0  0  0  0  0  0  0  0  0
   -2.5361   -0.3849   -1.2043 C   0  0  0  0  0  0  0  0  0  0  0  0
   -3.6353    0.2406   -0.4370 C   0  0  0  0  0  0  0  0  0  0  0  0
   -4.9669   -0.1772   -0.6234 C   0  0  0  0  0  0  0  0  0  0  0  0
   -6.0233    0.4013    0.0865 C   0  0  0  0  0  0  0  0  0  0  0  0
   -5.7709    1.4128    1.0072 C   0  0  0  0  0  0  0  0  0  0  0  0
   -4.4643    1.8411    1.2204 C   0  0  0  0  0  0  0  0  0  0  0  0
   -3.4092    1.2598    0.5079 C   0  0  0  0  0  0  0  0  0  0  0  0
   -2.7347   -1.6739   -1.5725 N   0  0  0  0  0  0  0  0  0  0  0  0
   -1.7977   -2.3275   -2.2808 C   0  0  0  0  0  0  0  0  0  0  0  0
   -2.0476   -3.6465   -2.6358 C   0  0  0  0  0  0  0  0  0  0  0  0
   -1.1272   -4.4056   -3.3614 C   0  0  0  0  0  0  0  0  0  0  0  0
    0.0786   -3.8380   -3.7445 C   0  0  0  0  0  0  0  0  0  0  0  0
    0.3534   -2.5161   -3.3997 C   0  0  0  0  0  0  0  0  0  0  0  0
   -0.5804   -1.7390   -2.6668 C   0  0  0  0  0  0  0  0  0  0  0  0
    2.0189    2.2200    1.7565 C   0  0  0  0  0  0  0  0  0  0  0  0
    1.9969    1.6454    3.0285 C   0  0  0  0  0  0  0  0  0  0  0  0
    1.4546   -1.5292    5.2152 H   0  0  0  0  0  0  0  0  0  0  0  0
    2.2540   -1.6708    3.7304 H   0  0  0  0  0  0  0  0  0  0  0  0
    4.8871   -0.1668    2.8406 H   0  0  0  0  0  0  0  0  0  0  0  0
    4.9180    0.8452    0.5914 H   0  0  0  0  0  0  0  0  0  0  0  0
    4.0625    3.0039   -0.6880 H   0  0  0  0  0  0  0  0  0  0  0  0
    2.3522    3.3751   -0.5619 H   0  0  0  0  0  0  0  0  0  0  0  0
    3.4978    0.7256   -1.6364 H   0  0  0  0  0  0  0  0  0  0  0  0
    2.8476    2.0510   -2.6067 H   0  0  0  0  0  0  0  0  0  0  0  0
    1.1745    0.6507   -0.5869 H   0  0  0  0  0  0  0  0  0  0  0  0
   -1.2314    1.3274   -1.2838 H   0  0  0  0  0  0  0  0  0  0  0  0
   -5.1902   -0.9683   -1.3386 H   0  0  0  0  0  0  0  0  0  0  0  0
   -7.0405    0.0573   -0.0823 H   0  0  0  0  0  0  0  0  0  0  0  0
   -6.5910    1.8625    1.5608 H   0  0  0  0  0  0  0  0  0  0  0  0
   -4.2636    2.6255    1.9458 H   0  0  0  0  0  0  0  0  0  0  0  0
   -2.4019    1.6092    0.7194 H   0  0  0  0  0  0  0  0  0  0  0  0
   -2.9912   -4.0991   -2.3378 H   0  0  0  0  0  0  0  0  0  0  0  0
   -1.3585   -5.4342   -3.6251 H   0  0  0  0  0  0  0  0  0  0  0  0
    0.8025   -4.4156   -4.3137 H   0  0  0  0  0  0  0  0  0  0  0  0
    1.3034   -2.0901   -3.7180 H   0  0  0  0  0  0  0  0  0  0  0  0
    1.2219    2.9044    1.4707 H   0  0  0  0  0  0  0  0  0  0  0  0
    1.1900    1.8901    3.7164 H   0  0  0  0  0  0  0  0  0  0  0  0
  1  2  1  0
  2  3  2  0
  2  4  2  0
  2  5  1  0
  5  6  2  0
  6  7  1  0
  7  8  2  0
  8  9  1  0
  9 10  1  0
 10 11  1  0
 11 12  1  0
 12 13  2  0
 12 14  1  0
 14 15  2  0
 15 16  1  0
 16 17  1  0
 17 18  2  0
 18 19  1  0
 19 20  2  0
 20 21  1  0
 21 22  2  0
 16 23  2  0
 23 24  1  0
 24 25  2  0
 25 26  1  0
 26 27  2  0
 27 28  1  0
 28 29  2  0
  8 30  1  0
 30 31  2  0
 31  5  1  0
 29 14  1  0
 22 17  1  0
 29 24  1  0
  1 32  1  0
  1 33  1  0
  6 34  1  0
  7 35  1  0
  9 36  1  0
  9 37  1  0
 10 38  1  0
 10 39  1  0
 11 40  1  0
 15 41  1  0
 18 42  1  0
 19 43  1  0
 20 44  1  0
 21 45  1  0
 22 46  1  0
 25 47  1  0
 26 48  1  0
 27 49  1  0
 28 50  1  0
 30 51  1  0
 31 52  1  0
M  END
$$$$
