
     RDKit          3D

 43 45  0  0  0  0  0  0  0  0999 V2000
   -7.4561    0.9441    0.2971 C   0  0  0  0  0  0  0  0  0  0  0  0
   -7.2070   -0.4612    0.8251 C   0  0  0  0  0  0  0  0  0  0  0  0
   -6.1433   -0.5037    1.9205 C   0  0  0  0  0  0  0  0  0  0  0  0
   -4.7707   -0.2267    1.3817 C   0  0  0  0  0  0  0  0  0  0  0  0
   -4.1472   -1.0164    0.5656 N   0  0  0  0  0  0  0  0  0  0  0  0
   -2.9201   -0.4668    0.2693 N   0  0  0  0  0  0  0  0  0  0  0  0
   -2.0355   -1.0759   -0.5929 C   0  0  0  0  0  0  0  0  0  0  0  0
   -2.2027   -2.1340   -1.1909 O   0  0  0  0  0  0  0  0  0  0  0  0
   -0.7756   -0.3192   -0.7775 C   0  0  0  0  0  0  0  0  0  0  0  0
   -0.5910    0.8441   -0.1280 C   0  0  0  0  0  0  0  0  0  0  0  0
    0.6826    1.6407   -0.3205 C   0  0  0  0  0  0  0  0  0  0  0  0
    1.6754    1.7435    1.2136 S   0  0  0  0  0  0  0  0  0  0  0  0
    2.1397   -0.0050    1.4167 C   0  0  0  0  0  0  0  0  0  0  0  0
    2.9756   -0.4825    0.2404 C   0  0  0  0  0  0  0  0  0  0  0  0
    2.5034   -1.2542   -0.5893 O   0  0  0  0  0  0  0  0  0  0  0  0
    4.2484    0.0637    0.2312 N   0  0  0  0  0  0  0  0  0  0  0  0
    5.2839   -0.1822   -0.6913 C   0  0  0  0  0  0  0  0  0  0  0  0
    5.2067   -1.1291   -1.7171 C   0  0  0  0  0  0  0  0  0  0  0  0
    6.2833   -1.3149   -2.5906 C   0  0  0  0  0  0  0  0  0  0  0  0
    7.4352   -0.5558   -2.4356 C   0  0  0  0  0  0  0  0  0  0  0  0
    8.4646   -0.7352   -3.2729 F   0  0  0  0  0  0  0  0  0  0  0  0
    7.5333    0.3866   -1.4213 C   0  0  0  0  0  0  0  0  0  0  0  0
    6.4582    0.5723   -0.5485 C   0  0  0  0  0  0  0  0  0  0  0  0
   -1.5371    1.4064    0.7073 N   0  0  0  0  0  0  0  0  0  0  0  0
   -2.6252    0.7316    0.8606 C   0  0  0  0  0  0  0  0  0  0  0  0
   -3.9443    1.2349    1.8662 S   0  0  0  0  0  0  0  0  0  0  0  0
   -8.2720    0.9324   -0.4326 H   0  0  0  0  0  0  0  0  0  0  0  0
   -6.5690    1.3463   -0.2016 H   0  0  0  0  0  0  0  0  0  0  0  0
   -7.7364    1.6247    1.1073 H   0  0  0  0  0  0  0  0  0  0  0  0
   -8.1465   -0.8520    1.2335 H   0  0  0  0  0  0  0  0  0  0  0  0
   -6.9249   -1.1137   -0.0094 H   0  0  0  0  0  0  0  0  0  0  0  0
   -6.1228   -1.5099    2.3565 H   0  0  0  0  0  0  0  0  0  0  0  0
   -6.3949    0.1928    2.7275 H   0  0  0  0  0  0  0  0  0  0  0  0
   -0.0413   -0.7601   -1.4414 H   0  0  0  0  0  0  0  0  0  0  0  0
    1.3025    1.2437   -1.1309 H   0  0  0  0  0  0  0  0  0  0  0  0
    0.4194    2.6645   -0.6106 H   0  0  0  0  0  0  0  0  0  0  0  0
    1.2532   -0.6359    1.5278 H   0  0  0  0  0  0  0  0  0  0  0  0
    2.7257   -0.1104    2.3360 H   0  0  0  0  0  0  0  0  0  0  0  0
    4.4268    0.7824    0.9251 H   0  0  0  0  0  0  0  0  0  0  0  0
    4.3251   -1.7453   -1.8637 H   0  0  0  0  0  0  0  0  0  0  0  0
    6.2253   -2.0495   -3.3877 H   0  0  0  0  0  0  0  0  0  0  0  0
    8.4427    0.9695   -1.3160 H   0  0  0  0  0  0  0  0  0  0  0  0
    6.5526    1.3153    0.2395 H   0  0  0  0  0  0  0  0  0  0  0  0
  1  2  1  0
  2  3  1  0
  3  4  1  0
  4  5  2  0
  5  6  1  0
  6  7  1  0
  7  8  2  0
  7  9  1  0
  9 10  2  0
 10 11  1  0
 11 12  1  0
 12 13  1  0
 13 14  1  0
 14 15  2  0
 14 16  1  0
 16 17  1  0
 17 18  2  0
 18 19  1  0
 19 20  2  0
 20 21  1  0
 20 22  1  0
 22 23  2  0
 10 24  1  0
 24 25  2  0
 25 26  1  0
 26  4  1  0
 25  6  1  0
 23 17  1  0
  1 27  1  0
  1 28  1  0
  1 29  1  0
  2 30  1  0
  2 31  1  0
  3 32  1  0
  3 33  1  0
  9 34  1  0
 11 35  1  0
 11 36  1  0
 13 37  1  0
 13 38  1  0
 16 39  1  0
 18 40  1  0
 19 41  1  0
 22 42  1  0
 23 43  1  0
M  END
$$$$
