
     RDKit          3D

 69 71  0  0  0  0  0  0  0  0999 V2000
   -7.1802    3.8539    0.9126 C   0  0  0  0  0  0  0  0  0  0  0  0
   -7.4242    2.4395    0.4092 C   0  0  0  0  0  0  0  0  0  0  0  0
   -6.4015    1.4281    0.9233 C   0  0  0  0  0  0  0  0  0  0  0  0
   -5.0244    1.6469    0.4562 N   0  0  0  0  0  0  0  0  0  0  0  0
   -4.6715    1.0923   -0.8560 C   0  0  0  0  0  0  0  0  0  0  0  0
   -4.2502    2.1057   -1.9261 C   0  0  0  0  0  0  0  0  0  0  0  0
   -5.3961    2.9299   -2.4876 C   0  0  0  0  0  0  0  0  0  0  0  0
   -4.1246    2.1922    1.3713 C   0  0  0  0  0  0  0  0  0  0  0  0
   -4.5227    2.7018    2.4271 O   0  0  0  0  0  0  0  0  0  0  0  0
   -2.6098    2.1395    1.1146 C   0  0  0  0  0  0  0  0  0  0  0  0
   -1.9976    0.8243    1.3471 N   0  0  0  0  0  0  0  0  0  0  0  0
   -1.4019    0.1738    0.2592 C   0  0  0  0  0  0  0  0  0  0  0  0
   -1.3707    0.6937   -0.8602 O   0  0  0  0  0  0  0  0  0  0  0  0
   -0.8446   -1.0909    0.4833 N   0  0  0  0  0  0  0  0  0  0  0  0
   -0.2378   -1.7745   -0.6561 C   0  0  0  0  0  0  0  0  0  0  0  0
    1.2425   -1.4078   -0.8092 C   0  0  0  0  0  0  0  0  0  0  0  0
    1.8835   -2.1650   -1.9731 C   0  0  0  0  0  0  0  0  0  0  0  0
    3.3395   -1.7663   -2.2281 C   0  0  0  0  0  0  0  0  0  0  0  0
    4.2824   -2.1416   -1.0847 C   0  0  0  0  0  0  0  0  0  0  0  0
    5.7399   -1.8432   -1.4118 C   0  0  0  0  0  0  0  0  0  0  0  0
    6.0801   -1.3446   -2.4778 O   0  0  0  0  0  0  0  0  0  0  0  0
    6.5723   -2.2024   -0.3630 N   0  0  0  0  0  0  0  0  0  0  0  0
    7.9746   -2.0693   -0.2921 C   0  0  0  0  0  0  0  0  0  0  0  0
    8.7625   -1.5365   -1.3136 C   0  0  0  0  0  0  0  0  0  0  0  0
   10.1498   -1.4383   -1.1618 C   0  0  0  0  0  0  0  0  0  0  0  0
   10.7606   -1.8710    0.0126 C   0  0  0  0  0  0  0  0  0  0  0  0
    9.9847   -2.4040    1.0379 C   0  0  0  0  0  0  0  0  0  0  0  0
    8.5989   -2.5029    0.8856 C   0  0  0  0  0  0  0  0  0  0  0  0
   -0.7194   -1.7086    1.7330 C   0  0  0  0  0  0  0  0  0  0  0  0
   -0.1363   -2.7814    1.8855 O   0  0  0  0  0  0  0  0  0  0  0  0
   -1.3147   -0.9570    2.7995 C   0  0  0  0  0  0  0  0  0  0  0  0
   -1.3185   -1.4868    4.4127 S   0  0  0  0  0  0  0  0  0  0  0  0
   -2.1377   -0.0738    4.9205 C   0  0  0  0  0  0  0  0  0  0  0  0
   -2.3954    0.7779    3.8654 C   0  0  0  0  0  0  0  0  0  0  0  0
   -1.9254    0.2566    2.6236 C   0  0  0  0  0  0  0  0  0  0  0  0
   -7.9643    4.5241    0.5458 H   0  0  0  0  0  0  0  0  0  0  0  0
   -7.1930    3.8877    2.0067 H   0  0  0  0  0  0  0  0  0  0  0  0
   -6.2184    4.2446    0.5679 H   0  0  0  0  0  0  0  0  0  0  0  0
   -8.4196    2.1231    0.7441 H   0  0  0  0  0  0  0  0  0  0  0  0
   -7.4528    2.4336   -0.6836 H   0  0  0  0  0  0  0  0  0  0  0  0
   -6.7004    0.4171    0.6198 H   0  0  0  0  0  0  0  0  0  0  0  0
   -6.4288    1.4210    2.0195 H   0  0  0  0  0  0  0  0  0  0  0  0
   -5.5199    0.5099   -1.2353 H   0  0  0  0  0  0  0  0  0  0  0  0
   -3.8696    0.3705   -0.6972 H   0  0  0  0  0  0  0  0  0  0  0  0
   -3.8024    1.5468   -2.7571 H   0  0  0  0  0  0  0  0  0  0  0  0
   -3.4835    2.7927   -1.5638 H   0  0  0  0  0  0  0  0  0  0  0  0
   -5.0502    3.5162   -3.3453 H   0  0  0  0  0  0  0  0  0  0  0  0
   -5.7757    3.6346   -1.7446 H   0  0  0  0  0  0  0  0  0  0  0  0
   -6.2175    2.2916   -2.8268 H   0  0  0  0  0  0  0  0  0  0  0  0
   -2.1279    2.8500    1.7993 H   0  0  0  0  0  0  0  0  0  0  0  0
   -2.3859    2.5192    0.1194 H   0  0  0  0  0  0  0  0  0  0  0  0
   -0.3403   -2.8582   -0.5235 H   0  0  0  0  0  0  0  0  0  0  0  0
   -0.7828   -1.5173   -1.5719 H   0  0  0  0  0  0  0  0  0  0  0  0
    1.7695   -1.6366    0.1237 H   0  0  0  0  0  0  0  0  0  0  0  0
    1.3412   -0.3274   -0.9702 H   0  0  0  0  0  0  0  0  0  0  0  0
    1.8259   -3.2448   -1.7897 H   0  0  0  0  0  0  0  0  0  0  0  0
    1.3092   -1.9688   -2.8869 H   0  0  0  0  0  0  0  0  0  0  0  0
    3.3993   -0.6877   -2.4200 H   0  0  0  0  0  0  0  0  0  0  0  0
    3.6737   -2.2623   -3.1482 H   0  0  0  0  0  0  0  0  0  0  0  0
    4.1927   -3.2123   -0.8667 H   0  0  0  0  0  0  0  0  0  0  0  0
    4.0236   -1.5806   -0.1801 H   0  0  0  0  0  0  0  0  0  0  0  0
    6.1267   -2.6054    0.4516 H   0  0  0  0  0  0  0  0  0  0  0  0
    8.3303   -1.1863   -2.2455 H   0  0  0  0  0  0  0  0  0  0  0  0
   10.7499   -1.0214   -1.9670 H   0  0  0  0  0  0  0  0  0  0  0  0
   11.8385   -1.7925    0.1266 H   0  0  0  0  0  0  0  0  0  0  0  0
   10.4569   -2.7429    1.9563 H   0  0  0  0  0  0  0  0  0  0  0  0
    8.0178   -2.9232    1.7021 H   0  0  0  0  0  0  0  0  0  0  0  0
   -2.3883    0.0688    5.9632 H   0  0  0  0  0  0  0  0  0  0  0  0
   -2.8996    1.7259    4.0065 H   0  0  0  0  0  0  0  0  0  0  0  0
  1  2  1  0
  2  3  1  0
  3  4  1  0
  4  5  1  0
  5  6  1  0
  6  7  1  0
  4  8  1  0
  8  9  2  0
  8 10  1  0
 10 11  1  0
 11 12  1  0
 12 13  2  0
 12 14  1  0
 14 15  1  0
 15 16  1  0
 16 17  1  0
 17 18  1  0
 18 19  1  0
 19 20  1  0
 20 21  2  0
 20 22  1  0
 22 23  1  0
 23 24  2  0
 24 25  1  0
 25 26  2  0
 26 27  1  0
 27 28  2  0
 14 29  1  0
 29 30  2  0
 29 31  1  0
 31 32  1  0
 32 33  1  0
 33 34  2  0
 34 35  1  0
 35 11  1  0
 28 23  1  0
 35 31  2  0
  1 36  1  0
  1 37  1  0
  1 38  1  0
  2 39  1  0
  2 40  1  0
  3 41  1  0
  3 42  1  0
  5 43  1  0
  5 44  1  0
  6 45  1  0
  6 46  1  0
  7 47  1  0
  7 48  1  0
  7 49  1  0
 10 50  1  0
 10 51  1  0
 15 52  1  0
 15 53  1  0
 16 54  1  0
 16 55  1  0
 17 56  1  0
 17 57  1  0
 18 58  1  0
 18 59  1  0
 19 60  1  0
 19 61  1  0
 22 62  1  0
 24 63  1  0
 25 64  1  0
 26 65  1  0
 27 66  1  0
 28 67  1  0
 33 68  1  0
 34 69  1  0
M  END
$$$$
