
     RDKit          3D

 47 49  0  0  0  0  0  0  0  0999 V2000
    6.9150    3.1186   -0.3942 C   0  0  0  0  0  0  0  0  0  0  0  0
    5.5073    2.9167   -0.3711 O   0  0  0  0  0  0  0  0  0  0  0  0
    5.0291    1.8235   -1.0408 C   0  0  0  0  0  0  0  0  0  0  0  0
    5.7962    0.8687   -1.7042 C   0  0  0  0  0  0  0  0  0  0  0  0
    5.1709   -0.2081   -2.3352 C   0  0  0  0  0  0  0  0  0  0  0  0
    3.7789   -0.3303   -2.3156 C   0  0  0  0  0  0  0  0  0  0  0  0
    2.9966    0.6327   -1.6805 C   0  0  0  0  0  0  0  0  0  0  0  0
    1.5897    0.5659   -1.5817 N   0  0  0  0  0  0  0  0  0  0  0  0
    0.6445   -0.0737   -2.3770 C   0  0  0  0  0  0  0  0  0  0  0  0
    0.8736   -0.4970   -3.9882 S   0  0  0  0  0  0  0  0  0  0  0  0
   -0.5794   -0.2509   -1.6756 N   0  0  0  0  0  0  0  0  0  0  0  0
   -1.8010   -0.6774   -2.3744 C   0  0  0  0  0  0  0  0  0  0  0  0
   -3.0551   -0.1633   -1.6709 C   0  0  0  0  0  0  0  0  0  0  0  0
   -3.0512   -0.4970   -0.2039 C   0  0  0  0  0  0  0  0  0  0  0  0
   -4.2578   -0.5325    0.5120 C   0  0  0  0  0  0  0  0  0  0  0  0
   -4.2696   -0.8145    1.8822 C   0  0  0  0  0  0  0  0  0  0  0  0
   -5.4043   -0.8750    2.6531 O   0  0  0  0  0  0  0  0  0  0  0  0
   -6.6503   -0.6384    2.0145 C   0  0  0  0  0  0  0  0  0  0  0  0
   -3.0546   -1.0573    2.5501 C   0  0  0  0  0  0  0  0  0  0  0  0
   -3.1486   -1.3304    3.8926 O   0  0  0  0  0  0  0  0  0  0  0  0
   -1.9473   -1.5994    4.5999 C   0  0  0  0  0  0  0  0  0  0  0  0
   -1.8520   -1.0058    1.8355 C   0  0  0  0  0  0  0  0  0  0  0  0
   -1.8377   -0.7162    0.4600 C   0  0  0  0  0  0  0  0  0  0  0  0
   -0.5129   -0.6781   -0.2675 C   0  0  0  0  0  0  0  0  0  0  0  0
    3.6355    1.6937   -1.0256 C   0  0  0  0  0  0  0  0  0  0  0  0
    7.4391    2.2963    0.1039 H   0  0  0  0  0  0  0  0  0  0  0  0
    7.2779    3.2576   -1.4180 H   0  0  0  0  0  0  0  0  0  0  0  0
    7.1301    4.0358    0.1625 H   0  0  0  0  0  0  0  0  0  0  0  0
    6.8786    0.9253   -1.7425 H   0  0  0  0  0  0  0  0  0  0  0  0
    5.7692   -0.9633   -2.8394 H   0  0  0  0  0  0  0  0  0  0  0  0
    3.3386   -1.2064   -2.7798 H   0  0  0  0  0  0  0  0  0  0  0  0
    1.1727    1.2639   -0.9777 H   0  0  0  0  0  0  0  0  0  0  0  0
   -1.8144   -0.2979   -3.4004 H   0  0  0  0  0  0  0  0  0  0  0  0
   -1.7938   -1.7740   -2.4198 H   0  0  0  0  0  0  0  0  0  0  0  0
   -3.9373   -0.5953   -2.1574 H   0  0  0  0  0  0  0  0  0  0  0  0
   -3.1138    0.9276   -1.7711 H   0  0  0  0  0  0  0  0  0  0  0  0
   -5.1790   -0.3356   -0.0271 H   0  0  0  0  0  0  0  0  0  0  0  0
   -6.6984    0.3761    1.6054 H   0  0  0  0  0  0  0  0  0  0  0  0
   -6.8468   -1.3880    1.2409 H   0  0  0  0  0  0  0  0  0  0  0  0
   -7.4361   -0.7285    2.7706 H   0  0  0  0  0  0  0  0  0  0  0  0
   -2.2112   -1.8033    5.6422 H   0  0  0  0  0  0  0  0  0  0  0  0
   -1.2806   -0.7309    4.5904 H   0  0  0  0  0  0  0  0  0  0  0  0
   -1.4460   -2.4888    4.2044 H   0  0  0  0  0  0  0  0  0  0  0  0
   -0.9025   -1.1866    2.3298 H   0  0  0  0  0  0  0  0  0  0  0  0
   -0.0792   -1.6864   -0.2639 H   0  0  0  0  0  0  0  0  0  0  0  0
    0.1629   -0.0216    0.2893 H   0  0  0  0  0  0  0  0  0  0  0  0
    3.0545    2.4495   -0.5030 H   0  0  0  0  0  0  0  0  0  0  0  0
  1  2  1  0
  2  3  1  0
  3  4  2  0
  4  5  1  0
  5  6  2  0
  6  7  1  0
  7  8  1  0
  8  9  1  0
  9 10  2  0
  9 11  1  0
 11 12  1  0
 12 13  1  0
 13 14  1  0
 14 15  2  0
 15 16  1  0
 16 17  1  0
 17 18  1  0
 16 19  2  0
 19 20  1  0
 20 21  1  0
 19 22  1  0
 22 23  2  0
 23 24  1  0
  7 25  2  0
 25  3  1  0
 24 11  1  0
 23 14  1  0
  1 26  1  0
  1 27  1  0
  1 28  1  0
  4 29  1  0
  5 30  1  0
  6 31  1  0
  8 32  1  0
 12 33  1  0
 12 34  1  0
 13 35  1  0
 13 36  1  0
 15 37  1  0
 18 38  1  0
 18 39  1  0
 18 40  1  0
 21 41  1  0
 21 42  1  0
 21 43  1  0
 22 44  1  0
 24 45  1  0
 24 46  1  0
 25 47  1  0
M  END
$$$$
