
     RDKit          3D

 56 59  0  0  0  0  0  0  0  0999 V2000
    3.6612    1.6157   -1.0059 C   0  0  0  0  0  0  0  0  0  0  0  0
    2.8283    0.3540   -1.2174 C   0  0  0  0  0  0  0  0  0  0  0  0
    3.6560   -0.9319   -1.4038 C   0  0  0  0  0  0  0  0  0  0  0  0
    4.3710   -1.5105   -0.1740 C   0  0  0  0  0  0  0  0  0  0  0  0
    5.5259   -0.7051    0.3638 C   0  0  0  0  0  0  0  0  0  0  0  0
    6.6267   -0.3946   -0.4468 C   0  0  0  0  0  0  0  0  0  0  0  0
    7.6967    0.3444    0.0610 C   0  0  0  0  0  0  0  0  0  0  0  0
    7.6838    0.7713    1.3868 C   0  0  0  0  0  0  0  0  0  0  0  0
    6.6043    0.4539    2.2079 C   0  0  0  0  0  0  0  0  0  0  0  0
    5.5331   -0.2845    1.7015 C   0  0  0  0  0  0  0  0  0  0  0  0
    1.8358    0.2162   -0.1594 N   0  0  0  0  0  0  0  0  0  0  0  0
    0.5859    0.8009   -0.2493 C   0  0  0  0  0  0  0  0  0  0  0  0
    0.1880    1.3942   -1.2482 O   0  0  0  0  0  0  0  0  0  0  0  0
   -0.2588    0.6557    1.0216 C   0  0  0  0  0  0  0  0  0  0  0  0
   -1.6638    0.6838    0.7884 O   0  0  0  0  0  0  0  0  0  0  0  0
   -2.1473   -0.4605    0.2453 C   0  0  0  0  0  0  0  0  0  0  0  0
   -1.5200   -1.4748   -0.0054 O   0  0  0  0  0  0  0  0  0  0  0  0
   -3.6061   -0.3133    0.0821 C   0  0  0  0  0  0  0  0  0  0  0  0
   -4.1067    0.4346   -1.0191 C   0  0  0  0  0  0  0  0  0  0  0  0
   -3.2988    1.0453   -2.0099 C   0  0  0  0  0  0  0  0  0  0  0  0
   -3.8544    1.7707   -3.0655 C   0  0  0  0  0  0  0  0  0  0  0  0
   -5.2321    1.9027   -3.1631 C   0  0  0  0  0  0  0  0  0  0  0  0
   -6.0518    1.3070   -2.2063 C   0  0  0  0  0  0  0  0  0  0  0  0
   -5.5062    0.5737   -1.1382 C   0  0  0  0  0  0  0  0  0  0  0  0
   -6.3495   -0.0239   -0.1887 C   0  0  0  0  0  0  0  0  0  0  0  0
   -5.8486   -0.7719    0.8879 C   0  0  0  0  0  0  0  0  0  0  0  0
   -6.7298   -1.3582    1.8128 C   0  0  0  0  0  0  0  0  0  0  0  0
   -6.2524   -2.1069    2.8872 C   0  0  0  0  0  0  0  0  0  0  0  0
   -4.8855   -2.2809    3.0508 C   0  0  0  0  0  0  0  0  0  0  0  0
   -3.9982   -1.7031    2.1407 C   0  0  0  0  0  0  0  0  0  0  0  0
   -4.4551   -0.9346    1.0400 C   0  0  0  0  0  0  0  0  0  0  0  0
    4.4583    1.6936   -1.7518 H   0  0  0  0  0  0  0  0  0  0  0  0
    4.1051    1.6537   -0.0078 H   0  0  0  0  0  0  0  0  0  0  0  0
    3.0307    2.5074   -1.0995 H   0  0  0  0  0  0  0  0  0  0  0  0
    2.2838    0.4998   -2.1599 H   0  0  0  0  0  0  0  0  0  0  0  0
    4.3731   -0.7783   -2.2196 H   0  0  0  0  0  0  0  0  0  0  0  0
    2.9664   -1.7112   -1.7576 H   0  0  0  0  0  0  0  0  0  0  0  0
    4.7677   -2.4993   -0.4415 H   0  0  0  0  0  0  0  0  0  0  0  0
    3.6402   -1.7023    0.6205 H   0  0  0  0  0  0  0  0  0  0  0  0
    6.6624   -0.7288   -1.4812 H   0  0  0  0  0  0  0  0  0  0  0  0
    8.5427    0.5834   -0.5781 H   0  0  0  0  0  0  0  0  0  0  0  0
    8.5181    1.3451    1.7816 H   0  0  0  0  0  0  0  0  0  0  0  0
    6.5985    0.7788    3.2451 H   0  0  0  0  0  0  0  0  0  0  0  0
    4.7050   -0.5288    2.3621 H   0  0  0  0  0  0  0  0  0  0  0  0
    2.1557   -0.0831    0.7517 H   0  0  0  0  0  0  0  0  0  0  0  0
   -0.0190    1.5096    1.6646 H   0  0  0  0  0  0  0  0  0  0  0  0
    0.0182   -0.2505    1.5741 H   0  0  0  0  0  0  0  0  0  0  0  0
   -2.2136    0.9633   -1.9745 H   0  0  0  0  0  0  0  0  0  0  0  0
   -3.2040    2.2291   -3.8064 H   0  0  0  0  0  0  0  0  0  0  0  0
   -5.6695    2.4662   -3.9828 H   0  0  0  0  0  0  0  0  0  0  0  0
   -7.1299    1.4197   -2.3032 H   0  0  0  0  0  0  0  0  0  0  0  0
   -7.4279    0.0928   -0.2939 H   0  0  0  0  0  0  0  0  0  0  0  0
   -7.8056   -1.2364    1.7012 H   0  0  0  0  0  0  0  0  0  0  0  0
   -6.9486   -2.5550    3.5912 H   0  0  0  0  0  0  0  0  0  0  0  0
   -4.5051   -2.8683    3.8826 H   0  0  0  0  0  0  0  0  0  0  0  0
   -2.9339   -1.8700    2.2978 H   0  0  0  0  0  0  0  0  0  0  0  0
  1  2  1  0
  2  3  1  0
  3  4  1  0
  4  5  1  0
  5  6  2  0
  6  7  1  0
  7  8  2  0
  8  9  1  0
  9 10  2  0
  2 11  1  0
 11 12  1  0
 12 13  2  0
 12 14  1  0
 14 15  1  0
 15 16  1  0
 16 17  2  0
 16 18  1  0
 18 19  1  0
 19 20  2  0
 20 21  1  0
 21 22  2  0
 22 23  1  0
 23 24  2  0
 24 25  1  0
 25 26  2  0
 26 27  1  0
 27 28  2  0
 28 29  1  0
 29 30  2  0
 30 31  1  0
 10  5  1  0
 31 18  2  0
 24 19  1  0
 31 26  1  0
  1 32  1  0
  1 33  1  0
  1 34  1  0
  2 35  1  0
  3 36  1  0
  3 37  1  0
  4 38  1  0
  4 39  1  0
  6 40  1  0
  7 41  1  0
  8 42  1  0
  9 43  1  0
 10 44  1  0
 11 45  1  0
 14 46  1  0
 14 47  1  0
 20 48  1  0
 21 49  1  0
 22 50  1  0
 23 51  1  0
 25 52  1  0
 27 53  1  0
 28 54  1  0
 29 55  1  0
 30 56  1  0
M  END
$$$$
