
     RDKit          3D

 34 36  0  0  0  0  0  0  0  0999 V2000
    4.3017   -2.7143    0.3417 C   0  0  0  0  0  0  0  0  0  0  0  0
    3.9454   -1.2702    0.1228 C   0  0  0  0  0  0  0  0  0  0  0  0
    4.2670   -0.6305   -1.0605 C   0  0  0  0  0  0  0  0  0  0  0  0
    3.8959    0.6952   -1.1547 C   0  0  0  0  0  0  0  0  0  0  0  0
    3.2455    1.3575   -0.1794 N   0  0  0  0  0  0  0  0  0  0  0  0
    2.9708    0.6451    0.9323 C   0  0  0  0  0  0  0  0  0  0  0  0
    2.0212    1.4546    2.2016 S   0  0  0  0  0  0  0  0  0  0  0  0
    0.4282    0.8828    1.7630 C   0  0  0  0  0  0  0  0  0  0  0  0
   -0.2854   -0.1061    2.4556 C   0  0  0  0  0  0  0  0  0  0  0  0
   -1.4753   -0.2988    1.7861 C   0  0  0  0  0  0  0  0  0  0  0  0
   -2.4175   -1.2113    2.0363 O   0  0  0  0  0  0  0  0  0  0  0  0
   -1.5391    0.5976    0.7009 N   0  0  0  0  0  0  0  0  0  0  0  0
   -2.6249    0.7299   -0.2375 C   0  0  0  0  0  0  0  0  0  0  0  0
   -2.4116    1.2578   -1.5206 C   0  0  0  0  0  0  0  0  0  0  0  0
   -3.4671    1.3730   -2.4330 C   0  0  0  0  0  0  0  0  0  0  0  0
   -4.7487    0.9732   -2.0676 C   0  0  0  0  0  0  0  0  0  0  0  0
   -6.1676    1.1120   -3.3059 Br  0  0  0  0  0  0  0  0  0  0  0  0
   -4.9824    0.4458   -0.7992 C   0  0  0  0  0  0  0  0  0  0  0  0
   -3.9251    0.3258    0.1119 C   0  0  0  0  0  0  0  0  0  0  0  0
   -0.3300    1.3109    0.6928 C   0  0  0  0  0  0  0  0  0  0  0  0
   -0.0458    2.2628   -0.2035 O   0  0  0  0  0  0  0  0  0  0  0  0
    3.3050   -0.6442    1.1327 N   0  0  0  0  0  0  0  0  0  0  0  0
    5.3834   -2.8597    0.2581 H   0  0  0  0  0  0  0  0  0  0  0  0
    3.9880   -3.0439    1.3435 H   0  0  0  0  0  0  0  0  0  0  0  0
    3.7963   -3.3439   -0.4004 H   0  0  0  0  0  0  0  0  0  0  0  0
    4.7851   -1.1349   -1.8682 H   0  0  0  0  0  0  0  0  0  0  0  0
    4.1181    1.2769   -2.0481 H   0  0  0  0  0  0  0  0  0  0  0  0
    0.0470   -0.6554    3.3286 H   0  0  0  0  0  0  0  0  0  0  0  0
   -2.1098   -1.7569    2.7840 H   0  0  0  0  0  0  0  0  0  0  0  0
   -1.4247    1.5568   -1.8621 H   0  0  0  0  0  0  0  0  0  0  0  0
   -3.2715    1.7740   -3.4267 H   0  0  0  0  0  0  0  0  0  0  0  0
   -5.9798    0.1306   -0.5006 H   0  0  0  0  0  0  0  0  0  0  0  0
   -4.1619   -0.0540    1.1031 H   0  0  0  0  0  0  0  0  0  0  0  0
    0.8696    2.5570   -0.0267 H   0  0  0  0  0  0  0  0  0  0  0  0
  1  2  1  0
  2  3  2  0
  3  4  1  0
  4  5  2  0
  5  6  1  0
  6  7  1  0
  7  8  1  0
  8  9  1  0
  9 10  2  0
 10 11  1  0
 10 12  1  0
 12 13  1  0
 13 14  2  0
 14 15  1  0
 15 16  2  0
 16 17  1  0
 16 18  1  0
 18 19  2  0
 12 20  1  0
 20 21  1  0
  6 22  2  0
 22  2  1  0
 20  8  2  0
 19 13  1  0
  1 23  1  0
  1 24  1  0
  1 25  1  0
  3 26  1  0
  4 27  1  0
  9 28  1  0
 11 29  1  0
 14 30  1  0
 15 31  1  0
 18 32  1  0
 19 33  1  0
 21 34  1  0
M  END
$$$$
