
     RDKit          3D

 36 37  0  0  0  0  0  0  0  0999 V2000
   -4.3986    1.2291   -2.6104 C   0  0  0  0  0  0  0  0  0  0  0  0
   -3.9527    0.8804   -1.2740 N   0  0  0  0  0  0  0  0  0  0  0  0
   -4.5164    1.5613   -0.2032 C   0  0  0  0  0  0  0  0  0  0  0  0
   -5.3654    2.4415   -0.3296 O   0  0  0  0  0  0  0  0  0  0  0  0
   -4.0317    1.1859    1.1431 C   0  0  0  0  0  0  0  0  0  0  0  0
   -4.5868    1.7987    2.2958 C   0  0  0  0  0  0  0  0  0  0  0  0
   -4.9998    2.2598    3.2776 N   0  0  0  0  0  0  0  0  0  0  0  0
   -3.0604    0.2726    1.2378 C   0  0  0  0  0  0  0  0  0  0  0  0
   -2.5023   -0.3301    0.1319 N   0  0  0  0  0  0  0  0  0  0  0  0
   -1.3994   -1.2821    0.3128 C   0  0  0  0  0  0  0  0  0  0  0  0
   -0.0191   -0.6259    0.1420 C   0  0  0  0  0  0  0  0  0  0  0  0
    1.0339   -1.6215    0.3458 N   0  0  0  0  0  0  0  0  0  0  0  0
    2.3465   -1.1060    0.3264 C   0  0  0  0  0  0  0  0  0  0  0  0
    2.5308    0.2334    0.3845 N   0  0  0  0  0  0  0  0  0  0  0  0
    3.7983    0.7111    0.4201 C   0  0  0  0  0  0  0  0  0  0  0  0
    4.9310   -0.0865    0.4027 C   0  0  0  0  0  0  0  0  0  0  0  0
    6.2909    0.5339    0.4698 C   0  0  0  0  0  0  0  0  0  0  0  0
    6.6780    0.7929    1.7476 F   0  0  0  0  0  0  0  0  0  0  0  0
    6.3664    1.7200   -0.1936 F   0  0  0  0  0  0  0  0  0  0  0  0
    7.2634   -0.2543   -0.0652 F   0  0  0  0  0  0  0  0  0  0  0  0
    4.7398   -1.4688    0.3612 C   0  0  0  0  0  0  0  0  0  0  0  0
    3.4437   -1.9838    0.3252 C   0  0  0  0  0  0  0  0  0  0  0  0
    3.2381   -3.6979    0.2574 Cl  0  0  0  0  0  0  0  0  0  0  0  0
   -2.8986   -0.0233   -1.1688 C   0  0  0  0  0  0  0  0  0  0  0  0
   -2.3399   -0.5141   -2.1498 O   0  0  0  0  0  0  0  0  0  0  0  0
   -4.3536    0.3584   -3.2718 H   0  0  0  0  0  0  0  0  0  0  0  0
   -5.4235    1.6107   -2.6026 H   0  0  0  0  0  0  0  0  0  0  0  0
   -3.7328    2.0045   -3.0025 H   0  0  0  0  0  0  0  0  0  0  0  0
   -2.6651   -0.0270    2.2071 H   0  0  0  0  0  0  0  0  0  0  0  0
   -1.5130   -2.0918   -0.4194 H   0  0  0  0  0  0  0  0  0  0  0  0
   -1.4805   -1.7503    1.3022 H   0  0  0  0  0  0  0  0  0  0  0  0
    0.0648    0.1839    0.8780 H   0  0  0  0  0  0  0  0  0  0  0  0
    0.0668   -0.1842   -0.8583 H   0  0  0  0  0  0  0  0  0  0  0  0
    0.9828   -2.3854   -0.3274 H   0  0  0  0  0  0  0  0  0  0  0  0
    3.8695    1.7968    0.4663 H   0  0  0  0  0  0  0  0  0  0  0  0
    5.5950   -2.1417    0.3583 H   0  0  0  0  0  0  0  0  0  0  0  0
  1  2  1  0
  2  3  1  0
  3  4  2  0
  3  5  1  0
  5  6  1  0
  6  7  3  0
  5  8  2  0
  8  9  1  0
  9 10  1  0
 10 11  1  0
 11 12  1  0
 12 13  1  0
 13 14  2  0
 14 15  1  0
 15 16  2  0
 16 17  1  0
 17 18  1  0
 17 19  1  0
 17 20  1  0
 16 21  1  0
 21 22  2  0
 22 23  1  0
  9 24  1  0
 24 25  2  0
 24  2  1  0
 22 13  1  0
  1 26  1  0
  1 27  1  0
  1 28  1  0
  8 29  1  0
 10 30  1  0
 10 31  1  0
 11 32  1  0
 11 33  1  0
 12 34  1  0
 15 35  1  0
 21 36  1  0
M  END
$$$$
