
     RDKit          3D

 43 45  0  0  0  0  0  0  0  0999 V2000
   -1.9789   -2.8749    2.2016 C   0  0  0  0  0  0  0  0  0  0  0  0
   -0.8377   -2.9818    1.2241 C   0  0  0  0  0  0  0  0  0  0  0  0
   -0.7373   -3.9292    0.4453 O   0  0  0  0  0  0  0  0  0  0  0  0
    0.1641   -1.8901    1.2302 C   0  0  0  0  0  0  0  0  0  0  0  0
   -0.0400   -0.7860    0.4740 C   0  0  0  0  0  0  0  0  0  0  0  0
   -1.0849   -0.5567   -0.4235 N   0  0  0  0  0  0  0  0  0  0  0  0
   -1.5965   -1.5898   -1.3571 C   0  0  0  0  0  0  0  0  0  0  0  0
   -2.1679   -0.9361   -2.6361 C   0  0  0  0  0  0  0  0  0  0  0  0
   -3.2172    0.0644   -2.3405 N   0  0  0  0  0  0  0  0  0  0  0  0
   -3.7047    0.6791   -3.5733 C   0  0  0  0  0  0  0  0  0  0  0  0
   -2.6743    1.0862   -1.4228 C   0  0  0  0  0  0  0  0  0  0  0  0
   -2.1065    0.4743   -0.1233 C   0  0  0  0  0  0  0  0  0  0  0  0
    0.8799    0.2308    0.5876 N   0  0  0  0  0  0  0  0  0  0  0  0
    2.0422    0.1121    1.3003 C   0  0  0  0  0  0  0  0  0  0  0  0
    3.0740    1.1939    1.2202 C   0  0  0  0  0  0  0  0  0  0  0  0
    4.4071    0.8982    1.5325 C   0  0  0  0  0  0  0  0  0  0  0  0
    5.3845    1.8922    1.4563 C   0  0  0  0  0  0  0  0  0  0  0  0
    5.0345    3.1863    1.0745 C   0  0  0  0  0  0  0  0  0  0  0  0
    3.7072    3.4909    0.7739 C   0  0  0  0  0  0  0  0  0  0  0  0
    2.7258    2.4989    0.8477 C   0  0  0  0  0  0  0  0  0  0  0  0
    2.2900   -0.9213    2.0465 N   0  0  0  0  0  0  0  0  0  0  0  0
    1.3564   -1.9372    2.1498 C   0  0  0  0  0  0  0  0  0  0  0  0
    1.5994   -3.1663    3.2931 S   0  0  0  0  0  0  0  0  0  0  0  0
   -2.9199   -2.8075    1.6495 H   0  0  0  0  0  0  0  0  0  0  0  0
   -1.9851   -3.7571    2.8470 H   0  0  0  0  0  0  0  0  0  0  0  0
   -1.8798   -1.9849    2.8294 H   0  0  0  0  0  0  0  0  0  0  0  0
   -0.7868   -2.2667   -1.6530 H   0  0  0  0  0  0  0  0  0  0  0  0
   -2.3843   -2.1766   -0.8706 H   0  0  0  0  0  0  0  0  0  0  0  0
   -2.5854   -1.7288   -3.2684 H   0  0  0  0  0  0  0  0  0  0  0  0
   -1.3449   -0.4685   -3.1936 H   0  0  0  0  0  0  0  0  0  0  0  0
   -2.9118    1.2030   -4.1193 H   0  0  0  0  0  0  0  0  0  0  0  0
   -4.1358   -0.0797   -4.2356 H   0  0  0  0  0  0  0  0  0  0  0  0
   -4.5034    1.3963   -3.3539 H   0  0  0  0  0  0  0  0  0  0  0  0
   -3.4676    1.7926   -1.1504 H   0  0  0  0  0  0  0  0  0  0  0  0
   -1.8799    1.6592   -1.9201 H   0  0  0  0  0  0  0  0  0  0  0  0
   -1.6762    1.2805    0.4829 H   0  0  0  0  0  0  0  0  0  0  0  0
   -2.9139    0.0193    0.4642 H   0  0  0  0  0  0  0  0  0  0  0  0
    0.8166    0.8981   -0.1697 H   0  0  0  0  0  0  0  0  0  0  0  0
    4.6920   -0.1079    1.8340 H   0  0  0  0  0  0  0  0  0  0  0  0
    6.4175    1.6550    1.6986 H   0  0  0  0  0  0  0  0  0  0  0  0
    5.7967    3.9599    1.0195 H   0  0  0  0  0  0  0  0  0  0  0  0
    3.4365    4.5051    0.4905 H   0  0  0  0  0  0  0  0  0  0  0  0
    1.6962    2.7708    0.6383 H   0  0  0  0  0  0  0  0  0  0  0  0
  1  2  1  0
  2  3  2  0
  2  4  1  0
  4  5  2  0
  5  6  1  0
  6  7  1  0
  7  8  1  0
  8  9  1  0
  9 10  1  0
  9 11  1  0
 11 12  1  0
  5 13  1  0
 13 14  1  0
 14 15  1  0
 15 16  2  0
 16 17  1  0
 17 18  2  0
 18 19  1  0
 19 20  2  0
 14 21  2  0
 21 22  1  0
 22 23  2  0
 22  4  1  0
 12  6  1  0
 20 15  1  0
  1 24  1  0
  1 25  1  0
  1 26  1  0
  7 27  1  0
  7 28  1  0
  8 29  1  0
  8 30  1  0
 10 31  1  0
 10 32  1  0
 10 33  1  0
 11 34  1  0
 11 35  1  0
 12 36  1  0
 12 37  1  0
 13 38  1  0
 16 39  1  0
 17 40  1  0
 18 41  1  0
 19 42  1  0
 20 43  1  0
M  END
$$$$
