
     RDKit          3D

 55 58  0  0  0  0  0  0  0  0999 V2000
    2.9811   -4.4490    2.7031 C   0  0  0  0  0  0  0  0  0  0  0  0
    2.3410   -3.1499    2.2519 C   0  0  0  0  0  0  0  0  0  0  0  0
    3.0876   -2.6598    1.1403 O   0  0  0  0  0  0  0  0  0  0  0  0
    2.8848   -1.3451    0.8098 C   0  0  0  0  0  0  0  0  0  0  0  0
    1.6795   -0.6668    1.0266 C   0  0  0  0  0  0  0  0  0  0  0  0
    1.5365    0.6768    0.6502 C   0  0  0  0  0  0  0  0  0  0  0  0
    0.2800    1.4128    0.8525 C   0  0  0  0  0  0  0  0  0  0  0  0
   -0.9592    1.0305    0.4811 C   0  0  0  0  0  0  0  0  0  0  0  0
   -1.2243   -0.2593   -0.2284 C   0  0  0  0  0  0  0  0  0  0  0  0
   -1.8926   -1.1232    0.3437 O   0  0  0  0  0  0  0  0  0  0  0  0
   -0.7579   -0.4056   -1.5190 N   0  0  0  0  0  0  0  0  0  0  0  0
   -0.9704   -1.6789   -2.2065 C   0  0  0  0  0  0  0  0  0  0  0  0
    0.0194   -1.8517   -3.3592 C   0  0  0  0  0  0  0  0  0  0  0  0
   -0.0607   -0.8109   -4.3434 O   0  0  0  0  0  0  0  0  0  0  0  0
   -0.5434    0.4402   -3.8342 C   0  0  0  0  0  0  0  0  0  0  0  0
   -0.2081    0.6708   -2.3566 C   0  0  0  0  0  0  0  0  0  0  0  0
   -2.0653    1.8549    0.8393 C   0  0  0  0  0  0  0  0  0  0  0  0
   -2.1245    3.1474    1.1019 N   0  0  0  0  0  0  0  0  0  0  0  0
   -3.4389    3.4150    1.3964 C   0  0  0  0  0  0  0  0  0  0  0  0
   -4.0545    4.6272    1.7394 C   0  0  0  0  0  0  0  0  0  0  0  0
   -5.4290    4.6306    2.0011 C   0  0  0  0  0  0  0  0  0  0  0  0
   -6.1761    3.4522    1.9238 C   0  0  0  0  0  0  0  0  0  0  0  0
   -5.5792    2.2336    1.5803 C   0  0  0  0  0  0  0  0  0  0  0  0
   -4.2078    2.2609    1.3237 C   0  0  0  0  0  0  0  0  0  0  0  0
   -3.3132    1.2841    0.9729 N   0  0  0  0  0  0  0  0  0  0  0  0
    2.6297    1.3555    0.1010 C   0  0  0  0  0  0  0  0  0  0  0  0
    3.8289    0.6815   -0.1319 C   0  0  0  0  0  0  0  0  0  0  0  0
    5.1351    1.5588   -0.8383 Cl  0  0  0  0  0  0  0  0  0  0  0  0
    3.9495   -0.6749    0.1887 C   0  0  0  0  0  0  0  0  0  0  0  0
    5.1496   -1.3111   -0.0228 O   0  0  0  0  0  0  0  0  0  0  0  0
    5.0819   -2.1312   -1.1889 C   0  0  0  0  0  0  0  0  0  0  0  0
    4.0280   -4.2878    2.9844 H   0  0  0  0  0  0  0  0  0  0  0  0
    2.9793   -5.1842    1.8912 H   0  0  0  0  0  0  0  0  0  0  0  0
    2.4473   -4.8664    3.5594 H   0  0  0  0  0  0  0  0  0  0  0  0
    2.3591   -2.4341    3.0814 H   0  0  0  0  0  0  0  0  0  0  0  0
    1.3055   -3.3441    1.9489 H   0  0  0  0  0  0  0  0  0  0  0  0
    0.8373   -1.1781    1.4844 H   0  0  0  0  0  0  0  0  0  0  0  0
    0.4036    2.3694    1.3621 H   0  0  0  0  0  0  0  0  0  0  0  0
   -0.8876   -2.5050   -1.4926 H   0  0  0  0  0  0  0  0  0  0  0  0
   -1.9961   -1.6588   -2.5932 H   0  0  0  0  0  0  0  0  0  0  0  0
    1.0472   -1.8679   -2.9782 H   0  0  0  0  0  0  0  0  0  0  0  0
   -0.1586   -2.8010   -3.8731 H   0  0  0  0  0  0  0  0  0  0  0  0
   -0.1085    1.2344   -4.4490 H   0  0  0  0  0  0  0  0  0  0  0  0
   -1.6297    0.4632   -3.9831 H   0  0  0  0  0  0  0  0  0  0  0  0
   -0.5876    1.6443   -2.0324 H   0  0  0  0  0  0  0  0  0  0  0  0
    0.8789    0.6490   -2.2263 H   0  0  0  0  0  0  0  0  0  0  0  0
   -3.4695    5.5372    1.7961 H   0  0  0  0  0  0  0  0  0  0  0  0
   -5.9195    5.5634    2.2699 H   0  0  0  0  0  0  0  0  0  0  0  0
   -7.2427    3.4814    2.1336 H   0  0  0  0  0  0  0  0  0  0  0  0
   -6.1592    1.3185    1.5207 H   0  0  0  0  0  0  0  0  0  0  0  0
   -3.5220    0.2998    0.8469 H   0  0  0  0  0  0  0  0  0  0  0  0
    2.5453    2.4092   -0.1610 H   0  0  0  0  0  0  0  0  0  0  0  0
    4.5092   -3.0423   -0.9964 H   0  0  0  0  0  0  0  0  0  0  0  0
    4.6574   -1.5909   -2.0424 H   0  0  0  0  0  0  0  0  0  0  0  0
    6.1037   -2.4246   -1.4497 H   0  0  0  0  0  0  0  0  0  0  0  0
  1  2  1  0
  2  3  1  0
  3  4  1  0
  4  5  2  0
  5  6  1  0
  6  7  1  0
  7  8  2  3
  8  9  1  0
  9 10  2  0
  9 11  1  0
 11 12  1  0
 12 13  1  0
 13 14  1  0
 14 15  1  0
 15 16  1  0
  8 17  1  0
 17 18  2  0
 18 19  1  0
 19 20  2  0
 20 21  1  0
 21 22  2  0
 22 23  1  0
 23 24  2  0
 24 25  1  0
  6 26  2  0
 26 27  1  0
 27 28  1  0
 27 29  2  0
 29 30  1  0
 30 31  1  0
 29  4  1  0
 16 11  1  0
 25 17  1  0
 24 19  1  0
  1 32  1  0
  1 33  1  0
  1 34  1  0
  2 35  1  0
  2 36  1  0
  5 37  1  0
  7 38  1  0
 12 39  1  0
 12 40  1  0
 13 41  1  0
 13 42  1  0
 15 43  1  0
 15 44  1  0
 16 45  1  0
 16 46  1  0
 20 47  1  0
 21 48  1  0
 22 49  1  0
 23 50  1  0
 25 51  1  0
 26 52  1  0
 31 53  1  0
 31 54  1  0
 31 55  1  0
M  END
$$$$
