
     RDKit          3D

 46 49  0  0  0  0  0  0  0  0999 V2000
   -3.5257   -1.3831   -1.7255 O   0  0  0  0  0  0  0  0  0  0  0  0
   -3.5287   -0.5249   -0.8494 C   0  0  0  0  0  0  0  0  0  0  0  0
   -2.4082    0.0585   -0.2873 N   0  0  0  0  0  0  0  0  0  0  0  0
   -1.0552   -0.2018   -0.5931 C   0  0  0  0  0  0  0  0  0  0  0  0
   -0.6281   -1.1286   -1.5459 C   0  0  0  0  0  0  0  0  0  0  0  0
    0.7388   -1.3256   -1.7869 C   0  0  0  0  0  0  0  0  0  0  0  0
    1.6999   -0.6014   -1.0840 C   0  0  0  0  0  0  0  0  0  0  0  0
    3.0536   -0.8327   -1.3484 N   0  0  0  0  0  0  0  0  0  0  0  0
    3.9347   -0.1351   -0.7068 C   0  0  0  0  0  0  0  0  0  0  0  0
    3.6185    0.8327    0.2307 N   0  0  0  0  0  0  0  0  0  0  0  0
    2.2992    1.0787    0.5958 C   0  0  0  0  0  0  0  0  0  0  0  0
    1.9571    1.8640    1.4764 O   0  0  0  0  0  0  0  0  0  0  0  0
    1.2708    0.3212   -0.1372 C   0  0  0  0  0  0  0  0  0  0  0  0
   -0.0928    0.5257    0.1148 C   0  0  0  0  0  0  0  0  0  0  0  0
    4.6716    1.5520    0.9389 C   0  0  0  0  0  0  0  0  0  0  0  0
    5.3656    0.6845    1.9885 C   0  0  0  0  0  0  0  0  0  0  0  0
    5.5909   -0.7744    1.5892 C   0  0  0  0  0  0  0  0  0  0  0  0
    6.1778   -0.9940    0.1953 C   0  0  0  0  0  0  0  0  0  0  0  0
    5.4044   -0.4005   -0.9851 C   0  0  0  0  0  0  0  0  0  0  0  0
   -4.8575   -0.0627   -0.3402 C   0  0  0  0  0  0  0  0  0  0  0  0
   -6.0184   -0.6293   -0.8974 C   0  0  0  0  0  0  0  0  0  0  0  0
   -7.2840   -0.2228   -0.4481 C   0  0  0  0  0  0  0  0  0  0  0  0
   -8.4939   -0.8186   -1.0325 N   0  0  0  0  0  4  0  0  0  0  0  0
   -8.3471   -1.6973   -1.8918 O   0  0  0  0  0  0  0  0  0  0  0  0
   -9.5887   -0.4044   -0.6272 O   0  0  0  0  0  1  0  0  0  0  0  0
   -7.4065    0.7475    0.5557 C   0  0  0  0  0  0  0  0  0  0  0  0
   -6.2555    1.3092    1.1085 C   0  0  0  0  0  0  0  0  0  0  0  0
   -4.9971    0.9042    0.6610 C   0  0  0  0  0  0  0  0  0  0  0  0
   -3.9219    1.4740    1.2256 F   0  0  0  0  0  0  0  0  0  0  0  0
   -2.5613    0.7586    0.4319 H   0  0  0  0  0  0  0  0  0  0  0  0
   -1.3301   -1.7217   -2.1239 H   0  0  0  0  0  0  0  0  0  0  0  0
    1.0535   -2.0535   -2.5309 H   0  0  0  0  0  0  0  0  0  0  0  0
   -0.3867    1.2560    0.8650 H   0  0  0  0  0  0  0  0  0  0  0  0
    5.4050    1.9151    0.2116 H   0  0  0  0  0  0  0  0  0  0  0  0
    4.2691    2.4489    1.4234 H   0  0  0  0  0  0  0  0  0  0  0  0
    4.7641    0.6894    2.9066 H   0  0  0  0  0  0  0  0  0  0  0  0
    6.3243    1.1491    2.2490 H   0  0  0  0  0  0  0  0  0  0  0  0
    6.2566   -1.2373    2.3285 H   0  0  0  0  0  0  0  0  0  0  0  0
    4.6423   -1.3212    1.6692 H   0  0  0  0  0  0  0  0  0  0  0  0
    6.2582   -2.0778    0.0395 H   0  0  0  0  0  0  0  0  0  0  0  0
    7.2068   -0.6148    0.1678 H   0  0  0  0  0  0  0  0  0  0  0  0
    5.8734    0.5343   -1.3117 H   0  0  0  0  0  0  0  0  0  0  0  0
    5.4886   -1.0789   -1.8435 H   0  0  0  0  0  0  0  0  0  0  0  0
   -5.9257   -1.3836   -1.6792 H   0  0  0  0  0  0  0  0  0  0  0  0
   -8.3819    1.0725    0.9144 H   0  0  0  0  0  0  0  0  0  0  0  0
   -6.3298    2.0629    1.8885 H   0  0  0  0  0  0  0  0  0  0  0  0
  1  2  2  0
  2  3  1  0
  3  4  1  0
  4  5  2  0
  5  6  1  0
  6  7  2  0
  7  8  1  0
  8  9  2  0
  9 10  1  0
 10 11  1  0
 11 12  2  0
 11 13  1  0
 13 14  2  0
 10 15  1  0
 15 16  1  0
 16 17  1  0
 17 18  1  0
 18 19  1  0
  2 20  1  0
 20 21  2  0
 21 22  1  0
 22 23  1  0
 23 24  2  0
 23 25  1  0
 22 26  2  0
 26 27  1  0
 27 28  2  0
 28 29  1  0
 14  4  1  0
 28 20  1  0
 13  7  1  0
 19  9  1  0
  3 30  1  0
  5 31  1  0
  6 32  1  0
 14 33  1  0
 15 34  1  0
 15 35  1  0
 16 36  1  0
 16 37  1  0
 17 38  1  0
 17 39  1  0
 18 40  1  0
 18 41  1  0
 19 42  1  0
 19 43  1  0
 21 44  1  0
 26 45  1  0
 27 46  1  0
M  CHG  2  23   1  25  -1
M  END
$$$$
