
     RDKit          3D

 38 40  0  0  0  0  0  0  0  0999 V2000
   -2.9813    2.0127    1.7649 C   0  0  0  0  0  0  0  0  0  0  0  0
   -3.5603    1.0773    0.7576 C   0  0  0  0  0  0  0  0  0  0  0  0
   -4.9012    0.8125    0.5548 C   0  0  0  0  0  0  0  0  0  0  0  0
   -4.9994   -0.2046   -0.4076 C   0  0  0  0  0  0  0  0  0  0  0  0
   -3.7188   -0.5385   -0.8050 C   0  0  0  0  0  0  0  0  0  0  0  0
   -3.3462   -1.4932   -1.8897 C   0  0  0  0  0  0  0  0  0  0  0  0
   -2.8176    0.2447   -0.0816 N   0  0  0  0  0  0  0  0  0  0  0  0
   -1.4007    0.2040   -0.1813 C   0  0  0  0  0  0  0  0  0  0  0  0
   -0.6385    1.3658   -0.1979 C   0  0  0  0  0  0  0  0  0  0  0  0
    0.7514    1.2679   -0.3019 C   0  0  0  0  0  0  0  0  0  0  0  0
    1.3696    0.0184   -0.3751 C   0  0  0  0  0  0  0  0  0  0  0  0
    2.7505   -0.0876   -0.5026 N   0  0  0  0  0  0  0  0  0  0  0  0
    3.2712   -1.4463   -0.7300 C   0  0  0  0  0  0  0  0  0  0  0  0
    4.7986   -1.3836   -0.8872 C   0  0  0  0  0  0  0  0  0  0  0  0
    5.4838   -0.8564    0.2613 O   0  0  0  0  0  0  0  0  0  0  0  0
    4.6433   -0.0547    1.1025 C   0  0  0  0  0  0  0  0  0  0  0  0
    3.6076    0.7778    0.3269 C   0  0  0  0  0  0  0  0  0  0  0  0
    0.6241   -1.1081   -0.3739 N   0  0  0  0  0  0  0  0  0  0  0  0
   -0.7244   -1.0005   -0.2712 C   0  0  0  0  0  0  0  0  0  0  0  0
   -2.1020    1.5872    2.2577 H   0  0  0  0  0  0  0  0  0  0  0  0
   -3.7142    2.2273    2.5508 H   0  0  0  0  0  0  0  0  0  0  0  0
   -2.7138    2.9661    1.3003 H   0  0  0  0  0  0  0  0  0  0  0  0
   -5.7224    1.2943    1.0708 H   0  0  0  0  0  0  0  0  0  0  0  0
   -5.9120   -0.6382   -0.7977 H   0  0  0  0  0  0  0  0  0  0  0  0
   -4.1940   -1.6506   -2.5660 H   0  0  0  0  0  0  0  0  0  0  0  0
   -2.5195   -1.1154   -2.4986 H   0  0  0  0  0  0  0  0  0  0  0  0
   -3.0768   -2.4679   -1.4727 H   0  0  0  0  0  0  0  0  0  0  0  0
   -1.0947    2.3502   -0.1898 H   0  0  0  0  0  0  0  0  0  0  0  0
    1.3401    2.1772   -0.3627 H   0  0  0  0  0  0  0  0  0  0  0  0
    2.8393   -1.8738   -1.6426 H   0  0  0  0  0  0  0  0  0  0  0  0
    3.0221   -2.0967    0.1183 H   0  0  0  0  0  0  0  0  0  0  0  0
    5.2007   -2.3836   -1.0784 H   0  0  0  0  0  0  0  0  0  0  0  0
    5.0659   -0.7532   -1.7433 H   0  0  0  0  0  0  0  0  0  0  0  0
    4.1439   -0.7220    1.8150 H   0  0  0  0  0  0  0  0  0  0  0  0
    5.2958    0.6066    1.6817 H   0  0  0  0  0  0  0  0  0  0  0  0
    3.0364    1.3696    1.0512 H   0  0  0  0  0  0  0  0  0  0  0  0
    4.1281    1.4720   -0.3429 H   0  0  0  0  0  0  0  0  0  0  0  0
   -1.2346   -1.9569   -0.2233 H   0  0  0  0  0  0  0  0  0  0  0  0
  1  2  1  0
  2  3  2  0
  3  4  1  0
  4  5  2  0
  5  6  1  0
  5  7  1  0
  7  8  1  0
  8  9  2  0
  9 10  1  0
 10 11  2  0
 11 12  1  0
 12 13  1  0
 13 14  1  0
 14 15  1  0
 15 16  1  0
 16 17  1  0
 11 18  1  0
 18 19  2  0
  7  2  1  0
 19  8  1  0
 17 12  1  0
  1 20  1  0
  1 21  1  0
  1 22  1  0
  3 23  1  0
  4 24  1  0
  6 25  1  0
  6 26  1  0
  6 27  1  0
  9 28  1  0
 10 29  1  0
 13 30  1  0
 13 31  1  0
 14 32  1  0
 14 33  1  0
 16 34  1  0
 16 35  1  0
 17 36  1  0
 17 37  1  0
 19 38  1  0
M  END
$$$$
