
     RDKit          3D

 45 48  0  0  0  0  0  0  0  0999 V2000
   -4.8621   -0.9137   -3.4323 C   0  0  0  0  0  0  0  0  0  0  0  0
   -3.9594   -0.6730   -2.3625 O   0  0  0  0  0  0  0  0  0  0  0  0
   -4.4990   -0.2730   -1.1612 C   0  0  0  0  0  0  0  0  0  0  0  0
   -5.8004    0.2321   -1.0316 C   0  0  0  0  0  0  0  0  0  0  0  0
   -6.2917    0.6114    0.2172 C   0  0  0  0  0  0  0  0  0  0  0  0
   -5.4861    0.4960    1.3427 C   0  0  0  0  0  0  0  0  0  0  0  0
   -4.1845    0.0038    1.2221 C   0  0  0  0  0  0  0  0  0  0  0  0
   -3.6597   -0.3906   -0.0218 C   0  0  0  0  0  0  0  0  0  0  0  0
   -2.3372   -0.8645   -0.1484 N   0  0  0  0  0  0  0  0  0  0  0  0
   -1.4491    0.1317   -0.7918 C   0  0  0  0  0  0  0  0  0  0  0  0
    0.0416   -0.2365   -0.6483 C   0  0  0  0  0  0  0  0  0  0  0  0
    0.4471   -0.4662    0.7484 N   0  0  0  0  0  0  0  0  0  0  0  0
    1.7288   -0.2759    1.2681 C   0  0  0  0  0  0  0  0  0  0  0  0
    1.9121   -0.2740    2.4882 O   0  0  0  0  0  0  0  0  0  0  0  0
    2.8785   -0.0789    0.3702 C   0  0  0  0  0  0  0  0  0  0  0  0
    4.1561    0.4070    0.7621 C   0  0  0  0  0  0  0  0  0  0  0  0
    4.9348    0.3949   -0.3754 C   0  0  0  0  0  0  0  0  0  0  0  0
    6.3057    0.7926   -0.5453 C   0  0  0  0  0  0  0  0  0  0  0  0
    7.1653    1.2992    0.4122 C   0  0  0  0  0  0  0  0  0  0  0  0
    8.4610    1.5880   -0.1108 C   0  0  0  0  0  0  0  0  0  0  0  0
    8.5513    1.2920   -1.4514 C   0  0  0  0  0  0  0  0  0  0  0  0
    7.0833    0.6730   -2.0698 S   0  0  0  0  0  0  0  0  0  0  0  0
    4.1567   -0.0903   -1.3924 O   0  0  0  0  0  0  0  0  0  0  0  0
    2.8938   -0.3969   -0.9323 N   0  0  0  0  0  0  0  0  0  0  0  0
   -0.6236   -0.8645    1.6674 C   0  0  0  0  0  0  0  0  0  0  0  0
   -1.7429   -1.6395    0.9562 C   0  0  0  0  0  0  0  0  0  0  0  0
   -4.2993   -1.3835   -4.2447 H   0  0  0  0  0  0  0  0  0  0  0  0
   -5.2725    0.0261   -3.8152 H   0  0  0  0  0  0  0  0  0  0  0  0
   -5.6597   -1.6043   -3.1384 H   0  0  0  0  0  0  0  0  0  0  0  0
   -6.4537    0.3486   -1.8892 H   0  0  0  0  0  0  0  0  0  0  0  0
   -7.3018    1.0016    0.3085 H   0  0  0  0  0  0  0  0  0  0  0  0
   -5.8633    0.7987    2.3162 H   0  0  0  0  0  0  0  0  0  0  0  0
   -3.5766   -0.0410    2.1199 H   0  0  0  0  0  0  0  0  0  0  0  0
   -1.6029    1.1169   -0.3301 H   0  0  0  0  0  0  0  0  0  0  0  0
   -1.6787    0.2233   -1.8589 H   0  0  0  0  0  0  0  0  0  0  0  0
    0.2500   -1.1611   -1.1989 H   0  0  0  0  0  0  0  0  0  0  0  0
    0.6359    0.5753   -1.0773 H   0  0  0  0  0  0  0  0  0  0  0  0
    4.4492    0.7160    1.7549 H   0  0  0  0  0  0  0  0  0  0  0  0
    6.8882    1.4603    1.4469 H   0  0  0  0  0  0  0  0  0  0  0  0
    9.2830    1.9915    0.4678 H   0  0  0  0  0  0  0  0  0  0  0  0
    9.4083    1.4086   -2.1006 H   0  0  0  0  0  0  0  0  0  0  0  0
   -0.2078   -1.4793    2.4731 H   0  0  0  0  0  0  0  0  0  0  0  0
   -1.0167    0.0542    2.1184 H   0  0  0  0  0  0  0  0  0  0  0  0
   -2.4898   -1.9874    1.6788 H   0  0  0  0  0  0  0  0  0  0  0  0
   -1.3125   -2.5488    0.5165 H   0  0  0  0  0  0  0  0  0  0  0  0
  1  2  1  0
  2  3  1  0
  3  4  2  0
  4  5  1  0
  5  6  2  0
  6  7  1  0
  7  8  2  0
  8  9  1  0
  9 10  1  0
 10 11  1  0
 11 12  1  0
 12 13  1  0
 13 14  2  0
 13 15  1  0
 15 16  1  0
 16 17  2  0
 17 18  1  0
 18 19  2  0
 19 20  1  0
 20 21  2  0
 21 22  1  0
 17 23  1  0
 23 24  1  0
 12 25  1  0
 25 26  1  0
  8  3  1  0
 26  9  1  0
 24 15  2  0
 22 18  1  0
  1 27  1  0
  1 28  1  0
  1 29  1  0
  4 30  1  0
  5 31  1  0
  6 32  1  0
  7 33  1  0
 10 34  1  0
 10 35  1  0
 11 36  1  0
 11 37  1  0
 16 38  1  0
 19 39  1  0
 20 40  1  0
 21 41  1  0
 25 42  1  0
 25 43  1  0
 26 44  1  0
 26 45  1  0
M  END
$$$$
