
     RDKit          3D

 47 49  0  0  0  0  0  0  0  0999 V2000
    7.9123   -0.3510   -0.5428 C   0  0  0  0  0  0  0  0  0  0  0  0
    7.2310   -0.0042    0.7696 C   0  0  0  0  0  0  0  0  0  0  0  0
    6.1918    0.9509    0.5644 O   0  0  0  0  0  0  0  0  0  0  0  0
    4.9308    0.5037    0.2904 C   0  0  0  0  0  0  0  0  0  0  0  0
    3.9582    1.5014    0.2418 C   0  0  0  0  0  0  0  0  0  0  0  0
    2.6201    1.1920   -0.0323 C   0  0  0  0  0  0  0  0  0  0  0  0
    2.2266   -0.1308   -0.2706 C   0  0  0  0  0  0  0  0  0  0  0  0
    0.8536   -0.4510   -0.5576 N   0  0  0  0  0  0  0  0  0  0  0  0
    0.3717   -1.5954   -1.2160 C   0  0  0  0  0  0  0  0  0  0  0  0
    1.1706   -2.5412   -1.7090 O   0  0  0  0  0  0  0  0  0  0  0  0
   -1.0047   -1.5177   -1.2969 C   0  0  0  0  0  0  0  0  0  0  0  0
   -1.3984   -0.3062   -0.7088 C   0  0  0  0  0  0  0  0  0  0  0  0
   -2.6603    0.2025   -0.5609 N   0  0  0  0  0  0  0  0  0  0  0  0
   -2.9676    1.3863   -1.3836 C   0  0  0  0  0  0  0  0  0  0  0  0
   -3.7807   -0.7534   -0.4562 C   0  0  0  0  0  0  0  0  0  0  0  0
   -4.9129   -0.1884    0.3746 C   0  0  0  0  0  0  0  0  0  0  0  0
   -4.6932    0.1850    1.7096 C   0  0  0  0  0  0  0  0  0  0  0  0
   -5.7349    0.6967    2.4841 C   0  0  0  0  0  0  0  0  0  0  0  0
   -7.0076    0.8372    1.9342 C   0  0  0  0  0  0  0  0  0  0  0  0
   -7.2399    0.4660    0.6108 C   0  0  0  0  0  0  0  0  0  0  0  0
   -6.1990   -0.0461   -0.1662 C   0  0  0  0  0  0  0  0  0  0  0  0
   -0.2676    0.3182   -0.2279 C   0  0  0  0  0  0  0  0  0  0  0  0
   -0.2176    1.4277    0.5119 O   0  0  0  0  0  0  0  0  0  0  0  0
    3.2107   -1.1277   -0.2258 C   0  0  0  0  0  0  0  0  0  0  0  0
    4.5503   -0.8130    0.0517 C   0  0  0  0  0  0  0  0  0  0  0  0
    8.2820    0.5555   -1.0334 H   0  0  0  0  0  0  0  0  0  0  0  0
    7.2181   -0.8279   -1.2411 H   0  0  0  0  0  0  0  0  0  0  0  0
    8.7550   -1.0274   -0.3736 H   0  0  0  0  0  0  0  0  0  0  0  0
    6.8868   -0.8924    1.3107 H   0  0  0  0  0  0  0  0  0  0  0  0
    7.9676    0.4768    1.4234 H   0  0  0  0  0  0  0  0  0  0  0  0
    4.2405    2.5370    0.4159 H   0  0  0  0  0  0  0  0  0  0  0  0
    1.9177    2.0180   -0.0844 H   0  0  0  0  0  0  0  0  0  0  0  0
    0.6091   -3.1972   -2.1577 H   0  0  0  0  0  0  0  0  0  0  0  0
   -1.6440   -2.2520   -1.7654 H   0  0  0  0  0  0  0  0  0  0  0  0
   -3.8556    1.9052   -1.0089 H   0  0  0  0  0  0  0  0  0  0  0  0
   -3.1496    1.0946   -2.4243 H   0  0  0  0  0  0  0  0  0  0  0  0
   -2.1497    2.1151   -1.3714 H   0  0  0  0  0  0  0  0  0  0  0  0
   -4.1315   -1.0298   -1.4590 H   0  0  0  0  0  0  0  0  0  0  0  0
   -3.4612   -1.6821    0.0360 H   0  0  0  0  0  0  0  0  0  0  0  0
   -3.7009    0.0803    2.1448 H   0  0  0  0  0  0  0  0  0  0  0  0
   -5.5522    0.9855    3.5158 H   0  0  0  0  0  0  0  0  0  0  0  0
   -7.8187    1.2358    2.5378 H   0  0  0  0  0  0  0  0  0  0  0  0
   -8.2337    0.5752    0.1841 H   0  0  0  0  0  0  0  0  0  0  0  0
   -6.3991   -0.3310   -1.1964 H   0  0  0  0  0  0  0  0  0  0  0  0
   -1.1559    1.6246    0.7033 H   0  0  0  0  0  0  0  0  0  0  0  0
    2.9683   -2.1757   -0.3699 H   0  0  0  0  0  0  0  0  0  0  0  0
    5.2636   -1.6294    0.0682 H   0  0  0  0  0  0  0  0  0  0  0  0
  1  2  1  0
  2  3  1  0
  3  4  1  0
  4  5  2  0
  5  6  1  0
  6  7  2  0
  7  8  1  0
  8  9  1  0
  9 10  1  0
  9 11  2  0
 11 12  1  0
 12 13  1  0
 13 14  1  0
 13 15  1  0
 15 16  1  0
 16 17  2  0
 17 18  1  0
 18 19  2  0
 19 20  1  0
 20 21  2  0
 12 22  2  0
 22 23  1  0
  7 24  1  0
 24 25  2  0
 25  4  1  0
 22  8  1  0
 21 16  1  0
  1 26  1  0
  1 27  1  0
  1 28  1  0
  2 29  1  0
  2 30  1  0
  5 31  1  0
  6 32  1  0
 10 33  1  0
 11 34  1  0
 14 35  1  0
 14 36  1  0
 14 37  1  0
 15 38  1  0
 15 39  1  0
 17 40  1  0
 18 41  1  0
 19 42  1  0
 20 43  1  0
 21 44  1  0
 23 45  1  0
 24 46  1  0
 25 47  1  0
M  END
$$$$
