
     RDKit          3D

 52 54  0  0  0  0  0  0  0  0999 V2000
   -7.8211   -0.5683    0.3632 C   0  0  0  0  0  0  0  0  0  0  0  0
   -7.2413    0.2753   -0.7720 C   0  0  0  0  0  0  0  0  0  0  0  0
   -7.0798   -0.5689   -2.0360 C   0  0  0  0  0  0  0  0  0  0  0  0
   -5.9345    0.9790   -0.3684 C   0  0  0  0  0  0  0  0  0  0  0  0
   -4.7702    0.0550   -0.0086 C   0  0  0  0  0  0  0  0  0  0  0  0
   -3.6550    0.8816    0.3355 O   0  0  0  0  0  0  0  0  0  0  0  0
   -2.5006    0.2495    0.7070 C   0  0  0  0  0  0  0  0  0  0  0  0
   -1.4580    1.1101    1.0678 C   0  0  0  0  0  0  0  0  0  0  0  0
   -0.2204    0.6019    1.4676 C   0  0  0  0  0  0  0  0  0  0  0  0
   -0.0180   -0.7805    1.4886 C   0  0  0  0  0  0  0  0  0  0  0  0
    1.2741   -1.3500    1.9342 C   0  0  0  0  0  0  0  0  0  0  0  0
    1.2466   -2.2021    2.8191 O   0  0  0  0  0  0  0  0  0  0  0  0
    2.4530   -0.8774    1.3551 N   0  0  0  0  0  0  0  0  0  0  0  0
    3.7056   -1.4624    1.8431 C   0  0  0  0  0  0  0  0  0  0  0  0
    4.9265   -0.5664    1.5751 C   0  0  0  0  0  0  0  0  0  0  0  0
    4.9675   -0.1344    0.1679 N   0  0  0  0  0  0  0  0  0  0  0  0
    6.1159    0.5936   -0.1591 C   0  0  0  0  0  0  0  0  0  0  0  0
    7.2283    0.4211    0.5770 N   0  0  0  0  0  0  0  0  0  0  0  0
    8.3321    1.1073    0.2251 C   0  0  0  0  0  0  0  0  0  0  0  0
    8.3809    1.9686   -0.8383 C   0  0  0  0  0  0  0  0  0  0  0  0
    7.2086    2.0881   -1.5360 C   0  0  0  0  0  0  0  0  0  0  0  0
    6.0821    1.4215   -1.2192 N   0  0  0  0  0  0  0  0  0  0  0  0
    3.7240    0.4765   -0.3247 C   0  0  0  0  0  0  0  0  0  0  0  0
    2.5166   -0.4357   -0.0466 C   0  0  0  0  0  0  0  0  0  0  0  0
   -1.0615   -1.6475    1.1541 C   0  0  0  0  0  0  0  0  0  0  0  0
   -2.2995   -1.1318    0.7557 C   0  0  0  0  0  0  0  0  0  0  0  0
   -7.1917   -1.4349    0.5892 H   0  0  0  0  0  0  0  0  0  0  0  0
   -7.9265    0.0265    1.2764 H   0  0  0  0  0  0  0  0  0  0  0  0
   -8.8144   -0.9432    0.0933 H   0  0  0  0  0  0  0  0  0  0  0  0
   -7.9704    1.0649   -0.9975 H   0  0  0  0  0  0  0  0  0  0  0  0
   -6.6517    0.0255   -2.8499 H   0  0  0  0  0  0  0  0  0  0  0  0
   -8.0523   -0.9438   -2.3733 H   0  0  0  0  0  0  0  0  0  0  0  0
   -6.4327   -1.4355   -1.8673 H   0  0  0  0  0  0  0  0  0  0  0  0
   -5.6165    1.6449   -1.1818 H   0  0  0  0  0  0  0  0  0  0  0  0
   -6.1306    1.6451    0.4825 H   0  0  0  0  0  0  0  0  0  0  0  0
   -5.0409   -0.5710    0.8485 H   0  0  0  0  0  0  0  0  0  0  0  0
   -4.5101   -0.5707   -0.8691 H   0  0  0  0  0  0  0  0  0  0  0  0
   -1.6179    2.1857    1.0461 H   0  0  0  0  0  0  0  0  0  0  0  0
    0.5725    1.2811    1.7685 H   0  0  0  0  0  0  0  0  0  0  0  0
    3.6312   -1.6601    2.9184 H   0  0  0  0  0  0  0  0  0  0  0  0
    3.8283   -2.4292    1.3386 H   0  0  0  0  0  0  0  0  0  0  0  0
    5.8201   -1.1427    1.8445 H   0  0  0  0  0  0  0  0  0  0  0  0
    4.8745    0.3139    2.2298 H   0  0  0  0  0  0  0  0  0  0  0  0
    9.2033    0.9312    0.8486 H   0  0  0  0  0  0  0  0  0  0  0  0
    9.2759    2.5096   -1.1078 H   0  0  0  0  0  0  0  0  0  0  0  0
    7.1314    2.7406   -2.4002 H   0  0  0  0  0  0  0  0  0  0  0  0
    3.5634    1.4439    0.1698 H   0  0  0  0  0  0  0  0  0  0  0  0
    3.7616    0.6452   -1.4079 H   0  0  0  0  0  0  0  0  0  0  0  0
    2.5878   -1.3451   -0.6572 H   0  0  0  0  0  0  0  0  0  0  0  0
    1.6003    0.0735   -0.3511 H   0  0  0  0  0  0  0  0  0  0  0  0
   -0.9122   -2.7238    1.2079 H   0  0  0  0  0  0  0  0  0  0  0  0
   -3.0842   -1.8355    0.4984 H   0  0  0  0  0  0  0  0  0  0  0  0
  1  2  1  0
  2  3  1  0
  2  4  1  0
  4  5  1  0
  5  6  1  0
  6  7  1  0
  7  8  2  0
  8  9  1  0
  9 10  2  0
 10 11  1  0
 11 12  2  0
 11 13  1  0
 13 14  1  0
 14 15  1  0
 15 16  1  0
 16 17  1  0
 17 18  2  0
 18 19  1  0
 19 20  2  0
 20 21  1  0
 21 22  2  0
 16 23  1  0
 23 24  1  0
 10 25  1  0
 25 26  2  0
 26  7  1  0
 24 13  1  0
 22 17  1  0
  1 27  1  0
  1 28  1  0
  1 29  1  0
  2 30  1  0
  3 31  1  0
  3 32  1  0
  3 33  1  0
  4 34  1  0
  4 35  1  0
  5 36  1  0
  5 37  1  0
  8 38  1  0
  9 39  1  0
 14 40  1  0
 14 41  1  0
 15 42  1  0
 15 43  1  0
 19 44  1  0
 20 45  1  0
 21 46  1  0
 23 47  1  0
 23 48  1  0
 24 49  1  0
 24 50  1  0
 25 51  1  0
 26 52  1  0
M  END
$$$$
