
     RDKit          3D

 21 21  0  0  0  0  0  0  0  0999 V2000
   -1.7603   -2.3125   -0.1598 C   0  0  0  0  0  0  0  0  0  0  0  0
   -0.4029   -1.9158   -0.3078 O   0  0  0  0  0  0  0  0  0  0  0  0
   -0.0953   -0.6039   -0.0631 C   0  0  0  0  0  0  0  0  0  0  0  0
   -0.9436    0.2873    0.6105 C   0  0  0  0  0  0  0  0  0  0  0  0
   -0.5379    1.5969    0.9139 C   0  0  0  0  0  0  0  0  0  0  0  0
   -1.4723    2.4825    1.4792 N   0  0  0  0  0  0  0  0  0  0  0  0
    0.7162    2.0331    0.4574 C   0  0  0  0  0  0  0  0  0  0  0  0
    1.3031    3.8146    0.7624 Br  0  0  0  0  0  0  0  0  0  0  0  0
    1.5770    1.1625   -0.2084 C   0  0  0  0  0  0  0  0  0  0  0  0
    1.1679   -0.1502   -0.4735 C   0  0  0  0  0  0  0  0  0  0  0  0
    2.1310   -1.0082   -1.1898 C   0  0  0  0  0  0  0  0  0  0  0  0
    3.3258   -1.0646   -0.9626 O   0  0  0  0  0  0  0  0  0  0  0  0
    1.5738   -1.6574   -2.2255 O   0  0  0  0  0  0  0  0  0  0  0  0
   -2.0533   -2.3139    0.8949 H   0  0  0  0  0  0  0  0  0  0  0  0
   -1.8507   -3.3379   -0.5309 H   0  0  0  0  0  0  0  0  0  0  0  0
   -2.4284   -1.6823   -0.7563 H   0  0  0  0  0  0  0  0  0  0  0  0
   -1.9348   -0.0218    0.9262 H   0  0  0  0  0  0  0  0  0  0  0  0
   -2.1474    2.0483    2.1000 H   0  0  0  0  0  0  0  0  0  0  0  0
   -1.0393    3.3087    1.8877 H   0  0  0  0  0  0  0  0  0  0  0  0
    2.5586    1.4985   -0.5354 H   0  0  0  0  0  0  0  0  0  0  0  0
    2.3127   -2.1641   -2.6192 H   0  0  0  0  0  0  0  0  0  0  0  0
  1  2  1  0
  2  3  1  0
  3  4  2  0
  4  5  1  0
  5  6  1  0
  5  7  2  0
  7  8  1  0
  7  9  1  0
  9 10  2  0
 10 11  1  0
 11 12  2  0
 11 13  1  0
 10  3  1  0
  1 14  1  0
  1 15  1  0
  1 16  1  0
  4 17  1  0
  6 18  1  0
  6 19  1  0
  9 20  1  0
 13 21  1  0
M  END
$$$$
