
     RDKit          3D

 44 47  0  0  0  0  0  0  0  0999 V2000
   -7.2750    0.2954   -0.5115 C   0  0  0  0  0  0  0  0  0  0  0  0
   -6.2023    0.9069    0.3766 C   0  0  0  0  0  0  0  0  0  0  0  0
   -4.8618    0.2512    0.1686 C   0  0  0  0  0  0  0  0  0  0  0  0
   -4.4924   -0.8680    0.9227 C   0  0  0  0  0  0  0  0  0  0  0  0
   -3.2546   -1.4905    0.7213 C   0  0  0  0  0  0  0  0  0  0  0  0
   -2.3688   -1.0073   -0.2408 C   0  0  0  0  0  0  0  0  0  0  0  0
   -1.1056   -1.5700   -0.5078 N   0  0  0  0  0  0  0  0  0  0  0  0
   -0.5102   -2.6629    0.1036 C   0  0  0  0  0  0  0  0  0  0  0  0
   -1.0167   -3.3723    0.9699 O   0  0  0  0  0  0  0  0  0  0  0  0
    0.8788   -2.9834   -0.4553 C   0  0  0  0  0  0  0  0  0  0  0  0
    1.8488   -1.9383   -0.1371 N   0  0  0  0  0  0  0  0  0  0  0  0
    2.6913   -2.1858    0.9465 N   0  0  0  0  0  0  0  0  0  0  0  0
    3.5871   -1.2962    1.2579 C   0  0  0  0  0  0  0  0  0  0  0  0
    3.7250   -0.1217    0.5309 N   0  0  0  0  0  0  0  0  0  0  0  0
    2.9205    0.1512   -0.5411 C   0  0  0  0  0  0  0  0  0  0  0  0
    3.2899    1.3739   -1.0564 C   0  0  0  0  0  0  0  0  0  0  0  0
    4.3648    1.8633   -0.2650 C   0  0  0  0  0  0  0  0  0  0  0  0
    5.1429    3.0364   -0.3039 C   0  0  0  0  0  0  0  0  0  0  0  0
    6.1531    3.2238    0.6450 C   0  0  0  0  0  0  0  0  0  0  0  0
    6.3939    2.2637    1.6234 C   0  0  0  0  0  0  0  0  0  0  0  0
    5.6359    1.0904    1.6844 C   0  0  0  0  0  0  0  0  0  0  0  0
    4.6234    0.9102    0.7272 C   0  0  0  0  0  0  0  0  0  0  0  0
    1.9030   -0.7822   -0.9306 C   0  0  0  0  0  0  0  0  0  0  0  0
    1.1206   -0.5843   -1.8597 O   0  0  0  0  0  0  0  0  0  0  0  0
   -2.7397    0.1092   -0.9997 C   0  0  0  0  0  0  0  0  0  0  0  0
   -3.9755    0.7322   -0.7999 C   0  0  0  0  0  0  0  0  0  0  0  0
   -7.4014   -0.7726   -0.3040 H   0  0  0  0  0  0  0  0  0  0  0  0
   -7.0225    0.4039   -1.5717 H   0  0  0  0  0  0  0  0  0  0  0  0
   -8.2361    0.7903   -0.3394 H   0  0  0  0  0  0  0  0  0  0  0  0
   -6.1224    1.9820    0.1746 H   0  0  0  0  0  0  0  0  0  0  0  0
   -6.4973    0.8177    1.4293 H   0  0  0  0  0  0  0  0  0  0  0  0
   -5.1658   -1.2696    1.6769 H   0  0  0  0  0  0  0  0  0  0  0  0
   -3.0162   -2.3529    1.3353 H   0  0  0  0  0  0  0  0  0  0  0  0
   -0.5608   -1.1064   -1.2357 H   0  0  0  0  0  0  0  0  0  0  0  0
    1.2236   -3.9354   -0.0366 H   0  0  0  0  0  0  0  0  0  0  0  0
    0.8046   -3.1008   -1.5424 H   0  0  0  0  0  0  0  0  0  0  0  0
    4.2576   -1.4717    2.1132 H   0  0  0  0  0  0  0  0  0  0  0  0
    2.8348    1.8622   -1.9094 H   0  0  0  0  0  0  0  0  0  0  0  0
    4.9624    3.7923   -1.0633 H   0  0  0  0  0  0  0  0  0  0  0  0
    6.7545    4.1296    0.6164 H   0  0  0  0  0  0  0  0  0  0  0  0
    7.1841    2.4292    2.3530 H   0  0  0  0  0  0  0  0  0  0  0  0
    5.8364    0.3523    2.4549 H   0  0  0  0  0  0  0  0  0  0  0  0
   -2.0720    0.5102   -1.7586 H   0  0  0  0  0  0  0  0  0  0  0  0
   -4.2399    1.5949   -1.4070 H   0  0  0  0  0  0  0  0  0  0  0  0
  1  2  1  0
  2  3  1  0
  3  4  2  0
  4  5  1  0
  5  6  2  0
  6  7  1  0
  7  8  1  0
  8  9  2  0
  8 10  1  0
 10 11  1  0
 11 12  1  0
 12 13  2  0
 13 14  1  0
 14 15  1  0
 15 16  2  0
 16 17  1  0
 17 18  2  0
 18 19  1  0
 19 20  2  0
 20 21  1  0
 21 22  2  0
 15 23  1  0
 23 24  2  0
  6 25  1  0
 25 26  2  0
 26  3  1  0
 23 11  1  0
 22 14  1  0
 22 17  1  0
  1 27  1  0
  1 28  1  0
  1 29  1  0
  2 30  1  0
  2 31  1  0
  4 32  1  0
  5 33  1  0
  7 34  1  0
 10 35  1  0
 10 36  1  0
 13 37  1  0
 16 38  1  0
 18 39  1  0
 19 40  1  0
 20 41  1  0
 21 42  1  0
 25 43  1  0
 26 44  1  0
M  END
$$$$
