
     RDKit          3D

 42 45  0  0  0  0  0  0  0  0999 V2000
    6.1132   -1.7256   -0.8952 C   0  0  0  0  0  0  0  0  0  0  0  0
    5.8451   -0.3499   -1.4809 C   0  0  0  0  0  0  0  0  0  0  0  0
    4.7994    0.3682   -0.6779 C   0  0  0  0  0  0  0  0  0  0  0  0
    3.5730   -0.0457   -0.5613 N   0  0  0  0  0  0  0  0  0  0  0  0
    2.8899    0.8387    0.2610 N   0  0  0  0  0  0  0  0  0  0  0  0
    1.5627    0.6624    0.6022 C   0  0  0  0  0  0  0  0  0  0  0  0
    0.8934   -0.3873    0.2206 N   0  0  0  0  0  0  0  0  0  0  0  0
    0.9741    1.7415    1.4635 C   0  0  0  0  0  0  0  0  0  0  0  0
   -0.3307    1.8676    1.7802 C   0  0  0  0  0  0  0  0  0  0  0  0
   -1.4308    1.0734    1.3426 C   0  0  0  0  0  0  0  0  0  0  0  0
   -2.3684    0.3737    2.1351 C   0  0  0  0  0  0  0  0  0  0  0  0
   -2.4021    0.2233    3.6128 C   0  0  0  0  0  0  0  0  0  0  0  0
   -3.3451   -0.1597    1.3927 N   0  0  0  0  0  0  0  0  0  0  0  0
   -2.9788    0.0747    0.0931 N   0  0  0  0  0  0  0  0  0  0  0  0
   -3.7156   -0.5630   -0.9511 C   0  0  0  0  0  0  0  0  0  0  0  0
   -4.9910   -1.0792   -0.6645 C   0  0  0  0  0  0  0  0  0  0  0  0
   -5.7416   -1.7136   -1.6577 C   0  0  0  0  0  0  0  0  0  0  0  0
   -5.2219   -1.8554   -2.9401 C   0  0  0  0  0  0  0  0  0  0  0  0
   -3.9477   -1.3737   -3.2275 C   0  0  0  0  0  0  0  0  0  0  0  0
   -3.1925   -0.7353   -2.2381 C   0  0  0  0  0  0  0  0  0  0  0  0
   -1.8994    0.9406    0.0581 C   0  0  0  0  0  0  0  0  0  0  0  0
   -1.4061    1.7821   -1.3490 Cl  0  0  0  0  0  0  0  0  0  0  0  0
    1.9130    2.7929    2.0195 C   0  0  0  0  0  0  0  0  0  0  0  0
    1.5158    3.6041    2.8489 O   0  0  0  0  0  0  0  0  0  0  0  0
    3.2162    2.8164    1.5667 N   0  0  0  0  0  0  0  0  0  0  0  0
    3.6071    1.8945    0.7631 C   0  0  0  0  0  0  0  0  0  0  0  0
    5.2458    1.8435    0.1645 S   0  0  0  0  0  0  0  0  0  0  0  0
    6.4045   -1.6566    0.1603 H   0  0  0  0  0  0  0  0  0  0  0  0
    6.9158   -2.2285   -1.4459 H   0  0  0  0  0  0  0  0  0  0  0  0
    5.2198   -2.3558   -0.9497 H   0  0  0  0  0  0  0  0  0  0  0  0
    5.4850   -0.4464   -2.5128 H   0  0  0  0  0  0  0  0  0  0  0  0
    6.7769    0.2268   -1.5031 H   0  0  0  0  0  0  0  0  0  0  0  0
    1.5455   -0.9528   -0.3451 H   0  0  0  0  0  0  0  0  0  0  0  0
   -0.6210    2.6834    2.4457 H   0  0  0  0  0  0  0  0  0  0  0  0
   -1.3902    0.2335    4.0318 H   0  0  0  0  0  0  0  0  0  0  0  0
   -2.9795    1.0351    4.0652 H   0  0  0  0  0  0  0  0  0  0  0  0
   -2.8631   -0.7272    3.8975 H   0  0  0  0  0  0  0  0  0  0  0  0
   -5.4213   -0.9827    0.3313 H   0  0  0  0  0  0  0  0  0  0  0  0
   -6.7307   -2.0975   -1.4250 H   0  0  0  0  0  0  0  0  0  0  0  0
   -5.8033   -2.3524   -3.7118 H   0  0  0  0  0  0  0  0  0  0  0  0
   -3.5327   -1.5067   -4.2221 H   0  0  0  0  0  0  0  0  0  0  0  0
   -2.1827   -0.4360   -2.4977 H   0  0  0  0  0  0  0  0  0  0  0  0
  1  2  1  0
  2  3  1  0
  3  4  2  0
  4  5  1  0
  5  6  1  0
  6  7  2  3
  6  8  1  0
  8  9  2  3
  9 10  1  0
 10 11  1  0
 11 12  1  0
 11 13  2  0
 13 14  1  0
 14 15  1  0
 15 16  2  0
 16 17  1  0
 17 18  2  0
 18 19  1  0
 19 20  2  0
 14 21  1  0
 21 22  1  0
  8 23  1  0
 23 24  2  0
 23 25  1  0
 25 26  2  0
 26 27  1  0
 27  3  1  0
 26  5  1  0
 21 10  2  0
 20 15  1  0
  1 28  1  0
  1 29  1  0
  1 30  1  0
  2 31  1  0
  2 32  1  0
  7 33  1  0
  9 34  1  0
 12 35  1  0
 12 36  1  0
 12 37  1  0
 16 38  1  0
 17 39  1  0
 18 40  1  0
 19 41  1  0
 20 42  1  0
M  END
$$$$
