
     RDKit          3D

 70 73  0  0  0  0  0  0  0  0999 V2000
   -2.6974   -0.0116    2.3371 C   0  0  0  0  0  0  0  0  0  0  0  0
   -1.5292    0.8041    2.2289 O   0  0  0  0  0  0  0  0  0  0  0  0
   -1.6949    1.7829    1.2776 C   0  0  0  0  0  0  0  0  0  0  0  0
   -2.5854    2.8323    1.5472 C   0  0  0  0  0  0  0  0  0  0  0  0
   -2.7778    3.8546    0.6184 C   0  0  0  0  0  0  0  0  0  0  0  0
   -3.6347    4.9118    0.7956 O   0  0  0  0  0  0  0  0  0  0  0  0
   -4.3264    4.9990    2.0356 C   0  0  0  0  0  0  0  0  0  0  0  0
   -2.0620    3.8197   -0.5898 C   0  0  0  0  0  0  0  0  0  0  0  0
   -2.2287    4.8462   -1.6188 C   0  0  0  0  0  0  0  0  0  0  0  0
   -1.5420    4.7876   -2.7620 C   0  0  0  0  0  0  0  0  0  0  0  0
   -0.5946    3.7039   -3.0436 C   0  0  0  0  0  0  0  0  0  0  0  0
    0.0238    3.6607   -4.1003 O   0  0  0  0  0  0  0  0  0  0  0  0
   -0.4472    2.7457   -2.0539 O   0  0  0  0  0  0  0  0  0  0  0  0
   -1.1523    2.7740   -0.8256 C   0  0  0  0  0  0  0  0  0  0  0  0
   -0.9215    1.7423    0.1021 C   0  0  0  0  0  0  0  0  0  0  0  0
    0.0692    0.5871   -0.1082 C   0  0  0  0  0  0  0  0  0  0  0  0
    1.3838    0.9504   -0.8477 C   0  0  0  0  0  0  0  0  0  0  0  0
    2.5060   -0.0928   -0.6786 C   0  0  0  0  0  0  0  0  0  0  0  0
    2.9080   -0.3157    0.7176 N   0  0  0  0  0  0  0  0  0  0  0  0
    3.6680    0.8013    1.2964 C   0  0  0  0  0  0  0  0  0  0  0  0
    5.1590    0.5153    1.4596 C   0  0  0  0  0  0  0  0  0  0  0  0
    5.4087   -0.7135    2.3328 C   0  0  0  0  0  0  0  0  0  0  0  0
    4.2817   -1.7518    2.2187 C   0  0  0  0  0  0  0  0  0  0  0  0
    4.8206   -3.1652    2.4293 C   0  0  0  0  0  0  0  0  0  0  0  0
    3.5637   -1.6240    0.8683 C   0  0  0  0  0  0  0  0  0  0  0  0
   -0.6030   -0.6417   -0.7175 C   0  0  0  0  0  0  0  0  0  0  0  0
   -0.6623   -1.8359    0.0062 C   0  0  0  0  0  0  0  0  0  0  0  0
   -1.2694   -2.9791   -0.5346 C   0  0  0  0  0  0  0  0  0  0  0  0
   -1.8491   -2.9887   -1.8143 C   0  0  0  0  0  0  0  0  0  0  0  0
   -2.4376   -4.1408   -2.3517 N   0  0  0  0  0  0  0  0  0  0  0  0
   -2.9212   -5.1677   -1.4308 C   0  0  0  0  0  0  0  0  0  0  0  0
   -3.1420   -4.0535   -3.6286 C   0  0  0  0  0  0  0  0  0  0  0  0
   -1.7558   -1.7849   -2.5325 C   0  0  0  0  0  0  0  0  0  0  0  0
   -1.1524   -0.6343   -2.0005 C   0  0  0  0  0  0  0  0  0  0  0  0
   -2.4085   -0.9449    2.8297 H   0  0  0  0  0  0  0  0  0  0  0  0
   -3.1199   -0.2614    1.3566 H   0  0  0  0  0  0  0  0  0  0  0  0
   -3.4506    0.4805    2.9605 H   0  0  0  0  0  0  0  0  0  0  0  0
   -3.1062    2.8243    2.4978 H   0  0  0  0  0  0  0  0  0  0  0  0
   -3.6268    5.0888    2.8732 H   0  0  0  0  0  0  0  0  0  0  0  0
   -4.9373    5.9067    2.0137 H   0  0  0  0  0  0  0  0  0  0  0  0
   -5.0002    4.1466    2.1712 H   0  0  0  0  0  0  0  0  0  0  0  0
   -2.9242    5.6590   -1.4368 H   0  0  0  0  0  0  0  0  0  0  0  0
   -1.6527    5.5368   -3.5357 H   0  0  0  0  0  0  0  0  0  0  0  0
    0.3957    0.3138    0.9041 H   0  0  0  0  0  0  0  0  0  0  0  0
    1.2107    1.0468   -1.9259 H   0  0  0  0  0  0  0  0  0  0  0  0
    1.7385    1.9292   -0.5038 H   0  0  0  0  0  0  0  0  0  0  0  0
    3.3753    0.2102   -1.2770 H   0  0  0  0  0  0  0  0  0  0  0  0
    2.1523   -1.0343   -1.1177 H   0  0  0  0  0  0  0  0  0  0  0  0
    3.5473    1.7266    0.7223 H   0  0  0  0  0  0  0  0  0  0  0  0
    3.2425    1.0119    2.2860 H   0  0  0  0  0  0  0  0  0  0  0  0
    5.6083    0.3585    0.4702 H   0  0  0  0  0  0  0  0  0  0  0  0
    5.6655    1.3844    1.8954 H   0  0  0  0  0  0  0  0  0  0  0  0
    6.3797   -1.1448    2.0610 H   0  0  0  0  0  0  0  0  0  0  0  0
    5.4963   -0.4073    3.3827 H   0  0  0  0  0  0  0  0  0  0  0  0
    3.5513   -1.5573    3.0169 H   0  0  0  0  0  0  0  0  0  0  0  0
    5.5338   -3.4401    1.6446 H   0  0  0  0  0  0  0  0  0  0  0  0
    4.0053   -3.8965    2.4158 H   0  0  0  0  0  0  0  0  0  0  0  0
    5.3288   -3.2468    3.3960 H   0  0  0  0  0  0  0  0  0  0  0  0
    2.7998   -2.4075    0.7869 H   0  0  0  0  0  0  0  0  0  0  0  0
    4.2867   -1.7935    0.0582 H   0  0  0  0  0  0  0  0  0  0  0  0
   -0.2226   -1.8939    1.0003 H   0  0  0  0  0  0  0  0  0  0  0  0
   -1.2571   -3.8745    0.0784 H   0  0  0  0  0  0  0  0  0  0  0  0
   -2.0929   -5.6368   -0.8896 H   0  0  0  0  0  0  0  0  0  0  0  0
   -3.6394   -4.7505   -0.7160 H   0  0  0  0  0  0  0  0  0  0  0  0
   -3.4261   -5.9789   -1.9677 H   0  0  0  0  0  0  0  0  0  0  0  0
   -4.0124   -3.3920   -3.5545 H   0  0  0  0  0  0  0  0  0  0  0  0
   -2.4770   -3.7022   -4.4255 H   0  0  0  0  0  0  0  0  0  0  0  0
   -3.4997   -5.0384   -3.9498 H   0  0  0  0  0  0  0  0  0  0  0  0
   -2.1547   -1.7014   -3.5384 H   0  0  0  0  0  0  0  0  0  0  0  0
   -1.1153    0.2609   -2.6154 H   0  0  0  0  0  0  0  0  0  0  0  0
  1  2  1  0
  2  3  1  0
  3  4  2  0
  4  5  1  0
  5  6  1  0
  6  7  1  0
  5  8  2  0
  8  9  1  0
  9 10  2  0
 10 11  1  0
 11 12  2  0
 11 13  1  0
 13 14  1  0
 14 15  2  0
 15 16  1  0
 16 17  1  0
 17 18  1  0
 18 19  1  0
 19 20  1  0
 20 21  1  0
 21 22  1  0
 22 23  1  0
 23 24  1  0
 23 25  1  0
 16 26  1  0
 26 27  2  0
 27 28  1  0
 28 29  2  0
 29 30  1  0
 30 31  1  0
 30 32  1  0
 29 33  1  0
 33 34  2  0
 15  3  1  0
 25 19  1  0
 34 26  1  0
 14  8  1  0
  1 35  1  0
  1 36  1  0
  1 37  1  0
  4 38  1  0
  7 39  1  0
  7 40  1  0
  7 41  1  0
  9 42  1  0
 10 43  1  0
 16 44  1  0
 17 45  1  0
 17 46  1  0
 18 47  1  0
 18 48  1  0
 20 49  1  0
 20 50  1  0
 21 51  1  0
 21 52  1  0
 22 53  1  0
 22 54  1  0
 23 55  1  0
 24 56  1  0
 24 57  1  0
 24 58  1  0
 25 59  1  0
 25 60  1  0
 27 61  1  0
 28 62  1  0
 31 63  1  0
 31 64  1  0
 31 65  1  0
 32 66  1  0
 32 67  1  0
 32 68  1  0
 33 69  1  0
 34 70  1  0
M  END
$$$$
