
     RDKit          3D

 36 39  0  0  0  0  0  0  0  0999 V2000
   -1.5548    2.9391    0.8793 C   0  0  0  0  0  0  0  0  0  0  0  0
   -0.8167    1.6964    0.5365 C   0  0  0  0  0  0  0  0  0  0  0  0
    0.5110    1.6577    0.6860 N   0  0  0  0  0  0  0  0  0  0  0  0
    0.8771    0.4204    0.2703 N   0  0  0  0  0  0  0  0  0  0  0  0
    2.1749   -0.1127    0.2345 C   0  0  0  0  0  0  0  0  0  0  0  0
    2.3458   -1.3758   -0.1988 C   0  0  0  0  0  0  0  0  0  0  0  0
    1.1162   -2.0969   -0.6214 C   0  0  0  0  0  0  0  0  0  0  0  0
   -0.0927   -1.6208   -0.6032 N   0  0  0  0  0  0  0  0  0  0  0  0
   -0.2278   -0.3354   -0.1437 C   0  0  0  0  0  0  0  0  0  0  0  0
   -1.3352    0.4750    0.0350 C   0  0  0  0  0  0  0  0  0  0  0  0
   -2.7035    0.0785   -0.2539 C   0  0  0  0  0  0  0  0  0  0  0  0
   -3.7168    0.3001    0.6884 C   0  0  0  0  0  0  0  0  0  0  0  0
   -5.0369   -0.0622    0.4084 C   0  0  0  0  0  0  0  0  0  0  0  0
   -5.3552   -0.6496   -0.8146 C   0  0  0  0  0  0  0  0  0  0  0  0
   -4.3546   -0.8790   -1.7569 C   0  0  0  0  0  0  0  0  0  0  0  0
   -3.0345   -0.5170   -1.4779 C   0  0  0  0  0  0  0  0  0  0  0  0
    3.6851   -2.0060   -0.2148 C   0  0  0  0  0  0  0  0  0  0  0  0
    3.8242   -3.1560   -0.6247 O   0  0  0  0  0  0  0  0  0  0  0  0
    4.8452   -1.2202    0.3553 C   0  0  0  0  0  0  0  0  0  0  0  0
    4.6593    0.2729    0.1307 C   0  0  0  0  0  0  0  0  0  0  0  0
    3.3173    0.7633    0.6741 C   0  0  0  0  0  0  0  0  0  0  0  0
   -2.3540    3.1315    0.1565 H   0  0  0  0  0  0  0  0  0  0  0  0
   -1.9991    2.8542    1.8759 H   0  0  0  0  0  0  0  0  0  0  0  0
   -0.8905    3.8098    0.8766 H   0  0  0  0  0  0  0  0  0  0  0  0
    1.2668   -3.1294   -0.9800 H   0  0  0  0  0  0  0  0  0  0  0  0
   -3.4874    0.7407    1.6552 H   0  0  0  0  0  0  0  0  0  0  0  0
   -5.8149    0.1085    1.1478 H   0  0  0  0  0  0  0  0  0  0  0  0
   -6.3813   -0.9349   -1.0312 H   0  0  0  0  0  0  0  0  0  0  0  0
   -4.5980   -1.3435   -2.7087 H   0  0  0  0  0  0  0  0  0  0  0  0
   -2.2649   -0.7067   -2.2230 H   0  0  0  0  0  0  0  0  0  0  0  0
    5.7660   -1.5484   -0.1388 H   0  0  0  0  0  0  0  0  0  0  0  0
    4.9237   -1.4496    1.4235 H   0  0  0  0  0  0  0  0  0  0  0  0
    4.7104    0.4862   -0.9453 H   0  0  0  0  0  0  0  0  0  0  0  0
    5.4768    0.8280    0.6042 H   0  0  0  0  0  0  0  0  0  0  0  0
    3.3462    0.7880    1.7704 H   0  0  0  0  0  0  0  0  0  0  0  0
    3.1729    1.7939    0.3284 H   0  0  0  0  0  0  0  0  0  0  0  0
  1  2  1  0
  2  3  2  0
  3  4  1  0
  4  5  1  0
  5  6  2  0
  6  7  1  0
  7  8  2  0
  8  9  1  0
  9 10  2  0
 10 11  1  0
 11 12  2  0
 12 13  1  0
 13 14  2  0
 14 15  1  0
 15 16  2  0
  6 17  1  0
 17 18  2  0
 17 19  1  0
 19 20  1  0
 20 21  1  0
 10  2  1  0
 16 11  1  0
  9  4  1  0
 21  5  1  0
  1 22  1  0
  1 23  1  0
  1 24  1  0
  7 25  1  0
 12 26  1  0
 13 27  1  0
 14 28  1  0
 15 29  1  0
 16 30  1  0
 19 31  1  0
 19 32  1  0
 20 33  1  0
 20 34  1  0
 21 35  1  0
 21 36  1  0
M  END
$$$$
