
     RDKit          3D

 57 58  0  0  0  0  0  0  0  0999 V2000
    7.6608    0.0970    2.3927 C   0  0  0  0  0  0  0  0  0  0  0  0
    7.6653    0.5860    0.9691 C   0  0  0  0  0  0  0  0  0  0  0  0
    8.8663    1.0225    0.3855 C   0  0  0  0  0  0  0  0  0  0  0  0
    8.8890    1.4802   -0.9292 C   0  0  0  0  0  0  0  0  0  0  0  0
    7.7112    1.5167   -1.6693 C   0  0  0  0  0  0  0  0  0  0  0  0
    6.5078    1.0930   -1.0982 C   0  0  0  0  0  0  0  0  0  0  0  0
    6.4761    0.6198    0.2171 C   0  0  0  0  0  0  0  0  0  0  0  0
    5.3525    0.1699    0.8635 O   0  0  0  0  0  0  0  0  0  0  0  0
    4.1413    0.1035    0.1092 C   0  0  0  0  0  0  0  0  0  0  0  0
    3.1007   -0.5819    0.9773 C   0  0  0  0  0  0  0  0  0  0  0  0
    1.8146   -0.7478    0.2206 C   0  0  0  0  0  0  0  0  0  0  0  0
    1.3575    0.0663   -0.5731 O   0  0  0  0  0  0  0  0  0  0  0  0
    1.2166   -1.9253    0.5536 O   0  0  0  0  0  0  0  0  0  0  0  0
   -0.0551   -2.1339   -0.0737 C   0  0  0  0  0  0  0  0  0  0  0  0
   -1.1466   -1.2460    0.5349 C   0  0  0  0  0  0  0  0  0  0  0  0
   -0.9833   -0.7231    1.6460 O   0  0  0  0  0  0  0  0  0  0  0  0
   -2.3961   -0.9788   -0.2651 C   0  0  0  0  0  0  0  0  0  0  0  0
   -3.2017    0.0684    0.0354 C   0  0  0  0  0  0  0  0  0  0  0  0
   -2.9642    0.8981    1.1271 N   0  0  0  0  0  0  0  0  0  0  0  0
   -4.3201    0.3213   -0.7606 N   0  0  0  0  0  0  0  0  0  0  0  0
   -5.3083    1.3428   -0.3685 C   0  0  0  0  0  0  0  0  0  0  0  0
   -6.5744    0.7570    0.2950 C   0  0  0  0  0  0  0  0  0  0  0  0
   -7.6129    1.8632    0.4917 C   0  0  0  0  0  0  0  0  0  0  0  0
   -6.2744    0.0883    1.6361 C   0  0  0  0  0  0  0  0  0  0  0  0
   -4.6143   -0.3891   -1.9243 C   0  0  0  0  0  0  0  0  0  0  0  0
   -5.6153   -0.1557   -2.6075 O   0  0  0  0  0  0  0  0  0  0  0  0
   -3.7284   -1.3934   -2.2626 N   0  0  0  0  0  0  0  0  0  0  0  0
   -4.0405   -2.1851   -3.4390 C   0  0  0  0  0  0  0  0  0  0  0  0
   -2.7553   -1.8507   -1.4070 C   0  0  0  0  0  0  0  0  0  0  0  0
   -2.1949   -2.9377   -1.5517 O   0  0  0  0  0  0  0  0  0  0  0  0
    7.0490    0.7586    3.0163 H   0  0  0  0  0  0  0  0  0  0  0  0
    8.6716    0.0780    2.8149 H   0  0  0  0  0  0  0  0  0  0  0  0
    7.2633   -0.9240    2.4436 H   0  0  0  0  0  0  0  0  0  0  0  0
    9.7925    1.0043    0.9551 H   0  0  0  0  0  0  0  0  0  0  0  0
    9.8245    1.8108   -1.3736 H   0  0  0  0  0  0  0  0  0  0  0  0
    7.7274    1.8751   -2.6942 H   0  0  0  0  0  0  0  0  0  0  0  0
    5.6128    1.1475   -1.7085 H   0  0  0  0  0  0  0  0  0  0  0  0
    3.8115    1.1187   -0.1507 H   0  0  0  0  0  0  0  0  0  0  0  0
    4.2873   -0.4824   -0.8103 H   0  0  0  0  0  0  0  0  0  0  0  0
    2.9087   -0.0089    1.8854 H   0  0  0  0  0  0  0  0  0  0  0  0
    3.4797   -1.5583    1.2858 H   0  0  0  0  0  0  0  0  0  0  0  0
   -0.3241   -3.1804    0.1060 H   0  0  0  0  0  0  0  0  0  0  0  0
    0.0449   -1.9661   -1.1524 H   0  0  0  0  0  0  0  0  0  0  0  0
   -2.1233    0.6227    1.6540 H   0  0  0  0  0  0  0  0  0  0  0  0
   -2.8695    1.8707    0.8453 H   0  0  0  0  0  0  0  0  0  0  0  0
   -4.8618    2.1097    0.2731 H   0  0  0  0  0  0  0  0  0  0  0  0
   -5.6040    1.8768   -1.2823 H   0  0  0  0  0  0  0  0  0  0  0  0
   -7.0155   -0.0000   -0.3651 H   0  0  0  0  0  0  0  0  0  0  0  0
   -8.5314    1.4618    0.9349 H   0  0  0  0  0  0  0  0  0  0  0  0
   -7.2332    2.6513    1.1530 H   0  0  0  0  0  0  0  0  0  0  0  0
   -7.8796    2.3219   -0.4664 H   0  0  0  0  0  0  0  0  0  0  0  0
   -5.7937    0.7856    2.3304 H   0  0  0  0  0  0  0  0  0  0  0  0
   -7.1983   -0.2695    2.1040 H   0  0  0  0  0  0  0  0  0  0  0  0
   -5.6190   -0.7788    1.5088 H   0  0  0  0  0  0  0  0  0  0  0  0
   -4.3572   -1.5340   -4.2595 H   0  0  0  0  0  0  0  0  0  0  0  0
   -3.1757   -2.7689   -3.7670 H   0  0  0  0  0  0  0  0  0  0  0  0
   -4.8603   -2.8674   -3.1918 H   0  0  0  0  0  0  0  0  0  0  0  0
  1  2  1  0
  2  3  2  0
  3  4  1  0
  4  5  2  0
  5  6  1  0
  6  7  2  0
  7  8  1  0
  8  9  1  0
  9 10  1  0
 10 11  1  0
 11 12  2  0
 11 13  1  0
 13 14  1  0
 14 15  1  0
 15 16  2  0
 15 17  1  0
 17 18  2  0
 18 19  1  0
 18 20  1  0
 20 21  1  0
 21 22  1  0
 22 23  1  0
 22 24  1  0
 20 25  1  0
 25 26  2  0
 25 27  1  0
 27 28  1  0
 27 29  1  0
 29 30  2  0
  7  2  1  0
 29 17  1  0
  1 31  1  0
  1 32  1  0
  1 33  1  0
  3 34  1  0
  4 35  1  0
  5 36  1  0
  6 37  1  0
  9 38  1  0
  9 39  1  0
 10 40  1  0
 10 41  1  0
 14 42  1  0
 14 43  1  0
 19 44  1  0
 19 45  1  0
 21 46  1  0
 21 47  1  0
 22 48  1  0
 23 49  1  0
 23 50  1  0
 23 51  1  0
 24 52  1  0
 24 53  1  0
 24 54  1  0
 28 55  1  0
 28 56  1  0
 28 57  1  0
M  END
$$$$
