
     RDKit          3D

 47 49  0  0  0  0  0  0  0  0999 V2000
    7.1394   -0.0665    1.6714 C   0  0  0  0  0  0  0  0  0  0  0  0
    6.6552   -1.2896    0.9082 C   0  0  0  0  0  0  0  0  0  0  0  0
    5.1582   -1.2584    0.5949 C   0  0  0  0  0  0  0  0  0  0  0  0
    4.7650   -0.1283   -0.3604 C   0  0  0  0  0  0  0  0  0  0  0  0
    3.3615   -0.2001   -0.7606 N   0  0  0  0  0  0  0  0  0  0  0  0
    2.3676    0.2867    0.1821 C   0  0  0  0  0  0  0  0  0  0  0  0
    0.9931    0.3675   -0.3887 C   0  0  0  0  0  0  0  0  0  0  0  0
   -0.0371    1.0842    0.2262 C   0  0  0  0  0  0  0  0  0  0  0  0
   -1.3199    1.0459   -0.3230 C   0  0  0  0  0  0  0  0  0  0  0  0
   -2.4036    1.8265    0.3058 C   0  0  0  0  0  0  0  0  0  0  0  0
   -2.1315    2.9206    0.8005 O   0  0  0  0  0  0  0  0  0  0  0  0
   -3.8122    1.3614    0.3480 C   0  0  0  0  0  0  0  0  0  0  0  0
   -4.1323   -0.0019    0.3746 C   0  0  0  0  0  0  0  0  0  0  0  0
   -5.4680   -0.4196    0.4016 C   0  0  0  0  0  0  0  0  0  0  0  0
   -5.6350   -1.7769    0.4135 O   0  0  0  0  0  0  0  0  0  0  0  0
   -6.9722   -2.2621    0.4476 C   0  0  0  0  0  0  0  0  0  0  0  0
   -6.4885    0.5320    0.4151 C   0  0  0  0  0  0  0  0  0  0  0  0
   -6.1762    1.8938    0.4195 C   0  0  0  0  0  0  0  0  0  0  0  0
   -4.8466    2.3039    0.4004 C   0  0  0  0  0  0  0  0  0  0  0  0
   -4.6240    3.6540    0.4372 O   0  0  0  0  0  0  0  0  0  0  0  0
   -1.5107    0.3076   -1.4829 C   0  0  0  0  0  0  0  0  0  0  0  0
   -0.5328   -0.4110   -2.0856 N   0  0  0  0  0  0  0  0  0  0  0  0
    0.6942   -0.3579   -1.5279 C   0  0  0  0  0  0  0  0  0  0  0  0
    1.6991   -1.0739   -2.1459 N   0  0  0  0  0  0  0  0  0  0  0  0
    3.0175   -1.0152   -1.8216 C   0  0  0  0  0  0  0  0  0  0  0  0
    3.8379   -1.6469   -2.4846 O   0  0  0  0  0  0  0  0  0  0  0  0
    6.5625    0.0773    2.5904 H   0  0  0  0  0  0  0  0  0  0  0  0
    8.1917   -0.1888    1.9477 H   0  0  0  0  0  0  0  0  0  0  0  0
    7.0597    0.8414    1.0665 H   0  0  0  0  0  0  0  0  0  0  0  0
    6.8658   -2.1818    1.5098 H   0  0  0  0  0  0  0  0  0  0  0  0
    7.2289   -1.3912   -0.0203 H   0  0  0  0  0  0  0  0  0  0  0  0
    4.8787   -2.2228    0.1529 H   0  0  0  0  0  0  0  0  0  0  0  0
    4.5903   -1.1732    1.5291 H   0  0  0  0  0  0  0  0  0  0  0  0
    4.9342    0.8532    0.0953 H   0  0  0  0  0  0  0  0  0  0  0  0
    5.3893   -0.1765   -1.2606 H   0  0  0  0  0  0  0  0  0  0  0  0
    2.6838    1.2818    0.5153 H   0  0  0  0  0  0  0  0  0  0  0  0
    2.3580   -0.3905    1.0436 H   0  0  0  0  0  0  0  0  0  0  0  0
    0.1535    1.6640    1.1270 H   0  0  0  0  0  0  0  0  0  0  0  0
   -3.3575   -0.7645    0.3922 H   0  0  0  0  0  0  0  0  0  0  0  0
   -7.4851   -1.9410    1.3602 H   0  0  0  0  0  0  0  0  0  0  0  0
   -7.5254   -1.9562   -0.4465 H   0  0  0  0  0  0  0  0  0  0  0  0
   -6.9307   -3.3555    0.4558 H   0  0  0  0  0  0  0  0  0  0  0  0
   -7.5366    0.2511    0.4345 H   0  0  0  0  0  0  0  0  0  0  0  0
   -6.9701    2.6361    0.4477 H   0  0  0  0  0  0  0  0  0  0  0  0
   -3.6693    3.7960    0.6286 H   0  0  0  0  0  0  0  0  0  0  0  0
   -2.4695    0.2698   -1.9930 H   0  0  0  0  0  0  0  0  0  0  0  0
    1.4499   -1.6047   -2.9666 H   0  0  0  0  0  0  0  0  0  0  0  0
  1  2  1  0
  2  3  1  0
  3  4  1  0
  4  5  1  0
  5  6  1  0
  6  7  1  0
  7  8  2  0
  8  9  1  0
  9 10  1  0
 10 11  2  0
 10 12  1  0
 12 13  2  0
 13 14  1  0
 14 15  1  0
 15 16  1  0
 14 17  2  0
 17 18  1  0
 18 19  2  0
 19 20  1  0
  9 21  2  0
 21 22  1  0
 22 23  2  0
 23 24  1  0
 24 25  1  0
 25 26  2  0
 25  5  1  0
 23  7  1  0
 19 12  1  0
  1 27  1  0
  1 28  1  0
  1 29  1  0
  2 30  1  0
  2 31  1  0
  3 32  1  0
  3 33  1  0
  4 34  1  0
  4 35  1  0
  6 36  1  0
  6 37  1  0
  8 38  1  0
 13 39  1  0
 16 40  1  0
 16 41  1  0
 16 42  1  0
 17 43  1  0
 18 44  1  0
 20 45  1  0
 21 46  1  0
 24 47  1  0
M  END
$$$$
