
     RDKit          3D

 55 58  0  0  0  0  0  0  0  0999 V2000
    2.8011   -3.5960    3.4578 C   0  0  0  0  0  0  0  0  0  0  0  0
    2.3579   -4.0445    2.0756 C   0  0  0  0  0  0  0  0  0  0  0  0
    3.0362   -3.3273    1.0460 O   0  0  0  0  0  0  0  0  0  0  0  0
    2.6908   -2.0233    0.7947 C   0  0  0  0  0  0  0  0  0  0  0  0
    1.4478   -1.4574    1.0956 C   0  0  0  0  0  0  0  0  0  0  0  0
    1.1757   -0.1133    0.7893 C   0  0  0  0  0  0  0  0  0  0  0  0
   -0.1557    0.4323    1.1094 C   0  0  0  0  0  0  0  0  0  0  0  0
   -0.9195    1.2264    0.3359 C   0  0  0  0  0  0  0  0  0  0  0  0
   -0.4934    1.6815   -1.0233 C   0  0  0  0  0  0  0  0  0  0  0  0
   -0.2896    2.8853   -1.2062 O   0  0  0  0  0  0  0  0  0  0  0  0
   -0.3499    0.7219   -2.0159 N   0  0  0  0  0  0  0  0  0  0  0  0
   -1.0559   -0.5695   -2.0043 C   0  0  0  0  0  0  0  0  0  0  0  0
   -0.3122   -1.6060   -2.8503 C   0  0  0  0  0  0  0  0  0  0  0  0
   -0.1299   -1.1223   -4.1909 O   0  0  0  0  0  0  0  0  0  0  0  0
    0.6745    0.0701   -4.1836 C   0  0  0  0  0  0  0  0  0  0  0  0
    0.0258    1.1828   -3.3544 C   0  0  0  0  0  0  0  0  0  0  0  0
   -2.1522    1.7092    0.8498 C   0  0  0  0  0  0  0  0  0  0  0  0
   -3.0791    1.1094    1.5739 N   0  0  0  0  0  0  0  0  0  0  0  0
   -4.0625    2.0517    1.7707 C   0  0  0  0  0  0  0  0  0  0  0  0
   -5.2883    1.9387    2.4406 C   0  0  0  0  0  0  0  0  0  0  0  0
   -6.1195    3.0658    2.5115 C   0  0  0  0  0  0  0  0  0  0  0  0
   -5.7362    4.2790    1.9289 C   0  0  0  0  0  0  0  0  0  0  0  0
   -4.5126    4.4098    1.2599 C   0  0  0  0  0  0  0  0  0  0  0  0
   -3.7062    3.2701    1.2062 C   0  0  0  0  0  0  0  0  0  0  0  0
   -2.4885    3.0283    0.6251 N   0  0  0  0  0  0  0  0  0  0  0  0
    2.1857    0.6799    0.2326 C   0  0  0  0  0  0  0  0  0  0  0  0
    3.4213    0.1207   -0.0886 C   0  0  0  0  0  0  0  0  0  0  0  0
    4.6177    1.1361   -0.8108 Cl  0  0  0  0  0  0  0  0  0  0  0  0
    3.6642   -1.2339    0.1586 C   0  0  0  0  0  0  0  0  0  0  0  0
    4.9024   -1.7581   -0.1306 O   0  0  0  0  0  0  0  0  0  0  0  0
    4.8516   -2.5132   -1.3425 C   0  0  0  0  0  0  0  0  0  0  0  0
    2.4225   -4.2798    4.2231 H   0  0  0  0  0  0  0  0  0  0  0  0
    2.4423   -2.5871    3.6859 H   0  0  0  0  0  0  0  0  0  0  0  0
    3.8973   -3.5708    3.5289 H   0  0  0  0  0  0  0  0  0  0  0  0
    2.6468   -5.0936    1.9503 H   0  0  0  0  0  0  0  0  0  0  0  0
    1.2707   -4.0205    1.9566 H   0  0  0  0  0  0  0  0  0  0  0  0
    0.6643   -2.0501    1.5618 H   0  0  0  0  0  0  0  0  0  0  0  0
   -0.5317    0.1450    2.0869 H   0  0  0  0  0  0  0  0  0  0  0  0
   -2.0465   -0.3757   -2.4342 H   0  0  0  0  0  0  0  0  0  0  0  0
   -1.2078   -0.9518   -0.9951 H   0  0  0  0  0  0  0  0  0  0  0  0
   -0.8761   -2.5460   -2.8955 H   0  0  0  0  0  0  0  0  0  0  0  0
    0.6706   -1.8340   -2.4171 H   0  0  0  0  0  0  0  0  0  0  0  0
    1.6650   -0.1853   -3.7921 H   0  0  0  0  0  0  0  0  0  0  0  0
    0.7960    0.4041   -5.2191 H   0  0  0  0  0  0  0  0  0  0  0  0
   -0.8983    1.5233   -3.8393 H   0  0  0  0  0  0  0  0  0  0  0  0
    0.7032    2.0389   -3.2894 H   0  0  0  0  0  0  0  0  0  0  0  0
   -5.5914    0.9921    2.8773 H   0  0  0  0  0  0  0  0  0  0  0  0
   -7.0711    2.9918    3.0315 H   0  0  0  0  0  0  0  0  0  0  0  0
   -6.3938    5.1446    2.0123 H   0  0  0  0  0  0  0  0  0  0  0  0
   -4.2138    5.3495    0.8114 H   0  0  0  0  0  0  0  0  0  0  0  0
   -1.9572    3.6813    0.0613 H   0  0  0  0  0  0  0  0  0  0  0  0
    2.0194    1.7374    0.0376 H   0  0  0  0  0  0  0  0  0  0  0  0
    4.3417   -3.4695   -1.1985 H   0  0  0  0  0  0  0  0  0  0  0  0
    5.8806   -2.7231   -1.6506 H   0  0  0  0  0  0  0  0  0  0  0  0
    4.3661   -1.9547   -2.1546 H   0  0  0  0  0  0  0  0  0  0  0  0
  1  2  1  0
  2  3  1  0
  3  4  1  0
  4  5  2  0
  5  6  1  0
  6  7  1  0
  7  8  2  3
  8  9  1  0
  9 10  2  0
  9 11  1  0
 11 12  1  0
 12 13  1  0
 13 14  1  0
 14 15  1  0
 15 16  1  0
  8 17  1  0
 17 18  2  0
 18 19  1  0
 19 20  2  0
 20 21  1  0
 21 22  2  0
 22 23  1  0
 23 24  2  0
 24 25  1  0
  6 26  2  0
 26 27  1  0
 27 28  1  0
 27 29  2  0
 29 30  1  0
 30 31  1  0
 29  4  1  0
 16 11  1  0
 25 17  1  0
 24 19  1  0
  1 32  1  0
  1 33  1  0
  1 34  1  0
  2 35  1  0
  2 36  1  0
  5 37  1  0
  7 38  1  0
 12 39  1  0
 12 40  1  0
 13 41  1  0
 13 42  1  0
 15 43  1  0
 15 44  1  0
 16 45  1  0
 16 46  1  0
 20 47  1  0
 21 48  1  0
 22 49  1  0
 23 50  1  0
 25 51  1  0
 26 52  1  0
 31 53  1  0
 31 54  1  0
 31 55  1  0
M  END
$$$$
