
     RDKit          3D

 48 50  0  0  0  0  0  0  0  0999 V2000
   -2.2759    0.1072    0.3037 O   0  0  0  0  0  0  0  0  0  0  0  0
   -1.6656    0.6343   -0.6224 C   0  0  0  0  0  0  0  0  0  0  0  0
   -0.2192    1.0741   -0.5503 C   0  0  0  0  0  0  0  0  0  0  0  0
    0.4773    0.6608    0.7460 C   0  0  0  0  0  0  0  0  0  0  0  0
    0.6560   -0.8588    0.8623 C   0  0  0  0  0  0  0  0  0  0  0  0
    1.5634   -1.2105    1.9574 N   0  0  0  0  0  0  0  0  0  0  0  0
    2.9257   -1.2388    1.6975 C   0  0  0  0  0  0  0  0  0  0  0  0
    3.4386   -1.0091    0.6109 O   0  0  0  0  0  0  0  0  0  0  0  0
    3.6815   -1.5874    2.9341 C   0  0  0  0  0  0  0  0  0  0  0  0
    5.0097   -1.7024    3.0775 C   0  0  0  0  0  0  0  0  0  0  0  0
    5.9984   -1.4863    2.0144 C   0  0  0  0  0  0  0  0  0  0  0  0
    6.4737   -2.6050    1.3150 C   0  0  0  0  0  0  0  0  0  0  0  0
    7.4142   -2.4543    0.2936 C   0  0  0  0  0  0  0  0  0  0  0  0
    7.8899   -1.1868   -0.0374 C   0  0  0  0  0  0  0  0  0  0  0  0
    7.4263   -0.0662    0.6524 C   0  0  0  0  0  0  0  0  0  0  0  0
    6.4837   -0.2126    1.6740 C   0  0  0  0  0  0  0  0  0  0  0  0
    5.9542    1.2139    2.4991 Cl  0  0  0  0  0  0  0  0  0  0  0  0
    2.5835   -1.8309    4.2399 S   0  0  0  0  0  0  0  0  0  0  0  0
    1.1722   -1.4669    3.2537 C   0  0  0  0  0  0  0  0  0  0  0  0
   -0.3681   -1.4634    3.8922 S   0  0  0  0  0  0  0  0  0  0  0  0
   -2.2462    0.8755   -1.8507 N   0  0  0  0  0  0  0  0  0  0  0  0
   -3.6378    0.6840   -1.9418 N   0  0  0  0  0  0  0  0  0  0  0  0
   -4.3359    1.5354   -2.7761 C   0  0  0  0  0  0  0  0  0  0  0  0
   -3.7666    2.3258   -3.5246 O   0  0  0  0  0  0  0  0  0  0  0  0
   -5.8256    1.4753   -2.7138 C   0  0  0  0  0  0  0  0  0  0  0  0
   -6.5155    0.3987   -2.1371 C   0  0  0  0  0  0  0  0  0  0  0  0
   -7.9155    0.3958   -2.1101 C   0  0  0  0  0  0  0  0  0  0  0  0
   -8.6266    1.4581   -2.6665 C   0  0  0  0  0  0  0  0  0  0  0  0
  -10.3469    1.4479   -2.6325 Cl  0  0  0  0  0  0  0  0  0  0  0  0
   -7.9519    2.5250   -3.2554 C   0  0  0  0  0  0  0  0  0  0  0  0
   -6.5539    2.5326   -3.2804 C   0  0  0  0  0  0  0  0  0  0  0  0
   -0.2032    2.1677   -0.6292 H   0  0  0  0  0  0  0  0  0  0  0  0
    0.3201    0.6670   -1.4141 H   0  0  0  0  0  0  0  0  0  0  0  0
   -0.0769    1.0378    1.6142 H   0  0  0  0  0  0  0  0  0  0  0  0
    1.4605    1.1469    0.7734 H   0  0  0  0  0  0  0  0  0  0  0  0
    1.0753   -1.2517   -0.0723 H   0  0  0  0  0  0  0  0  0  0  0  0
   -0.3054   -1.3581    1.0093 H   0  0  0  0  0  0  0  0  0  0  0  0
    5.4415   -1.9615    4.0412 H   0  0  0  0  0  0  0  0  0  0  0  0
    6.1091   -3.6020    1.5543 H   0  0  0  0  0  0  0  0  0  0  0  0
    7.7708   -3.3269   -0.2479 H   0  0  0  0  0  0  0  0  0  0  0  0
    8.6184   -1.0704   -0.8357 H   0  0  0  0  0  0  0  0  0  0  0  0
    7.8000    0.9195    0.3868 H   0  0  0  0  0  0  0  0  0  0  0  0
   -1.8680    1.5783   -2.4884 H   0  0  0  0  0  0  0  0  0  0  0  0
   -4.0642    0.2639   -1.1159 H   0  0  0  0  0  0  0  0  0  0  0  0
   -5.9931   -0.4567   -1.7204 H   0  0  0  0  0  0  0  0  0  0  0  0
   -8.4442   -0.4402   -1.6600 H   0  0  0  0  0  0  0  0  0  0  0  0
   -8.5037    3.3505   -3.6984 H   0  0  0  0  0  0  0  0  0  0  0  0
   -6.0341    3.3707   -3.7450 H   0  0  0  0  0  0  0  0  0  0  0  0
  1  2  2  0
  2  3  1  0
  3  4  1  0
  4  5  1  0
  5  6  1  0
  6  7  1  0
  7  8  2  0
  7  9  1  0
  9 10  2  3
 10 11  1  0
 11 12  2  0
 12 13  1  0
 13 14  2  0
 14 15  1  0
 15 16  2  0
 16 17  1  0
  9 18  1  0
 18 19  1  0
 19 20  2  0
  2 21  1  0
 21 22  1  0
 22 23  1  0
 23 24  2  0
 23 25  1  0
 25 26  2  0
 26 27  1  0
 27 28  2  0
 28 29  1  0
 28 30  1  0
 30 31  2  0
 19  6  1  0
 31 25  1  0
 16 11  1  0
  3 32  1  0
  3 33  1  0
  4 34  1  0
  4 35  1  0
  5 36  1  0
  5 37  1  0
 10 38  1  0
 12 39  1  0
 13 40  1  0
 14 41  1  0
 15 42  1  0
 21 43  1  0
 22 44  1  0
 26 45  1  0
 27 46  1  0
 30 47  1  0
 31 48  1  0
M  END
$$$$
