
     RDKit          3D

 61 64  0  0  0  0  0  0  0  0999 V2000
   -6.6361   -2.8454   -2.3932 C   0  0  0  0  0  0  0  0  0  0  0  0
   -6.0808   -1.9142   -1.4635 O   0  0  0  0  0  0  0  0  0  0  0  0
   -4.9479   -2.3570   -0.8439 C   0  0  0  0  0  0  0  0  0  0  0  0
   -4.4252   -3.4462   -1.0343 O   0  0  0  0  0  0  0  0  0  0  0  0
   -4.4541   -1.2962    0.1122 C   0  0  0  0  0  0  0  0  0  0  0  0
   -3.1228   -1.6547    0.7709 C   0  0  0  0  0  0  0  0  0  0  0  0
   -1.9454   -1.5278   -0.1624 C   0  0  0  0  0  0  0  0  0  0  0  0
   -0.8935   -0.6770   -0.1366 C   0  0  0  0  0  0  0  0  0  0  0  0
    0.1840   -0.9830   -1.1033 C   0  0  0  0  0  0  0  0  0  0  0  0
    1.3874   -0.3742   -1.0725 C   0  0  0  0  0  0  0  0  0  0  0  0
    2.4755   -0.7295   -2.0423 C   0  0  0  0  0  0  0  0  0  0  0  0
    3.3268    0.4970   -2.2818 C   0  0  0  0  0  0  0  0  0  0  0  0
    3.4089    1.0135   -3.3958 O   0  0  0  0  0  0  0  0  0  0  0  0
    4.0058    1.0679   -1.0257 C   0  0  0  0  0  0  0  0  0  0  0  0
    4.8248    2.3212   -1.3493 C   0  0  0  0  0  0  0  0  0  0  0  0
    4.8102    0.1249   -0.2882 O   0  0  0  0  0  0  0  0  0  0  0  0
    5.8043   -0.5340   -0.9421 C   0  0  0  0  0  0  0  0  0  0  0  0
    6.0020   -0.4377   -2.1454 O   0  0  0  0  0  0  0  0  0  0  0  0
    6.5692   -1.3803   -0.0447 C   0  0  0  0  0  0  0  0  0  0  0  0
    7.6620   -2.1598   -0.3838 C   0  0  0  0  0  0  0  0  0  0  0  0
    8.1911   -2.8792    0.7257 C   0  0  0  0  0  0  0  0  0  0  0  0
    7.4868   -2.6293    1.8811 C   0  0  0  0  0  0  0  0  0  0  0  0
    6.1978   -1.5378    1.6221 S   0  0  0  0  0  0  0  0  0  0  0  0
    2.9205    1.4277   -0.0057 C   0  0  0  0  0  0  0  0  0  0  0  0
    3.0980    2.2718    0.8751 O   0  0  0  0  0  0  0  0  0  0  0  0
    1.6295    0.6656   -0.0799 C   0  0  0  0  0  0  0  0  0  0  0  0
    0.6261    1.0076    0.7461 C   0  0  0  0  0  0  0  0  0  0  0  0
   -0.6431    0.4100    0.7373 N   0  0  0  0  0  0  0  0  0  0  0  0
   -1.6881    1.1400    1.3819 C   0  0  0  0  0  0  0  0  0  0  0  0
   -2.7145    1.7398    0.6370 C   0  0  0  0  0  0  0  0  0  0  0  0
   -3.7233    2.4806    1.2651 C   0  0  0  0  0  0  0  0  0  0  0  0
   -3.7149    2.6393    2.6503 C   0  0  0  0  0  0  0  0  0  0  0  0
   -4.6353    3.3329    3.3862 O   0  0  0  0  0  0  0  0  0  0  0  0
   -5.6821    3.9749    2.6692 C   0  0  0  0  0  0  0  0  0  0  0  0
   -2.6893    2.0567    3.3980 C   0  0  0  0  0  0  0  0  0  0  0  0
   -1.6803    1.3199    2.7721 C   0  0  0  0  0  0  0  0  0  0  0  0
   -5.9196   -3.0641   -3.1922 H   0  0  0  0  0  0  0  0  0  0  0  0
   -7.5242   -2.3888   -2.8404 H   0  0  0  0  0  0  0  0  0  0  0  0
   -6.9390   -3.7638   -1.8790 H   0  0  0  0  0  0  0  0  0  0  0  0
   -5.2148   -1.1855    0.8932 H   0  0  0  0  0  0  0  0  0  0  0  0
   -4.3726   -0.3524   -0.4354 H   0  0  0  0  0  0  0  0  0  0  0  0
   -3.1528   -2.6916    1.1305 H   0  0  0  0  0  0  0  0  0  0  0  0
   -2.9907   -1.0509    1.6702 H   0  0  0  0  0  0  0  0  0  0  0  0
   -1.9431   -2.3241   -0.9095 H   0  0  0  0  0  0  0  0  0  0  0  0
   -0.0038   -1.7610   -1.8408 H   0  0  0  0  0  0  0  0  0  0  0  0
    3.1075   -1.5302   -1.6452 H   0  0  0  0  0  0  0  0  0  0  0  0
    2.0676   -1.0666   -3.0020 H   0  0  0  0  0  0  0  0  0  0  0  0
    5.3704    2.6766   -0.4679 H   0  0  0  0  0  0  0  0  0  0  0  0
    4.1849    3.1348   -1.7082 H   0  0  0  0  0  0  0  0  0  0  0  0
    5.5742    2.1241   -2.1234 H   0  0  0  0  0  0  0  0  0  0  0  0
    8.0639   -2.2065   -1.3906 H   0  0  0  0  0  0  0  0  0  0  0  0
    9.0454   -3.5440    0.6786 H   0  0  0  0  0  0  0  0  0  0  0  0
    7.6662   -3.0347    2.8675 H   0  0  0  0  0  0  0  0  0  0  0  0
    0.7360    1.8200    1.4619 H   0  0  0  0  0  0  0  0  0  0  0  0
   -2.7219    1.6422   -0.4461 H   0  0  0  0  0  0  0  0  0  0  0  0
   -4.4927    2.9234    0.6420 H   0  0  0  0  0  0  0  0  0  0  0  0
   -6.3077    3.2435    2.1478 H   0  0  0  0  0  0  0  0  0  0  0  0
   -6.3140    4.4956    3.3949 H   0  0  0  0  0  0  0  0  0  0  0  0
   -5.2857    4.7236    1.9753 H   0  0  0  0  0  0  0  0  0  0  0  0
   -2.6732    2.1799    4.4780 H   0  0  0  0  0  0  0  0  0  0  0  0
   -0.8940    0.8724    3.3744 H   0  0  0  0  0  0  0  0  0  0  0  0
  1  2  1  0
  2  3  1  0
  3  4  2  0
  3  5  1  0
  5  6  1  0
  6  7  1  0
  7  8  2  3
  8  9  1  0
  9 10  2  0
 10 11  1  0
 11 12  1  0
 12 13  2  0
 12 14  1  0
 14 15  1  0
 14 16  1  0
 16 17  1  0
 17 18  2  0
 17 19  1  0
 19 20  2  0
 20 21  1  0
 21 22  2  0
 22 23  1  0
 14 24  1  0
 24 25  2  0
 24 26  1  0
 26 27  2  0
 27 28  1  0
 28 29  1  0
 29 30  2  0
 30 31  1  0
 31 32  2  0
 32 33  1  0
 33 34  1  0
 32 35  1  0
 35 36  2  0
 28  8  1  0
 36 29  1  0
 26 10  1  0
 23 19  1  0
  1 37  1  0
  1 38  1  0
  1 39  1  0
  5 40  1  0
  5 41  1  0
  6 42  1  0
  6 43  1  0
  7 44  1  0
  9 45  1  0
 11 46  1  0
 11 47  1  0
 15 48  1  0
 15 49  1  0
 15 50  1  0
 20 51  1  0
 21 52  1  0
 22 53  1  0
 27 54  1  0
 30 55  1  0
 31 56  1  0
 34 57  1  0
 34 58  1  0
 34 59  1  0
 35 60  1  0
 36 61  1  0
M  END
$$$$
