
     RDKit          3D

 47 49  0  0  0  0  0  0  0  0999 V2000
    0.3584    4.5451   -2.3600 C   0  0  0  0  0  0  0  0  0  0  0  0
   -0.8065    4.0600   -1.6900 O   0  0  0  0  0  0  0  0  0  0  0  0
   -0.5726    3.0346   -0.8246 C   0  0  0  0  0  0  0  0  0  0  0  0
    0.5371    2.5785   -0.5619 O   0  0  0  0  0  0  0  0  0  0  0  0
   -1.8728    2.5893   -0.1652 C   0  0  0  0  0  0  0  0  0  0  0  0
   -1.9200    1.1396    0.0289 N   0  0  0  0  0  0  0  0  0  0  0  0
   -1.2868    0.4424    1.0521 C   0  0  0  0  0  0  0  0  0  0  0  0
   -0.4309    1.0938    2.0893 C   0  0  0  0  0  0  0  0  0  0  0  0
    0.9206    0.3975    2.1314 C   0  0  0  0  0  0  0  0  0  0  0  0
    1.0504   -0.6233    2.8069 O   0  0  0  0  0  0  0  0  0  0  0  0
    1.8662    0.9762    1.3100 N   0  0  0  0  0  0  0  0  0  0  0  0
    3.2114    0.5908    1.1495 C   0  0  0  0  0  0  0  0  0  0  0  0
    3.8508   -0.3603    1.9479 C   0  0  0  0  0  0  0  0  0  0  0  0
    5.1955   -0.6810    1.7281 C   0  0  0  0  0  0  0  0  0  0  0  0
    5.9047   -0.0482    0.7109 C   0  0  0  0  0  0  0  0  0  0  0  0
    7.5572   -0.4424    0.4434 Cl  0  0  0  0  0  0  0  0  0  0  0  0
    5.2815    0.9051   -0.0888 C   0  0  0  0  0  0  0  0  0  0  0  0
    3.9386    1.2242    0.1325 C   0  0  0  0  0  0  0  0  0  0  0  0
   -1.5662   -0.8676    0.9090 C   0  0  0  0  0  0  0  0  0  0  0  0
   -1.1120   -1.9099    1.6631 O   0  0  0  0  0  0  0  0  0  0  0  0
   -2.3523   -1.0866   -0.2162 N   0  0  0  0  0  0  0  0  0  0  0  0
   -2.8256   -2.3520   -0.6770 C   0  0  0  0  0  0  0  0  0  0  0  0
   -3.1933   -3.3498    0.2412 C   0  0  0  0  0  0  0  0  0  0  0  0
   -3.6569   -4.5994   -0.1865 C   0  0  0  0  0  0  0  0  0  0  0  0
   -3.7490   -4.8725   -1.5459 C   0  0  0  0  0  0  0  0  0  0  0  0
   -4.3163   -6.4062   -2.0779 Cl  0  0  0  0  0  0  0  0  0  0  0  0
   -3.3753   -3.9092   -2.4762 C   0  0  0  0  0  0  0  0  0  0  0  0
   -2.9135   -2.6599   -2.0418 C   0  0  0  0  0  0  0  0  0  0  0  0
   -2.6058    0.2035   -0.8188 C   0  0  0  0  0  0  0  0  0  0  0  0
   -3.5378    0.6130   -2.1424 S   0  0  0  0  0  0  0  0  0  0  0  0
    1.0646    4.9676   -1.6385 H   0  0  0  0  0  0  0  0  0  0  0  0
    0.0492    5.3365   -3.0480 H   0  0  0  0  0  0  0  0  0  0  0  0
    0.8285    3.7447   -2.9400 H   0  0  0  0  0  0  0  0  0  0  0  0
   -1.9754    3.0951    0.8002 H   0  0  0  0  0  0  0  0  0  0  0  0
   -2.7152    2.9096   -0.7838 H   0  0  0  0  0  0  0  0  0  0  0  0
   -0.9001    1.0038    3.0761 H   0  0  0  0  0  0  0  0  0  0  0  0
   -0.2769    2.1633    1.9262 H   0  0  0  0  0  0  0  0  0  0  0  0
    1.5249    1.6751    0.6449 H   0  0  0  0  0  0  0  0  0  0  0  0
    3.3343   -0.8686    2.7561 H   0  0  0  0  0  0  0  0  0  0  0  0
    5.6781   -1.4248    2.3567 H   0  0  0  0  0  0  0  0  0  0  0  0
    5.8305    1.4013   -0.8843 H   0  0  0  0  0  0  0  0  0  0  0  0
    3.4669    1.9689   -0.5048 H   0  0  0  0  0  0  0  0  0  0  0  0
   -0.3862   -1.6118    2.2494 H   0  0  0  0  0  0  0  0  0  0  0  0
   -3.1538   -3.1593    1.3108 H   0  0  0  0  0  0  0  0  0  0  0  0
   -3.9433   -5.3462    0.5488 H   0  0  0  0  0  0  0  0  0  0  0  0
   -3.4275   -4.1210   -3.5408 H   0  0  0  0  0  0  0  0  0  0  0  0
   -2.5774   -1.9596   -2.8001 H   0  0  0  0  0  0  0  0  0  0  0  0
  1  2  1  0
  2  3  1  0
  3  4  2  0
  3  5  1  0
  5  6  1  0
  6  7  1  0
  7  8  1  0
  8  9  1  0
  9 10  2  0
  9 11  1  0
 11 12  1  0
 12 13  2  0
 13 14  1  0
 14 15  2  0
 15 16  1  0
 15 17  1  0
 17 18  2  0
  7 19  2  0
 19 20  1  0
 19 21  1  0
 21 22  1  0
 22 23  2  0
 23 24  1  0
 24 25  2  0
 25 26  1  0
 25 27  1  0
 27 28  2  0
 21 29  1  0
 29 30  2  0
 29  6  1  0
 18 12  1  0
 28 22  1  0
  1 31  1  0
  1 32  1  0
  1 33  1  0
  5 34  1  0
  5 35  1  0
  8 36  1  0
  8 37  1  0
 11 38  1  0
 13 39  1  0
 14 40  1  0
 17 41  1  0
 18 42  1  0
 20 43  1  0
 23 44  1  0
 24 45  1  0
 27 46  1  0
 28 47  1  0
M  END
$$$$
