
     RDKit          3D

 43 45  0  0  0  0  0  0  0  0999 V2000
   -1.6344    4.7584    0.5667 C   0  0  0  0  0  0  0  0  0  0  0  0
   -1.4903    3.6251    1.4254 O   0  0  0  0  0  0  0  0  0  0  0  0
   -1.1582    2.4719    0.7736 C   0  0  0  0  0  0  0  0  0  0  0  0
   -0.9417    2.3892   -0.4275 O   0  0  0  0  0  0  0  0  0  0  0  0
   -1.0545    1.3470    1.7711 C   0  0  0  0  0  0  0  0  0  0  0  0
   -0.8781    0.0470    1.1430 N   0  0  0  0  0  0  0  0  0  0  0  0
    0.2945   -0.6767    0.9798 C   0  0  0  0  0  0  0  0  0  0  0  0
    1.6721   -0.1886    1.3450 C   0  0  0  0  0  0  0  0  0  0  0  0
    2.5776    0.1069    0.2251 N   0  0  0  0  0  0  0  0  0  0  0  0
    2.0651    1.1312   -0.7021 C   0  0  0  0  0  0  0  0  0  0  0  0
    3.0998    1.4410   -1.7975 C   0  0  0  0  0  0  0  0  0  0  0  0
    3.4618    0.2614   -2.5284 O   0  0  0  0  0  0  0  0  0  0  0  0
    3.9760   -0.7375   -1.6365 C   0  0  0  0  0  0  0  0  0  0  0  0
    2.9527   -1.0950   -0.5454 C   0  0  0  0  0  0  0  0  0  0  0  0
    0.0299   -1.8738    0.4697 N   0  0  0  0  0  0  0  0  0  0  0  0
   -1.3067   -1.8838    0.2397 C   0  0  0  0  0  0  0  0  0  0  0  0
   -1.8953   -0.7237    0.6423 C   0  0  0  0  0  0  0  0  0  0  0  0
   -3.2903   -0.4884    0.5056 C   0  0  0  0  0  0  0  0  0  0  0  0
   -3.8650    0.5336    0.8625 O   0  0  0  0  0  0  0  0  0  0  0  0
   -3.9500   -1.5496   -0.0709 N   0  0  0  0  0  0  0  0  0  0  0  0
   -3.4019   -2.7484   -0.4917 C   0  0  0  0  0  0  0  0  0  0  0  0
   -4.1435   -3.5993   -0.9830 O   0  0  0  0  0  0  0  0  0  0  0  0
   -2.0310   -2.9121   -0.3231 N   0  0  0  0  0  0  0  0  0  0  0  0
   -1.3713   -4.1308   -0.7480 C   0  0  0  0  0  0  0  0  0  0  0  0
   -1.9269    5.6140    1.1816 H   0  0  0  0  0  0  0  0  0  0  0  0
   -0.6826    4.9908    0.0789 H   0  0  0  0  0  0  0  0  0  0  0  0
   -2.4189    4.5806   -0.1755 H   0  0  0  0  0  0  0  0  0  0  0  0
   -0.2177    1.5339    2.4463 H   0  0  0  0  0  0  0  0  0  0  0  0
   -1.9673    1.2990    2.3733 H   0  0  0  0  0  0  0  0  0  0  0  0
    2.1382   -0.9496    1.9848 H   0  0  0  0  0  0  0  0  0  0  0  0
    1.6214    0.7034    1.9757 H   0  0  0  0  0  0  0  0  0  0  0  0
    1.8462    2.0554   -0.1563 H   0  0  0  0  0  0  0  0  0  0  0  0
    1.1436    0.7849   -1.1852 H   0  0  0  0  0  0  0  0  0  0  0  0
    4.0048    1.8907   -1.3713 H   0  0  0  0  0  0  0  0  0  0  0  0
    2.6792    2.1560   -2.5118 H   0  0  0  0  0  0  0  0  0  0  0  0
    4.2059   -1.6258   -2.2337 H   0  0  0  0  0  0  0  0  0  0  0  0
    4.9155   -0.3795   -1.1982 H   0  0  0  0  0  0  0  0  0  0  0  0
    2.0757   -1.5361   -1.0326 H   0  0  0  0  0  0  0  0  0  0  0  0
    3.3938   -1.8480    0.1173 H   0  0  0  0  0  0  0  0  0  0  0  0
   -4.9439   -1.4506   -0.2032 H   0  0  0  0  0  0  0  0  0  0  0  0
   -0.8725   -4.5871    0.1128 H   0  0  0  0  0  0  0  0  0  0  0  0
   -0.6297   -3.8867   -1.5151 H   0  0  0  0  0  0  0  0  0  0  0  0
   -2.0819   -4.8504   -1.1636 H   0  0  0  0  0  0  0  0  0  0  0  0
  1  2  1  0
  2  3  1  0
  3  4  2  0
  3  5  1  0
  5  6  1  0
  6  7  1  0
  7  8  1  0
  8  9  1  0
  9 10  1  0
 10 11  1  0
 11 12  1  0
 12 13  1  0
 13 14  1  0
  7 15  2  0
 15 16  1  0
 16 17  2  0
 17 18  1  0
 18 19  2  0
 18 20  1  0
 20 21  1  0
 21 22  2  0
 21 23  1  0
 23 24  1  0
 17  6  1  0
 14  9  1  0
 23 16  1  0
  1 25  1  0
  1 26  1  0
  1 27  1  0
  5 28  1  0
  5 29  1  0
  8 30  1  0
  8 31  1  0
 10 32  1  0
 10 33  1  0
 11 34  1  0
 11 35  1  0
 13 36  1  0
 13 37  1  0
 14 38  1  0
 14 39  1  0
 20 40  1  0
 24 41  1  0
 24 42  1  0
 24 43  1  0
M  END
$$$$
