
     RDKit          3D

 61 63  0  0  0  0  0  0  0  0999 V2000
   -0.6260   -0.2164    3.8638 C   0  0  0  0  0  0  0  0  0  0  0  0
    0.2308    1.0187    3.6309 C   0  0  0  0  0  0  0  0  0  0  0  0
   -0.5687    2.2206    3.1207 C   0  0  0  0  0  0  0  0  0  0  0  0
   -1.1606    2.0387    1.7260 C   0  0  0  0  0  0  0  0  0  0  0  0
   -0.1368    1.9407    0.7028 N   0  0  0  0  0  0  0  0  0  0  0  0
   -0.4600    1.5184   -0.5706 C   0  0  0  0  0  0  0  0  0  0  0  0
   -1.5662    1.0724   -0.8724 O   0  0  0  0  0  0  0  0  0  0  0  0
    0.6678    1.6511   -1.6007 C   0  0  0  0  0  0  0  0  0  0  0  0
    0.7249    3.1119   -2.0812 C   0  0  0  0  0  0  0  0  0  0  0  0
    2.0876    3.5103   -2.5994 C   0  0  0  0  0  0  0  0  0  0  0  0
    2.9181    4.3520   -1.8455 C   0  0  0  0  0  0  0  0  0  0  0  0
    4.1779    4.7152   -2.3247 C   0  0  0  0  0  0  0  0  0  0  0  0
    4.6194    4.2418   -3.5599 C   0  0  0  0  0  0  0  0  0  0  0  0
    3.8025    3.4055   -4.3160 C   0  0  0  0  0  0  0  0  0  0  0  0
    2.5426    3.0427   -3.8397 C   0  0  0  0  0  0  0  0  0  0  0  0
    0.3535    0.7601   -2.7471 N   0  0  0  0  0  0  0  0  0  0  0  0
    1.0691   -0.7546   -2.8103 S   0  0  0  0  0  6  0  0  0  0  0  0
    2.4849   -0.5879   -2.5656 O   0  0  0  0  0  0  0  0  0  0  0  0
    0.5754   -1.4078   -4.0010 O   0  0  0  0  0  0  0  0  0  0  0  0
    0.3776   -1.6086   -1.4170 C   0  0  0  0  0  0  0  0  0  0  0  0
    1.1667   -1.8935   -0.3035 C   0  0  0  0  0  0  0  0  0  0  0  0
    0.6193   -2.6085    0.7680 C   0  0  0  0  0  0  0  0  0  0  0  0
   -0.7168   -3.0450    0.7406 C   0  0  0  0  0  0  0  0  0  0  0  0
   -1.4862   -2.7472   -0.3847 C   0  0  0  0  0  0  0  0  0  0  0  0
   -0.9457   -2.0435   -1.4713 C   0  0  0  0  0  0  0  0  0  0  0  0
   -2.8877   -3.1910   -0.4373 C   0  0  0  0  0  0  0  0  0  0  0  0
   -3.5399   -2.9930   -1.4598 O   0  0  0  0  0  0  0  0  0  0  0  0
   -3.3823   -3.8265    0.6907 N   0  0  0  0  0  0  0  0  0  0  0  0
   -4.7675   -4.2598    0.6730 C   0  0  0  0  0  0  0  0  0  0  0  0
   -2.6244   -4.1905    1.7974 C   0  0  0  0  0  0  0  0  0  0  0  0
   -3.1122   -4.8466    2.7211 O   0  0  0  0  0  0  0  0  0  0  0  0
   -1.2924   -3.7850    1.8075 N   0  0  0  0  0  0  0  0  0  0  0  0
   -0.4676   -4.1747    2.9442 C   0  0  0  0  0  0  0  0  0  0  0  0
   -1.4583    0.0049    4.5387 H   0  0  0  0  0  0  0  0  0  0  0  0
   -0.0240   -1.0077    4.3204 H   0  0  0  0  0  0  0  0  0  0  0  0
   -1.0346   -0.6049    2.9266 H   0  0  0  0  0  0  0  0  0  0  0  0
    0.7009    1.2974    4.5822 H   0  0  0  0  0  0  0  0  0  0  0  0
    1.0432    0.7762    2.9371 H   0  0  0  0  0  0  0  0  0  0  0  0
   -1.3815    2.4369    3.8245 H   0  0  0  0  0  0  0  0  0  0  0  0
    0.0889    3.0985    3.1207 H   0  0  0  0  0  0  0  0  0  0  0  0
   -1.7749    2.9106    1.4746 H   0  0  0  0  0  0  0  0  0  0  0  0
   -1.8121    1.1616    1.6740 H   0  0  0  0  0  0  0  0  0  0  0  0
    0.7016    2.4959    0.8259 H   0  0  0  0  0  0  0  0  0  0  0  0
    1.6129    1.3653   -1.1254 H   0  0  0  0  0  0  0  0  0  0  0  0
   -0.0177    3.2928   -2.8705 H   0  0  0  0  0  0  0  0  0  0  0  0
    0.4494    3.7965   -1.2681 H   0  0  0  0  0  0  0  0  0  0  0  0
    2.5929    4.7369   -0.8815 H   0  0  0  0  0  0  0  0  0  0  0  0
    4.8164    5.3694   -1.7365 H   0  0  0  0  0  0  0  0  0  0  0  0
    5.6006    4.5221   -3.9328 H   0  0  0  0  0  0  0  0  0  0  0  0
    4.1451    3.0306   -5.2777 H   0  0  0  0  0  0  0  0  0  0  0  0
    1.9215    2.3850   -4.4439 H   0  0  0  0  0  0  0  0  0  0  0  0
   -0.6448    0.7260   -2.9784 H   0  0  0  0  0  0  0  0  0  0  0  0
    2.2089   -1.5809   -0.2635 H   0  0  0  0  0  0  0  0  0  0  0  0
    1.2692   -2.8149    1.6137 H   0  0  0  0  0  0  0  0  0  0  0  0
   -1.5587   -1.8361   -2.3473 H   0  0  0  0  0  0  0  0  0  0  0  0
   -5.3445   -3.7644   -0.1126 H   0  0  0  0  0  0  0  0  0  0  0  0
   -5.2358   -4.0463    1.6391 H   0  0  0  0  0  0  0  0  0  0  0  0
   -4.7902   -5.3411    0.5051 H   0  0  0  0  0  0  0  0  0  0  0  0
   -0.0743   -3.2820    3.4338 H   0  0  0  0  0  0  0  0  0  0  0  0
    0.3518   -4.8090    2.5956 H   0  0  0  0  0  0  0  0  0  0  0  0
   -1.0291   -4.7395    3.6918 H   0  0  0  0  0  0  0  0  0  0  0  0
  1  2  1  0
  2  3  1  0
  3  4  1  0
  4  5  1  0
  5  6  1  0
  6  7  2  0
  6  8  1  0
  8  9  1  0
  9 10  1  0
 10 11  2  0
 11 12  1  0
 12 13  2  0
 13 14  1  0
 14 15  2  0
  8 16  1  0
 16 17  1  0
 17 18  2  0
 17 19  2  0
 17 20  1  0
 20 21  2  0
 21 22  1  0
 22 23  2  0
 23 24  1  0
 24 25  2  0
 24 26  1  0
 26 27  2  0
 26 28  1  0
 28 29  1  0
 28 30  1  0
 30 31  2  0
 30 32  1  0
 32 33  1  0
 15 10  1  0
 25 20  1  0
 32 23  1  0
  1 34  1  0
  1 35  1  0
  1 36  1  0
  2 37  1  0
  2 38  1  0
  3 39  1  0
  3 40  1  0
  4 41  1  0
  4 42  1  0
  5 43  1  0
  8 44  1  0
  9 45  1  0
  9 46  1  0
 11 47  1  0
 12 48  1  0
 13 49  1  0
 14 50  1  0
 15 51  1  0
 16 52  1  0
 21 53  1  0
 22 54  1  0
 25 55  1  0
 29 56  1  0
 29 57  1  0
 29 58  1  0
 33 59  1  0
 33 60  1  0
 33 61  1  0
M  END
$$$$
