
     RDKit          3D

 39 41  0  0  0  0  0  0  0  0999 V2000
    2.6285    0.3383    1.4738 C   0  0  0  0  0  0  0  0  0  0  0  0
    3.5103   -0.0881    0.2975 C   0  0  0  0  0  0  0  0  0  0  0  0
    4.9648    0.2757    0.6170 C   0  0  0  0  0  0  0  0  0  0  0  0
    3.0831    0.5781   -1.0264 C   0  0  0  0  0  0  0  0  0  0  0  0
    1.9984   -0.1776   -1.8115 C   0  0  0  0  0  0  0  0  0  0  0  0
    0.6882   -0.1974   -1.1706 N   0  0  0  0  0  0  0  0  0  0  0  0
    0.2568   -1.3924   -0.5983 C   0  0  0  0  0  0  0  0  0  0  0  0
    0.9182   -2.4279   -0.5920 O   0  0  0  0  0  0  0  0  0  0  0  0
   -1.0804   -1.3903    0.0405 C   0  0  0  0  0  0  0  0  0  0  0  0
   -1.5463   -2.5712    0.6311 C   0  0  0  0  0  0  0  0  0  0  0  0
   -2.7957   -2.5975    1.2341 C   0  0  0  0  0  0  0  0  0  0  0  0
   -3.5781   -1.4426    1.2553 C   0  0  0  0  0  0  0  0  0  0  0  0
   -3.1339   -0.2305    0.6767 C   0  0  0  0  0  0  0  0  0  0  0  0
   -3.8975    0.9689    0.6974 C   0  0  0  0  0  0  0  0  0  0  0  0
   -5.2149    1.0321    1.1985 N   0  0  0  0  0  0  0  0  0  0  0  0
   -3.4289    2.1031    0.0256 C   0  0  0  0  0  0  0  0  0  0  0  0
   -2.1806    2.1027   -0.5860 C   0  0  0  0  0  0  0  0  0  0  0  0
   -1.3957    0.9465   -0.5656 C   0  0  0  0  0  0  0  0  0  0  0  0
   -1.8570   -0.2234    0.0490 C   0  0  0  0  0  0  0  0  0  0  0  0
   -0.0696    0.9709   -1.2248 C   0  0  0  0  0  0  0  0  0  0  0  0
    0.3008    1.9984   -1.7878 O   0  0  0  0  0  0  0  0  0  0  0  0
    2.6506    1.4247    1.6124 H   0  0  0  0  0  0  0  0  0  0  0  0
    1.5880    0.0398    1.3375 H   0  0  0  0  0  0  0  0  0  0  0  0
    2.9767   -0.1242    2.4039 H   0  0  0  0  0  0  0  0  0  0  0  0
    3.4570   -1.1785    0.1926 H   0  0  0  0  0  0  0  0  0  0  0  0
    5.2888   -0.1952    1.5512 H   0  0  0  0  0  0  0  0  0  0  0  0
    5.6358   -0.0698   -0.1768 H   0  0  0  0  0  0  0  0  0  0  0  0
    5.0902    1.3590    0.7207 H   0  0  0  0  0  0  0  0  0  0  0  0
    2.7732    1.6135   -0.8415 H   0  0  0  0  0  0  0  0  0  0  0  0
    3.9555    0.6365   -1.6907 H   0  0  0  0  0  0  0  0  0  0  0  0
    1.8823    0.3083   -2.7888 H   0  0  0  0  0  0  0  0  0  0  0  0
    2.3428   -1.1974   -2.0172 H   0  0  0  0  0  0  0  0  0  0  0  0
   -0.9365   -3.4730    0.6195 H   0  0  0  0  0  0  0  0  0  0  0  0
   -3.1617   -3.5145    1.6902 H   0  0  0  0  0  0  0  0  0  0  0  0
   -4.5498   -1.5081    1.7374 H   0  0  0  0  0  0  0  0  0  0  0  0
   -5.4062    0.3609    1.9339 H   0  0  0  0  0  0  0  0  0  0  0  0
   -5.8947    0.9310    0.4470 H   0  0  0  0  0  0  0  0  0  0  0  0
   -4.0363    3.0056   -0.0010 H   0  0  0  0  0  0  0  0  0  0  0  0
   -1.8265    3.0054   -1.0802 H   0  0  0  0  0  0  0  0  0  0  0  0
  1  2  1  0
  2  3  1  0
  2  4  1  0
  4  5  1  0
  5  6  1  0
  6  7  1  0
  7  8  2  0
  7  9  1  0
  9 10  1  0
 10 11  2  0
 11 12  1  0
 12 13  2  0
 13 14  1  0
 14 15  1  0
 14 16  2  0
 16 17  1  0
 17 18  2  0
 18 19  1  0
 18 20  1  0
 20 21  2  0
 20  6  1  0
 19  9  2  0
 19 13  1  0
  1 22  1  0
  1 23  1  0
  1 24  1  0
  2 25  1  0
  3 26  1  0
  3 27  1  0
  3 28  1  0
  4 29  1  0
  4 30  1  0
  5 31  1  0
  5 32  1  0
 10 33  1  0
 11 34  1  0
 12 35  1  0
 15 36  1  0
 15 37  1  0
 16 38  1  0
 17 39  1  0
M  END
$$$$
