
     RDKit          3D

 48 50  0  0  0  0  0  0  0  0999 V2000
    6.0638    0.5298   -2.1559 C   0  0  0  0  0  0  0  0  0  0  0  0
    5.5493    0.6751   -0.7319 C   0  0  0  0  0  0  0  0  0  0  0  0
    4.6333   -0.4179   -0.3819 N   0  0  0  0  0  0  0  0  0  0  0  0
    5.2466   -1.6443    0.1461 C   0  0  0  0  0  0  0  0  0  0  0  0
    5.1399   -2.7973   -0.8433 C   0  0  0  0  0  0  0  0  0  0  0  0
    3.2532   -0.2666   -0.4854 C   0  0  0  0  0  0  0  0  0  0  0  0
    2.6675    0.7618   -1.2453 C   0  0  0  0  0  0  0  0  0  0  0  0
    1.2776    0.9204   -1.3575 C   0  0  0  0  0  0  0  0  0  0  0  0
    0.4166    0.0446   -0.7035 C   0  0  0  0  0  0  0  0  0  0  0  0
   -1.0328    0.1926   -0.8408 C   0  0  0  0  0  0  0  0  0  0  0  0
   -1.8700    0.8481   -0.0112 C   0  0  0  0  0  0  0  0  0  0  0  0
   -1.4378    1.5429    1.2207 C   0  0  0  0  0  0  0  0  0  0  0  0
   -0.3048    1.5252    1.6835 O   0  0  0  0  0  0  0  0  0  0  0  0
   -2.4241    2.2341    1.8600 N   0  0  0  0  0  0  0  0  0  0  0  0
   -3.7646    2.1527    1.6366 C   0  0  0  0  0  0  0  0  0  0  0  0
   -4.5354    2.6949    2.4273 O   0  0  0  0  0  0  0  0  0  0  0  0
   -4.1696    1.4538    0.5202 N   0  0  0  0  0  0  0  0  0  0  0  0
   -5.6018    1.3524    0.2743 C   0  0  0  0  0  0  0  0  0  0  0  0
   -6.1523    0.2150    1.0636 C   0  0  0  0  0  0  0  0  0  0  0  0
   -6.7861    0.1305    2.2867 C   0  0  0  0  0  0  0  0  0  0  0  0
   -7.0630   -1.2412    2.4992 C   0  0  0  0  0  0  0  0  0  0  0  0
   -6.5800   -1.9050    1.3963 C   0  0  0  0  0  0  0  0  0  0  0  0
   -6.0230   -1.0297    0.5210 O   0  0  0  0  0  0  0  0  0  0  0  0
   -3.3113    0.8617   -0.3917 C   0  0  0  0  0  0  0  0  0  0  0  0
   -3.6890    0.3887   -1.4629 O   0  0  0  0  0  0  0  0  0  0  0  0
    0.9596   -0.9875    0.0551 C   0  0  0  0  0  0  0  0  0  0  0  0
    2.3518   -1.1335    0.1575 C   0  0  0  0  0  0  0  0  0  0  0  0
    5.2454    0.4965   -2.8811 H   0  0  0  0  0  0  0  0  0  0  0  0
    6.7116    1.3741   -2.4110 H   0  0  0  0  0  0  0  0  0  0  0  0
    6.6496   -0.3877   -2.2710 H   0  0  0  0  0  0  0  0  0  0  0  0
    6.4062    0.6746   -0.0464 H   0  0  0  0  0  0  0  0  0  0  0  0
    5.0856    1.6582   -0.5896 H   0  0  0  0  0  0  0  0  0  0  0  0
    4.8182   -1.9184    1.1165 H   0  0  0  0  0  0  0  0  0  0  0  0
    6.3126   -1.4766    0.3452 H   0  0  0  0  0  0  0  0  0  0  0  0
    5.6485   -3.6814   -0.4458 H   0  0  0  0  0  0  0  0  0  0  0  0
    4.1000   -3.0715   -1.0431 H   0  0  0  0  0  0  0  0  0  0  0  0
    5.6053   -2.5414   -1.8002 H   0  0  0  0  0  0  0  0  0  0  0  0
    3.2829    1.4668   -1.7955 H   0  0  0  0  0  0  0  0  0  0  0  0
    0.8870    1.7321   -1.9657 H   0  0  0  0  0  0  0  0  0  0  0  0
   -1.4184   -0.2959   -1.7360 H   0  0  0  0  0  0  0  0  0  0  0  0
   -2.1493    2.6931    2.7169 H   0  0  0  0  0  0  0  0  0  0  0  0
   -6.0958    2.2853    0.5704 H   0  0  0  0  0  0  0  0  0  0  0  0
   -5.8099    1.2029   -0.7907 H   0  0  0  0  0  0  0  0  0  0  0  0
   -7.0112    0.9600    2.9440 H   0  0  0  0  0  0  0  0  0  0  0  0
   -7.5521   -1.6919    3.3512 H   0  0  0  0  0  0  0  0  0  0  0  0
   -6.5544   -2.9439    1.0975 H   0  0  0  0  0  0  0  0  0  0  0  0
    0.3156   -1.6869    0.5817 H   0  0  0  0  0  0  0  0  0  0  0  0
    2.7090   -1.9494    0.7777 H   0  0  0  0  0  0  0  0  0  0  0  0
  1  2  1  0
  2  3  1  0
  3  4  1  0
  4  5  1  0
  3  6  1  0
  6  7  2  0
  7  8  1  0
  8  9  2  0
  9 10  1  0
 10 11  2  3
 11 12  1  0
 12 13  2  0
 12 14  1  0
 14 15  1  0
 15 16  2  0
 15 17  1  0
 17 18  1  0
 18 19  1  0
 19 20  2  0
 20 21  1  0
 21 22  2  0
 22 23  1  0
 17 24  1  0
 24 25  2  0
  9 26  1  0
 26 27  2  0
 27  6  1  0
 24 11  1  0
 23 19  1  0
  1 28  1  0
  1 29  1  0
  1 30  1  0
  2 31  1  0
  2 32  1  0
  4 33  1  0
  4 34  1  0
  5 35  1  0
  5 36  1  0
  5 37  1  0
  7 38  1  0
  8 39  1  0
 10 40  1  0
 14 41  1  0
 18 42  1  0
 18 43  1  0
 20 44  1  0
 21 45  1  0
 22 46  1  0
 26 47  1  0
 27 48  1  0
M  END
$$$$
