
     RDKit          3D

 45 47  0  0  0  0  0  0  0  0999 V2000
    3.7555    0.2110   -4.2347 C   0  0  0  0  0  0  0  0  0  0  0  0
    2.8385    0.8348   -3.2115 C   0  0  0  0  0  0  0  0  0  0  0  0
    2.1008    1.7643   -3.5203 O   0  0  0  0  0  0  0  0  0  0  0  0
    2.9640    0.2546   -1.9628 N   0  0  0  0  0  0  0  0  0  0  0  0
    2.2722    0.5989   -0.7836 C   0  0  0  0  0  0  0  0  0  0  0  0
    1.4055    1.6877   -0.6782 C   0  0  0  0  0  0  0  0  0  0  0  0
    0.7272    1.9459    0.5181 C   0  0  0  0  0  0  0  0  0  0  0  0
    0.9147    1.1087    1.6171 C   0  0  0  0  0  0  0  0  0  0  0  0
    0.0767    1.4518    3.1508 S   0  0  0  0  0  6  0  0  0  0  0  0
   -0.5171    2.7672    3.0511 O   0  0  0  0  0  0  0  0  0  0  0  0
    1.0261    1.1579    4.2073 O   0  0  0  0  0  0  0  0  0  0  0  0
   -1.1218    0.2969    3.2005 N   0  0  0  0  0  0  0  0  0  0  0  0
   -0.8274   -0.9796    3.8488 C   0  0  0  0  0  0  0  0  0  0  0  0
   -2.1590   -1.7026    3.6434 C   0  0  0  0  0  0  0  0  0  0  0  0
   -2.9017   -0.9689    2.5849 N   0  0  0  0  0  0  0  0  0  0  0  0
   -2.2684    0.1490    2.4146 C   0  0  0  0  0  0  0  0  0  0  0  0
   -2.7957    1.3554    1.3108 S   0  0  0  0  0  0  0  0  0  0  0  0
   -3.5247    0.3251    0.0114 C   0  0  0  0  0  0  0  0  0  0  0  0
   -2.4828   -0.3631   -0.8408 C   0  0  0  0  0  0  0  0  0  0  0  0
   -2.1618   -1.7140   -0.6292 C   0  0  0  0  0  0  0  0  0  0  0  0
   -1.1819   -2.3386   -1.4025 C   0  0  0  0  0  0  0  0  0  0  0  0
   -0.5238   -1.6173   -2.3910 C   0  0  0  0  0  0  0  0  0  0  0  0
    0.4228   -2.2171   -3.1261 F   0  0  0  0  0  0  0  0  0  0  0  0
   -0.8324   -0.2838   -2.6245 C   0  0  0  0  0  0  0  0  0  0  0  0
   -1.8075    0.3449   -1.8484 C   0  0  0  0  0  0  0  0  0  0  0  0
    1.8149    0.0457    1.5423 C   0  0  0  0  0  0  0  0  0  0  0  0
    2.4825   -0.2111    0.3407 C   0  0  0  0  0  0  0  0  0  0  0  0
    3.9638   -0.8367   -4.0008 H   0  0  0  0  0  0  0  0  0  0  0  0
    3.2767    0.2479   -5.2174 H   0  0  0  0  0  0  0  0  0  0  0  0
    4.6938    0.7706   -4.2637 H   0  0  0  0  0  0  0  0  0  0  0  0
    3.5777   -0.5465   -1.8969 H   0  0  0  0  0  0  0  0  0  0  0  0
    1.2308    2.3606   -1.5120 H   0  0  0  0  0  0  0  0  0  0  0  0
    0.0591    2.8034    0.5746 H   0  0  0  0  0  0  0  0  0  0  0  0
   -0.5951   -0.8749    4.9108 H   0  0  0  0  0  0  0  0  0  0  0  0
   -0.0251   -1.5124    3.3326 H   0  0  0  0  0  0  0  0  0  0  0  0
   -2.0011   -2.7438    3.3459 H   0  0  0  0  0  0  0  0  0  0  0  0
   -2.7554   -1.6948    4.5624 H   0  0  0  0  0  0  0  0  0  0  0  0
   -4.2303   -0.3999    0.4333 H   0  0  0  0  0  0  0  0  0  0  0  0
   -4.1269    0.9759   -0.6331 H   0  0  0  0  0  0  0  0  0  0  0  0
   -2.6763   -2.2865    0.1400 H   0  0  0  0  0  0  0  0  0  0  0  0
   -0.9328   -3.3818   -1.2433 H   0  0  0  0  0  0  0  0  0  0  0  0
   -0.3038    0.2668   -3.3968 H   0  0  0  0  0  0  0  0  0  0  0  0
   -2.0295    1.3957   -2.0283 H   0  0  0  0  0  0  0  0  0  0  0  0
    2.0111   -0.5804    2.4079 H   0  0  0  0  0  0  0  0  0  0  0  0
    3.1676   -1.0549    0.2964 H   0  0  0  0  0  0  0  0  0  0  0  0
  1  2  1  0
  2  3  2  0
  2  4  1  0
  4  5  1  0
  5  6  2  0
  6  7  1  0
  7  8  2  0
  8  9  1  0
  9 10  2  0
  9 11  2  0
  9 12  1  0
 12 13  1  0
 13 14  1  0
 14 15  1  0
 15 16  2  0
 16 17  1  0
 17 18  1  0
 18 19  1  0
 19 20  2  0
 20 21  1  0
 21 22  2  0
 22 23  1  0
 22 24  1  0
 24 25  2  0
  8 26  1  0
 26 27  2  0
 27  5  1  0
 16 12  1  0
 25 19  1  0
  1 28  1  0
  1 29  1  0
  1 30  1  0
  4 31  1  0
  6 32  1  0
  7 33  1  0
 13 34  1  0
 13 35  1  0
 14 36  1  0
 14 37  1  0
 18 38  1  0
 18 39  1  0
 20 40  1  0
 21 41  1  0
 24 42  1  0
 25 43  1  0
 26 44  1  0
 27 45  1  0
M  END
$$$$
