
     RDKit          3D

 62 65  0  0  0  0  0  0  0  0999 V2000
   -0.0357   -1.8449   -3.5106 C   0  0  0  0  0  0  0  0  0  0  0  0
    0.0706   -0.7921   -2.5584 O   0  0  0  0  0  0  0  0  0  0  0  0
    0.9567   -0.9763   -1.5204 C   0  0  0  0  0  0  0  0  0  0  0  0
    1.7086   -2.1361   -1.3070 C   0  0  0  0  0  0  0  0  0  0  0  0
    2.5826   -2.2127   -0.2198 C   0  0  0  0  0  0  0  0  0  0  0  0
    2.6958   -1.1312    0.6575 C   0  0  0  0  0  0  0  0  0  0  0  0
    3.7627   -1.2678    2.0721 S   0  0  0  0  0  6  0  0  0  0  0  0
    3.8870   -2.6777    2.3814 O   0  0  0  0  0  0  0  0  0  0  0  0
    3.3281   -0.3229    3.0770 O   0  0  0  0  0  0  0  0  0  0  0  0
    5.2734   -0.7383    1.4673 N   0  0  0  0  0  0  0  0  0  0  0  0
    5.3259    0.7141    1.0820 C   0  0  0  0  0  0  0  0  0  0  0  0
    6.7059    1.0404    0.4974 C   0  0  0  0  0  0  0  0  0  0  0  0
    7.7531    0.7515    1.4360 O   0  0  0  0  0  0  0  0  0  0  0  0
    7.7359   -0.6414    1.7846 C   0  0  0  0  0  0  0  0  0  0  0  0
    6.3981   -1.0360    2.4203 C   0  0  0  0  0  0  0  0  0  0  0  0
    1.9363    0.0265    0.4684 C   0  0  0  0  0  0  0  0  0  0  0  0
    1.0854    0.1179   -0.6345 C   0  0  0  0  0  0  0  0  0  0  0  0
    0.3131    1.2627   -0.9182 N   0  0  0  0  0  0  0  0  0  0  0  0
    0.3834    2.5110   -0.3309 C   0  0  0  0  0  0  0  0  0  0  0  0
    1.2277    2.8789    0.4810 O   0  0  0  0  0  0  0  0  0  0  0  0
   -0.6662    3.4803   -0.8867 C   0  0  0  0  0  0  0  0  0  0  0  0
   -1.8189    2.8184   -1.4189 O   0  0  0  0  0  0  0  0  0  0  0  0
   -2.7269    2.4272   -0.4760 C   0  0  0  0  0  0  0  0  0  0  0  0
   -2.6350    2.6620    0.7192 O   0  0  0  0  0  0  0  0  0  0  0  0
   -3.8394    1.6518   -1.1450 C   0  0  0  0  0  0  0  0  0  0  0  0
   -4.7975    1.0065   -0.1369 C   0  0  0  0  0  0  0  0  0  0  0  0
   -4.1316   -0.1113    0.7020 C   0  0  0  0  0  0  0  0  0  0  0  0
   -5.0366   -1.3296    0.4456 C   0  0  0  0  0  0  0  0  0  0  0  0
   -6.4031   -1.0968    1.1118 C   0  0  0  0  0  0  0  0  0  0  0  0
   -7.0500   -0.0349    0.2109 C   0  0  0  0  0  0  0  0  0  0  0  0
   -5.9541    0.2451   -0.8341 C   0  0  0  0  0  0  0  0  0  0  0  0
   -5.3705   -1.1555   -1.0341 C   0  0  0  0  0  0  0  0  0  0  0  0
    0.9269   -2.0348   -3.9987 H   0  0  0  0  0  0  0  0  0  0  0  0
   -0.4352   -2.7527   -3.0464 H   0  0  0  0  0  0  0  0  0  0  0  0
   -0.7431   -1.5256   -4.2835 H   0  0  0  0  0  0  0  0  0  0  0  0
    1.6382   -2.9989   -1.9623 H   0  0  0  0  0  0  0  0  0  0  0  0
    3.1621   -3.1196   -0.0565 H   0  0  0  0  0  0  0  0  0  0  0  0
    4.5706    0.9355    0.3244 H   0  0  0  0  0  0  0  0  0  0  0  0
    5.1451    1.3326    1.9692 H   0  0  0  0  0  0  0  0  0  0  0  0
    6.7664    2.1040    0.2519 H   0  0  0  0  0  0  0  0  0  0  0  0
    6.8847    0.4728   -0.4236 H   0  0  0  0  0  0  0  0  0  0  0  0
    8.5509   -0.8139    2.4944 H   0  0  0  0  0  0  0  0  0  0  0  0
    7.9399   -1.2383    0.8868 H   0  0  0  0  0  0  0  0  0  0  0  0
    6.4205   -2.1050    2.6539 H   0  0  0  0  0  0  0  0  0  0  0  0
    6.2445   -0.4665    3.3454 H   0  0  0  0  0  0  0  0  0  0  0  0
    2.0138    0.8354    1.1901 H   0  0  0  0  0  0  0  0  0  0  0  0
   -0.3262    1.1541   -1.7022 H   0  0  0  0  0  0  0  0  0  0  0  0
   -0.1989    4.0324   -1.7092 H   0  0  0  0  0  0  0  0  0  0  0  0
   -0.9470    4.2086   -0.1156 H   0  0  0  0  0  0  0  0  0  0  0  0
   -4.3959    2.3522   -1.7787 H   0  0  0  0  0  0  0  0  0  0  0  0
   -3.3856    0.8876   -1.7872 H   0  0  0  0  0  0  0  0  0  0  0  0
   -5.1960    1.7875    0.5242 H   0  0  0  0  0  0  0  0  0  0  0  0
   -3.1106   -0.3214    0.3628 H   0  0  0  0  0  0  0  0  0  0  0  0
   -4.0858    0.1514    1.7645 H   0  0  0  0  0  0  0  0  0  0  0  0
   -4.5736   -2.2801    0.7177 H   0  0  0  0  0  0  0  0  0  0  0  0
   -6.3123   -0.7574    2.1488 H   0  0  0  0  0  0  0  0  0  0  0  0
   -7.0049   -2.0137    1.1029 H   0  0  0  0  0  0  0  0  0  0  0  0
   -7.9468   -0.4448   -0.2683 H   0  0  0  0  0  0  0  0  0  0  0  0
   -7.3420    0.8594    0.7704 H   0  0  0  0  0  0  0  0  0  0  0  0
   -6.3325    0.7285   -1.7369 H   0  0  0  0  0  0  0  0  0  0  0  0
   -6.1041   -1.8820   -1.3991 H   0  0  0  0  0  0  0  0  0  0  0  0
   -4.4881   -1.1763   -1.6805 H   0  0  0  0  0  0  0  0  0  0  0  0
  1  2  1  0
  2  3  1  0
  3  4  2  0
  4  5  1  0
  5  6  2  0
  6  7  1  0
  7  8  2  0
  7  9  2  0
  7 10  1  0
 10 11  1  0
 11 12  1  0
 12 13  1  0
 13 14  1  0
 14 15  1  0
  6 16  1  0
 16 17  2  0
 17 18  1  0
 18 19  1  0
 19 20  2  0
 19 21  1  0
 21 22  1  0
 22 23  1  0
 23 24  2  0
 23 25  1  0
 25 26  1  0
 26 27  1  0
 27 28  1  0
 28 29  1  0
 29 30  1  0
 30 31  1  0
 31 32  1  0
 17  3  1  0
 31 26  1  0
 15 10  1  0
 32 28  1  0
  1 33  1  0
  1 34  1  0
  1 35  1  0
  4 36  1  0
  5 37  1  0
 11 38  1  0
 11 39  1  0
 12 40  1  0
 12 41  1  0
 14 42  1  0
 14 43  1  0
 15 44  1  0
 15 45  1  0
 16 46  1  0
 18 47  1  0
 21 48  1  0
 21 49  1  0
 25 50  1  0
 25 51  1  0
 26 52  1  0
 27 53  1  0
 27 54  1  0
 28 55  1  0
 29 56  1  0
 29 57  1  0
 30 58  1  0
 30 59  1  0
 31 60  1  0
 32 61  1  0
 32 62  1  0
M  END
$$$$
