
     RDKit          3D

 60 63  0  0  0  0  0  0  0  0999 V2000
   -5.1530    1.6887    1.0841 O   0  0  0  0  0  0  0  0  0  0  0  0
   -5.7620    0.7228    1.5123 C   0  0  0  0  0  0  0  0  0  0  0  0
   -5.8108    0.4784    2.8332 O   0  0  0  0  0  0  0  0  0  0  0  0
   -6.5194   -0.2922    0.6998 C   0  0  0  0  0  0  0  0  0  0  0  0
   -8.0039    0.0122    0.8986 C   0  0  0  0  0  0  0  0  0  0  0  0
   -8.9013   -0.5918   -0.1314 C   0  0  0  0  0  0  0  0  0  0  0  0
   -8.4592   -1.0596   -1.3012 C   0  0  0  0  0  0  0  0  0  0  0  0
   -7.0174   -1.0284   -1.7173 C   0  0  0  0  0  0  0  0  0  0  0  0
   -6.0785   -0.2440   -0.7786 C   0  0  0  0  0  0  0  0  0  0  0  0
   -4.6552   -0.8085   -0.9047 C   0  0  0  0  0  0  0  0  0  0  0  0
   -4.4532   -1.9875   -1.1814 O   0  0  0  0  0  0  0  0  0  0  0  0
   -3.6771    0.1231   -0.6163 N   0  0  0  0  0  0  0  0  0  0  0  0
   -2.2809   -0.0827   -0.5894 C   0  0  0  0  0  0  0  0  0  0  0  0
   -1.4847    0.9744   -0.1434 C   0  0  0  0  0  0  0  0  0  0  0  0
   -0.0896    0.8365   -0.0624 C   0  0  0  0  0  0  0  0  0  0  0  0
    0.5627   -0.3554   -0.4129 C   0  0  0  0  0  0  0  0  0  0  0  0
    1.9362   -0.4883   -0.2958 N   0  0  0  0  0  0  0  0  0  0  0  0
    2.8128    0.6737   -0.4498 C   0  0  0  0  0  0  0  0  0  0  0  0
    4.2380    0.2660   -0.8903 C   0  0  0  0  0  0  0  0  0  0  0  0
    4.9095   -0.7290   -0.0221 N   0  0  0  0  0  0  0  0  0  0  0  0
    5.6448   -0.0954    1.0871 C   0  0  0  0  0  0  0  0  0  0  0  0
    6.8623    0.6871    0.6297 C   0  0  0  0  0  0  0  0  0  0  0  0
    7.0339    2.0277    1.0182 C   0  0  0  0  0  0  0  0  0  0  0  0
    8.1495    2.7493    0.5856 C   0  0  0  0  0  0  0  0  0  0  0  0
    9.1047    2.1413   -0.2366 C   0  0  0  0  0  0  0  0  0  0  0  0
    8.9498    0.8084   -0.6189 C   0  0  0  0  0  0  0  0  0  0  0  0
    7.8425    0.0809   -0.1814 C   0  0  0  0  0  0  0  0  0  0  0  0
    3.9278   -1.7079    0.5089 C   0  0  0  0  0  0  0  0  0  0  0  0
    2.5969   -1.8051   -0.2784 C   0  0  0  0  0  0  0  0  0  0  0  0
   -0.2575   -1.3960   -0.8722 C   0  0  0  0  0  0  0  0  0  0  0  0
   -1.6540   -1.2657   -0.9662 C   0  0  0  0  0  0  0  0  0  0  0  0
   -5.2831    1.1900    3.2524 H   0  0  0  0  0  0  0  0  0  0  0  0
   -6.2888   -1.2791    1.1032 H   0  0  0  0  0  0  0  0  0  0  0  0
   -8.3139   -0.3568    1.8884 H   0  0  0  0  0  0  0  0  0  0  0  0
   -8.1833    1.0889    0.9019 H   0  0  0  0  0  0  0  0  0  0  0  0
   -9.9616   -0.6358    0.0956 H   0  0  0  0  0  0  0  0  0  0  0  0
   -9.1608   -1.4969   -1.9990 H   0  0  0  0  0  0  0  0  0  0  0  0
   -6.9631   -0.5591   -2.7264 H   0  0  0  0  0  0  0  0  0  0  0  0
   -6.6839   -2.0638   -1.8696 H   0  0  0  0  0  0  0  0  0  0  0  0
   -6.0640    0.7970   -1.1302 H   0  0  0  0  0  0  0  0  0  0  0  0
   -3.9932    1.0402   -0.3012 H   0  0  0  0  0  0  0  0  0  0  0  0
   -1.9307    1.9181    0.1633 H   0  0  0  0  0  0  0  0  0  0  0  0
    0.4823    1.6821    0.3151 H   0  0  0  0  0  0  0  0  0  0  0  0
    2.8664    1.2170    0.4946 H   0  0  0  0  0  0  0  0  0  0  0  0
    2.4186    1.3498   -1.2082 H   0  0  0  0  0  0  0  0  0  0  0  0
    4.8449    1.1744   -1.0116 H   0  0  0  0  0  0  0  0  0  0  0  0
    4.1715   -0.1654   -1.9020 H   0  0  0  0  0  0  0  0  0  0  0  0
    4.9697    0.5487    1.6612 H   0  0  0  0  0  0  0  0  0  0  0  0
    6.0072   -0.8592    1.7837 H   0  0  0  0  0  0  0  0  0  0  0  0
    6.3006    2.5190    1.6571 H   0  0  0  0  0  0  0  0  0  0  0  0
    8.2794    3.7848    0.8863 H   0  0  0  0  0  0  0  0  0  0  0  0
    9.9685    2.7124   -0.5734 H   0  0  0  0  0  0  0  0  0  0  0  0
    9.6837    0.3378   -1.2552 H   0  0  0  0  0  0  0  0  0  0  0  0
    7.7341   -0.9630   -0.4816 H   0  0  0  0  0  0  0  0  0  0  0  0
    4.4075   -2.6939    0.5299 H   0  0  0  0  0  0  0  0  0  0  0  0
    3.6635   -1.4581    1.5475 H   0  0  0  0  0  0  0  0  0  0  0  0
    2.7789   -2.1515   -1.3048 H   0  0  0  0  0  0  0  0  0  0  0  0
    1.9730   -2.5571    0.2244 H   0  0  0  0  0  0  0  0  0  0  0  0
    0.1759   -2.3376   -1.1997 H   0  0  0  0  0  0  0  0  0  0  0  0
   -2.2129   -2.1160   -1.3467 H   0  0  0  0  0  0  0  0  0  0  0  0
  1  2  2  0
  2  3  1  0
  2  4  1  0
  4  5  1  0
  5  6  1  0
  6  7  2  0
  7  8  1  0
  8  9  1  0
  9 10  1  0
 10 11  2  0
 10 12  1  0
 12 13  1  0
 13 14  2  0
 14 15  1  0
 15 16  2  0
 16 17  1  0
 17 18  1  0
 18 19  1  0
 19 20  1  0
 20 21  1  0
 21 22  1  0
 22 23  2  0
 23 24  1  0
 24 25  2  0
 25 26  1  0
 26 27  2  0
 20 28  1  0
 28 29  1  0
 16 30  1  0
 30 31  2  0
  9  4  1  0
 31 13  1  0
 29 17  1  0
 27 22  1  0
  3 32  1  0
  4 33  1  0
  5 34  1  0
  5 35  1  0
  6 36  1  0
  7 37  1  0
  8 38  1  0
  8 39  1  0
  9 40  1  0
 12 41  1  0
 14 42  1  0
 15 43  1  0
 18 44  1  0
 18 45  1  0
 19 46  1  0
 19 47  1  0
 21 48  1  0
 21 49  1  0
 23 50  1  0
 24 51  1  0
 25 52  1  0
 26 53  1  0
 27 54  1  0
 28 55  1  0
 28 56  1  0
 29 57  1  0
 29 58  1  0
 30 59  1  0
 31 60  1  0
M  END
$$$$
