
     RDKit          3D

 30 31  0  0  0  0  0  0  0  0999 V2000
    5.3745   -2.1648    2.6516 N   0  0  0  0  0  0  0  0  0  0  0  0
    4.4575   -1.8623    2.0090 C   0  0  0  0  0  0  0  0  0  0  0  0
    3.3020   -1.4540    1.2068 C   0  0  0  0  0  0  0  0  0  0  0  0
    2.6199   -0.2557    1.8486 C   0  0  0  0  0  0  0  0  0  0  0  0
    1.5123    0.2207    1.0433 N   0  0  0  0  0  0  0  0  0  0  0  0
    1.4264    1.4106    0.3939 C   0  0  0  0  0  0  0  0  0  0  0  0
    0.2054    1.4197   -0.2522 C   0  0  0  0  0  0  0  0  0  0  0  0
   -0.3933    2.4840   -1.0333 C   0  0  0  0  0  0  0  0  0  0  0  0
    0.2095    3.4366   -1.6837 N   0  0  0  0  0  0  0  0  0  0  0  0
    1.6035    3.3555   -1.6456 O   0  0  0  0  0  0  0  0  0  0  0  0
   -0.3795    0.1561    0.0859 C   0  0  0  0  0  0  0  0  0  0  0  0
   -1.6682   -0.3950   -0.3314 C   0  0  0  0  0  0  0  0  0  0  0  0
   -2.0709   -0.3476   -1.6737 C   0  0  0  0  0  0  0  0  0  0  0  0
   -3.3064   -0.8771   -2.0596 C   0  0  0  0  0  0  0  0  0  0  0  0
   -4.1389   -1.4618   -1.1068 C   0  0  0  0  0  0  0  0  0  0  0  0
   -5.6581   -2.1124   -1.5841 Cl  0  0  0  0  0  0  0  0  0  0  0  0
   -3.7458   -1.5275    0.2280 C   0  0  0  0  0  0  0  0  0  0  0  0
   -2.5110   -0.9984    0.6136 C   0  0  0  0  0  0  0  0  0  0  0  0
    0.4276   -0.5512    0.8944 N   0  0  0  0  0  0  0  0  0  0  0  0
    3.6278   -1.2042    0.1899 H   0  0  0  0  0  0  0  0  0  0  0  0
    2.6023   -2.2931    1.1158 H   0  0  0  0  0  0  0  0  0  0  0  0
    2.2162   -0.5037    2.8379 H   0  0  0  0  0  0  0  0  0  0  0  0
    3.3219    0.5769    1.9783 H   0  0  0  0  0  0  0  0  0  0  0  0
    2.2118    2.1515    0.4525 H   0  0  0  0  0  0  0  0  0  0  0  0
   -1.4949    2.4807   -1.0874 H   0  0  0  0  0  0  0  0  0  0  0  0
    1.8725    4.1249   -2.1816 H   0  0  0  0  0  0  0  0  0  0  0  0
   -1.4226    0.0809   -2.4350 H   0  0  0  0  0  0  0  0  0  0  0  0
   -3.6079   -0.8378   -3.1032 H   0  0  0  0  0  0  0  0  0  0  0  0
   -4.3889   -1.9909    0.9714 H   0  0  0  0  0  0  0  0  0  0  0  0
   -2.2046   -1.0605    1.6565 H   0  0  0  0  0  0  0  0  0  0  0  0
  1  2  3  0
  2  3  1  0
  3  4  1  0
  4  5  1  0
  5  6  1  0
  6  7  2  0
  7  8  1  0
  8  9  2  3
  9 10  1  0
  7 11  1  0
 11 12  1  0
 12 13  2  0
 13 14  1  0
 14 15  2  0
 15 16  1  0
 15 17  1  0
 17 18  2  0
 11 19  2  0
 19  5  1  0
 18 12  1  0
  3 20  1  0
  3 21  1  0
  4 22  1  0
  4 23  1  0
  6 24  1  0
  8 25  1  0
 10 26  1  0
 13 27  1  0
 14 28  1  0
 17 29  1  0
 18 30  1  0
M  END
$$$$
