
     RDKit          3D

 37 38  0  0  0  0  0  0  0  0999 V2000
   -4.4807    1.6370   -1.6180 C   0  0  0  0  0  0  0  0  0  0  0  0
   -3.4001    0.8237   -0.9696 C   0  0  0  0  0  0  0  0  0  0  0  0
   -3.1249   -0.4606   -1.4219 C   0  0  0  0  0  0  0  0  0  0  0  0
   -2.1186   -1.1972   -0.7919 C   0  0  0  0  0  0  0  0  0  0  0  0
   -1.7861   -2.5868   -1.2573 C   0  0  0  0  0  0  0  0  0  0  0  0
   -0.8019   -3.1814   -0.5290 F   0  0  0  0  0  0  0  0  0  0  0  0
   -1.3583   -2.6076   -2.5497 F   0  0  0  0  0  0  0  0  0  0  0  0
   -2.8545   -3.4271   -1.2012 F   0  0  0  0  0  0  0  0  0  0  0  0
   -1.4285   -0.6059    0.2699 C   0  0  0  0  0  0  0  0  0  0  0  0
   -1.7446    0.6933    0.6540 C   0  0  0  0  0  0  0  0  0  0  0  0
   -1.0677    1.3224    1.7219 N   0  0  0  0  0  0  0  0  0  0  0  0
    0.3414    1.2816    1.5458 N   0  0  0  0  0  0  0  0  0  0  0  0
    0.9725    2.5026    1.4329 C   0  0  0  0  0  0  0  0  0  0  0  0
    0.3754    3.5763    1.4971 O   0  0  0  0  0  0  0  0  0  0  0  0
    2.3356    2.4806    1.2401 N   0  0  0  0  0  0  0  0  0  0  0  0
    3.1957    1.4526    1.5657 C   0  0  0  0  0  0  0  0  0  0  0  0
    4.0574    1.5903    2.4265 O   0  0  0  0  0  0  0  0  0  0  0  0
    3.0566    0.1635    0.8295 C   0  0  0  0  0  0  0  0  0  0  0  0
    3.5137   -1.0120    1.4396 C   0  0  0  0  0  0  0  0  0  0  0  0
    3.3910   -2.2383    0.7798 C   0  0  0  0  0  0  0  0  0  0  0  0
    2.8223   -2.2877   -0.4921 C   0  0  0  0  0  0  0  0  0  0  0  0
    2.6730   -3.7959   -1.3036 Cl  0  0  0  0  0  0  0  0  0  0  0  0
    2.3797   -1.1210   -1.1139 C   0  0  0  0  0  0  0  0  0  0  0  0
    2.5004    0.1067   -0.4568 C   0  0  0  0  0  0  0  0  0  0  0  0
   -2.7242    1.3960    0.0540 N   0  0  0  0  0  0  0  0  0  0  0  0
   -4.2586    1.7859   -2.6791 H   0  0  0  0  0  0  0  0  0  0  0  0
   -4.5632    2.6212   -1.1454 H   0  0  0  0  0  0  0  0  0  0  0  0
   -5.4453    1.1298   -1.5188 H   0  0  0  0  0  0  0  0  0  0  0  0
   -3.6869   -0.8848   -2.2501 H   0  0  0  0  0  0  0  0  0  0  0  0
   -0.6501   -1.1527    0.7937 H   0  0  0  0  0  0  0  0  0  0  0  0
   -1.4182    2.2921    1.7166 H   0  0  0  0  0  0  0  0  0  0  0  0
    0.7787    0.6008    2.1590 H   0  0  0  0  0  0  0  0  0  0  0  0
    2.6944    3.3800    1.5385 H   0  0  0  0  0  0  0  0  0  0  0  0
    3.9692   -0.9781    2.4282 H   0  0  0  0  0  0  0  0  0  0  0  0
    3.7471   -3.1470    1.2598 H   0  0  0  0  0  0  0  0  0  0  0  0
    1.9461   -1.1599   -2.1105 H   0  0  0  0  0  0  0  0  0  0  0  0
    2.1622    1.0080   -0.9633 H   0  0  0  0  0  0  0  0  0  0  0  0
  1  2  1  0
  2  3  2  0
  3  4  1  0
  4  5  1  0
  5  6  1  0
  5  7  1  0
  5  8  1  0
  4  9  2  0
  9 10  1  0
 10 11  1  0
 11 12  1  0
 12 13  1  0
 13 14  2  0
 13 15  1  0
 15 16  1  0
 16 17  2  0
 16 18  1  0
 18 19  2  0
 19 20  1  0
 20 21  2  0
 21 22  1  0
 21 23  1  0
 23 24  2  0
 10 25  2  0
 25  2  1  0
 24 18  1  0
  1 26  1  0
  1 27  1  0
  1 28  1  0
  3 29  1  0
  9 30  1  0
 11 31  1  0
 12 32  1  0
 15 33  1  0
 19 34  1  0
 20 35  1  0
 23 36  1  0
 24 37  1  0
M  END
$$$$
