
     RDKit          3D

 40 41  0  0  0  0  0  0  0  0999 V2000
    7.6112   -0.5707   -0.3153 C   0  0  0  0  0  0  0  0  0  0  0  0
    6.7476    0.5117    0.0077 O   0  0  0  0  0  0  0  0  0  0  0  0
    5.4036    0.2782   -0.0925 C   0  0  0  0  0  0  0  0  0  0  0  0
    4.8054   -0.8998   -0.5380 C   0  0  0  0  0  0  0  0  0  0  0  0
    3.4107   -1.0044   -0.5932 C   0  0  0  0  0  0  0  0  0  0  0  0
    2.5955    0.0669   -0.2043 C   0  0  0  0  0  0  0  0  0  0  0  0
    1.0907   -0.0504   -0.2670 C   0  0  0  0  0  0  0  0  0  0  0  0
    0.4749   -0.8979    0.8274 C   0  0  0  0  0  0  0  0  0  0  0  0
    1.0883   -1.5907    1.6295 O   0  0  0  0  0  0  0  0  0  0  0  0
   -0.8936   -0.7620    0.7322 O   0  0  0  0  0  0  0  0  0  0  0  0
   -1.5346   -1.5607    1.6955 N   0  0  0  0  0  0  0  0  0  0  0  0
   -2.8251   -1.3819    1.7044 C   0  0  0  0  0  0  0  0  0  0  0  0
   -3.5681   -2.0699    2.6265 N   0  0  0  0  0  0  0  0  0  0  0  0
   -3.5457   -0.4704    0.7802 C   0  0  0  0  0  0  0  0  0  0  0  0
   -4.1786    0.6657    1.2876 C   0  0  0  0  0  0  0  0  0  0  0  0
   -4.8702    1.5116    0.4185 C   0  0  0  0  0  0  0  0  0  0  0  0
   -4.9274    1.2279   -0.9538 C   0  0  0  0  0  0  0  0  0  0  0  0
   -5.7007    2.1209   -1.8799 C   0  0  0  0  0  0  0  0  0  0  0  0
   -4.3039    0.0715   -1.4442 C   0  0  0  0  0  0  0  0  0  0  0  0
   -3.6099   -0.7767   -0.5802 C   0  0  0  0  0  0  0  0  0  0  0  0
    3.2016    1.2450    0.2470 C   0  0  0  0  0  0  0  0  0  0  0  0
    4.5942    1.3469    0.2975 C   0  0  0  0  0  0  0  0  0  0  0  0
    7.5102   -0.8547   -1.3680 H   0  0  0  0  0  0  0  0  0  0  0  0
    7.4370   -1.4271    0.3446 H   0  0  0  0  0  0  0  0  0  0  0  0
    8.6408   -0.2348   -0.1591 H   0  0  0  0  0  0  0  0  0  0  0  0
    5.3915   -1.7591   -0.8452 H   0  0  0  0  0  0  0  0  0  0  0  0
    2.9653   -1.9383   -0.9308 H   0  0  0  0  0  0  0  0  0  0  0  0
    0.8102   -0.4813   -1.2358 H   0  0  0  0  0  0  0  0  0  0  0  0
    0.6486    0.9522   -0.2127 H   0  0  0  0  0  0  0  0  0  0  0  0
   -4.4503   -1.6708    2.9204 H   0  0  0  0  0  0  0  0  0  0  0  0
   -3.0091   -2.4611    3.3782 H   0  0  0  0  0  0  0  0  0  0  0  0
   -4.1254    0.9015    2.3465 H   0  0  0  0  0  0  0  0  0  0  0  0
   -5.3628    2.3966    0.8161 H   0  0  0  0  0  0  0  0  0  0  0  0
   -5.6794    3.1584   -1.5300 H   0  0  0  0  0  0  0  0  0  0  0  0
   -5.2679    2.1089   -2.8857 H   0  0  0  0  0  0  0  0  0  0  0  0
   -6.7414    1.7878   -1.9379 H   0  0  0  0  0  0  0  0  0  0  0  0
   -4.3579   -0.1754   -2.5024 H   0  0  0  0  0  0  0  0  0  0  0  0
   -3.1297   -1.6740   -0.9618 H   0  0  0  0  0  0  0  0  0  0  0  0
    2.6009    2.0935    0.5655 H   0  0  0  0  0  0  0  0  0  0  0  0
    5.0537    2.2669    0.6503 H   0  0  0  0  0  0  0  0  0  0  0  0
  1  2  1  0
  2  3  1  0
  3  4  2  0
  4  5  1  0
  5  6  2  0
  6  7  1  0
  7  8  1  0
  8  9  2  0
  8 10  1  0
 10 11  1  0
 11 12  2  3
 12 13  1  0
 12 14  1  0
 14 15  2  0
 15 16  1  0
 16 17  2  0
 17 18  1  0
 17 19  1  0
 19 20  2  0
  6 21  1  0
 21 22  2  0
 22  3  1  0
 20 14  1  0
  1 23  1  0
  1 24  1  0
  1 25  1  0
  4 26  1  0
  5 27  1  0
  7 28  1  0
  7 29  1  0
 13 30  1  0
 13 31  1  0
 15 32  1  0
 16 33  1  0
 18 34  1  0
 18 35  1  0
 18 36  1  0
 19 37  1  0
 20 38  1  0
 21 39  1  0
 22 40  1  0
M  END
$$$$
