
     RDKit          3D

 45 47  0  0  0  0  0  0  0  0999 V2000
    3.7685   -1.5103    1.7643 O   0  0  0  0  0  0  0  0  0  0  0  0
    3.0164   -1.5919    0.7892 C   0  0  0  0  0  0  0  0  0  0  0  0
    3.5441   -2.1049   -0.5480 C   0  0  0  0  0  0  0  0  0  0  0  0
    4.8655   -1.0192   -1.1901 S   0  0  0  0  0  0  0  0  0  0  0  0
    3.9200    0.4657   -1.4577 C   0  0  0  0  0  0  0  0  0  0  0  0
    3.8675    1.4511   -0.4659 C   0  0  0  0  0  0  0  0  0  0  0  0
    3.1127    2.6099   -0.6642 C   0  0  0  0  0  0  0  0  0  0  0  0
    2.4206    2.7861   -1.8615 C   0  0  0  0  0  0  0  0  0  0  0  0
    1.3925    4.3493   -2.1304 Br  0  0  0  0  0  0  0  0  0  0  0  0
    2.4812    1.8181   -2.8632 C   0  0  0  0  0  0  0  0  0  0  0  0
    3.2326    0.6572   -2.6607 C   0  0  0  0  0  0  0  0  0  0  0  0
    1.6850   -1.2076    0.8775 N   0  0  0  0  0  0  0  0  0  0  0  0
    0.6970   -1.3124   -0.1999 C   0  0  0  0  0  0  0  0  0  0  0  0
   -0.7481   -1.1374    0.2906 C   0  0  0  0  0  0  0  0  0  0  0  0
   -0.9463    0.1624    1.0102 N   0  0  0  0  0  0  0  0  0  0  0  0
   -2.3972    0.2691    1.9129 S   0  0  0  0  0  6  0  0  0  0  0  0
   -2.5186    1.6232    2.4069 O   0  0  0  0  0  0  0  0  0  0  0  0
   -2.4155   -0.8624    2.8172 O   0  0  0  0  0  0  0  0  0  0  0  0
   -3.6492    0.0351    0.6783 C   0  0  0  0  0  0  0  0  0  0  0  0
   -3.8956    1.0594   -0.2415 C   0  0  0  0  0  0  0  0  0  0  0  0
   -4.8815    0.8848   -1.2118 C   0  0  0  0  0  0  0  0  0  0  0  0
   -5.6148   -0.3033   -1.2567 C   0  0  0  0  0  0  0  0  0  0  0  0
   -5.3698   -1.3191   -0.3296 C   0  0  0  0  0  0  0  0  0  0  0  0
   -4.3877   -1.1514    0.6462 C   0  0  0  0  0  0  0  0  0  0  0  0
    0.2630    0.6068    1.7879 C   0  0  0  0  0  0  0  0  0  0  0  0
    1.2171   -0.5503    2.1026 C   0  0  0  0  0  0  0  0  0  0  0  0
    2.7779   -2.2073   -1.3163 H   0  0  0  0  0  0  0  0  0  0  0  0
    3.9644   -3.1012   -0.3759 H   0  0  0  0  0  0  0  0  0  0  0  0
    4.4085    1.3194    0.4698 H   0  0  0  0  0  0  0  0  0  0  0  0
    3.0722    3.3645    0.1167 H   0  0  0  0  0  0  0  0  0  0  0  0
    1.9533    1.9581   -3.8034 H   0  0  0  0  0  0  0  0  0  0  0  0
    3.2787   -0.0892   -3.4503 H   0  0  0  0  0  0  0  0  0  0  0  0
    0.7936   -2.2910   -0.6803 H   0  0  0  0  0  0  0  0  0  0  0  0
    0.9379   -0.5404   -0.9382 H   0  0  0  0  0  0  0  0  0  0  0  0
   -1.0005   -1.9748    0.9499 H   0  0  0  0  0  0  0  0  0  0  0  0
   -1.4147   -1.1673   -0.5783 H   0  0  0  0  0  0  0  0  0  0  0  0
   -3.3274    1.9861   -0.2010 H   0  0  0  0  0  0  0  0  0  0  0  0
   -5.0846    1.6761   -1.9297 H   0  0  0  0  0  0  0  0  0  0  0  0
   -6.3861   -0.4335   -2.0123 H   0  0  0  0  0  0  0  0  0  0  0  0
   -5.9493   -2.2396   -0.3640 H   0  0  0  0  0  0  0  0  0  0  0  0
   -4.2094   -1.9410    1.3727 H   0  0  0  0  0  0  0  0  0  0  0  0
    0.7747    1.3612    1.1785 H   0  0  0  0  0  0  0  0  0  0  0  0
   -0.0214    1.1002    2.7232 H   0  0  0  0  0  0  0  0  0  0  0  0
    0.7097   -1.3135    2.7034 H   0  0  0  0  0  0  0  0  0  0  0  0
    2.0630   -0.1751    2.6877 H   0  0  0  0  0  0  0  0  0  0  0  0
  1  2  2  0
  2  3  1  0
  3  4  1  0
  4  5  1  0
  5  6  2  0
  6  7  1  0
  7  8  2  0
  8  9  1  0
  8 10  1  0
 10 11  2  0
  2 12  1  0
 12 13  1  0
 13 14  1  0
 14 15  1  0
 15 16  1  0
 16 17  2  0
 16 18  2  0
 16 19  1  0
 19 20  2  0
 20 21  1  0
 21 22  2  0
 22 23  1  0
 23 24  2  0
 15 25  1  0
 25 26  1  0
 11  5  1  0
 26 12  1  0
 24 19  1  0
  3 27  1  0
  3 28  1  0
  6 29  1  0
  7 30  1  0
 10 31  1  0
 11 32  1  0
 13 33  1  0
 13 34  1  0
 14 35  1  0
 14 36  1  0
 20 37  1  0
 21 38  1  0
 22 39  1  0
 23 40  1  0
 24 41  1  0
 25 42  1  0
 25 43  1  0
 26 44  1  0
 26 45  1  0
M  END
$$$$
