
     RDKit          3D

 59 62  0  0  0  0  0  0  0  0999 V2000
   -1.1707   -2.4231   -3.9563 C   0  0  0  0  0  0  0  0  0  0  0  0
   -2.3002   -1.6258   -3.3320 C   0  0  0  0  0  0  0  0  0  0  0  0
   -1.7709   -0.6645   -2.4061 O   0  0  0  0  0  0  0  0  0  0  0  0
   -1.5619   -1.1129   -1.1344 C   0  0  0  0  0  0  0  0  0  0  0  0
   -1.7858   -2.2568   -0.7629 O   0  0  0  0  0  0  0  0  0  0  0  0
   -0.9799   -0.0022   -0.2506 C   0  0  0  0  0  0  0  0  0  0  0  0
   -1.9896    1.1780   -0.1776 C   0  0  0  0  0  0  0  0  0  0  0  0
   -3.3403    0.8693    0.4283 C   0  0  0  0  0  0  0  0  0  0  0  0
   -3.5624    1.0375    1.8013 C   0  0  0  0  0  0  0  0  0  0  0  0
   -4.8090    0.7469    2.3679 C   0  0  0  0  0  0  0  0  0  0  0  0
   -5.8536    0.2884    1.5671 C   0  0  0  0  0  0  0  0  0  0  0  0
   -7.1144   -0.0299    1.9905 O   0  0  0  0  0  0  0  0  0  0  0  0
   -7.3696    0.0803    3.3849 C   0  0  0  0  0  0  0  0  0  0  0  0
   -5.6396    0.1287    0.1971 C   0  0  0  0  0  0  0  0  0  0  0  0
   -4.3962    0.4173   -0.3707 C   0  0  0  0  0  0  0  0  0  0  0  0
   -0.6670   -0.5542    1.1669 C   0  0  0  0  0  0  0  0  0  0  0  0
    0.5250   -1.5150    1.1802 C   0  0  0  0  0  0  0  0  0  0  0  0
    1.6931   -0.9103    0.5535 N   0  0  0  0  0  0  0  0  0  0  0  0
    2.5945   -0.2344    1.3846 C   0  0  0  0  0  0  0  0  0  0  0  0
    2.3185    0.0236    2.5559 O   0  0  0  0  0  0  0  0  0  0  0  0
    3.8814    0.1461    0.8386 C   0  0  0  0  0  0  0  0  0  0  0  0
    4.6481   -0.3747   -0.1907 C   0  0  0  0  0  0  0  0  0  0  0  0
    5.8513    0.3773   -0.2838 C   0  0  0  0  0  0  0  0  0  0  0  0
    6.9754    0.3282   -1.1301 C   0  0  0  0  0  0  0  0  0  0  0  0
    8.0187    1.2409   -0.9346 C   0  0  0  0  0  0  0  0  0  0  0  0
    7.9543    2.1861    0.0872 C   0  0  0  0  0  0  0  0  0  0  0  0
    6.8507    2.2484    0.9435 C   0  0  0  0  0  0  0  0  0  0  0  0
    5.8156    1.3309    0.7306 C   0  0  0  0  0  0  0  0  0  0  0  0
    4.6364    1.1474    1.4111 N   0  0  0  0  0  0  0  0  0  0  0  0
    1.4705   -0.5051   -0.8307 C   0  0  0  0  0  0  0  0  0  0  0  0
    0.3361    0.5213   -0.8926 C   0  0  0  0  0  0  0  0  0  0  0  0
   -0.6268   -2.9950   -3.1978 H   0  0  0  0  0  0  0  0  0  0  0  0
   -0.4450   -1.7543   -4.4307 H   0  0  0  0  0  0  0  0  0  0  0  0
   -1.5554   -3.1176   -4.7083 H   0  0  0  0  0  0  0  0  0  0  0  0
   -2.8276   -1.0631   -4.1092 H   0  0  0  0  0  0  0  0  0  0  0  0
   -3.0376   -2.2787   -2.8514 H   0  0  0  0  0  0  0  0  0  0  0  0
   -1.5423    2.0040    0.3933 H   0  0  0  0  0  0  0  0  0  0  0  0
   -2.1552    1.5949   -1.1810 H   0  0  0  0  0  0  0  0  0  0  0  0
   -2.7636    1.3961    2.4476 H   0  0  0  0  0  0  0  0  0  0  0  0
   -4.9280    0.8912    3.4363 H   0  0  0  0  0  0  0  0  0  0  0  0
   -8.4057   -0.2248    3.5602 H   0  0  0  0  0  0  0  0  0  0  0  0
   -6.7232   -0.5911    3.9598 H   0  0  0  0  0  0  0  0  0  0  0  0
   -7.2661    1.1164    3.7240 H   0  0  0  0  0  0  0  0  0  0  0  0
   -6.4505   -0.2248   -0.4350 H   0  0  0  0  0  0  0  0  0  0  0  0
   -4.2673    0.2884   -1.4426 H   0  0  0  0  0  0  0  0  0  0  0  0
   -0.4428    0.2864    1.8366 H   0  0  0  0  0  0  0  0  0  0  0  0
   -1.5343   -1.0763    1.5879 H   0  0  0  0  0  0  0  0  0  0  0  0
    0.3018   -2.4386    0.6362 H   0  0  0  0  0  0  0  0  0  0  0  0
    0.7565   -1.8065    2.2110 H   0  0  0  0  0  0  0  0  0  0  0  0
    4.3766   -1.2172   -0.8134 H   0  0  0  0  0  0  0  0  0  0  0  0
    7.0357   -0.4083   -1.9256 H   0  0  0  0  0  0  0  0  0  0  0  0
    8.8889    1.2080   -1.5857 H   0  0  0  0  0  0  0  0  0  0  0  0
    8.7770    2.8842    0.2250 H   0  0  0  0  0  0  0  0  0  0  0  0
    6.8065    2.9806    1.7431 H   0  0  0  0  0  0  0  0  0  0  0  0
    4.3453    1.6688    2.2275 H   0  0  0  0  0  0  0  0  0  0  0  0
    1.2289   -1.4008   -1.4135 H   0  0  0  0  0  0  0  0  0  0  0  0
    2.3579   -0.0527   -1.2743 H   0  0  0  0  0  0  0  0  0  0  0  0
    0.1792    0.8156   -1.9372 H   0  0  0  0  0  0  0  0  0  0  0  0
    0.6584    1.4274   -0.3613 H   0  0  0  0  0  0  0  0  0  0  0  0
  1  2  1  0
  2  3  1  0
  3  4  1  0
  4  5  2  0
  4  6  1  0
  6  7  1  0
  7  8  1  0
  8  9  2  0
  9 10  1  0
 10 11  2  0
 11 12  1  0
 12 13  1  0
 11 14  1  0
 14 15  2  0
  6 16  1  0
 16 17  1  0
 17 18  1  0
 18 19  1  0
 19 20  2  0
 19 21  1  0
 21 22  2  0
 22 23  1  0
 23 24  2  0
 24 25  1  0
 25 26  2  0
 26 27  1  0
 27 28  2  0
 28 29  1  0
 18 30  1  0
 30 31  1  0
 31  6  1  0
 15  8  1  0
 29 21  1  0
 28 23  1  0
  1 32  1  0
  1 33  1  0
  1 34  1  0
  2 35  1  0
  2 36  1  0
  7 37  1  0
  7 38  1  0
  9 39  1  0
 10 40  1  0
 13 41  1  0
 13 42  1  0
 13 43  1  0
 14 44  1  0
 15 45  1  0
 16 46  1  0
 16 47  1  0
 17 48  1  0
 17 49  1  0
 22 50  1  0
 24 51  1  0
 25 52  1  0
 26 53  1  0
 27 54  1  0
 29 55  1  0
 30 56  1  0
 30 57  1  0
 31 58  1  0
 31 59  1  0
M  END
$$$$
