
     RDKit          3D

 45 48  0  0  0  0  0  0  0  0999 V2000
    1.0750   -2.4669   -0.6773 O   0  0  0  0  0  0  0  0  0  0  0  0
   -0.1406   -2.3460   -0.5553 C   0  0  0  0  0  0  0  0  0  0  0  0
   -0.8093   -1.1556   -0.4627 N   0  0  0  0  0  0  0  0  0  0  0  0
   -0.4432   -0.3012    0.4244 C   0  0  0  0  0  0  0  0  0  0  0  0
    0.5820   -0.4904    1.3008 N   0  0  0  0  0  0  0  0  0  0  0  0
    1.7359   -0.0429    0.9222 C   0  0  0  0  0  0  0  0  0  0  0  0
    2.9076   -0.1937    1.6274 N   0  0  0  0  0  0  0  0  0  0  0  0
    3.9087    0.2287    0.7810 C   0  0  0  0  0  0  0  0  0  0  0  0
    5.2745    0.2562    0.9374 C   0  0  0  0  0  0  0  0  0  0  0  0
    6.0326    0.8351   -0.0874 C   0  0  0  0  0  0  0  0  0  0  0  0
    5.4107    1.3849   -1.2260 C   0  0  0  0  0  0  0  0  0  0  0  0
    4.0203    1.3690   -1.3558 C   0  0  0  0  0  0  0  0  0  0  0  0
    3.3024    0.7915   -0.3319 C   0  0  0  0  0  0  0  0  0  0  0  0
    1.9202    0.6713   -0.2742 O   0  0  0  0  0  0  0  0  0  0  0  0
   -1.1024    0.8865    0.6111 N   0  0  0  0  0  0  0  0  0  0  0  0
   -2.2207    1.3433   -0.0629 C   0  0  0  0  0  0  0  0  0  0  0  0
   -2.9959    0.6620   -0.7228 O   0  0  0  0  0  0  0  0  0  0  0  0
   -2.5321    2.7837    0.1560 C   0  0  0  0  0  0  0  0  0  0  0  0
   -1.5184    3.7404    0.3073 C   0  0  0  0  0  0  0  0  0  0  0  0
   -1.8516    5.0813    0.5116 C   0  0  0  0  0  0  0  0  0  0  0  0
   -3.1906    5.4707    0.5565 C   0  0  0  0  0  0  0  0  0  0  0  0
   -4.2011    4.5245    0.3875 C   0  0  0  0  0  0  0  0  0  0  0  0
   -3.8738    3.1834    0.1820 C   0  0  0  0  0  0  0  0  0  0  0  0
   -1.0036   -3.5674   -0.5534 C   0  0  0  0  0  0  0  0  0  0  0  0
   -2.4023   -3.4705   -0.5404 C   0  0  0  0  0  0  0  0  0  0  0  0
   -3.1857   -4.6268   -0.5351 C   0  0  0  0  0  0  0  0  0  0  0  0
   -2.5787   -5.8825   -0.5433 C   0  0  0  0  0  0  0  0  0  0  0  0
   -1.1880   -5.9869   -0.5590 C   0  0  0  0  0  0  0  0  0  0  0  0
   -0.4011   -4.8332   -0.5649 C   0  0  0  0  0  0  0  0  0  0  0  0
    3.0195   -1.0251    2.1855 H   0  0  0  0  0  0  0  0  0  0  0  0
    5.7538   -0.1500    1.8206 H   0  0  0  0  0  0  0  0  0  0  0  0
    7.1171    0.8658   -0.0036 H   0  0  0  0  0  0  0  0  0  0  0  0
    6.0210    1.8266   -2.0109 H   0  0  0  0  0  0  0  0  0  0  0  0
    3.5264    1.7854   -2.2257 H   0  0  0  0  0  0  0  0  0  0  0  0
   -0.6896    1.4702    1.3194 H   0  0  0  0  0  0  0  0  0  0  0  0
   -0.4690    3.4669    0.2375 H   0  0  0  0  0  0  0  0  0  0  0  0
   -1.0675    5.8266    0.6236 H   0  0  0  0  0  0  0  0  0  0  0  0
   -3.4477    6.5161    0.7109 H   0  0  0  0  0  0  0  0  0  0  0  0
   -5.2442    4.8307    0.4096 H   0  0  0  0  0  0  0  0  0  0  0  0
   -4.6658    2.4500    0.0424 H   0  0  0  0  0  0  0  0  0  0  0  0
   -2.8915   -2.4976   -0.5433 H   0  0  0  0  0  0  0  0  0  0  0  0
   -4.2698   -4.5446   -0.5287 H   0  0  0  0  0  0  0  0  0  0  0  0
   -3.1910   -6.7808   -0.5412 H   0  0  0  0  0  0  0  0  0  0  0  0
   -0.7156   -6.9658   -0.5692 H   0  0  0  0  0  0  0  0  0  0  0  0
    0.6829   -4.9233   -0.5800 H   0  0  0  0  0  0  0  0  0  0  0  0
  1  2  2  0
  2  3  1  0
  3  4  2  3
  4  5  1  0
  5  6  2  3
  6  7  1  0
  7  8  1  0
  8  9  2  0
  9 10  1  0
 10 11  2  0
 11 12  1  0
 12 13  2  0
 13 14  1  0
  4 15  1  0
 15 16  1  0
 16 17  2  0
 16 18  1  0
 18 19  2  0
 19 20  1  0
 20 21  2  0
 21 22  1  0
 22 23  2  0
  2 24  1  0
 24 25  2  0
 25 26  1  0
 26 27  2  0
 27 28  1  0
 28 29  2  0
 14  6  1  0
 23 18  1  0
 29 24  1  0
 13  8  1  0
  7 30  1  0
  9 31  1  0
 10 32  1  0
 11 33  1  0
 12 34  1  0
 15 35  1  0
 19 36  1  0
 20 37  1  0
 21 38  1  0
 22 39  1  0
 23 40  1  0
 25 41  1  0
 26 42  1  0
 27 43  1  0
 28 44  1  0
 29 45  1  0
M  END
$$$$
