
     RDKit          3D

 53 55  0  0  0  0  0  0  0  0999 V2000
    5.9830   -3.6772    2.7365 C   0  0  0  0  0  0  0  0  0  0  0  0
    5.1582   -4.2640    1.7389 O   0  0  0  0  0  0  0  0  0  0  0  0
    4.4890   -3.4103    0.9051 C   0  0  0  0  0  0  0  0  0  0  0  0
    3.6734   -4.0373   -0.0363 C   0  0  0  0  0  0  0  0  0  0  0  0
    2.9330   -3.2849   -0.9506 C   0  0  0  0  0  0  0  0  0  0  0  0
    2.9957   -1.8846   -0.9377 C   0  0  0  0  0  0  0  0  0  0  0  0
    2.2565   -1.1110   -1.8488 C   0  0  0  0  0  0  0  0  0  0  0  0
    2.3163    0.2918   -1.8308 C   0  0  0  0  0  0  0  0  0  0  0  0
    1.5070    1.1250   -2.8140 C   0  0  0  0  0  0  0  0  0  0  0  0
    2.0859    1.0031   -4.2242 C   0  0  0  0  0  0  0  0  0  0  0  0
    0.0075    0.7751   -2.7834 C   0  0  0  0  0  0  0  0  0  0  0  0
   -0.5911    0.4038   -3.7887 O   0  0  0  0  0  0  0  0  0  0  0  0
   -0.5550    0.9661   -1.5278 N   0  0  0  0  0  0  0  0  0  0  0  0
   -1.8866    0.7300   -1.1309 C   0  0  0  0  0  0  0  0  0  0  0  0
   -2.8863    0.2518   -1.9830 C   0  0  0  0  0  0  0  0  0  0  0  0
   -4.1840    0.0228   -1.5084 C   0  0  0  0  0  0  0  0  0  0  0  0
   -4.4978    0.2761   -0.1764 C   0  0  0  0  0  0  0  0  0  0  0  0
   -3.5046    0.7659    0.6721 C   0  0  0  0  0  0  0  0  0  0  0  0
   -3.9057    1.1212    2.3627 S   0  0  0  0  0  6  0  0  0  0  0  0
   -4.2750   -0.1335    2.9812 O   0  0  0  0  0  0  0  0  0  0  0  0
   -2.8572    1.9550    2.9121 O   0  0  0  0  0  0  0  0  0  0  0  0
   -5.3071    2.0992    2.2381 N   0  0  0  0  0  0  0  0  0  0  0  0
   -5.0957    3.4209    1.6051 C   0  0  0  0  0  0  0  0  0  0  0  0
   -6.0363    2.2267    3.5209 C   0  0  0  0  0  0  0  0  0  0  0  0
   -2.2047    0.9905    0.2063 C   0  0  0  0  0  0  0  0  0  0  0  0
    3.1413    0.9183   -0.8898 C   0  0  0  0  0  0  0  0  0  0  0  0
    3.8809    0.1594    0.0216 C   0  0  0  0  0  0  0  0  0  0  0  0
    3.8195   -1.2417    0.0115 C   0  0  0  0  0  0  0  0  0  0  0  0
    4.5607   -2.0155    0.9250 C   0  0  0  0  0  0  0  0  0  0  0  0
    6.4298   -4.4874    3.3210 H   0  0  0  0  0  0  0  0  0  0  0  0
    5.3941   -3.0586    3.4214 H   0  0  0  0  0  0  0  0  0  0  0  0
    6.7991   -3.1035    2.2853 H   0  0  0  0  0  0  0  0  0  0  0  0
    3.6125   -5.1217   -0.0591 H   0  0  0  0  0  0  0  0  0  0  0  0
    2.3056   -3.8046   -1.6713 H   0  0  0  0  0  0  0  0  0  0  0  0
    1.6238   -1.6119   -2.5815 H   0  0  0  0  0  0  0  0  0  0  0  0
    1.5721    2.1838   -2.5266 H   0  0  0  0  0  0  0  0  0  0  0  0
    1.5496    1.6572   -4.9213 H   0  0  0  0  0  0  0  0  0  0  0  0
    2.0087   -0.0188   -4.6123 H   0  0  0  0  0  0  0  0  0  0  0  0
    3.1429    1.2886   -4.2405 H   0  0  0  0  0  0  0  0  0  0  0  0
    0.0810    1.2580   -0.7933 H   0  0  0  0  0  0  0  0  0  0  0  0
   -2.6876    0.0337   -3.0281 H   0  0  0  0  0  0  0  0  0  0  0  0
   -4.9446   -0.3593   -2.1855 H   0  0  0  0  0  0  0  0  0  0  0  0
   -5.5040    0.0930    0.1941 H   0  0  0  0  0  0  0  0  0  0  0  0
   -6.0661    3.8867    1.4062 H   0  0  0  0  0  0  0  0  0  0  0  0
   -4.5864    3.3247    0.6427 H   0  0  0  0  0  0  0  0  0  0  0  0
   -4.5194    4.0828    2.2585 H   0  0  0  0  0  0  0  0  0  0  0  0
   -6.2980    1.2412    3.9159 H   0  0  0  0  0  0  0  0  0  0  0  0
   -6.9751    2.7669    3.3631 H   0  0  0  0  0  0  0  0  0  0  0  0
   -5.4401    2.7705    4.2589 H   0  0  0  0  0  0  0  0  0  0  0  0
   -1.4469    1.3612    0.8926 H   0  0  0  0  0  0  0  0  0  0  0  0
    3.2246    2.0032   -0.8575 H   0  0  0  0  0  0  0  0  0  0  0  0
    4.5132    0.6742    0.7420 H   0  0  0  0  0  0  0  0  0  0  0  0
    5.1901   -1.5022    1.6455 H   0  0  0  0  0  0  0  0  0  0  0  0
  1  2  1  0
  2  3  1  0
  3  4  2  0
  4  5  1  0
  5  6  2  0
  6  7  1  0
  7  8  2  0
  8  9  1  0
  9 10  1  0
  9 11  1  0
 11 12  2  0
 11 13  1  0
 13 14  1  0
 14 15  2  0
 15 16  1  0
 16 17  2  0
 17 18  1  0
 18 19  1  0
 19 20  2  0
 19 21  2  0
 19 22  1  0
 22 23  1  0
 22 24  1  0
 18 25  2  0
  8 26  1  0
 26 27  2  0
 27 28  1  0
 28 29  2  0
 29  3  1  0
 28  6  1  0
 25 14  1  0
  1 30  1  0
  1 31  1  0
  1 32  1  0
  4 33  1  0
  5 34  1  0
  7 35  1  0
  9 36  1  0
 10 37  1  0
 10 38  1  0
 10 39  1  0
 13 40  1  0
 15 41  1  0
 16 42  1  0
 17 43  1  0
 23 44  1  0
 23 45  1  0
 23 46  1  0
 24 47  1  0
 24 48  1  0
 24 49  1  0
 25 50  1  0
 26 51  1  0
 27 52  1  0
 29 53  1  0
M  END
$$$$
