
     RDKit          3D

 61 65  0  0  0  0  0  0  0  0999 V2000
    1.6657    5.4490    1.0676 C   0  0  0  0  0  0  0  0  0  0  0  0
    1.7332    4.3785    2.0002 O   0  0  0  0  0  0  0  0  0  0  0  0
    1.9635    3.1302    1.4907 C   0  0  0  0  0  0  0  0  0  0  0  0
    1.9642    2.1081    2.4396 C   0  0  0  0  0  0  0  0  0  0  0  0
    2.1803    0.7827    2.0561 C   0  0  0  0  0  0  0  0  0  0  0  0
    2.4030    0.4486    0.7109 C   0  0  0  0  0  0  0  0  0  0  0  0
    2.6701   -1.0047    0.3652 C   0  0  0  0  0  0  0  0  0  0  0  0
    2.5238   -1.3835   -1.0383 N   0  0  0  0  0  0  0  0  0  0  0  0
    3.6666   -1.3061   -1.8525 C   0  0  0  0  0  0  0  0  0  0  0  0
    4.7359   -0.8284   -1.4655 O   0  0  0  0  0  0  0  0  0  0  0  0
    3.4610   -1.7735   -3.3100 C   0  0  0  0  0  0  0  0  0  0  0  0
    4.7963   -2.0177   -4.0056 C   0  0  0  0  0  0  0  0  0  0  0  0
    2.6780   -3.0037   -3.3428 N   0  0  0  0  0  0  0  0  0  0  0  0
    1.4627   -2.8808   -2.6611 C   0  0  0  0  0  0  0  0  0  0  0  0
    0.4626   -3.6168   -3.1638 N   0  0  0  0  0  0  0  0  0  0  0  0
   -0.6835   -3.5837   -2.4814 C   0  0  0  0  0  0  0  0  0  0  0  0
   -0.9232   -2.8691   -1.3772 N   0  0  0  0  0  0  0  0  0  0  0  0
    0.0893   -2.1102   -0.9004 C   0  0  0  0  0  0  0  0  0  0  0  0
   -0.2191   -1.2497    0.1765 N   0  0  0  0  0  0  0  0  0  0  0  0
   -0.9099   -0.0430   -0.3584 C   0  0  0  0  0  0  0  0  0  0  0  0
   -1.6837    0.7177    0.7411 C   0  0  0  0  0  0  0  0  0  0  0  0
   -2.7215   -0.1421    1.3567 N   0  0  0  0  0  0  0  0  0  0  0  0
   -3.9842    0.3749    1.6248 C   0  0  0  0  0  0  0  0  0  0  0  0
   -5.1469   -0.4145    1.5900 C   0  0  0  0  0  0  0  0  0  0  0  0
   -6.4162    0.1177    1.8493 C   0  0  0  0  0  0  0  0  0  0  0  0
   -6.5540    1.4615    2.1667 C   0  0  0  0  0  0  0  0  0  0  0  0
   -5.4230    2.2662    2.2350 C   0  0  0  0  0  0  0  0  0  0  0  0
   -4.1593    1.7246    1.9713 C   0  0  0  0  0  0  0  0  0  0  0  0
   -2.4985   -1.5981    1.2352 C   0  0  0  0  0  0  0  0  0  0  0  0
   -0.9902   -1.9331    1.2486 C   0  0  0  0  0  0  0  0  0  0  0  0
    1.3567   -2.0965   -1.5036 C   0  0  0  0  0  0  0  0  0  0  0  0
    2.4283    1.4854   -0.2319 C   0  0  0  0  0  0  0  0  0  0  0  0
    2.1950    2.8132    0.1512 C   0  0  0  0  0  0  0  0  0  0  0  0
    1.5004    6.3715    1.6339 H   0  0  0  0  0  0  0  0  0  0  0  0
    0.8187    5.3196    0.3831 H   0  0  0  0  0  0  0  0  0  0  0  0
    2.6079    5.5619    0.5189 H   0  0  0  0  0  0  0  0  0  0  0  0
    1.7988    2.3446    3.4889 H   0  0  0  0  0  0  0  0  0  0  0  0
    2.1738    0.0075    2.8189 H   0  0  0  0  0  0  0  0  0  0  0  0
    2.0678   -1.6740    0.9909 H   0  0  0  0  0  0  0  0  0  0  0  0
    3.7064   -1.2109    0.6695 H   0  0  0  0  0  0  0  0  0  0  0  0
    2.9309   -0.9719   -3.8442 H   0  0  0  0  0  0  0  0  0  0  0  0
    4.6478   -2.3749   -5.0301 H   0  0  0  0  0  0  0  0  0  0  0  0
    5.3895   -2.7700   -3.4737 H   0  0  0  0  0  0  0  0  0  0  0  0
    5.3862   -1.0983   -4.0533 H   0  0  0  0  0  0  0  0  0  0  0  0
    2.5023   -3.4240   -4.2510 H   0  0  0  0  0  0  0  0  0  0  0  0
   -1.5002   -4.1892   -2.8593 H   0  0  0  0  0  0  0  0  0  0  0  0
   -1.6292   -0.3139   -1.1432 H   0  0  0  0  0  0  0  0  0  0  0  0
   -0.1767    0.6246   -0.8194 H   0  0  0  0  0  0  0  0  0  0  0  0
   -0.9970    1.0555    1.5247 H   0  0  0  0  0  0  0  0  0  0  0  0
   -2.1255    1.6042    0.2692 H   0  0  0  0  0  0  0  0  0  0  0  0
   -5.0959   -1.4675    1.3389 H   0  0  0  0  0  0  0  0  0  0  0  0
   -7.2933   -0.5242    1.7974 H   0  0  0  0  0  0  0  0  0  0  0  0
   -7.5365    1.8772    2.3670 H   0  0  0  0  0  0  0  0  0  0  0  0
   -5.5139    3.3155    2.4971 H   0  0  0  0  0  0  0  0  0  0  0  0
   -3.2977    2.3815    2.0669 H   0  0  0  0  0  0  0  0  0  0  0  0
   -2.9585   -1.9670    0.3112 H   0  0  0  0  0  0  0  0  0  0  0  0
   -2.9613   -2.1204    2.0817 H   0  0  0  0  0  0  0  0  0  0  0  0
   -0.8415   -3.0210    1.2331 H   0  0  0  0  0  0  0  0  0  0  0  0
   -0.5696   -1.5892    2.2023 H   0  0  0  0  0  0  0  0  0  0  0  0
    2.6265    1.2742   -1.2820 H   0  0  0  0  0  0  0  0  0  0  0  0
    2.2168    3.5754   -0.6209 H   0  0  0  0  0  0  0  0  0  0  0  0
  1  2  1  0
  2  3  1  0
  3  4  2  0
  4  5  1  0
  5  6  2  0
  6  7  1  0
  7  8  1  0
  8  9  1  0
  9 10  2  0
  9 11  1  0
 11 12  1  0
 11 13  1  0
 13 14  1  0
 14 15  2  0
 15 16  1  0
 16 17  2  0
 17 18  1  0
 18 19  1  0
 19 20  1  0
 20 21  1  0
 21 22  1  0
 22 23  1  0
 23 24  2  0
 24 25  1  0
 25 26  2  0
 26 27  1  0
 27 28  2  0
 22 29  1  0
 29 30  1  0
 18 31  2  0
  6 32  1  0
 32 33  2  0
 33  3  1  0
 31  8  1  0
 31 14  1  0
 30 19  1  0
 28 23  1  0
  1 34  1  0
  1 35  1  0
  1 36  1  0
  4 37  1  0
  5 38  1  0
  7 39  1  0
  7 40  1  0
 11 41  1  0
 12 42  1  0
 12 43  1  0
 12 44  1  0
 13 45  1  0
 16 46  1  0
 20 47  1  0
 20 48  1  0
 21 49  1  0
 21 50  1  0
 24 51  1  0
 25 52  1  0
 26 53  1  0
 27 54  1  0
 28 55  1  0
 29 56  1  0
 29 57  1  0
 30 58  1  0
 30 59  1  0
 32 60  1  0
 33 61  1  0
M  END
$$$$
