
     RDKit          3D

 37 37  0  0  0  0  0  0  0  0999 V2000
    2.8802    2.5143    1.2617 C   0  0  0  0  0  0  0  0  0  0  0  0
    3.2598    1.4809    0.2128 C   0  0  0  0  0  0  0  0  0  0  0  0
    2.2817    0.3066    0.2076 C   0  0  0  0  0  0  0  0  0  0  0  0
    2.6467   -0.7203   -0.8698 C   0  0  0  0  0  0  0  0  0  0  0  0
    1.7037   -1.9233   -0.8627 C   0  0  0  0  0  0  0  0  0  0  0  0
    0.2994   -1.5788   -1.3282 C   0  0  0  0  0  0  0  0  0  0  0  0
    0.0498   -0.6083   -2.0373 O   0  0  0  0  0  0  0  0  0  0  0  0
   -0.6375   -2.5072   -0.8629 N   0  0  0  0  0  0  0  0  0  0  0  0
   -1.9426   -2.4522   -1.2814 N   0  0  0  0  0  0  0  0  0  0  0  0
   -2.6517   -1.4009   -0.9766 C   0  0  0  0  0  0  0  0  0  0  0  0
   -4.0256   -1.2888   -1.5967 C   0  0  0  0  0  0  0  0  0  0  0  0
   -2.2620   -0.3173   -0.0371 C   0  0  0  0  0  0  0  0  0  0  0  0
   -1.9062   -0.6386    1.2776 C   0  0  0  0  0  0  0  0  0  0  0  0
   -1.5367    0.3764    2.1621 C   0  0  0  0  0  0  0  0  0  0  0  0
   -1.5279    1.7029    1.7290 C   0  0  0  0  0  0  0  0  0  0  0  0
   -1.0618    2.9504    2.8183 Cl  0  0  0  0  0  0  0  0  0  0  0  0
   -1.8899    2.0257    0.4206 C   0  0  0  0  0  0  0  0  0  0  0  0
   -2.2627    1.0134   -0.4665 C   0  0  0  0  0  0  0  0  0  0  0  0
    1.8865    2.9277    1.0618 H   0  0  0  0  0  0  0  0  0  0  0  0
    3.5982    3.3403    1.2573 H   0  0  0  0  0  0  0  0  0  0  0  0
    2.8743    2.0736    2.2637 H   0  0  0  0  0  0  0  0  0  0  0  0
    4.2748    1.1191    0.4136 H   0  0  0  0  0  0  0  0  0  0  0  0
    3.2740    1.9591   -0.7735 H   0  0  0  0  0  0  0  0  0  0  0  0
    2.2842   -0.1769    1.1922 H   0  0  0  0  0  0  0  0  0  0  0  0
    1.2671    0.6840    0.0380 H   0  0  0  0  0  0  0  0  0  0  0  0
    2.6428   -0.2406   -1.8560 H   0  0  0  0  0  0  0  0  0  0  0  0
    3.6684   -1.0778   -0.6926 H   0  0  0  0  0  0  0  0  0  0  0  0
    1.6636   -2.3591    0.1424 H   0  0  0  0  0  0  0  0  0  0  0  0
    2.0906   -2.6893   -1.5449 H   0  0  0  0  0  0  0  0  0  0  0  0
   -0.2898   -3.4589   -0.7871 H   0  0  0  0  0  0  0  0  0  0  0  0
   -4.5509   -2.2428   -1.4902 H   0  0  0  0  0  0  0  0  0  0  0  0
   -4.6248   -0.5095   -1.1186 H   0  0  0  0  0  0  0  0  0  0  0  0
   -3.9196   -1.0586   -2.6608 H   0  0  0  0  0  0  0  0  0  0  0  0
   -1.9152   -1.6731    1.6110 H   0  0  0  0  0  0  0  0  0  0  0  0
   -1.2557    0.1286    3.1822 H   0  0  0  0  0  0  0  0  0  0  0  0
   -1.8715    3.0583    0.0821 H   0  0  0  0  0  0  0  0  0  0  0  0
   -2.5137    1.2614   -1.4949 H   0  0  0  0  0  0  0  0  0  0  0  0
  1  2  1  0
  2  3  1  0
  3  4  1  0
  4  5  1  0
  5  6  1  0
  6  7  2  0
  6  8  1  0
  8  9  1  0
  9 10  2  3
 10 11  1  0
 10 12  1  0
 12 13  2  0
 13 14  1  0
 14 15  2  0
 15 16  1  0
 15 17  1  0
 17 18  2  0
 18 12  1  0
  1 19  1  0
  1 20  1  0
  1 21  1  0
  2 22  1  0
  2 23  1  0
  3 24  1  0
  3 25  1  0
  4 26  1  0
  4 27  1  0
  5 28  1  0
  5 29  1  0
  8 30  1  0
 11 31  1  0
 11 32  1  0
 11 33  1  0
 13 34  1  0
 14 35  1  0
 17 36  1  0
 18 37  1  0
M  END
$$$$
