
     RDKit          3D

 37 38  0  0  0  0  0  0  0  0999 V2000
   -3.0859    2.9008   -0.1989 C   0  0  0  0  0  0  0  0  0  0  0  0
   -2.1244    1.9502   -0.6373 O   0  0  0  0  0  0  0  0  0  0  0  0
   -2.2667    0.6565   -0.2047 C   0  0  0  0  0  0  0  0  0  0  0  0
   -3.3073    0.2063    0.6209 C   0  0  0  0  0  0  0  0  0  0  0  0
   -3.4060   -1.1383    0.9971 C   0  0  0  0  0  0  0  0  0  0  0  0
   -4.3863   -1.5463    1.9122 N   0  0  0  0  0  0  0  0  0  0  0  0
   -2.3889   -2.0147    0.6258 C   0  0  0  0  0  0  0  0  0  0  0  0
   -1.3477   -1.5834   -0.1968 C   0  0  0  0  0  0  0  0  0  0  0  0
   -1.2803   -0.2502   -0.6325 C   0  0  0  0  0  0  0  0  0  0  0  0
   -0.1244    0.1724   -1.5183 C   0  0  0  0  0  0  0  0  0  0  0  0
    1.1683    0.4093   -0.7621 C   0  0  0  0  0  0  0  0  0  0  0  0
    1.3405    1.6244   -0.0794 C   0  0  0  0  0  0  0  0  0  0  0  0
    2.5078    1.8807    0.6403 C   0  0  0  0  0  0  0  0  0  0  0  0
    3.5062    0.9140    0.7348 C   0  0  0  0  0  0  0  0  0  0  0  0
    4.7215    1.2172    1.3652 N   0  0  0  0  0  0  0  0  0  0  0  0
    3.3656   -0.2736    0.0078 C   0  0  0  0  0  0  0  0  0  0  0  0
    2.1996   -0.5462   -0.7225 C   0  0  0  0  0  0  0  0  0  0  0  0
    1.9793   -1.7009   -1.4293 O   0  0  0  0  0  0  0  0  0  0  0  0
    3.0236   -2.6645   -1.4559 C   0  0  0  0  0  0  0  0  0  0  0  0
   -2.8173    3.8698   -0.6311 H   0  0  0  0  0  0  0  0  0  0  0  0
   -4.0880    2.6439   -0.5579 H   0  0  0  0  0  0  0  0  0  0  0  0
   -3.0681    3.0072    0.8908 H   0  0  0  0  0  0  0  0  0  0  0  0
   -4.0630    0.8913    0.9880 H   0  0  0  0  0  0  0  0  0  0  0  0
   -5.2358   -0.9927    1.8785 H   0  0  0  0  0  0  0  0  0  0  0  0
   -4.5751   -2.5435    1.8867 H   0  0  0  0  0  0  0  0  0  0  0  0
   -2.3954   -3.0443    0.9718 H   0  0  0  0  0  0  0  0  0  0  0  0
   -0.5734   -2.2906   -0.4871 H   0  0  0  0  0  0  0  0  0  0  0  0
    0.0125   -0.5840   -2.3018 H   0  0  0  0  0  0  0  0  0  0  0  0
   -0.3753    1.0797   -2.0827 H   0  0  0  0  0  0  0  0  0  0  0  0
    0.5617    2.3832   -0.1145 H   0  0  0  0  0  0  0  0  0  0  0  0
    2.6234    2.8423    1.1319 H   0  0  0  0  0  0  0  0  0  0  0  0
    5.2349    0.3991    1.6768 H   0  0  0  0  0  0  0  0  0  0  0  0
    4.6332    1.9158    2.0967 H   0  0  0  0  0  0  0  0  0  0  0  0
    4.1871   -0.9805    0.0298 H   0  0  0  0  0  0  0  0  0  0  0  0
    3.2304   -3.0503   -0.4524 H   0  0  0  0  0  0  0  0  0  0  0  0
    3.9274   -2.2556   -1.9195 H   0  0  0  0  0  0  0  0  0  0  0  0
    2.6863   -3.5046   -2.0705 H   0  0  0  0  0  0  0  0  0  0  0  0
  1  2  1  0
  2  3  1  0
  3  4  2  0
  4  5  1  0
  5  6  1  0
  5  7  2  0
  7  8  1  0
  8  9  2  0
  9 10  1  0
 10 11  1  0
 11 12  2  0
 12 13  1  0
 13 14  2  0
 14 15  1  0
 14 16  1  0
 16 17  2  0
 17 18  1  0
 18 19  1  0
  9  3  1  0
 17 11  1  0
  1 20  1  0
  1 21  1  0
  1 22  1  0
  4 23  1  0
  6 24  1  0
  6 25  1  0
  7 26  1  0
  8 27  1  0
 10 28  1  0
 10 29  1  0
 12 30  1  0
 13 31  1  0
 15 32  1  0
 15 33  1  0
 16 34  1  0
 19 35  1  0
 19 36  1  0
 19 37  1  0
M  END
$$$$
