
     RDKit          3D

 90 95  0  0  0  0  0  0  0  0999 V2000
    1.2917    2.6566    3.8364 C   0  0  0  0  0  0  0  0  0  0  0  0
    0.9130    2.2600    2.4005 C   0  0  0  0  0  0  0  0  0  0  0  0
   -0.5630    2.6676    2.1537 C   0  0  0  0  0  0  0  0  0  0  0  0
   -0.8521    3.0654    0.7664 N   0  0  0  0  0  0  0  0  0  0  0  0
   -0.6878    4.4840    0.3429 C   0  0  0  0  0  0  0  0  0  0  0  0
    0.6835    4.7152   -0.3050 C   0  0  0  0  0  0  0  0  0  0  0  0
   -0.9399    5.5582    1.4270 C   0  0  0  0  0  0  0  0  0  0  0  0
   -2.2405    5.4111    1.9986 O   0  0  0  0  0  0  0  0  0  0  0  0
   -1.2572    2.1639   -0.2323 C   0  0  0  0  0  0  0  0  0  0  0  0
   -1.4977    2.5007   -1.3928 O   0  0  0  0  0  0  0  0  0  0  0  0
   -1.4669    0.7380    0.1007 C   0  0  0  0  0  0  0  0  0  0  0  0
   -2.7270    0.1718   -0.1582 C   0  0  0  0  0  0  0  0  0  0  0  0
   -2.9598   -1.1823    0.0981 C   0  0  0  0  0  0  0  0  0  0  0  0
   -4.2019   -1.8188   -0.1083 N   0  0  0  0  0  0  0  0  0  0  0  0
   -5.2729   -1.3437   -0.8541 C   0  0  0  0  0  0  0  0  0  0  0  0
   -5.2445   -0.3522   -1.5678 O   0  0  0  0  0  0  0  0  0  0  0  0
   -6.3726   -2.1718   -0.6657 N   0  0  0  0  0  0  0  0  0  0  0  0
   -7.6061   -2.1430   -1.3674 C   0  0  0  0  0  0  0  0  0  0  0  0
   -7.7114   -1.4719   -2.5928 C   0  0  0  0  0  0  0  0  0  0  0  0
   -8.9118   -1.4504   -3.2948 C   0  0  0  0  0  0  0  0  0  0  0  0
  -10.0263   -2.1060   -2.7874 C   0  0  0  0  0  0  0  0  0  0  0  0
   -9.9567   -2.8029   -1.5742 C   0  0  0  0  0  0  0  0  0  0  0  0
  -11.1015   -3.4619   -1.0936 C   0  0  0  0  0  0  0  0  0  0  0  0
  -11.0816   -4.1643    0.1075 C   0  0  0  0  0  0  0  0  0  0  0  0
   -9.9091   -4.2192    0.8449 C   0  0  0  0  0  0  0  0  0  0  0  0
   -8.7606   -3.5667    0.3823 C   0  0  0  0  0  0  0  0  0  0  0  0
   -8.7419   -2.8393   -0.8388 C   0  0  0  0  0  0  0  0  0  0  0  0
   -1.9183   -1.9642    0.6153 C   0  0  0  0  0  0  0  0  0  0  0  0
   -0.6565   -1.4109    0.8491 C   0  0  0  0  0  0  0  0  0  0  0  0
   -0.4365   -0.0568    0.6017 C   0  0  0  0  0  0  0  0  0  0  0  0
    0.8181    0.4565    0.7653 O   0  0  0  0  0  0  0  0  0  0  0  0
    1.1141    0.7438    2.1448 C   0  0  0  0  0  0  0  0  0  0  0  0
    2.5196    0.1543    2.4768 C   0  0  0  0  0  0  0  0  0  0  0  0
    3.7104    0.3949    1.6419 N   0  0  0  0  0  0  0  0  0  0  0  0
    4.1446    1.7863    1.5906 C   0  0  0  0  0  0  0  0  0  0  0  0
    3.5950   -0.1882    0.2913 C   0  0  0  0  0  0  0  0  0  0  0  0
    4.9328   -0.5261   -0.3446 C   0  0  0  0  0  0  0  0  0  0  0  0
    5.0894   -0.4135   -1.7343 C   0  0  0  0  0  0  0  0  0  0  0  0
    6.2996   -0.7562   -2.3480 C   0  0  0  0  0  0  0  0  0  0  0  0
    7.3856   -1.2216   -1.5939 C   0  0  0  0  0  0  0  0  0  0  0  0
    8.6622   -1.5629   -2.2382 C   0  0  0  0  0  0  0  0  0  0  0  0
    8.7304   -2.5539   -3.2300 C   0  0  0  0  0  0  0  0  0  0  0  0
    9.9475   -2.8827   -3.8354 C   0  0  0  0  0  0  0  0  0  0  0  0
   11.1138   -2.2215   -3.4603 C   0  0  0  0  0  0  0  0  0  0  0  0
   11.0684   -1.2322   -2.4815 C   0  0  0  0  0  0  0  0  0  0  0  0
    9.8507   -0.9080   -1.8750 C   0  0  0  0  0  0  0  0  0  0  0  0
    7.2170   -1.3560   -0.2062 C   0  0  0  0  0  0  0  0  0  0  0  0
    6.0052   -1.0251    0.4084 C   0  0  0  0  0  0  0  0  0  0  0  0
    0.7156    2.0806    4.5699 H   0  0  0  0  0  0  0  0  0  0  0  0
    1.0930    3.7201    4.0133 H   0  0  0  0  0  0  0  0  0  0  0  0
    2.3556    2.5008    4.0385 H   0  0  0  0  0  0  0  0  0  0  0  0
    1.5423    2.8264    1.7094 H   0  0  0  0  0  0  0  0  0  0  0  0
   -1.2400    1.8542    2.4461 H   0  0  0  0  0  0  0  0  0  0  0  0
   -0.8474    3.4890    2.8162 H   0  0  0  0  0  0  0  0  0  0  0  0
   -1.4477    4.6587   -0.4296 H   0  0  0  0  0  0  0  0  0  0  0  0
    0.8892    3.9805   -1.0940 H   0  0  0  0  0  0  0  0  0  0  0  0
    1.4909    4.6538    0.4309 H   0  0  0  0  0  0  0  0  0  0  0  0
    0.7331    5.7128   -0.7609 H   0  0  0  0  0  0  0  0  0  0  0  0
   -0.8826    6.5581    0.9795 H   0  0  0  0  0  0  0  0  0  0  0  0
   -0.1964    5.5107    2.2294 H   0  0  0  0  0  0  0  0  0  0  0  0
   -2.4135    6.2020    2.5388 H   0  0  0  0  0  0  0  0  0  0  0  0
   -3.5061    0.8160   -0.5595 H   0  0  0  0  0  0  0  0  0  0  0  0
   -4.2380   -2.8087    0.0913 H   0  0  0  0  0  0  0  0  0  0  0  0
   -6.3666   -2.6662    0.2083 H   0  0  0  0  0  0  0  0  0  0  0  0
   -6.8636   -0.9596   -3.0413 H   0  0  0  0  0  0  0  0  0  0  0  0
   -8.9756   -0.9161   -4.2398 H   0  0  0  0  0  0  0  0  0  0  0  0
  -10.9535   -2.0733   -3.3568 H   0  0  0  0  0  0  0  0  0  0  0  0
  -12.0315   -3.4302   -1.6588 H   0  0  0  0  0  0  0  0  0  0  0  0
  -11.9769   -4.6661    0.4647 H   0  0  0  0  0  0  0  0  0  0  0  0
   -9.8832   -4.7663    1.7833 H   0  0  0  0  0  0  0  0  0  0  0  0
   -7.8753   -3.6368    1.0078 H   0  0  0  0  0  0  0  0  0  0  0  0
   -2.0642   -3.0228    0.8122 H   0  0  0  0  0  0  0  0  0  0  0  0
    0.1523   -2.0433    1.2053 H   0  0  0  0  0  0  0  0  0  0  0  0
    0.4191    0.2043    2.8095 H   0  0  0  0  0  0  0  0  0  0  0  0
    2.7749    0.4036    3.5144 H   0  0  0  0  0  0  0  0  0  0  0  0
    2.3938   -0.9370    2.5053 H   0  0  0  0  0  0  0  0  0  0  0  0
    3.4884    2.4120    0.9791 H   0  0  0  0  0  0  0  0  0  0  0  0
    5.1520    1.8642    1.1678 H   0  0  0  0  0  0  0  0  0  0  0  0
    4.2066    2.2160    2.5930 H   0  0  0  0  0  0  0  0  0  0  0  0
    3.0432    0.4935   -0.3686 H   0  0  0  0  0  0  0  0  0  0  0  0
    3.0323   -1.1307    0.3245 H   0  0  0  0  0  0  0  0  0  0  0  0
    4.2673   -0.0567   -2.3516 H   0  0  0  0  0  0  0  0  0  0  0  0
    6.3967   -0.6386   -3.4269 H   0  0  0  0  0  0  0  0  0  0  0  0
    7.8333   -3.0942   -3.5222 H   0  0  0  0  0  0  0  0  0  0  0  0
    9.9831   -3.6624   -4.5929 H   0  0  0  0  0  0  0  0  0  0  0  0
   12.0615   -2.4791   -3.9277 H   0  0  0  0  0  0  0  0  0  0  0  0
   11.9767   -0.7123   -2.1864 H   0  0  0  0  0  0  0  0  0  0  0  0
    9.8328   -0.1301   -1.1141 H   0  0  0  0  0  0  0  0  0  0  0  0
    8.0326   -1.7326    0.4078 H   0  0  0  0  0  0  0  0  0  0  0  0
    5.9050   -1.1484    1.4855 H   0  0  0  0  0  0  0  0  0  0  0  0
  1  2  1  0
  2  3  1  0
  3  4  1  0
  4  5  1  0
  5  6  1  0
  5  7  1  0
  7  8  1  0
  4  9  1  0
  9 10  2  0
  9 11  1  0
 11 12  2  0
 12 13  1  0
 13 14  1  0
 14 15  1  0
 15 16  2  0
 15 17  1  0
 17 18  1  0
 18 19  2  0
 19 20  1  0
 20 21  2  0
 21 22  1  0
 22 23  2  0
 23 24  1  0
 24 25  2  0
 25 26  1  0
 26 27  2  0
 13 28  2  0
 28 29  1  0
 29 30  2  0
 30 31  1  0
 31 32  1  0
 32 33  1  0
 33 34  1  0
 34 35  1  0
 34 36  1  0
 36 37  1  0
 37 38  2  0
 38 39  1  0
 39 40  2  0
 40 41  1  0
 41 42  2  0
 42 43  1  0
 43 44  2  0
 44 45  1  0
 45 46  2  0
 40 47  1  0
 47 48  2  0
 32  2  1  0
 48 37  1  0
 30 11  1  0
 46 41  1  0
 27 18  1  0
 27 22  1  0
  1 49  1  0
  1 50  1  0
  1 51  1  0
  2 52  1  0
  3 53  1  0
  3 54  1  0
  5 55  1  0
  6 56  1  0
  6 57  1  0
  6 58  1  0
  7 59  1  0
  7 60  1  0
  8 61  1  0
 12 62  1  0
 14 63  1  0
 17 64  1  0
 19 65  1  0
 20 66  1  0
 21 67  1  0
 23 68  1  0
 24 69  1  0
 25 70  1  0
 26 71  1  0
 28 72  1  0
 29 73  1  0
 32 74  1  0
 33 75  1  0
 33 76  1  0
 35 77  1  0
 35 78  1  0
 35 79  1  0
 36 80  1  0
 36 81  1  0
 38 82  1  0
 39 83  1  0
 42 84  1  0
 43 85  1  0
 44 86  1  0
 45 87  1  0
 46 88  1  0
 47 89  1  0
 48 90  1  0
M  END
$$$$
