
     RDKit          3D

 62 65  0  0  0  0  0  0  0  0999 V2000
    7.7659    2.7506   -3.4369 C   0  0  0  0  0  0  0  0  0  0  0  0
    7.3638    1.8924   -2.2738 C   0  0  0  0  0  0  0  0  0  0  0  0
    6.7040    2.4549   -1.1752 C   0  0  0  0  0  0  0  0  0  0  0  0
    6.3607    1.6657   -0.0749 C   0  0  0  0  0  0  0  0  0  0  0  0
    6.6832    0.3022   -0.0477 C   0  0  0  0  0  0  0  0  0  0  0  0
    6.2931   -0.5452    1.1348 C   0  0  0  0  0  0  0  0  0  0  0  0
    4.8897   -0.8866    1.0720 N   0  0  0  0  0  0  0  0  0  0  0  0
    3.9729   -0.3884    1.9695 C   0  0  0  0  0  0  0  0  0  0  0  0
    4.2728    0.3082    2.9320 O   0  0  0  0  0  0  0  0  0  0  0  0
    2.5531   -0.8043    1.6488 C   0  0  0  0  0  0  0  0  0  0  0  0
    1.5616   -0.2430    2.6643 C   0  0  0  0  0  0  0  0  0  0  0  0
    0.1584   -0.6730    2.3751 C   0  0  0  0  0  0  0  0  0  0  0  0
   -0.5306   -1.7767    2.9340 C   0  0  0  0  0  0  0  0  0  0  0  0
   -0.0297   -2.7562    3.9324 C   0  0  0  0  0  0  0  0  0  0  0  0
   -1.7709   -1.8864    2.4577 N   0  0  0  0  0  0  0  0  0  0  0  0
   -1.9235   -0.8408    1.5960 N   0  0  0  0  0  0  0  0  0  0  0  0
   -3.1676   -0.6430    0.9220 C   0  0  0  0  0  0  0  0  0  0  0  0
   -4.2250   -1.5109    1.1501 C   0  0  0  0  0  0  0  0  0  0  0  0
   -5.4317   -1.2961    0.4811 C   0  0  0  0  0  0  0  0  0  0  0  0
   -5.5651   -0.2331   -0.4069 C   0  0  0  0  0  0  0  0  0  0  0  0
   -6.7939   -0.0081   -1.0632 N   0  0  0  0  0  0  0  0  0  0  0  0
   -7.2223   -1.1477   -1.9057 C   0  0  0  0  0  0  0  0  0  0  0  0
   -8.5902   -0.8408   -2.5393 C   0  0  0  0  0  0  0  0  0  0  0  0
   -8.5610    0.3781   -3.2977 O   0  0  0  0  0  0  0  0  0  0  0  0
   -8.1950    1.4783   -2.4475 C   0  0  0  0  0  0  0  0  0  0  0  0
   -6.8080    1.2642   -1.8228 C   0  0  0  0  0  0  0  0  0  0  0  0
   -4.5137    0.5975   -0.5815 N   0  0  0  0  0  0  0  0  0  0  0  0
   -3.3114    0.3930    0.0718 N   0  0  0  0  0  0  0  0  0  0  0  0
   -0.7541   -0.0910    1.5077 C   0  0  0  0  0  0  0  0  0  0  0  0
   -0.5975    1.1012    0.6298 C   0  0  0  0  0  0  0  0  0  0  0  0
    7.3478   -0.2584   -1.1464 C   0  0  0  0  0  0  0  0  0  0  0  0
    7.6923    0.5323   -2.2457 C   0  0  0  0  0  0  0  0  0  0  0  0
    8.7232    3.2380   -3.2280 H   0  0  0  0  0  0  0  0  0  0  0  0
    7.8672    2.1542   -4.3495 H   0  0  0  0  0  0  0  0  0  0  0  0
    7.0099    3.5188   -3.6322 H   0  0  0  0  0  0  0  0  0  0  0  0
    6.4526    3.5135   -1.1680 H   0  0  0  0  0  0  0  0  0  0  0  0
    5.8411    2.1195    0.7681 H   0  0  0  0  0  0  0  0  0  0  0  0
    6.8522   -1.4875    1.1323 H   0  0  0  0  0  0  0  0  0  0  0  0
    6.5372   -0.0264    2.0684 H   0  0  0  0  0  0  0  0  0  0  0  0
    4.5607   -1.3430    0.2321 H   0  0  0  0  0  0  0  0  0  0  0  0
    2.5085   -1.9000    1.6395 H   0  0  0  0  0  0  0  0  0  0  0  0
    2.3074   -0.4480    0.6412 H   0  0  0  0  0  0  0  0  0  0  0  0
    1.8417   -0.5642    3.6758 H   0  0  0  0  0  0  0  0  0  0  0  0
    1.6145    0.8530    2.6763 H   0  0  0  0  0  0  0  0  0  0  0  0
    0.1607   -2.2590    4.8891 H   0  0  0  0  0  0  0  0  0  0  0  0
    0.9052   -3.2095    3.5863 H   0  0  0  0  0  0  0  0  0  0  0  0
   -0.7506   -3.5621    4.1046 H   0  0  0  0  0  0  0  0  0  0  0  0
   -4.1372   -2.3432    1.8428 H   0  0  0  0  0  0  0  0  0  0  0  0
   -6.2706   -1.9529    0.6854 H   0  0  0  0  0  0  0  0  0  0  0  0
   -7.3153   -2.0710   -1.3242 H   0  0  0  0  0  0  0  0  0  0  0  0
   -6.4834   -1.3109   -2.7017 H   0  0  0  0  0  0  0  0  0  0  0  0
   -9.3700   -0.7625   -1.7720 H   0  0  0  0  0  0  0  0  0  0  0  0
   -8.8730   -1.6486   -3.2223 H   0  0  0  0  0  0  0  0  0  0  0  0
   -8.9616    1.5999   -1.6727 H   0  0  0  0  0  0  0  0  0  0  0  0
   -8.1921    2.3855   -3.0602 H   0  0  0  0  0  0  0  0  0  0  0  0
   -6.5858    2.1125   -1.1646 H   0  0  0  0  0  0  0  0  0  0  0  0
   -6.0604    1.2282   -2.6259 H   0  0  0  0  0  0  0  0  0  0  0  0
   -0.7650    0.8392   -0.4198 H   0  0  0  0  0  0  0  0  0  0  0  0
   -1.2901    1.8968    0.9228 H   0  0  0  0  0  0  0  0  0  0  0  0
    0.4146    1.5130    0.6971 H   0  0  0  0  0  0  0  0  0  0  0  0
    7.6096   -1.3141   -1.1528 H   0  0  0  0  0  0  0  0  0  0  0  0
    8.2206    0.0790   -3.0818 H   0  0  0  0  0  0  0  0  0  0  0  0
  1  2  1  0
  2  3  2  0
  3  4  1  0
  4  5  2  0
  5  6  1  0
  6  7  1  0
  7  8  1  0
  8  9  2  0
  8 10  1  0
 10 11  1  0
 11 12  1  0
 12 13  1  0
 13 14  1  0
 13 15  2  0
 15 16  1  0
 16 17  1  0
 17 18  2  0
 18 19  1  0
 19 20  2  0
 20 21  1  0
 21 22  1  0
 22 23  1  0
 23 24  1  0
 24 25  1  0
 25 26  1  0
 20 27  1  0
 27 28  2  0
 16 29  1  0
 29 30  1  0
  5 31  1  0
 31 32  2  0
 32  2  1  0
 29 12  2  0
 28 17  1  0
 26 21  1  0
  1 33  1  0
  1 34  1  0
  1 35  1  0
  3 36  1  0
  4 37  1  0
  6 38  1  0
  6 39  1  0
  7 40  1  0
 10 41  1  0
 10 42  1  0
 11 43  1  0
 11 44  1  0
 14 45  1  0
 14 46  1  0
 14 47  1  0
 18 48  1  0
 19 49  1  0
 22 50  1  0
 22 51  1  0
 23 52  1  0
 23 53  1  0
 25 54  1  0
 25 55  1  0
 26 56  1  0
 26 57  1  0
 30 58  1  0
 30 59  1  0
 30 60  1  0
 31 61  1  0
 32 62  1  0
M  END
$$$$
