
     RDKit          3D

 39 40  0  0  0  0  0  0  0  0999 V2000
    7.6021   -0.1240    0.6167 C   0  0  0  0  0  0  0  0  0  0  0  0
    6.2008   -0.3984    0.6194 O   0  0  0  0  0  0  0  0  0  0  0  0
    5.4807    0.4143   -0.1904 C   0  0  0  0  0  0  0  0  0  0  0  0
    5.9361    1.3070   -0.8885 O   0  0  0  0  0  0  0  0  0  0  0  0
    4.1684    0.0711   -0.1131 N   0  0  0  0  0  0  0  0  0  0  0  0
    3.1828    0.6710   -0.9701 C   0  0  0  0  0  0  0  0  0  0  0  0
    1.7934    0.2513   -0.5687 C   0  0  0  0  0  0  0  0  0  0  0  0
    1.1480    0.8850    0.5052 C   0  0  0  0  0  0  0  0  0  0  0  0
   -0.1279    0.4829    0.9011 C   0  0  0  0  0  0  0  0  0  0  0  0
   -0.7615   -0.5601    0.2210 C   0  0  0  0  0  0  0  0  0  0  0  0
   -2.3852   -1.0598    0.7369 S   0  0  0  0  0  6  0  0  0  0  0  0
   -2.8537   -2.0904   -0.1645 O   0  0  0  0  0  0  0  0  0  0  0  0
   -2.3258   -1.2857    2.1647 O   0  0  0  0  0  0  0  0  0  0  0  0
   -3.3114    0.3399    0.4549 N   0  0  0  0  0  0  0  0  0  0  0  0
   -3.4786    0.7706   -0.9694 C   0  0  0  0  0  0  0  0  0  0  0  0
   -4.6334    0.0360   -1.6633 C   0  0  0  0  0  0  0  0  0  0  0  0
   -5.8569    0.1638   -0.9258 O   0  0  0  0  0  0  0  0  0  0  0  0
   -5.7054   -0.3771    0.3950 C   0  0  0  0  0  0  0  0  0  0  0  0
   -4.6262    0.3839    1.1687 C   0  0  0  0  0  0  0  0  0  0  0  0
   -0.1285   -1.2127   -0.8390 C   0  0  0  0  0  0  0  0  0  0  0  0
    1.1487   -0.8061   -1.2296 C   0  0  0  0  0  0  0  0  0  0  0  0
    8.0203   -0.2732   -0.3838 H   0  0  0  0  0  0  0  0  0  0  0  0
    7.7951    0.8935    0.9709 H   0  0  0  0  0  0  0  0  0  0  0  0
    8.0858   -0.8259    1.3017 H   0  0  0  0  0  0  0  0  0  0  0  0
    3.9532   -0.7652    0.4107 H   0  0  0  0  0  0  0  0  0  0  0  0
    3.3986    0.3722   -2.0028 H   0  0  0  0  0  0  0  0  0  0  0  0
    3.2823    1.7624   -0.9299 H   0  0  0  0  0  0  0  0  0  0  0  0
    1.6441    1.6923    1.0418 H   0  0  0  0  0  0  0  0  0  0  0  0
   -0.6202    0.9766    1.7364 H   0  0  0  0  0  0  0  0  0  0  0  0
   -3.6917    1.8469   -0.9510 H   0  0  0  0  0  0  0  0  0  0  0  0
   -2.5494    0.6453   -1.5321 H   0  0  0  0  0  0  0  0  0  0  0  0
   -4.4178   -1.0260   -1.8153 H   0  0  0  0  0  0  0  0  0  0  0  0
   -4.8007    0.4748   -2.6523 H   0  0  0  0  0  0  0  0  0  0  0  0
   -5.4836   -1.4476    0.3258 H   0  0  0  0  0  0  0  0  0  0  0  0
   -6.6682   -0.2707    0.9048 H   0  0  0  0  0  0  0  0  0  0  0  0
   -4.9095    1.4405    1.2546 H   0  0  0  0  0  0  0  0  0  0  0  0
   -4.5327   -0.0002    2.1888 H   0  0  0  0  0  0  0  0  0  0  0  0
   -0.6142   -2.0360   -1.3582 H   0  0  0  0  0  0  0  0  0  0  0  0
    1.6421   -1.3223   -2.0514 H   0  0  0  0  0  0  0  0  0  0  0  0
  1  2  1  0
  2  3  1  0
  3  4  2  0
  3  5  1  0
  5  6  1  0
  6  7  1  0
  7  8  2  0
  8  9  1  0
  9 10  2  0
 10 11  1  0
 11 12  2  0
 11 13  2  0
 11 14  1  0
 14 15  1  0
 15 16  1  0
 16 17  1  0
 17 18  1  0
 18 19  1  0
 10 20  1  0
 20 21  2  0
 21  7  1  0
 19 14  1  0
  1 22  1  0
  1 23  1  0
  1 24  1  0
  5 25  1  0
  6 26  1  0
  6 27  1  0
  8 28  1  0
  9 29  1  0
 15 30  1  0
 15 31  1  0
 16 32  1  0
 16 33  1  0
 18 34  1  0
 18 35  1  0
 19 36  1  0
 19 37  1  0
 20 38  1  0
 21 39  1  0
M  END
$$$$
