
     RDKit          3D

 64 68  0  0  0  0  0  0  0  0999 V2000
   -5.0414    0.4669   -3.4348 C   0  0  0  0  0  0  0  0  0  0  0  0
   -4.6841   -0.7656   -2.5880 C   0  0  0  0  0  0  0  0  0  0  0  0
   -5.0192   -2.0231   -3.4204 C   0  0  0  0  0  0  0  0  0  0  0  0
   -5.5502   -0.8034   -1.3216 C   0  0  0  0  0  0  0  0  0  0  0  0
   -3.1564   -0.7630   -2.3199 C   0  0  0  0  0  0  0  0  0  0  0  0
   -2.3750   -1.2188   -3.1609 O   0  0  0  0  0  0  0  0  0  0  0  0
   -2.5710   -0.1024   -1.1084 C   0  0  0  0  0  0  0  0  0  0  0  0
   -3.0375    1.2130   -0.8239 C   0  0  0  0  0  0  0  0  0  0  0  0
   -3.4429    2.2732   -0.5836 N   0  0  0  0  0  0  0  0  0  0  0  0
   -1.4987   -0.6296   -0.4689 C   0  0  0  0  0  0  0  0  0  0  0  0
   -0.5048    0.3560    0.5938 S   0  0  0  0  0  0  0  0  0  0  0  0
    0.8238   -0.7222    0.4193 C   0  0  0  0  0  0  0  0  0  0  0  0
    2.1026   -0.5068    0.7659 C   0  0  0  0  0  0  0  0  0  0  0  0
    2.6460    0.6609    1.3783 C   0  0  0  0  0  0  0  0  0  0  0  0
    2.2677    1.1510    2.6059 C   0  0  0  0  0  0  0  0  0  0  0  0
    3.0746    2.2328    2.8713 N   0  0  0  0  0  0  0  0  0  0  0  0
    3.0693    3.0673    4.0251 C   0  0  0  0  0  0  0  0  0  0  0  0
    2.1690    2.8502    5.0778 C   0  0  0  0  0  0  0  0  0  0  0  0
    2.1938    3.6801    6.2032 C   0  0  0  0  0  0  0  0  0  0  0  0
    3.1088    4.7283    6.2836 C   0  0  0  0  0  0  0  0  0  0  0  0
    4.0034    4.9527    5.2393 C   0  0  0  0  0  0  0  0  0  0  0  0
    3.9859    4.1269    4.1133 C   0  0  0  0  0  0  0  0  0  0  0  0
    3.9606    2.4435    1.8668 N   0  0  0  0  0  0  0  0  0  0  0  0
    3.7030    1.5058    0.9413 C   0  0  0  0  0  0  0  0  0  0  0  0
    4.4761    1.4671   -0.2992 C   0  0  0  0  0  0  0  0  0  0  0  0
    5.8216    1.8516   -0.3226 C   0  0  0  0  0  0  0  0  0  0  0  0
    6.5375    1.8175   -1.5178 C   0  0  0  0  0  0  0  0  0  0  0  0
    5.8822    1.3979   -2.6635 C   0  0  0  0  0  0  0  0  0  0  0  0
    4.5842    1.0251   -2.6892 N   0  0  0  0  0  0  0  0  0  0  0  0
    3.9131    1.0789   -1.5111 C   0  0  0  0  0  0  0  0  0  0  0  0
    0.4041   -2.0076   -0.2007 C   0  0  0  0  0  0  0  0  0  0  0  0
    1.1453   -2.9798   -0.2553 O   0  0  0  0  0  0  0  0  0  0  0  0
   -0.9354   -1.9014   -0.6180 N   0  0  0  0  0  0  0  0  0  0  0  0
   -1.6426   -3.1024   -0.9387 C   0  0  0  0  0  0  0  0  0  0  0  0
   -2.9079   -3.3442   -0.3782 C   0  0  0  0  0  0  0  0  0  0  0  0
   -3.5881   -4.5356   -0.6456 C   0  0  0  0  0  0  0  0  0  0  0  0
   -3.0068   -5.4855   -1.4754 C   0  0  0  0  0  0  0  0  0  0  0  0
   -3.6625   -6.6242   -1.7320 F   0  0  0  0  0  0  0  0  0  0  0  0
   -1.7537   -5.2729   -2.0322 C   0  0  0  0  0  0  0  0  0  0  0  0
   -1.0676   -4.0867   -1.7559 C   0  0  0  0  0  0  0  0  0  0  0  0
   -4.9202    1.3974   -2.8742 H   0  0  0  0  0  0  0  0  0  0  0  0
   -4.4018    0.5381   -4.3213 H   0  0  0  0  0  0  0  0  0  0  0  0
   -6.0816    0.4253   -3.7754 H   0  0  0  0  0  0  0  0  0  0  0  0
   -4.7672   -2.9376   -2.8752 H   0  0  0  0  0  0  0  0  0  0  0  0
   -4.4632   -2.0422   -4.3645 H   0  0  0  0  0  0  0  0  0  0  0  0
   -6.0861   -2.0645   -3.6679 H   0  0  0  0  0  0  0  0  0  0  0  0
   -5.4602    0.1072   -0.7228 H   0  0  0  0  0  0  0  0  0  0  0  0
   -5.2921   -1.6528   -0.6837 H   0  0  0  0  0  0  0  0  0  0  0  0
   -6.6116   -0.8982   -1.5798 H   0  0  0  0  0  0  0  0  0  0  0  0
    2.8281   -1.2900    0.5402 H   0  0  0  0  0  0  0  0  0  0  0  0
    1.5174    0.8097    3.3018 H   0  0  0  0  0  0  0  0  0  0  0  0
    1.4389    2.0482    5.0603 H   0  0  0  0  0  0  0  0  0  0  0  0
    1.4955    3.5080    7.0190 H   0  0  0  0  0  0  0  0  0  0  0  0
    3.1263    5.3706    7.1612 H   0  0  0  0  0  0  0  0  0  0  0  0
    4.7170    5.7705    5.2991 H   0  0  0  0  0  0  0  0  0  0  0  0
    4.6950    4.3232    3.3108 H   0  0  0  0  0  0  0  0  0  0  0  0
    6.3139    2.1822    0.5891 H   0  0  0  0  0  0  0  0  0  0  0  0
    7.5799    2.1141   -1.5519 H   0  0  0  0  0  0  0  0  0  0  0  0
    6.3969    1.3530   -3.6187 H   0  0  0  0  0  0  0  0  0  0  0  0
    2.8661    0.8039   -1.5948 H   0  0  0  0  0  0  0  0  0  0  0  0
   -3.3555   -2.6402    0.3169 H   0  0  0  0  0  0  0  0  0  0  0  0
   -4.5601   -4.7357   -0.2053 H   0  0  0  0  0  0  0  0  0  0  0  0
   -1.3132   -6.0287   -2.6750 H   0  0  0  0  0  0  0  0  0  0  0  0
   -0.0889   -3.9334   -2.2073 H   0  0  0  0  0  0  0  0  0  0  0  0
  1  2  1  0
  2  3  1  0
  2  4  1  0
  2  5  1  0
  5  6  2  0
  5  7  1  0
  7  8  1  0
  8  9  3  0
  7 10  2  3
 10 11  1  0
 11 12  1  0
 12 13  2  3
 13 14  1  0
 14 15  2  0
 15 16  1  0
 16 17  1  0
 17 18  2  0
 18 19  1  0
 19 20  2  0
 20 21  1  0
 21 22  2  0
 16 23  1  0
 23 24  2  0
 24 25  1  0
 25 26  2  0
 26 27  1  0
 27 28  2  0
 28 29  1  0
 29 30  2  0
 12 31  1  0
 31 32  2  0
 31 33  1  0
 33 34  1  0
 34 35  2  0
 35 36  1  0
 36 37  2  0
 37 38  1  0
 37 39  1  0
 39 40  2  0
 33 10  1  0
 40 34  1  0
 24 14  1  0
 30 25  1  0
 22 17  1  0
  1 41  1  0
  1 42  1  0
  1 43  1  0
  3 44  1  0
  3 45  1  0
  3 46  1  0
  4 47  1  0
  4 48  1  0
  4 49  1  0
 13 50  1  0
 15 51  1  0
 18 52  1  0
 19 53  1  0
 20 54  1  0
 21 55  1  0
 22 56  1  0
 26 57  1  0
 27 58  1  0
 28 59  1  0
 30 60  1  0
 35 61  1  0
 36 62  1  0
 39 63  1  0
 40 64  1  0
M  END
$$$$
