
     RDKit          3D

 56 58  0  0  0  0  0  0  0  0999 V2000
   -8.7925   -0.7628    1.9683 C   0  0  0  0  0  0  0  0  0  0  0  0
   -8.1244   -0.3977    0.7699 O   0  0  0  0  0  0  0  0  0  0  0  0
   -6.7513   -0.3818    0.7853 C   0  0  0  0  0  0  0  0  0  0  0  0
   -5.9701   -0.6665    1.9104 C   0  0  0  0  0  0  0  0  0  0  0  0
   -4.5755   -0.6236    1.8349 C   0  0  0  0  0  0  0  0  0  0  0  0
   -3.9414   -0.2993    0.6329 C   0  0  0  0  0  0  0  0  0  0  0  0
   -2.4367   -0.2308    0.5495 C   0  0  0  0  0  0  0  0  0  0  0  0
   -1.9251    1.2031    0.7101 C   0  0  0  0  0  0  0  0  0  0  0  0
   -0.4780    1.2805    0.6387 N   0  0  0  0  0  0  0  0  0  0  0  0
    0.1772    1.2243   -0.5658 C   0  0  0  0  0  0  0  0  0  0  0  0
   -0.3924    1.1629   -1.6494 O   0  0  0  0  0  0  0  0  0  0  0  0
    1.6619    1.2313   -0.4603 C   0  0  0  0  0  0  0  0  0  0  0  0
    2.3655    0.6212   -1.4321 C   0  0  0  0  0  0  0  0  0  0  0  0
    3.8603    0.5367   -1.4705 C   0  0  0  0  0  0  0  0  0  0  0  0
    4.4824    1.0390   -0.2208 N   0  0  0  0  0  0  0  0  0  0  0  0
    4.9047   -0.1255    0.9456 S   0  0  0  0  0  6  0  0  0  0  0  0
    5.5338    0.5545    2.0575 O   0  0  0  0  0  0  0  0  0  0  0  0
    3.7607   -0.9883    1.1511 O   0  0  0  0  0  0  0  0  0  0  0  0
    6.1753   -1.0577    0.1237 C   0  0  0  0  0  0  0  0  0  0  0  0
    5.9772   -2.4121   -0.1680 C   0  0  0  0  0  0  0  0  0  0  0  0
    6.9886   -3.1259   -0.8120 C   0  0  0  0  0  0  0  0  0  0  0  0
    8.1778   -2.4840   -1.1488 C   0  0  0  0  0  0  0  0  0  0  0  0
    9.1446   -3.1738   -1.7674 F   0  0  0  0  0  0  0  0  0  0  0  0
    8.3804   -1.1387   -0.8525 C   0  0  0  0  0  0  0  0  0  0  0  0
    7.3752   -0.4168   -0.2092 C   0  0  0  0  0  0  0  0  0  0  0  0
    3.8037    2.2528    0.3067 C   0  0  0  0  0  0  0  0  0  0  0  0
    2.3448    1.9614    0.6587 C   0  0  0  0  0  0  0  0  0  0  0  0
   -4.7232   -0.0098   -0.4960 C   0  0  0  0  0  0  0  0  0  0  0  0
   -6.1216   -0.0489   -0.4305 C   0  0  0  0  0  0  0  0  0  0  0  0
   -6.9553    0.2217   -1.4880 O   0  0  0  0  0  0  0  0  0  0  0  0
   -6.3545    0.5463   -2.7334 C   0  0  0  0  0  0  0  0  0  0  0  0
   -8.5331   -1.7824    2.2715 H   0  0  0  0  0  0  0  0  0  0  0  0
   -8.5860   -0.0458    2.7697 H   0  0  0  0  0  0  0  0  0  0  0  0
   -9.8688   -0.7391    1.7719 H   0  0  0  0  0  0  0  0  0  0  0  0
   -6.4166   -0.9248    2.8644 H   0  0  0  0  0  0  0  0  0  0  0  0
   -3.9905   -0.8480    2.7242 H   0  0  0  0  0  0  0  0  0  0  0  0
   -2.1095   -0.6545   -0.4085 H   0  0  0  0  0  0  0  0  0  0  0  0
   -1.9910   -0.8738    1.3195 H   0  0  0  0  0  0  0  0  0  0  0  0
   -2.2199    1.6127    1.6827 H   0  0  0  0  0  0  0  0  0  0  0  0
   -2.3461    1.8531   -0.0662 H   0  0  0  0  0  0  0  0  0  0  0  0
    0.0439    1.1528    1.4947 H   0  0  0  0  0  0  0  0  0  0  0  0
    1.8429    0.1316   -2.2524 H   0  0  0  0  0  0  0  0  0  0  0  0
    4.1582   -0.4962   -1.6734 H   0  0  0  0  0  0  0  0  0  0  0  0
    4.2373    1.1371   -2.3065 H   0  0  0  0  0  0  0  0  0  0  0  0
    5.0501   -2.9133    0.1018 H   0  0  0  0  0  0  0  0  0  0  0  0
    6.8610   -4.1777   -1.0502 H   0  0  0  0  0  0  0  0  0  0  0  0
    9.3201   -0.6656   -1.1208 H   0  0  0  0  0  0  0  0  0  0  0  0
    7.5271    0.6329    0.0333 H   0  0  0  0  0  0  0  0  0  0  0  0
    3.8606    3.0365   -0.4606 H   0  0  0  0  0  0  0  0  0  0  0  0
    4.3395    2.6499    1.1752 H   0  0  0  0  0  0  0  0  0  0  0  0
    1.8387    2.9124    0.8614 H   0  0  0  0  0  0  0  0  0  0  0  0
    2.2929    1.3598    1.5733 H   0  0  0  0  0  0  0  0  0  0  0  0
   -4.2114    0.2455   -1.4195 H   0  0  0  0  0  0  0  0  0  0  0  0
   -7.1574    0.7223   -3.4558 H   0  0  0  0  0  0  0  0  0  0  0  0
   -5.7667    1.4672   -2.6605 H   0  0  0  0  0  0  0  0  0  0  0  0
   -5.7474   -0.2842   -3.1083 H   0  0  0  0  0  0  0  0  0  0  0  0
  1  2  1  0
  2  3  1  0
  3  4  2  0
  4  5  1  0
  5  6  2  0
  6  7  1  0
  7  8  1  0
  8  9  1  0
  9 10  1  0
 10 11  2  0
 10 12  1  0
 12 13  2  0
 13 14  1  0
 14 15  1  0
 15 16  1  0
 16 17  2  0
 16 18  2  0
 16 19  1  0
 19 20  2  0
 20 21  1  0
 21 22  2  0
 22 23  1  0
 22 24  1  0
 24 25  2  0
 15 26  1  0
 26 27  1  0
  6 28  1  0
 28 29  2  0
 29 30  1  0
 30 31  1  0
 29  3  1  0
 27 12  1  0
 25 19  1  0
  1 32  1  0
  1 33  1  0
  1 34  1  0
  4 35  1  0
  5 36  1  0
  7 37  1  0
  7 38  1  0
  8 39  1  0
  8 40  1  0
  9 41  1  0
 13 42  1  0
 14 43  1  0
 14 44  1  0
 20 45  1  0
 21 46  1  0
 24 47  1  0
 25 48  1  0
 26 49  1  0
 26 50  1  0
 27 51  1  0
 27 52  1  0
 28 53  1  0
 31 54  1  0
 31 55  1  0
 31 56  1  0
M  END
$$$$
