
     RDKit          3D

 43 45  0  0  0  0  0  0  0  0999 V2000
    7.7703   -1.1033   -0.9360 C   0  0  0  0  0  0  0  0  0  0  0  0
    6.8083   -1.2195    0.1047 O   0  0  0  0  0  0  0  0  0  0  0  0
    5.5349   -0.8157   -0.1846 C   0  0  0  0  0  0  0  0  0  0  0  0
    4.6264   -0.9449    0.8657 C   0  0  0  0  0  0  0  0  0  0  0  0
    3.2871   -0.5703    0.7056 C   0  0  0  0  0  0  0  0  0  0  0  0
    2.8285   -0.0463   -0.5048 C   0  0  0  0  0  0  0  0  0  0  0  0
    1.4842    0.3030   -0.7438 N   0  0  0  0  0  0  0  0  0  0  0  0
    0.3328   -0.0404   -0.1213 C   0  0  0  0  0  0  0  0  0  0  0  0
    0.0607   -1.1457    0.7062 C   0  0  0  0  0  0  0  0  0  0  0  0
   -1.2690   -1.0804    1.0672 C   0  0  0  0  0  0  0  0  0  0  0  0
   -1.9963   -1.9418    1.7756 O   0  0  0  0  0  0  0  0  0  0  0  0
   -1.8269    0.0517    0.4779 N   0  0  0  0  0  0  0  0  0  0  0  0
   -3.2022    0.4269    0.5254 C   0  0  0  0  0  0  0  0  0  0  0  0
   -3.8575    0.6484   -0.7000 C   0  0  0  0  0  0  0  0  0  0  0  0
   -5.2226    0.9600   -0.7092 C   0  0  0  0  0  0  0  0  0  0  0  0
   -5.9114    1.1757   -1.9870 N   0  0  0  0  0  4  0  0  0  0  0  0
   -7.1461    1.2779   -1.9669 O   0  0  0  0  0  0  0  0  0  0  0  0
   -5.2150    1.2535   -3.0087 O   0  0  0  0  0  1  0  0  0  0  0  0
   -5.9383    1.0592    0.4867 C   0  0  0  0  0  0  0  0  0  0  0  0
   -5.2778    0.8567    1.7001 C   0  0  0  0  0  0  0  0  0  0  0  0
   -3.9029    0.5567    1.7430 C   0  0  0  0  0  0  0  0  0  0  0  0
   -3.2671    0.4196    3.1016 C   0  0  0  0  0  0  0  0  0  0  0  0
   -0.8336    0.6822   -0.2727 C   0  0  0  0  0  0  0  0  0  0  0  0
   -1.0101    1.8171   -0.9586 O   0  0  0  0  0  0  0  0  0  0  0  0
    3.7494    0.0720   -1.5564 C   0  0  0  0  0  0  0  0  0  0  0  0
    5.0904   -0.3047   -1.4010 C   0  0  0  0  0  0  0  0  0  0  0  0
    7.5031   -1.7310   -1.7925 H   0  0  0  0  0  0  0  0  0  0  0  0
    7.9028   -0.0587   -1.2366 H   0  0  0  0  0  0  0  0  0  0  0  0
    8.7284   -1.4615   -0.5471 H   0  0  0  0  0  0  0  0  0  0  0  0
    4.9624   -1.3366    1.8225 H   0  0  0  0  0  0  0  0  0  0  0  0
    2.6234   -0.6591    1.5592 H   0  0  0  0  0  0  0  0  0  0  0  0
    1.4081    1.0587   -1.4238 H   0  0  0  0  0  0  0  0  0  0  0  0
    0.7442   -1.9374    0.9780 H   0  0  0  0  0  0  0  0  0  0  0  0
   -1.4150   -2.6848    2.0190 H   0  0  0  0  0  0  0  0  0  0  0  0
   -3.3188    0.5252   -1.6398 H   0  0  0  0  0  0  0  0  0  0  0  0
   -7.0011    1.2937    0.4944 H   0  0  0  0  0  0  0  0  0  0  0  0
   -5.8446    0.9452    2.6268 H   0  0  0  0  0  0  0  0  0  0  0  0
   -2.2061    0.6852    3.0854 H   0  0  0  0  0  0  0  0  0  0  0  0
   -3.7396    1.1054    3.8144 H   0  0  0  0  0  0  0  0  0  0  0  0
   -3.3882   -0.5993    3.4799 H   0  0  0  0  0  0  0  0  0  0  0  0
   -1.8310    2.2467   -0.6619 H   0  0  0  0  0  0  0  0  0  0  0  0
    3.4233    0.4508   -2.5225 H   0  0  0  0  0  0  0  0  0  0  0  0
    5.7529   -0.1898   -2.2519 H   0  0  0  0  0  0  0  0  0  0  0  0
  1  2  1  0
  2  3  1  0
  3  4  2  0
  4  5  1  0
  5  6  2  0
  6  7  1  0
  7  8  1  0
  8  9  1  0
  9 10  2  0
 10 11  1  0
 10 12  1  0
 12 13  1  0
 13 14  2  0
 14 15  1  0
 15 16  1  0
 16 17  2  0
 16 18  1  0
 15 19  2  0
 19 20  1  0
 20 21  2  0
 21 22  1  0
 12 23  1  0
 23 24  1  0
  6 25  1  0
 25 26  2  0
 26  3  1  0
 23  8  2  0
 21 13  1  0
  1 27  1  0
  1 28  1  0
  1 29  1  0
  4 30  1  0
  5 31  1  0
  7 32  1  0
  9 33  1  0
 11 34  1  0
 14 35  1  0
 19 36  1  0
 20 37  1  0
 22 38  1  0
 22 39  1  0
 22 40  1  0
 24 41  1  0
 25 42  1  0
 26 43  1  0
M  CHG  2  16   1  18  -1
M  END
$$$$
