
     RDKit          3D

 41 44  0  0  0  0  0  0  0  0999 V2000
    1.2483    1.5131   -0.2643 O   0  0  0  0  0  0  0  0  0  0  0  0
    1.2227    0.5354    0.4785 C   0  0  0  0  0  0  0  0  0  0  0  0
    0.0122    0.2234    1.3760 C   0  0  0  0  0  0  0  0  0  0  0  0
   -1.2635    0.2455    0.6278 N   0  0  0  0  0  0  0  0  0  0  0  0
   -2.0394    1.4297    0.6525 C   0  0  0  0  0  0  0  0  0  0  0  0
   -1.5364    2.6847    1.0386 C   0  0  0  0  0  0  0  0  0  0  0  0
   -2.3453    3.8293    1.0606 C   0  0  0  0  0  0  0  0  0  0  0  0
   -3.6814    3.7528    0.6868 C   0  0  0  0  0  0  0  0  0  0  0  0
   -4.2045    2.5331    0.2744 C   0  0  0  0  0  0  0  0  0  0  0  0
   -3.3873    1.3917    0.2491 C   0  0  0  0  0  0  0  0  0  0  0  0
   -3.9652    0.1159   -0.2208 C   0  0  0  0  0  0  0  0  0  0  0  0
   -5.1583    0.0325   -0.4983 O   0  0  0  0  0  0  0  0  0  0  0  0
   -3.0760   -1.0555   -0.3644 C   0  0  0  0  0  0  0  0  0  0  0  0
   -3.5982   -2.2336   -0.9213 C   0  0  0  0  0  0  0  0  0  0  0  0
   -2.7823   -3.3468   -1.0829 C   0  0  0  0  0  0  0  0  0  0  0  0
   -1.4500   -3.2771   -0.6947 C   0  0  0  0  0  0  0  0  0  0  0  0
   -0.9354   -2.0996   -0.1343 C   0  0  0  0  0  0  0  0  0  0  0  0
   -1.7373   -0.9611    0.0606 C   0  0  0  0  0  0  0  0  0  0  0  0
    2.2620   -0.3701    0.6413 N   0  0  0  0  0  0  0  0  0  0  0  0
    3.5000   -0.3944   -0.0398 C   0  0  0  0  0  0  0  0  0  0  0  0
    3.8746    0.5015   -1.0406 C   0  0  0  0  0  0  0  0  0  0  0  0
    5.1281    0.3860   -1.6557 C   0  0  0  0  0  0  0  0  0  0  0  0
    6.0145   -0.6237   -1.2780 C   0  0  0  0  0  0  0  0  0  0  0  0
    5.6498   -1.5251   -0.2822 C   0  0  0  0  0  0  0  0  0  0  0  0
    4.4028   -1.4034    0.3235 C   0  0  0  0  0  0  0  0  0  0  0  0
    4.0572   -2.2792    1.2818 F   0  0  0  0  0  0  0  0  0  0  0  0
    0.1424   -0.7424    1.8800 H   0  0  0  0  0  0  0  0  0  0  0  0
    0.0215    0.9403    2.2061 H   0  0  0  0  0  0  0  0  0  0  0  0
   -0.4913    2.8224    1.3000 H   0  0  0  0  0  0  0  0  0  0  0  0
   -1.9194    4.7845    1.3592 H   0  0  0  0  0  0  0  0  0  0  0  0
   -4.3084    4.6402    0.7002 H   0  0  0  0  0  0  0  0  0  0  0  0
   -5.2450    2.4686   -0.0368 H   0  0  0  0  0  0  0  0  0  0  0  0
   -4.6397   -2.2764   -1.2337 H   0  0  0  0  0  0  0  0  0  0  0  0
   -3.1823   -4.2583   -1.5192 H   0  0  0  0  0  0  0  0  0  0  0  0
   -0.8007   -4.1385   -0.8348 H   0  0  0  0  0  0  0  0  0  0  0  0
    0.1184   -2.1062    0.1182 H   0  0  0  0  0  0  0  0  0  0  0  0
    2.1574   -1.1067    1.3321 H   0  0  0  0  0  0  0  0  0  0  0  0
    3.2178    1.2998   -1.3722 H   0  0  0  0  0  0  0  0  0  0  0  0
    5.4088    1.0908   -2.4358 H   0  0  0  0  0  0  0  0  0  0  0  0
    6.9848   -0.7052   -1.7617 H   0  0  0  0  0  0  0  0  0  0  0  0
    6.3241   -2.3180    0.0243 H   0  0  0  0  0  0  0  0  0  0  0  0
  1  2  2  0
  2  3  1  0
  3  4  1  0
  4  5  1  0
  5  6  2  0
  6  7  1  0
  7  8  2  0
  8  9  1  0
  9 10  2  0
 10 11  1  0
 11 12  2  0
 11 13  1  0
 13 14  2  0
 14 15  1  0
 15 16  2  0
 16 17  1  0
 17 18  2  0
  2 19  1  0
 19 20  1  0
 20 21  2  0
 21 22  1  0
 22 23  2  0
 23 24  1  0
 24 25  2  0
 25 26  1  0
 18  4  1  0
 25 20  1  0
 10  5  1  0
 18 13  1  0
  3 27  1  0
  3 28  1  0
  6 29  1  0
  7 30  1  0
  8 31  1  0
  9 32  1  0
 14 33  1  0
 15 34  1  0
 16 35  1  0
 17 36  1  0
 19 37  1  0
 21 38  1  0
 22 39  1  0
 23 40  1  0
 24 41  1  0
M  END
$$$$
