
     RDKit          3D

 53 55  0  0  0  0  0  0  0  0999 V2000
    5.4647    0.7196    0.7750 C   0  0  0  0  0  0  0  0  0  0  0  0
    4.8441    1.6757   -0.1663 C   0  0  0  0  0  0  0  0  0  0  0  0
    4.8602    2.9827    0.2215 O   0  0  0  0  0  0  0  0  0  0  0  0
    4.3108    3.7052   -0.7866 C   0  0  0  0  0  0  0  0  0  0  0  0
    3.9348    2.8796   -1.8179 C   0  0  0  0  0  0  0  0  0  0  0  0
    4.2382    1.5498   -1.4061 C   0  0  0  0  0  0  0  0  0  0  0  0
    4.0504    0.3269   -2.1680 C   0  0  0  0  0  0  0  0  0  0  0  0
    4.4709    0.2518   -3.3209 O   0  0  0  0  0  0  0  0  0  0  0  0
    3.3849   -0.7406   -1.5499 N   0  0  0  0  0  0  0  0  0  0  0  0
    3.3396   -1.9918   -2.2888 C   0  0  0  0  0  0  0  0  0  0  0  0
    2.4020   -0.5731   -0.4694 C   0  0  0  0  0  0  0  0  0  0  0  0
    0.9383   -0.5247   -0.9506 C   0  0  0  0  0  0  0  0  0  0  0  0
    0.6338    0.6953   -1.8220 C   0  0  0  0  0  0  0  0  0  0  0  0
   -0.8309    0.6974   -2.2705 C   0  0  0  0  0  0  0  0  0  0  0  0
   -1.7429   -0.1660   -1.3912 C   0  0  0  0  0  0  0  0  0  0  0  0
   -1.3621   -0.0236    0.0127 N   0  0  0  0  0  0  0  0  0  0  0  0
   -2.3378   -0.6072    0.9495 C   0  0  0  0  0  0  0  0  0  0  0  0
   -3.6327    0.2146    1.0662 C   0  0  0  0  0  0  0  0  0  0  0  0
   -4.5847   -0.3876    2.0705 C   0  0  0  0  0  0  0  0  0  0  0  0
   -5.6405   -1.2111    1.6561 C   0  0  0  0  0  0  0  0  0  0  0  0
   -6.5068   -1.7755    2.5964 C   0  0  0  0  0  0  0  0  0  0  0  0
   -6.3255   -1.5272    3.9574 C   0  0  0  0  0  0  0  0  0  0  0  0
   -5.2753   -0.7147    4.3798 C   0  0  0  0  0  0  0  0  0  0  0  0
   -4.4160   -0.1552    3.4388 C   0  0  0  0  0  0  0  0  0  0  0  0
   -3.4054    0.6156    3.8654 F   0  0  0  0  0  0  0  0  0  0  0  0
   -0.0109   -0.5550    0.2704 C   0  0  0  0  0  0  0  0  0  0  0  0
    4.7730    0.4847    1.5895 H   0  0  0  0  0  0  0  0  0  0  0  0
    6.3764    1.1414    1.2095 H   0  0  0  0  0  0  0  0  0  0  0  0
    5.7349   -0.2138    0.2725 H   0  0  0  0  0  0  0  0  0  0  0  0
    4.2705    4.7739   -0.6284 H   0  0  0  0  0  0  0  0  0  0  0  0
    3.4886    3.1847   -2.7543 H   0  0  0  0  0  0  0  0  0  0  0  0
    2.5144   -1.9575   -3.0058 H   0  0  0  0  0  0  0  0  0  0  0  0
    3.1992   -2.8242   -1.5934 H   0  0  0  0  0  0  0  0  0  0  0  0
    4.2737   -2.1492   -2.8370 H   0  0  0  0  0  0  0  0  0  0  0  0
    2.6084    0.3298    0.1086 H   0  0  0  0  0  0  0  0  0  0  0  0
    2.5413   -1.4202    0.2136 H   0  0  0  0  0  0  0  0  0  0  0  0
    0.7380   -1.4225   -1.5510 H   0  0  0  0  0  0  0  0  0  0  0  0
    1.2765    0.7261   -2.7082 H   0  0  0  0  0  0  0  0  0  0  0  0
    0.8373    1.6122   -1.2539 H   0  0  0  0  0  0  0  0  0  0  0  0
   -1.1922    1.7334   -2.2832 H   0  0  0  0  0  0  0  0  0  0  0  0
   -0.8980    0.3340   -3.3033 H   0  0  0  0  0  0  0  0  0  0  0  0
   -1.6917   -1.2174   -1.7033 H   0  0  0  0  0  0  0  0  0  0  0  0
   -2.7720    0.1616   -1.5705 H   0  0  0  0  0  0  0  0  0  0  0  0
   -1.8845   -0.6506    1.9495 H   0  0  0  0  0  0  0  0  0  0  0  0
   -2.5656   -1.6443    0.6687 H   0  0  0  0  0  0  0  0  0  0  0  0
   -3.4009    1.2456    1.3630 H   0  0  0  0  0  0  0  0  0  0  0  0
   -4.1430    0.2876    0.0993 H   0  0  0  0  0  0  0  0  0  0  0  0
   -5.7965   -1.4167    0.5992 H   0  0  0  0  0  0  0  0  0  0  0  0
   -7.3258   -2.4103    2.2658 H   0  0  0  0  0  0  0  0  0  0  0  0
   -7.0012   -1.9668    4.6866 H   0  0  0  0  0  0  0  0  0  0  0  0
   -5.1187   -0.5133    5.4347 H   0  0  0  0  0  0  0  0  0  0  0  0
    0.4179    0.0286    1.0947 H   0  0  0  0  0  0  0  0  0  0  0  0
   -0.0609   -1.5974    0.6146 H   0  0  0  0  0  0  0  0  0  0  0  0
  1  2  1  0
  2  3  1  0
  3  4  1  0
  4  5  2  0
  5  6  1  0
  6  7  1  0
  7  8  2  0
  7  9  1  0
  9 10  1  0
  9 11  1  0
 11 12  1  0
 12 13  1  0
 13 14  1  0
 14 15  1  0
 15 16  1  0
 16 17  1  0
 17 18  1  0
 18 19  1  0
 19 20  2  0
 20 21  1  0
 21 22  2  0
 22 23  1  0
 23 24  2  0
 24 25  1  0
 16 26  1  0
  6  2  2  0
 26 12  1  0
 24 19  1  0
  1 27  1  0
  1 28  1  0
  1 29  1  0
  4 30  1  0
  5 31  1  0
 10 32  1  0
 10 33  1  0
 10 34  1  0
 11 35  1  0
 11 36  1  0
 12 37  1  0
 13 38  1  0
 13 39  1  0
 14 40  1  0
 14 41  1  0
 15 42  1  0
 15 43  1  0
 17 44  1  0
 17 45  1  0
 18 46  1  0
 18 47  1  0
 20 48  1  0
 21 49  1  0
 22 50  1  0
 23 51  1  0
 26 52  1  0
 26 53  1  0
M  END
$$$$
