
     RDKit          3D

 53 55  0  0  0  0  0  0  0  0999 V2000
   -2.0718   -0.2454    1.2717 O   0  0  0  0  0  0  0  0  0  0  0  0
   -1.6751   -0.5088    0.1428 C   0  0  0  0  0  0  0  0  0  0  0  0
   -2.5035   -0.5581   -0.9544 N   0  0  0  0  0  0  0  0  0  0  0  0
   -3.9612   -0.4142   -0.8192 C   0  0  0  0  0  0  0  0  0  0  0  0
   -4.3605    1.0549   -0.6096 C   0  0  0  0  0  0  0  0  0  0  0  0
   -5.5906    1.2061    0.2554 C   0  0  0  0  0  0  0  0  0  0  0  0
   -5.4776    1.1307    1.6511 C   0  0  0  0  0  0  0  0  0  0  0  0
   -6.6072    1.2565    2.4604 C   0  0  0  0  0  0  0  0  0  0  0  0
   -7.8597    1.4552    1.8831 C   0  0  0  0  0  0  0  0  0  0  0  0
   -7.9833    1.5262    0.4966 C   0  0  0  0  0  0  0  0  0  0  0  0
   -6.8544    1.4015   -0.3149 C   0  0  0  0  0  0  0  0  0  0  0  0
   -4.6358   -0.9680   -2.0817 C   0  0  0  0  0  0  0  0  0  0  0  0
   -5.8263   -0.9699   -2.3475 O   0  0  0  0  0  0  0  0  0  0  0  0
   -3.7599   -1.5140   -2.9642 O   0  0  0  0  0  0  0  0  0  0  0  0
   -0.2400   -0.8267   -0.0945 C   0  0  0  0  0  0  0  0  0  0  0  0
    0.3743   -0.6018   -1.3357 C   0  0  0  0  0  0  0  0  0  0  0  0
    1.7270   -0.9058   -1.5136 C   0  0  0  0  0  0  0  0  0  0  0  0
    2.4622   -1.4253   -0.4442 C   0  0  0  0  0  0  0  0  0  0  0  0
    4.1829   -1.8190   -0.6503 S   0  0  0  0  0  6  0  0  0  0  0  0
    4.3712   -3.1599   -0.1396 O   0  0  0  0  0  0  0  0  0  0  0  0
    4.5725   -1.4675   -1.9999 O   0  0  0  0  0  0  0  0  0  0  0  0
    4.9541   -0.7205    0.4078 N   0  0  0  0  0  0  0  0  0  0  0  0
    4.7219    0.7225    0.1157 C   0  0  0  0  0  0  0  0  0  0  0  0
    5.6255    1.5913    0.9820 C   0  0  0  0  0  0  0  0  0  0  0  0
    7.1000    1.3433    0.6719 C   0  0  0  0  0  0  0  0  0  0  0  0
    7.3496   -0.0651    0.1379 C   0  0  0  0  0  0  0  0  0  0  0  0
    6.3706   -1.0708    0.7279 C   0  0  0  0  0  0  0  0  0  0  0  0
    1.8616   -1.6498    0.7980 C   0  0  0  0  0  0  0  0  0  0  0  0
    0.5113   -1.3413    0.9724 C   0  0  0  0  0  0  0  0  0  0  0  0
   -2.1915   -1.0274   -1.7991 H   0  0  0  0  0  0  0  0  0  0  0  0
   -4.2643   -1.0534    0.0189 H   0  0  0  0  0  0  0  0  0  0  0  0
   -3.5496    1.6193   -0.1304 H   0  0  0  0  0  0  0  0  0  0  0  0
   -4.5232    1.5558   -1.5733 H   0  0  0  0  0  0  0  0  0  0  0  0
   -4.5046    0.9703    2.1146 H   0  0  0  0  0  0  0  0  0  0  0  0
   -6.5082    1.1969    3.5409 H   0  0  0  0  0  0  0  0  0  0  0  0
   -8.7397    1.5510    2.5133 H   0  0  0  0  0  0  0  0  0  0  0  0
   -8.9608    1.6743    0.0452 H   0  0  0  0  0  0  0  0  0  0  0  0
   -6.9722    1.4486   -1.3954 H   0  0  0  0  0  0  0  0  0  0  0  0
   -4.3437   -1.8372   -3.6852 H   0  0  0  0  0  0  0  0  0  0  0  0
   -0.1784   -0.1697   -2.1658 H   0  0  0  0  0  0  0  0  0  0  0  0
    2.1972   -0.7311   -2.4793 H   0  0  0  0  0  0  0  0  0  0  0  0
    3.6807    0.9699    0.3464 H   0  0  0  0  0  0  0  0  0  0  0  0
    4.9007    0.9385   -0.9435 H   0  0  0  0  0  0  0  0  0  0  0  0
    5.4368    1.3698    2.0404 H   0  0  0  0  0  0  0  0  0  0  0  0
    5.3909    2.6516    0.8358 H   0  0  0  0  0  0  0  0  0  0  0  0
    7.4574    2.0715   -0.0660 H   0  0  0  0  0  0  0  0  0  0  0  0
    7.6886    1.5117    1.5817 H   0  0  0  0  0  0  0  0  0  0  0  0
    8.3808   -0.3639    0.3575 H   0  0  0  0  0  0  0  0  0  0  0  0
    7.2505   -0.0608   -0.9552 H   0  0  0  0  0  0  0  0  0  0  0  0
    6.6261   -2.0717    0.3648 H   0  0  0  0  0  0  0  0  0  0  0  0
    6.4677   -1.1044    1.8197 H   0  0  0  0  0  0  0  0  0  0  0  0
    2.4387   -2.0581    1.6254 H   0  0  0  0  0  0  0  0  0  0  0  0
    0.0420   -1.5076    1.9408 H   0  0  0  0  0  0  0  0  0  0  0  0
  1  2  2  0
  2  3  1  0
  3  4  1  0
  4  5  1  0
  5  6  1  0
  6  7  2  0
  7  8  1  0
  8  9  2  0
  9 10  1  0
 10 11  2  0
  4 12  1  0
 12 13  2  0
 12 14  1  0
  2 15  1  0
 15 16  2  0
 16 17  1  0
 17 18  2  0
 18 19  1  0
 19 20  2  0
 19 21  2  0
 19 22  1  0
 22 23  1  0
 23 24  1  0
 24 25  1  0
 25 26  1  0
 26 27  1  0
 18 28  1  0
 28 29  2  0
 11  6  1  0
 29 15  1  0
 27 22  1  0
  3 30  1  0
  4 31  1  0
  5 32  1  0
  5 33  1  0
  7 34  1  0
  8 35  1  0
  9 36  1  0
 10 37  1  0
 11 38  1  0
 14 39  1  0
 16 40  1  0
 17 41  1  0
 23 42  1  0
 23 43  1  0
 24 44  1  0
 24 45  1  0
 25 46  1  0
 25 47  1  0
 26 48  1  0
 26 49  1  0
 27 50  1  0
 27 51  1  0
 28 52  1  0
 29 53  1  0
M  END
$$$$
