
     RDKit          3D

 41 44  0  0  0  0  0  0  0  0999 V2000
    0.8873    2.5984    0.9841 O   0  0  0  0  0  0  0  0  0  0  0  0
    0.8570    2.0523   -0.1056 C   0  0  0  0  0  0  0  0  0  0  0  0
    1.4311    2.6496   -1.1798 O   0  0  0  0  0  0  0  0  0  0  0  0
    0.2637    0.6869   -0.4376 C   0  0  0  0  0  0  0  0  0  0  0  0
    1.3223   -0.4074   -0.2542 C   0  0  0  0  0  0  0  0  0  0  0  0
    1.6230   -0.7194    1.1782 C   0  0  0  0  0  0  0  0  0  0  0  0
    0.8297   -1.4553    2.0377 C   0  0  0  0  0  0  0  0  0  0  0  0
    1.4515   -1.5096    3.2563 N   0  0  0  0  0  0  0  0  0  0  0  0
    2.6483   -0.8352    3.2106 C   0  0  0  0  0  0  0  0  0  0  0  0
    3.6091   -0.6383    4.2098 C   0  0  0  0  0  0  0  0  0  0  0  0
    4.7463    0.1033    3.8786 C   0  0  0  0  0  0  0  0  0  0  0  0
    4.9128    0.6262    2.5990 C   0  0  0  0  0  0  0  0  0  0  0  0
    3.9419    0.4198    1.6119 C   0  0  0  0  0  0  0  0  0  0  0  0
    2.7845   -0.3258    1.9191 C   0  0  0  0  0  0  0  0  0  0  0  0
   -0.1835    0.6634   -1.8711 N   0  0  0  0  0  0  0  0  0  0  0  0
   -1.6515    1.4375   -2.2114 S   0  0  0  0  0  6  0  0  0  0  0  0
   -1.8949    2.3687   -1.1353 O   0  0  0  0  0  0  0  0  0  0  0  0
   -1.5417    1.8403   -3.5948 O   0  0  0  0  0  0  0  0  0  0  0  0
   -2.8365    0.1492   -2.1359 C   0  0  0  0  0  0  0  0  0  0  0  0
   -2.4706   -1.2124   -2.0449 C   0  0  0  0  0  0  0  0  0  0  0  0
   -3.4188   -2.2602   -1.9778 C   0  0  0  0  0  0  0  0  0  0  0  0
   -4.8058   -2.0390   -1.9993 C   0  0  0  0  0  0  0  0  0  0  0  0
   -5.2250   -0.6905   -2.1007 C   0  0  0  0  0  0  0  0  0  0  0  0
   -6.4990   -0.2735   -2.1419 N   0  0  0  0  0  0  0  0  0  0  0  0
   -6.4484    1.3806   -2.2685 S   0  0  0  0  0  0  0  0  0  0  0  0
   -4.8109    1.6380   -2.2753 N   0  0  0  0  0  0  0  0  0  0  0  0
   -4.2204    0.4364   -2.1737 C   0  0  0  0  0  0  0  0  0  0  0  0
    1.7024    3.5252   -0.8268 H   0  0  0  0  0  0  0  0  0  0  0  0
   -0.6009    0.5013    0.2099 H   0  0  0  0  0  0  0  0  0  0  0  0
    0.9759   -1.3333   -0.7338 H   0  0  0  0  0  0  0  0  0  0  0  0
    2.2466   -0.1325   -0.7786 H   0  0  0  0  0  0  0  0  0  0  0  0
   -0.1259   -1.9410    1.8906 H   0  0  0  0  0  0  0  0  0  0  0  0
    1.0907   -1.9766    4.0767 H   0  0  0  0  0  0  0  0  0  0  0  0
    3.4807   -1.0412    5.2090 H   0  0  0  0  0  0  0  0  0  0  0  0
    5.5100    0.2767    4.6332 H   0  0  0  0  0  0  0  0  0  0  0  0
    5.8034    1.2033    2.3634 H   0  0  0  0  0  0  0  0  0  0  0  0
    4.0858    0.8374    0.6204 H   0  0  0  0  0  0  0  0  0  0  0  0
    0.5263    1.0251   -2.5182 H   0  0  0  0  0  0  0  0  0  0  0  0
   -1.4168   -1.4900   -2.0371 H   0  0  0  0  0  0  0  0  0  0  0  0
   -3.0575   -3.2876   -1.9113 H   0  0  0  0  0  0  0  0  0  0  0  0
   -5.5221   -2.8508   -1.9489 H   0  0  0  0  0  0  0  0  0  0  0  0
  1  2  2  0
  2  3  1  0
  2  4  1  0
  4  5  1  0
  5  6  1  0
  6  7  2  0
  7  8  1  0
  8  9  1  0
  9 10  2  0
 10 11  1  0
 11 12  2  0
 12 13  1  0
 13 14  2  0
  4 15  1  0
 15 16  1  0
 16 17  2  0
 16 18  2  0
 16 19  1  0
 19 20  2  0
 20 21  1  0
 21 22  2  0
 22 23  1  0
 23 24  2  0
 24 25  1  0
 25 26  1  0
 26 27  2  0
 14  6  1  0
 27 19  1  0
 14  9  1  0
 27 23  1  0
  3 28  1  0
  4 29  1  0
  5 30  1  0
  5 31  1  0
  7 32  1  0
  8 33  1  0
 10 34  1  0
 11 35  1  0
 12 36  1  0
 13 37  1  0
 15 38  1  0
 20 39  1  0
 21 40  1  0
 22 41  1  0
M  END
$$$$
