
     RDKit          3D

 58 61  0  0  0  0  0  0  0  0999 V2000
    1.5936   -2.2710    0.6511 O   0  0  0  0  0  0  0  0  0  0  0  0
    1.7248   -1.0952    0.9825 C   0  0  0  0  0  0  0  0  0  0  0  0
    3.0011   -0.2930    0.8268 C   0  0  0  0  0  0  0  0  0  0  0  0
    4.1289   -1.1167    0.2035 C   0  0  0  0  0  0  0  0  0  0  0  0
    5.4001   -0.2906   -0.0649 C   0  0  0  0  0  0  0  0  0  0  0  0
    5.9978    0.2944    1.2303 C   0  0  0  0  0  0  0  0  0  0  0  0
    7.4999    0.5800    1.1451 C   0  0  0  0  0  0  0  0  0  0  0  0
    7.9446    0.8786   -0.2785 C   0  0  0  0  0  0  0  0  0  0  0  0
    7.6636   -0.2960   -1.2163 C   0  0  0  0  0  0  0  0  0  0  0  0
    6.4468   -1.1305   -0.8074 C   0  0  0  0  0  0  0  0  0  0  0  0
    0.6981   -0.3628    1.5541 N   0  0  0  0  0  0  0  0  0  0  0  0
   -0.5982   -0.9319    1.4661 N   0  0  0  0  0  0  0  0  0  0  0  0
   -1.5613   -0.1233    0.8884 C   0  0  0  0  0  0  0  0  0  0  0  0
   -1.3622    1.0584    0.6315 O   0  0  0  0  0  0  0  0  0  0  0  0
   -2.7276   -0.8118    0.6661 N   0  0  0  0  0  0  0  0  0  0  0  0
   -3.9542   -0.2006    0.1424 C   0  0  0  0  0  0  0  0  0  0  0  0
   -5.0246   -1.3153   -0.0094 C   0  0  0  0  0  0  0  0  0  0  0  0
   -6.3457   -0.7426   -0.5470 C   0  0  0  0  0  0  0  0  0  0  0  0
   -6.8642    0.3281    0.4261 C   0  0  0  0  0  0  0  0  0  0  0  0
   -5.8295    1.4560    0.5665 C   0  0  0  0  0  0  0  0  0  0  0  0
   -5.5755    2.0857   -0.8136 C   0  0  0  0  0  0  0  0  0  0  0  0
   -5.0554    1.0206   -1.7941 C   0  0  0  0  0  0  0  0  0  0  0  0
   -6.0953   -0.1033   -1.9214 C   0  0  0  0  0  0  0  0  0  0  0  0
   -3.7377    0.4363   -1.2545 C   0  0  0  0  0  0  0  0  0  0  0  0
   -4.5122    0.8735    1.1083 C   0  0  0  0  0  0  0  0  0  0  0  0
    3.2935    0.0684    1.8191 H   0  0  0  0  0  0  0  0  0  0  0  0
    2.7822    0.5753    0.1939 H   0  0  0  0  0  0  0  0  0  0  0  0
    3.7759   -1.5453   -0.7438 H   0  0  0  0  0  0  0  0  0  0  0  0
    4.3661   -1.9674    0.8554 H   0  0  0  0  0  0  0  0  0  0  0  0
    5.1210    0.5466   -0.7206 H   0  0  0  0  0  0  0  0  0  0  0  0
    5.8244   -0.3786    2.0789 H   0  0  0  0  0  0  0  0  0  0  0  0
    5.4704    1.2269    1.4678 H   0  0  0  0  0  0  0  0  0  0  0  0
    7.7525    1.4172    1.8059 H   0  0  0  0  0  0  0  0  0  0  0  0
    8.0549   -0.2898    1.5190 H   0  0  0  0  0  0  0  0  0  0  0  0
    7.4164    1.7694   -0.6413 H   0  0  0  0  0  0  0  0  0  0  0  0
    9.0133    1.1197   -0.3011 H   0  0  0  0  0  0  0  0  0  0  0  0
    8.5400   -0.9533   -1.2617 H   0  0  0  0  0  0  0  0  0  0  0  0
    7.5218    0.0934   -2.2318 H   0  0  0  0  0  0  0  0  0  0  0  0
    6.0135   -1.5933   -1.7025 H   0  0  0  0  0  0  0  0  0  0  0  0
    6.7758   -1.9553   -0.1613 H   0  0  0  0  0  0  0  0  0  0  0  0
    0.7057    0.6545    1.4611 H   0  0  0  0  0  0  0  0  0  0  0  0
   -0.5829   -1.8981    1.1392 H   0  0  0  0  0  0  0  0  0  0  0  0
   -2.8562   -1.5873    1.3013 H   0  0  0  0  0  0  0  0  0  0  0  0
   -5.2025   -1.8027    0.9587 H   0  0  0  0  0  0  0  0  0  0  0  0
   -4.6582   -2.1007   -0.6841 H   0  0  0  0  0  0  0  0  0  0  0  0
   -7.0856   -1.5452   -0.6420 H   0  0  0  0  0  0  0  0  0  0  0  0
   -7.0643   -0.1213    1.4065 H   0  0  0  0  0  0  0  0  0  0  0  0
   -7.8154    0.7359    0.0626 H   0  0  0  0  0  0  0  0  0  0  0  0
   -6.2066    2.2185    1.2571 H   0  0  0  0  0  0  0  0  0  0  0  0
   -4.8475    2.9015   -0.7251 H   0  0  0  0  0  0  0  0  0  0  0  0
   -6.5027    2.5272   -1.1992 H   0  0  0  0  0  0  0  0  0  0  0  0
   -4.8821    1.4755   -2.7758 H   0  0  0  0  0  0  0  0  0  0  0  0
   -5.7421   -0.8625   -2.6300 H   0  0  0  0  0  0  0  0  0  0  0  0
   -7.0332    0.2974   -2.3254 H   0  0  0  0  0  0  0  0  0  0  0  0
   -3.3466   -0.3138   -1.9543 H   0  0  0  0  0  0  0  0  0  0  0  0
   -2.9895    1.2359   -1.2131 H   0  0  0  0  0  0  0  0  0  0  0  0
   -4.6777    0.4375    2.1022 H   0  0  0  0  0  0  0  0  0  0  0  0
   -3.7898    1.6868    1.2469 H   0  0  0  0  0  0  0  0  0  0  0  0
  1  2  2  0
  2  3  1  0
  3  4  1  0
  4  5  1  0
  5  6  1  0
  6  7  1  0
  7  8  1  0
  8  9  1  0
  9 10  1  0
  2 11  1  0
 11 12  1  0
 12 13  1  0
 13 14  2  0
 13 15  1  0
 15 16  1  0
 16 17  1  0
 17 18  1  0
 18 19  1  0
 19 20  1  0
 20 21  1  0
 21 22  1  0
 22 23  1  0
 22 24  1  0
 20 25  1  0
 10  5  1  0
 24 16  1  0
 25 16  1  0
 23 18  1  0
  3 26  1  0
  3 27  1  0
  4 28  1  0
  4 29  1  0
  5 30  1  0
  6 31  1  0
  6 32  1  0
  7 33  1  0
  7 34  1  0
  8 35  1  0
  8 36  1  0
  9 37  1  0
  9 38  1  0
 10 39  1  0
 10 40  1  0
 11 41  1  0
 12 42  1  0
 15 43  1  0
 17 44  1  0
 17 45  1  0
 18 46  1  0
 19 47  1  0
 19 48  1  0
 20 49  1  0
 21 50  1  0
 21 51  1  0
 22 52  1  0
 23 53  1  0
 23 54  1  0
 24 55  1  0
 24 56  1  0
 25 57  1  0
 25 58  1  0
M  END
$$$$
