
     RDKit          3D

 58 61  0  0  0  0  0  0  0  0999 V2000
   -0.5597   -3.8882    1.3606 O   0  0  0  0  0  0  0  0  0  0  0  0
   -0.5841   -2.6845    1.1154 C   0  0  0  0  0  0  0  0  0  0  0  0
    0.6563   -1.8166    1.3838 C   0  0  0  0  0  0  0  0  0  0  0  0
    0.6653   -0.5783    0.5718 N   0  0  0  0  0  0  0  0  0  0  0  0
    1.6370    0.4035    1.1011 C   0  0  0  0  0  0  0  0  0  0  0  0
    3.1195    0.0459    0.8660 C   0  0  0  0  0  0  0  0  0  0  0  0
    3.4211   -0.2459   -0.5683 N   0  0  0  0  0  0  0  0  0  0  0  0
    3.7732    1.0898   -1.5710 S   0  0  0  0  0  6  0  0  0  0  0  0
    4.0143    0.5807   -2.9067 O   0  0  0  0  0  0  0  0  0  0  0  0
    2.7756    2.1109   -1.3505 O   0  0  0  0  0  0  0  0  0  0  0  0
    5.3358    1.6366   -0.9551 C   0  0  0  0  0  0  0  0  0  0  0  0
    6.5060    1.0296   -1.4305 C   0  0  0  0  0  0  0  0  0  0  0  0
    7.7508    1.4795   -0.9865 C   0  0  0  0  0  0  0  0  0  0  0  0
    7.8276    2.5369   -0.0788 C   0  0  0  0  0  0  0  0  0  0  0  0
    6.6591    3.1442    0.3846 C   0  0  0  0  0  0  0  0  0  0  0  0
    5.4166    2.6946   -0.0588 C   0  0  0  0  0  0  0  0  0  0  0  0
    4.3219    3.2841    0.4378 F   0  0  0  0  0  0  0  0  0  0  0  0
    2.4459   -1.2237   -1.1426 C   0  0  0  0  0  0  0  0  0  0  0  0
    0.9837   -0.8295   -0.8564 C   0  0  0  0  0  0  0  0  0  0  0  0
   -1.6679   -1.9604    0.6601 N   0  0  0  0  0  0  0  0  0  0  0  0
   -2.9632   -2.4150    0.3225 C   0  0  0  0  0  0  0  0  0  0  0  0
   -3.3549   -3.7491    0.4807 C   0  0  0  0  0  0  0  0  0  0  0  0
   -4.6392   -4.1709    0.1184 C   0  0  0  0  0  0  0  0  0  0  0  0
   -5.5535   -3.2671   -0.4128 C   0  0  0  0  0  0  0  0  0  0  0  0
   -5.1904   -1.9322   -0.5703 C   0  0  0  0  0  0  0  0  0  0  0  0
   -3.9097   -1.4992   -0.1860 C   0  0  0  0  0  0  0  0  0  0  0  0
   -3.5608   -0.0648   -0.3551 C   0  0  0  0  0  0  0  0  0  0  0  0
   -2.4570    0.2306   -0.8063 O   0  0  0  0  0  0  0  0  0  0  0  0
   -4.5069    1.0158    0.0275 C   0  0  0  0  0  0  0  0  0  0  0  0
   -5.4194    0.8609    1.0786 C   0  0  0  0  0  0  0  0  0  0  0  0
   -6.2825    1.9071    1.4117 C   0  0  0  0  0  0  0  0  0  0  0  0
   -6.2290    3.1102    0.7071 C   0  0  0  0  0  0  0  0  0  0  0  0
   -5.3084    3.2745   -0.3270 C   0  0  0  0  0  0  0  0  0  0  0  0
   -4.4435    2.2319   -0.6632 C   0  0  0  0  0  0  0  0  0  0  0  0
    1.5516   -2.4258    1.2259 H   0  0  0  0  0  0  0  0  0  0  0  0
    0.6040   -1.5621    2.4498 H   0  0  0  0  0  0  0  0  0  0  0  0
    1.4679    0.5517    2.1751 H   0  0  0  0  0  0  0  0  0  0  0  0
    1.4153    1.3747    0.6444 H   0  0  0  0  0  0  0  0  0  0  0  0
    3.3879   -0.8446    1.4477 H   0  0  0  0  0  0  0  0  0  0  0  0
    3.7581    0.8469    1.2455 H   0  0  0  0  0  0  0  0  0  0  0  0
    6.4530    0.2111   -2.1463 H   0  0  0  0  0  0  0  0  0  0  0  0
    8.6608    1.0084   -1.3533 H   0  0  0  0  0  0  0  0  0  0  0  0
    8.7972    2.8896    0.2653 H   0  0  0  0  0  0  0  0  0  0  0  0
    6.7085    3.9671    1.0921 H   0  0  0  0  0  0  0  0  0  0  0  0
    2.5943   -1.3337   -2.2220 H   0  0  0  0  0  0  0  0  0  0  0  0
    2.6709   -2.2090   -0.7170 H   0  0  0  0  0  0  0  0  0  0  0  0
    0.3205   -1.5998   -1.2669 H   0  0  0  0  0  0  0  0  0  0  0  0
    0.7463    0.0845   -1.4157 H   0  0  0  0  0  0  0  0  0  0  0  0
   -1.4456   -0.9868    0.4200 H   0  0  0  0  0  0  0  0  0  0  0  0
   -2.6775   -4.4978    0.8801 H   0  0  0  0  0  0  0  0  0  0  0  0
   -4.9157   -5.2156    0.2442 H   0  0  0  0  0  0  0  0  0  0  0  0
   -6.5440   -3.6040   -0.7084 H   0  0  0  0  0  0  0  0  0  0  0  0
   -5.9075   -1.2396   -1.0047 H   0  0  0  0  0  0  0  0  0  0  0  0
   -5.4600   -0.0572    1.6592 H   0  0  0  0  0  0  0  0  0  0  0  0
   -6.9909    1.7887    2.2280 H   0  0  0  0  0  0  0  0  0  0  0  0
   -6.8983    3.9253    0.9717 H   0  0  0  0  0  0  0  0  0  0  0  0
   -5.2578    4.2165   -0.8678 H   0  0  0  0  0  0  0  0  0  0  0  0
   -3.7189    2.3697   -1.4636 H   0  0  0  0  0  0  0  0  0  0  0  0
  1  2  2  0
  2  3  1  0
  3  4  1  0
  4  5  1  0
  5  6  1  0
  6  7  1  0
  7  8  1  0
  8  9  2  0
  8 10  2  0
  8 11  1  0
 11 12  2  0
 12 13  1  0
 13 14  2  0
 14 15  1  0
 15 16  2  0
 16 17  1  0
  7 18  1  0
 18 19  1  0
  2 20  1  0
 20 21  1  0
 21 22  2  0
 22 23  1  0
 23 24  2  0
 24 25  1  0
 25 26  2  0
 26 27  1  0
 27 28  2  0
 27 29  1  0
 29 30  2  0
 30 31  1  0
 31 32  2  0
 32 33  1  0
 33 34  2  0
 19  4  1  0
 26 21  1  0
 34 29  1  0
 16 11  1  0
  3 35  1  0
  3 36  1  0
  5 37  1  0
  5 38  1  0
  6 39  1  0
  6 40  1  0
 12 41  1  0
 13 42  1  0
 14 43  1  0
 15 44  1  0
 18 45  1  0
 18 46  1  0
 19 47  1  0
 19 48  1  0
 20 49  1  0
 22 50  1  0
 23 51  1  0
 24 52  1  0
 25 53  1  0
 30 54  1  0
 31 55  1  0
 32 56  1  0
 33 57  1  0
 34 58  1  0
M  END
$$$$
