
     RDKit          3D

 58 62  0  0  0  0  0  0  0  0999 V2000
   -5.0781   -3.7815   -2.4319 C   0  0  0  0  0  0  0  0  0  0  0  0
   -3.9713   -3.8300   -1.5403 O   0  0  0  0  0  0  0  0  0  0  0  0
   -3.3264   -2.6504   -1.2923 C   0  0  0  0  0  0  0  0  0  0  0  0
   -3.5648   -1.4356   -1.9361 C   0  0  0  0  0  0  0  0  0  0  0  0
   -2.8391   -0.2947   -1.5752 C   0  0  0  0  0  0  0  0  0  0  0  0
   -1.8770   -0.3592   -0.5594 C   0  0  0  0  0  0  0  0  0  0  0  0
   -1.1366    0.8804   -0.1817 C   0  0  0  0  0  0  0  0  0  0  0  0
   -0.8625    1.7373   -1.1067 N   0  0  0  0  0  0  0  0  0  0  0  0
   -0.0880    2.9208   -0.7482 C   0  0  0  0  0  0  0  0  0  0  0  0
    1.3531    2.5199   -0.4425 C   0  0  0  0  0  0  0  0  0  0  0  0
    2.2563    2.7379   -1.2594 O   0  0  0  0  0  0  0  0  0  0  0  0
    1.6137    1.9498    0.8085 N   0  0  0  0  0  0  0  0  0  0  0  0
    3.0304    1.8107    1.1641 C   0  0  0  0  0  0  0  0  0  0  0  0
    3.5741    0.5106    0.5713 C   0  0  0  0  0  0  0  0  0  0  0  0
    3.5515   -0.5575    1.1752 O   0  0  0  0  0  0  0  0  0  0  0  0
    4.0340    0.6403   -0.7220 N   0  0  0  0  0  0  0  0  0  0  0  0
    4.3859   -0.5319   -1.4873 C   0  0  0  0  0  0  0  0  0  0  0  0
    4.9982   -0.1146   -2.7705 C   0  0  0  0  0  0  0  0  0  0  0  0
    4.5491    0.6418   -3.8357 C   0  0  0  0  0  0  0  0  0  0  0  0
    5.6015    0.6683   -4.7804 C   0  0  0  0  0  0  0  0  0  0  0  0
    6.6238   -0.0733   -4.2353 C   0  0  0  0  0  0  0  0  0  0  0  0
    6.2664   -0.5543   -3.0180 O   0  0  0  0  0  0  0  0  0  0  0  0
    0.5478    1.4772    1.5867 C   0  0  0  0  0  0  0  0  0  0  0  0
    0.7898    1.3616    3.2749 S   0  0  0  0  0  0  0  0  0  0  0  0
   -0.8205    0.9507    3.5458 C   0  0  0  0  0  0  0  0  0  0  0  0
   -1.5510    0.8397    2.3841 C   0  0  0  0  0  0  0  0  0  0  0  0
   -0.7282    1.0638    1.2146 C   0  0  0  0  0  0  0  0  0  0  0  0
   -3.0191    0.5445    2.4826 C   0  0  0  0  0  0  0  0  0  0  0  0
   -3.3623   -0.4198    3.6331 C   0  0  0  0  0  0  0  0  0  0  0  0
   -2.3630   -0.4820    4.8076 C   0  0  0  0  0  0  0  0  0  0  0  0
   -1.4001    0.7074    4.8992 C   0  0  0  0  0  0  0  0  0  0  0  0
   -1.6129   -1.5844    0.0626 C   0  0  0  0  0  0  0  0  0  0  0  0
   -2.3401   -2.7201   -0.3037 C   0  0  0  0  0  0  0  0  0  0  0  0
   -5.8409   -3.0784   -2.0821 H   0  0  0  0  0  0  0  0  0  0  0  0
   -4.7535   -3.5381   -3.4474 H   0  0  0  0  0  0  0  0  0  0  0  0
   -5.5299   -4.7761   -2.4561 H   0  0  0  0  0  0  0  0  0  0  0  0
   -4.3027   -1.3405   -2.7260 H   0  0  0  0  0  0  0  0  0  0  0  0
   -3.0329    0.6463   -2.0865 H   0  0  0  0  0  0  0  0  0  0  0  0
   -0.0696    3.5986   -1.6095 H   0  0  0  0  0  0  0  0  0  0  0  0
   -0.5290    3.4941    0.0757 H   0  0  0  0  0  0  0  0  0  0  0  0
    3.6005    2.6595    0.7659 H   0  0  0  0  0  0  0  0  0  0  0  0
    3.2030    1.8112    2.2433 H   0  0  0  0  0  0  0  0  0  0  0  0
    3.6848    1.4495   -1.2378 H   0  0  0  0  0  0  0  0  0  0  0  0
    5.0656   -1.1550   -0.8973 H   0  0  0  0  0  0  0  0  0  0  0  0
    3.4723   -1.1056   -1.6712 H   0  0  0  0  0  0  0  0  0  0  0  0
    3.5781    1.1161   -3.9146 H   0  0  0  0  0  0  0  0  0  0  0  0
    5.6160    1.1655   -5.7394 H   0  0  0  0  0  0  0  0  0  0  0  0
    7.6154   -0.3411   -4.5692 H   0  0  0  0  0  0  0  0  0  0  0  0
   -3.5319    1.4983    2.6619 H   0  0  0  0  0  0  0  0  0  0  0  0
   -3.4358    0.1559    1.5520 H   0  0  0  0  0  0  0  0  0  0  0  0
   -3.4638   -1.4334    3.2253 H   0  0  0  0  0  0  0  0  0  0  0  0
   -4.3566   -0.1613    4.0157 H   0  0  0  0  0  0  0  0  0  0  0  0
   -2.9080   -0.5945    5.7515 H   0  0  0  0  0  0  0  0  0  0  0  0
   -1.7676   -1.3977    4.6929 H   0  0  0  0  0  0  0  0  0  0  0  0
   -1.9423    1.6017    5.2280 H   0  0  0  0  0  0  0  0  0  0  0  0
   -0.6253    0.4964    5.6444 H   0  0  0  0  0  0  0  0  0  0  0  0
   -0.8441   -1.6751    0.8266 H   0  0  0  0  0  0  0  0  0  0  0  0
   -2.1366   -3.6699    0.1867 H   0  0  0  0  0  0  0  0  0  0  0  0
  1  2  1  0
  2  3  1  0
  3  4  2  0
  4  5  1  0
  5  6  2  0
  6  7  1  0
  7  8  2  0
  8  9  1  0
  9 10  1  0
 10 11  2  0
 10 12  1  0
 12 13  1  0
 13 14  1  0
 14 15  2  0
 14 16  1  0
 16 17  1  0
 17 18  1  0
 18 19  2  0
 19 20  1  0
 20 21  2  0
 21 22  1  0
 12 23  1  0
 23 24  1  0
 24 25  1  0
 25 26  2  0
 26 27  1  0
 26 28  1  0
 28 29  1  0
 29 30  1  0
 30 31  1  0
  6 32  1  0
 32 33  2  0
 33  3  1  0
 27  7  1  0
 22 18  1  0
 27 23  2  0
 31 25  1  0
  1 34  1  0
  1 35  1  0
  1 36  1  0
  4 37  1  0
  5 38  1  0
  9 39  1  0
  9 40  1  0
 13 41  1  0
 13 42  1  0
 16 43  1  0
 17 44  1  0
 17 45  1  0
 19 46  1  0
 20 47  1  0
 21 48  1  0
 28 49  1  0
 28 50  1  0
 29 51  1  0
 29 52  1  0
 30 53  1  0
 30 54  1  0
 31 55  1  0
 31 56  1  0
 32 57  1  0
 33 58  1  0
M  END
$$$$
