
     RDKit          3D

 44 47  0  0  0  0  0  0  0  0999 V2000
    3.5247    0.1834   -1.9214 C   0  0  0  0  0  0  0  0  0  0  0  0
    2.2097    0.2552   -1.1337 C   0  0  0  0  0  0  0  0  0  0  0  0
    1.5057   -1.0250   -1.2897 N   0  0  0  0  0  0  0  0  0  0  0  0
    0.1239   -1.0287   -0.9830 C   0  0  0  0  0  0  0  0  0  0  0  0
   -0.4750    0.1208   -0.6363 N   0  0  0  0  0  0  0  0  0  0  0  0
   -1.7896    0.0851   -0.3610 C   0  0  0  0  0  0  0  0  0  0  0  0
   -2.4448    1.3497    0.0346 C   0  0  0  0  0  0  0  0  0  0  0  0
   -1.6990    2.5189    0.2815 C   0  0  0  0  0  0  0  0  0  0  0  0
   -2.3156    3.7172    0.6562 C   0  0  0  0  0  0  0  0  0  0  0  0
   -3.6989    3.7750    0.7935 C   0  0  0  0  0  0  0  0  0  0  0  0
   -4.4638    2.6367    0.5587 C   0  0  0  0  0  0  0  0  0  0  0  0
   -3.8426    1.4402    0.1851 C   0  0  0  0  0  0  0  0  0  0  0  0
   -2.5530   -1.0184   -0.4339 N   0  0  0  0  0  0  0  0  0  0  0  0
   -1.9510   -2.1612   -0.7690 C   0  0  0  0  0  0  0  0  0  0  0  0
   -2.7153   -3.3205   -0.8332 C   0  0  0  0  0  0  0  0  0  0  0  0
   -2.1573   -4.5581   -1.1654 C   0  0  0  0  0  0  0  0  0  0  0  0
   -0.7998   -4.6496   -1.4378 C   0  0  0  0  0  0  0  0  0  0  0  0
   -0.0144   -3.5005   -1.3822 C   0  0  0  0  0  0  0  0  0  0  0  0
   -0.5839   -2.2423   -1.0559 C   0  0  0  0  0  0  0  0  0  0  0  0
    2.5221    0.5586    0.3251 C   0  0  0  0  0  0  0  0  0  0  0  0
    2.9440   -0.4432    1.2145 C   0  0  0  0  0  0  0  0  0  0  0  0
    3.2476   -0.1373    2.5423 C   0  0  0  0  0  0  0  0  0  0  0  0
    3.1396    1.1746    2.9983 C   0  0  0  0  0  0  0  0  0  0  0  0
    2.7289    2.1816    2.1276 C   0  0  0  0  0  0  0  0  0  0  0  0
    2.4252    1.8769    0.7993 C   0  0  0  0  0  0  0  0  0  0  0  0
    4.0909    1.1173   -1.8327 H   0  0  0  0  0  0  0  0  0  0  0  0
    4.1658   -0.6329   -1.5680 H   0  0  0  0  0  0  0  0  0  0  0  0
    3.3292    0.0091   -2.9855 H   0  0  0  0  0  0  0  0  0  0  0  0
    1.6183    1.0690   -1.5742 H   0  0  0  0  0  0  0  0  0  0  0  0
    1.6025   -1.3881   -2.2336 H   0  0  0  0  0  0  0  0  0  0  0  0
   -0.6148    2.4978    0.1888 H   0  0  0  0  0  0  0  0  0  0  0  0
   -1.7115    4.6011    0.8428 H   0  0  0  0  0  0  0  0  0  0  0  0
   -4.1799    4.7045    1.0858 H   0  0  0  0  0  0  0  0  0  0  0  0
   -5.5446    2.6739    0.6666 H   0  0  0  0  0  0  0  0  0  0  0  0
   -4.4650    0.5641    0.0087 H   0  0  0  0  0  0  0  0  0  0  0  0
   -3.7789   -3.2602   -0.6123 H   0  0  0  0  0  0  0  0  0  0  0  0
   -2.7855   -5.4444   -1.2014 H   0  0  0  0  0  0  0  0  0  0  0  0
   -0.3521   -5.6085   -1.6853 H   0  0  0  0  0  0  0  0  0  0  0  0
    1.0522   -3.5844   -1.5776 H   0  0  0  0  0  0  0  0  0  0  0  0
    3.0262   -1.4729    0.8736 H   0  0  0  0  0  0  0  0  0  0  0  0
    3.5629   -0.9254    3.2207 H   0  0  0  0  0  0  0  0  0  0  0  0
    3.3715    1.4109    4.0331 H   0  0  0  0  0  0  0  0  0  0  0  0
    2.6415    3.2045    2.4837 H   0  0  0  0  0  0  0  0  0  0  0  0
    2.1043    2.6753    0.1344 H   0  0  0  0  0  0  0  0  0  0  0  0
  1  2  1  0
  2  3  1  0
  3  4  1  0
  4  5  2  0
  5  6  1  0
  6  7  1  0
  7  8  2  0
  8  9  1  0
  9 10  2  0
 10 11  1  0
 11 12  2  0
  6 13  2  0
 13 14  1  0
 14 15  2  0
 15 16  1  0
 16 17  2  0
 17 18  1  0
 18 19  2  0
  2 20  1  0
 20 21  2  0
 21 22  1  0
 22 23  2  0
 23 24  1  0
 24 25  2  0
 19  4  1  0
 25 20  1  0
 12  7  1  0
 19 14  1  0
  1 26  1  0
  1 27  1  0
  1 28  1  0
  2 29  1  0
  3 30  1  0
  8 31  1  0
  9 32  1  0
 10 33  1  0
 11 34  1  0
 12 35  1  0
 15 36  1  0
 16 37  1  0
 17 38  1  0
 18 39  1  0
 21 40  1  0
 22 41  1  0
 23 42  1  0
 24 43  1  0
 25 44  1  0
M  END
$$$$
