
     RDKit          3D

 38 40  0  0  0  0  0  0  0  0999 V2000
    0.1529    2.1118   -2.1616 C   0  0  0  0  0  0  0  0  0  0  0  0
   -0.2963    2.2624   -0.7325 C   0  0  0  0  0  0  0  0  0  0  0  0
    0.1213    3.1631   -0.0072 O   0  0  0  0  0  0  0  0  0  0  0  0
   -1.2250    1.2747   -0.1679 C   0  0  0  0  0  0  0  0  0  0  0  0
   -1.0004    0.6476    1.0511 C   0  0  0  0  0  0  0  0  0  0  0  0
    0.2633    0.8666    1.8514 C   0  0  0  0  0  0  0  0  0  0  0  0
    1.4388    0.6557    1.0519 O   0  0  0  0  0  0  0  0  0  0  0  0
    1.8861   -0.6185    0.9692 C   0  0  0  0  0  0  0  0  0  0  0  0
    1.3710   -1.5937    1.4885 O   0  0  0  0  0  0  0  0  0  0  0  0
    3.0994   -0.6827    0.1099 C   0  0  0  0  0  0  0  0  0  0  0  0
    3.6555   -1.9416   -0.1552 C   0  0  0  0  0  0  0  0  0  0  0  0
    4.7888   -2.0546   -0.9628 C   0  0  0  0  0  0  0  0  0  0  0  0
    5.3724   -0.9122   -1.5088 C   0  0  0  0  0  0  0  0  0  0  0  0
    4.8266    0.3444   -1.2485 C   0  0  0  0  0  0  0  0  0  0  0  0
    3.6930    0.4624   -0.4408 C   0  0  0  0  0  0  0  0  0  0  0  0
   -1.8979   -0.2220    1.5789 N   0  0  0  0  0  0  0  0  0  0  0  0
   -3.0197   -0.5046    0.9059 C   0  0  0  0  0  0  0  0  0  0  0  0
   -3.9290   -1.4060    1.4436 C   0  0  0  0  0  0  0  0  0  0  0  0
   -5.1167   -1.7360    0.7829 C   0  0  0  0  0  0  0  0  0  0  0  0
   -5.4116   -1.1561   -0.4448 C   0  0  0  0  0  0  0  0  0  0  0  0
   -4.5151   -0.2500   -1.0042 C   0  0  0  0  0  0  0  0  0  0  0  0
   -3.3137    0.0809   -0.3348 C   0  0  0  0  0  0  0  0  0  0  0  0
   -2.3832    0.9965   -0.8700 N   0  0  0  0  0  4  0  0  0  0  0  0
   -2.6314    1.5645   -1.9940 O   0  0  0  0  0  1  0  0  0  0  0  0
    1.2342    2.2724   -2.2091 H   0  0  0  0  0  0  0  0  0  0  0  0
   -0.0442    1.1039   -2.5370 H   0  0  0  0  0  0  0  0  0  0  0  0
   -0.3544    2.8494   -2.7879 H   0  0  0  0  0  0  0  0  0  0  0  0
    0.2817    0.2234    2.7403 H   0  0  0  0  0  0  0  0  0  0  0  0
    0.2881    1.8970    2.2219 H   0  0  0  0  0  0  0  0  0  0  0  0
    3.2082   -2.8401    0.2664 H   0  0  0  0  0  0  0  0  0  0  0  0
    5.2163   -3.0339   -1.1647 H   0  0  0  0  0  0  0  0  0  0  0  0
    6.2558   -1.0011   -2.1370 H   0  0  0  0  0  0  0  0  0  0  0  0
    5.2856    1.2343   -1.6730 H   0  0  0  0  0  0  0  0  0  0  0  0
    3.2891    1.4540   -0.2488 H   0  0  0  0  0  0  0  0  0  0  0  0
   -3.7080   -1.8681    2.4042 H   0  0  0  0  0  0  0  0  0  0  0  0
   -5.8070   -2.4466    1.2320 H   0  0  0  0  0  0  0  0  0  0  0  0
   -6.3334   -1.4064   -0.9647 H   0  0  0  0  0  0  0  0  0  0  0  0
   -4.7413    0.2092   -1.9659 H   0  0  0  0  0  0  0  0  0  0  0  0
  1  2  1  0
  2  3  2  0
  2  4  1  0
  4  5  2  0
  5  6  1  0
  6  7  1  0
  7  8  1  0
  8  9  2  0
  8 10  1  0
 10 11  2  0
 11 12  1  0
 12 13  2  0
 13 14  1  0
 14 15  2  0
  5 16  1  0
 16 17  2  0
 17 18  1  0
 18 19  2  0
 19 20  1  0
 20 21  2  0
 21 22  1  0
 22 23  2  0
 23 24  1  0
 23  4  1  0
 15 10  1  0
 22 17  1  0
  1 25  1  0
  1 26  1  0
  1 27  1  0
  6 28  1  0
  6 29  1  0
 11 30  1  0
 12 31  1  0
 13 32  1  0
 14 33  1  0
 15 34  1  0
 18 35  1  0
 19 36  1  0
 20 37  1  0
 21 38  1  0
M  CHG  2  23   1  24  -1
M  END
$$$$
