
     RDKit          3D

 61 65  0  0  0  0  0  0  0  0999 V2000
    3.9938    1.0475   -0.1953 C   0  0  0  0  0  0  0  0  0  0  0  0
    3.7884    0.1107    0.9384 C   0  0  0  0  0  0  0  0  0  0  0  0
    2.6068   -0.1795    1.5984 C   0  0  0  0  0  0  0  0  0  0  0  0
    1.2194    0.3489    1.3756 C   0  0  0  0  0  0  0  0  0  0  0  0
    0.4635   -0.4534    0.3149 C   0  0  0  0  0  0  0  0  0  0  0  0
   -0.8550    0.0794    0.1233 O   0  0  0  0  0  0  0  0  0  0  0  0
   -1.7905   -0.3453    1.0233 C   0  0  0  0  0  0  0  0  0  0  0  0
   -1.5365   -1.0833    1.9655 O   0  0  0  0  0  0  0  0  0  0  0  0
   -3.1601    0.2579    0.7239 C   0  0  0  0  0  0  0  0  0  0  0  0
   -4.2325   -0.3816    1.6383 C   0  0  0  0  0  0  0  0  0  0  0  0
   -5.6142    0.2334    1.3639 C   0  0  0  0  0  0  0  0  0  0  0  0
   -5.5550    1.7461    1.6285 C   0  0  0  0  0  0  0  0  0  0  0  0
   -4.5074    2.3992    0.7133 C   0  0  0  0  0  0  0  0  0  0  0  0
   -4.8887    2.1470   -0.7555 C   0  0  0  0  0  0  0  0  0  0  0  0
   -4.9528    0.6289   -1.0467 C   0  0  0  0  0  0  0  0  0  0  0  0
   -5.3385    0.3852   -2.5086 C   0  0  0  0  0  0  0  0  0  0  0  0
   -5.9961   -0.0129   -0.1044 C   0  0  0  0  0  0  0  0  0  0  0  0
   -3.5665    0.0101   -0.7479 C   0  0  0  0  0  0  0  0  0  0  0  0
   -3.1289    1.7782    0.9935 C   0  0  0  0  0  0  0  0  0  0  0  0
    2.8944   -1.3279    2.8451 S   0  0  0  0  0  0  0  0  0  0  0  0
    4.5569   -1.4064    2.4707 C   0  0  0  0  0  0  0  0  0  0  0  0
    4.8605   -0.6207    1.4508 N   0  0  0  0  0  4  0  0  0  0  0  0
    6.2467   -0.5440    0.9650 C   0  0  0  0  0  0  0  0  0  0  0  0
    6.3819   -1.1932   -0.3913 C   0  0  0  0  0  0  0  0  0  0  0  0
    5.9347   -2.5040   -0.6238 C   0  0  0  0  0  0  0  0  0  0  0  0
    6.0794   -3.0887   -1.8831 C   0  0  0  0  0  0  0  0  0  0  0  0
    6.6793   -2.3784   -2.9196 C   0  0  0  0  0  0  0  0  0  0  0  0
    7.1424   -1.0841   -2.6994 C   0  0  0  0  0  0  0  0  0  0  0  0
    7.0018   -0.4955   -1.4422 C   0  0  0  0  0  0  0  0  0  0  0  0
    4.8748    1.6770   -0.0447 H   0  0  0  0  0  0  0  0  0  0  0  0
    4.1010    0.4963   -1.1335 H   0  0  0  0  0  0  0  0  0  0  0  0
    3.1406    1.7224   -0.3113 H   0  0  0  0  0  0  0  0  0  0  0  0
    0.6580    0.3594    2.3178 H   0  0  0  0  0  0  0  0  0  0  0  0
    1.2627    1.4010    1.0681 H   0  0  0  0  0  0  0  0  0  0  0  0
    0.4200   -1.5228    0.5569 H   0  0  0  0  0  0  0  0  0  0  0  0
    0.9780   -0.3768   -0.6499 H   0  0  0  0  0  0  0  0  0  0  0  0
   -4.2706   -1.4672    1.4784 H   0  0  0  0  0  0  0  0  0  0  0  0
   -3.9693   -0.2355    2.6944 H   0  0  0  0  0  0  0  0  0  0  0  0
   -6.3607   -0.2282    2.0204 H   0  0  0  0  0  0  0  0  0  0  0  0
   -6.5396    2.1967    1.4528 H   0  0  0  0  0  0  0  0  0  0  0  0
   -5.3025    1.9333    2.6795 H   0  0  0  0  0  0  0  0  0  0  0  0
   -4.4708    3.4774    0.9058 H   0  0  0  0  0  0  0  0  0  0  0  0
   -4.1552    2.6285   -1.4147 H   0  0  0  0  0  0  0  0  0  0  0  0
   -5.8585    2.6149   -0.9686 H   0  0  0  0  0  0  0  0  0  0  0  0
   -6.3157    0.8241   -2.7370 H   0  0  0  0  0  0  0  0  0  0  0  0
   -5.3934   -0.6864   -2.7287 H   0  0  0  0  0  0  0  0  0  0  0  0
   -4.6060    0.8291   -3.1913 H   0  0  0  0  0  0  0  0  0  0  0  0
   -6.0640   -1.0923   -0.2916 H   0  0  0  0  0  0  0  0  0  0  0  0
   -6.9924    0.4038   -0.3006 H   0  0  0  0  0  0  0  0  0  0  0  0
   -3.5775   -1.0687   -0.9550 H   0  0  0  0  0  0  0  0  0  0  0  0
   -2.8209    0.4415   -1.4291 H   0  0  0  0  0  0  0  0  0  0  0  0
   -2.8350    1.9739    2.0332 H   0  0  0  0  0  0  0  0  0  0  0  0
   -2.3716    2.2651    0.3654 H   0  0  0  0  0  0  0  0  0  0  0  0
    5.2575   -2.0356    3.0069 H   0  0  0  0  0  0  0  0  0  0  0  0
    6.5469    0.5098    0.9440 H   0  0  0  0  0  0  0  0  0  0  0  0
    6.9242   -1.0467    1.6666 H   0  0  0  0  0  0  0  0  0  0  0  0
    5.4733   -3.0980    0.1624 H   0  0  0  0  0  0  0  0  0  0  0  0
    5.7329   -4.1059   -2.0589 H   0  0  0  0  0  0  0  0  0  0  0  0
    6.7959   -2.8384   -3.8990 H   0  0  0  0  0  0  0  0  0  0  0  0
    7.6223   -0.5386   -3.5103 H   0  0  0  0  0  0  0  0  0  0  0  0
    7.3885    0.5132   -1.3022 H   0  0  0  0  0  0  0  0  0  0  0  0
  1  2  1  0
  2  3  2  0
  3  4  1  0
  4  5  1  0
  5  6  1  0
  6  7  1  0
  7  8  2  0
  7  9  1  0
  9 10  1  0
 10 11  1  0
 11 12  1  0
 12 13  1  0
 13 14  1  0
 14 15  1  0
 15 16  1  0
 15 17  1  0
 15 18  1  0
 13 19  1  0
  3 20  1  0
 20 21  1  0
 21 22  2  0
 22 23  1  0
 23 24  1  0
 24 25  2  0
 25 26  1  0
 26 27  2  0
 27 28  1  0
 28 29  2  0
 22  2  1  0
 29 24  1  0
 18  9  1  0
 19  9  1  0
 17 11  1  0
  1 30  1  0
  1 31  1  0
  1 32  1  0
  4 33  1  0
  4 34  1  0
  5 35  1  0
  5 36  1  0
 10 37  1  0
 10 38  1  0
 11 39  1  0
 12 40  1  0
 12 41  1  0
 13 42  1  0
 14 43  1  0
 14 44  1  0
 16 45  1  0
 16 46  1  0
 16 47  1  0
 17 48  1  0
 17 49  1  0
 18 50  1  0
 18 51  1  0
 19 52  1  0
 19 53  1  0
 21 54  1  0
 23 55  1  0
 23 56  1  0
 25 57  1  0
 26 58  1  0
 27 59  1  0
 28 60  1  0
 29 61  1  0
M  CHG  1  22   1
M  END
$$$$
