
     RDKit          3D

 57 59  0  0  0  0  0  0  0  0999 V2000
    7.0297   -1.3141   -1.6056 C   0  0  0  0  0  0  0  0  0  0  0  0
    5.9313   -0.3482   -1.7174 N   0  0  0  0  0  0  0  0  0  0  0  0
    5.9229    0.2475   -3.0596 C   0  0  0  0  0  0  0  0  0  0  0  0
    6.0480    0.7013   -0.6764 C   0  0  0  0  0  0  0  0  0  0  0  0
    4.8499    0.6485    0.2913 C   0  0  0  0  0  0  0  0  0  0  0  0
    4.6975   -0.7176    0.8063 N   0  0  0  0  0  0  0  0  0  0  0  0
    3.8333   -1.0265    2.1917 S   0  0  0  0  0  6  0  0  0  0  0  0
    3.7380   -2.4637    2.3255 O   0  0  0  0  0  0  0  0  0  0  0  0
    4.3597   -0.1919    3.2493 O   0  0  0  0  0  0  0  0  0  0  0  0
    2.2136   -0.4210    1.7824 C   0  0  0  0  0  0  0  0  0  0  0  0
    1.3513   -1.2216    1.0242 C   0  0  0  0  0  0  0  0  0  0  0  0
    0.0627   -0.7644    0.7158 C   0  0  0  0  0  0  0  0  0  0  0  0
   -0.3929    0.4896    1.1593 C   0  0  0  0  0  0  0  0  0  0  0  0
   -1.6876    0.9450    0.8772 N   0  0  0  0  0  0  0  0  0  0  0  0
   -2.0961    0.9511   -0.5486 C   0  0  0  0  0  0  0  0  0  0  0  0
   -3.2286   -0.0488   -0.8727 C   0  0  0  0  0  0  0  0  0  0  0  0
   -4.4009    0.1415   -0.0020 N   0  0  0  0  0  0  0  0  0  0  0  0
   -5.6653   -0.2860   -0.3749 C   0  0  0  0  0  0  0  0  0  0  0  0
   -5.8607   -1.2036   -1.4239 C   0  0  0  0  0  0  0  0  0  0  0  0
   -7.1375   -1.6402   -1.8009 C   0  0  0  0  0  0  0  0  0  0  0  0
   -8.2499   -1.1598   -1.1289 C   0  0  0  0  0  0  0  0  0  0  0  0
   -9.4726   -1.5762   -1.4837 F   0  0  0  0  0  0  0  0  0  0  0  0
   -8.1065   -0.2508   -0.0948 C   0  0  0  0  0  0  0  0  0  0  0  0
   -6.8250    0.1800    0.2724 C   0  0  0  0  0  0  0  0  0  0  0  0
   -4.1435    0.7095    1.3378 C   0  0  0  0  0  0  0  0  0  0  0  0
   -2.7056    0.4022    1.8119 C   0  0  0  0  0  0  0  0  0  0  0  0
    0.5035    1.2504    1.9351 C   0  0  0  0  0  0  0  0  0  0  0  0
    0.1029    2.5541    2.4128 N   0  0  0  0  0  4  0  0  0  0  0  0
    0.3566    3.5227    1.6821 O   0  0  0  0  0  0  0  0  0  0  0  0
   -0.3919    2.6070    3.5450 O   0  0  0  0  0  1  0  0  0  0  0  0
    1.7960    0.8209    2.2588 C   0  0  0  0  0  0  0  0  0  0  0  0
    6.9054   -2.1179   -2.3413 H   0  0  0  0  0  0  0  0  0  0  0  0
    8.0139   -0.8498   -1.7605 H   0  0  0  0  0  0  0  0  0  0  0  0
    7.0285   -1.7918   -0.6149 H   0  0  0  0  0  0  0  0  0  0  0  0
    5.8192   -0.5280   -3.8248 H   0  0  0  0  0  0  0  0  0  0  0  0
    5.0583    0.9129   -3.1735 H   0  0  0  0  0  0  0  0  0  0  0  0
    6.8359    0.8193   -3.2691 H   0  0  0  0  0  0  0  0  0  0  0  0
    6.9757    0.5872   -0.0986 H   0  0  0  0  0  0  0  0  0  0  0  0
    6.0896    1.7078   -1.1140 H   0  0  0  0  0  0  0  0  0  0  0  0
    3.9382    0.9325   -0.2475 H   0  0  0  0  0  0  0  0  0  0  0  0
    5.0131    1.3586    1.1085 H   0  0  0  0  0  0  0  0  0  0  0  0
    4.7237   -1.4574    0.1052 H   0  0  0  0  0  0  0  0  0  0  0  0
    1.6689   -2.2052    0.6790 H   0  0  0  0  0  0  0  0  0  0  0  0
   -0.5933   -1.4150    0.1389 H   0  0  0  0  0  0  0  0  0  0  0  0
   -1.2456    0.7765   -1.2186 H   0  0  0  0  0  0  0  0  0  0  0  0
   -2.4539    1.9639   -0.7707 H   0  0  0  0  0  0  0  0  0  0  0  0
   -2.8617   -1.0739   -0.7580 H   0  0  0  0  0  0  0  0  0  0  0  0
   -3.5007    0.1011   -1.9241 H   0  0  0  0  0  0  0  0  0  0  0  0
   -5.0147   -1.6206   -1.9617 H   0  0  0  0  0  0  0  0  0  0  0  0
   -7.2631   -2.3531   -2.6092 H   0  0  0  0  0  0  0  0  0  0  0  0
   -8.9857    0.1265    0.4175 H   0  0  0  0  0  0  0  0  0  0  0  0
   -6.7546    0.9167    1.0673 H   0  0  0  0  0  0  0  0  0  0  0  0
   -4.3036    1.7932    1.3028 H   0  0  0  0  0  0  0  0  0  0  0  0
   -4.8260    0.2857    2.0841 H   0  0  0  0  0  0  0  0  0  0  0  0
   -2.5937   -0.6860    1.9050 H   0  0  0  0  0  0  0  0  0  0  0  0
   -2.5578    0.8392    2.8059 H   0  0  0  0  0  0  0  0  0  0  0  0
    2.4520    1.4409    2.8672 H   0  0  0  0  0  0  0  0  0  0  0  0
  1  2  1  0
  2  3  1  0
  2  4  1  0
  4  5  1  0
  5  6  1  0
  6  7  1  0
  7  8  2  0
  7  9  2  0
  7 10  1  0
 10 11  2  0
 11 12  1  0
 12 13  2  0
 13 14  1  0
 14 15  1  0
 15 16  1  0
 16 17  1  0
 17 18  1  0
 18 19  2  0
 19 20  1  0
 20 21  2  0
 21 22  1  0
 21 23  1  0
 23 24  2  0
 17 25  1  0
 25 26  1  0
 13 27  1  0
 27 28  1  0
 28 29  2  0
 28 30  1  0
 27 31  2  0
 31 10  1  0
 26 14  1  0
 24 18  1  0
  1 32  1  0
  1 33  1  0
  1 34  1  0
  3 35  1  0
  3 36  1  0
  3 37  1  0
  4 38  1  0
  4 39  1  0
  5 40  1  0
  5 41  1  0
  6 42  1  0
 11 43  1  0
 12 44  1  0
 15 45  1  0
 15 46  1  0
 16 47  1  0
 16 48  1  0
 19 49  1  0
 20 50  1  0
 23 51  1  0
 24 52  1  0
 25 53  1  0
 25 54  1  0
 26 55  1  0
 26 56  1  0
 31 57  1  0
M  CHG  2  28   1  30  -1
M  END
$$$$
