
     RDKit          3D

 31 32  0  0  0  0  0  0  0  0999 V2000
    5.4358    1.8751   -0.8613 N   0  0  0  0  0  0  0  0  0  0  0  0
    4.4810    1.2766   -1.5996 C   0  0  0  0  0  0  0  0  0  0  0  0
    3.3148    1.8115   -1.8889 N   0  0  0  0  0  0  0  0  0  0  0  0
    2.5310    0.9805   -2.6672 N   0  0  0  0  0  0  0  0  0  0  0  0
    3.1300   -0.1642   -2.9122 C   0  0  0  0  0  0  0  0  0  0  0  0
    2.3659   -1.4428   -3.8278 S   0  0  0  0  0  0  0  0  0  0  0  0
    0.6176   -1.0530   -3.5490 C   0  0  0  0  0  0  0  0  0  0  0  0
    0.2223   -1.3623   -2.1182 C   0  0  0  0  0  0  0  0  0  0  0  0
   -0.0311   -2.5013   -1.7236 O   0  0  0  0  0  0  0  0  0  0  0  0
    0.1792   -0.2667   -1.2791 N   0  0  0  0  0  0  0  0  0  0  0  0
   -0.4291   -0.4348   -0.0260 N   0  0  0  0  0  0  0  0  0  0  0  0
   -1.4330    0.4572    0.3004 C   0  0  0  0  0  0  0  0  0  0  0  0
   -1.6810    1.4584   -0.3655 O   0  0  0  0  0  0  0  0  0  0  0  0
   -2.2489    0.1217    1.4994 C   0  0  0  0  0  0  0  0  0  0  0  0
   -3.5592    0.6124    1.5712 C   0  0  0  0  0  0  0  0  0  0  0  0
   -4.3603    0.3196    2.6774 C   0  0  0  0  0  0  0  0  0  0  0  0
   -3.8478   -0.4540    3.7175 C   0  0  0  0  0  0  0  0  0  0  0  0
   -4.8318   -0.8127    5.0813 Cl  0  0  0  0  0  0  0  0  0  0  0  0
   -2.5390   -0.9316    3.6644 C   0  0  0  0  0  0  0  0  0  0  0  0
   -1.7364   -0.6440    2.5562 C   0  0  0  0  0  0  0  0  0  0  0  0
    4.7098   -0.2908   -2.2673 S   0  0  0  0  0  0  0  0  0  0  0  0
    6.3956    1.5757   -0.9950 H   0  0  0  0  0  0  0  0  0  0  0  0
    5.3322    2.8766   -0.7302 H   0  0  0  0  0  0  0  0  0  0  0  0
    0.0082   -1.6809   -4.2064 H   0  0  0  0  0  0  0  0  0  0  0  0
    0.3933   -0.0143   -3.8070 H   0  0  0  0  0  0  0  0  0  0  0  0
    0.2236    0.6913   -1.6325 H   0  0  0  0  0  0  0  0  0  0  0  0
   -0.4592   -1.3969    0.3107 H   0  0  0  0  0  0  0  0  0  0  0  0
   -3.9598    1.2214    0.7631 H   0  0  0  0  0  0  0  0  0  0  0  0
   -5.3760    0.7026    2.7227 H   0  0  0  0  0  0  0  0  0  0  0  0
   -2.1368   -1.5241    4.4832 H   0  0  0  0  0  0  0  0  0  0  0  0
   -0.7111   -1.0060    2.5467 H   0  0  0  0  0  0  0  0  0  0  0  0
  1  2  1  0
  2  3  2  0
  3  4  1  0
  4  5  2  0
  5  6  1  0
  6  7  1  0
  7  8  1  0
  8  9  2  0
  8 10  1  0
 10 11  1  0
 11 12  1  0
 12 13  2  0
 12 14  1  0
 14 15  2  0
 15 16  1  0
 16 17  2  0
 17 18  1  0
 17 19  1  0
 19 20  2  0
  5 21  1  0
 21  2  1  0
 20 14  1  0
  1 22  1  0
  1 23  1  0
  7 24  1  0
  7 25  1  0
 10 26  1  0
 11 27  1  0
 15 28  1  0
 16 29  1  0
 19 30  1  0
 20 31  1  0
M  END
$$$$
