
     RDKit          3D

 48 50  0  0  0  0  0  0  0  0999 V2000
    6.8907    0.0842    0.5383 C   0  0  0  0  0  0  0  0  0  0  0  0
    5.8341    1.0243    0.3762 O   0  0  0  0  0  0  0  0  0  0  0  0
    4.7206    0.6007   -0.2921 C   0  0  0  0  0  0  0  0  0  0  0  0
    4.4864   -0.6860   -0.7735 C   0  0  0  0  0  0  0  0  0  0  0  0
    3.2895   -0.9800   -1.4393 C   0  0  0  0  0  0  0  0  0  0  0  0
    2.3176    0.0096   -1.6379 C   0  0  0  0  0  0  0  0  0  0  0  0
    1.0214   -0.3253   -2.3311 C   0  0  0  0  0  0  0  0  0  0  0  0
    0.0534   -1.0561   -1.4107 C   0  0  0  0  0  0  0  0  0  0  0  0
    0.0455   -2.2822   -1.3529 O   0  0  0  0  0  0  0  0  0  0  0  0
   -0.7578   -0.1881   -0.7003 N   0  0  0  0  0  0  0  0  0  0  0  0
   -1.6978   -0.5688    0.2454 C   0  0  0  0  0  0  0  0  0  0  0  0
   -2.0371   -1.7979    0.7682 C   0  0  0  0  0  0  0  0  0  0  0  0
   -3.0016   -1.5473    1.7386 C   0  0  0  0  0  0  0  0  0  0  0  0
   -3.2977   -0.2643    1.8628 N   0  0  0  0  0  0  0  0  0  0  0  0
   -2.5447    0.3345    0.8992 N   0  0  0  0  0  0  0  0  0  0  0  0
   -2.7160    1.7922    0.6900 C   0  0  0  0  0  0  0  0  0  0  0  0
   -3.0360    2.1077   -0.7889 C   0  0  0  0  0  0  0  0  0  0  0  0
   -1.4543    2.5477    1.1515 C   0  0  0  0  0  0  0  0  0  0  0  0
   -3.9081    2.3520    1.5176 C   0  0  0  0  0  0  0  0  0  0  0  0
   -3.5423   -2.6696    2.5135 C   0  0  0  0  0  0  0  0  0  0  0  0
   -2.5853   -4.1510    1.9199 S   0  0  0  0  0  3  0  0  0  0  0  0
   -3.6623   -5.1576    1.1415 O   0  0  0  0  0  1  0  0  0  0  0  0
   -1.6400   -3.2053    0.6043 C   0  0  0  0  0  0  0  0  0  0  0  0
    2.5568    1.2984   -1.1487 C   0  0  0  0  0  0  0  0  0  0  0  0
    3.7491    1.5864   -0.4798 C   0  0  0  0  0  0  0  0  0  0  0  0
    6.5841   -0.7489    1.1814 H   0  0  0  0  0  0  0  0  0  0  0  0
    7.7106    0.6083    1.0334 H   0  0  0  0  0  0  0  0  0  0  0  0
    7.2570   -0.2706   -0.4326 H   0  0  0  0  0  0  0  0  0  0  0  0
    5.2089   -1.4864   -0.6441 H   0  0  0  0  0  0  0  0  0  0  0  0
    3.1173   -1.9927   -1.7986 H   0  0  0  0  0  0  0  0  0  0  0  0
    1.2134   -0.9588   -3.2081 H   0  0  0  0  0  0  0  0  0  0  0  0
    0.5490    0.5846   -2.7230 H   0  0  0  0  0  0  0  0  0  0  0  0
   -0.6044    0.7953   -0.8564 H   0  0  0  0  0  0  0  0  0  0  0  0
   -3.8970    1.5227   -1.1438 H   0  0  0  0  0  0  0  0  0  0  0  0
   -3.2816    3.1719   -0.9168 H   0  0  0  0  0  0  0  0  0  0  0  0
   -2.1985    1.8981   -1.4627 H   0  0  0  0  0  0  0  0  0  0  0  0
   -1.5885    3.6327    1.0479 H   0  0  0  0  0  0  0  0  0  0  0  0
   -0.5645    2.2766    0.5742 H   0  0  0  0  0  0  0  0  0  0  0  0
   -1.2307    2.3387    2.2085 H   0  0  0  0  0  0  0  0  0  0  0  0
   -4.8489    1.8596    1.2424 H   0  0  0  0  0  0  0  0  0  0  0  0
   -4.0359    3.4263    1.3525 H   0  0  0  0  0  0  0  0  0  0  0  0
   -3.7569    2.2073    2.5935 H   0  0  0  0  0  0  0  0  0  0  0  0
   -3.3581   -2.5678    3.5849 H   0  0  0  0  0  0  0  0  0  0  0  0
   -4.6004   -2.8454    2.3190 H   0  0  0  0  0  0  0  0  0  0  0  0
   -1.9335   -3.6187   -0.3659 H   0  0  0  0  0  0  0  0  0  0  0  0
   -0.5793   -3.3746    0.8131 H   0  0  0  0  0  0  0  0  0  0  0  0
    1.8269    2.0938   -1.2802 H   0  0  0  0  0  0  0  0  0  0  0  0
    3.9271    2.5895   -0.1016 H   0  0  0  0  0  0  0  0  0  0  0  0
  1  2  1  0
  2  3  1  0
  3  4  2  0
  4  5  1  0
  5  6  2  0
  6  7  1  0
  7  8  1  0
  8  9  2  0
  8 10  1  0
 10 11  1  0
 11 12  2  0
 12 13  1  0
 13 14  2  0
 14 15  1  0
 15 16  1  0
 16 17  1  0
 16 18  1  0
 16 19  1  0
 13 20  1  0
 20 21  1  0
 21 22  1  0
 21 23  1  0
  6 24  1  0
 24 25  2  0
 25  3  1  0
 15 11  1  0
 23 12  1  0
  1 26  1  0
  1 27  1  0
  1 28  1  0
  4 29  1  0
  5 30  1  0
  7 31  1  0
  7 32  1  0
 10 33  1  0
 17 34  1  0
 17 35  1  0
 17 36  1  0
 18 37  1  0
 18 38  1  0
 18 39  1  0
 19 40  1  0
 19 41  1  0
 19 42  1  0
 20 43  1  0
 20 44  1  0
 23 45  1  0
 23 46  1  0
 24 47  1  0
 25 48  1  0
M  CHG  2  21   1  22  -1
M  END
$$$$
