
     RDKit          3D

 48 49  0  0  0  0  0  0  0  0999 V2000
    0.9376    3.0036    1.6473 C   0  0  0  0  0  0  0  0  0  0  0  0
    1.6298    1.9995    0.9172 O   0  0  0  0  0  0  0  0  0  0  0  0
    0.8751    1.0260    0.3141 C   0  0  0  0  0  0  0  0  0  0  0  0
   -0.5133    1.0886    0.1464 C   0  0  0  0  0  0  0  0  0  0  0  0
   -1.2117    0.0401   -0.4766 C   0  0  0  0  0  0  0  0  0  0  0  0
   -2.7143    0.1024   -0.6447 C   0  0  0  0  0  0  0  0  0  0  0  0
   -3.3604   -0.8372    0.2648 N   0  0  0  0  0  0  0  0  0  0  0  0
   -4.8363   -0.9000    0.2026 C   0  0  0  0  0  0  0  0  0  0  0  0
   -5.2578   -1.9517    1.2506 C   0  0  0  0  0  0  0  0  0  0  0  0
   -5.3007   -1.4007   -1.1780 C   0  0  0  0  0  0  0  0  0  0  0  0
   -5.5094    0.4605    0.5448 C   0  0  0  0  0  0  0  0  0  0  0  0
   -6.9255    0.3663    0.6650 O   0  0  0  0  0  0  0  0  0  0  0  0
   -0.5033   -1.0863   -0.9197 C   0  0  0  0  0  0  0  0  0  0  0  0
    0.8810   -1.1555   -0.7630 C   0  0  0  0  0  0  0  0  0  0  0  0
    1.7784   -2.7102   -1.3789 Br  0  0  0  0  0  0  0  0  0  0  0  0
    1.5734   -0.0935   -0.1707 C   0  0  0  0  0  0  0  0  0  0  0  0
    2.9334   -0.1909    0.0080 O   0  0  0  0  0  0  0  0  0  0  0  0
    3.6247    0.5715   -0.9850 C   0  0  0  0  0  0  0  0  0  0  0  0
    5.0952    0.2487   -0.8752 C   0  0  0  0  0  0  0  0  0  0  0  0
    5.6596   -0.7772   -1.6473 C   0  0  0  0  0  0  0  0  0  0  0  0
    7.0166   -1.0862   -1.5293 C   0  0  0  0  0  0  0  0  0  0  0  0
    7.8126   -0.3771   -0.6322 C   0  0  0  0  0  0  0  0  0  0  0  0
    9.4846   -0.7580   -0.4872 Cl  0  0  0  0  0  0  0  0  0  0  0  0
    7.2630    0.6345    0.1524 C   0  0  0  0  0  0  0  0  0  0  0  0
    5.9061    0.9433    0.0346 C   0  0  0  0  0  0  0  0  0  0  0  0
    0.3802    3.6618    0.9732 H   0  0  0  0  0  0  0  0  0  0  0  0
    0.2808    2.5651    2.4061 H   0  0  0  0  0  0  0  0  0  0  0  0
    1.6836    3.6139    2.1653 H   0  0  0  0  0  0  0  0  0  0  0  0
   -1.0775    1.9484    0.4943 H   0  0  0  0  0  0  0  0  0  0  0  0
   -3.0527    1.1276   -0.4597 H   0  0  0  0  0  0  0  0  0  0  0  0
   -2.9417   -0.1290   -1.6912 H   0  0  0  0  0  0  0  0  0  0  0  0
   -3.0655   -0.6308    1.2199 H   0  0  0  0  0  0  0  0  0  0  0  0
   -6.3409   -2.1187    1.2411 H   0  0  0  0  0  0  0  0  0  0  0  0
   -4.9811   -1.6384    2.2643 H   0  0  0  0  0  0  0  0  0  0  0  0
   -4.7799   -2.9202    1.0587 H   0  0  0  0  0  0  0  0  0  0  0  0
   -5.1419   -0.6485   -1.9581 H   0  0  0  0  0  0  0  0  0  0  0  0
   -6.3687   -1.6459   -1.1762 H   0  0  0  0  0  0  0  0  0  0  0  0
   -4.7631   -2.3101   -1.4720 H   0  0  0  0  0  0  0  0  0  0  0  0
   -5.1310    0.8387    1.5013 H   0  0  0  0  0  0  0  0  0  0  0  0
   -5.2947    1.2187   -0.2158 H   0  0  0  0  0  0  0  0  0  0  0  0
   -7.2883    0.1748   -0.2163 H   0  0  0  0  0  0  0  0  0  0  0  0
   -1.0454   -1.9131   -1.3752 H   0  0  0  0  0  0  0  0  0  0  0  0
    3.4781    1.6475   -0.8308 H   0  0  0  0  0  0  0  0  0  0  0  0
    3.2685    0.3251   -1.9944 H   0  0  0  0  0  0  0  0  0  0  0  0
    5.0419   -1.3469   -2.3386 H   0  0  0  0  0  0  0  0  0  0  0  0
    7.4423   -1.8829   -2.1330 H   0  0  0  0  0  0  0  0  0  0  0  0
    7.8805    1.1799    0.8604 H   0  0  0  0  0  0  0  0  0  0  0  0
    5.4783    1.7225    0.6625 H   0  0  0  0  0  0  0  0  0  0  0  0
  1  2  1  0
  2  3  1  0
  3  4  2  0
  4  5  1  0
  5  6  1  0
  6  7  1  0
  7  8  1  0
  8  9  1  0
  8 10  1  0
  8 11  1  0
 11 12  1  0
  5 13  2  0
 13 14  1  0
 14 15  1  0
 14 16  2  0
 16 17  1  0
 17 18  1  0
 18 19  1  0
 19 20  2  0
 20 21  1  0
 21 22  2  0
 22 23  1  0
 22 24  1  0
 24 25  2  0
 16  3  1  0
 25 19  1  0
  1 26  1  0
  1 27  1  0
  1 28  1  0
  4 29  1  0
  6 30  1  0
  6 31  1  0
  7 32  1  0
  9 33  1  0
  9 34  1  0
  9 35  1  0
 10 36  1  0
 10 37  1  0
 10 38  1  0
 11 39  1  0
 11 40  1  0
 12 41  1  0
 13 42  1  0
 18 43  1  0
 18 44  1  0
 20 45  1  0
 21 46  1  0
 24 47  1  0
 25 48  1  0
M  END
$$$$
