
     RDKit          3D

 42 44  0  0  0  0  0  0  0  0999 V2000
    2.1606   -4.5105    3.4961 N   0  0  0  0  0  0  0  0  0  0  0  0
    2.8155   -3.9190    2.7420 C   0  0  0  0  0  0  0  0  0  0  0  0
    3.6112   -3.1798    1.8171 C   0  0  0  0  0  0  0  0  0  0  0  0
    4.9897   -3.5347    1.7405 C   0  0  0  0  0  0  0  0  0  0  0  0
    6.1141   -3.8137    1.6695 N   0  0  0  0  0  0  0  0  0  0  0  0
    3.0885   -2.1952    1.0449 C   0  0  0  0  0  0  0  0  0  0  0  0
    1.6889   -1.7724    1.1201 C   0  0  0  0  0  0  0  0  0  0  0  0
    1.0953   -1.0542    0.1503 C   0  0  0  0  0  0  0  0  0  0  0  0
   -0.2322   -0.4906    0.3355 C   0  0  0  0  0  0  0  0  0  0  0  0
   -0.7058    0.5573   -0.3750 C   0  0  0  0  0  0  0  0  0  0  0  0
   -1.9846    1.1189   -0.1802 N   0  0  0  0  0  0  0  0  0  0  0  0
   -2.7788    0.8642    1.0401 C   0  0  0  0  0  0  0  0  0  0  0  0
   -3.7187    2.0253    1.3494 C   0  0  0  0  0  0  0  0  0  0  0  0
   -4.7065    2.2762    0.2154 C   0  0  0  0  0  0  0  0  0  0  0  0
   -4.1306    1.8962   -1.1445 C   0  0  0  0  0  0  0  0  0  0  0  0
   -2.6099    2.0161   -1.1732 C   0  0  0  0  0  0  0  0  0  0  0  0
    0.1939    1.2111   -1.4271 C   0  0  0  0  0  0  0  0  0  0  0  0
    1.6694    0.7845   -1.3745 C   0  0  0  0  0  0  0  0  0  0  0  0
    1.7583   -0.7280   -1.1705 C   0  0  0  0  0  0  0  0  0  0  0  0
    3.1893   -1.2724   -1.2922 C   0  0  0  0  0  0  0  0  0  0  0  0
    3.9006   -1.3716    0.0539 C   0  0  0  0  0  0  0  0  0  0  0  0
    1.1309   -1.9990    2.0280 H   0  0  0  0  0  0  0  0  0  0  0  0
   -0.8421   -0.9441    1.1106 H   0  0  0  0  0  0  0  0  0  0  0  0
   -3.3466   -0.0657    0.9159 H   0  0  0  0  0  0  0  0  0  0  0  0
   -2.1185    0.7405    1.9066 H   0  0  0  0  0  0  0  0  0  0  0  0
   -3.1247    2.9336    1.5149 H   0  0  0  0  0  0  0  0  0  0  0  0
   -4.2650    1.8355    2.2802 H   0  0  0  0  0  0  0  0  0  0  0  0
   -4.9938    3.3344    0.2209 H   0  0  0  0  0  0  0  0  0  0  0  0
   -5.6278    1.7060    0.3843 H   0  0  0  0  0  0  0  0  0  0  0  0
   -4.4133    0.8611   -1.3767 H   0  0  0  0  0  0  0  0  0  0  0  0
   -4.5772    2.5244   -1.9235 H   0  0  0  0  0  0  0  0  0  0  0  0
   -2.2822    1.7595   -2.1864 H   0  0  0  0  0  0  0  0  0  0  0  0
   -2.3017    3.0497   -0.9758 H   0  0  0  0  0  0  0  0  0  0  0  0
    0.1553    2.3024   -1.3255 H   0  0  0  0  0  0  0  0  0  0  0  0
   -0.1983    0.9594   -2.4206 H   0  0  0  0  0  0  0  0  0  0  0  0
    2.1814    1.3150   -0.5606 H   0  0  0  0  0  0  0  0  0  0  0  0
    2.1614    1.0821   -2.3081 H   0  0  0  0  0  0  0  0  0  0  0  0
    1.1785   -1.2055   -1.9747 H   0  0  0  0  0  0  0  0  0  0  0  0
    3.1442   -2.2782   -1.7329 H   0  0  0  0  0  0  0  0  0  0  0  0
    3.7806   -0.6633   -1.9860 H   0  0  0  0  0  0  0  0  0  0  0  0
    4.8976   -1.7896   -0.1184 H   0  0  0  0  0  0  0  0  0  0  0  0
    4.0532   -0.3659    0.4673 H   0  0  0  0  0  0  0  0  0  0  0  0
  1  2  3  0
  2  3  1  0
  3  4  1  0
  4  5  3  0
  3  6  2  3
  6  7  1  0
  7  8  2  0
  8  9  1  0
  9 10  2  0
 10 11  1  0
 11 12  1  0
 12 13  1  0
 13 14  1  0
 14 15  1  0
 15 16  1  0
 10 17  1  0
 17 18  1  0
 18 19  1  0
 19 20  1  0
 20 21  1  0
 21  6  1  0
 19  8  1  0
 16 11  1  0
  7 22  1  0
  9 23  1  0
 12 24  1  0
 12 25  1  0
 13 26  1  0
 13 27  1  0
 14 28  1  0
 14 29  1  0
 15 30  1  0
 15 31  1  0
 16 32  1  0
 16 33  1  0
 17 34  1  0
 17 35  1  0
 18 36  1  0
 18 37  1  0
 19 38  1  0
 20 39  1  0
 20 40  1  0
 21 41  1  0
 21 42  1  0
M  END
$$$$
