
     RDKit          3D

 40 41  0  0  0  0  0  0  0  0999 V2000
    5.4014    1.6493   -0.1646 C   0  0  0  0  0  0  0  0  0  0  0  0
    4.5897    1.2026   -1.3659 C   0  0  0  0  0  0  0  0  0  0  0  0
    3.2132    1.0398   -0.9990 O   0  0  0  0  0  0  0  0  0  0  0  0
    2.8672   -0.1833   -0.4969 C   0  0  0  0  0  0  0  0  0  0  0  0
    3.6673   -1.0999   -0.3452 O   0  0  0  0  0  0  0  0  0  0  0  0
    1.4486   -0.2808   -0.1351 C   0  0  0  0  0  0  0  0  0  0  0  0
    0.4405    0.6555   -0.3762 C   0  0  0  0  0  0  0  0  0  0  0  0
    0.5073    1.9620   -1.0979 C   0  0  0  0  0  0  0  0  0  0  0  0
   -0.7283    0.1688    0.1813 N   0  0  0  0  0  0  0  0  0  0  0  0
   -1.9924    0.8945    0.2681 C   0  0  0  0  0  0  0  0  0  0  0  0
   -2.6667    0.7686   -0.9791 O   0  0  0  0  0  0  0  0  0  0  0  0
   -3.9386    1.4081   -0.9882 C   0  0  0  0  0  0  0  0  0  0  0  0
   -5.0339    0.5125   -0.4114 C   0  0  0  0  0  0  0  0  0  0  0  0
   -6.2950    1.1688   -0.4363 O   0  0  0  0  0  0  0  0  0  0  0  0
   -0.5262   -1.0985    0.6951 C   0  0  0  0  0  0  0  0  0  0  0  0
   -1.4185   -2.0072    1.2955 C   0  0  0  0  0  0  0  0  0  0  0  0
   -0.9202   -3.2316    1.7498 C   0  0  0  0  0  0  0  0  0  0  0  0
    0.4251   -3.5336    1.6054 C   0  0  0  0  0  0  0  0  0  0  0  0
    0.9334   -4.7224    2.0435 O   0  0  0  0  0  0  0  0  0  0  0  0
    1.3072   -2.6378    1.0044 C   0  0  0  0  0  0  0  0  0  0  0  0
    0.8291   -1.3945    0.5297 C   0  0  0  0  0  0  0  0  0  0  0  0
    6.4446    1.8214   -0.4441 H   0  0  0  0  0  0  0  0  0  0  0  0
    4.9900    2.5756    0.2518 H   0  0  0  0  0  0  0  0  0  0  0  0
    5.3709    0.9003    0.6337 H   0  0  0  0  0  0  0  0  0  0  0  0
    4.9981    0.2877   -1.8100 H   0  0  0  0  0  0  0  0  0  0  0  0
    4.6242    1.9763   -2.1398 H   0  0  0  0  0  0  0  0  0  0  0  0
    1.0488    2.6982   -0.4950 H   0  0  0  0  0  0  0  0  0  0  0  0
   -0.4783    2.3757   -1.3274 H   0  0  0  0  0  0  0  0  0  0  0  0
    1.0247    1.8432   -2.0557 H   0  0  0  0  0  0  0  0  0  0  0  0
   -1.7690    1.9429    0.4934 H   0  0  0  0  0  0  0  0  0  0  0  0
   -2.5837    0.4800    1.0892 H   0  0  0  0  0  0  0  0  0  0  0  0
   -4.1847    1.6376   -2.0313 H   0  0  0  0  0  0  0  0  0  0  0  0
   -3.8980    2.3731   -0.4681 H   0  0  0  0  0  0  0  0  0  0  0  0
   -5.1113   -0.4099   -0.9964 H   0  0  0  0  0  0  0  0  0  0  0  0
   -4.8139    0.2165    0.6190 H   0  0  0  0  0  0  0  0  0  0  0  0
   -6.2581    1.9193    0.1818 H   0  0  0  0  0  0  0  0  0  0  0  0
   -2.4746   -1.7825    1.4022 H   0  0  0  0  0  0  0  0  0  0  0  0
   -1.6037   -3.9358    2.2134 H   0  0  0  0  0  0  0  0  0  0  0  0
    0.2091   -5.2546    2.4091 H   0  0  0  0  0  0  0  0  0  0  0  0
    2.3549   -2.9057    0.8974 H   0  0  0  0  0  0  0  0  0  0  0  0
  1  2  1  0
  2  3  1  0
  3  4  1  0
  4  5  2  0
  4  6  1  0
  6  7  2  0
  7  8  1  0
  7  9  1  0
  9 10  1  0
 10 11  1  0
 11 12  1  0
 12 13  1  0
 13 14  1  0
  9 15  1  0
 15 16  2  0
 16 17  1  0
 17 18  2  0
 18 19  1  0
 18 20  1  0
 20 21  2  0
 21  6  1  0
 21 15  1  0
  1 22  1  0
  1 23  1  0
  1 24  1  0
  2 25  1  0
  2 26  1  0
  8 27  1  0
  8 28  1  0
  8 29  1  0
 10 30  1  0
 10 31  1  0
 12 32  1  0
 12 33  1  0
 13 34  1  0
 13 35  1  0
 14 36  1  0
 16 37  1  0
 17 38  1  0
 19 39  1  0
 20 40  1  0
M  END
$$$$
