
     RDKit          3D

 41 42  0  0  0  0  0  0  0  0999 V2000
   -7.3185   -1.1870    2.5173 C   0  0  0  0  0  0  0  0  0  0  0  0
   -6.2884   -0.3582    3.0402 O   0  0  0  0  0  0  0  0  0  0  0  0
   -5.0878   -0.3804    2.3852 C   0  0  0  0  0  0  0  0  0  0  0  0
   -4.7626   -1.1834    1.2928 C   0  0  0  0  0  0  0  0  0  0  0  0
   -3.4892   -1.1074    0.7168 C   0  0  0  0  0  0  0  0  0  0  0  0
   -2.5237   -0.2288    1.2259 C   0  0  0  0  0  0  0  0  0  0  0  0
   -1.1511   -0.1496    0.6005 C   0  0  0  0  0  0  0  0  0  0  0  0
   -1.0931    0.6230   -0.7014 C   0  0  0  0  0  0  0  0  0  0  0  0
   -2.0570    1.0268   -1.3397 O   0  0  0  0  0  0  0  0  0  0  0  0
    0.2359    0.7534   -1.0441 O   0  0  0  0  0  0  0  0  0  0  0  0
    0.3647    1.4694   -2.2474 N   0  0  0  0  0  0  0  0  0  0  0  0
    1.6045    1.5627   -2.6364 C   0  0  0  0  0  0  0  0  0  0  0  0
    1.8663    2.2032   -3.8177 N   0  0  0  0  0  0  0  0  0  0  0  0
    2.7574    1.0106   -1.8813 C   0  0  0  0  0  0  0  0  0  0  0  0
    3.1072    1.5656   -0.6504 C   0  0  0  0  0  0  0  0  0  0  0  0
    4.2013    1.0497    0.0455 C   0  0  0  0  0  0  0  0  0  0  0  0
    4.9468   -0.0112   -0.4814 C   0  0  0  0  0  0  0  0  0  0  0  0
    5.9889   -0.4184    0.3052 O   0  0  0  0  0  0  0  0  0  0  0  0
    6.7806   -1.4960   -0.1787 C   0  0  0  0  0  0  0  0  0  0  0  0
    4.5908   -0.5557   -1.7185 C   0  0  0  0  0  0  0  0  0  0  0  0
    3.4962   -0.0432   -2.4231 C   0  0  0  0  0  0  0  0  0  0  0  0
   -2.8579    0.5795    2.3186 C   0  0  0  0  0  0  0  0  0  0  0  0
   -4.1290    0.4984    2.8929 C   0  0  0  0  0  0  0  0  0  0  0  0
   -7.5679   -0.9074    1.4882 H   0  0  0  0  0  0  0  0  0  0  0  0
   -7.0455   -2.2452    2.5852 H   0  0  0  0  0  0  0  0  0  0  0  0
   -8.2129   -1.0347    3.1291 H   0  0  0  0  0  0  0  0  0  0  0  0
   -5.4756   -1.8763    0.8594 H   0  0  0  0  0  0  0  0  0  0  0  0
   -3.2619   -1.7334   -0.1438 H   0  0  0  0  0  0  0  0  0  0  0  0
   -0.7873   -1.1673    0.4137 H   0  0  0  0  0  0  0  0  0  0  0  0
   -0.4593    0.3212    1.3099 H   0  0  0  0  0  0  0  0  0  0  0  0
    2.7075    1.9579   -4.3233 H   0  0  0  0  0  0  0  0  0  0  0  0
    1.0428    2.3338   -4.3968 H   0  0  0  0  0  0  0  0  0  0  0  0
    2.5371    2.3942   -0.2388 H   0  0  0  0  0  0  0  0  0  0  0  0
    4.4793    1.4779    1.0059 H   0  0  0  0  0  0  0  0  0  0  0  0
    7.5618   -1.6955    0.5611 H   0  0  0  0  0  0  0  0  0  0  0  0
    7.2731   -1.2320   -1.1203 H   0  0  0  0  0  0  0  0  0  0  0  0
    6.1830   -2.4073   -0.2861 H   0  0  0  0  0  0  0  0  0  0  0  0
    5.1417   -1.3797   -2.1597 H   0  0  0  0  0  0  0  0  0  0  0  0
    3.2163   -0.4775   -3.3789 H   0  0  0  0  0  0  0  0  0  0  0  0
   -2.1377    1.2809    2.7331 H   0  0  0  0  0  0  0  0  0  0  0  0
   -4.3771    1.1315    3.7412 H   0  0  0  0  0  0  0  0  0  0  0  0
  1  2  1  0
  2  3  1  0
  3  4  2  0
  4  5  1  0
  5  6  2  0
  6  7  1  0
  7  8  1  0
  8  9  2  0
  8 10  1  0
 10 11  1  0
 11 12  2  3
 12 13  1  0
 12 14  1  0
 14 15  2  0
 15 16  1  0
 16 17  2  0
 17 18  1  0
 18 19  1  0
 17 20  1  0
 20 21  2  0
  6 22  1  0
 22 23  2  0
 23  3  1  0
 21 14  1  0
  1 24  1  0
  1 25  1  0
  1 26  1  0
  4 27  1  0
  5 28  1  0
  7 29  1  0
  7 30  1  0
 13 31  1  0
 13 32  1  0
 15 33  1  0
 16 34  1  0
 19 35  1  0
 19 36  1  0
 19 37  1  0
 20 38  1  0
 21 39  1  0
 22 40  1  0
 23 41  1  0
M  END
$$$$
