
     RDKit          3D

 62 65  0  0  0  0  0  0  0  0999 V2000
    0.0503    2.9913   -0.8744 C   0  0  0  0  0  0  0  0  0  0  0  0
   -0.1624    1.6222   -0.5373 O   0  0  0  0  0  0  0  0  0  0  0  0
    0.9576    0.8229   -0.5335 C   0  0  0  0  0  0  0  0  0  0  0  0
    2.1231    1.0979   -1.2536 C   0  0  0  0  0  0  0  0  0  0  0  0
    3.2050    0.2154   -1.1934 C   0  0  0  0  0  0  0  0  0  0  0  0
    3.1240   -0.9270   -0.3946 C   0  0  0  0  0  0  0  0  0  0  0  0
    4.4834   -2.0785   -0.3530 S   0  0  0  0  0  6  0  0  0  0  0  0
    5.2938   -1.8275   -1.5272 O   0  0  0  0  0  0  0  0  0  0  0  0
    3.9409   -3.3937   -0.0920 O   0  0  0  0  0  0  0  0  0  0  0  0
    5.3652   -1.5866    0.9995 N   0  0  0  0  0  0  0  0  0  0  0  0
    6.1366   -0.3150    0.9198 C   0  0  0  0  0  0  0  0  0  0  0  0
    5.6506    0.6808    1.9774 C   0  0  0  0  0  0  0  0  0  0  0  0
    5.7730    0.1946    3.3210 O   0  0  0  0  0  0  0  0  0  0  0  0
    5.6882   -1.2382    3.4219 C   0  0  0  0  0  0  0  0  0  0  0  0
    4.7887   -1.8593    2.3469 C   0  0  0  0  0  0  0  0  0  0  0  0
    1.9479   -1.2341    0.2952 C   0  0  0  0  0  0  0  0  0  0  0  0
    0.8615   -0.3617    0.2297 C   0  0  0  0  0  0  0  0  0  0  0  0
   -0.3713   -0.6232    0.8618 N   0  0  0  0  0  0  0  0  0  0  0  0
   -0.6750   -1.6433    1.7438 C   0  0  0  0  0  0  0  0  0  0  0  0
    0.1410   -2.3557    2.3231 O   0  0  0  0  0  0  0  0  0  0  0  0
   -2.1770   -1.7676    2.0299 C   0  0  0  0  0  0  0  0  0  0  0  0
   -3.0451   -1.2695    1.0082 O   0  0  0  0  0  0  0  0  0  0  0  0
   -3.0544   -2.0069   -0.1350 C   0  0  0  0  0  0  0  0  0  0  0  0
   -2.3809   -3.0075   -0.3256 O   0  0  0  0  0  0  0  0  0  0  0  0
   -4.0116   -1.4358   -1.1508 C   0  0  0  0  0  0  0  0  0  0  0  0
   -3.5827   -0.0616   -1.6654 C   0  0  0  0  0  0  0  0  0  0  0  0
   -4.3860    0.3832   -2.9103 C   0  0  0  0  0  0  0  0  0  0  0  0
   -4.8538    1.8007   -2.5405 C   0  0  0  0  0  0  0  0  0  0  0  0
   -5.9704    1.6906   -1.4872 C   0  0  0  0  0  0  0  0  0  0  0  0
   -5.2066    1.2875   -0.2187 C   0  0  0  0  0  0  0  0  0  0  0  0
   -3.7583    1.1516   -0.7155 C   0  0  0  0  0  0  0  0  0  0  0  0
   -3.6809    2.3152   -1.7106 C   0  0  0  0  0  0  0  0  0  0  0  0
    0.2091    3.1039   -1.9513 H   0  0  0  0  0  0  0  0  0  0  0  0
    0.8797    3.4232   -0.3034 H   0  0  0  0  0  0  0  0  0  0  0  0
   -0.8558    3.5449   -0.6108 H   0  0  0  0  0  0  0  0  0  0  0  0
    2.2057    1.9728   -1.8902 H   0  0  0  0  0  0  0  0  0  0  0  0
    4.0997    0.4215   -1.7791 H   0  0  0  0  0  0  0  0  0  0  0  0
    7.1898   -0.5667    1.0934 H   0  0  0  0  0  0  0  0  0  0  0  0
    6.0722    0.1409   -0.0697 H   0  0  0  0  0  0  0  0  0  0  0  0
    4.5987    0.9353    1.8115 H   0  0  0  0  0  0  0  0  0  0  0  0
    6.2307    1.6083    1.9058 H   0  0  0  0  0  0  0  0  0  0  0  0
    6.7078   -1.6348    3.3545 H   0  0  0  0  0  0  0  0  0  0  0  0
    5.3114   -1.4720    4.4255 H   0  0  0  0  0  0  0  0  0  0  0  0
    4.7250   -2.9427    2.5016 H   0  0  0  0  0  0  0  0  0  0  0  0
    3.7889   -1.4210    2.4280 H   0  0  0  0  0  0  0  0  0  0  0  0
    1.8902   -2.1640    0.8530 H   0  0  0  0  0  0  0  0  0  0  0  0
   -1.1096    0.0328    0.6272 H   0  0  0  0  0  0  0  0  0  0  0  0
   -2.3858   -1.1894    2.9371 H   0  0  0  0  0  0  0  0  0  0  0  0
   -2.4205   -2.8157    2.2403 H   0  0  0  0  0  0  0  0  0  0  0  0
   -4.0196   -2.1418   -1.9943 H   0  0  0  0  0  0  0  0  0  0  0  0
   -5.0266   -1.4524   -0.7392 H   0  0  0  0  0  0  0  0  0  0  0  0
   -2.5214   -0.1188   -1.9482 H   0  0  0  0  0  0  0  0  0  0  0  0
   -5.2240   -0.2820   -3.1535 H   0  0  0  0  0  0  0  0  0  0  0  0
   -3.7211    0.4190   -3.7811 H   0  0  0  0  0  0  0  0  0  0  0  0
   -5.1240    2.4102   -3.4045 H   0  0  0  0  0  0  0  0  0  0  0  0
   -6.4664    2.6563   -1.3348 H   0  0  0  0  0  0  0  0  0  0  0  0
   -6.7323    0.9526   -1.7632 H   0  0  0  0  0  0  0  0  0  0  0  0
   -5.2766    2.0903    0.5250 H   0  0  0  0  0  0  0  0  0  0  0  0
   -5.6112    0.3842    0.2434 H   0  0  0  0  0  0  0  0  0  0  0  0
   -3.0184    1.2015    0.0833 H   0  0  0  0  0  0  0  0  0  0  0  0
   -2.7387    2.3495   -2.2694 H   0  0  0  0  0  0  0  0  0  0  0  0
   -3.8715    3.2933   -1.2545 H   0  0  0  0  0  0  0  0  0  0  0  0
  1  2  1  0
  2  3  1  0
  3  4  2  0
  4  5  1  0
  5  6  2  0
  6  7  1  0
  7  8  2  0
  7  9  2  0
  7 10  1  0
 10 11  1  0
 11 12  1  0
 12 13  1  0
 13 14  1  0
 14 15  1  0
  6 16  1  0
 16 17  2  0
 17 18  1  0
 18 19  1  0
 19 20  2  0
 19 21  1  0
 21 22  1  0
 22 23  1  0
 23 24  2  0
 23 25  1  0
 25 26  1  0
 26 27  1  0
 27 28  1  0
 28 29  1  0
 29 30  1  0
 30 31  1  0
 31 32  1  0
 17  3  1  0
 31 26  1  0
 15 10  1  0
 32 28  1  0
  1 33  1  0
  1 34  1  0
  1 35  1  0
  4 36  1  0
  5 37  1  0
 11 38  1  0
 11 39  1  0
 12 40  1  0
 12 41  1  0
 14 42  1  0
 14 43  1  0
 15 44  1  0
 15 45  1  0
 16 46  1  0
 18 47  1  0
 21 48  1  0
 21 49  1  0
 25 50  1  0
 25 51  1  0
 26 52  1  0
 27 53  1  0
 27 54  1  0
 28 55  1  0
 29 56  1  0
 29 57  1  0
 30 58  1  0
 30 59  1  0
 31 60  1  0
 32 61  1  0
 32 62  1  0
M  END
$$$$
