
     RDKit          3D

 60 64  0  0  0  0  0  0  0  0999 V2000
   -2.4268   -1.0702   -1.3453 O   0  0  0  0  0  0  0  0  0  0  0  0
   -2.6848   -0.0576   -0.6951 C   0  0  0  0  0  0  0  0  0  0  0  0
   -1.9021    1.2318   -0.8880 C   0  0  0  0  0  0  0  0  0  0  0  0
   -0.8809    1.1607   -2.0294 C   0  0  0  0  0  0  0  0  0  0  0  0
    0.2075    0.2047   -1.8185 N   0  0  0  0  0  0  0  0  0  0  0  0
    0.4344   -0.7304   -2.8189 C   0  0  0  0  0  0  0  0  0  0  0  0
   -0.1057   -0.7132   -3.9233 O   0  0  0  0  0  0  0  0  0  0  0  0
    1.4276   -1.7730   -2.5283 C   0  0  0  0  0  0  0  0  0  0  0  0
    1.5538   -2.8641   -3.4030 C   0  0  0  0  0  0  0  0  0  0  0  0
    2.4887   -3.8604   -3.1442 C   0  0  0  0  0  0  0  0  0  0  0  0
    3.2933   -3.7639   -2.0152 C   0  0  0  0  0  0  0  0  0  0  0  0
    3.1657   -2.6712   -1.1486 C   0  0  0  0  0  0  0  0  0  0  0  0
    2.2299   -1.6538   -1.3948 C   0  0  0  0  0  0  0  0  0  0  0  0
    2.0850   -0.5117   -0.5563 N   0  0  0  0  0  0  0  0  0  0  0  0
    2.9988   -0.2828    0.5668 C   0  0  0  0  0  0  0  0  0  0  0  0
    4.3631    0.2305    0.1449 C   0  0  0  0  0  0  0  0  0  0  0  0
    4.4867    1.3883   -0.6417 C   0  0  0  0  0  0  0  0  0  0  0  0
    5.7420    1.8697   -1.0238 C   0  0  0  0  0  0  0  0  0  0  0  0
    6.8997    1.2067   -0.6195 C   0  0  0  0  0  0  0  0  0  0  0  0
    6.7893    0.0612    0.1771 C   0  0  0  0  0  0  0  0  0  0  0  0
    8.0022   -0.6399    0.6148 N   0  0  0  0  0  4  0  0  0  0  0  0
    7.8609   -1.7319    1.1856 O   0  0  0  0  0  0  0  0  0  0  0  0
    9.0937   -0.1003    0.3875 O   0  0  0  0  0  1  0  0  0  0  0  0
    5.5316   -0.4252    0.5662 C   0  0  0  0  0  0  0  0  0  0  0  0
    1.0964    0.4433   -0.7811 C   0  0  0  0  0  0  0  0  0  0  0  0
    1.0221    1.4693   -0.0980 O   0  0  0  0  0  0  0  0  0  0  0  0
   -3.6847   -0.0402    0.2766 N   0  0  0  0  0  0  0  0  0  0  0  0
   -4.5435   -1.2164    0.4003 C   0  0  0  0  0  0  0  0  0  0  0  0
   -4.9079   -1.4908    1.8563 C   0  0  0  0  0  0  0  0  0  0  0  0
   -5.4697   -0.2613    2.5206 C   0  0  0  0  0  0  0  0  0  0  0  0
   -6.3082   -0.3853    3.6370 C   0  0  0  0  0  0  0  0  0  0  0  0
   -6.8103    0.7512    4.2715 C   0  0  0  0  0  0  0  0  0  0  0  0
   -6.4709    2.0186    3.8032 C   0  0  0  0  0  0  0  0  0  0  0  0
   -5.6252    2.1509    2.7014 C   0  0  0  0  0  0  0  0  0  0  0  0
   -5.1109    1.0155    2.0533 C   0  0  0  0  0  0  0  0  0  0  0  0
   -4.1974    1.1990    0.8634 C   0  0  0  0  0  0  0  0  0  0  0  0
   -1.4144    1.4788    0.0594 H   0  0  0  0  0  0  0  0  0  0  0  0
   -2.6107    2.0326   -1.1288 H   0  0  0  0  0  0  0  0  0  0  0  0
   -0.4236    2.1507   -2.1523 H   0  0  0  0  0  0  0  0  0  0  0  0
   -1.4135    0.9425   -2.9617 H   0  0  0  0  0  0  0  0  0  0  0  0
    0.9182   -2.9368   -4.2837 H   0  0  0  0  0  0  0  0  0  0  0  0
    2.5856   -4.7071   -3.8186 H   0  0  0  0  0  0  0  0  0  0  0  0
    4.0256   -4.5405   -1.8046 H   0  0  0  0  0  0  0  0  0  0  0  0
    3.8189   -2.6576   -0.2837 H   0  0  0  0  0  0  0  0  0  0  0  0
    3.0784   -1.2075    1.1506 H   0  0  0  0  0  0  0  0  0  0  0  0
    2.5765    0.4486    1.2671 H   0  0  0  0  0  0  0  0  0  0  0  0
    3.5978    1.9332   -0.9601 H   0  0  0  0  0  0  0  0  0  0  0  0
    5.8132    2.7675   -1.6343 H   0  0  0  0  0  0  0  0  0  0  0  0
    7.8688    1.5946   -0.9261 H   0  0  0  0  0  0  0  0  0  0  0  0
    5.4565   -1.3096    1.1970 H   0  0  0  0  0  0  0  0  0  0  0  0
   -5.4426   -1.0249   -0.1999 H   0  0  0  0  0  0  0  0  0  0  0  0
   -4.0581   -2.1042   -0.0193 H   0  0  0  0  0  0  0  0  0  0  0  0
   -4.0160   -1.8021    2.4135 H   0  0  0  0  0  0  0  0  0  0  0  0
   -5.6339   -2.3111    1.8939 H   0  0  0  0  0  0  0  0  0  0  0  0
   -6.5753   -1.3696    4.0170 H   0  0  0  0  0  0  0  0  0  0  0  0
   -7.4648    0.6476    5.1332 H   0  0  0  0  0  0  0  0  0  0  0  0
   -6.8623    2.9044    4.2987 H   0  0  0  0  0  0  0  0  0  0  0  0
   -5.3671    3.1490    2.3514 H   0  0  0  0  0  0  0  0  0  0  0  0
   -3.3522    1.8249    1.1665 H   0  0  0  0  0  0  0  0  0  0  0  0
   -4.7487    1.7203    0.0714 H   0  0  0  0  0  0  0  0  0  0  0  0
  1  2  2  0
  2  3  1  0
  3  4  1  0
  4  5  1  0
  5  6  1  0
  6  7  2  0
  6  8  1  0
  8  9  2  0
  9 10  1  0
 10 11  2  0
 11 12  1  0
 12 13  2  0
 13 14  1  0
 14 15  1  0
 15 16  1  0
 16 17  2  0
 17 18  1  0
 18 19  2  0
 19 20  1  0
 20 21  1  0
 21 22  2  0
 21 23  1  0
 20 24  2  0
 14 25  1  0
 25 26  2  0
  2 27  1  0
 27 28  1  0
 28 29  1  0
 29 30  1  0
 30 31  2  0
 31 32  1  0
 32 33  2  0
 33 34  1  0
 34 35  2  0
 35 36  1  0
 25  5  1  0
 36 27  1  0
 13  8  1  0
 24 16  1  0
 35 30  1  0
  3 37  1  0
  3 38  1  0
  4 39  1  0
  4 40  1  0
  9 41  1  0
 10 42  1  0
 11 43  1  0
 12 44  1  0
 15 45  1  0
 15 46  1  0
 17 47  1  0
 18 48  1  0
 19 49  1  0
 24 50  1  0
 28 51  1  0
 28 52  1  0
 29 53  1  0
 29 54  1  0
 31 55  1  0
 32 56  1  0
 33 57  1  0
 34 58  1  0
 36 59  1  0
 36 60  1  0
M  CHG  2  21   1  23  -1
M  END
$$$$
