
     RDKit          3D

 41 42  0  0  0  0  0  0  0  0999 V2000
   -3.7679   -1.2022    1.1113 C   0  0  0  0  0  0  0  0  0  0  0  0
   -3.5773    0.2883    1.3533 C   0  0  0  0  0  0  0  0  0  0  0  0
   -2.5201    0.8491    0.4880 N   0  0  0  0  0  0  0  0  0  0  0  0
   -3.0197    1.7693   -0.5545 C   0  0  0  0  0  0  0  0  0  0  0  0
   -3.5101    1.0090   -1.7765 C   0  0  0  0  0  0  0  0  0  0  0  0
   -1.1501    0.5448    0.6313 C   0  0  0  0  0  0  0  0  0  0  0  0
   -0.2285    0.7345   -0.3370 C   0  0  0  0  0  0  0  0  0  0  0  0
    1.1671    0.3689   -0.1831 C   0  0  0  0  0  0  0  0  0  0  0  0
    1.8789   -0.0717   -1.2379 C   0  0  0  0  0  0  0  0  0  0  0  0
    3.2518   -0.5805   -1.1387 C   0  0  0  0  0  0  0  0  0  0  0  0
    3.9619   -1.0010   -2.2175 C   0  0  0  0  0  0  0  0  0  0  0  0
    5.3003   -1.4765   -2.0837 C   0  0  0  0  0  0  0  0  0  0  0  0
    6.3887   -1.8593   -1.9582 N   0  0  0  0  0  0  0  0  0  0  0  0
    3.4312   -0.9739   -3.5411 C   0  0  0  0  0  0  0  0  0  0  0  0
    2.9906   -0.9475   -4.6147 N   0  0  0  0  0  0  0  0  0  0  0  0
    3.8305   -0.6267    0.2731 C   0  0  0  0  0  0  0  0  0  0  0  0
    2.7687   -0.7080    1.3760 C   0  0  0  0  0  0  0  0  0  0  0  0
    1.7561    0.4287    1.2073 C   0  0  0  0  0  0  0  0  0  0  0  0
    0.7185    0.4567    2.3385 C   0  0  0  0  0  0  0  0  0  0  0  0
   -0.6565   -0.0718    1.9341 C   0  0  0  0  0  0  0  0  0  0  0  0
   -2.8747   -1.7759    1.3727 H   0  0  0  0  0  0  0  0  0  0  0  0
   -4.5955   -1.5787    1.7209 H   0  0  0  0  0  0  0  0  0  0  0  0
   -3.9994   -1.4082    0.0617 H   0  0  0  0  0  0  0  0  0  0  0  0
   -4.5359    0.7857    1.1599 H   0  0  0  0  0  0  0  0  0  0  0  0
   -3.3614    0.4839    2.4083 H   0  0  0  0  0  0  0  0  0  0  0  0
   -2.2437    2.4864   -0.8470 H   0  0  0  0  0  0  0  0  0  0  0  0
   -3.8363    2.3832   -0.1546 H   0  0  0  0  0  0  0  0  0  0  0  0
   -4.3736    0.3826   -1.5322 H   0  0  0  0  0  0  0  0  0  0  0  0
   -2.7307    0.3596   -2.1869 H   0  0  0  0  0  0  0  0  0  0  0  0
   -3.8172    1.7102   -2.5588 H   0  0  0  0  0  0  0  0  0  0  0  0
   -0.5283    1.0910   -1.3171 H   0  0  0  0  0  0  0  0  0  0  0  0
    1.3890   -0.0989   -2.2110 H   0  0  0  0  0  0  0  0  0  0  0  0
    4.4329    0.2786    0.4271 H   0  0  0  0  0  0  0  0  0  0  0  0
    4.4996   -1.4856    0.3997 H   0  0  0  0  0  0  0  0  0  0  0  0
    2.2638   -1.6826    1.3405 H   0  0  0  0  0  0  0  0  0  0  0  0
    3.2614   -0.6365    2.3531 H   0  0  0  0  0  0  0  0  0  0  0  0
    2.3147    1.3741    1.2814 H   0  0  0  0  0  0  0  0  0  0  0  0
    0.5950    1.5007    2.6606 H   0  0  0  0  0  0  0  0  0  0  0  0
    1.0790   -0.0835    3.2222 H   0  0  0  0  0  0  0  0  0  0  0  0
   -1.3320    0.1460    2.7659 H   0  0  0  0  0  0  0  0  0  0  0  0
   -0.6209   -1.1626    1.8249 H   0  0  0  0  0  0  0  0  0  0  0  0
  1  2  1  0
  2  3  1  0
  3  4  1  0
  4  5  1  0
  3  6  1  0
  6  7  2  0
  7  8  1  0
  8  9  2  0
  9 10  1  0
 10 11  2  3
 11 12  1  0
 12 13  3  0
 11 14  1  0
 14 15  3  0
 10 16  1  0
 16 17  1  0
 17 18  1  0
 18 19  1  0
 19 20  1  0
 20  6  1  0
 18  8  1  0
  1 21  1  0
  1 22  1  0
  1 23  1  0
  2 24  1  0
  2 25  1  0
  4 26  1  0
  4 27  1  0
  5 28  1  0
  5 29  1  0
  5 30  1  0
  7 31  1  0
  9 32  1  0
 16 33  1  0
 16 34  1  0
 17 35  1  0
 17 36  1  0
 18 37  1  0
 19 38  1  0
 19 39  1  0
 20 40  1  0
 20 41  1  0
M  END
$$$$
