
     RDKit          3D

 57 60  0  0  0  0  0  0  0  0999 V2000
   -5.8792    3.0123   -0.4999 C   0  0  0  0  0  0  0  0  0  0  0  0
   -5.5759    1.8344    0.3463 C   0  0  0  0  0  0  0  0  0  0  0  0
   -6.5589    1.2257    1.0180 N   0  0  0  0  0  0  0  0  0  0  0  0
   -5.9598    0.1867    1.7014 O   0  0  0  0  0  0  0  0  0  0  0  0
   -4.6258    0.1797    1.4429 C   0  0  0  0  0  0  0  0  0  0  0  0
   -3.8459   -0.8835    2.1070 C   0  0  0  0  0  0  0  0  0  0  0  0
   -4.3191    1.2071    0.5742 C   0  0  0  0  0  0  0  0  0  0  0  0
   -2.9943    1.5913    0.0166 C   0  0  0  0  0  0  0  0  0  0  0  0
   -2.1356    0.4847   -0.2850 O   0  0  0  0  0  0  0  0  0  0  0  0
   -2.4592   -0.3435   -1.3252 C   0  0  0  0  0  0  0  0  0  0  0  0
   -3.3150   -0.0054   -2.3770 C   0  0  0  0  0  0  0  0  0  0  0  0
   -3.5975   -0.9330   -3.3873 C   0  0  0  0  0  0  0  0  0  0  0  0
   -3.0312   -2.2066   -3.3586 C   0  0  0  0  0  0  0  0  0  0  0  0
   -2.1692   -2.5550   -2.3227 C   0  0  0  0  0  0  0  0  0  0  0  0
   -1.8713   -1.6189   -1.3247 C   0  0  0  0  0  0  0  0  0  0  0  0
   -0.9697   -2.0499   -0.2364 C   0  0  0  0  0  0  0  0  0  0  0  0
   -1.3869   -2.8959    0.5515 O   0  0  0  0  0  0  0  0  0  0  0  0
    0.3076   -1.5088   -0.1772 N   0  0  0  0  0  0  0  0  0  0  0  0
    0.8823   -0.6003   -1.1756 C   0  0  0  0  0  0  0  0  0  0  0  0
    2.4217   -0.6491   -1.2191 C   0  0  0  0  0  0  0  0  0  0  0  0
    3.0090   -0.3931    0.1067 N   0  0  0  0  0  0  0  0  0  0  0  0
    4.3120    0.0587    0.2487 C   0  0  0  0  0  0  0  0  0  0  0  0
    5.2494   -0.0248   -0.7927 C   0  0  0  0  0  0  0  0  0  0  0  0
    6.5627    0.4380   -0.6512 C   0  0  0  0  0  0  0  0  0  0  0  0
    6.9766    1.0054    0.5480 C   0  0  0  0  0  0  0  0  0  0  0  0
    6.0795    1.1079    1.6148 C   0  0  0  0  0  0  0  0  0  0  0  0
    6.5015    1.7506    2.9110 C   0  0  0  0  0  0  0  0  0  0  0  0
    6.3520    3.1042    2.8914 F   0  0  0  0  0  0  0  0  0  0  0  0
    7.8104    1.5250    3.2172 F   0  0  0  0  0  0  0  0  0  0  0  0
    5.7899    1.3121    3.9877 F   0  0  0  0  0  0  0  0  0  0  0  0
    4.7607    0.6413    1.4462 C   0  0  0  0  0  0  0  0  0  0  0  0
    2.2178   -0.8083    1.2828 C   0  0  0  0  0  0  0  0  0  0  0  0
    1.1819   -1.8907    0.9306 C   0  0  0  0  0  0  0  0  0  0  0  0
   -5.6450    2.7989   -1.5479 H   0  0  0  0  0  0  0  0  0  0  0  0
   -6.9360    3.2920   -0.4413 H   0  0  0  0  0  0  0  0  0  0  0  0
   -5.2843    3.8742   -0.1817 H   0  0  0  0  0  0  0  0  0  0  0  0
   -2.7900   -0.6095    2.1881 H   0  0  0  0  0  0  0  0  0  0  0  0
   -3.9204   -1.8170    1.5414 H   0  0  0  0  0  0  0  0  0  0  0  0
   -4.2210   -1.0649    3.1189 H   0  0  0  0  0  0  0  0  0  0  0  0
   -2.4707    2.1772    0.7825 H   0  0  0  0  0  0  0  0  0  0  0  0
   -3.0776    2.2573   -0.8495 H   0  0  0  0  0  0  0  0  0  0  0  0
   -3.7868    0.9686   -2.4453 H   0  0  0  0  0  0  0  0  0  0  0  0
   -4.2746   -0.6624   -4.1950 H   0  0  0  0  0  0  0  0  0  0  0  0
   -3.2693   -2.9281   -4.1361 H   0  0  0  0  0  0  0  0  0  0  0  0
   -1.7358   -3.5518   -2.2829 H   0  0  0  0  0  0  0  0  0  0  0  0
    0.4812   -0.8317   -2.1671 H   0  0  0  0  0  0  0  0  0  0  0  0
    0.5573    0.4116   -0.9067 H   0  0  0  0  0  0  0  0  0  0  0  0
    2.7534    0.1035   -1.9443 H   0  0  0  0  0  0  0  0  0  0  0  0
    2.7482   -1.6350   -1.5723 H   0  0  0  0  0  0  0  0  0  0  0  0
    4.9815   -0.4781   -1.7431 H   0  0  0  0  0  0  0  0  0  0  0  0
    7.2588    0.3503   -1.4815 H   0  0  0  0  0  0  0  0  0  0  0  0
    7.9980    1.3677    0.6486 H   0  0  0  0  0  0  0  0  0  0  0  0
    4.0686    0.7651    2.2774 H   0  0  0  0  0  0  0  0  0  0  0  0
    2.8641   -1.2174    2.0686 H   0  0  0  0  0  0  0  0  0  0  0  0
    1.7031    0.0725    1.6861 H   0  0  0  0  0  0  0  0  0  0  0  0
    1.6948   -2.8102    0.6217 H   0  0  0  0  0  0  0  0  0  0  0  0
    0.5822   -2.1316    1.8152 H   0  0  0  0  0  0  0  0  0  0  0  0
  1  2  1  0
  2  3  2  0
  3  4  1  0
  4  5  1  0
  5  6  1  0
  5  7  2  0
  7  8  1  0
  8  9  1  0
  9 10  1  0
 10 11  2  0
 11 12  1  0
 12 13  2  0
 13 14  1  0
 14 15  2  0
 15 16  1  0
 16 17  2  0
 16 18  1  0
 18 19  1  0
 19 20  1  0
 20 21  1  0
 21 22  1  0
 22 23  2  0
 23 24  1  0
 24 25  2  0
 25 26  1  0
 26 27  1  0
 27 28  1  0
 27 29  1  0
 27 30  1  0
 26 31  2  0
 21 32  1  0
 32 33  1  0
  7  2  1  0
 15 10  1  0
 33 18  1  0
 31 22  1  0
  1 34  1  0
  1 35  1  0
  1 36  1  0
  6 37  1  0
  6 38  1  0
  6 39  1  0
  8 40  1  0
  8 41  1  0
 11 42  1  0
 12 43  1  0
 13 44  1  0
 14 45  1  0
 19 46  1  0
 19 47  1  0
 20 48  1  0
 20 49  1  0
 23 50  1  0
 24 51  1  0
 25 52  1  0
 31 53  1  0
 32 54  1  0
 32 55  1  0
 33 56  1  0
 33 57  1  0
M  END
$$$$
