
     RDKit          3D

 43 45  0  0  0  0  0  0  0  0999 V2000
    5.2047   -3.0880   -0.6158 C   0  0  0  0  0  0  0  0  0  0  0  0
    3.9649   -2.3923   -0.5765 O   0  0  0  0  0  0  0  0  0  0  0  0
    4.0110   -1.0583   -0.2686 C   0  0  0  0  0  0  0  0  0  0  0  0
    5.1584   -0.3274    0.0202 C   0  0  0  0  0  0  0  0  0  0  0  0
    5.0834    1.0371    0.3181 C   0  0  0  0  0  0  0  0  0  0  0  0
    3.8216    1.6433    0.3204 C   0  0  0  0  0  0  0  0  0  0  0  0
    3.4838    2.9510    0.5698 N   0  0  0  0  0  0  0  0  0  0  0  0
    2.1345    3.1129    0.4636 C   0  0  0  0  0  0  0  0  0  0  0  0
    1.5558    1.8937    0.1442 C   0  0  0  0  0  0  0  0  0  0  0  0
    0.1005    1.7395   -0.0324 C   0  0  0  0  0  0  0  0  0  0  0  0
   -0.6237    2.7371   -0.0029 O   0  0  0  0  0  0  0  0  0  0  0  0
   -0.4561    0.3229   -0.2503 C   0  0  0  0  0  0  0  0  0  0  0  0
   -1.9349    0.2625   -0.2631 N   0  0  0  0  0  0  0  0  0  0  0  0
   -2.3993   -1.0050   -0.8489 C   0  0  0  0  0  0  0  0  0  0  0  0
   -3.8375   -1.3814   -0.4604 C   0  0  0  0  0  0  0  0  0  0  0  0
   -4.6827   -0.1380   -0.1815 C   0  0  0  0  0  0  0  0  0  0  0  0
   -6.1240   -0.5030    0.1618 C   0  0  0  0  0  0  0  0  0  0  0  0
   -4.0373    0.7010    0.9363 C   0  0  0  0  0  0  0  0  0  0  0  0
   -2.5223    0.4848    1.0589 C   0  0  0  0  0  0  0  0  0  0  0  0
    2.6392    0.9492    0.0436 C   0  0  0  0  0  0  0  0  0  0  0  0
    2.7573   -0.4271   -0.2594 C   0  0  0  0  0  0  0  0  0  0  0  0
    4.9952   -4.1293   -0.8791 H   0  0  0  0  0  0  0  0  0  0  0  0
    5.8644   -2.6761   -1.3866 H   0  0  0  0  0  0  0  0  0  0  0  0
    5.6906   -3.0842    0.3655 H   0  0  0  0  0  0  0  0  0  0  0  0
    6.1414   -0.7875    0.0211 H   0  0  0  0  0  0  0  0  0  0  0  0
    5.9830    1.6038    0.5382 H   0  0  0  0  0  0  0  0  0  0  0  0
    4.1431    3.6840    0.7941 H   0  0  0  0  0  0  0  0  0  0  0  0
    1.6774    4.0819    0.6236 H   0  0  0  0  0  0  0  0  0  0  0  0
   -0.0668   -0.3423    0.5284 H   0  0  0  0  0  0  0  0  0  0  0  0
   -0.0821    0.0002   -1.2296 H   0  0  0  0  0  0  0  0  0  0  0  0
   -1.7467   -1.8402   -0.5622 H   0  0  0  0  0  0  0  0  0  0  0  0
   -2.3389   -0.9147   -1.9403 H   0  0  0  0  0  0  0  0  0  0  0  0
   -4.2854   -1.9816   -1.2613 H   0  0  0  0  0  0  0  0  0  0  0  0
   -3.8165   -2.0156    0.4359 H   0  0  0  0  0  0  0  0  0  0  0  0
   -4.7043    0.4698   -1.0966 H   0  0  0  0  0  0  0  0  0  0  0  0
   -6.1736   -1.1304    1.0581 H   0  0  0  0  0  0  0  0  0  0  0  0
   -6.5910   -1.0536   -0.6616 H   0  0  0  0  0  0  0  0  0  0  0  0
   -6.7189    0.3981    0.3439 H   0  0  0  0  0  0  0  0  0  0  0  0
   -4.2433    1.7604    0.7355 H   0  0  0  0  0  0  0  0  0  0  0  0
   -4.4954    0.4765    1.9076 H   0  0  0  0  0  0  0  0  0  0  0  0
   -2.3167   -0.3689    1.7186 H   0  0  0  0  0  0  0  0  0  0  0  0
   -2.0998    1.3649    1.5558 H   0  0  0  0  0  0  0  0  0  0  0  0
    1.8872   -1.0296   -0.4972 H   0  0  0  0  0  0  0  0  0  0  0  0
  1  2  1  0
  2  3  1  0
  3  4  2  0
  4  5  1  0
  5  6  2  0
  6  7  1  0
  7  8  1  0
  8  9  2  0
  9 10  1  0
 10 11  2  0
 10 12  1  0
 12 13  1  0
 13 14  1  0
 14 15  1  0
 15 16  1  0
 16 17  1  0
 16 18  1  0
 18 19  1  0
  9 20  1  0
 20 21  2  0
 21  3  1  0
 20  6  1  0
 19 13  1  0
  1 22  1  0
  1 23  1  0
  1 24  1  0
  4 25  1  0
  5 26  1  0
  7 27  1  0
  8 28  1  0
 12 29  1  0
 12 30  1  0
 14 31  1  0
 14 32  1  0
 15 33  1  0
 15 34  1  0
 16 35  1  0
 17 36  1  0
 17 37  1  0
 17 38  1  0
 18 39  1  0
 18 40  1  0
 19 41  1  0
 19 42  1  0
 21 43  1  0
M  END
$$$$
