
     RDKit          3D

 48 51  0  0  0  0  0  0  0  0999 V2000
    7.2224   -1.3984    0.1010 C   0  0  0  0  0  0  0  0  0  0  0  0
    5.9319   -0.6759   -0.1453 C   0  0  0  0  0  0  0  0  0  0  0  0
    5.8341    0.6992    0.0701 C   0  0  0  0  0  0  0  0  0  0  0  0
    4.6342    1.3699   -0.1906 C   0  0  0  0  0  0  0  0  0  0  0  0
    3.5159    0.7069   -0.6757 C   0  0  0  0  0  0  0  0  0  0  0  0
    2.3892    1.3984   -0.9089 N   0  0  0  0  0  0  0  0  0  0  0  0
    1.3059    0.7348   -1.3790 C   0  0  0  0  0  0  0  0  0  0  0  0
   -0.1231    1.7670   -1.6546 S   0  0  0  0  0  0  0  0  0  0  0  0
   -0.4998    2.1613    0.0838 C   0  0  0  0  0  0  0  0  0  0  0  0
   -1.1093    0.9450    0.7712 C   0  0  0  0  0  0  0  0  0  0  0  0
   -0.3721    0.1788    1.3975 O   0  0  0  0  0  0  0  0  0  0  0  0
   -2.4719    0.7395    0.6021 N   0  0  0  0  0  0  0  0  0  0  0  0
   -3.1691   -0.4272    0.9903 C   0  0  0  0  0  0  0  0  0  0  0  0
   -2.7206   -1.5224    1.7092 C   0  0  0  0  0  0  0  0  0  0  0  0
   -3.6148   -2.5676    1.9652 C   0  0  0  0  0  0  0  0  0  0  0  0
   -4.9341   -2.5139    1.4935 C   0  0  0  0  0  0  0  0  0  0  0  0
   -5.3758   -1.4165    0.7546 C   0  0  0  0  0  0  0  0  0  0  0  0
   -4.4828   -0.3823    0.5162 C   0  0  0  0  0  0  0  0  0  0  0  0
   -4.7125    0.8390   -0.3158 C   0  0  0  0  0  0  0  0  0  0  0  0
   -3.4662    1.6838    0.0240 C   0  0  0  0  0  0  0  0  0  0  0  0
   -3.8282    2.7814    1.0334 C   0  0  0  0  0  0  0  0  0  0  0  0
    1.3023   -0.6328   -1.6556 C   0  0  0  0  0  0  0  0  0  0  0  0
    0.0965   -1.3590   -2.1730 C   0  0  0  0  0  0  0  0  0  0  0  0
    2.4849   -1.3371   -1.4068 C   0  0  0  0  0  0  0  0  0  0  0  0
    3.6149   -0.6763   -0.9098 C   0  0  0  0  0  0  0  0  0  0  0  0
    4.8189   -1.3573   -0.6487 C   0  0  0  0  0  0  0  0  0  0  0  0
    7.8298   -1.4005   -0.8093 H   0  0  0  0  0  0  0  0  0  0  0  0
    7.0378   -2.4337    0.4066 H   0  0  0  0  0  0  0  0  0  0  0  0
    7.7915   -0.9196    0.9049 H   0  0  0  0  0  0  0  0  0  0  0  0
    6.6857    1.2631    0.4440 H   0  0  0  0  0  0  0  0  0  0  0  0
    4.5710    2.4405   -0.0115 H   0  0  0  0  0  0  0  0  0  0  0  0
    0.4021    2.4644    0.6261 H   0  0  0  0  0  0  0  0  0  0  0  0
   -1.1724    3.0185    0.1113 H   0  0  0  0  0  0  0  0  0  0  0  0
   -1.7059   -1.5876    2.0857 H   0  0  0  0  0  0  0  0  0  0  0  0
   -3.2799   -3.4311    2.5351 H   0  0  0  0  0  0  0  0  0  0  0  0
   -5.6124   -3.3388    1.6980 H   0  0  0  0  0  0  0  0  0  0  0  0
   -6.3899   -1.3833    0.3694 H   0  0  0  0  0  0  0  0  0  0  0  0
   -5.6536    1.3423   -0.0756 H   0  0  0  0  0  0  0  0  0  0  0  0
   -4.7073    0.5585   -1.3750 H   0  0  0  0  0  0  0  0  0  0  0  0
   -3.0663    2.1487   -0.8823 H   0  0  0  0  0  0  0  0  0  0  0  0
   -4.5561    3.4754    0.6003 H   0  0  0  0  0  0  0  0  0  0  0  0
   -2.9520    3.3606    1.3374 H   0  0  0  0  0  0  0  0  0  0  0  0
   -4.2644    2.3580    1.9453 H   0  0  0  0  0  0  0  0  0  0  0  0
   -0.7217   -1.3117   -1.4475 H   0  0  0  0  0  0  0  0  0  0  0  0
   -0.2314   -0.9321   -3.1262 H   0  0  0  0  0  0  0  0  0  0  0  0
    0.3133   -2.4179   -2.3515 H   0  0  0  0  0  0  0  0  0  0  0  0
    2.5253   -2.4076   -1.5954 H   0  0  0  0  0  0  0  0  0  0  0  0
    4.8862   -2.4269   -0.8378 H   0  0  0  0  0  0  0  0  0  0  0  0
  1  2  1  0
  2  3  2  0
  3  4  1  0
  4  5  2  0
  5  6  1  0
  6  7  2  0
  7  8  1  0
  8  9  1  0
  9 10  1  0
 10 11  2  0
 10 12  1  0
 12 13  1  0
 13 14  2  0
 14 15  1  0
 15 16  2  0
 16 17  1  0
 17 18  2  0
 18 19  1  0
 19 20  1  0
 20 21  1  0
  7 22  1  0
 22 23  1  0
 22 24  2  0
 24 25  1  0
 25 26  2  0
 26  2  1  0
 25  5  1  0
 20 12  1  0
 18 13  1  0
  1 27  1  0
  1 28  1  0
  1 29  1  0
  3 30  1  0
  4 31  1  0
  9 32  1  0
  9 33  1  0
 14 34  1  0
 15 35  1  0
 16 36  1  0
 17 37  1  0
 19 38  1  0
 19 39  1  0
 20 40  1  0
 21 41  1  0
 21 42  1  0
 21 43  1  0
 23 44  1  0
 23 45  1  0
 23 46  1  0
 24 47  1  0
 26 48  1  0
M  END
$$$$
