
     RDKit          3D

 39 41  0  0  0  0  0  0  0  0999 V2000
   -2.9877    2.8598    0.9083 C   0  0  0  0  0  0  0  0  0  0  0  0
   -3.0195    1.6727    0.0086 C   0  0  0  0  0  0  0  0  0  0  0  0
   -4.1637    1.3368   -0.6619 N   0  0  0  0  0  0  0  0  0  0  0  0
   -3.9641    0.2175   -1.4280 C   0  0  0  0  0  0  0  0  0  0  0  0
   -4.8680   -0.4518   -2.2640 C   0  0  0  0  0  0  0  0  0  0  0  0
   -4.4119   -1.5726   -2.9559 C   0  0  0  0  0  0  0  0  0  0  0  0
   -3.0989   -2.0015   -2.8168 C   0  0  0  0  0  0  0  0  0  0  0  0
   -2.2083   -1.3195   -1.9758 C   0  0  0  0  0  0  0  0  0  0  0  0
   -2.6365   -0.1828   -1.2488 C   0  0  0  0  0  0  0  0  0  0  0  0
   -2.0313    0.7444   -0.3183 C   0  0  0  0  0  0  0  0  0  0  0  0
   -0.6623    0.8038    0.2353 C   0  0  0  0  0  0  0  0  0  0  0  0
   -0.2551    1.8370    0.7774 O   0  0  0  0  0  0  0  0  0  0  0  0
    0.2616   -0.4176    0.1451 C   0  0  0  0  0  0  0  0  0  0  0  0
   -0.2428   -1.5406    1.0435 C   0  0  0  0  0  0  0  0  0  0  0  0
    1.5721   -0.0295    0.6104 O   0  0  0  0  0  0  0  0  0  0  0  0
    2.6234   -0.7175    0.0886 C   0  0  0  0  0  0  0  0  0  0  0  0
    2.5164   -1.6458   -0.7021 O   0  0  0  0  0  0  0  0  0  0  0  0
    3.8569   -0.1807    0.6162 C   0  0  0  0  0  0  0  0  0  0  0  0
    4.1242    0.8736    1.4794 C   0  0  0  0  0  0  0  0  0  0  0  0
    5.5317    0.9381    1.6407 C   0  0  0  0  0  0  0  0  0  0  0  0
    6.0316   -0.0801    0.8659 C   0  0  0  0  0  0  0  0  0  0  0  0
    7.3704   -0.5172    0.6210 N   0  0  0  0  0  4  0  0  0  0  0  0
    8.2652    0.1171    1.1967 O   0  0  0  0  0  0  0  0  0  0  0  0
    7.5373   -1.4823   -0.1345 O   0  0  0  0  0  1  0  0  0  0  0  0
    5.0411   -0.7675    0.2391 O   0  0  0  0  0  0  0  0  0  0  0  0
   -2.6417    2.5760    1.9072 H   0  0  0  0  0  0  0  0  0  0  0  0
   -2.3161    3.6251    0.5069 H   0  0  0  0  0  0  0  0  0  0  0  0
   -3.9807    3.3089    1.0164 H   0  0  0  0  0  0  0  0  0  0  0  0
   -5.0384    1.8413   -0.6101 H   0  0  0  0  0  0  0  0  0  0  0  0
   -5.8927   -0.1115   -2.3776 H   0  0  0  0  0  0  0  0  0  0  0  0
   -5.0898   -2.1117   -3.6135 H   0  0  0  0  0  0  0  0  0  0  0  0
   -2.7548   -2.8741   -3.3676 H   0  0  0  0  0  0  0  0  0  0  0  0
   -1.1942   -1.6972   -1.9127 H   0  0  0  0  0  0  0  0  0  0  0  0
    0.3309   -0.7094   -0.9046 H   0  0  0  0  0  0  0  0  0  0  0  0
   -1.2495   -1.8709    0.7758 H   0  0  0  0  0  0  0  0  0  0  0  0
   -0.2645   -1.2158    2.0903 H   0  0  0  0  0  0  0  0  0  0  0  0
    0.4252   -2.4069    0.9974 H   0  0  0  0  0  0  0  0  0  0  0  0
    3.3805    1.5186    1.9319 H   0  0  0  0  0  0  0  0  0  0  0  0
    6.1039    1.6340    2.2396 H   0  0  0  0  0  0  0  0  0  0  0  0
  1  2  1  0
  2  3  1  0
  3  4  1  0
  4  5  2  0
  5  6  1  0
  6  7  2  0
  7  8  1  0
  8  9  2  0
  9 10  1  0
 10 11  1  0
 11 12  2  0
 11 13  1  0
 13 14  1  0
 13 15  1  0
 15 16  1  0
 16 17  2  0
 16 18  1  0
 18 19  2  0
 19 20  1  0
 20 21  2  0
 21 22  1  0
 22 23  2  0
 22 24  1  0
 21 25  1  0
 10  2  2  0
 25 18  1  0
  9  4  1  0
  1 26  1  0
  1 27  1  0
  1 28  1  0
  3 29  1  0
  5 30  1  0
  6 31  1  0
  7 32  1  0
  8 33  1  0
 13 34  1  0
 14 35  1  0
 14 36  1  0
 14 37  1  0
 19 38  1  0
 20 39  1  0
M  CHG  2  22   1  24  -1
M  END
$$$$
