
     RDKit          3D

 46 49  0  0  0  0  0  0  0  0999 V2000
   -2.6096   -5.6920   -1.0323 N   0  0  0  0  0  0  0  0  0  0  0  0
   -3.3579   -4.5738   -1.0824 C   0  0  0  0  0  0  0  0  0  0  0  0
   -4.6821   -4.5637   -1.2288 N   0  0  0  0  0  0  0  0  0  0  0  0
   -5.0446   -3.2215   -1.2456 O   0  0  0  0  0  0  0  0  0  0  0  0
   -3.9310   -2.3952   -1.1096 N   0  0  0  0  0  0  0  0  0  0  0  0
   -2.9074   -3.2420   -0.9966 C   0  0  0  0  0  0  0  0  0  0  0  0
   -1.5782   -2.7765   -0.8242 N   0  0  0  0  0  0  0  0  0  0  0  0
   -0.5314   -3.6492   -0.7255 N   0  0  0  0  0  0  0  0  0  0  0  0
    0.5911   -2.9700   -0.5799 N   0  0  0  0  0  0  0  0  0  0  0  0
    0.2890   -1.6347   -0.5747 C   0  0  0  0  0  0  0  0  0  0  0  0
    1.3179   -0.6070   -0.4160 C   0  0  0  0  0  0  0  0  0  0  0  0
    1.0525    0.5908   -0.4497 O   0  0  0  0  0  0  0  0  0  0  0  0
    2.5831   -1.1545   -0.2265 N   0  0  0  0  0  0  0  0  0  0  0  0
    3.7205   -0.4794    0.1353 N   0  0  0  0  0  0  0  0  0  0  0  0
    3.8944    0.7287   -0.2929 C   0  0  0  0  0  0  0  0  0  0  0  0
    5.0518    1.5740    0.0866 C   0  0  0  0  0  0  0  0  0  0  0  0
    4.9318    2.9367   -0.2399 C   0  0  0  0  0  0  0  0  0  0  0  0
    5.9513    3.8376    0.0730 C   0  0  0  0  0  0  0  0  0  0  0  0
    7.1015    3.3875    0.7126 C   0  0  0  0  0  0  0  0  0  0  0  0
    7.2323    2.0363    1.0362 C   0  0  0  0  0  0  0  0  0  0  0  0
    6.2144    1.1226    0.7265 C   0  0  0  0  0  0  0  0  0  0  0  0
    6.5193   -0.5251    1.1462 Cl  0  0  0  0  0  0  0  0  0  0  0  0
   -1.0809   -1.4791   -0.7254 C   0  0  0  0  0  0  0  0  0  0  0  0
   -1.9161   -0.2527   -0.7412 C   0  0  0  0  0  0  0  0  0  0  0  0
   -2.5222   -0.1889    0.5458 O   0  0  0  0  0  0  0  0  0  0  0  0
   -3.3986    0.8352    0.7749 C   0  0  0  0  0  0  0  0  0  0  0  0
   -3.6924    1.8797   -0.1058 C   0  0  0  0  0  0  0  0  0  0  0  0
   -4.6135    2.8656    0.2620 C   0  0  0  0  0  0  0  0  0  0  0  0
   -5.2327    2.8035    1.5047 C   0  0  0  0  0  0  0  0  0  0  0  0
   -6.1136    3.7508    1.8514 F   0  0  0  0  0  0  0  0  0  0  0  0
   -4.9487    1.7737    2.3910 C   0  0  0  0  0  0  0  0  0  0  0  0
   -4.0294    0.7902    2.0237 C   0  0  0  0  0  0  0  0  0  0  0  0
   -3.0678   -6.5874   -0.8984 H   0  0  0  0  0  0  0  0  0  0  0  0
   -1.6360   -5.6648   -0.7335 H   0  0  0  0  0  0  0  0  0  0  0  0
    2.6206   -2.1541   -0.0342 H   0  0  0  0  0  0  0  0  0  0  0  0
    3.1830    1.2053   -0.9881 H   0  0  0  0  0  0  0  0  0  0  0  0
    4.0362    3.3131   -0.7311 H   0  0  0  0  0  0  0  0  0  0  0  0
    5.8447    4.8903   -0.1794 H   0  0  0  0  0  0  0  0  0  0  0  0
    7.8983    4.0853    0.9595 H   0  0  0  0  0  0  0  0  0  0  0  0
    8.1396    1.6962    1.5314 H   0  0  0  0  0  0  0  0  0  0  0  0
   -1.3012    0.6368   -0.9065 H   0  0  0  0  0  0  0  0  0  0  0  0
   -2.6615   -0.2936   -1.5426 H   0  0  0  0  0  0  0  0  0  0  0  0
   -3.2234    1.9617   -1.0804 H   0  0  0  0  0  0  0  0  0  0  0  0
   -4.8499    3.6820   -0.4132 H   0  0  0  0  0  0  0  0  0  0  0  0
   -5.4405    1.7411    3.3574 H   0  0  0  0  0  0  0  0  0  0  0  0
   -3.8029   -0.0191    2.7138 H   0  0  0  0  0  0  0  0  0  0  0  0
  1  2  1  0
  2  3  2  0
  3  4  1  0
  4  5  1  0
  5  6  2  0
  6  7  1  0
  7  8  1  0
  8  9  2  0
  9 10  1  0
 10 11  1  0
 11 12  2  0
 11 13  1  0
 13 14  1  0
 14 15  2  3
 15 16  1  0
 16 17  2  0
 17 18  1  0
 18 19  2  0
 19 20  1  0
 20 21  2  0
 21 22  1  0
 10 23  2  0
 23 24  1  0
 24 25  1  0
 25 26  1  0
 26 27  2  0
 27 28  1  0
 28 29  2  0
 29 30  1  0
 29 31  1  0
 31 32  2  0
  6  2  1  0
 23  7  1  0
 32 26  1  0
 21 16  1  0
  1 33  1  0
  1 34  1  0
 13 35  1  0
 15 36  1  0
 17 37  1  0
 18 38  1  0
 19 39  1  0
 20 40  1  0
 24 41  1  0
 24 42  1  0
 27 43  1  0
 28 44  1  0
 31 45  1  0
 32 46  1  0
M  END
$$$$
