
     RDKit          3D

 29 31  0  0  0  0  0  0  0  0999 V2000
   -0.7144   -0.6087   -0.0303 O   0  0  0  0  0  0  0  0  0  0  0  0
   -0.5587    0.4445    0.5737 C   0  0  0  0  0  0  0  0  0  0  0  0
   -1.7023    1.2947    1.0231 C   0  0  0  0  0  0  0  0  0  0  0  0
   -3.0152    1.1872    0.7729 C   0  0  0  0  0  0  0  0  0  0  0  0
   -3.6593    0.2366   -0.0632 C   0  0  0  0  0  0  0  0  0  0  0  0
   -3.3034   -0.3329   -1.2810 C   0  0  0  0  0  0  0  0  0  0  0  0
   -4.3487   -1.1958   -1.6895 C   0  0  0  0  0  0  0  0  0  0  0  0
   -5.3107   -1.0988   -0.7198 C   0  0  0  0  0  0  0  0  0  0  0  0
   -4.9196   -0.2348    0.2461 O   0  0  0  0  0  0  0  0  0  0  0  0
   -1.1081    2.5513    2.0496 S   0  0  0  0  0  0  0  0  0  0  0  0
    0.5792    2.1556    1.7416 C   0  0  0  0  0  0  0  0  0  0  0  0
    1.7774    3.2081    2.2529 S   0  0  0  0  0  0  0  0  0  0  0  0
    0.6598    0.9855    0.9976 N   0  0  0  0  0  0  0  0  0  0  0  0
    1.8863    0.3176    0.6611 C   0  0  0  0  0  0  0  0  0  0  0  0
    2.9330    0.1856    1.5885 C   0  0  0  0  0  0  0  0  0  0  0  0
    4.1244   -0.4683    1.2508 C   0  0  0  0  0  0  0  0  0  0  0  0
    4.2737   -1.0066   -0.0197 C   0  0  0  0  0  0  0  0  0  0  0  0
    5.4150   -1.6493   -0.3928 O   0  0  0  0  0  0  0  0  0  0  0  0
    3.2500   -0.9097   -0.9498 C   0  0  0  0  0  0  0  0  0  0  0  0
    2.0613   -0.2567   -0.6093 C   0  0  0  0  0  0  0  0  0  0  0  0
   -3.7001    1.8750    1.2656 H   0  0  0  0  0  0  0  0  0  0  0  0
   -2.3852   -0.1494   -1.8217 H   0  0  0  0  0  0  0  0  0  0  0  0
   -4.3928   -1.8045   -2.5812 H   0  0  0  0  0  0  0  0  0  0  0  0
   -6.2823   -1.5509   -0.5785 H   0  0  0  0  0  0  0  0  0  0  0  0
    2.8338    0.5473    2.6086 H   0  0  0  0  0  0  0  0  0  0  0  0
    4.9112   -0.5528    1.9942 H   0  0  0  0  0  0  0  0  0  0  0  0
    6.0382   -1.6392    0.3521 H   0  0  0  0  0  0  0  0  0  0  0  0
    3.3715   -1.3407   -1.9399 H   0  0  0  0  0  0  0  0  0  0  0  0
    1.2861   -0.1899   -1.3695 H   0  0  0  0  0  0  0  0  0  0  0  0
  1  2  2  0
  2  3  1  0
  3  4  2  3
  4  5  1  0
  5  6  2  0
  6  7  1  0
  7  8  2  0
  8  9  1  0
  3 10  1  0
 10 11  1  0
 11 12  2  0
 11 13  1  0
 13 14  1  0
 14 15  2  0
 15 16  1  0
 16 17  2  0
 17 18  1  0
 17 19  1  0
 19 20  2  0
 13  2  1  0
 20 14  1  0
  9  5  1  0
  4 21  1  0
  6 22  1  0
  7 23  1  0
  8 24  1  0
 15 25  1  0
 16 26  1  0
 18 27  1  0
 19 28  1  0
 20 29  1  0
M  END
$$$$
