
     RDKit          3D

 48 52  0  0  0  0  0  0  0  0999 V2000
    5.5668   -1.1949    1.2107 C   0  0  0  0  0  0  0  0  0  0  0  0
    4.2496   -0.8050    0.6101 C   0  0  0  0  0  0  0  0  0  0  0  0
    3.0680   -0.9320    1.3462 C   0  0  0  0  0  0  0  0  0  0  0  0
    1.8427   -0.5394    0.7980 C   0  0  0  0  0  0  0  0  0  0  0  0
    1.7688   -0.0036   -0.4989 C   0  0  0  0  0  0  0  0  0  0  0  0
    0.4674    0.4462   -1.1422 C   0  0  0  0  0  0  0  0  0  0  0  0
    0.1669    1.7741   -0.5661 C   0  0  0  0  0  0  0  0  0  0  0  0
   -1.0073    1.7466    0.1993 C   0  0  0  0  0  0  0  0  0  0  0  0
   -1.2762    3.0229    0.6138 C   0  0  0  0  0  0  0  0  0  0  0  0
   -2.3288    3.5381    1.2364 O   0  0  0  0  0  0  0  0  0  0  0  0
   -0.2152    3.8080    0.1975 N   0  0  0  0  0  0  0  0  0  0  0  0
   -0.0874    5.2208    0.4767 C   0  0  0  0  0  0  0  0  0  0  0  0
    0.6511    3.0564   -0.5871 C   0  0  0  0  0  0  0  0  0  0  0  0
    1.7127    3.5463   -1.2165 O   0  0  0  0  0  0  0  0  0  0  0  0
   -1.6109    0.3895    0.2410 C   0  0  0  0  0  0  0  0  0  0  0  0
   -3.0975    0.4248   -0.1176 C   0  0  0  0  0  0  0  0  0  0  0  0
   -3.8049    1.4278    0.0510 O   0  0  0  0  0  0  0  0  0  0  0  0
   -3.7453   -0.7399   -0.4190 N   0  0  0  0  0  0  0  0  0  0  0  0
   -3.2651   -2.0569   -0.3499 C   0  0  0  0  0  0  0  0  0  0  0  0
   -4.2439   -3.0251   -0.0542 C   0  0  0  0  0  0  0  0  0  0  0  0
   -3.9138   -4.3734    0.0943 C   0  0  0  0  0  0  0  0  0  0  0  0
   -2.5989   -4.7824   -0.0721 C   0  0  0  0  0  0  0  0  0  0  0  0
   -1.6264   -3.8424   -0.4081 C   0  0  0  0  0  0  0  0  0  0  0  0
   -1.9454   -2.4760   -0.5568 C   0  0  0  0  0  0  0  0  0  0  0  0
   -0.8513   -1.6334   -1.0951 C   0  0  0  0  0  0  0  0  0  0  0  0
   -0.0550   -2.1593   -1.8722 O   0  0  0  0  0  0  0  0  0  0  0  0
   -0.7440   -0.3185   -0.7260 N   0  0  0  0  0  0  0  0  0  0  0  0
    2.9664    0.1396   -1.2202 C   0  0  0  0  0  0  0  0  0  0  0  0
    4.1910   -0.2527   -0.6725 C   0  0  0  0  0  0  0  0  0  0  0  0
    6.0037   -0.3426    1.7402 H   0  0  0  0  0  0  0  0  0  0  0  0
    5.4446   -2.0245    1.9150 H   0  0  0  0  0  0  0  0  0  0  0  0
    6.2663   -1.5274    0.4365 H   0  0  0  0  0  0  0  0  0  0  0  0
    3.0916   -1.3374    2.3548 H   0  0  0  0  0  0  0  0  0  0  0  0
    0.9470   -0.6526    1.4006 H   0  0  0  0  0  0  0  0  0  0  0  0
    0.5197    0.4491   -2.2362 H   0  0  0  0  0  0  0  0  0  0  0  0
   -3.0729    2.9147    1.0839 H   0  0  0  0  0  0  0  0  0  0  0  0
   -0.2614    5.7693   -0.4523 H   0  0  0  0  0  0  0  0  0  0  0  0
   -0.8131    5.5258    1.2338 H   0  0  0  0  0  0  0  0  0  0  0  0
    0.9216    5.4094    0.8528 H   0  0  0  0  0  0  0  0  0  0  0  0
    1.8159    4.4888   -1.0127 H   0  0  0  0  0  0  0  0  0  0  0  0
   -1.4894   -0.0699    1.2281 H   0  0  0  0  0  0  0  0  0  0  0  0
   -4.7503   -0.6051   -0.4409 H   0  0  0  0  0  0  0  0  0  0  0  0
   -5.2836   -2.7369    0.0912 H   0  0  0  0  0  0  0  0  0  0  0  0
   -4.6847   -5.1009    0.3373 H   0  0  0  0  0  0  0  0  0  0  0  0
   -2.3308   -5.8310    0.0308 H   0  0  0  0  0  0  0  0  0  0  0  0
   -0.6064   -4.1843   -0.5866 H   0  0  0  0  0  0  0  0  0  0  0  0
    2.9501    0.5707   -2.2195 H   0  0  0  0  0  0  0  0  0  0  0  0
    5.0981   -0.1214   -1.2575 H   0  0  0  0  0  0  0  0  0  0  0  0
  1  2  1  0
  2  3  2  0
  3  4  1  0
  4  5  2  0
  5  6  1  0
  6  7  1  0
  7  8  1  0
  8  9  2  0
  9 10  1  0
  9 11  1  0
 11 12  1  0
 11 13  1  0
 13 14  1  0
  8 15  1  0
 15 16  1  0
 16 17  2  0
 16 18  1  0
 18 19  1  0
 19 20  2  0
 20 21  1  0
 21 22  2  0
 22 23  1  0
 23 24  2  0
 24 25  1  0
 25 26  2  0
 25 27  1  0
  5 28  1  0
 28 29  2  0
 29  2  1  0
 27  6  1  0
 13  7  2  0
 27 15  1  0
 24 19  1  0
  1 30  1  0
  1 31  1  0
  1 32  1  0
  3 33  1  0
  4 34  1  0
  6 35  1  0
 10 36  1  0
 12 37  1  0
 12 38  1  0
 12 39  1  0
 14 40  1  0
 15 41  1  0
 18 42  1  0
 20 43  1  0
 21 44  1  0
 22 45  1  0
 23 46  1  0
 28 47  1  0
 29 48  1  0
M  END
$$$$
