
     RDKit          3D

 63 67  0  0  0  0  0  0  0  0999 V2000
   -1.7464   -0.0454   -1.3447 O   0  0  0  0  0  0  0  0  0  0  0  0
   -2.2762   -0.0977   -0.2413 C   0  0  0  0  0  0  0  0  0  0  0  0
   -3.6234   -0.2868   -0.0444 N   0  0  0  0  0  0  0  0  0  0  0  0
   -4.5489   -0.4478   -1.1574 C   0  0  0  0  0  0  0  0  0  0  0  0
   -4.4943   -1.8788   -1.7157 C   0  0  0  0  0  0  0  0  0  0  0  0
   -5.1960   -2.8584   -0.7800 C   0  0  0  0  0  0  0  0  0  0  0  0
   -6.6747   -2.5045   -0.6466 C   0  0  0  0  0  0  0  0  0  0  0  0
   -6.9228   -1.0345   -0.4124 C   0  0  0  0  0  0  0  0  0  0  0  0
   -8.1875   -0.6249    0.0379 C   0  0  0  0  0  0  0  0  0  0  0  0
   -8.4737    0.7272    0.2249 C   0  0  0  0  0  0  0  0  0  0  0  0
   -7.5033    1.6872   -0.0437 C   0  0  0  0  0  0  0  0  0  0  0  0
   -6.2460    1.2951   -0.5008 C   0  0  0  0  0  0  0  0  0  0  0  0
   -5.9431   -0.0640   -0.6967 C   0  0  0  0  0  0  0  0  0  0  0  0
   -1.4501    0.0713    0.9823 C   0  0  0  0  0  0  0  0  0  0  0  0
   -1.7593   -0.5925    2.1785 C   0  0  0  0  0  0  0  0  0  0  0  0
   -0.9468   -0.4267    3.3033 C   0  0  0  0  0  0  0  0  0  0  0  0
    0.1812    0.3905    3.2351 C   0  0  0  0  0  0  0  0  0  0  0  0
    0.4976    1.0329    2.0338 C   0  0  0  0  0  0  0  0  0  0  0  0
    1.9288    2.0805    1.9635 S   0  0  0  0  0  6  0  0  0  0  0  0
    2.0857    2.6837    3.2703 O   0  0  0  0  0  0  0  0  0  0  0  0
    1.8465    2.9012    0.7748 O   0  0  0  0  0  0  0  0  0  0  0  0
    3.2011    0.9651    1.7421 N   0  0  0  0  0  0  0  0  0  0  0  0
    3.1011    0.1250    0.4968 C   0  0  0  0  0  0  0  0  0  0  0  0
    4.4603   -0.4479    0.0504 C   0  0  0  0  0  0  0  0  0  0  0  0
    5.4284    0.6283   -0.2093 N   0  0  0  0  0  0  0  0  0  0  0  0
    6.4484    0.4857   -1.1346 C   0  0  0  0  0  0  0  0  0  0  0  0
    6.9017   -0.7771   -1.5507 C   0  0  0  0  0  0  0  0  0  0  0  0
    7.9340   -0.9261   -2.4858 C   0  0  0  0  0  0  0  0  0  0  0  0
    8.5440    0.1945   -3.0349 C   0  0  0  0  0  0  0  0  0  0  0  0
    8.1199    1.4587   -2.6464 C   0  0  0  0  0  0  0  0  0  0  0  0
    7.0880    1.5966   -1.7093 C   0  0  0  0  0  0  0  0  0  0  0  0
    5.2553    1.8690    0.5643 C   0  0  0  0  0  0  0  0  0  0  0  0
    4.5629    1.5825    1.9086 C   0  0  0  0  0  0  0  0  0  0  0  0
   -0.3156    0.8865    0.9076 C   0  0  0  0  0  0  0  0  0  0  0  0
   -4.0224   -0.1996    0.8803 H   0  0  0  0  0  0  0  0  0  0  0  0
   -4.2376    0.2347   -1.9591 H   0  0  0  0  0  0  0  0  0  0  0  0
   -4.9874   -1.9076   -2.6963 H   0  0  0  0  0  0  0  0  0  0  0  0
   -3.4574   -2.1977   -1.8724 H   0  0  0  0  0  0  0  0  0  0  0  0
   -5.0976   -3.8805   -1.1632 H   0  0  0  0  0  0  0  0  0  0  0  0
   -4.7165   -2.8416    0.2066 H   0  0  0  0  0  0  0  0  0  0  0  0
   -7.1983   -2.7923   -1.5669 H   0  0  0  0  0  0  0  0  0  0  0  0
   -7.1040   -3.0908    0.1746 H   0  0  0  0  0  0  0  0  0  0  0  0
   -8.9612   -1.3624    0.2413 H   0  0  0  0  0  0  0  0  0  0  0  0
   -9.4568    1.0311    0.5750 H   0  0  0  0  0  0  0  0  0  0  0  0
   -7.7252    2.7416    0.0995 H   0  0  0  0  0  0  0  0  0  0  0  0
   -5.4946    2.0557   -0.7064 H   0  0  0  0  0  0  0  0  0  0  0  0
   -2.6139   -1.2611    2.2428 H   0  0  0  0  0  0  0  0  0  0  0  0
   -1.1893   -0.9403    4.2312 H   0  0  0  0  0  0  0  0  0  0  0  0
    0.8120    0.5199    4.1130 H   0  0  0  0  0  0  0  0  0  0  0  0
    2.4187   -0.7076    0.6984 H   0  0  0  0  0  0  0  0  0  0  0  0
    2.6875    0.7187   -0.3266 H   0  0  0  0  0  0  0  0  0  0  0  0
    4.2810   -1.0433   -0.8527 H   0  0  0  0  0  0  0  0  0  0  0  0
    4.8595   -1.1140    0.8247 H   0  0  0  0  0  0  0  0  0  0  0  0
    6.4726   -1.6831   -1.1326 H   0  0  0  0  0  0  0  0  0  0  0  0
    8.2593   -1.9209   -2.7775 H   0  0  0  0  0  0  0  0  0  0  0  0
    9.3436    0.0835   -3.7616 H   0  0  0  0  0  0  0  0  0  0  0  0
    8.5835    2.3441   -3.0731 H   0  0  0  0  0  0  0  0  0  0  0  0
    6.7745    2.6057   -1.4566 H   0  0  0  0  0  0  0  0  0  0  0  0
    4.6660    2.5843   -0.0214 H   0  0  0  0  0  0  0  0  0  0  0  0
    6.2270    2.3251    0.7884 H   0  0  0  0  0  0  0  0  0  0  0  0
    4.5099    2.5060    2.4945 H   0  0  0  0  0  0  0  0  0  0  0  0
    5.1646    0.8806    2.4999 H   0  0  0  0  0  0  0  0  0  0  0  0
   -0.0744    1.3975   -0.0232 H   0  0  0  0  0  0  0  0  0  0  0  0
  1  2  2  0
  2  3  1  0
  3  4  1  0
  4  5  1  0
  5  6  1  0
  6  7  1  0
  7  8  1  0
  8  9  2  0
  9 10  1  0
 10 11  2  0
 11 12  1  0
 12 13  2  0
  2 14  1  0
 14 15  2  0
 15 16  1  0
 16 17  2  0
 17 18  1  0
 18 19  1  0
 19 20  2  0
 19 21  2  0
 19 22  1  0
 22 23  1  0
 23 24  1  0
 24 25  1  0
 25 26  1  0
 26 27  2  0
 27 28  1  0
 28 29  2  0
 29 30  1  0
 30 31  2  0
 25 32  1  0
 32 33  1  0
 18 34  2  0
 13  4  1  0
 34 14  1  0
 13  8  1  0
 33 22  1  0
 31 26  1  0
  3 35  1  0
  4 36  1  0
  5 37  1  0
  5 38  1  0
  6 39  1  0
  6 40  1  0
  7 41  1  0
  7 42  1  0
  9 43  1  0
 10 44  1  0
 11 45  1  0
 12 46  1  0
 15 47  1  0
 16 48  1  0
 17 49  1  0
 23 50  1  0
 23 51  1  0
 24 52  1  0
 24 53  1  0
 27 54  1  0
 28 55  1  0
 29 56  1  0
 30 57  1  0
 31 58  1  0
 32 59  1  0
 32 60  1  0
 33 61  1  0
 33 62  1  0
 34 63  1  0
M  END
$$$$
