
     RDKit          3D

 45 46  0  0  0  0  0  0  0  0999 V2000
   -7.1594   -2.3476    1.7130 C   0  0  0  0  0  0  0  0  0  0  0  0
   -6.1408   -1.2911    1.3242 C   0  0  0  0  0  0  0  0  0  0  0  0
   -5.5586   -1.6783    0.0806 O   0  0  0  0  0  0  0  0  0  0  0  0
   -4.6162   -0.8419   -0.4508 C   0  0  0  0  0  0  0  0  0  0  0  0
   -4.0937   -1.2572   -1.6778 C   0  0  0  0  0  0  0  0  0  0  0  0
   -3.1202   -0.4996   -2.3342 C   0  0  0  0  0  0  0  0  0  0  0  0
   -2.6577    0.6949   -1.7703 C   0  0  0  0  0  0  0  0  0  0  0  0
   -1.5862    1.5073   -2.4497 C   0  0  0  0  0  0  0  0  0  0  0  0
   -0.2933    1.2232   -1.8707 N   0  0  0  0  0  0  0  0  0  0  0  0
    0.2612    2.0468   -0.9358 C   0  0  0  0  0  0  0  0  0  0  0  0
   -0.2043    3.1267   -0.6140 O   0  0  0  0  0  0  0  0  0  0  0  0
    1.4136    1.5101   -0.3855 N   0  0  0  0  0  0  0  0  0  0  0  0
    2.2839    2.2884    0.8039 S   0  0  0  0  0  6  0  0  0  0  0  0
    1.5043    2.3248    2.0209 O   0  0  0  0  0  0  0  0  0  0  0  0
    2.9097    3.4640    0.2406 O   0  0  0  0  0  0  0  0  0  0  0  0
    3.5816    1.0918    1.0649 C   0  0  0  0  0  0  0  0  0  0  0  0
    3.3728    0.0346    1.9521 C   0  0  0  0  0  0  0  0  0  0  0  0
    4.3892   -0.9020    2.1468 C   0  0  0  0  0  0  0  0  0  0  0  0
    5.6104   -0.7836    1.4735 C   0  0  0  0  0  0  0  0  0  0  0  0
    6.5133   -1.7705    1.7570 O   0  0  0  0  0  0  0  0  0  0  0  0
    7.8024   -1.6543    1.1672 C   0  0  0  0  0  0  0  0  0  0  0  0
    5.8121    0.2860    0.5975 C   0  0  0  0  0  0  0  0  0  0  0  0
    4.7991    1.2287    0.3930 C   0  0  0  0  0  0  0  0  0  0  0  0
   -3.1803    1.1055   -0.5359 C   0  0  0  0  0  0  0  0  0  0  0  0
   -4.1543    0.3436    0.1189 C   0  0  0  0  0  0  0  0  0  0  0  0
   -7.6372   -2.0972    2.6643 H   0  0  0  0  0  0  0  0  0  0  0  0
   -6.6816   -3.3287    1.8046 H   0  0  0  0  0  0  0  0  0  0  0  0
   -7.9321   -2.4401    0.9426 H   0  0  0  0  0  0  0  0  0  0  0  0
   -6.6487   -0.3250    1.2228 H   0  0  0  0  0  0  0  0  0  0  0  0
   -5.3713   -1.2331    2.1026 H   0  0  0  0  0  0  0  0  0  0  0  0
   -4.4504   -2.1814   -2.1262 H   0  0  0  0  0  0  0  0  0  0  0  0
   -2.7330   -0.8508   -3.2875 H   0  0  0  0  0  0  0  0  0  0  0  0
   -1.5281    1.2498   -3.5130 H   0  0  0  0  0  0  0  0  0  0  0  0
   -1.8220    2.5756   -2.3872 H   0  0  0  0  0  0  0  0  0  0  0  0
    0.0521    0.2826   -1.9542 H   0  0  0  0  0  0  0  0  0  0  0  0
    1.7754    0.6227   -0.7009 H   0  0  0  0  0  0  0  0  0  0  0  0
    2.4361   -0.0637    2.4967 H   0  0  0  0  0  0  0  0  0  0  0  0
    4.2354   -1.7284    2.8378 H   0  0  0  0  0  0  0  0  0  0  0  0
    8.2993   -0.7302    1.4805 H   0  0  0  0  0  0  0  0  0  0  0  0
    8.4083   -2.4945    1.5200 H   0  0  0  0  0  0  0  0  0  0  0  0
    7.7429   -1.7217    0.0759 H   0  0  0  0  0  0  0  0  0  0  0  0
    6.7471    0.4180    0.0622 H   0  0  0  0  0  0  0  0  0  0  0  0
    4.9712    2.0641   -0.2832 H   0  0  0  0  0  0  0  0  0  0  0  0
   -2.8266    2.0261   -0.0719 H   0  0  0  0  0  0  0  0  0  0  0  0
   -4.5254    0.7061    1.0717 H   0  0  0  0  0  0  0  0  0  0  0  0
  1  2  1  0
  2  3  1  0
  3  4  1  0
  4  5  2  0
  5  6  1  0
  6  7  2  0
  7  8  1  0
  8  9  1  0
  9 10  1  0
 10 11  2  0
 10 12  1  0
 12 13  1  0
 13 14  2  0
 13 15  2  0
 13 16  1  0
 16 17  2  0
 17 18  1  0
 18 19  2  0
 19 20  1  0
 20 21  1  0
 19 22  1  0
 22 23  2  0
  7 24  1  0
 24 25  2  0
 25  4  1  0
 23 16  1  0
  1 26  1  0
  1 27  1  0
  1 28  1  0
  2 29  1  0
  2 30  1  0
  5 31  1  0
  6 32  1  0
  8 33  1  0
  8 34  1  0
  9 35  1  0
 12 36  1  0
 17 37  1  0
 18 38  1  0
 21 39  1  0
 21 40  1  0
 21 41  1  0
 22 42  1  0
 23 43  1  0
 24 44  1  0
 25 45  1  0
M  END
$$$$
