
     RDKit          3D

 37 38  0  0  0  0  0  0  0  0999 V2000
   -4.2063   -0.6129   -2.0352 C   0  0  0  0  0  0  0  0  0  0  0  0
   -3.4790   -0.4121   -0.7818 N   0  0  0  0  0  0  0  0  0  0  0  0
   -2.1504   -0.8210   -0.7020 C   0  0  0  0  0  0  0  0  0  0  0  0
   -1.5456   -1.3200   -1.8516 N   0  0  0  0  0  0  0  0  0  0  0  0
   -1.5041   -0.7322    0.4819 C   0  0  0  0  0  0  0  0  0  0  0  0
   -0.0520   -1.0896    0.5887 C   0  0  0  0  0  0  0  0  0  0  0  0
    0.4514   -1.9355   -0.1589 O   0  0  0  0  0  0  0  0  0  0  0  0
    0.8087   -0.3203    1.5946 C   0  0  0  0  0  0  0  0  0  0  0  0
    2.1652   -0.1973    1.1504 O   0  0  0  0  0  0  0  0  0  0  0  0
    2.3092    0.6107    0.0615 C   0  0  0  0  0  0  0  0  0  0  0  0
    1.3920    1.2246   -0.4653 O   0  0  0  0  0  0  0  0  0  0  0  0
    3.7404    0.6418   -0.3861 C   0  0  0  0  0  0  0  0  0  0  0  0
    4.6998   -0.2108    0.1564 C   0  0  0  0  0  0  0  0  0  0  0  0
    6.0085   -0.1269   -0.3144 C   0  0  0  0  0  0  0  0  0  0  0  0
    6.3193    0.7966   -1.3058 C   0  0  0  0  0  0  0  0  0  0  0  0
    5.3051    1.6042   -1.7923 C   0  0  0  0  0  0  0  0  0  0  0  0
    4.0284    1.5490   -1.3581 N   0  0  0  0  0  0  0  0  0  0  0  0
   -2.2292   -0.2327    1.6680 C   0  0  0  0  0  0  0  0  0  0  0  0
   -1.7122   -0.3279    2.7812 O   0  0  0  0  0  0  0  0  0  0  0  0
   -3.4737    0.3122    1.4577 N   0  0  0  0  0  0  0  0  0  0  0  0
   -4.1831    0.8670    2.5957 C   0  0  0  0  0  0  0  0  0  0  0  0
   -4.1782    0.1631    0.2756 C   0  0  0  0  0  0  0  0  0  0  0  0
   -5.3571    0.5107    0.1823 O   0  0  0  0  0  0  0  0  0  0  0  0
   -4.1360   -1.6635   -2.3361 H   0  0  0  0  0  0  0  0  0  0  0  0
   -3.7722    0.0300   -2.8077 H   0  0  0  0  0  0  0  0  0  0  0  0
   -5.2672   -0.3637   -1.9462 H   0  0  0  0  0  0  0  0  0  0  0  0
   -1.5779   -0.6466   -2.6133 H   0  0  0  0  0  0  0  0  0  0  0  0
   -0.5703   -1.6038   -1.6923 H   0  0  0  0  0  0  0  0  0  0  0  0
    0.8263   -0.8873    2.5305 H   0  0  0  0  0  0  0  0  0  0  0  0
    0.4070    0.6786    1.7957 H   0  0  0  0  0  0  0  0  0  0  0  0
    4.4477   -0.9347    0.9239 H   0  0  0  0  0  0  0  0  0  0  0  0
    6.7783   -0.7802    0.0879 H   0  0  0  0  0  0  0  0  0  0  0  0
    7.3288    0.8837   -1.6931 H   0  0  0  0  0  0  0  0  0  0  0  0
    5.4985    2.3396   -2.5687 H   0  0  0  0  0  0  0  0  0  0  0  0
   -4.7982    0.0770    3.0385 H   0  0  0  0  0  0  0  0  0  0  0  0
   -4.8348    1.6873    2.2794 H   0  0  0  0  0  0  0  0  0  0  0  0
   -3.4872    1.2430    3.3513 H   0  0  0  0  0  0  0  0  0  0  0  0
  1  2  1  0
  2  3  1  0
  3  4  1  0
  3  5  2  0
  5  6  1  0
  6  7  2  0
  6  8  1  0
  8  9  1  0
  9 10  1  0
 10 11  2  0
 10 12  1  0
 12 13  2  0
 13 14  1  0
 14 15  2  0
 15 16  1  0
 16 17  2  0
  5 18  1  0
 18 19  2  0
 18 20  1  0
 20 21  1  0
 20 22  1  0
 22 23  2  0
 22  2  1  0
 17 12  1  0
  1 24  1  0
  1 25  1  0
  1 26  1  0
  4 27  1  0
  4 28  1  0
  8 29  1  0
  8 30  1  0
 13 31  1  0
 14 32  1  0
 15 33  1  0
 16 34  1  0
 21 35  1  0
 21 36  1  0
 21 37  1  0
M  END
$$$$
