
     RDKit          3D

 43 45  0  0  0  0  0  0  0  0999 V2000
   -5.4677    0.3118   -1.9587 C   0  0  0  0  0  0  0  0  0  0  0  0
   -4.1126    0.9554   -2.2091 C   0  0  0  0  0  0  0  0  0  0  0  0
   -3.2309    1.0262   -0.9610 C   0  0  0  0  0  0  0  0  0  0  0  0
   -2.7866   -0.3487   -0.4574 C   0  0  0  0  0  0  0  0  0  0  0  0
   -1.9181   -0.2605    0.7182 N   0  0  0  0  0  0  0  0  0  0  0  0
   -2.3714   -0.1552    2.0420 C   0  0  0  0  0  0  0  0  0  0  0  0
   -3.8841   -0.4061    2.6637 S   0  0  0  0  0  0  0  0  0  0  0  0
   -1.2945    0.2054    2.8374 N   0  0  0  0  0  0  0  0  0  0  0  0
   -0.0664    0.1724    2.0910 C   0  0  0  0  0  0  0  0  0  0  0  0
   -0.5371    0.2379    0.6335 C   0  0  0  0  0  0  0  0  0  0  0  0
    0.3592   -0.5408   -0.3389 C   0  0  0  0  0  0  0  0  0  0  0  0
    1.7744    0.0049   -0.4034 C   0  0  0  0  0  0  0  0  0  0  0  0
    1.9609    1.2095   -1.1093 C   0  0  0  0  0  0  0  0  0  0  0  0
    3.2156    1.7988   -1.1999 C   0  0  0  0  0  0  0  0  0  0  0  0
    4.3072    1.1952   -0.5857 C   0  0  0  0  0  0  0  0  0  0  0  0
    4.1626   -0.0057    0.1228 C   0  0  0  0  0  0  0  0  0  0  0  0
    5.2854   -0.5909    0.7315 C   0  0  0  0  0  0  0  0  0  0  0  0
    5.1784   -1.7840    1.4415 C   0  0  0  0  0  0  0  0  0  0  0  0
    3.9449   -2.4087    1.5499 C   0  0  0  0  0  0  0  0  0  0  0  0
    2.8184   -1.8389    0.9497 C   0  0  0  0  0  0  0  0  0  0  0  0
    2.8889   -0.6254    0.2238 C   0  0  0  0  0  0  0  0  0  0  0  0
   -5.9968    0.8141   -1.1427 H   0  0  0  0  0  0  0  0  0  0  0  0
   -5.3691   -0.7481   -1.7074 H   0  0  0  0  0  0  0  0  0  0  0  0
   -6.0880    0.3817   -2.8581 H   0  0  0  0  0  0  0  0  0  0  0  0
   -4.2757    1.9757   -2.5765 H   0  0  0  0  0  0  0  0  0  0  0  0
   -3.5908    0.4118   -3.0052 H   0  0  0  0  0  0  0  0  0  0  0  0
   -2.3455    1.6254   -1.2053 H   0  0  0  0  0  0  0  0  0  0  0  0
   -3.7579    1.5676   -0.1662 H   0  0  0  0  0  0  0  0  0  0  0  0
   -2.2516   -0.8941   -1.2408 H   0  0  0  0  0  0  0  0  0  0  0  0
   -3.6587   -0.9537   -0.1938 H   0  0  0  0  0  0  0  0  0  0  0  0
   -1.3668    0.1838    3.8473 H   0  0  0  0  0  0  0  0  0  0  0  0
    0.4283   -0.7717    2.3363 H   0  0  0  0  0  0  0  0  0  0  0  0
    0.5719    1.0122    2.3773 H   0  0  0  0  0  0  0  0  0  0  0  0
   -0.6045    1.2926    0.3363 H   0  0  0  0  0  0  0  0  0  0  0  0
   -0.0578   -0.4814   -1.3530 H   0  0  0  0  0  0  0  0  0  0  0  0
    0.3382   -1.6096   -0.1063 H   0  0  0  0  0  0  0  0  0  0  0  0
    1.1190    1.6969   -1.5983 H   0  0  0  0  0  0  0  0  0  0  0  0
    3.3450    2.7279   -1.7489 H   0  0  0  0  0  0  0  0  0  0  0  0
    5.2816    1.6726   -0.6677 H   0  0  0  0  0  0  0  0  0  0  0  0
    6.2620   -0.1170    0.6550 H   0  0  0  0  0  0  0  0  0  0  0  0
    6.0574   -2.2236    1.9051 H   0  0  0  0  0  0  0  0  0  0  0  0
    3.8534   -3.3424    2.0991 H   0  0  0  0  0  0  0  0  0  0  0  0
    1.8797   -2.3734    1.0630 H   0  0  0  0  0  0  0  0  0  0  0  0
  1  2  1  0
  2  3  1  0
  3  4  1  0
  4  5  1  0
  5  6  1  0
  6  7  2  0
  6  8  1  0
  8  9  1  0
  9 10  1  0
 10 11  1  0
 11 12  1  0
 12 13  2  0
 13 14  1  0
 14 15  2  0
 15 16  1  0
 16 17  2  0
 17 18  1  0
 18 19  2  0
 19 20  1  0
 20 21  2  0
 10  5  1  0
 21 12  1  0
 21 16  1  0
  1 22  1  0
  1 23  1  0
  1 24  1  0
  2 25  1  0
  2 26  1  0
  3 27  1  0
  3 28  1  0
  4 29  1  0
  4 30  1  0
  8 31  1  0
  9 32  1  0
  9 33  1  0
 10 34  1  0
 11 35  1  0
 11 36  1  0
 13 37  1  0
 14 38  1  0
 15 39  1  0
 17 40  1  0
 18 41  1  0
 19 42  1  0
 20 43  1  0
M  END
$$$$
