
     RDKit          3D

 45 47  0  0  0  0  0  0  0  0999 V2000
    2.3567   -1.8572    0.0398 O   0  0  0  0  0  0  0  0  0  0  0  0
    1.7846   -0.9973    0.7170 C   0  0  0  0  0  0  0  0  0  0  0  0
    2.3040   -0.6797    2.1122 C   0  0  0  0  0  0  0  0  0  0  0  0
    3.2469    0.8820    2.1600 S   0  0  0  0  0  0  0  0  0  0  0  0
    4.5255    0.5543    0.9605 C   0  0  0  0  0  0  0  0  0  0  0  0
    4.7008    1.4524   -0.0985 C   0  0  0  0  0  0  0  0  0  0  0  0
    5.6990    1.2366   -1.0524 C   0  0  0  0  0  0  0  0  0  0  0  0
    6.5301    0.1244   -0.9416 C   0  0  0  0  0  0  0  0  0  0  0  0
    7.8807   -0.1707   -2.2303 Br  0  0  0  0  0  0  0  0  0  0  0  0
    6.3757   -0.7688    0.1164 C   0  0  0  0  0  0  0  0  0  0  0  0
    5.3769   -0.5499    1.0697 C   0  0  0  0  0  0  0  0  0  0  0  0
    0.6420   -0.3490    0.2522 N   0  0  0  0  0  0  0  0  0  0  0  0
    0.0746    0.8629    0.8639 C   0  0  0  0  0  0  0  0  0  0  0  0
   -1.4261    1.0263    0.5712 C   0  0  0  0  0  0  0  0  0  0  0  0
   -1.6735    0.9341   -0.8924 N   0  0  0  0  0  0  0  0  0  0  0  0
   -3.1681    1.5073   -1.4565 S   0  0  0  0  0  6  0  0  0  0  0  0
   -3.1847    1.3694   -2.8973 O   0  0  0  0  0  0  0  0  0  0  0  0
   -3.4190    2.7862   -0.8257 O   0  0  0  0  0  0  0  0  0  0  0  0
   -4.3379    0.3418   -0.7910 C   0  0  0  0  0  0  0  0  0  0  0  0
   -4.9373    0.5935    0.4474 C   0  0  0  0  0  0  0  0  0  0  0  0
   -5.8693   -0.3113    0.9556 C   0  0  0  0  0  0  0  0  0  0  0  0
   -6.2093   -1.4497    0.2226 C   0  0  0  0  0  0  0  0  0  0  0  0
   -5.6277   -1.6838   -1.0248 C   0  0  0  0  0  0  0  0  0  0  0  0
   -4.6952   -0.7838   -1.5402 C   0  0  0  0  0  0  0  0  0  0  0  0
   -1.1973   -0.3638   -1.4468 C   0  0  0  0  0  0  0  0  0  0  0  0
    0.3016   -0.5353   -1.1657 C   0  0  0  0  0  0  0  0  0  0  0  0
    1.4724   -0.6347    2.8211 H   0  0  0  0  0  0  0  0  0  0  0  0
    2.9403   -1.5057    2.4470 H   0  0  0  0  0  0  0  0  0  0  0  0
    4.0596    2.3257   -0.1941 H   0  0  0  0  0  0  0  0  0  0  0  0
    5.8177    1.9393   -1.8727 H   0  0  0  0  0  0  0  0  0  0  0  0
    7.0236   -1.6363    0.2094 H   0  0  0  0  0  0  0  0  0  0  0  0
    5.2776   -1.2515    1.8934 H   0  0  0  0  0  0  0  0  0  0  0  0
    0.6301    1.7154    0.4545 H   0  0  0  0  0  0  0  0  0  0  0  0
    0.2186    0.8566    1.9460 H   0  0  0  0  0  0  0  0  0  0  0  0
   -1.9860    0.2386    1.0879 H   0  0  0  0  0  0  0  0  0  0  0  0
   -1.7503    1.9970    0.9587 H   0  0  0  0  0  0  0  0  0  0  0  0
   -4.6922    1.4892    1.0136 H   0  0  0  0  0  0  0  0  0  0  0  0
   -6.3410   -0.1248    1.9176 H   0  0  0  0  0  0  0  0  0  0  0  0
   -6.9417   -2.1499    0.6182 H   0  0  0  0  0  0  0  0  0  0  0  0
   -5.9111   -2.5627   -1.5993 H   0  0  0  0  0  0  0  0  0  0  0  0
   -4.2608   -0.9611   -2.5216 H   0  0  0  0  0  0  0  0  0  0  0  0
   -1.7524   -1.1862   -0.9816 H   0  0  0  0  0  0  0  0  0  0  0  0
   -1.3549   -0.4031   -2.5290 H   0  0  0  0  0  0  0  0  0  0  0  0
    0.6180   -1.5255   -1.5103 H   0  0  0  0  0  0  0  0  0  0  0  0
    0.8787    0.2086   -1.7292 H   0  0  0  0  0  0  0  0  0  0  0  0
  1  2  2  0
  2  3  1  0
  3  4  1  0
  4  5  1  0
  5  6  2  0
  6  7  1  0
  7  8  2  0
  8  9  1  0
  8 10  1  0
 10 11  2  0
  2 12  1  0
 12 13  1  0
 13 14  1  0
 14 15  1  0
 15 16  1  0
 16 17  2  0
 16 18  2  0
 16 19  1  0
 19 20  2  0
 20 21  1  0
 21 22  2  0
 22 23  1  0
 23 24  2  0
 15 25  1  0
 25 26  1  0
 11  5  1  0
 26 12  1  0
 24 19  1  0
  3 27  1  0
  3 28  1  0
  6 29  1  0
  7 30  1  0
 10 31  1  0
 11 32  1  0
 13 33  1  0
 13 34  1  0
 14 35  1  0
 14 36  1  0
 20 37  1  0
 21 38  1  0
 22 39  1  0
 23 40  1  0
 24 41  1  0
 25 42  1  0
 25 43  1  0
 26 44  1  0
 26 45  1  0
M  END
$$$$
