
     RDKit          3D

 33 35  0  0  0  0  0  0  0  0999 V2000
   -6.0411   -2.4975    0.4379 C   0  0  0  0  0  0  0  0  0  0  0  0
   -5.1159   -1.3391    0.2181 C   0  0  0  0  0  0  0  0  0  0  0  0
   -5.6178   -0.0625    0.0745 C   0  0  0  0  0  0  0  0  0  0  0  0
   -4.6890    0.9311   -0.1246 C   0  0  0  0  0  0  0  0  0  0  0  0
   -3.3636    0.7110   -0.1805 N   0  0  0  0  0  0  0  0  0  0  0  0
   -2.9651   -0.5624   -0.0230 C   0  0  0  0  0  0  0  0  0  0  0  0
   -1.2355   -0.9408   -0.1005 S   0  0  0  0  0  0  0  0  0  0  0  0
   -0.5556    0.7246    0.1608 C   0  0  0  0  0  0  0  0  0  0  0  0
    0.9346    0.6871    0.2344 C   0  0  0  0  0  0  0  0  0  0  0  0
    1.8484    0.4256   -0.7687 C   0  0  0  0  0  0  0  0  0  0  0  0
    3.0918    0.5124   -0.1893 N   0  0  0  0  0  0  0  0  0  0  0  0
    4.3700    0.3262   -0.7473 C   0  0  0  0  0  0  0  0  0  0  0  0
    4.5001   -0.0326   -2.1958 C   0  0  0  0  0  0  0  0  0  0  0  0
    5.4404    0.4798    0.0605 C   0  0  0  0  0  0  0  0  0  0  0  0
    5.2465    0.8270    1.4591 C   0  0  0  0  0  0  0  0  0  0  0  0
    4.0167    1.0010    1.9769 C   0  0  0  0  0  0  0  0  0  0  0  0
    2.8733    0.8444    1.1463 C   0  0  0  0  0  0  0  0  0  0  0  0
    1.5901    0.9609    1.4155 N   0  0  0  0  0  0  0  0  0  0  0  0
   -3.7946   -1.6030    0.1684 N   0  0  0  0  0  0  0  0  0  0  0  0
   -6.6167   -2.3528    1.3574 H   0  0  0  0  0  0  0  0  0  0  0  0
   -6.7305   -2.5966   -0.4064 H   0  0  0  0  0  0  0  0  0  0  0  0
   -5.4799   -3.4329    0.5310 H   0  0  0  0  0  0  0  0  0  0  0  0
   -6.6774    0.1514    0.1143 H   0  0  0  0  0  0  0  0  0  0  0  0
   -4.9935    1.9663   -0.2493 H   0  0  0  0  0  0  0  0  0  0  0  0
   -0.9548    1.1410    1.0922 H   0  0  0  0  0  0  0  0  0  0  0  0
   -0.8525    1.3810   -0.6646 H   0  0  0  0  0  0  0  0  0  0  0  0
    1.7133    0.1790   -1.8113 H   0  0  0  0  0  0  0  0  0  0  0  0
    5.5480   -0.1483   -2.4931 H   0  0  0  0  0  0  0  0  0  0  0  0
    4.0639    0.7480   -2.8279 H   0  0  0  0  0  0  0  0  0  0  0  0
    3.9926   -0.9799   -2.4063 H   0  0  0  0  0  0  0  0  0  0  0  0
    6.4578    0.3514   -0.2957 H   0  0  0  0  0  0  0  0  0  0  0  0
    6.1291    0.9415    2.0811 H   0  0  0  0  0  0  0  0  0  0  0  0
    3.8669    1.2579    3.0190 H   0  0  0  0  0  0  0  0  0  0  0  0
  1  2  1  0
  2  3  2  0
  3  4  1  0
  4  5  2  0
  5  6  1  0
  6  7  1  0
  7  8  1  0
  8  9  1  0
  9 10  2  0
 10 11  1  0
 11 12  1  0
 12 13  1  0
 12 14  2  0
 14 15  1  0
 15 16  2  0
 16 17  1  0
 17 18  2  0
  6 19  2  0
 19  2  1  0
 18  9  1  0
 17 11  1  0
  1 20  1  0
  1 21  1  0
  1 22  1  0
  3 23  1  0
  4 24  1  0
  8 25  1  0
  8 26  1  0
 10 27  1  0
 13 28  1  0
 13 29  1  0
 13 30  1  0
 14 31  1  0
 15 32  1  0
 16 33  1  0
M  END
$$$$
