
     RDKit          3D

 80 84  0  0  0  0  0  0  0  0999 V2000
    1.3446    3.1022   -0.8735 C   0  0  0  0  0  0  0  0  0  0  0  0
    0.8868    1.8260   -1.3299 O   0  0  0  0  0  0  0  0  0  0  0  0
    1.5922    0.7935   -0.7673 C   0  0  0  0  0  0  0  0  0  0  0  0
    2.9717    0.6977   -0.9811 C   0  0  0  0  0  0  0  0  0  0  0  0
    3.7174   -0.3436   -0.4136 C   0  0  0  0  0  0  0  0  0  0  0  0
    5.0624   -0.4773   -0.6346 O   0  0  0  0  0  0  0  0  0  0  0  0
    5.7959    0.6997   -0.9474 C   0  0  0  0  0  0  0  0  0  0  0  0
    3.0735   -1.3329    0.3570 C   0  0  0  0  0  0  0  0  0  0  0  0
    3.7759   -2.4514    1.0344 C   0  0  0  0  0  0  0  0  0  0  0  0
    5.2361   -2.6660    1.1147 C   0  0  0  0  0  0  0  0  0  0  0  0
    5.8916   -3.4901    0.1915 C   0  0  0  0  0  0  0  0  0  0  0  0
    7.2708   -3.6926    0.2869 C   0  0  0  0  0  0  0  0  0  0  0  0
    8.0009   -3.0752    1.3010 C   0  0  0  0  0  0  0  0  0  0  0  0
    7.3534   -2.2627    2.2312 C   0  0  0  0  0  0  0  0  0  0  0  0
    5.9765   -2.0576    2.1379 C   0  0  0  0  0  0  0  0  0  0  0  0
    3.0513   -3.3656    1.6976 C   0  0  0  0  0  0  0  0  0  0  0  0
    1.5950   -3.3175    1.8070 C   0  0  0  0  0  0  0  0  0  0  0  0
    0.9781   -4.1867    2.4091 O   0  0  0  0  0  0  0  0  0  0  0  0
    0.9726   -2.2379    1.2173 O   0  0  0  0  0  0  0  0  0  0  0  0
    1.6775   -1.2404    0.4988 C   0  0  0  0  0  0  0  0  0  0  0  0
    0.9040   -0.1950   -0.0522 C   0  0  0  0  0  0  0  0  0  0  0  0
   -0.6184   -0.1567    0.1442 C   0  0  0  0  0  0  0  0  0  0  0  0
   -1.3560   -0.2850   -1.2150 C   0  0  0  0  0  0  0  0  0  0  0  0
   -2.8411   -0.6514   -1.0430 C   0  0  0  0  0  0  0  0  0  0  0  0
   -3.5280   -0.8256   -2.3349 N   0  0  0  0  0  0  0  0  0  0  0  0
   -3.0269   -1.9943   -3.0821 C   0  0  0  0  0  0  0  0  0  0  0  0
   -4.0955   -2.7572   -3.8741 C   0  0  0  0  0  0  0  0  0  0  0  0
   -5.0840   -1.8092   -4.5387 C   0  0  0  0  0  0  0  0  0  0  0  0
   -5.6992   -0.8257   -3.5236 C   0  0  0  0  0  0  0  0  0  0  0  0
   -5.7121    0.5914   -4.1046 C   0  0  0  0  0  0  0  0  0  0  0  0
   -4.9823   -0.8696   -2.1600 C   0  0  0  0  0  0  0  0  0  0  0  0
   -1.0440    0.9804    1.0705 C   0  0  0  0  0  0  0  0  0  0  0  0
   -0.7735    0.8786    2.4396 C   0  0  0  0  0  0  0  0  0  0  0  0
   -1.1316    1.9025    3.3292 C   0  0  0  0  0  0  0  0  0  0  0  0
   -1.7868    3.0702    2.9073 C   0  0  0  0  0  0  0  0  0  0  0  0
   -2.1291    4.0922    3.8020 N   0  0  0  0  0  0  0  0  0  0  0  0
   -2.2769    3.7504    5.2166 C   0  0  0  0  0  0  0  0  0  0  0  0
   -2.9432    5.2106    3.3366 C   0  0  0  0  0  0  0  0  0  0  0  0
   -2.0335    3.1603    1.5287 C   0  0  0  0  0  0  0  0  0  0  0  0
   -1.6735    2.1435    0.6278 C   0  0  0  0  0  0  0  0  0  0  0  0
    1.5504    3.1038    0.2038 H   0  0  0  0  0  0  0  0  0  0  0  0
    2.2290    3.4140   -1.4409 H   0  0  0  0  0  0  0  0  0  0  0  0
    0.5503    3.8310   -1.0636 H   0  0  0  0  0  0  0  0  0  0  0  0
    3.4447    1.4302   -1.6278 H   0  0  0  0  0  0  0  0  0  0  0  0
    5.6408    0.9881   -1.9922 H   0  0  0  0  0  0  0  0  0  0  0  0
    5.5490    1.5238   -0.2685 H   0  0  0  0  0  0  0  0  0  0  0  0
    6.8582    0.4708   -0.8192 H   0  0  0  0  0  0  0  0  0  0  0  0
    5.3331   -3.9734   -0.6032 H   0  0  0  0  0  0  0  0  0  0  0  0
    7.7743   -4.3368   -0.4267 H   0  0  0  0  0  0  0  0  0  0  0  0
    9.0729   -3.2365    1.3794 H   0  0  0  0  0  0  0  0  0  0  0  0
    7.9210   -1.7921    3.0323 H   0  0  0  0  0  0  0  0  0  0  0  0
    5.4832   -1.4238    2.8752 H   0  0  0  0  0  0  0  0  0  0  0  0
    3.5051   -4.2019    2.2178 H   0  0  0  0  0  0  0  0  0  0  0  0
   -0.9168   -1.0659    0.6835 H   0  0  0  0  0  0  0  0  0  0  0  0
   -1.2720    0.6303   -1.8131 H   0  0  0  0  0  0  0  0  0  0  0  0
   -0.8596   -1.0728   -1.7956 H   0  0  0  0  0  0  0  0  0  0  0  0
   -3.3330    0.1595   -0.4940 H   0  0  0  0  0  0  0  0  0  0  0  0
   -2.9409   -1.5574   -0.4294 H   0  0  0  0  0  0  0  0  0  0  0  0
   -2.2602   -1.6385   -3.7829 H   0  0  0  0  0  0  0  0  0  0  0  0
   -2.5370   -2.7207   -2.4188 H   0  0  0  0  0  0  0  0  0  0  0  0
   -3.6122   -3.3834   -4.6305 H   0  0  0  0  0  0  0  0  0  0  0  0
   -4.6380   -3.4371   -3.2074 H   0  0  0  0  0  0  0  0  0  0  0  0
   -4.5705   -1.2731   -5.3509 H   0  0  0  0  0  0  0  0  0  0  0  0
   -5.8875   -2.3917   -5.0138 H   0  0  0  0  0  0  0  0  0  0  0  0
   -6.7445   -1.1160   -3.3533 H   0  0  0  0  0  0  0  0  0  0  0  0
   -6.2761    0.6201   -5.0429 H   0  0  0  0  0  0  0  0  0  0  0  0
   -6.1910    1.2917   -3.4109 H   0  0  0  0  0  0  0  0  0  0  0  0
   -4.6979    0.9530   -4.3031 H   0  0  0  0  0  0  0  0  0  0  0  0
   -5.2756   -1.7734   -1.6084 H   0  0  0  0  0  0  0  0  0  0  0  0
   -5.3248   -0.0176   -1.5588 H   0  0  0  0  0  0  0  0  0  0  0  0
   -0.2644    0.0014    2.8343 H   0  0  0  0  0  0  0  0  0  0  0  0
   -0.8634    1.7598    4.3713 H   0  0  0  0  0  0  0  0  0  0  0  0
   -1.3130    3.4693    5.6578 H   0  0  0  0  0  0  0  0  0  0  0  0
   -2.9970    2.9347    5.3544 H   0  0  0  0  0  0  0  0  0  0  0  0
   -2.6324    4.6088    5.8008 H   0  0  0  0  0  0  0  0  0  0  0  0
   -2.4699    5.7255    2.4942 H   0  0  0  0  0  0  0  0  0  0  0  0
   -3.9450    4.8780    3.0474 H   0  0  0  0  0  0  0  0  0  0  0  0
   -3.0559    5.9685    4.1221 H   0  0  0  0  0  0  0  0  0  0  0  0
   -2.5288    4.0274    1.1058 H   0  0  0  0  0  0  0  0  0  0  0  0
   -1.8971    2.2901   -0.4261 H   0  0  0  0  0  0  0  0  0  0  0  0
  1  2  1  0
  2  3  1  0
  3  4  2  0
  4  5  1  0
  5  6  1  0
  6  7  1  0
  5  8  2  0
  8  9  1  0
  9 10  1  0
 10 11  2  0
 11 12  1  0
 12 13  2  0
 13 14  1  0
 14 15  2  0
  9 16  2  0
 16 17  1  0
 17 18  2  0
 17 19  1  0
 19 20  1  0
 20 21  2  0
 21 22  1  0
 22 23  1  0
 23 24  1  0
 24 25  1  0
 25 26  1  0
 26 27  1  0
 27 28  1  0
 28 29  1  0
 29 30  1  0
 29 31  1  0
 22 32  1  0
 32 33  2  0
 33 34  1  0
 34 35  2  0
 35 36  1  0
 36 37  1  0
 36 38  1  0
 35 39  1  0
 39 40  2  0
 21  3  1  0
 31 25  1  0
 40 32  1  0
 20  8  1  0
 15 10  1  0
  1 41  1  0
  1 42  1  0
  1 43  1  0
  4 44  1  0
  7 45  1  0
  7 46  1  0
  7 47  1  0
 11 48  1  0
 12 49  1  0
 13 50  1  0
 14 51  1  0
 15 52  1  0
 16 53  1  0
 22 54  1  0
 23 55  1  0
 23 56  1  0
 24 57  1  0
 24 58  1  0
 26 59  1  0
 26 60  1  0
 27 61  1  0
 27 62  1  0
 28 63  1  0
 28 64  1  0
 29 65  1  0
 30 66  1  0
 30 67  1  0
 30 68  1  0
 31 69  1  0
 31 70  1  0
 33 71  1  0
 34 72  1  0
 37 73  1  0
 37 74  1  0
 37 75  1  0
 38 76  1  0
 38 77  1  0
 38 78  1  0
 39 79  1  0
 40 80  1  0
M  END
$$$$
