
     RDKit          3D

 42 45  0  0  0  0  0  0  0  0999 V2000
    7.1881   -1.2826    1.7837 C   0  0  0  0  0  0  0  0  0  0  0  0
    6.8188    0.1877    1.7005 C   0  0  0  0  0  0  0  0  0  0  0  0
    5.3522    0.3465    1.4359 C   0  0  0  0  0  0  0  0  0  0  0  0
    4.8332    0.3195    0.2444 N   0  0  0  0  0  0  0  0  0  0  0  0
    3.4618    0.4768    0.3644 N   0  0  0  0  0  0  0  0  0  0  0  0
    2.6105    0.4324   -0.7199 C   0  0  0  0  0  0  0  0  0  0  0  0
    3.0426    0.2892   -1.9414 N   0  0  0  0  0  0  0  0  0  0  0  0
    1.1492    0.5559   -0.3999 C   0  0  0  0  0  0  0  0  0  0  0  0
    0.2711    0.3581   -1.4038 C   0  0  0  0  0  0  0  0  0  0  0  0
   -1.1527    0.3531   -1.3388 C   0  0  0  0  0  0  0  0  0  0  0  0
   -2.0570    1.1164   -2.1085 C   0  0  0  0  0  0  0  0  0  0  0  0
   -1.7508    2.1534   -3.1262 C   0  0  0  0  0  0  0  0  0  0  0  0
   -3.3277    0.7845   -1.8564 N   0  0  0  0  0  0  0  0  0  0  0  0
   -3.2684   -0.1271   -0.8332 N   0  0  0  0  0  0  0  0  0  0  0  0
   -4.4882   -0.5334   -0.2087 C   0  0  0  0  0  0  0  0  0  0  0  0
   -5.7037   -0.2873   -0.8724 C   0  0  0  0  0  0  0  0  0  0  0  0
   -6.9197   -0.6653   -0.2977 C   0  0  0  0  0  0  0  0  0  0  0  0
   -6.9383   -1.2776    0.9519 C   0  0  0  0  0  0  0  0  0  0  0  0
   -5.7431   -1.5005    1.6317 C   0  0  0  0  0  0  0  0  0  0  0  0
   -4.5223   -1.1253    1.0595 C   0  0  0  0  0  0  0  0  0  0  0  0
   -1.9514   -0.4917   -0.6064 C   0  0  0  0  0  0  0  0  0  0  0  0
   -1.4898   -1.8638    0.3062 Cl  0  0  0  0  0  0  0  0  0  0  0  0
    0.7665    0.8980    1.0239 C   0  0  0  0  0  0  0  0  0  0  0  0
   -0.3633    1.2781    1.3043 O   0  0  0  0  0  0  0  0  0  0  0  0
    1.7439    0.8045    1.9973 N   0  0  0  0  0  0  0  0  0  0  0  0
    2.9634    0.6272    1.6341 C   0  0  0  0  0  0  0  0  0  0  0  0
    4.2632    0.5470    2.7983 S   0  0  0  0  0  0  0  0  0  0  0  0
    8.2636   -1.3965    1.9500 H   0  0  0  0  0  0  0  0  0  0  0  0
    6.9269   -1.8076    0.8587 H   0  0  0  0  0  0  0  0  0  0  0  0
    6.6605   -1.7767    2.6061 H   0  0  0  0  0  0  0  0  0  0  0  0
    7.0957    0.6996    2.6282 H   0  0  0  0  0  0  0  0  0  0  0  0
    7.3728    0.6612    0.8824 H   0  0  0  0  0  0  0  0  0  0  0  0
    4.0711    0.2247   -1.8744 H   0  0  0  0  0  0  0  0  0  0  0  0
    0.6677    0.1679   -2.4017 H   0  0  0  0  0  0  0  0  0  0  0  0
   -1.3031    1.6941   -4.0132 H   0  0  0  0  0  0  0  0  0  0  0  0
   -2.6534    2.6883   -3.4390 H   0  0  0  0  0  0  0  0  0  0  0  0
   -1.0474    2.8900   -2.7249 H   0  0  0  0  0  0  0  0  0  0  0  0
   -5.7193    0.1904   -1.8508 H   0  0  0  0  0  0  0  0  0  0  0  0
   -7.8500   -0.4768   -0.8270 H   0  0  0  0  0  0  0  0  0  0  0  0
   -7.8839   -1.5678    1.4023 H   0  0  0  0  0  0  0  0  0  0  0  0
   -5.7590   -1.9546    2.6197 H   0  0  0  0  0  0  0  0  0  0  0  0
   -3.6306   -1.2645    1.6606 H   0  0  0  0  0  0  0  0  0  0  0  0
  1  2  1  0
  2  3  1  0
  3  4  2  0
  4  5  1  0
  5  6  1  0
  6  7  2  3
  6  8  1  0
  8  9  2  3
  9 10  1  0
 10 11  1  0
 11 12  1  0
 11 13  2  0
 13 14  1  0
 14 15  1  0
 15 16  2  0
 16 17  1  0
 17 18  2  0
 18 19  1  0
 19 20  2  0
 14 21  1  0
 21 22  1  0
  8 23  1  0
 23 24  2  0
 23 25  1  0
 25 26  2  0
 26 27  1  0
 27  3  1  0
 26  5  1  0
 21 10  2  0
 20 15  1  0
  1 28  1  0
  1 29  1  0
  1 30  1  0
  2 31  1  0
  2 32  1  0
  7 33  1  0
  9 34  1  0
 12 35  1  0
 12 36  1  0
 12 37  1  0
 16 38  1  0
 17 39  1  0
 18 40  1  0
 19 41  1  0
 20 42  1  0
M  END
$$$$
