
     RDKit          3D

 68 71  0  0  0  0  0  0  0  0999 V2000
   -0.2948    3.6306    0.4298 C   0  0  0  0  0  0  0  0  0  0  0  0
   -1.1415    2.5132   -0.1846 C   0  0  0  0  0  0  0  0  0  0  0  0
   -2.4417    3.0937   -0.3416 O   0  0  0  0  0  0  0  0  0  0  0  0
   -3.2217    2.6406   -1.3676 C   0  0  0  0  0  0  0  0  0  0  0  0
   -4.2118    3.5297   -1.7933 C   0  0  0  0  0  0  0  0  0  0  0  0
   -5.0779    3.1853   -2.8321 C   0  0  0  0  0  0  0  0  0  0  0  0
   -4.9657    1.9394   -3.4433 C   0  0  0  0  0  0  0  0  0  0  0  0
   -3.9920    1.0417   -3.0112 C   0  0  0  0  0  0  0  0  0  0  0  0
   -3.1255    1.3886   -1.9707 C   0  0  0  0  0  0  0  0  0  0  0  0
   -1.1373    1.2859    0.7708 C   0  0  0  0  0  0  0  0  0  0  0  0
   -2.1385    1.0264    1.4473 O   0  0  0  0  0  0  0  0  0  0  0  0
    0.0569    0.5613    0.9416 N   0  0  0  0  0  0  0  0  0  0  0  0
    0.0311   -0.5752    1.8915 C   0  0  0  0  0  0  0  0  0  0  0  0
   -0.3662   -1.9279    1.2649 C   0  0  0  0  0  0  0  0  0  0  0  0
   -1.8271   -2.1050    0.9128 C   0  0  0  0  0  0  0  0  0  0  0  0
   -2.2363   -2.2422   -0.3620 C   0  0  0  0  0  0  0  0  0  0  0  0
   -3.6630   -2.4816   -0.7647 C   0  0  0  0  0  0  0  0  0  0  0  0
   -4.5627   -2.8845    0.4025 C   0  0  0  0  0  0  0  0  0  0  0  0
   -4.2695   -2.0365    1.6328 C   0  0  0  0  0  0  0  0  0  0  0  0
   -2.8070   -2.1754    2.0640 C   0  0  0  0  0  0  0  0  0  0  0  0
    1.1778    0.6636    0.1075 C   0  0  0  0  0  0  0  0  0  0  0  0
    2.4188    0.9488    0.5818 C   0  0  0  0  0  0  0  0  0  0  0  0
    2.5893    1.2900    1.9239 N   0  0  0  0  0  0  0  0  0  0  0  0
    3.5089    0.9436   -0.2886 N   0  0  0  0  0  0  0  0  0  0  0  0
    4.8852    0.9612    0.2236 C   0  0  0  0  0  0  0  0  0  0  0  0
    5.3893   -0.4197    0.5907 C   0  0  0  0  0  0  0  0  0  0  0  0
    5.2432   -0.9143    1.8948 C   0  0  0  0  0  0  0  0  0  0  0  0
    5.6969   -2.1925    2.2243 C   0  0  0  0  0  0  0  0  0  0  0  0
    6.2956   -2.9925    1.2537 C   0  0  0  0  0  0  0  0  0  0  0  0
    6.4411   -2.5161   -0.0471 C   0  0  0  0  0  0  0  0  0  0  0  0
    5.9891   -1.2380   -0.3778 C   0  0  0  0  0  0  0  0  0  0  0  0
    3.3697    0.7866   -1.6622 C   0  0  0  0  0  0  0  0  0  0  0  0
    4.3037    0.7269   -2.4596 O   0  0  0  0  0  0  0  0  0  0  0  0
    2.0951    0.6901   -2.1286 N   0  0  0  0  0  0  0  0  0  0  0  0
    1.0281    0.3824   -1.3506 C   0  0  0  0  0  0  0  0  0  0  0  0
    0.0042   -0.0908   -1.8309 O   0  0  0  0  0  0  0  0  0  0  0  0
    0.7606    3.3641    0.5151 H   0  0  0  0  0  0  0  0  0  0  0  0
   -0.3677    4.5414   -0.1755 H   0  0  0  0  0  0  0  0  0  0  0  0
   -0.6599    3.8863    1.4311 H   0  0  0  0  0  0  0  0  0  0  0  0
   -0.7249    2.2693   -1.1641 H   0  0  0  0  0  0  0  0  0  0  0  0
   -4.3073    4.4994   -1.3133 H   0  0  0  0  0  0  0  0  0  0  0  0
   -5.8409    3.8869   -3.1568 H   0  0  0  0  0  0  0  0  0  0  0  0
   -5.6421    1.6624   -4.2473 H   0  0  0  0  0  0  0  0  0  0  0  0
   -3.9109    0.0611   -3.4719 H   0  0  0  0  0  0  0  0  0  0  0  0
   -2.4080    0.6473   -1.6386 H   0  0  0  0  0  0  0  0  0  0  0  0
    1.0271   -0.6952    2.3318 H   0  0  0  0  0  0  0  0  0  0  0  0
   -0.6294   -0.3254    2.7287 H   0  0  0  0  0  0  0  0  0  0  0  0
   -0.1076   -2.7195    1.9796 H   0  0  0  0  0  0  0  0  0  0  0  0
    0.2610   -2.1133    0.3838 H   0  0  0  0  0  0  0  0  0  0  0  0
   -1.5171   -2.1804   -1.1760 H   0  0  0  0  0  0  0  0  0  0  0  0
   -4.0502   -1.5672   -1.2276 H   0  0  0  0  0  0  0  0  0  0  0  0
   -3.6980   -3.2658   -1.5293 H   0  0  0  0  0  0  0  0  0  0  0  0
   -4.4029   -3.9430    0.6438 H   0  0  0  0  0  0  0  0  0  0  0  0
   -5.6141   -2.7796    0.1119 H   0  0  0  0  0  0  0  0  0  0  0  0
   -4.4900   -0.9842    1.4102 H   0  0  0  0  0  0  0  0  0  0  0  0
   -4.9272   -2.3282    2.4584 H   0  0  0  0  0  0  0  0  0  0  0  0
   -2.6703   -3.1389    2.5704 H   0  0  0  0  0  0  0  0  0  0  0  0
   -2.5968   -1.3944    2.8017 H   0  0  0  0  0  0  0  0  0  0  0  0
    3.2198    2.0781    2.0390 H   0  0  0  0  0  0  0  0  0  0  0  0
    1.6981    1.4952    2.3772 H   0  0  0  0  0  0  0  0  0  0  0  0
    5.5548    1.3922   -0.5323 H   0  0  0  0  0  0  0  0  0  0  0  0
    4.9730    1.6395    1.0794 H   0  0  0  0  0  0  0  0  0  0  0  0
    4.7701   -0.3083    2.6636 H   0  0  0  0  0  0  0  0  0  0  0  0
    5.5811   -2.5650    3.2386 H   0  0  0  0  0  0  0  0  0  0  0  0
    6.6483   -3.9880    1.5104 H   0  0  0  0  0  0  0  0  0  0  0  0
    6.9055   -3.1389   -0.8065 H   0  0  0  0  0  0  0  0  0  0  0  0
    6.1075   -0.8839   -1.4007 H   0  0  0  0  0  0  0  0  0  0  0  0
    2.0146    0.4584   -3.1077 H   0  0  0  0  0  0  0  0  0  0  0  0
  1  2  1  0
  2  3  1  0
  3  4  1  0
  4  5  2  0
  5  6  1  0
  6  7  2  0
  7  8  1  0
  8  9  2  0
  2 10  1  0
 10 11  2  0
 10 12  1  0
 12 13  1  0
 13 14  1  0
 14 15  1  0
 15 16  2  0
 16 17  1  0
 17 18  1  0
 18 19  1  0
 19 20  1  0
 12 21  1  0
 21 22  2  0
 22 23  1  0
 22 24  1  0
 24 25  1  0
 25 26  1  0
 26 27  2  0
 27 28  1  0
 28 29  2  0
 29 30  1  0
 30 31  2  0
 24 32  1  0
 32 33  2  0
 32 34  1  0
 34 35  1  0
 35 36  2  0
  9  4  1  0
 20 15  1  0
 35 21  1  0
 31 26  1  0
  1 37  1  0
  1 38  1  0
  1 39  1  0
  2 40  1  0
  5 41  1  0
  6 42  1  0
  7 43  1  0
  8 44  1  0
  9 45  1  0
 13 46  1  0
 13 47  1  0
 14 48  1  0
 14 49  1  0
 16 50  1  0
 17 51  1  0
 17 52  1  0
 18 53  1  0
 18 54  1  0
 19 55  1  0
 19 56  1  0
 20 57  1  0
 20 58  1  0
 23 59  1  0
 23 60  1  0
 25 61  1  0
 25 62  1  0
 27 63  1  0
 28 64  1  0
 29 65  1  0
 30 66  1  0
 31 67  1  0
 34 68  1  0
M  END
$$$$
