
     RDKit          3D

 43 45  0  0  0  0  0  0  0  0999 V2000
   -7.1018    1.2056   -1.0391 C   0  0  0  0  0  0  0  0  0  0  0  0
   -6.7638    0.7477    0.1737 C   0  0  0  0  0  0  0  0  0  0  0  0
   -6.2604   -0.6430    0.4473 C   0  0  0  0  0  0  0  0  0  0  0  0
   -4.8324   -0.5837    0.7136 N   0  0  0  0  0  0  0  0  0  0  0  0
   -4.4253   -0.3240    2.0135 C   0  0  0  0  0  0  0  0  0  0  0  0
   -5.1944   -0.1541    2.9574 O   0  0  0  0  0  0  0  0  0  0  0  0
   -3.0830   -0.2571    2.2274 N   0  0  0  0  0  0  0  0  0  0  0  0
   -2.1344   -0.4271    1.2364 C   0  0  0  0  0  0  0  0  0  0  0  0
   -0.8390   -0.3233    1.5955 N   0  0  0  0  0  0  0  0  0  0  0  0
    0.0732   -0.4983    0.6139 C   0  0  0  0  0  0  0  0  0  0  0  0
    1.4246   -0.4039    0.9098 C   0  0  0  0  0  0  0  0  0  0  0  0
    2.4060   -0.5657   -0.0734 C   0  0  0  0  0  0  0  0  0  0  0  0
    3.7587   -0.4765    0.2849 N   0  0  0  0  0  0  0  0  0  0  0  0
    4.2723    0.7102    0.2812 C   0  0  0  0  0  0  0  0  0  0  0  0
    5.5720    1.0320    0.5996 N   0  0  0  0  0  0  0  0  0  0  0  0
    6.5495   -0.0362    0.7618 C   0  0  0  0  0  0  0  0  0  0  0  0
    6.1056    2.3392    0.2533 C   0  0  0  0  0  0  0  0  0  0  0  0
    2.0221   -0.8620   -1.3872 C   0  0  0  0  0  0  0  0  0  0  0  0
    3.0489   -1.0712   -2.4636 C   0  0  0  0  0  0  0  0  0  0  0  0
    0.6559   -0.9518   -1.6917 C   0  0  0  0  0  0  0  0  0  0  0  0
   -0.3202   -0.7753   -0.7210 C   0  0  0  0  0  0  0  0  0  0  0  0
   -1.6170   -0.8728   -1.0649 N   0  0  0  0  0  0  0  0  0  0  0  0
   -2.5140   -0.6940   -0.0628 C   0  0  0  0  0  0  0  0  0  0  0  0
   -3.9597   -0.7916   -0.3612 C   0  0  0  0  0  0  0  0  0  0  0  0
   -4.3351   -1.0518   -1.5027 O   0  0  0  0  0  0  0  0  0  0  0  0
   -7.0055    0.5861   -1.9271 H   0  0  0  0  0  0  0  0  0  0  0  0
   -7.4691    2.2186   -1.1710 H   0  0  0  0  0  0  0  0  0  0  0  0
   -6.8732    1.4015    1.0369 H   0  0  0  0  0  0  0  0  0  0  0  0
   -6.4631   -1.3092   -0.3989 H   0  0  0  0  0  0  0  0  0  0  0  0
   -6.7915   -1.0548    1.3130 H   0  0  0  0  0  0  0  0  0  0  0  0
   -2.7580   -0.0653    3.1648 H   0  0  0  0  0  0  0  0  0  0  0  0
    1.7308   -0.2023    1.9333 H   0  0  0  0  0  0  0  0  0  0  0  0
    3.6717    1.5988    0.0061 H   0  0  0  0  0  0  0  0  0  0  0  0
    6.8094   -0.4659   -0.2113 H   0  0  0  0  0  0  0  0  0  0  0  0
    7.4668    0.3356    1.2306 H   0  0  0  0  0  0  0  0  0  0  0  0
    6.1598   -0.8318    1.4058 H   0  0  0  0  0  0  0  0  0  0  0  0
    6.3639    2.3751   -0.8100 H   0  0  0  0  0  0  0  0  0  0  0  0
    5.3748    3.1281    0.4610 H   0  0  0  0  0  0  0  0  0  0  0  0
    7.0031    2.5665    0.8380 H   0  0  0  0  0  0  0  0  0  0  0  0
    3.7665   -1.8421   -2.1642 H   0  0  0  0  0  0  0  0  0  0  0  0
    2.5861   -1.4020   -3.3994 H   0  0  0  0  0  0  0  0  0  0  0  0
    3.5817   -0.1365   -2.6650 H   0  0  0  0  0  0  0  0  0  0  0  0
    0.3377   -1.1717   -2.7093 H   0  0  0  0  0  0  0  0  0  0  0  0
  1  2  2  0
  2  3  1  0
  3  4  1  0
  4  5  1  0
  5  6  2  0
  5  7  1  0
  7  8  1  0
  8  9  2  0
  9 10  1  0
 10 11  2  0
 11 12  1  0
 12 13  1  0
 13 14  2  3
 14 15  1  0
 15 16  1  0
 15 17  1  0
 12 18  2  0
 18 19  1  0
 18 20  1  0
 20 21  2  0
 21 22  1  0
 22 23  2  0
 23 24  1  0
 24 25  2  0
 24  4  1  0
 23  8  1  0
 21 10  1  0
  1 26  1  0
  1 27  1  0
  2 28  1  0
  3 29  1  0
  3 30  1  0
  7 31  1  0
 11 32  1  0
 14 33  1  0
 16 34  1  0
 16 35  1  0
 16 36  1  0
 17 37  1  0
 17 38  1  0
 17 39  1  0
 19 40  1  0
 19 41  1  0
 19 42  1  0
 20 43  1  0
M  END
$$$$
