
     RDKit          3D

 55 58  0  0  0  0  0  0  0  0999 V2000
   -1.0353    0.0350    5.9418 N   0  0  0  0  0  0  0  0  0  0  0  0
   -0.7862   -0.8016    4.8803 C   0  0  0  0  0  0  0  0  0  0  0  0
   -1.5106   -1.7686    4.6469 O   0  0  0  0  0  0  0  0  0  0  0  0
    0.3893   -0.4431    4.0735 C   0  0  0  0  0  0  0  0  0  0  0  0
    1.2095    0.5482    4.4939 N   0  0  0  0  0  0  0  0  0  0  0  0
    2.4847    0.6751    3.4468 S   0  0  0  0  0  0  0  0  0  0  0  0
    1.9406   -0.4985    2.3303 C   0  0  0  0  0  0  0  0  0  0  0  0
    2.7169   -0.7601    1.1365 C   0  0  0  0  0  0  0  0  0  0  0  0
    3.9411   -0.9327    1.2190 O   0  0  0  0  0  0  0  0  0  0  0  0
    2.0237   -0.7842   -0.1108 N   0  0  0  0  0  0  0  0  0  0  0  0
    2.6456   -1.4198   -1.2567 C   0  0  0  0  0  0  0  0  0  0  0  0
    2.3955   -1.0160   -2.5801 C   0  0  0  0  0  0  0  0  0  0  0  0
    3.0049   -1.6625   -3.6657 C   0  0  0  0  0  0  0  0  0  0  0  0
    3.8704   -2.7257   -3.4555 C   0  0  0  0  0  0  0  0  0  0  0  0
    4.1194   -3.1566   -2.1588 C   0  0  0  0  0  0  0  0  0  0  0  0
    3.5057   -2.5126   -1.0780 C   0  0  0  0  0  0  0  0  0  0  0  0
    0.8569    0.1081   -0.2923 C   0  0  0  0  0  0  0  0  0  0  0  0
   -0.2924   -0.4280   -1.1840 C   0  0  0  0  0  0  0  0  0  0  0  0
   -0.5366   -1.6308   -1.2837 O   0  0  0  0  0  0  0  0  0  0  0  0
   -1.1010    0.5212   -1.7800 N   0  0  0  0  0  0  0  0  0  0  0  0
   -2.3448    0.1756   -2.4291 C   0  0  0  0  0  0  0  0  0  0  0  0
   -3.5090    0.6129   -1.5770 C   0  0  0  0  0  0  0  0  0  0  0  0
   -4.1708    1.8235   -1.8385 C   0  0  0  0  0  0  0  0  0  0  0  0
   -5.2070    2.2551   -1.0113 C   0  0  0  0  0  0  0  0  0  0  0  0
   -5.5758    1.4812    0.0809 C   0  0  0  0  0  0  0  0  0  0  0  0
   -6.5558    1.9084    0.8860 F   0  0  0  0  0  0  0  0  0  0  0  0
   -4.9357    0.2795    0.3570 C   0  0  0  0  0  0  0  0  0  0  0  0
   -3.9025   -0.1593   -0.4679 C   0  0  0  0  0  0  0  0  0  0  0  0
    1.2985    1.5183   -0.6034 C   0  0  0  0  0  0  0  0  0  0  0  0
    2.4915    2.1117   -0.9801 C   0  0  0  0  0  0  0  0  0  0  0  0
    2.2694    3.5093   -0.9846 C   0  0  0  0  0  0  0  0  0  0  0  0
    0.9648    3.6938   -0.5832 C   0  0  0  0  0  0  0  0  0  0  0  0
    0.3698    2.4946   -0.3576 O   0  0  0  0  0  0  0  0  0  0  0  0
    0.7769   -1.0609    2.8203 C   0  0  0  0  0  0  0  0  0  0  0  0
    0.0821   -2.0465    2.2070 N   0  0  0  0  0  0  0  0  0  0  0  0
   -0.3776    0.7825    6.1640 H   0  0  0  0  0  0  0  0  0  0  0  0
   -1.7793   -0.2012    6.5830 H   0  0  0  0  0  0  0  0  0  0  0  0
    1.7469   -0.1792   -2.8203 H   0  0  0  0  0  0  0  0  0  0  0  0
    2.8096   -1.3161   -4.6802 H   0  0  0  0  0  0  0  0  0  0  0  0
    4.3491   -3.2254   -4.2950 H   0  0  0  0  0  0  0  0  0  0  0  0
    4.7943   -3.9951   -1.9780 H   0  0  0  0  0  0  0  0  0  0  0  0
    3.7160   -2.9106   -0.0803 H   0  0  0  0  0  0  0  0  0  0  0  0
    0.3424    0.2101    0.6680 H   0  0  0  0  0  0  0  0  0  0  0  0
   -0.9913    1.4855   -1.4933 H   0  0  0  0  0  0  0  0  0  0  0  0
   -2.4031   -0.8937   -2.6427 H   0  0  0  0  0  0  0  0  0  0  0  0
   -2.3607    0.6983   -3.3923 H   0  0  0  0  0  0  0  0  0  0  0  0
   -3.8788    2.4445   -2.6891 H   0  0  0  0  0  0  0  0  0  0  0  0
   -5.7291    3.1922   -1.2147 H   0  0  0  0  0  0  0  0  0  0  0  0
   -5.2374   -0.3063    1.2197 H   0  0  0  0  0  0  0  0  0  0  0  0
   -3.3936   -1.0946   -0.2415 H   0  0  0  0  0  0  0  0  0  0  0  0
    3.4215    1.6004   -1.2087 H   0  0  0  0  0  0  0  0  0  0  0  0
    2.9786    4.2934   -1.2182 H   0  0  0  0  0  0  0  0  0  0  0  0
    0.3487    4.5686   -0.4029 H   0  0  0  0  0  0  0  0  0  0  0  0
   -0.6772   -2.5142    2.7002 H   0  0  0  0  0  0  0  0  0  0  0  0
    0.4275   -2.5836    1.4092 H   0  0  0  0  0  0  0  0  0  0  0  0
  1  2  1  0
  2  3  2  0
  2  4  1  0
  4  5  2  0
  5  6  1  0
  6  7  1  0
  7  8  1  0
  8  9  2  0
  8 10  1  0
 10 11  1  0
 11 12  2  0
 12 13  1  0
 13 14  2  0
 14 15  1  0
 15 16  2  0
 10 17  1  0
 17 18  1  0
 18 19  2  0
 18 20  1  0
 20 21  1  0
 21 22  1  0
 22 23  2  0
 23 24  1  0
 24 25  2  0
 25 26  1  0
 25 27  1  0
 27 28  2  0
 17 29  1  0
 29 30  2  0
 30 31  1  0
 31 32  2  0
 32 33  1  0
  7 34  2  0
 34 35  1  0
 34  4  1  0
 16 11  1  0
 28 22  1  0
 33 29  1  0
  1 36  1  0
  1 37  1  0
 12 38  1  0
 13 39  1  0
 14 40  1  0
 15 41  1  0
 16 42  1  0
 17 43  1  0
 20 44  1  0
 21 45  1  0
 21 46  1  0
 23 47  1  0
 24 48  1  0
 27 49  1  0
 28 50  1  0
 30 51  1  0
 31 52  1  0
 32 53  1  0
 35 54  1  0
 35 55  1  0
M  END
$$$$
