
     RDKit          3D

 45 47  0  0  0  0  0  0  0  0999 V2000
   -4.0647    2.3803   -1.4185 C   0  0  0  0  0  0  0  0  0  0  0  0
   -4.6557    1.9275   -0.0898 C   0  0  0  0  0  0  0  0  0  0  0  0
   -4.4074    0.5007    0.1622 N   0  0  0  0  0  0  0  0  0  0  0  0
   -5.5661   -0.3955    0.0589 C   0  0  0  0  0  0  0  0  0  0  0  0
   -5.7943   -0.8500   -1.3746 C   0  0  0  0  0  0  0  0  0  0  0  0
   -3.1412    0.0198    0.4822 C   0  0  0  0  0  0  0  0  0  0  0  0
   -2.0976    0.8671    0.8911 C   0  0  0  0  0  0  0  0  0  0  0  0
   -0.8172    0.3901    1.2170 C   0  0  0  0  0  0  0  0  0  0  0  0
   -0.5227   -0.9668    1.1290 C   0  0  0  0  0  0  0  0  0  0  0  0
    0.7817   -1.5205    1.5024 C   0  0  0  0  0  0  0  0  0  0  0  0
    1.9877   -1.1269    1.0714 C   0  0  0  0  0  0  0  0  0  0  0  0
    3.2233   -1.8144    1.5404 C   0  0  0  0  0  0  0  0  0  0  0  0
    3.3231   -2.7371    2.3213 O   0  0  0  0  0  0  0  0  0  0  0  0
    4.3310   -1.1418    0.8538 C   0  0  0  0  0  0  0  0  0  0  0  0
    5.6838   -1.4119    0.9545 C   0  0  0  0  0  0  0  0  0  0  0  0
    6.5594   -0.6274    0.1938 C   0  0  0  0  0  0  0  0  0  0  0  0
    6.0715    0.4028   -0.6457 C   0  0  0  0  0  0  0  0  0  0  0  0
    6.9847    1.2441   -1.4580 C   0  0  0  0  0  0  0  0  0  0  0  0
    6.6467    2.1490   -2.1967 O   0  0  0  0  0  0  0  0  0  0  0  0
    8.2763    0.9084   -1.3031 O   0  0  0  0  0  0  0  0  0  0  0  0
    4.6941    0.6573   -0.7308 C   0  0  0  0  0  0  0  0  0  0  0  0
    3.8466   -0.1302    0.0297 C   0  0  0  0  0  0  0  0  0  0  0  0
    2.3819   -0.0589    0.1114 C   0  0  0  0  0  0  0  0  0  0  0  0
    1.6922    0.7293   -0.4972 O   0  0  0  0  0  0  0  0  0  0  0  0
   -1.5416   -1.8351    0.7420 C   0  0  0  0  0  0  0  0  0  0  0  0
   -2.8188   -1.3461    0.4228 C   0  0  0  0  0  0  0  0  0  0  0  0
   -4.4644    1.7935   -2.2512 H   0  0  0  0  0  0  0  0  0  0  0  0
   -4.3092    3.4320   -1.5986 H   0  0  0  0  0  0  0  0  0  0  0  0
   -2.9754    2.2832   -1.4379 H   0  0  0  0  0  0  0  0  0  0  0  0
   -4.2846    2.5462    0.7346 H   0  0  0  0  0  0  0  0  0  0  0  0
   -5.7353    2.1207   -0.1229 H   0  0  0  0  0  0  0  0  0  0  0  0
   -5.4705   -1.2604    0.7255 H   0  0  0  0  0  0  0  0  0  0  0  0
   -6.4670    0.1231    0.4107 H   0  0  0  0  0  0  0  0  0  0  0  0
   -6.0398   -0.0024   -2.0219 H   0  0  0  0  0  0  0  0  0  0  0  0
   -6.6304   -1.5551   -1.4176 H   0  0  0  0  0  0  0  0  0  0  0  0
   -4.9106   -1.3431   -1.7906 H   0  0  0  0  0  0  0  0  0  0  0  0
   -2.2506    1.9379    0.9807 H   0  0  0  0  0  0  0  0  0  0  0  0
   -0.0629    1.1056    1.5340 H   0  0  0  0  0  0  0  0  0  0  0  0
    0.7229   -2.3613    2.1942 H   0  0  0  0  0  0  0  0  0  0  0  0
    6.0514   -2.2042    1.6006 H   0  0  0  0  0  0  0  0  0  0  0  0
    7.6293   -0.8222    0.2573 H   0  0  0  0  0  0  0  0  0  0  0  0
    8.7560    1.5335   -1.8875 H   0  0  0  0  0  0  0  0  0  0  0  0
    4.2978    1.4431   -1.3696 H   0  0  0  0  0  0  0  0  0  0  0  0
   -1.3604   -2.9052    0.6722 H   0  0  0  0  0  0  0  0  0  0  0  0
   -3.5532   -2.0787    0.1034 H   0  0  0  0  0  0  0  0  0  0  0  0
  1  2  1  0
  2  3  1  0
  3  4  1  0
  4  5  1  0
  3  6  1  0
  6  7  2  0
  7  8  1  0
  8  9  2  0
  9 10  1  0
 10 11  2  3
 11 12  1  0
 12 13  2  0
 12 14  1  0
 14 15  2  0
 15 16  1  0
 16 17  2  0
 17 18  1  0
 18 19  2  0
 18 20  1  0
 17 21  1  0
 21 22  2  0
 22 23  1  0
 23 24  2  0
  9 25  1  0
 25 26  2  0
 26  6  1  0
 23 11  1  0
 22 14  1  0
  1 27  1  0
  1 28  1  0
  1 29  1  0
  2 30  1  0
  2 31  1  0
  4 32  1  0
  4 33  1  0
  5 34  1  0
  5 35  1  0
  5 36  1  0
  7 37  1  0
  8 38  1  0
 10 39  1  0
 15 40  1  0
 16 41  1  0
 20 42  1  0
 21 43  1  0
 25 44  1  0
 26 45  1  0
M  END
$$$$
