
     RDKit          3D

 50 53  0  0  0  0  0  0  0  0999 V2000
    7.6254    1.6322    1.2164 C   0  0  0  0  0  0  0  0  0  0  0  0
    6.8458    0.4672    0.9760 O   0  0  0  0  0  0  0  0  0  0  0  0
    5.5519    0.6623    0.5813 C   0  0  0  0  0  0  0  0  0  0  0  0
    4.9262    1.8904    0.3917 C   0  0  0  0  0  0  0  0  0  0  0  0
    3.5870    1.9411   -0.0175 C   0  0  0  0  0  0  0  0  0  0  0  0
    2.8458    0.7652   -0.2352 C   0  0  0  0  0  0  0  0  0  0  0  0
    1.4814    0.8805   -0.6498 N   0  0  0  0  0  0  0  0  0  0  0  0
    1.0130    2.1077   -1.0279 N   0  0  0  0  0  0  0  0  0  0  0  0
   -0.2262    1.9013   -1.4628 C   0  0  0  0  0  0  0  0  0  0  0  0
   -0.6291    0.5723   -1.3031 C   0  0  0  0  0  0  0  0  0  0  0  0
    0.4682   -0.0674   -0.7530 C   0  0  0  0  0  0  0  0  0  0  0  0
    0.4991   -1.5098   -0.3675 C   0  0  0  0  0  0  0  0  0  0  0  0
   -0.9364   -2.1166   -0.2855 C   0  0  0  0  0  0  0  0  0  0  0  0
   -1.5726   -1.7825    1.0789 C   0  0  0  0  0  0  0  0  0  0  0  0
   -0.8279   -3.6524   -0.3827 C   0  0  0  0  0  0  0  0  0  0  0  0
   -1.8238   -1.6129   -1.4682 C   0  0  0  0  0  0  0  0  0  0  0  0
   -1.9363   -0.0743   -1.5998 C   0  0  0  0  0  0  0  0  0  0  0  0
   -2.9192    0.4879   -0.6965 N   0  0  0  0  0  0  0  0  0  0  0  0
   -4.2669    0.3860   -0.9501 C   0  0  0  0  0  0  0  0  0  0  0  0
   -4.7090   -0.1329   -1.9705 O   0  0  0  0  0  0  0  0  0  0  0  0
   -5.1371    0.9274    0.0801 C   0  0  0  0  0  0  0  0  0  0  0  0
   -4.8505    1.5927    1.2947 C   0  0  0  0  0  0  0  0  0  0  0  0
   -5.9479    1.9351    1.9752 N   0  0  0  0  0  0  0  0  0  0  0  0
   -6.9502    1.4985    1.1965 N   0  0  0  0  0  0  0  0  0  0  0  0
   -6.5193    0.8905    0.0569 C   0  0  0  0  0  0  0  0  0  0  0  0
    3.4873   -0.4626   -0.0581 C   0  0  0  0  0  0  0  0  0  0  0  0
    4.8272   -0.5076    0.3508 C   0  0  0  0  0  0  0  0  0  0  0  0
    7.7330    2.2302    0.3054 H   0  0  0  0  0  0  0  0  0  0  0  0
    8.6250    1.3081    1.5217 H   0  0  0  0  0  0  0  0  0  0  0  0
    7.2044    2.2273    2.0336 H   0  0  0  0  0  0  0  0  0  0  0  0
    5.4441    2.8304    0.5498 H   0  0  0  0  0  0  0  0  0  0  0  0
    3.1305    2.9209   -0.1545 H   0  0  0  0  0  0  0  0  0  0  0  0
   -0.7912    2.7377   -1.8556 H   0  0  0  0  0  0  0  0  0  0  0  0
    0.9985   -1.6457    0.5983 H   0  0  0  0  0  0  0  0  0  0  0  0
    1.0718   -2.0502   -1.1317 H   0  0  0  0  0  0  0  0  0  0  0  0
   -1.0414   -2.2902    1.8927 H   0  0  0  0  0  0  0  0  0  0  0  0
   -2.6186   -2.1066    1.1163 H   0  0  0  0  0  0  0  0  0  0  0  0
   -1.5399   -0.7134    1.3046 H   0  0  0  0  0  0  0  0  0  0  0  0
   -0.3951   -3.9606   -1.3411 H   0  0  0  0  0  0  0  0  0  0  0  0
   -0.1916   -4.0557    0.4131 H   0  0  0  0  0  0  0  0  0  0  0  0
   -1.8132   -4.1242   -0.2959 H   0  0  0  0  0  0  0  0  0  0  0  0
   -1.3775   -1.9883   -2.4008 H   0  0  0  0  0  0  0  0  0  0  0  0
   -2.8215   -2.0656   -1.4071 H   0  0  0  0  0  0  0  0  0  0  0  0
   -2.2454    0.1664   -2.6246 H   0  0  0  0  0  0  0  0  0  0  0  0
   -2.5966    0.8582    0.1843 H   0  0  0  0  0  0  0  0  0  0  0  0
   -3.8895    1.8482    1.7213 H   0  0  0  0  0  0  0  0  0  0  0  0
   -7.9049    1.6503    1.5069 H   0  0  0  0  0  0  0  0  0  0  0  0
   -7.2121    0.4869   -0.6688 H   0  0  0  0  0  0  0  0  0  0  0  0
    3.0099   -1.4118   -0.2566 H   0  0  0  0  0  0  0  0  0  0  0  0
    5.3153   -1.4713    0.4816 H   0  0  0  0  0  0  0  0  0  0  0  0
  1  2  1  0
  2  3  1  0
  3  4  2  0
  4  5  1  0
  5  6  2  0
  6  7  1  0
  7  8  1  0
  8  9  2  0
  9 10  1  0
 10 11  2  0
 11 12  1  0
 12 13  1  0
 13 14  1  0
 13 15  1  0
 13 16  1  0
 16 17  1  0
 17 18  1  0
 18 19  1  0
 19 20  2  0
 19 21  1  0
 21 22  1  0
 22 23  2  0
 23 24  1  0
 24 25  1  0
  6 26  1  0
 26 27  2  0
 27  3  1  0
 11  7  1  0
 25 21  2  0
 17 10  1  0
  1 28  1  0
  1 29  1  0
  1 30  1  0
  4 31  1  0
  5 32  1  0
  9 33  1  0
 12 34  1  0
 12 35  1  0
 14 36  1  0
 14 37  1  0
 14 38  1  0
 15 39  1  0
 15 40  1  0
 15 41  1  0
 16 42  1  0
 16 43  1  0
 17 44  1  0
 18 45  1  0
 22 46  1  0
 24 47  1  0
 25 48  1  0
 26 49  1  0
 27 50  1  0
M  END
$$$$
