
     RDKit          3D

 46 48  0  0  0  0  0  0  0  0999 V2000
    8.1271   -1.4246    0.2464 C   0  0  0  0  0  0  0  0  0  0  0  0
    7.4092   -0.2091    0.4213 O   0  0  0  0  0  0  0  0  0  0  0  0
    6.0469   -0.2777    0.3346 C   0  0  0  0  0  0  0  0  0  0  0  0
    5.2956   -1.4265    0.0945 C   0  0  0  0  0  0  0  0  0  0  0  0
    3.8990   -1.3510    0.0311 C   0  0  0  0  0  0  0  0  0  0  0  0
    3.2374   -0.1274    0.2054 C   0  0  0  0  0  0  0  0  0  0  0  0
    1.7445   -0.1086    0.1277 C   0  0  0  0  0  0  0  0  0  0  0  0
    1.1403   -1.1737   -0.0049 O   0  0  0  0  0  0  0  0  0  0  0  0
    1.0336    1.2381    0.2289 C   0  0  0  0  0  0  0  0  0  0  0  0
   -0.3813    1.0477    0.0113 N   0  0  0  0  0  0  0  0  0  0  0  0
   -0.9752    1.0430   -1.2086 C   0  0  0  0  0  0  0  0  0  0  0  0
   -0.4485    1.2508   -2.2887 O   0  0  0  0  0  0  0  0  0  0  0  0
   -2.3121    0.7692   -1.0428 N   0  0  0  0  0  0  0  0  0  0  0  0
   -2.6464    0.4255    0.3223 C   0  0  0  0  0  0  0  0  0  0  0  0
   -2.9320   -1.0711    0.5060 C   0  0  0  0  0  0  0  0  0  0  0  0
   -4.1405   -1.6245   -0.2434 C   0  0  0  0  0  0  0  0  0  0  0  0
   -5.4654   -0.9285    0.0601 C   0  0  0  0  0  0  0  0  0  0  0  0
   -5.5924    0.4257   -0.6270 C   0  0  0  0  0  0  0  0  0  0  0  0
   -4.9600    1.6045    0.1068 C   0  0  0  0  0  0  0  0  0  0  0  0
   -3.7052    1.3430    0.9375 C   0  0  0  0  0  0  0  0  0  0  0  0
   -1.2799    0.7217    0.9856 C   0  0  0  0  0  0  0  0  0  0  0  0
   -1.0451    0.6567    2.1858 O   0  0  0  0  0  0  0  0  0  0  0  0
    3.9934    1.0236    0.4483 C   0  0  0  0  0  0  0  0  0  0  0  0
    5.3890    0.9422    0.5108 C   0  0  0  0  0  0  0  0  0  0  0  0
    7.9630   -1.8393   -0.7537 H   0  0  0  0  0  0  0  0  0  0  0  0
    7.8683   -2.1510    1.0238 H   0  0  0  0  0  0  0  0  0  0  0  0
    9.1936   -1.1996    0.3427 H   0  0  0  0  0  0  0  0  0  0  0  0
    5.7593   -2.3972   -0.0479 H   0  0  0  0  0  0  0  0  0  0  0  0
    3.3291   -2.2600   -0.1574 H   0  0  0  0  0  0  0  0  0  0  0  0
    1.4191    1.9126   -0.5417 H   0  0  0  0  0  0  0  0  0  0  0  0
    1.1890    1.6520    1.2298 H   0  0  0  0  0  0  0  0  0  0  0  0
   -2.8966    0.6159   -1.8538 H   0  0  0  0  0  0  0  0  0  0  0  0
   -2.0541   -1.6552    0.1960 H   0  0  0  0  0  0  0  0  0  0  0  0
   -3.0586   -1.2846    1.5763 H   0  0  0  0  0  0  0  0  0  0  0  0
   -4.2423   -2.6830    0.0289 H   0  0  0  0  0  0  0  0  0  0  0  0
   -3.9474   -1.6102   -1.3230 H   0  0  0  0  0  0  0  0  0  0  0  0
   -5.6312   -0.8448    1.1401 H   0  0  0  0  0  0  0  0  0  0  0  0
   -6.2660   -1.5720   -0.3269 H   0  0  0  0  0  0  0  0  0  0  0  0
   -6.6586    0.6529   -0.7571 H   0  0  0  0  0  0  0  0  0  0  0  0
   -5.1857    0.3648   -1.6437 H   0  0  0  0  0  0  0  0  0  0  0  0
   -4.7450    2.3882   -0.6312 H   0  0  0  0  0  0  0  0  0  0  0  0
   -5.7125    2.0396    0.7778 H   0  0  0  0  0  0  0  0  0  0  0  0
   -4.0031    0.9412    1.9156 H   0  0  0  0  0  0  0  0  0  0  0  0
   -3.2613    2.3231    1.1629 H   0  0  0  0  0  0  0  0  0  0  0  0
    3.5361    1.9967    0.5968 H   0  0  0  0  0  0  0  0  0  0  0  0
    5.9729    1.8408    0.7001 H   0  0  0  0  0  0  0  0  0  0  0  0
  1  2  1  0
  2  3  1  0
  3  4  2  0
  4  5  1  0
  5  6  2  0
  6  7  1  0
  7  8  2  0
  7  9  1  0
  9 10  1  0
 10 11  1  0
 11 12  2  0
 11 13  1  0
 13 14  1  0
 14 15  1  0
 15 16  1  0
 16 17  1  0
 17 18  1  0
 18 19  1  0
 19 20  1  0
 14 21  1  0
 21 22  2  0
  6 23  1  0
 23 24  2  0
 24  3  1  0
 21 10  1  0
 20 14  1  0
  1 25  1  0
  1 26  1  0
  1 27  1  0
  4 28  1  0
  5 29  1  0
  9 30  1  0
  9 31  1  0
 13 32  1  0
 15 33  1  0
 15 34  1  0
 16 35  1  0
 16 36  1  0
 17 37  1  0
 17 38  1  0
 18 39  1  0
 18 40  1  0
 19 41  1  0
 19 42  1  0
 20 43  1  0
 20 44  1  0
 23 45  1  0
 24 46  1  0
M  END
$$$$
