
     RDKit          3D

 43 45  0  0  0  0  0  0  0  0999 V2000
    3.2083   -1.7538    2.8893 C   0  0  0  0  0  0  0  0  0  0  0  0
    2.8240   -0.3441    2.8763 N   0  0  0  0  0  0  0  0  0  0  0  0
    3.5295    0.4077    1.8182 C   0  0  0  0  0  0  0  0  0  0  0  0
    3.0621    0.1071    0.3820 C   0  0  0  0  0  0  0  0  0  0  0  0
    1.6096    0.1672    0.2374 N   0  0  0  0  0  0  0  0  0  0  0  0
    1.0986    0.4431   -1.0263 C   0  0  0  0  0  0  0  0  0  0  0  0
    1.7582    0.8024   -1.9951 O   0  0  0  0  0  0  0  0  0  0  0  0
   -0.3981    0.3144   -1.2292 C   0  0  0  0  0  0  0  0  0  0  0  0
   -1.1252    1.6304   -1.4157 C   0  0  0  0  0  0  0  0  0  0  0  0
   -1.2359    2.3474   -0.1021 C   0  0  0  0  0  0  0  0  0  0  0  0
   -2.1933    2.1945    0.8821 C   0  0  0  0  0  0  0  0  0  0  0  0
   -1.9622    3.0429    2.0029 C   0  0  0  0  0  0  0  0  0  0  0  0
   -0.8444    3.8273    1.8334 C   0  0  0  0  0  0  0  0  0  0  0  0
   -0.0860    3.5458    0.3288 S   0  0  0  0  0  0  0  0  0  0  0  0
   -0.8868   -0.8918   -1.2561 N   0  0  0  0  0  0  0  0  0  0  0  0
   -2.2341   -1.0350   -1.4443 C   0  0  0  0  0  0  0  0  0  0  0  0
   -3.0757   -0.6196   -0.6562 O   0  0  0  0  0  0  0  0  0  0  0  0
   -2.5529   -1.7512   -2.6633 C   0  0  0  0  0  0  0  0  0  0  0  0
   -3.7737   -2.1545   -3.1764 C   0  0  0  0  0  0  0  0  0  0  0  0
   -3.5094   -2.8053   -4.4055 C   0  0  0  0  0  0  0  0  0  0  0  0
   -2.1466   -2.7595   -4.5752 C   0  0  0  0  0  0  0  0  0  0  0  0
   -1.5578   -2.1228   -3.5315 O   0  0  0  0  0  0  0  0  0  0  0  0
    0.8329   -0.4893    1.2934 C   0  0  0  0  0  0  0  0  0  0  0  0
    1.3676   -0.1732    2.7041 C   0  0  0  0  0  0  0  0  0  0  0  0
    2.7092   -2.2756    3.7135 H   0  0  0  0  0  0  0  0  0  0  0  0
    4.2851   -1.8523    3.0660 H   0  0  0  0  0  0  0  0  0  0  0  0
    2.9674   -2.2794    1.9599 H   0  0  0  0  0  0  0  0  0  0  0  0
    4.6117    0.2474    1.8966 H   0  0  0  0  0  0  0  0  0  0  0  0
    3.3746    1.4772    2.0138 H   0  0  0  0  0  0  0  0  0  0  0  0
    3.3765   -0.8978    0.0762 H   0  0  0  0  0  0  0  0  0  0  0  0
    3.5344    0.8159   -0.3075 H   0  0  0  0  0  0  0  0  0  0  0  0
   -2.1207    1.4762   -1.8421 H   0  0  0  0  0  0  0  0  0  0  0  0
   -0.5750    2.2317   -2.1495 H   0  0  0  0  0  0  0  0  0  0  0  0
   -3.0225    1.4992    0.8093 H   0  0  0  0  0  0  0  0  0  0  0  0
   -2.5875    3.0783    2.8866 H   0  0  0  0  0  0  0  0  0  0  0  0
   -0.4384    4.5592    2.5182 H   0  0  0  0  0  0  0  0  0  0  0  0
   -4.7354   -1.9931   -2.7077 H   0  0  0  0  0  0  0  0  0  0  0  0
   -4.2224   -3.2522   -5.0841 H   0  0  0  0  0  0  0  0  0  0  0  0
   -1.4741   -3.1147   -5.3441 H   0  0  0  0  0  0  0  0  0  0  0  0
    0.8704   -1.5675    1.0993 H   0  0  0  0  0  0  0  0  0  0  0  0
   -0.2155   -0.1854    1.2419 H   0  0  0  0  0  0  0  0  0  0  0  0
    1.1282    0.8734    2.9354 H   0  0  0  0  0  0  0  0  0  0  0  0
    0.8250   -0.7702    3.4473 H   0  0  0  0  0  0  0  0  0  0  0  0
  1  2  1  0
  2  3  1  0
  3  4  1  0
  4  5  1  0
  5  6  1  0
  6  7  2  0
  6  8  1  0
  8  9  1  0
  9 10  1  0
 10 11  2  0
 11 12  1  0
 12 13  2  0
 13 14  1  0
  8 15  2  3
 15 16  1  0
 16 17  2  0
 16 18  1  0
 18 19  2  0
 19 20  1  0
 20 21  2  0
 21 22  1  0
  5 23  1  0
 23 24  1  0
 24  2  1  0
 14 10  1  0
 22 18  1  0
  1 25  1  0
  1 26  1  0
  1 27  1  0
  3 28  1  0
  3 29  1  0
  4 30  1  0
  4 31  1  0
  9 32  1  0
  9 33  1  0
 11 34  1  0
 12 35  1  0
 13 36  1  0
 19 37  1  0
 20 38  1  0
 21 39  1  0
 23 40  1  0
 23 41  1  0
 24 42  1  0
 24 43  1  0
M  END
$$$$
