
     RDKit          3D

 43 45  0  0  0  0  0  0  0  0999 V2000
   -0.4896   -4.0853   -0.3148 C   0  0  0  0  0  0  0  0  0  0  0  0
   -0.6585   -3.1508    0.8546 C   0  0  0  0  0  0  0  0  0  0  0  0
   -1.5534   -3.3059    1.6848 O   0  0  0  0  0  0  0  0  0  0  0  0
    0.2967   -2.0236    0.9645 C   0  0  0  0  0  0  0  0  0  0  0  0
    0.0372   -0.8577    0.3274 C   0  0  0  0  0  0  0  0  0  0  0  0
   -1.1111   -0.5256   -0.3944 N   0  0  0  0  0  0  0  0  0  0  0  0
   -1.0378   -0.3519   -1.8646 C   0  0  0  0  0  0  0  0  0  0  0  0
   -2.0890    0.6678   -2.3550 C   0  0  0  0  0  0  0  0  0  0  0  0
   -3.4607    0.3125   -1.9387 N   0  0  0  0  0  0  0  0  0  0  0  0
   -4.4176    1.3225   -2.3853 C   0  0  0  0  0  0  0  0  0  0  0  0
   -3.5042    0.1676   -0.4667 C   0  0  0  0  0  0  0  0  0  0  0  0
   -2.4824   -0.8678    0.0564 C   0  0  0  0  0  0  0  0  0  0  0  0
    1.0014    0.1215    0.3939 N   0  0  0  0  0  0  0  0  0  0  0  0
    2.1150    0.0227    1.1832 C   0  0  0  0  0  0  0  0  0  0  0  0
    3.0175    1.2065    1.3425 C   0  0  0  0  0  0  0  0  0  0  0  0
    3.0471    2.2272    0.3832 C   0  0  0  0  0  0  0  0  0  0  0  0
    3.8933    3.3258    0.5564 C   0  0  0  0  0  0  0  0  0  0  0  0
    4.7132    3.4074    1.6815 C   0  0  0  0  0  0  0  0  0  0  0  0
    4.6958    2.3893    2.6333 C   0  0  0  0  0  0  0  0  0  0  0  0
    3.8528    1.2894    2.4639 C   0  0  0  0  0  0  0  0  0  0  0  0
    2.4173   -1.0715    1.8138 N   0  0  0  0  0  0  0  0  0  0  0  0
    1.6099   -2.1875    1.6845 C   0  0  0  0  0  0  0  0  0  0  0  0
    2.1347   -3.6639    2.3339 S   0  0  0  0  0  0  0  0  0  0  0  0
   -1.3835   -4.0409   -0.9424 H   0  0  0  0  0  0  0  0  0  0  0  0
   -0.3412   -5.1032    0.0551 H   0  0  0  0  0  0  0  0  0  0  0  0
    0.3759   -3.8060   -0.9223 H   0  0  0  0  0  0  0  0  0  0  0  0
   -0.0434    0.0010   -2.1634 H   0  0  0  0  0  0  0  0  0  0  0  0
   -1.1988   -1.3232   -2.3491 H   0  0  0  0  0  0  0  0  0  0  0  0
   -1.8219    1.6623   -1.9725 H   0  0  0  0  0  0  0  0  0  0  0  0
   -2.0382    0.7122   -3.4495 H   0  0  0  0  0  0  0  0  0  0  0  0
   -5.4367    1.0369   -2.1022 H   0  0  0  0  0  0  0  0  0  0  0  0
   -4.2068    2.3116   -1.9629 H   0  0  0  0  0  0  0  0  0  0  0  0
   -4.4056    1.4050   -3.4777 H   0  0  0  0  0  0  0  0  0  0  0  0
   -4.5063   -0.1553   -0.1600 H   0  0  0  0  0  0  0  0  0  0  0  0
   -3.3075    1.1350    0.0151 H   0  0  0  0  0  0  0  0  0  0  0  0
   -2.5309   -0.8711    1.1514 H   0  0  0  0  0  0  0  0  0  0  0  0
   -2.7593   -1.8630   -0.3102 H   0  0  0  0  0  0  0  0  0  0  0  0
    0.6499    1.0314    0.1263 H   0  0  0  0  0  0  0  0  0  0  0  0
    2.4426    2.1745   -0.5165 H   0  0  0  0  0  0  0  0  0  0  0  0
    3.9209    4.1153   -0.1907 H   0  0  0  0  0  0  0  0  0  0  0  0
    5.3733    4.2614    1.8134 H   0  0  0  0  0  0  0  0  0  0  0  0
    5.3401    2.4477    3.5072 H   0  0  0  0  0  0  0  0  0  0  0  0
    3.8496    0.4996    3.2126 H   0  0  0  0  0  0  0  0  0  0  0  0
  1  2  1  0
  2  3  2  0
  2  4  1  0
  4  5  2  0
  5  6  1  0
  6  7  1  0
  7  8  1  0
  8  9  1  0
  9 10  1  0
  9 11  1  0
 11 12  1  0
  5 13  1  0
 13 14  1  0
 14 15  1  0
 15 16  2  0
 16 17  1  0
 17 18  2  0
 18 19  1  0
 19 20  2  0
 14 21  2  0
 21 22  1  0
 22 23  2  0
 22  4  1  0
 12  6  1  0
 20 15  1  0
  1 24  1  0
  1 25  1  0
  1 26  1  0
  7 27  1  0
  7 28  1  0
  8 29  1  0
  8 30  1  0
 10 31  1  0
 10 32  1  0
 10 33  1  0
 11 34  1  0
 11 35  1  0
 12 36  1  0
 12 37  1  0
 13 38  1  0
 16 39  1  0
 17 40  1  0
 18 41  1  0
 19 42  1  0
 20 43  1  0
M  END
$$$$
