
     RDKit          3D

 31 34  0  0  0  0  0  0  0  0999 V2000
    1.0008   -2.6573    1.4724 O   0  0  0  0  0  0  0  0  0  0  0  0
    1.2474   -1.8913    0.5531 C   0  0  0  0  0  0  0  0  0  0  0  0
    0.7112   -2.1155   -0.6597 O   0  0  0  0  0  0  0  0  0  0  0  0
    2.0652   -0.6172    0.6890 C   0  0  0  0  0  0  0  0  0  0  0  0
    2.9316   -0.1995   -0.8750 S   0  0  0  0  0  0  0  0  0  0  0  0
    1.8407    0.9006   -1.5853 C   0  0  0  0  0  0  0  0  0  0  0  0
    2.1405    1.3985   -2.8172 N   0  0  0  0  0  0  0  0  0  0  0  0
    1.2944    2.3520   -3.3156 C   0  0  0  0  0  0  0  0  0  0  0  0
    1.3764    2.9274   -4.3851 O   0  0  0  0  0  0  0  0  0  0  0  0
    0.0360    2.6286   -2.1060 S   0  0  0  0  0  0  0  0  0  0  0  0
    0.7216    1.4034   -1.0455 C   0  0  0  0  0  0  0  0  0  0  0  0
    0.1704    1.1369    0.3303 C   0  0  0  0  0  0  0  0  0  0  0  0
   -1.0673    0.2706    0.4129 C   0  0  0  0  0  0  0  0  0  0  0  0
   -1.9583    0.0359   -0.6445 C   0  0  0  0  0  0  0  0  0  0  0  0
   -3.1014   -0.7490   -0.4516 C   0  0  0  0  0  0  0  0  0  0  0  0
   -4.2749   -1.0612   -1.9013 Br  0  0  0  0  0  0  0  0  0  0  0  0
   -3.3861   -1.3029    0.7939 C   0  0  0  0  0  0  0  0  0  0  0  0
   -2.5181   -1.0726    1.8561 C   0  0  0  0  0  0  0  0  0  0  0  0
   -1.3767   -0.2976    1.6506 C   0  0  0  0  0  0  0  0  0  0  0  0
   -0.5380   -0.1233    2.7645 O   0  0  0  0  0  0  0  0  0  0  0  0
    0.7784    0.2733    2.6322 C   0  0  0  0  0  0  0  0  0  0  0  0
    1.5239    0.3481    3.6050 O   0  0  0  0  0  0  0  0  0  0  0  0
    1.2723    0.5735    1.2412 C   0  0  0  0  0  0  0  0  0  0  0  0
    0.2032   -2.9496   -0.5600 H   0  0  0  0  0  0  0  0  0  0  0  0
    2.8725   -0.8706    1.3883 H   0  0  0  0  0  0  0  0  0  0  0  0
    2.9564    1.1087   -3.3358 H   0  0  0  0  0  0  0  0  0  0  0  0
   -0.1284    2.1072    0.7573 H   0  0  0  0  0  0  0  0  0  0  0  0
   -1.7834    0.4512   -1.6325 H   0  0  0  0  0  0  0  0  0  0  0  0
   -4.2756   -1.9088    0.9456 H   0  0  0  0  0  0  0  0  0  0  0  0
   -2.7236   -1.4991    2.8347 H   0  0  0  0  0  0  0  0  0  0  0  0
    1.9888    1.3995    1.3883 H   0  0  0  0  0  0  0  0  0  0  0  0
  1  2  2  0
  2  3  1  0
  2  4  1  0
  4  5  1  0
  5  6  1  0
  6  7  1  0
  7  8  1  0
  8  9  2  0
  8 10  1  0
 10 11  1  0
 11 12  1  0
 12 13  1  0
 13 14  2  0
 14 15  1  0
 15 16  1  0
 15 17  2  0
 17 18  1  0
 18 19  2  0
 19 20  1  0
 20 21  1  0
 21 22  2  0
 21 23  1  0
 23  4  1  0
 11  6  2  0
 23 12  1  0
 19 13  1  0
  3 24  1  0
  4 25  1  0
  7 26  1  0
 12 27  1  0
 14 28  1  0
 17 29  1  0
 18 30  1  0
 23 31  1  0
M  END
$$$$
