
     RDKit          3D

 43 46  0  0  0  0  0  0  0  0999 V2000
    7.6678   -1.0409   -0.7228 C   0  0  0  0  0  0  0  0  0  0  0  0
    6.5283   -0.4490    0.0551 C   0  0  0  0  0  0  0  0  0  0  0  0
    6.7693    0.2268    1.2608 C   0  0  0  0  0  0  0  0  0  0  0  0
    5.7326    0.8167    1.9959 C   0  0  0  0  0  0  0  0  0  0  0  0
    4.4484    0.7092    1.4620 C   0  0  0  0  0  0  0  0  0  0  0  0
    3.2266    1.1561    1.8965 N   0  0  0  0  0  0  0  0  0  0  0  0
    2.2643    0.7812    0.9777 C   0  0  0  0  0  0  0  0  0  0  0  0
    0.8895    1.1272    1.1901 C   0  0  0  0  0  0  0  0  0  0  0  0
    0.5140    1.8751    2.3454 C   0  0  0  0  0  0  0  0  0  0  0  0
    0.2884    2.4918    3.3027 N   0  0  0  0  0  0  0  0  0  0  0  0
    0.0011    0.6945    0.2730 C   0  0  0  0  0  0  0  0  0  0  0  0
   -1.4086    0.9074    0.2777 C   0  0  0  0  0  0  0  0  0  0  0  0
   -2.2177    1.8871    0.8419 C   0  0  0  0  0  0  0  0  0  0  0  0
   -3.5623    1.5946    0.5023 C   0  0  0  0  0  0  0  0  0  0  0  0
   -3.5321    0.4578   -0.2676 C   0  0  0  0  0  0  0  0  0  0  0  0
   -4.4905   -0.2771   -0.8731 N   0  0  0  0  0  0  0  0  0  0  0  0
   -5.9155   -0.0517   -0.6234 C   0  0  0  0  0  0  0  0  0  0  0  0
   -6.6787   -1.3850   -0.6873 C   0  0  0  0  0  0  0  0  0  0  0  0
   -6.5532   -2.0698   -1.9422 O   0  0  0  0  0  0  0  0  0  0  0  0
   -5.3059   -1.8170   -2.6077 C   0  0  0  0  0  0  0  0  0  0  0  0
   -4.1472   -1.4661   -1.6607 C   0  0  0  0  0  0  0  0  0  0  0  0
   -2.2433    0.0536   -0.4121 O   0  0  0  0  0  0  0  0  0  0  0  0
    2.8294    0.1167   -0.0162 N   0  0  0  0  0  0  0  0  0  0  0  0
    4.1714    0.0623    0.2673 C   0  0  0  0  0  0  0  0  0  0  0  0
    5.2203   -0.5236   -0.4561 C   0  0  0  0  0  0  0  0  0  0  0  0
    7.3500   -1.9477   -1.2482 H   0  0  0  0  0  0  0  0  0  0  0  0
    8.4923   -1.3223   -0.0590 H   0  0  0  0  0  0  0  0  0  0  0  0
    8.0366   -0.3162   -1.4551 H   0  0  0  0  0  0  0  0  0  0  0  0
    7.7862    0.2994    1.6446 H   0  0  0  0  0  0  0  0  0  0  0  0
    5.9292    1.3323    2.9295 H   0  0  0  0  0  0  0  0  0  0  0  0
    3.0732    1.6741    2.7508 H   0  0  0  0  0  0  0  0  0  0  0  0
    0.3567    0.0855   -0.5583 H   0  0  0  0  0  0  0  0  0  0  0  0
   -1.8941    2.7372    1.4258 H   0  0  0  0  0  0  0  0  0  0  0  0
   -4.4398    2.1594    0.7789 H   0  0  0  0  0  0  0  0  0  0  0  0
   -6.3001    0.6329   -1.3883 H   0  0  0  0  0  0  0  0  0  0  0  0
   -6.0886    0.3999    0.3600 H   0  0  0  0  0  0  0  0  0  0  0  0
   -6.3230   -2.0641    0.0968 H   0  0  0  0  0  0  0  0  0  0  0  0
   -7.7458   -1.2160   -0.5116 H   0  0  0  0  0  0  0  0  0  0  0  0
   -5.0584   -2.7093   -3.1912 H   0  0  0  0  0  0  0  0  0  0  0  0
   -5.4738   -0.9992   -3.3185 H   0  0  0  0  0  0  0  0  0  0  0  0
   -3.2466   -1.2969   -2.2624 H   0  0  0  0  0  0  0  0  0  0  0  0
   -3.9575   -2.3031   -0.9783 H   0  0  0  0  0  0  0  0  0  0  0  0
    5.0071   -1.0238   -1.3946 H   0  0  0  0  0  0  0  0  0  0  0  0
  1  2  1  0
  2  3  2  0
  3  4  1  0
  4  5  2  0
  5  6  1  0
  6  7  1  0
  7  8  1  0
  8  9  1  0
  9 10  3  0
  8 11  2  3
 11 12  1  0
 12 13  2  0
 13 14  1  0
 14 15  2  0
 15 16  1  0
 16 17  1  0
 17 18  1  0
 18 19  1  0
 19 20  1  0
 20 21  1  0
 15 22  1  0
  7 23  2  0
 23 24  1  0
 24 25  2  0
 25  2  1  0
 24  5  1  0
 22 12  1  0
 21 16  1  0
  1 26  1  0
  1 27  1  0
  1 28  1  0
  3 29  1  0
  4 30  1  0
  6 31  1  0
 11 32  1  0
 13 33  1  0
 14 34  1  0
 17 35  1  0
 17 36  1  0
 18 37  1  0
 18 38  1  0
 20 39  1  0
 20 40  1  0
 21 41  1  0
 21 42  1  0
 25 43  1  0
M  END
$$$$
