
     RDKit          3D

 48 48  0  0  0  0  0  0  0  0999 V2000
    3.5945   -0.8311    1.7093 C   0  0  0  0  0  0  0  0  0  0  0  0
    3.7544   -1.1043    0.2130 C   0  0  0  0  0  0  0  0  0  0  0  0
    2.5738   -1.9415   -0.3188 C   0  0  0  0  0  0  0  0  0  0  0  0
    1.2890   -1.2776   -0.2058 N   0  0  0  0  0  0  0  0  0  0  0  0
    0.2117   -1.7142   -0.9543 C   0  0  0  0  0  0  0  0  0  0  0  0
    0.2878   -2.5978   -1.7999 O   0  0  0  0  0  0  0  0  0  0  0  0
   -1.0984   -1.0752   -0.6502 C   0  0  0  0  0  0  0  0  0  0  0  0
   -2.2682   -1.7964   -0.8958 C   0  0  0  0  0  0  0  0  0  0  0  0
   -3.5204   -1.2328   -0.6219 C   0  0  0  0  0  0  0  0  0  0  0  0
   -3.6378    0.0683   -0.1050 C   0  0  0  0  0  0  0  0  0  0  0  0
   -4.9986    0.7190    0.2037 C   0  0  0  0  0  0  0  0  0  0  0  0
   -5.1752    1.9857   -0.6611 C   0  0  0  0  0  0  0  0  0  0  0  0
   -6.2090   -0.1997   -0.0776 C   0  0  0  0  0  0  0  0  0  0  0  0
   -5.0612    1.1099    1.6963 C   0  0  0  0  0  0  0  0  0  0  0  0
   -2.4448    0.7854    0.1175 C   0  0  0  0  0  0  0  0  0  0  0  0
   -1.1904    0.2264   -0.1531 C   0  0  0  0  0  0  0  0  0  0  0  0
    3.9285    0.1738   -0.6454 C   0  0  0  0  0  0  0  0  0  0  0  0
    5.0904    1.0453   -0.4284 N   0  0  0  0  0  0  0  0  0  0  0  0
    4.9325    2.0098    0.6496 C   0  0  0  0  0  0  0  0  0  0  0  0
    6.3615    0.3391   -0.3550 C   0  0  0  0  0  0  0  0  0  0  0  0
    4.5452   -0.5266    2.1553 H   0  0  0  0  0  0  0  0  0  0  0  0
    2.8569   -0.0455    1.9018 H   0  0  0  0  0  0  0  0  0  0  0  0
    3.2750   -1.7344    2.2405 H   0  0  0  0  0  0  0  0  0  0  0  0
    4.6460   -1.7323    0.0879 H   0  0  0  0  0  0  0  0  0  0  0  0
    2.7462   -2.2045   -1.3694 H   0  0  0  0  0  0  0  0  0  0  0  0
    2.4971   -2.8844    0.2359 H   0  0  0  0  0  0  0  0  0  0  0  0
    1.0763   -0.8108    0.6656 H   0  0  0  0  0  0  0  0  0  0  0  0
   -2.2113   -2.8047   -1.3020 H   0  0  0  0  0  0  0  0  0  0  0  0
   -4.3951   -1.8431   -0.8307 H   0  0  0  0  0  0  0  0  0  0  0  0
   -4.4154    2.7446   -0.4445 H   0  0  0  0  0  0  0  0  0  0  0  0
   -6.1522    2.4511   -0.4855 H   0  0  0  0  0  0  0  0  0  0  0  0
   -5.1065    1.7469   -1.7290 H   0  0  0  0  0  0  0  0  0  0  0  0
   -7.1525    0.3049    0.1633 H   0  0  0  0  0  0  0  0  0  0  0  0
   -6.1698   -1.1145    0.5252 H   0  0  0  0  0  0  0  0  0  0  0  0
   -6.2601   -0.4884   -1.1340 H   0  0  0  0  0  0  0  0  0  0  0  0
   -6.0355    1.5433    1.9509 H   0  0  0  0  0  0  0  0  0  0  0  0
   -4.3016    1.8528    1.9629 H   0  0  0  0  0  0  0  0  0  0  0  0
   -4.9066    0.2356    2.3397 H   0  0  0  0  0  0  0  0  0  0  0  0
   -2.4779    1.8044    0.4986 H   0  0  0  0  0  0  0  0  0  0  0  0
   -0.3024    0.8324    0.0024 H   0  0  0  0  0  0  0  0  0  0  0  0
    3.9816   -0.1445   -1.6958 H   0  0  0  0  0  0  0  0  0  0  0  0
    3.0158    0.7819   -0.5907 H   0  0  0  0  0  0  0  0  0  0  0  0
    3.9898    2.5591    0.5502 H   0  0  0  0  0  0  0  0  0  0  0  0
    4.9638    1.5560    1.6429 H   0  0  0  0  0  0  0  0  0  0  0  0
    5.7308    2.7596    0.6042 H   0  0  0  0  0  0  0  0  0  0  0  0
    6.4647   -0.2446    0.5656 H   0  0  0  0  0  0  0  0  0  0  0  0
    7.1955    1.0487   -0.3982 H   0  0  0  0  0  0  0  0  0  0  0  0
    6.4820   -0.3350   -1.2102 H   0  0  0  0  0  0  0  0  0  0  0  0
  1  2  1  0
  2  3  1  0
  3  4  1  0
  4  5  1  0
  5  6  2  0
  5  7  1  0
  7  8  2  0
  8  9  1  0
  9 10  2  0
 10 11  1  0
 11 12  1  0
 11 13  1  0
 11 14  1  0
 10 15  1  0
 15 16  2  0
  2 17  1  0
 17 18  1  0
 18 19  1  0
 18 20  1  0
 16  7  1  0
  1 21  1  0
  1 22  1  0
  1 23  1  0
  2 24  1  0
  3 25  1  0
  3 26  1  0
  4 27  1  0
  8 28  1  0
  9 29  1  0
 12 30  1  0
 12 31  1  0
 12 32  1  0
 13 33  1  0
 13 34  1  0
 13 35  1  0
 14 36  1  0
 14 37  1  0
 14 38  1  0
 15 39  1  0
 16 40  1  0
 17 41  1  0
 17 42  1  0
 19 43  1  0
 19 44  1  0
 19 45  1  0
 20 46  1  0
 20 47  1  0
 20 48  1  0
M  END
$$$$
