
     RDKit          3D

 55 57  0  0  0  0  0  0  0  0999 V2000
   -0.2664   -3.6810    2.6183 C   0  0  0  0  0  0  0  0  0  0  0  0
   -0.0759   -3.0781    1.2406 C   0  0  0  0  0  0  0  0  0  0  0  0
   -0.8424   -1.8790    1.1695 O   0  0  0  0  0  0  0  0  0  0  0  0
   -0.7358   -1.2389   -0.1103 C   0  0  0  0  0  0  0  0  0  0  0  0
    0.5939   -0.7559   -0.3597 O   0  0  0  0  0  0  0  0  0  0  0  0
    0.9474    0.3661    0.3708 C   0  0  0  0  0  0  0  0  0  0  0  0
    2.4183    0.6905    0.4837 C   0  0  0  0  0  0  0  0  0  0  0  0
    2.8166    1.6549    1.1247 O   0  0  0  0  0  0  0  0  0  0  0  0
    3.1820   -0.2224   -0.2160 N   0  0  0  0  0  0  0  0  0  0  0  0
    4.5818   -0.2639   -0.3493 C   0  0  0  0  0  0  0  0  0  0  0  0
    5.4487    0.6538    0.2458 C   0  0  0  0  0  0  0  0  0  0  0  0
    6.8312    0.5423    0.0648 C   0  0  0  0  0  0  0  0  0  0  0  0
    7.3572   -0.4870   -0.7124 C   0  0  0  0  0  0  0  0  0  0  0  0
    6.5011   -1.4077   -1.3098 C   0  0  0  0  0  0  0  0  0  0  0  0
    5.1199   -1.2963   -1.1284 C   0  0  0  0  0  0  0  0  0  0  0  0
    0.0566    1.1653    0.9790 C   0  0  0  0  0  0  0  0  0  0  0  0
   -1.4305    0.9533    0.8749 C   0  0  0  0  0  0  0  0  0  0  0  0
   -2.1499    2.2793    0.6333 C   0  0  0  0  0  0  0  0  0  0  0  0
   -3.0748    2.7552    1.5772 C   0  0  0  0  0  0  0  0  0  0  0  0
   -3.7451    3.9637    1.3732 C   0  0  0  0  0  0  0  0  0  0  0  0
   -3.4915    4.7095    0.2250 C   0  0  0  0  0  0  0  0  0  0  0  0
   -4.3990    6.3444   -0.0520 Br  0  0  0  0  0  0  0  0  0  0  0  0
   -2.5718    4.2606   -0.7190 C   0  0  0  0  0  0  0  0  0  0  0  0
   -1.9028    3.0516   -0.5147 C   0  0  0  0  0  0  0  0  0  0  0  0
   -1.7708   -0.1001   -0.2154 C   0  0  0  0  0  0  0  0  0  0  0  0
   -3.2246   -0.6154   -0.0732 C   0  0  0  0  0  0  0  0  0  0  0  0
   -3.9785   -0.7907   -1.4016 C   0  0  0  0  0  0  0  0  0  0  0  0
   -3.4419   -1.8970   -2.3001 C   0  0  0  0  0  0  0  0  0  0  0  0
   -2.2327   -1.4959   -2.9278 O   0  0  0  0  0  0  0  0  0  0  0  0
    0.3054   -4.6074    2.7215 H   0  0  0  0  0  0  0  0  0  0  0  0
    0.0551   -2.9784    3.3941 H   0  0  0  0  0  0  0  0  0  0  0  0
   -1.3243   -3.8961    2.8019 H   0  0  0  0  0  0  0  0  0  0  0  0
    0.9848   -2.8590    1.0783 H   0  0  0  0  0  0  0  0  0  0  0  0
   -0.4189   -3.7843    0.4767 H   0  0  0  0  0  0  0  0  0  0  0  0
   -0.9413   -1.9895   -0.8784 H   0  0  0  0  0  0  0  0  0  0  0  0
    2.6525   -0.9442   -0.6921 H   0  0  0  0  0  0  0  0  0  0  0  0
    5.0806    1.4697    0.8599 H   0  0  0  0  0  0  0  0  0  0  0  0
    7.4944    1.2642    0.5346 H   0  0  0  0  0  0  0  0  0  0  0  0
    8.4320   -0.5697   -0.8507 H   0  0  0  0  0  0  0  0  0  0  0  0
    6.9067   -2.2127   -1.9167 H   0  0  0  0  0  0  0  0  0  0  0  0
    4.4724   -2.0269   -1.6057 H   0  0  0  0  0  0  0  0  0  0  0  0
    0.4004    2.0142    1.5678 H   0  0  0  0  0  0  0  0  0  0  0  0
   -1.7520    0.5631    1.8512 H   0  0  0  0  0  0  0  0  0  0  0  0
   -3.2811    2.1858    2.4815 H   0  0  0  0  0  0  0  0  0  0  0  0
   -4.4575    4.3132    2.1157 H   0  0  0  0  0  0  0  0  0  0  0  0
   -2.3630    4.8442   -1.6116 H   0  0  0  0  0  0  0  0  0  0  0  0
   -1.1766    2.7222   -1.2552 H   0  0  0  0  0  0  0  0  0  0  0  0
   -1.6479    0.3716   -1.1992 H   0  0  0  0  0  0  0  0  0  0  0  0
   -3.8156    0.0890    0.5236 H   0  0  0  0  0  0  0  0  0  0  0  0
   -3.2523   -1.5615    0.4803 H   0  0  0  0  0  0  0  0  0  0  0  0
   -5.0221   -1.0259   -1.1595 H   0  0  0  0  0  0  0  0  0  0  0  0
   -3.9782    0.1644   -1.9406 H   0  0  0  0  0  0  0  0  0  0  0  0
   -4.1658   -2.1339   -3.0868 H   0  0  0  0  0  0  0  0  0  0  0  0
   -3.2529   -2.8124   -1.7309 H   0  0  0  0  0  0  0  0  0  0  0  0
   -2.4549   -0.7810   -3.5508 H   0  0  0  0  0  0  0  0  0  0  0  0
  1  2  1  0
  2  3  1  0
  3  4  1  0
  4  5  1  0
  5  6  1  0
  6  7  1  0
  7  8  2  0
  7  9  1  0
  9 10  1  0
 10 11  2  0
 11 12  1  0
 12 13  2  0
 13 14  1  0
 14 15  2  0
  6 16  2  0
 16 17  1  0
 17 18  1  0
 18 19  2  0
 19 20  1  0
 20 21  2  0
 21 22  1  0
 21 23  1  0
 23 24  2  0
 17 25  1  0
 25 26  1  0
 26 27  1  0
 27 28  1  0
 28 29  1  0
 25  4  1  0
 15 10  1  0
 24 18  1  0
  1 30  1  0
  1 31  1  0
  1 32  1  0
  2 33  1  0
  2 34  1  0
  4 35  1  0
  9 36  1  0
 11 37  1  0
 12 38  1  0
 13 39  1  0
 14 40  1  0
 15 41  1  0
 16 42  1  0
 17 43  1  0
 19 44  1  0
 20 45  1  0
 23 46  1  0
 24 47  1  0
 25 48  1  0
 26 49  1  0
 26 50  1  0
 27 51  1  0
 27 52  1  0
 28 53  1  0
 28 54  1  0
 29 55  1  0
M  END
$$$$
