
     RDKit          3D

 31 34  0  0  0  0  0  0  0  0999 V2000
   -0.7283   -2.4934    2.4411 N   0  0  0  0  0  0  0  0  0  0  0  0
   -0.4878   -1.7310    1.5991 C   0  0  0  0  0  0  0  0  0  0  0  0
   -0.2007   -0.8177    0.5459 C   0  0  0  0  0  0  0  0  0  0  0  0
   -1.0844   -0.5482   -0.4351 C   0  0  0  0  0  0  0  0  0  0  0  0
   -0.8088    0.4091   -1.5749 C   0  0  0  0  0  0  0  0  0  0  0  0
    0.2074    1.0255   -1.8213 O   0  0  0  0  0  0  0  0  0  0  0  0
   -1.9655    0.4195   -2.3315 N   0  0  0  0  0  0  0  0  0  0  0  0
   -2.9261   -0.4361   -1.8120 C   0  0  0  0  0  0  0  0  0  0  0  0
   -4.1831   -0.6629   -2.3415 C   0  0  0  0  0  0  0  0  0  0  0  0
   -5.0030   -1.5687   -1.6711 C   0  0  0  0  0  0  0  0  0  0  0  0
   -4.5435   -2.2067   -0.5119 C   0  0  0  0  0  0  0  0  0  0  0  0
   -5.3511   -3.0734    0.1134 F   0  0  0  0  0  0  0  0  0  0  0  0
   -3.2703   -1.9670    0.0110 C   0  0  0  0  0  0  0  0  0  0  0  0
   -2.4526   -1.0677   -0.6526 C   0  0  0  0  0  0  0  0  0  0  0  0
    1.0606   -0.1566    0.6121 C   0  0  0  0  0  0  0  0  0  0  0  0
    1.2936    0.9928    1.2135 N   0  0  0  0  0  0  0  0  0  0  0  0
    2.6286    1.3417    1.0929 C   0  0  0  0  0  0  0  0  0  0  0  0
    3.2225    2.5184    1.5926 C   0  0  0  0  0  0  0  0  0  0  0  0
    4.5905    2.7419    1.4050 C   0  0  0  0  0  0  0  0  0  0  0  0
    5.3700    1.8087    0.7290 C   0  0  0  0  0  0  0  0  0  0  0  0
    4.8048    0.6329    0.2254 C   0  0  0  0  0  0  0  0  0  0  0  0
    3.4296    0.4198    0.4191 C   0  0  0  0  0  0  0  0  0  0  0  0
    2.4592   -0.9130   -0.0712 S   0  0  0  0  0  0  0  0  0  0  0  0
   -2.0579    0.9777   -3.1676 H   0  0  0  0  0  0  0  0  0  0  0  0
   -4.5253   -0.1618   -3.2400 H   0  0  0  0  0  0  0  0  0  0  0  0
   -6.0017   -1.7889   -2.0375 H   0  0  0  0  0  0  0  0  0  0  0  0
   -2.9776   -2.4923    0.9115 H   0  0  0  0  0  0  0  0  0  0  0  0
    2.6102    3.2442    2.1184 H   0  0  0  0  0  0  0  0  0  0  0  0
    5.0438    3.6522    1.7901 H   0  0  0  0  0  0  0  0  0  0  0  0
    6.4328    1.9949    0.5886 H   0  0  0  0  0  0  0  0  0  0  0  0
    5.4141   -0.0940   -0.3028 H   0  0  0  0  0  0  0  0  0  0  0  0
  1  2  3  0
  2  3  1  0
  3  4  2  3
  4  5  1  0
  5  6  2  0
  5  7  1  0
  7  8  1  0
  8  9  2  0
  9 10  1  0
 10 11  2  0
 11 12  1  0
 11 13  1  0
 13 14  2  0
  3 15  1  0
 15 16  2  0
 16 17  1  0
 17 18  2  0
 18 19  1  0
 19 20  2  0
 20 21  1  0
 21 22  2  0
 22 23  1  0
 14  4  1  0
 23 15  1  0
 14  8  1  0
 22 17  1  0
  7 24  1  0
  9 25  1  0
 10 26  1  0
 13 27  1  0
 18 28  1  0
 19 29  1  0
 20 30  1  0
 21 31  1  0
M  END
$$$$
