
     RDKit          3D

 52 55  0  0  0  0  0  0  0  0999 V2000
   -6.0500    3.0733   -0.1531 C   0  0  0  0  0  0  0  0  0  0  0  0
   -5.2056    2.4602    0.9525 C   0  0  0  0  0  0  0  0  0  0  0  0
   -3.8722    1.9402    0.4160 C   0  0  0  0  0  0  0  0  0  0  0  0
   -3.0249    1.3300    1.5340 C   0  0  0  0  0  0  0  0  0  0  0  0
   -1.7447    0.7774    1.0156 C   0  0  0  0  0  0  0  0  0  0  0  0
   -0.6205    1.4745    0.9799 N   0  0  0  0  0  0  0  0  0  0  0  0
    0.3781    0.6732    0.4979 N   0  0  0  0  0  0  0  0  0  0  0  0
   -0.1485   -0.5063    0.2699 C   0  0  0  0  0  0  0  0  0  0  0  0
    0.4905   -1.6767   -0.2484 C   0  0  0  0  0  0  0  0  0  0  0  0
    1.8902   -1.6425   -0.4553 N   0  0  0  0  0  0  0  0  0  0  0  0
    2.4845   -2.3474   -1.6087 C   0  0  0  0  0  0  0  0  0  0  0  0
    2.8943   -1.6106    0.9261 S   0  0  0  0  0  6  0  0  0  0  0  0
    3.6545   -2.8462    0.9468 O   0  0  0  0  0  0  0  0  0  0  0  0
    2.1275   -1.2163    2.0883 O   0  0  0  0  0  0  0  0  0  0  0  0
    4.0332   -0.2960    0.5482 C   0  0  0  0  0  0  0  0  0  0  0  0
    5.3040   -0.5972    0.0491 C   0  0  0  0  0  0  0  0  0  0  0  0
    6.2037    0.4363   -0.2197 C   0  0  0  0  0  0  0  0  0  0  0  0
    5.8424    1.7702    0.0109 C   0  0  0  0  0  0  0  0  0  0  0  0
    6.8226    2.8772   -0.2450 C   0  0  0  0  0  0  0  0  0  0  0  0
    4.5794    2.0550    0.5468 C   0  0  0  0  0  0  0  0  0  0  0  0
    3.6761    1.0259    0.8191 C   0  0  0  0  0  0  0  0  0  0  0  0
   -0.1968   -2.7185   -0.6012 N   0  0  0  0  0  0  0  0  0  0  0  0
   -1.5909   -2.7119   -0.3661 C   0  0  0  0  0  0  0  0  0  0  0  0
   -2.3032   -3.8625   -0.7135 C   0  0  0  0  0  0  0  0  0  0  0  0
   -3.6808   -3.9339   -0.5133 C   0  0  0  0  0  0  0  0  0  0  0  0
   -4.3596   -2.8489    0.0364 C   0  0  0  0  0  0  0  0  0  0  0  0
   -3.6690   -1.6868    0.3923 C   0  0  0  0  0  0  0  0  0  0  0  0
   -2.2882   -1.6170    0.1982 C   0  0  0  0  0  0  0  0  0  0  0  0
   -1.4997   -0.4863    0.5089 N   0  0  0  0  0  0  0  0  0  0  0  0
   -6.2742    2.3356   -0.9303 H   0  0  0  0  0  0  0  0  0  0  0  0
   -5.5326    3.9178   -0.6195 H   0  0  0  0  0  0  0  0  0  0  0  0
   -6.9987    3.4382    0.2526 H   0  0  0  0  0  0  0  0  0  0  0  0
   -5.7643    1.6399    1.4180 H   0  0  0  0  0  0  0  0  0  0  0  0
   -5.0269    3.2135    1.7286 H   0  0  0  0  0  0  0  0  0  0  0  0
   -4.0574    1.2022   -0.3735 H   0  0  0  0  0  0  0  0  0  0  0  0
   -3.3197    2.7636   -0.0551 H   0  0  0  0  0  0  0  0  0  0  0  0
   -3.5769    0.5803    2.1074 H   0  0  0  0  0  0  0  0  0  0  0  0
   -2.7853    2.1202    2.2583 H   0  0  0  0  0  0  0  0  0  0  0  0
    2.4670   -3.4304   -1.4544 H   0  0  0  0  0  0  0  0  0  0  0  0
    3.5095   -2.0189   -1.7961 H   0  0  0  0  0  0  0  0  0  0  0  0
    1.9090   -2.1178   -2.5119 H   0  0  0  0  0  0  0  0  0  0  0  0
    5.6054   -1.6273   -0.1258 H   0  0  0  0  0  0  0  0  0  0  0  0
    7.1925    0.1949   -0.6044 H   0  0  0  0  0  0  0  0  0  0  0  0
    7.4911    2.6226   -1.0742 H   0  0  0  0  0  0  0  0  0  0  0  0
    6.3041    3.8022   -0.5185 H   0  0  0  0  0  0  0  0  0  0  0  0
    7.4234    3.0595    0.6513 H   0  0  0  0  0  0  0  0  0  0  0  0
    4.2902    3.0820    0.7617 H   0  0  0  0  0  0  0  0  0  0  0  0
    2.7055    1.2667    1.2474 H   0  0  0  0  0  0  0  0  0  0  0  0
   -1.7753   -4.7112   -1.1424 H   0  0  0  0  0  0  0  0  0  0  0  0
   -4.2227   -4.8361   -0.7868 H   0  0  0  0  0  0  0  0  0  0  0  0
   -5.4357   -2.9082    0.1880 H   0  0  0  0  0  0  0  0  0  0  0  0
   -4.2547   -0.8780    0.8054 H   0  0  0  0  0  0  0  0  0  0  0  0
  1  2  1  0
  2  3  1  0
  3  4  1  0
  4  5  1  0
  5  6  2  0
  6  7  1  0
  7  8  2  0
  8  9  1  0
  9 10  1  0
 10 11  1  0
 10 12  1  0
 12 13  2  0
 12 14  2  0
 12 15  1  0
 15 16  2  0
 16 17  1  0
 17 18  2  0
 18 19  1  0
 18 20  1  0
 20 21  2  0
  9 22  2  0
 22 23  1  0
 23 24  2  0
 24 25  1  0
 25 26  2  0
 26 27  1  0
 27 28  2  0
 28 29  1  0
 29  5  1  0
 29  8  1  0
 21 15  1  0
 28 23  1  0
  1 30  1  0
  1 31  1  0
  1 32  1  0
  2 33  1  0
  2 34  1  0
  3 35  1  0
  3 36  1  0
  4 37  1  0
  4 38  1  0
 11 39  1  0
 11 40  1  0
 11 41  1  0
 16 42  1  0
 17 43  1  0
 19 44  1  0
 19 45  1  0
 19 46  1  0
 20 47  1  0
 21 48  1  0
 24 49  1  0
 25 50  1  0
 26 51  1  0
 27 52  1  0
M  END
$$$$
