
     RDKit          3D

 61 64  0  0  0  0  0  0  0  0999 V2000
   -6.7183   -4.2555    0.1804 C   0  0  0  0  0  0  0  0  0  0  0  0
   -6.1761   -2.9741    0.5044 O   0  0  0  0  0  0  0  0  0  0  0  0
   -5.3171   -2.4830   -0.4320 C   0  0  0  0  0  0  0  0  0  0  0  0
   -4.9946   -3.0541   -1.4650 O   0  0  0  0  0  0  0  0  0  0  0  0
   -4.7800   -1.1432   -0.0018 C   0  0  0  0  0  0  0  0  0  0  0  0
   -3.5824   -1.3007    0.9279 C   0  0  0  0  0  0  0  0  0  0  0  0
   -2.3210   -1.6940    0.2021 C   0  0  0  0  0  0  0  0  0  0  0  0
   -1.1506   -1.0279    0.0679 C   0  0  0  0  0  0  0  0  0  0  0  0
   -0.0421   -1.8176   -0.5164 C   0  0  0  0  0  0  0  0  0  0  0  0
    1.2355   -1.3879   -0.5026 C   0  0  0  0  0  0  0  0  0  0  0  0
    2.3898   -2.2176   -0.9733 C   0  0  0  0  0  0  0  0  0  0  0  0
    3.4160   -1.3979   -1.7360 C   0  0  0  0  0  0  0  0  0  0  0  0
    4.0196   -1.8973   -2.6919 O   0  0  0  0  0  0  0  0  0  0  0  0
    3.7491    0.0167   -1.2340 C   0  0  0  0  0  0  0  0  0  0  0  0
    3.4257    0.9823   -2.3863 C   0  0  0  0  0  0  0  0  0  0  0  0
    5.1523    0.1814   -0.9872 O   0  0  0  0  0  0  0  0  0  0  0  0
    5.6709   -0.5942    0.0066 C   0  0  0  0  0  0  0  0  0  0  0  0
    5.0070   -1.4183    0.6272 O   0  0  0  0  0  0  0  0  0  0  0  0
    7.0812   -0.3298    0.2253 C   0  0  0  0  0  0  0  0  0  0  0  0
    7.8918   -0.9339    1.1715 C   0  0  0  0  0  0  0  0  0  0  0  0
    9.2338   -0.4570    1.1344 C   0  0  0  0  0  0  0  0  0  0  0  0
    9.4102    0.4981    0.1588 C   0  0  0  0  0  0  0  0  0  0  0  0
    7.9654    0.8123   -0.6991 S   0  0  0  0  0  0  0  0  0  0  0  0
    2.9047    0.4799   -0.0408 C   0  0  0  0  0  0  0  0  0  0  0  0
    3.2968    1.3200    0.7682 O   0  0  0  0  0  0  0  0  0  0  0  0
    1.5323   -0.0825    0.0469 C   0  0  0  0  0  0  0  0  0  0  0  0
    0.5283    0.6807    0.5056 C   0  0  0  0  0  0  0  0  0  0  0  0
   -0.8173    0.2823    0.5024 N   0  0  0  0  0  0  0  0  0  0  0  0
   -1.7864    1.3293    0.6003 C   0  0  0  0  0  0  0  0  0  0  0  0
   -2.6347    1.6332   -0.4734 C   0  0  0  0  0  0  0  0  0  0  0  0
   -3.5655    2.6705   -0.3733 C   0  0  0  0  0  0  0  0  0  0  0  0
   -3.6625    3.4301    0.7941 C   0  0  0  0  0  0  0  0  0  0  0  0
   -4.6179    4.4072    0.7607 O   0  0  0  0  0  0  0  0  0  0  0  0
   -4.7448    5.2227    1.9194 C   0  0  0  0  0  0  0  0  0  0  0  0
   -2.8129    3.1481    1.8632 C   0  0  0  0  0  0  0  0  0  0  0  0
   -1.8786    2.1098    1.7636 C   0  0  0  0  0  0  0  0  0  0  0  0
   -7.3569   -4.5735    1.0094 H   0  0  0  0  0  0  0  0  0  0  0  0
   -5.9188   -4.9930    0.0569 H   0  0  0  0  0  0  0  0  0  0  0  0
   -7.3295   -4.1915   -0.7252 H   0  0  0  0  0  0  0  0  0  0  0  0
   -4.5367   -0.5667   -0.9006 H   0  0  0  0  0  0  0  0  0  0  0  0
   -5.5851   -0.5973    0.5050 H   0  0  0  0  0  0  0  0  0  0  0  0
   -3.7896   -2.0819    1.6707 H   0  0  0  0  0  0  0  0  0  0  0  0
   -3.4494   -0.3868    1.5083 H   0  0  0  0  0  0  0  0  0  0  0  0
   -2.3792   -2.7118   -0.1898 H   0  0  0  0  0  0  0  0  0  0  0  0
   -0.2718   -2.8071   -0.9049 H   0  0  0  0  0  0  0  0  0  0  0  0
    2.0432   -3.0210   -1.6345 H   0  0  0  0  0  0  0  0  0  0  0  0
    2.8895   -2.6828   -0.1173 H   0  0  0  0  0  0  0  0  0  0  0  0
    3.6157    2.0211   -2.0923 H   0  0  0  0  0  0  0  0  0  0  0  0
    2.3803    0.9049   -2.7050 H   0  0  0  0  0  0  0  0  0  0  0  0
    4.0610    0.7845   -3.2574 H   0  0  0  0  0  0  0  0  0  0  0  0
    7.5295   -1.6884    1.8610 H   0  0  0  0  0  0  0  0  0  0  0  0
   10.0275   -0.7974    1.7882 H   0  0  0  0  0  0  0  0  0  0  0  0
   10.3185    1.0290   -0.0935 H   0  0  0  0  0  0  0  0  0  0  0  0
    0.7066    1.6960    0.8540 H   0  0  0  0  0  0  0  0  0  0  0  0
   -2.5659    1.0684   -1.3994 H   0  0  0  0  0  0  0  0  0  0  0  0
   -4.2167    2.8910   -1.2154 H   0  0  0  0  0  0  0  0  0  0  0  0
   -5.0318    4.6275    2.7924 H   0  0  0  0  0  0  0  0  0  0  0  0
   -3.8248    5.7849    2.1087 H   0  0  0  0  0  0  0  0  0  0  0  0
   -5.5447    5.9458    1.7330 H   0  0  0  0  0  0  0  0  0  0  0  0
   -2.8491    3.7119    2.7891 H   0  0  0  0  0  0  0  0  0  0  0  0
   -1.2297    1.8960    2.6102 H   0  0  0  0  0  0  0  0  0  0  0  0
  1  2  1  0
  2  3  1  0
  3  4  2  0
  3  5  1  0
  5  6  1  0
  6  7  1  0
  7  8  2  3
  8  9  1  0
  9 10  2  0
 10 11  1  0
 11 12  1  0
 12 13  2  0
 12 14  1  0
 14 15  1  0
 14 16  1  0
 16 17  1  0
 17 18  2  0
 17 19  1  0
 19 20  2  0
 20 21  1  0
 21 22  2  0
 22 23  1  0
 14 24  1  0
 24 25  2  0
 24 26  1  0
 26 27  2  0
 27 28  1  0
 28 29  1  0
 29 30  2  0
 30 31  1  0
 31 32  2  0
 32 33  1  0
 33 34  1  0
 32 35  1  0
 35 36  2  0
 28  8  1  0
 36 29  1  0
 26 10  1  0
 23 19  1  0
  1 37  1  0
  1 38  1  0
  1 39  1  0
  5 40  1  0
  5 41  1  0
  6 42  1  0
  6 43  1  0
  7 44  1  0
  9 45  1  0
 11 46  1  0
 11 47  1  0
 15 48  1  0
 15 49  1  0
 15 50  1  0
 20 51  1  0
 21 52  1  0
 22 53  1  0
 27 54  1  0
 30 55  1  0
 31 56  1  0
 34 57  1  0
 34 58  1  0
 34 59  1  0
 35 60  1  0
 36 61  1  0
M  END
$$$$
