
     RDKit          3D

 47 50  0  0  0  0  0  0  0  0999 V2000
    6.8928    2.4417   -1.8831 C   0  0  0  0  0  0  0  0  0  0  0  0
    6.4752    1.7236   -0.6238 C   0  0  0  0  0  0  0  0  0  0  0  0
    7.2894    1.4799    0.2585 O   0  0  0  0  0  0  0  0  0  0  0  0
    5.1323    1.3879   -0.6389 N   0  0  0  0  0  0  0  0  0  0  0  0
    4.4061    0.7072    0.3623 C   0  0  0  0  0  0  0  0  0  0  0  0
    4.9612    0.2669    1.5618 C   0  0  0  0  0  0  0  0  0  0  0  0
    4.1703   -0.4005    2.4993 C   0  0  0  0  0  0  0  0  0  0  0  0
    2.8173   -0.6350    2.2481 C   0  0  0  0  0  0  0  0  0  0  0  0
    2.2417   -0.2040    1.0550 C   0  0  0  0  0  0  0  0  0  0  0  0
    0.8826   -0.3961    0.7239 N   0  0  0  0  0  0  0  0  0  0  0  0
   -0.0694   -1.0689    1.4662 C   0  0  0  0  0  0  0  0  0  0  0  0
    0.0731   -1.6518    2.5307 O   0  0  0  0  0  0  0  0  0  0  0  0
   -1.4139   -1.0635    0.8470 C   0  0  0  0  0  0  0  0  0  0  0  0
   -2.0482    0.1728    0.6994 C   0  0  0  0  0  0  0  0  0  0  0  0
   -3.3059    0.2042    0.1213 C   0  0  0  0  0  0  0  0  0  0  0  0
   -4.0757    1.4445   -0.0879 C   0  0  0  0  0  0  0  0  0  0  0  0
   -5.4783    1.4387   -0.1481 C   0  0  0  0  0  0  0  0  0  0  0  0
   -6.1925    2.6202   -0.3463 C   0  0  0  0  0  0  0  0  0  0  0  0
   -5.4828    3.7981   -0.4862 C   0  0  0  0  0  0  0  0  0  0  0  0
   -4.1369    3.8645   -0.4450 N   0  0  0  0  0  0  0  0  0  0  0  0
   -3.4758    2.6950   -0.2518 C   0  0  0  0  0  0  0  0  0  0  0  0
   -3.9150   -0.9368   -0.2888 N   0  0  0  0  0  0  0  0  0  0  0  0
   -3.3099   -2.1262   -0.1323 C   0  0  0  0  0  0  0  0  0  0  0  0
   -3.9754   -3.2665   -0.5634 C   0  0  0  0  0  0  0  0  0  0  0  0
   -3.4134   -4.5404   -0.4439 C   0  0  0  0  0  0  0  0  0  0  0  0
   -2.1546   -4.6796    0.1214 C   0  0  0  0  0  0  0  0  0  0  0  0
   -1.4489   -6.2394    0.2711 Cl  0  0  0  0  0  0  0  0  0  0  0  0
   -1.4632   -3.5551    0.5627 C   0  0  0  0  0  0  0  0  0  0  0  0
   -2.0341   -2.2623    0.4414 C   0  0  0  0  0  0  0  0  0  0  0  0
    3.0440    0.4681    0.1189 C   0  0  0  0  0  0  0  0  0  0  0  0
    7.0141    1.7164   -2.6921 H   0  0  0  0  0  0  0  0  0  0  0  0
    7.8436    2.9549   -1.7122 H   0  0  0  0  0  0  0  0  0  0  0  0
    6.1473    3.1906   -2.1659 H   0  0  0  0  0  0  0  0  0  0  0  0
    4.6120    1.6530   -1.4650 H   0  0  0  0  0  0  0  0  0  0  0  0
    6.0075    0.4250    1.8038 H   0  0  0  0  0  0  0  0  0  0  0  0
    4.6126   -0.7403    3.4331 H   0  0  0  0  0  0  0  0  0  0  0  0
    2.2439   -1.1554    3.0090 H   0  0  0  0  0  0  0  0  0  0  0  0
    0.5920   -0.0358   -0.1764 H   0  0  0  0  0  0  0  0  0  0  0  0
   -1.5703    1.0743    1.0694 H   0  0  0  0  0  0  0  0  0  0  0  0
   -6.0256    0.5040   -0.0367 H   0  0  0  0  0  0  0  0  0  0  0  0
   -7.2759    2.6158   -0.3902 H   0  0  0  0  0  0  0  0  0  0  0  0
   -5.9917    4.7451   -0.6416 H   0  0  0  0  0  0  0  0  0  0  0  0
   -2.3960    2.8139   -0.2487 H   0  0  0  0  0  0  0  0  0  0  0  0
   -4.9637   -3.1619   -1.0071 H   0  0  0  0  0  0  0  0  0  0  0  0
   -3.9655   -5.4094   -0.7920 H   0  0  0  0  0  0  0  0  0  0  0  0
   -0.4799   -3.6855    1.0121 H   0  0  0  0  0  0  0  0  0  0  0  0
    2.6034    0.8080   -0.8141 H   0  0  0  0  0  0  0  0  0  0  0  0
  1  2  1  0
  2  3  2  0
  2  4  1  0
  4  5  1  0
  5  6  2  0
  6  7  1  0
  7  8  2  0
  8  9  1  0
  9 10  1  0
 10 11  1  0
 11 12  2  0
 11 13  1  0
 13 14  2  0
 14 15  1  0
 15 16  1  0
 16 17  2  0
 17 18  1  0
 18 19  2  0
 19 20  1  0
 20 21  2  0
 15 22  2  0
 22 23  1  0
 23 24  2  0
 24 25  1  0
 25 26  2  0
 26 27  1  0
 26 28  1  0
 28 29  2  0
  9 30  2  0
 30  5  1  0
 29 13  1  0
 21 16  1  0
 29 23  1  0
  1 31  1  0
  1 32  1  0
  1 33  1  0
  4 34  1  0
  6 35  1  0
  7 36  1  0
  8 37  1  0
 10 38  1  0
 14 39  1  0
 17 40  1  0
 18 41  1  0
 19 42  1  0
 21 43  1  0
 24 44  1  0
 25 45  1  0
 28 46  1  0
 30 47  1  0
M  END
$$$$
