
     RDKit          3D

 40 42  0  0  0  0  0  0  0  0999 V2000
   -1.7506   -1.5646   -0.7631 O   0  0  0  0  0  0  0  0  0  0  0  0
   -1.4593   -0.5121   -0.1940 C   0  0  0  0  0  0  0  0  0  0  0  0
   -2.4683    0.2627    0.6489 C   0  0  0  0  0  0  0  0  0  0  0  0
   -3.9044   -0.1720    0.4602 C   0  0  0  0  0  0  0  0  0  0  0  0
   -4.7054    0.4284   -0.5223 C   0  0  0  0  0  0  0  0  0  0  0  0
   -6.0296    0.0220   -0.7018 C   0  0  0  0  0  0  0  0  0  0  0  0
   -6.5558   -0.9915    0.0961 C   0  0  0  0  0  0  0  0  0  0  0  0
   -8.3480   -1.5421   -0.1473 Br  0  0  0  0  0  0  0  0  0  0  0  0
   -5.7699   -1.6053    1.0687 C   0  0  0  0  0  0  0  0  0  0  0  0
   -4.4460   -1.1982    1.2480 C   0  0  0  0  0  0  0  0  0  0  0  0
   -0.1802    0.0252   -0.2781 N   0  0  0  0  0  0  0  0  0  0  0  0
    0.8102   -0.6329   -1.1456 C   0  0  0  0  0  0  0  0  0  0  0  0
    1.8518    0.3633   -1.6765 C   0  0  0  0  0  0  0  0  0  0  0  0
    2.5780    1.0515   -0.5824 N   0  0  0  0  0  0  0  0  0  0  0  0
    3.8421    0.4877   -0.3019 C   0  0  0  0  0  0  0  0  0  0  0  0
    4.7674    1.2296    0.4370 C   0  0  0  0  0  0  0  0  0  0  0  0
    6.0156    0.6862    0.7350 C   0  0  0  0  0  0  0  0  0  0  0  0
    6.3197   -0.5901    0.2887 C   0  0  0  0  0  0  0  0  0  0  0  0
    5.3580   -1.2632   -0.4409 C   0  0  0  0  0  0  0  0  0  0  0  0
    4.1414   -0.7539   -0.7399 N   0  0  0  0  0  0  0  0  0  0  0  0
    1.8008    1.2340    0.6667 C   0  0  0  0  0  0  0  0  0  0  0  0
    0.2805    1.2357    0.4163 C   0  0  0  0  0  0  0  0  0  0  0  0
   -2.3994    1.3303    0.4085 H   0  0  0  0  0  0  0  0  0  0  0  0
   -2.1946    0.1474    1.7046 H   0  0  0  0  0  0  0  0  0  0  0  0
   -4.3018    1.2118   -1.1599 H   0  0  0  0  0  0  0  0  0  0  0  0
   -6.6366    0.4957   -1.4683 H   0  0  0  0  0  0  0  0  0  0  0  0
   -6.1726   -2.4045    1.6847 H   0  0  0  0  0  0  0  0  0  0  0  0
   -3.8356   -1.6962    1.9982 H   0  0  0  0  0  0  0  0  0  0  0  0
    0.3013   -1.1174   -1.9858 H   0  0  0  0  0  0  0  0  0  0  0  0
    1.2890   -1.4164   -0.5469 H   0  0  0  0  0  0  0  0  0  0  0  0
    1.3275    1.1413   -2.2473 H   0  0  0  0  0  0  0  0  0  0  0  0
    2.5213   -0.1187   -2.3991 H   0  0  0  0  0  0  0  0  0  0  0  0
    4.5263    2.2359    0.7618 H   0  0  0  0  0  0  0  0  0  0  0  0
    6.7413    1.2602    1.3031 H   0  0  0  0  0  0  0  0  0  0  0  0
    7.2802   -1.0465    0.4971 H   0  0  0  0  0  0  0  0  0  0  0  0
    5.5427   -2.2643   -0.8198 H   0  0  0  0  0  0  0  0  0  0  0  0
    2.0196    0.4269    1.3806 H   0  0  0  0  0  0  0  0  0  0  0  0
    2.0830    2.1835    1.1364 H   0  0  0  0  0  0  0  0  0  0  0  0
    0.0030    2.0879   -0.2155 H   0  0  0  0  0  0  0  0  0  0  0  0
   -0.2428    1.3424    1.3707 H   0  0  0  0  0  0  0  0  0  0  0  0
  1  2  2  0
  2  3  1  0
  3  4  1  0
  4  5  2  0
  5  6  1  0
  6  7  2  0
  7  8  1  0
  7  9  1  0
  9 10  2  0
  2 11  1  0
 11 12  1  0
 12 13  1  0
 13 14  1  0
 14 15  1  0
 15 16  2  0
 16 17  1  0
 17 18  2  0
 18 19  1  0
 19 20  2  0
 14 21  1  0
 21 22  1  0
 10  4  1  0
 22 11  1  0
 20 15  1  0
  3 23  1  0
  3 24  1  0
  5 25  1  0
  6 26  1  0
  9 27  1  0
 10 28  1  0
 12 29  1  0
 12 30  1  0
 13 31  1  0
 13 32  1  0
 16 33  1  0
 17 34  1  0
 18 35  1  0
 19 36  1  0
 21 37  1  0
 21 38  1  0
 22 39  1  0
 22 40  1  0
M  END
$$$$
