
     RDKit          3D

 41 42  0  0  0  0  0  0  0  0999 V2000
    2.3602   -1.9955   -0.7860 C   0  0  0  0  0  0  0  0  0  0  0  0
    2.3489   -0.6689   -0.0544 C   0  0  0  0  0  0  0  0  0  0  0  0
    1.3309   -0.2183    0.6188 N   0  0  0  0  0  0  0  0  0  0  0  0
    0.2085   -0.9769    0.7219 N   0  0  0  0  0  0  0  0  0  0  0  0
   -0.9306   -0.4502    1.3175 C   0  0  0  0  0  0  0  0  0  0  0  0
   -1.0307    0.6815    1.7873 O   0  0  0  0  0  0  0  0  0  0  0  0
   -2.0845   -1.4346    1.3573 C   0  0  0  0  0  0  0  0  0  0  0  0
   -2.5613   -1.9740   -0.3185 S   0  0  0  0  0  0  0  0  0  0  0  0
   -3.1259   -0.3851   -1.0255 C   0  0  0  0  0  0  0  0  0  0  0  0
   -4.3924    0.1462   -0.4003 C   0  0  0  0  0  0  0  0  0  0  0  0
   -4.2932    1.2024    0.5262 C   0  0  0  0  0  0  0  0  0  0  0  0
   -5.4273    1.7296    1.1463 C   0  0  0  0  0  0  0  0  0  0  0  0
   -6.6847    1.2159    0.8490 C   0  0  0  0  0  0  0  0  0  0  0  0
   -6.8079    0.1769   -0.0717 C   0  0  0  0  0  0  0  0  0  0  0  0
   -5.6724   -0.3551   -0.6951 C   0  0  0  0  0  0  0  0  0  0  0  0
   -5.9605   -1.7514   -1.9523 Br  0  0  0  0  0  0  0  0  0  0  0  0
    3.5785    0.1822   -0.1078 C   0  0  0  0  0  0  0  0  0  0  0  0
    3.4403    1.5752   -0.0086 C   0  0  0  0  0  0  0  0  0  0  0  0
    4.5620    2.4070   -0.0441 C   0  0  0  0  0  0  0  0  0  0  0  0
    5.8357    1.8544   -0.1704 C   0  0  0  0  0  0  0  0  0  0  0  0
    5.9765    0.4627   -0.2535 C   0  0  0  0  0  0  0  0  0  0  0  0
    7.3175   -0.1240   -0.3738 N   0  0  0  0  0  4  0  0  0  0  0  0
    8.2885    0.6448   -0.3569 O   0  0  0  0  0  0  0  0  0  0  0  0
    7.3962   -1.3554   -0.4895 O   0  0  0  0  0  1  0  0  0  0  0  0
    4.8544   -0.3799   -0.2190 C   0  0  0  0  0  0  0  0  0  0  0  0
    3.2091   -2.0869   -1.4671 H   0  0  0  0  0  0  0  0  0  0  0  0
    2.3940   -2.8106   -0.0578 H   0  0  0  0  0  0  0  0  0  0  0  0
    1.4573   -2.0897   -1.3968 H   0  0  0  0  0  0  0  0  0  0  0  0
    0.1508   -1.8830    0.2696 H   0  0  0  0  0  0  0  0  0  0  0  0
   -2.9382   -0.9957    1.8801 H   0  0  0  0  0  0  0  0  0  0  0  0
   -1.7694   -2.3129    1.9305 H   0  0  0  0  0  0  0  0  0  0  0  0
   -3.2754   -0.5232   -2.1019 H   0  0  0  0  0  0  0  0  0  0  0  0
   -2.3154    0.3485   -0.9496 H   0  0  0  0  0  0  0  0  0  0  0  0
   -3.3209    1.6258    0.7792 H   0  0  0  0  0  0  0  0  0  0  0  0
   -5.3244    2.5418    1.8622 H   0  0  0  0  0  0  0  0  0  0  0  0
   -7.5690    1.6252    1.3306 H   0  0  0  0  0  0  0  0  0  0  0  0
   -7.7974   -0.2124   -0.2999 H   0  0  0  0  0  0  0  0  0  0  0  0
    2.4518    2.0218    0.1002 H   0  0  0  0  0  0  0  0  0  0  0  0
    4.4384    3.4854    0.0330 H   0  0  0  0  0  0  0  0  0  0  0  0
    6.7004    2.5151   -0.1941 H   0  0  0  0  0  0  0  0  0  0  0  0
    4.9817   -1.4587   -0.2539 H   0  0  0  0  0  0  0  0  0  0  0  0
  1  2  1  0
  2  3  2  3
  3  4  1  0
  4  5  1  0
  5  6  2  0
  5  7  1  0
  7  8  1  0
  8  9  1  0
  9 10  1  0
 10 11  2  0
 11 12  1  0
 12 13  2  0
 13 14  1  0
 14 15  2  0
 15 16  1  0
  2 17  1  0
 17 18  2  0
 18 19  1  0
 19 20  2  0
 20 21  1  0
 21 22  1  0
 22 23  2  0
 22 24  1  0
 21 25  2  0
 15 10  1  0
 25 17  1  0
  1 26  1  0
  1 27  1  0
  1 28  1  0
  4 29  1  0
  7 30  1  0
  7 31  1  0
  9 32  1  0
  9 33  1  0
 11 34  1  0
 12 35  1  0
 13 36  1  0
 14 37  1  0
 18 38  1  0
 19 39  1  0
 20 40  1  0
 25 41  1  0
M  CHG  2  22   1  24  -1
M  END
$$$$
