
     RDKit          3D

 45 46  0  0  0  0  0  0  0  0999 V2000
    2.2173   -4.5160    1.9390 C   0  0  0  0  0  0  0  0  0  0  0  0
    2.8875   -3.2772    1.4225 C   0  0  0  0  0  0  0  0  0  0  0  0
    4.2667   -3.0955    1.5583 C   0  0  0  0  0  0  0  0  0  0  0  0
    4.8689   -1.9304    1.0882 C   0  0  0  0  0  0  0  0  0  0  0  0
    4.0979   -0.9441    0.4706 C   0  0  0  0  0  0  0  0  0  0  0  0
    2.7199   -1.1196    0.3011 C   0  0  0  0  0  0  0  0  0  0  0  0
    1.9979   -0.0616   -0.2972 N   0  0  0  0  0  0  0  0  0  0  0  0
    0.7701   -0.0681   -0.9468 C   0  0  0  0  0  0  0  0  0  0  0  0
    0.1864   -1.3998   -1.8001 S   0  0  0  0  0  0  0  0  0  0  0  0
    0.1085    1.1840   -0.8857 N   0  0  0  0  0  0  0  0  0  0  0  0
   -1.1249    1.4489   -1.6657 C   0  0  0  0  0  0  0  0  0  0  0  0
   -2.4358    1.0188   -0.9644 C   0  0  0  0  0  0  0  0  0  0  0  0
   -3.6700    1.0430   -1.7718 N   0  0  0  0  0  0  0  0  0  0  0  0
   -3.6957   -0.0197   -2.7738 C   0  0  0  0  0  0  0  0  0  0  0  0
   -3.9314    2.3452   -2.3745 C   0  0  0  0  0  0  0  0  0  0  0  0
    0.4668    2.2297    0.0947 C   0  0  0  0  0  0  0  0  0  0  0  0
   -0.2910    2.0690    1.3801 C   0  0  0  0  0  0  0  0  0  0  0  0
   -0.4400    0.9480    2.1742 C   0  0  0  0  0  0  0  0  0  0  0  0
   -1.2347    1.1993    3.3292 C   0  0  0  0  0  0  0  0  0  0  0  0
   -1.6629    2.5063    3.3873 C   0  0  0  0  0  0  0  0  0  0  0  0
   -1.0864    3.4274    2.0703 S   0  0  0  0  0  0  0  0  0  0  0  0
    2.1204   -2.2782    0.8016 C   0  0  0  0  0  0  0  0  0  0  0  0
    1.7019   -5.0345    1.1241 H   0  0  0  0  0  0  0  0  0  0  0  0
    1.4920   -4.2560    2.7173 H   0  0  0  0  0  0  0  0  0  0  0  0
    2.9411   -5.2116    2.3735 H   0  0  0  0  0  0  0  0  0  0  0  0
    4.8792   -3.8565    2.0360 H   0  0  0  0  0  0  0  0  0  0  0  0
    5.9405   -1.7902    1.2027 H   0  0  0  0  0  0  0  0  0  0  0  0
    4.5935   -0.0458    0.1138 H   0  0  0  0  0  0  0  0  0  0  0  0
    2.5548    0.7552   -0.5076 H   0  0  0  0  0  0  0  0  0  0  0  0
   -1.0296    0.9534   -2.6365 H   0  0  0  0  0  0  0  0  0  0  0  0
   -1.1540    2.5222   -1.8890 H   0  0  0  0  0  0  0  0  0  0  0  0
   -2.3217    0.0206   -0.5256 H   0  0  0  0  0  0  0  0  0  0  0  0
   -2.6054    1.6779   -0.1061 H   0  0  0  0  0  0  0  0  0  0  0  0
   -2.9284    0.1039   -3.5443 H   0  0  0  0  0  0  0  0  0  0  0  0
   -4.6713   -0.0482   -3.2719 H   0  0  0  0  0  0  0  0  0  0  0  0
   -3.5606   -0.9990   -2.3018 H   0  0  0  0  0  0  0  0  0  0  0  0
   -3.2011    2.6034   -3.1481 H   0  0  0  0  0  0  0  0  0  0  0  0
   -4.9269    2.3585   -2.8310 H   0  0  0  0  0  0  0  0  0  0  0  0
   -3.9258    3.1345   -1.6129 H   0  0  0  0  0  0  0  0  0  0  0  0
    1.5351    2.2110    0.3290 H   0  0  0  0  0  0  0  0  0  0  0  0
    0.2824    3.2047   -0.3720 H   0  0  0  0  0  0  0  0  0  0  0  0
   -0.0110   -0.0168    1.9338 H   0  0  0  0  0  0  0  0  0  0  0  0
   -1.4853    0.4546    4.0754 H   0  0  0  0  0  0  0  0  0  0  0  0
   -2.2801    2.9671    4.1460 H   0  0  0  0  0  0  0  0  0  0  0  0
    1.0451   -2.4178    0.7430 H   0  0  0  0  0  0  0  0  0  0  0  0
  1  2  1  0
  2  3  2  0
  3  4  1  0
  4  5  2  0
  5  6  1  0
  6  7  1  0
  7  8  1  0
  8  9  2  0
  8 10  1  0
 10 11  1  0
 11 12  1  0
 12 13  1  0
 13 14  1  0
 13 15  1  0
 10 16  1  0
 16 17  1  0
 17 18  2  0
 18 19  1  0
 19 20  2  0
 20 21  1  0
  6 22  2  0
 22  2  1  0
 21 17  1  0
  1 23  1  0
  1 24  1  0
  1 25  1  0
  3 26  1  0
  4 27  1  0
  5 28  1  0
  7 29  1  0
 11 30  1  0
 11 31  1  0
 12 32  1  0
 12 33  1  0
 14 34  1  0
 14 35  1  0
 14 36  1  0
 15 37  1  0
 15 38  1  0
 15 39  1  0
 16 40  1  0
 16 41  1  0
 18 42  1  0
 19 43  1  0
 20 44  1  0
 22 45  1  0
M  END
$$$$
