
     RDKit          3D

 31 33  0  0  0  0  0  0  0  0999 V2000
   -2.0793   -3.0080   -0.6887 O   0  0  0  0  0  0  0  0  0  0  0  0
   -1.9198   -2.1113    0.1196 C   0  0  0  0  0  0  0  0  0  0  0  0
   -1.6554   -2.3856    1.4115 O   0  0  0  0  0  0  0  0  0  0  0  0
   -2.0260   -0.6581   -0.1693 C   0  0  0  0  0  0  0  0  0  0  0  0
   -2.6768   -0.3127   -1.3662 C   0  0  0  0  0  0  0  0  0  0  0  0
   -2.8503    1.0250   -1.7187 C   0  0  0  0  0  0  0  0  0  0  0  0
   -2.3838    2.0275   -0.8746 C   0  0  0  0  0  0  0  0  0  0  0  0
   -1.7249    1.6952    0.3113 C   0  0  0  0  0  0  0  0  0  0  0  0
   -1.5109    0.3565    0.6619 C   0  0  0  0  0  0  0  0  0  0  0  0
   -0.8074    0.0403    1.8708 N   0  0  0  0  0  0  0  0  0  0  0  0
    0.7107    0.6935    2.1947 S   0  0  0  0  0  6  0  0  0  0  0  0
    1.3168   -0.1061    3.2366 O   0  0  0  0  0  0  0  0  0  0  0  0
    0.5611    2.1248    2.3688 O   0  0  0  0  0  0  0  0  0  0  0  0
    1.6400    0.4421    0.7254 C   0  0  0  0  0  0  0  0  0  0  0  0
    2.2274    1.5371    0.0518 C   0  0  0  0  0  0  0  0  0  0  0  0
    2.9826    1.3951   -1.1348 C   0  0  0  0  0  0  0  0  0  0  0  0
    3.2148    0.1527   -1.7473 C   0  0  0  0  0  0  0  0  0  0  0  0
    2.6469   -0.9774   -1.1109 C   0  0  0  0  0  0  0  0  0  0  0  0
    2.7495   -2.2437   -1.5389 N   0  0  0  0  0  0  0  0  0  0  0  0
    1.9124   -3.1784   -0.4553 S   0  0  0  0  0  0  0  0  0  0  0  0
    1.3750   -2.0173    0.6025 N   0  0  0  0  0  0  0  0  0  0  0  0
    1.8383   -0.8365    0.1590 C   0  0  0  0  0  0  0  0  0  0  0  0
   -1.6236   -3.3673    1.4394 H   0  0  0  0  0  0  0  0  0  0  0  0
   -3.0616   -1.0895   -2.0257 H   0  0  0  0  0  0  0  0  0  0  0  0
   -3.3628    1.2832   -2.6427 H   0  0  0  0  0  0  0  0  0  0  0  0
   -2.5381    3.0730   -1.1328 H   0  0  0  0  0  0  0  0  0  0  0  0
   -1.3988    2.5027    0.9628 H   0  0  0  0  0  0  0  0  0  0  0  0
   -0.8596   -0.9469    2.1579 H   0  0  0  0  0  0  0  0  0  0  0  0
    2.1022    2.5430    0.4580 H   0  0  0  0  0  0  0  0  0  0  0  0
    3.4054    2.2900   -1.5941 H   0  0  0  0  0  0  0  0  0  0  0  0
    3.7959    0.0566   -2.6571 H   0  0  0  0  0  0  0  0  0  0  0  0
  1  2  2  0
  2  3  1  0
  2  4  1  0
  4  5  2  0
  5  6  1  0
  6  7  2  0
  7  8  1  0
  8  9  2  0
  9 10  1  0
 10 11  1  0
 11 12  2  0
 11 13  2  0
 11 14  1  0
 14 15  2  0
 15 16  1  0
 16 17  2  0
 17 18  1  0
 18 19  2  0
 19 20  1  0
 20 21  1  0
 21 22  2  0
  9  4  1  0
 22 14  1  0
 22 18  1  0
  3 23  1  0
  5 24  1  0
  6 25  1  0
  7 26  1  0
  8 27  1  0
 10 28  1  0
 15 29  1  0
 16 30  1  0
 17 31  1  0
M  END
$$$$
