
     RDKit          3D

 34 36  0  0  0  0  0  0  0  0999 V2000
   -3.0656    0.5521    3.2425 C   0  0  0  0  0  0  0  0  0  0  0  0
   -2.4956    0.1857    1.9837 O   0  0  0  0  0  0  0  0  0  0  0  0
   -2.6684    1.1224    1.0125 C   0  0  0  0  0  0  0  0  0  0  0  0
   -3.2752    2.1737    1.1546 O   0  0  0  0  0  0  0  0  0  0  0  0
   -2.0686    0.6866   -0.2843 C   0  0  0  0  0  0  0  0  0  0  0  0
   -2.4688    1.4226   -1.4161 C   0  0  0  0  0  0  0  0  0  0  0  0
   -1.9843    1.1084   -2.6852 C   0  0  0  0  0  0  0  0  0  0  0  0
   -1.0939    0.0535   -2.8404 C   0  0  0  0  0  0  0  0  0  0  0  0
   -0.6829   -0.6807   -1.7268 C   0  0  0  0  0  0  0  0  0  0  0  0
   -1.1541   -0.3836   -0.4352 C   0  0  0  0  0  0  0  0  0  0  0  0
   -0.6197   -1.1267    0.6510 N   0  0  0  0  0  0  0  0  0  0  0  0
    0.6490   -0.6374    1.1949 C   0  0  0  0  0  0  0  0  0  0  0  0
    0.6663    0.7903    1.3539 O   0  0  0  0  0  0  0  0  0  0  0  0
    1.7355    1.3451    0.7095 C   0  0  0  0  0  0  0  0  0  0  0  0
    2.0326    2.5227    0.6856 O   0  0  0  0  0  0  0  0  0  0  0  0
    2.4694    0.2595    0.0724 C   0  0  0  0  0  0  0  0  0  0  0  0
    3.6220    0.3255   -0.6905 C   0  0  0  0  0  0  0  0  0  0  0  0
    4.1381   -0.8743   -1.1829 C   0  0  0  0  0  0  0  0  0  0  0  0
    3.4981   -2.0942   -0.9011 C   0  0  0  0  0  0  0  0  0  0  0  0
    2.3348   -2.1286   -0.1253 C   0  0  0  0  0  0  0  0  0  0  0  0
    1.8291   -0.9294    0.3505 C   0  0  0  0  0  0  0  0  0  0  0  0
   -2.8962   -0.2718    3.9414 H   0  0  0  0  0  0  0  0  0  0  0  0
   -4.1447    0.7081    3.1473 H   0  0  0  0  0  0  0  0  0  0  0  0
   -2.5748    1.4473    3.6365 H   0  0  0  0  0  0  0  0  0  0  0  0
   -3.1656    2.2532   -1.3105 H   0  0  0  0  0  0  0  0  0  0  0  0
   -2.3032    1.6874   -3.5483 H   0  0  0  0  0  0  0  0  0  0  0  0
   -0.7141   -0.1997   -3.8270 H   0  0  0  0  0  0  0  0  0  0  0  0
    0.0092   -1.5063   -1.8752 H   0  0  0  0  0  0  0  0  0  0  0  0
   -1.3008   -1.0535    1.4135 H   0  0  0  0  0  0  0  0  0  0  0  0
    0.7986   -1.0779    2.1878 H   0  0  0  0  0  0  0  0  0  0  0  0
    4.1031    1.2767   -0.8955 H   0  0  0  0  0  0  0  0  0  0  0  0
    5.0419   -0.8668   -1.7885 H   0  0  0  0  0  0  0  0  0  0  0  0
    3.9134   -3.0207   -1.2930 H   0  0  0  0  0  0  0  0  0  0  0  0
    1.8355   -3.0696    0.0881 H   0  0  0  0  0  0  0  0  0  0  0  0
  1  2  1  0
  2  3  1  0
  3  4  2  0
  3  5  1  0
  5  6  2  0
  6  7  1  0
  7  8  2  0
  8  9  1  0
  9 10  2  0
 10 11  1  0
 11 12  1  0
 12 13  1  0
 13 14  1  0
 14 15  2  0
 14 16  1  0
 16 17  2  0
 17 18  1  0
 18 19  2  0
 19 20  1  0
 20 21  2  0
 10  5  1  0
 21 12  1  0
 21 16  1  0
  1 22  1  0
  1 23  1  0
  1 24  1  0
  6 25  1  0
  7 26  1  0
  8 27  1  0
  9 28  1  0
 11 29  1  0
 12 30  1  0
 17 31  1  0
 18 32  1  0
 19 33  1  0
 20 34  1  0
M  END
$$$$
