
     RDKit          3D

 61 63  0  0  0  0  0  0  0  0999 V2000
   -3.7376   -0.2720    1.0060 C   0  0  0  0  0  0  0  0  0  0  0  0
   -2.8289   -0.2341   -0.2119 C   0  0  0  0  0  0  0  0  0  0  0  0
   -2.9898    1.0694   -0.9981 C   0  0  0  0  0  0  0  0  0  0  0  0
   -2.1418    1.0911   -2.2698 C   0  0  0  0  0  0  0  0  0  0  0  0
   -0.7247    1.0310   -1.9843 N   0  0  0  0  0  0  0  0  0  0  0  0
    0.0435    2.1490   -1.7193 C   0  0  0  0  0  0  0  0  0  0  0  0
   -0.4183    3.2854   -1.7370 O   0  0  0  0  0  0  0  0  0  0  0  0
    1.5014    1.8135   -1.3353 C   0  0  0  0  0  0  0  0  0  0  0  0
    2.4527    2.9903   -1.6012 C   0  0  0  0  0  0  0  0  0  0  0  0
    2.6602    3.8521   -0.3755 C   0  0  0  0  0  0  0  0  0  0  0  0
    3.6640    3.5341    0.5505 C   0  0  0  0  0  0  0  0  0  0  0  0
    3.8451    4.3128    1.6945 C   0  0  0  0  0  0  0  0  0  0  0  0
    3.0245    5.4148    1.9259 C   0  0  0  0  0  0  0  0  0  0  0  0
    2.0233    5.7391    1.0129 C   0  0  0  0  0  0  0  0  0  0  0  0
    1.8412    4.9622   -0.1323 C   0  0  0  0  0  0  0  0  0  0  0  0
    1.9153    0.6195   -2.1231 N   0  0  0  0  0  0  0  0  0  0  0  0
    2.9629   -0.4891   -1.4378 S   0  0  0  0  0  6  0  0  0  0  0  0
    3.3757   -1.3754   -2.5001 O   0  0  0  0  0  0  0  0  0  0  0  0
    3.9115    0.2265   -0.6180 O   0  0  0  0  0  0  0  0  0  0  0  0
    1.8693   -1.4022   -0.3818 C   0  0  0  0  0  0  0  0  0  0  0  0
    1.9847   -1.3060    1.0036 C   0  0  0  0  0  0  0  0  0  0  0  0
    1.0832   -1.9973    1.8215 C   0  0  0  0  0  0  0  0  0  0  0  0
    0.0573   -2.7825    1.2676 C   0  0  0  0  0  0  0  0  0  0  0  0
   -0.0295   -2.8686   -0.1217 C   0  0  0  0  0  0  0  0  0  0  0  0
    0.8779   -2.1967   -0.9535 C   0  0  0  0  0  0  0  0  0  0  0  0
   -1.1211   -3.6433   -0.7276 C   0  0  0  0  0  0  0  0  0  0  0  0
   -1.2748   -3.5929   -1.9456 O   0  0  0  0  0  0  0  0  0  0  0  0
   -1.9340   -4.3558    0.1367 N   0  0  0  0  0  0  0  0  0  0  0  0
   -3.0049   -5.1474   -0.4402 C   0  0  0  0  0  0  0  0  0  0  0  0
   -1.9059   -4.2497    1.5227 C   0  0  0  0  0  0  0  0  0  0  0  0
   -2.7469   -4.8146    2.2259 O   0  0  0  0  0  0  0  0  0  0  0  0
   -0.8933   -3.4658    2.0708 N   0  0  0  0  0  0  0  0  0  0  0  0
   -0.8302   -3.3442    3.5223 C   0  0  0  0  0  0  0  0  0  0  0  0
   -4.7898   -0.2033    0.7126 H   0  0  0  0  0  0  0  0  0  0  0  0
   -3.5976   -1.2097    1.5531 H   0  0  0  0  0  0  0  0  0  0  0  0
   -3.5154    0.5554    1.6873 H   0  0  0  0  0  0  0  0  0  0  0  0
   -3.0581   -1.0897   -0.8575 H   0  0  0  0  0  0  0  0  0  0  0  0
   -1.7914   -0.3431    0.1215 H   0  0  0  0  0  0  0  0  0  0  0  0
   -2.7222    1.9180   -0.3566 H   0  0  0  0  0  0  0  0  0  0  0  0
   -4.0424    1.1965   -1.2784 H   0  0  0  0  0  0  0  0  0  0  0  0
   -2.3826    0.2354   -2.9094 H   0  0  0  0  0  0  0  0  0  0  0  0
   -2.3508    2.0059   -2.8350 H   0  0  0  0  0  0  0  0  0  0  0  0
   -0.2529    0.1361   -2.0173 H   0  0  0  0  0  0  0  0  0  0  0  0
    1.4738    1.5507   -0.2704 H   0  0  0  0  0  0  0  0  0  0  0  0
    2.0924    3.6139   -2.4298 H   0  0  0  0  0  0  0  0  0  0  0  0
    3.4372    2.6297   -1.9275 H   0  0  0  0  0  0  0  0  0  0  0  0
    4.3168    2.6785    0.3850 H   0  0  0  0  0  0  0  0  0  0  0  0
    4.6294    4.0603    2.4034 H   0  0  0  0  0  0  0  0  0  0  0  0
    3.1668    6.0223    2.8156 H   0  0  0  0  0  0  0  0  0  0  0  0
    1.3817    6.5985    1.1905 H   0  0  0  0  0  0  0  0  0  0  0  0
    1.0513    5.2304   -0.8321 H   0  0  0  0  0  0  0  0  0  0  0  0
    1.9869    0.7083   -3.1376 H   0  0  0  0  0  0  0  0  0  0  0  0
    2.7618   -0.6935    1.4586 H   0  0  0  0  0  0  0  0  0  0  0  0
    1.2044   -1.8924    2.8968 H   0  0  0  0  0  0  0  0  0  0  0  0
    0.7991   -2.2839   -2.0365 H   0  0  0  0  0  0  0  0  0  0  0  0
   -3.1221   -6.0836    0.1145 H   0  0  0  0  0  0  0  0  0  0  0  0
   -2.8153   -5.3837   -1.4908 H   0  0  0  0  0  0  0  0  0  0  0  0
   -3.9360   -4.5761   -0.3652 H   0  0  0  0  0  0  0  0  0  0  0  0
    0.1294   -3.7332    3.8776 H   0  0  0  0  0  0  0  0  0  0  0  0
   -1.6224   -3.9088    4.0218 H   0  0  0  0  0  0  0  0  0  0  0  0
   -0.9438   -2.2922    3.8033 H   0  0  0  0  0  0  0  0  0  0  0  0
  1  2  1  0
  2  3  1  0
  3  4  1  0
  4  5  1  0
  5  6  1  0
  6  7  2  0
  6  8  1  0
  8  9  1  0
  9 10  1  0
 10 11  2  0
 11 12  1  0
 12 13  2  0
 13 14  1  0
 14 15  2  0
  8 16  1  0
 16 17  1  0
 17 18  2  0
 17 19  2  0
 17 20  1  0
 20 21  2  0
 21 22  1  0
 22 23  2  0
 23 24  1  0
 24 25  2  0
 24 26  1  0
 26 27  2  0
 26 28  1  0
 28 29  1  0
 28 30  1  0
 30 31  2  0
 30 32  1  0
 32 33  1  0
 15 10  1  0
 25 20  1  0
 32 23  1  0
  1 34  1  0
  1 35  1  0
  1 36  1  0
  2 37  1  0
  2 38  1  0
  3 39  1  0
  3 40  1  0
  4 41  1  0
  4 42  1  0
  5 43  1  0
  8 44  1  0
  9 45  1  0
  9 46  1  0
 11 47  1  0
 12 48  1  0
 13 49  1  0
 14 50  1  0
 15 51  1  0
 16 52  1  0
 21 53  1  0
 22 54  1  0
 25 55  1  0
 29 56  1  0
 29 57  1  0
 29 58  1  0
 33 59  1  0
 33 60  1  0
 33 61  1  0
M  END
$$$$
