
     RDKit          3D

 52 55  0  0  0  0  0  0  0  0999 V2000
    6.4790    2.1955   -3.0336 C   0  0  0  0  0  0  0  0  0  0  0  0
    6.1700    2.5965   -1.5994 C   0  0  0  0  0  0  0  0  0  0  0  0
    4.9093    1.9421   -1.0937 C   0  0  0  0  0  0  0  0  0  0  0  0
    3.6678    2.5654   -1.2676 C   0  0  0  0  0  0  0  0  0  0  0  0
    2.4979    1.9514   -0.8139 C   0  0  0  0  0  0  0  0  0  0  0  0
    2.5530    0.7026   -0.1851 C   0  0  0  0  0  0  0  0  0  0  0  0
    1.2931    0.0784    0.2821 C   0  0  0  0  0  0  0  0  0  0  0  0
    0.1398    0.6722    0.2181 N   0  0  0  0  0  0  0  0  0  0  0  0
   -0.7921   -0.1979    0.7085 N   0  0  0  0  0  0  0  0  0  0  0  0
   -2.1032    0.2154    0.9384 C   0  0  0  0  0  0  0  0  0  0  0  0
   -3.0795   -0.6373    1.4815 C   0  0  0  0  0  0  0  0  0  0  0  0
   -4.3937   -0.2060    1.7050 C   0  0  0  0  0  0  0  0  0  0  0  0
   -4.7519    1.1038    1.3922 C   0  0  0  0  0  0  0  0  0  0  0  0
   -6.4136    1.6477    1.6417 S   0  0  0  0  0  6  0  0  0  0  0  0
   -6.3271    2.3423    3.1683 N   0  0  0  0  0  0  0  0  0  0  0  0
   -7.2781    0.4989    1.7828 O   0  0  0  0  0  0  0  0  0  0  0  0
   -6.7066    2.7291    0.7303 O   0  0  0  0  0  0  0  0  0  0  0  0
   -3.8158    1.9738    0.8396 C   0  0  0  0  0  0  0  0  0  0  0  0
   -2.5079    1.5266    0.6229 C   0  0  0  0  0  0  0  0  0  0  0  0
   -0.2395   -1.5201    1.0085 C   0  0  0  0  0  0  0  0  0  0  0  0
   -0.6955   -2.6015    0.0369 C   0  0  0  0  0  0  0  0  0  0  0  0
   -0.9416   -2.3279   -1.3211 C   0  0  0  0  0  0  0  0  0  0  0  0
   -1.3357   -3.3444   -2.1925 C   0  0  0  0  0  0  0  0  0  0  0  0
   -1.4783   -4.6398   -1.7137 C   0  0  0  0  0  0  0  0  0  0  0  0
   -1.8539   -5.6163   -2.5499 F   0  0  0  0  0  0  0  0  0  0  0  0
   -1.2335   -4.9392   -0.3793 C   0  0  0  0  0  0  0  0  0  0  0  0
   -0.8402   -3.9241    0.4949 C   0  0  0  0  0  0  0  0  0  0  0  0
    1.2695   -1.2913    0.9024 C   0  0  0  0  0  0  0  0  0  0  0  0
    3.7897    0.0734   -0.0128 C   0  0  0  0  0  0  0  0  0  0  0  0
    4.9596    0.6900   -0.4678 C   0  0  0  0  0  0  0  0  0  0  0  0
    5.6689    2.4866   -3.7109 H   0  0  0  0  0  0  0  0  0  0  0  0
    7.3974    2.6843   -3.3737 H   0  0  0  0  0  0  0  0  0  0  0  0
    6.6180    1.1127   -3.1223 H   0  0  0  0  0  0  0  0  0  0  0  0
    6.0723    3.6869   -1.5320 H   0  0  0  0  0  0  0  0  0  0  0  0
    7.0114    2.3270   -0.9495 H   0  0  0  0  0  0  0  0  0  0  0  0
    3.6017    3.5341   -1.7588 H   0  0  0  0  0  0  0  0  0  0  0  0
    1.5437    2.4546   -0.9579 H   0  0  0  0  0  0  0  0  0  0  0  0
   -2.8408   -1.6657    1.7353 H   0  0  0  0  0  0  0  0  0  0  0  0
   -5.1228   -0.8997    2.1172 H   0  0  0  0  0  0  0  0  0  0  0  0
   -6.5351    3.3390    3.1054 H   0  0  0  0  0  0  0  0  0  0  0  0
   -6.9305    1.8327    3.8136 H   0  0  0  0  0  0  0  0  0  0  0  0
   -4.0856    2.9924    0.5726 H   0  0  0  0  0  0  0  0  0  0  0  0
   -1.7876    2.2196    0.1918 H   0  0  0  0  0  0  0  0  0  0  0  0
   -0.4893   -1.8138    2.0361 H   0  0  0  0  0  0  0  0  0  0  0  0
   -0.8372   -1.3137   -1.7054 H   0  0  0  0  0  0  0  0  0  0  0  0
   -1.5338   -3.1305   -3.2379 H   0  0  0  0  0  0  0  0  0  0  0  0
   -1.3509   -5.9600   -0.0299 H   0  0  0  0  0  0  0  0  0  0  0  0
   -0.6497   -4.1727    1.5369 H   0  0  0  0  0  0  0  0  0  0  0  0
    1.7284   -1.2347    1.8953 H   0  0  0  0  0  0  0  0  0  0  0  0
    1.7932   -2.0303    0.2900 H   0  0  0  0  0  0  0  0  0  0  0  0
    3.8730   -0.8941    0.4724 H   0  0  0  0  0  0  0  0  0  0  0  0
    5.9143    0.1860   -0.3309 H   0  0  0  0  0  0  0  0  0  0  0  0
  1  2  1  0
  2  3  1  0
  3  4  2  0
  4  5  1  0
  5  6  2  0
  6  7  1  0
  7  8  2  0
  8  9  1  0
  9 10  1  0
 10 11  2  0
 11 12  1  0
 12 13  2  0
 13 14  1  0
 14 15  1  0
 14 16  2  0
 14 17  2  0
 13 18  1  0
 18 19  2  0
  9 20  1  0
 20 21  1  0
 21 22  2  0
 22 23  1  0
 23 24  2  0
 24 25  1  0
 24 26  1  0
 26 27  2  0
 20 28  1  0
  6 29  1  0
 29 30  2  0
 30  3  1  0
 28  7  1  0
 19 10  1  0
 27 21  1  0
  1 31  1  0
  1 32  1  0
  1 33  1  0
  2 34  1  0
  2 35  1  0
  4 36  1  0
  5 37  1  0
 11 38  1  0
 12 39  1  0
 15 40  1  0
 15 41  1  0
 18 42  1  0
 19 43  1  0
 20 44  1  0
 22 45  1  0
 23 46  1  0
 26 47  1  0
 27 48  1  0
 28 49  1  0
 28 50  1  0
 29 51  1  0
 30 52  1  0
M  END
$$$$
