
     RDKit          3D

 36 38  0  0  0  0  0  0  0  0999 V2000
   -1.4063    0.5774   -3.0266 C   0  0  0  0  0  0  0  0  0  0  0  0
   -2.1768    0.1273   -1.8349 C   0  0  0  0  0  0  0  0  0  0  0  0
   -3.4701   -0.3503   -1.7634 C   0  0  0  0  0  0  0  0  0  0  0  0
   -3.7609   -0.6521   -0.4078 C   0  0  0  0  0  0  0  0  0  0  0  0
   -4.8968   -1.1610    0.2521 C   0  0  0  0  0  0  0  0  0  0  0  0
   -4.8628   -1.3494    1.6372 C   0  0  0  0  0  0  0  0  0  0  0  0
   -3.7182   -1.0381    2.3642 C   0  0  0  0  0  0  0  0  0  0  0  0
   -2.5787   -0.5319    1.7309 C   0  0  0  0  0  0  0  0  0  0  0  0
   -2.6212   -0.3450    0.3384 C   0  0  0  0  0  0  0  0  0  0  0  0
   -1.6711    0.1263   -0.5514 N   0  0  0  0  0  0  0  0  0  0  0  0
   -0.3270    0.5422   -0.1754 C   0  0  0  0  0  0  0  0  0  0  0  0
    0.6422   -0.6398   -0.1593 C   0  0  0  0  0  0  0  0  0  0  0  0
    1.9792   -0.2745    0.2785 N   0  0  0  0  0  0  0  0  0  0  0  0
    2.8310    0.4497   -0.5386 C   0  0  0  0  0  0  0  0  0  0  0  0
    2.4522    0.8645   -1.6316 O   0  0  0  0  0  0  0  0  0  0  0  0
    4.1630    0.6712   -0.0058 C   0  0  0  0  0  0  0  0  0  0  0  0
    4.7860    0.3246    1.1825 C   0  0  0  0  0  0  0  0  0  0  0  0
    6.1093    0.8308    1.1183 C   0  0  0  0  0  0  0  0  0  0  0  0
    6.2205    1.4569   -0.1000 C   0  0  0  0  0  0  0  0  0  0  0  0
    7.7800    2.3302   -0.7490 Br  0  0  0  0  0  0  0  0  0  0  0  0
    5.0523    1.3666   -0.7843 O   0  0  0  0  0  0  0  0  0  0  0  0
   -0.4625    0.0305   -3.1127 H   0  0  0  0  0  0  0  0  0  0  0  0
   -1.1897    1.6484   -2.9635 H   0  0  0  0  0  0  0  0  0  0  0  0
   -1.9760    0.4047   -3.9456 H   0  0  0  0  0  0  0  0  0  0  0  0
   -4.1412   -0.4714   -2.6039 H   0  0  0  0  0  0  0  0  0  0  0  0
   -5.7932   -1.4046   -0.3104 H   0  0  0  0  0  0  0  0  0  0  0  0
   -5.7394   -1.7407    2.1470 H   0  0  0  0  0  0  0  0  0  0  0  0
   -3.7098   -1.1883    3.4413 H   0  0  0  0  0  0  0  0  0  0  0  0
   -1.6953   -0.2907    2.3121 H   0  0  0  0  0  0  0  0  0  0  0  0
   -0.0048    1.3243   -0.8698 H   0  0  0  0  0  0  0  0  0  0  0  0
   -0.3823    1.0164    0.8111 H   0  0  0  0  0  0  0  0  0  0  0  0
    0.2888   -1.4197    0.5243 H   0  0  0  0  0  0  0  0  0  0  0  0
    0.7189   -1.0894   -1.1562 H   0  0  0  0  0  0  0  0  0  0  0  0
    2.3266   -0.6697    1.1398 H   0  0  0  0  0  0  0  0  0  0  0  0
    4.3505   -0.2247    2.0045 H   0  0  0  0  0  0  0  0  0  0  0  0
    6.8837    0.7491    1.8682 H   0  0  0  0  0  0  0  0  0  0  0  0
  1  2  1  0
  2  3  2  0
  3  4  1  0
  4  5  2  0
  5  6  1  0
  6  7  2  0
  7  8  1  0
  8  9  2  0
  9 10  1  0
 10 11  1  0
 11 12  1  0
 12 13  1  0
 13 14  1  0
 14 15  2  0
 14 16  1  0
 16 17  2  0
 17 18  1  0
 18 19  2  0
 19 20  1  0
 19 21  1  0
 10  2  1  0
 21 16  1  0
  9  4  1  0
  1 22  1  0
  1 23  1  0
  1 24  1  0
  3 25  1  0
  5 26  1  0
  6 27  1  0
  7 28  1  0
  8 29  1  0
 11 30  1  0
 11 31  1  0
 12 32  1  0
 12 33  1  0
 13 34  1  0
 17 35  1  0
 18 36  1  0
M  END
$$$$
