
     RDKit          3D

 36 38  0  0  0  0  0  0  0  0999 V2000
   -2.7462    4.8613   -0.1477 C   0  0  0  0  0  0  0  0  0  0  0  0
   -2.7803    3.3630   -0.0945 C   0  0  0  0  0  0  0  0  0  0  0  0
   -3.9755    2.6860    0.1341 C   0  0  0  0  0  0  0  0  0  0  0  0
   -3.9857    1.2908    0.2256 C   0  0  0  0  0  0  0  0  0  0  0  0
   -2.8274    0.5360    0.1008 C   0  0  0  0  0  0  0  0  0  0  0  0
   -2.9198   -0.7924    0.2176 N   0  0  0  0  0  0  0  0  0  0  0  0
   -1.7908   -1.5280    0.1339 C   0  0  0  0  0  0  0  0  0  0  0  0
   -1.8777   -3.0579    0.2497 C   0  0  0  0  0  0  0  0  0  0  0  0
   -0.4487   -3.7285    1.1256 Cl  0  0  0  0  0  0  0  0  0  0  0  0
   -1.9369   -3.7837   -1.3927 Cl  0  0  0  0  0  0  0  0  0  0  0  0
   -3.3393   -3.5937    1.1570 Cl  0  0  0  0  0  0  0  0  0  0  0  0
   -0.5857   -0.9790   -0.1101 N   0  0  0  0  0  0  0  0  0  0  0  0
   -0.4975    0.3587   -0.2593 C   0  0  0  0  0  0  0  0  0  0  0  0
    0.7913    0.9483   -0.5017 N   0  0  0  0  0  0  0  0  0  0  0  0
    1.8554    0.1016   -0.7108 N   0  0  0  0  0  0  0  0  0  0  0  0
    2.2750   -0.5058    0.3566 C   0  0  0  0  0  0  0  0  0  0  0  0
    3.3799   -1.4796    0.3153 C   0  0  0  0  0  0  0  0  0  0  0  0
    3.7529   -2.1225    1.4923 C   0  0  0  0  0  0  0  0  0  0  0  0
    4.7916   -3.0330    1.4224 C   0  0  0  0  0  0  0  0  0  0  0  0
    5.4574   -3.3265    0.2844 N   0  0  0  0  0  0  0  0  0  0  0  0
    5.0644   -2.6880   -0.8400 C   0  0  0  0  0  0  0  0  0  0  0  0
    4.0387   -1.7625   -0.8780 C   0  0  0  0  0  0  0  0  0  0  0  0
   -1.6181    1.1974   -0.1313 C   0  0  0  0  0  0  0  0  0  0  0  0
   -1.6034    2.6167   -0.2119 C   0  0  0  0  0  0  0  0  0  0  0  0
   -2.5656    5.2672    0.8524 H   0  0  0  0  0  0  0  0  0  0  0  0
   -1.9552    5.2095   -0.8202 H   0  0  0  0  0  0  0  0  0  0  0  0
   -3.6930    5.2610   -0.5260 H   0  0  0  0  0  0  0  0  0  0  0  0
   -4.9094    3.2325    0.2493 H   0  0  0  0  0  0  0  0  0  0  0  0
   -4.9296    0.7803    0.4079 H   0  0  0  0  0  0  0  0  0  0  0  0
    0.6700    1.5795   -1.2959 H   0  0  0  0  0  0  0  0  0  0  0  0
    1.8121   -0.3191    1.3433 H   0  0  0  0  0  0  0  0  0  0  0  0
    3.2541   -1.9321    2.4351 H   0  0  0  0  0  0  0  0  0  0  0  0
    5.1279   -3.5695    2.3054 H   0  0  0  0  0  0  0  0  0  0  0  0
    5.6149   -2.9508   -1.7389 H   0  0  0  0  0  0  0  0  0  0  0  0
    3.7622   -1.2815   -1.8094 H   0  0  0  0  0  0  0  0  0  0  0  0
   -0.6621    3.1443   -0.3548 H   0  0  0  0  0  0  0  0  0  0  0  0
  1  2  1  0
  2  3  2  0
  3  4  1  0
  4  5  2  0
  5  6  1  0
  6  7  2  0
  7  8  1  0
  8  9  1  0
  8 10  1  0
  8 11  1  0
  7 12  1  0
 12 13  2  0
 13 14  1  0
 14 15  1  0
 15 16  2  3
 16 17  1  0
 17 18  2  0
 18 19  1  0
 19 20  2  0
 20 21  1  0
 21 22  2  0
 13 23  1  0
 23 24  2  0
 24  2  1  0
 23  5  1  0
 22 17  1  0
  1 25  1  0
  1 26  1  0
  1 27  1  0
  3 28  1  0
  4 29  1  0
 14 30  1  0
 16 31  1  0
 18 32  1  0
 19 33  1  0
 21 34  1  0
 22 35  1  0
 24 36  1  0
M  END
$$$$
