
     RDKit          3D

 33 35  0  0  0  0  0  0  0  0999 V2000
    1.8429    2.2593   -0.1798 N   0  0  0  0  0  0  0  0  0  0  0  0
    1.9250    1.1050   -0.0926 C   0  0  0  0  0  0  0  0  0  0  0  0
    1.9127   -0.3090    0.0126 C   0  0  0  0  0  0  0  0  0  0  0  0
    3.0217   -1.0715    0.0614 C   0  0  0  0  0  0  0  0  0  0  0  0
    4.3709   -0.6151    0.0025 C   0  0  0  0  0  0  0  0  0  0  0  0
    4.9647    0.5274   -0.5277 C   0  0  0  0  0  0  0  0  0  0  0  0
    6.3621    0.4431   -0.3087 C   0  0  0  0  0  0  0  0  0  0  0  0
    6.5676   -0.7493    0.3313 C   0  0  0  0  0  0  0  0  0  0  0  0
    5.3913   -1.3920    0.5137 O   0  0  0  0  0  0  0  0  0  0  0  0
    0.5877   -1.0319    0.1036 C   0  0  0  0  0  0  0  0  0  0  0  0
    0.5689   -2.2588    0.1431 O   0  0  0  0  0  0  0  0  0  0  0  0
   -0.5303   -0.2107    0.1323 N   0  0  0  0  0  0  0  0  0  0  0  0
   -1.9019   -0.5915    0.2118 C   0  0  0  0  0  0  0  0  0  0  0  0
   -2.2883   -1.9342    0.2785 C   0  0  0  0  0  0  0  0  0  0  0  0
   -3.6323   -2.2830    0.3569 C   0  0  0  0  0  0  0  0  0  0  0  0
   -4.6057   -1.2904    0.3696 C   0  0  0  0  0  0  0  0  0  0  0  0
   -4.2764    0.0514    0.3053 C   0  0  0  0  0  0  0  0  0  0  0  0
   -5.2935    0.9302    0.3237 N   0  0  0  0  0  0  0  0  0  0  0  0
   -5.0085    2.2449    0.2619 C   0  0  0  0  0  0  0  0  0  0  0  0
   -3.7272    2.7396    0.1803 C   0  0  0  0  0  0  0  0  0  0  0  0
   -2.6760    1.8269    0.1614 C   0  0  0  0  0  0  0  0  0  0  0  0
   -2.9127    0.4292    0.2245 C   0  0  0  0  0  0  0  0  0  0  0  0
    2.9237   -2.1488    0.1924 H   0  0  0  0  0  0  0  0  0  0  0  0
    4.4636    1.3407   -1.0345 H   0  0  0  0  0  0  0  0  0  0  0  0
    7.1204    1.1596   -0.5915 H   0  0  0  0  0  0  0  0  0  0  0  0
    7.4446   -1.2625    0.7007 H   0  0  0  0  0  0  0  0  0  0  0  0
   -0.3787    0.7864    0.0960 H   0  0  0  0  0  0  0  0  0  0  0  0
   -1.5708   -2.7477    0.2729 H   0  0  0  0  0  0  0  0  0  0  0  0
   -3.9214   -3.3297    0.4087 H   0  0  0  0  0  0  0  0  0  0  0  0
   -5.6545   -1.5729    0.4314 H   0  0  0  0  0  0  0  0  0  0  0  0
   -5.8687    2.9077    0.2805 H   0  0  0  0  0  0  0  0  0  0  0  0
   -3.5455    3.8074    0.1320 H   0  0  0  0  0  0  0  0  0  0  0  0
   -1.6751    2.2400    0.0957 H   0  0  0  0  0  0  0  0  0  0  0  0
  1  2  3  0
  2  3  1  0
  3  4  2  3
  4  5  1  0
  5  6  2  0
  6  7  1  0
  7  8  2  0
  8  9  1  0
  3 10  1  0
 10 11  2  0
 10 12  1  0
 12 13  1  0
 13 14  2  0
 14 15  1  0
 15 16  2  0
 16 17  1  0
 17 18  2  0
 18 19  1  0
 19 20  2  0
 20 21  1  0
 21 22  2  0
  9  5  1  0
 22 13  1  0
 22 17  1  0
  4 23  1  0
  6 24  1  0
  7 25  1  0
  8 26  1  0
 12 27  1  0
 14 28  1  0
 15 29  1  0
 16 30  1  0
 19 31  1  0
 20 32  1  0
 21 33  1  0
M  END
$$$$
