
     RDKit          3D

 43 45  0  0  0  0  0  0  0  0999 V2000
    3.8383    2.0965   -2.8219 C   0  0  0  0  0  0  0  0  0  0  0  0
    4.7705    1.0904   -2.4430 O   0  0  0  0  0  0  0  0  0  0  0  0
    4.5187    0.4319   -1.2694 C   0  0  0  0  0  0  0  0  0  0  0  0
    5.5533   -0.3970   -0.8332 C   0  0  0  0  0  0  0  0  0  0  0  0
    5.4164   -1.1388    0.3377 C   0  0  0  0  0  0  0  0  0  0  0  0
    4.2406   -1.0476    1.0826 C   0  0  0  0  0  0  0  0  0  0  0  0
    3.2014   -0.2050    0.6705 C   0  0  0  0  0  0  0  0  0  0  0  0
    2.0277   -0.1966    1.4565 N   0  0  0  0  0  0  0  0  0  0  0  0
    1.0207    0.7532    1.5800 C   0  0  0  0  0  0  0  0  0  0  0  0
    1.2152    2.3935    1.2649 S   0  0  0  0  0  0  0  0  0  0  0  0
   -0.1654    0.1839    2.0953 N   0  0  0  0  0  0  0  0  0  0  0  0
   -1.3426    0.9974    2.4734 C   0  0  0  0  0  0  0  0  0  0  0  0
   -2.3823    1.0343    1.3351 C   0  0  0  0  0  0  0  0  0  0  0  0
   -2.7714   -0.3514    0.9630 N   0  0  0  0  0  0  0  0  0  0  0  0
   -3.7806   -0.3783   -0.0234 C   0  0  0  0  0  0  0  0  0  0  0  0
   -4.4336   -1.5808   -0.3056 C   0  0  0  0  0  0  0  0  0  0  0  0
   -5.4379   -1.6210   -1.2719 C   0  0  0  0  0  0  0  0  0  0  0  0
   -5.7801   -0.4558   -1.9381 C   0  0  0  0  0  0  0  0  0  0  0  0
   -5.1066    0.7008   -1.5962 C   0  0  0  0  0  0  0  0  0  0  0  0
   -4.1320    0.7595   -0.6609 N   0  0  0  0  0  0  0  0  0  0  0  0
   -1.6059   -1.1923    0.5975 C   0  0  0  0  0  0  0  0  0  0  0  0
   -0.5661   -1.1943    1.7421 C   0  0  0  0  0  0  0  0  0  0  0  0
    3.3383    0.5112   -0.5236 C   0  0  0  0  0  0  0  0  0  0  0  0
    4.2309    2.5973   -3.7120 H   0  0  0  0  0  0  0  0  0  0  0  0
    2.8730    1.6545   -3.0891 H   0  0  0  0  0  0  0  0  0  0  0  0
    3.7251    2.8522   -2.0372 H   0  0  0  0  0  0  0  0  0  0  0  0
    6.4696   -0.4657   -1.4143 H   0  0  0  0  0  0  0  0  0  0  0  0
    6.2252   -1.7845    0.6687 H   0  0  0  0  0  0  0  0  0  0  0  0
    4.1559   -1.6325    1.9945 H   0  0  0  0  0  0  0  0  0  0  0  0
    2.0112   -0.8707    2.2113 H   0  0  0  0  0  0  0  0  0  0  0  0
   -1.0569    2.0100    2.7689 H   0  0  0  0  0  0  0  0  0  0  0  0
   -1.7818    0.5225    3.3603 H   0  0  0  0  0  0  0  0  0  0  0  0
   -1.9551    1.5592    0.4707 H   0  0  0  0  0  0  0  0  0  0  0  0
   -3.2580    1.5923    1.6889 H   0  0  0  0  0  0  0  0  0  0  0  0
   -4.1829   -2.4829    0.2414 H   0  0  0  0  0  0  0  0  0  0  0  0
   -5.9492   -2.5532   -1.4914 H   0  0  0  0  0  0  0  0  0  0  0  0
   -6.5561   -0.4451   -2.6941 H   0  0  0  0  0  0  0  0  0  0  0  0
   -5.3377    1.6462   -2.0781 H   0  0  0  0  0  0  0  0  0  0  0  0
   -1.9039   -2.2311    0.4171 H   0  0  0  0  0  0  0  0  0  0  0  0
   -1.1399   -0.8069   -0.3192 H   0  0  0  0  0  0  0  0  0  0  0  0
    0.2850   -1.8097    1.4409 H   0  0  0  0  0  0  0  0  0  0  0  0
   -0.9991   -1.6456    2.6430 H   0  0  0  0  0  0  0  0  0  0  0  0
    2.5082    1.1000   -0.8912 H   0  0  0  0  0  0  0  0  0  0  0  0
  1  2  1  0
  2  3  1  0
  3  4  2  0
  4  5  1  0
  5  6  2  0
  6  7  1  0
  7  8  1  0
  8  9  1  0
  9 10  2  0
  9 11  1  0
 11 12  1  0
 12 13  1  0
 13 14  1  0
 14 15  1  0
 15 16  2  0
 16 17  1  0
 17 18  2  0
 18 19  1  0
 19 20  2  0
 14 21  1  0
 21 22  1  0
  7 23  2  0
 23  3  1  0
 22 11  1  0
 20 15  1  0
  1 24  1  0
  1 25  1  0
  1 26  1  0
  4 27  1  0
  5 28  1  0
  6 29  1  0
  8 30  1  0
 12 31  1  0
 12 32  1  0
 13 33  1  0
 13 34  1  0
 16 35  1  0
 17 36  1  0
 18 37  1  0
 19 38  1  0
 21 39  1  0
 21 40  1  0
 22 41  1  0
 22 42  1  0
 23 43  1  0
M  END
$$$$
