
     RDKit          3D

 51 54  0  0  0  0  0  0  0  0999 V2000
    4.0432   -1.8108   -0.3287 C   0  0  0  0  0  0  0  0  0  0  0  0
    2.8290   -1.0875   -0.9197 C   0  0  0  0  0  0  0  0  0  0  0  0
    1.6701   -2.0810   -1.1545 C   0  0  0  0  0  0  0  0  0  0  0  0
    0.7436   -1.7418   -0.0316 C   0  0  0  0  0  0  0  0  0  0  0  0
   -0.3983   -2.4333    0.3476 C   0  0  0  0  0  0  0  0  0  0  0  0
   -1.1647   -1.9016    1.3875 C   0  0  0  0  0  0  0  0  0  0  0  0
   -2.6479   -2.7271    1.9056 S   0  0  0  0  0  6  0  0  0  0  0  0
   -2.6089   -2.8282    3.3467 O   0  0  0  0  0  0  0  0  0  0  0  0
   -2.8601   -3.8824    1.0619 O   0  0  0  0  0  0  0  0  0  0  0  0
   -3.8163   -1.5987    1.5312 N   0  0  0  0  0  0  0  0  0  0  0  0
   -4.2876   -1.5050    0.1570 C   0  0  0  0  0  0  0  0  0  0  0  0
   -4.8987   -0.1513   -0.1050 C   0  0  0  0  0  0  0  0  0  0  0  0
   -4.0800    0.9849   -0.1962 C   0  0  0  0  0  0  0  0  0  0  0  0
   -4.6380    2.2434   -0.4237 C   0  0  0  0  0  0  0  0  0  0  0  0
   -6.0182    2.3799   -0.5585 C   0  0  0  0  0  0  0  0  0  0  0  0
   -6.8418    1.2594   -0.4629 C   0  0  0  0  0  0  0  0  0  0  0  0
   -6.2863   -0.0008   -0.2345 C   0  0  0  0  0  0  0  0  0  0  0  0
   -0.7925   -0.7079    2.0280 C   0  0  0  0  0  0  0  0  0  0  0  0
    0.3567   -0.0210    1.6217 C   0  0  0  0  0  0  0  0  0  0  0  0
    1.1209   -0.5482    0.5915 C   0  0  0  0  0  0  0  0  0  0  0  0
    2.3114   -0.0513    0.0124 N   0  0  0  0  0  0  0  0  0  0  0  0
    2.8927    1.1820    0.3090 C   0  0  0  0  0  0  0  0  0  0  0  0
    2.4063    1.9640    1.1382 O   0  0  0  0  0  0  0  0  0  0  0  0
    4.1893    1.5729   -0.4647 C   0  0  0  0  0  0  0  0  0  0  0  0
    5.4735    1.7939    0.3856 C   0  0  0  0  0  0  0  0  0  0  0  0
    5.8389    2.9400   -0.5756 C   0  0  0  0  0  0  0  0  0  0  0  0
    4.3361    3.0652   -0.8874 C   0  0  0  0  0  0  0  0  0  0  0  0
    3.7977   -2.2876    0.6268 H   0  0  0  0  0  0  0  0  0  0  0  0
    4.8725   -1.1236   -0.1437 H   0  0  0  0  0  0  0  0  0  0  0  0
    4.4002   -2.5864   -1.0143 H   0  0  0  0  0  0  0  0  0  0  0  0
    3.1091   -0.6223   -1.8705 H   0  0  0  0  0  0  0  0  0  0  0  0
    1.9886   -3.1273   -1.1322 H   0  0  0  0  0  0  0  0  0  0  0  0
    1.1736   -1.8712   -2.1084 H   0  0  0  0  0  0  0  0  0  0  0  0
   -0.6871   -3.3512   -0.1560 H   0  0  0  0  0  0  0  0  0  0  0  0
   -4.4593   -1.3735    2.2870 H   0  0  0  0  0  0  0  0  0  0  0  0
   -5.0305   -2.2911   -0.0198 H   0  0  0  0  0  0  0  0  0  0  0  0
   -3.4716   -1.6602   -0.5578 H   0  0  0  0  0  0  0  0  0  0  0  0
   -3.0012    0.8934   -0.0841 H   0  0  0  0  0  0  0  0  0  0  0  0
   -3.9954    3.1176   -0.4919 H   0  0  0  0  0  0  0  0  0  0  0  0
   -6.4524    3.3607   -0.7345 H   0  0  0  0  0  0  0  0  0  0  0  0
   -7.9187    1.3683   -0.5642 H   0  0  0  0  0  0  0  0  0  0  0  0
   -6.9454   -0.8629   -0.1581 H   0  0  0  0  0  0  0  0  0  0  0  0
   -1.3964   -0.3087    2.8407 H   0  0  0  0  0  0  0  0  0  0  0  0
    0.6293    0.8984    2.1288 H   0  0  0  0  0  0  0  0  0  0  0  0
    4.3998    0.9334   -1.3292 H   0  0  0  0  0  0  0  0  0  0  0  0
    5.2844    2.1233    1.4140 H   0  0  0  0  0  0  0  0  0  0  0  0
    6.1797    0.9599    0.4066 H   0  0  0  0  0  0  0  0  0  0  0  0
    6.4416    2.6206   -1.4336 H   0  0  0  0  0  0  0  0  0  0  0  0
    6.3053    3.8156   -0.1174 H   0  0  0  0  0  0  0  0  0  0  0  0
    4.0907    3.2873   -1.9295 H   0  0  0  0  0  0  0  0  0  0  0  0
    3.8130    3.7800   -0.2415 H   0  0  0  0  0  0  0  0  0  0  0  0
  1  2  1  0
  2  3  1  0
  3  4  1  0
  4  5  2  0
  5  6  1  0
  6  7  1  0
  7  8  2  0
  7  9  2  0
  7 10  1  0
 10 11  1  0
 11 12  1  0
 12 13  2  0
 13 14  1  0
 14 15  2  0
 15 16  1  0
 16 17  2  0
  6 18  2  0
 18 19  1  0
 19 20  2  0
 20 21  1  0
 21 22  1  0
 22 23  2  0
 22 24  1  0
 24 25  1  0
 25 26  1  0
 26 27  1  0
 21  2  1  0
 27 24  1  0
 20  4  1  0
 17 12  1  0
  1 28  1  0
  1 29  1  0
  1 30  1  0
  2 31  1  0
  3 32  1  0
  3 33  1  0
  5 34  1  0
 10 35  1  0
 11 36  1  0
 11 37  1  0
 13 38  1  0
 14 39  1  0
 15 40  1  0
 16 41  1  0
 17 42  1  0
 18 43  1  0
 19 44  1  0
 24 45  1  0
 25 46  1  0
 25 47  1  0
 26 48  1  0
 26 49  1  0
 27 50  1  0
 27 51  1  0
M  END
$$$$
