
     RDKit          3D

 52 55  0  0  0  0  0  0  0  0999 V2000
   -6.8779   -1.7439    0.7852 C   0  0  0  0  0  0  0  0  0  0  0  0
   -5.6517   -1.0011    0.2753 C   0  0  0  0  0  0  0  0  0  0  0  0
   -5.4129    0.2882    1.0682 C   0  0  0  0  0  0  0  0  0  0  0  0
   -4.1932    1.0786    0.5750 C   0  0  0  0  0  0  0  0  0  0  0  0
   -2.8836    0.4831    0.9711 C   0  0  0  0  0  0  0  0  0  0  0  0
   -2.7397   -0.6114    1.6997 N   0  0  0  0  0  0  0  0  0  0  0  0
   -1.4069   -0.8552    1.8746 N   0  0  0  0  0  0  0  0  0  0  0  0
   -0.7483    0.0900    1.2446 C   0  0  0  0  0  0  0  0  0  0  0  0
    0.6740    0.2713    1.1332 C   0  0  0  0  0  0  0  0  0  0  0  0
    1.5337   -0.6835    1.7404 N   0  0  0  0  0  0  0  0  0  0  0  0
    1.1450   -2.0912    1.9816 C   0  0  0  0  0  0  0  0  0  0  0  0
    3.1524   -0.3182    2.1068 S   0  0  0  0  0  6  0  0  0  0  0  0
    3.3435    1.1113    2.2301 O   0  0  0  0  0  0  0  0  0  0  0  0
    3.5762   -1.1923    3.1856 O   0  0  0  0  0  0  0  0  0  0  0  0
    3.9987   -0.8518    0.6314 C   0  0  0  0  0  0  0  0  0  0  0  0
    4.1296    0.0300   -0.4441 C   0  0  0  0  0  0  0  0  0  0  0  0
    4.8144   -0.3764   -1.5913 C   0  0  0  0  0  0  0  0  0  0  0  0
    5.3727   -1.6595   -1.6676 C   0  0  0  0  0  0  0  0  0  0  0  0
    6.1416   -2.0825   -2.8850 C   0  0  0  0  0  0  0  0  0  0  0  0
    5.2645   -2.5217   -0.5675 C   0  0  0  0  0  0  0  0  0  0  0  0
    4.5827   -2.1205    0.5829 C   0  0  0  0  0  0  0  0  0  0  0  0
    1.1479    1.2801    0.4732 N   0  0  0  0  0  0  0  0  0  0  0  0
    0.2614    2.2087   -0.1101 C   0  0  0  0  0  0  0  0  0  0  0  0
    0.8217    3.2972   -0.7821 C   0  0  0  0  0  0  0  0  0  0  0  0
    0.0083    4.2545   -1.3870 C   0  0  0  0  0  0  0  0  0  0  0  0
   -1.3776    4.1293   -1.3226 C   0  0  0  0  0  0  0  0  0  0  0  0
   -1.9609    3.0504   -0.6523 C   0  0  0  0  0  0  0  0  0  0  0  0
   -1.1441    2.0931   -0.0466 C   0  0  0  0  0  0  0  0  0  0  0  0
   -1.6265    0.9746    0.6650 N   0  0  0  0  0  0  0  0  0  0  0  0
   -7.7778   -1.1280    0.6906 H   0  0  0  0  0  0  0  0  0  0  0  0
   -6.7591   -2.0200    1.8378 H   0  0  0  0  0  0  0  0  0  0  0  0
   -7.0332   -2.6616    0.2091 H   0  0  0  0  0  0  0  0  0  0  0  0
   -4.7829   -1.6643    0.3443 H   0  0  0  0  0  0  0  0  0  0  0  0
   -5.7925   -0.7634   -0.7860 H   0  0  0  0  0  0  0  0  0  0  0  0
   -6.2989    0.9273    0.9626 H   0  0  0  0  0  0  0  0  0  0  0  0
   -5.3150    0.0616    2.1374 H   0  0  0  0  0  0  0  0  0  0  0  0
   -4.2482    1.1692   -0.5156 H   0  0  0  0  0  0  0  0  0  0  0  0
   -4.2571    2.0839    1.0082 H   0  0  0  0  0  0  0  0  0  0  0  0
    0.5267   -2.4617    1.1577 H   0  0  0  0  0  0  0  0  0  0  0  0
    0.5972   -2.1708    2.9246 H   0  0  0  0  0  0  0  0  0  0  0  0
    2.0050   -2.7637    2.0317 H   0  0  0  0  0  0  0  0  0  0  0  0
    3.7093    1.0324   -0.3936 H   0  0  0  0  0  0  0  0  0  0  0  0
    4.9166    0.3185   -2.4229 H   0  0  0  0  0  0  0  0  0  0  0  0
    5.7970   -1.5451   -3.7746 H   0  0  0  0  0  0  0  0  0  0  0  0
    6.0047   -3.1520   -3.0774 H   0  0  0  0  0  0  0  0  0  0  0  0
    7.2078   -1.8803   -2.7424 H   0  0  0  0  0  0  0  0  0  0  0  0
    5.7212   -3.5092   -0.5983 H   0  0  0  0  0  0  0  0  0  0  0  0
    4.5222   -2.7962    1.4332 H   0  0  0  0  0  0  0  0  0  0  0  0
    1.9034    3.4005   -0.8260 H   0  0  0  0  0  0  0  0  0  0  0  0
    0.4577    5.0987   -1.9041 H   0  0  0  0  0  0  0  0  0  0  0  0
   -2.0079    4.8808   -1.7942 H   0  0  0  0  0  0  0  0  0  0  0  0
   -3.0411    3.0125   -0.6318 H   0  0  0  0  0  0  0  0  0  0  0  0
  1  2  1  0
  2  3  1  0
  3  4  1  0
  4  5  1  0
  5  6  2  0
  6  7  1  0
  7  8  2  0
  8  9  1  0
  9 10  1  0
 10 11  1  0
 10 12  1  0
 12 13  2  0
 12 14  2  0
 12 15  1  0
 15 16  2  0
 16 17  1  0
 17 18  2  0
 18 19  1  0
 18 20  1  0
 20 21  2  0
  9 22  2  0
 22 23  1  0
 23 24  2  0
 24 25  1  0
 25 26  2  0
 26 27  1  0
 27 28  2  0
 28 29  1  0
 29  5  1  0
 29  8  1  0
 21 15  1  0
 28 23  1  0
  1 30  1  0
  1 31  1  0
  1 32  1  0
  2 33  1  0
  2 34  1  0
  3 35  1  0
  3 36  1  0
  4 37  1  0
  4 38  1  0
 11 39  1  0
 11 40  1  0
 11 41  1  0
 16 42  1  0
 17 43  1  0
 19 44  1  0
 19 45  1  0
 19 46  1  0
 20 47  1  0
 21 48  1  0
 24 49  1  0
 25 50  1  0
 26 51  1  0
 27 52  1  0
M  END
$$$$
