
     RDKit          3D

 52 56  0  0  0  0  0  0  0  0999 V2000
    0.8992   -0.0254    3.2232 O   0  0  0  0  0  0  0  0  0  0  0  0
    0.5672    0.1261    2.0520 C   0  0  0  0  0  0  0  0  0  0  0  0
    1.6205    0.4734    1.0818 C   0  0  0  0  0  0  0  0  0  0  0  0
    2.4812   -0.5523    0.6974 C   0  0  0  0  0  0  0  0  0  0  0  0
    3.4647   -0.2603   -0.2297 C   0  0  0  0  0  0  0  0  0  0  0  0
    4.4043   -1.2705   -0.7410 C   0  0  0  0  0  0  0  0  0  0  0  0
    4.4666   -1.4954   -2.1324 C   0  0  0  0  0  0  0  0  0  0  0  0
    5.3250   -2.4508   -2.6826 C   0  0  0  0  0  0  0  0  0  0  0  0
    6.1498   -3.2016   -1.8526 C   0  0  0  0  0  0  0  0  0  0  0  0
    6.1217   -2.9893   -0.4757 C   0  0  0  0  0  0  0  0  0  0  0  0
    5.2619   -2.0303    0.0774 C   0  0  0  0  0  0  0  0  0  0  0  0
    5.3439   -1.8095    1.7932 Cl  0  0  0  0  0  0  0  0  0  0  0  0
    3.5852    0.9743   -0.7804 N   0  0  0  0  0  0  0  0  0  0  0  0
    2.7763    1.9673   -0.3751 C   0  0  0  0  0  0  0  0  0  0  0  0
    2.9527    3.2307   -0.9243 C   0  0  0  0  0  0  0  0  0  0  0  0
    2.1560    4.3175   -0.5528 C   0  0  0  0  0  0  0  0  0  0  0  0
    1.1590    4.1383    0.3950 C   0  0  0  0  0  0  0  0  0  0  0  0
    0.0751    5.5955    0.9122 Br  0  0  0  0  0  0  0  0  0  0  0  0
    0.9560    2.8843    0.9633 C   0  0  0  0  0  0  0  0  0  0  0  0
    1.7582    1.7814    0.5769 C   0  0  0  0  0  0  0  0  0  0  0  0
   -0.7327   -0.0172    1.5889 N   0  0  0  0  0  0  0  0  0  0  0  0
   -1.1535    0.0527    0.1823 C   0  0  0  0  0  0  0  0  0  0  0  0
   -2.3515   -0.8639   -0.1398 C   0  0  0  0  0  0  0  0  0  0  0  0
   -3.4726   -0.6803    0.7964 N   0  0  0  0  0  0  0  0  0  0  0  0
   -4.7523   -0.5128    0.2724 C   0  0  0  0  0  0  0  0  0  0  0  0
   -5.2004   -1.3011   -0.7900 C   0  0  0  0  0  0  0  0  0  0  0  0
   -6.4900   -1.1337   -1.2947 C   0  0  0  0  0  0  0  0  0  0  0  0
   -7.3209   -0.1845   -0.7236 C   0  0  0  0  0  0  0  0  0  0  0  0
   -6.8220    0.5489    0.3345 C   0  0  0  0  0  0  0  0  0  0  0  0
   -5.5750    0.3996    0.8361 N   0  0  0  0  0  0  0  0  0  0  0  0
   -3.1922    0.0626    2.0369 C   0  0  0  0  0  0  0  0  0  0  0  0
   -1.7919   -0.2823    2.5680 C   0  0  0  0  0  0  0  0  0  0  0  0
    2.3705   -1.5490    1.1128 H   0  0  0  0  0  0  0  0  0  0  0  0
    3.8350   -0.9102   -2.8003 H   0  0  0  0  0  0  0  0  0  0  0  0
    5.3508   -2.6013   -3.7592 H   0  0  0  0  0  0  0  0  0  0  0  0
    6.8226   -3.9431   -2.2763 H   0  0  0  0  0  0  0  0  0  0  0  0
    6.7819   -3.5683    0.1661 H   0  0  0  0  0  0  0  0  0  0  0  0
    3.7403    3.3763   -1.6612 H   0  0  0  0  0  0  0  0  0  0  0  0
    2.3307    5.2902   -1.0051 H   0  0  0  0  0  0  0  0  0  0  0  0
    0.1781    2.7603    1.7145 H   0  0  0  0  0  0  0  0  0  0  0  0
   -1.4295    1.0966   -0.0097 H   0  0  0  0  0  0  0  0  0  0  0  0
   -0.3200   -0.1972   -0.4802 H   0  0  0  0  0  0  0  0  0  0  0  0
   -2.6409   -0.6731   -1.1803 H   0  0  0  0  0  0  0  0  0  0  0  0
   -2.0289   -1.9100   -0.0748 H   0  0  0  0  0  0  0  0  0  0  0  0
   -4.5631   -2.0685   -1.2154 H   0  0  0  0  0  0  0  0  0  0  0  0
   -6.8395   -1.7493   -2.1181 H   0  0  0  0  0  0  0  0  0  0  0  0
   -8.3304   -0.0268   -1.0842 H   0  0  0  0  0  0  0  0  0  0  0  0
   -7.4287    1.3016    0.8294 H   0  0  0  0  0  0  0  0  0  0  0  0
   -3.2482    1.1436    1.8518 H   0  0  0  0  0  0  0  0  0  0  0  0
   -3.9269   -0.1946    2.8098 H   0  0  0  0  0  0  0  0  0  0  0  0
   -1.5888    0.2812    3.4856 H   0  0  0  0  0  0  0  0  0  0  0  0
   -1.7342   -1.3498    2.8139 H   0  0  0  0  0  0  0  0  0  0  0  0
  1  2  2  0
  2  3  1  0
  3  4  2  0
  4  5  1  0
  5  6  1  0
  6  7  2  0
  7  8  1  0
  8  9  2  0
  9 10  1  0
 10 11  2  0
 11 12  1  0
  5 13  2  0
 13 14  1  0
 14 15  2  0
 15 16  1  0
 16 17  2  0
 17 18  1  0
 17 19  1  0
 19 20  2  0
  2 21  1  0
 21 22  1  0
 22 23  1  0
 23 24  1  0
 24 25  1  0
 25 26  2  0
 26 27  1  0
 27 28  2  0
 28 29  1  0
 29 30  2  0
 24 31  1  0
 31 32  1  0
 20  3  1  0
 32 21  1  0
 11  6  1  0
 20 14  1  0
 30 25  1  0
  4 33  1  0
  7 34  1  0
  8 35  1  0
  9 36  1  0
 10 37  1  0
 15 38  1  0
 16 39  1  0
 19 40  1  0
 22 41  1  0
 22 42  1  0
 23 43  1  0
 23 44  1  0
 26 45  1  0
 27 46  1  0
 28 47  1  0
 29 48  1  0
 31 49  1  0
 31 50  1  0
 32 51  1  0
 32 52  1  0
M  END
$$$$
