
     RDKit          3D

 55 58  0  0  0  0  0  0  0  0999 V2000
   -3.6840   -4.8820    1.3122 C   0  0  0  0  0  0  0  0  0  0  0  0
   -3.9541   -3.6529    2.0562 N   0  0  0  0  0  0  0  0  0  0  0  0
   -5.2513   -3.5851    2.7257 C   0  0  0  0  0  0  0  0  0  0  0  0
   -3.3148   -2.4702    1.6758 C   0  0  0  0  0  0  0  0  0  0  0  0
   -2.2171   -2.4581    0.8032 C   0  0  0  0  0  0  0  0  0  0  0  0
   -1.5656   -1.2705    0.4302 C   0  0  0  0  0  0  0  0  0  0  0  0
   -1.9733   -0.0249    0.9153 C   0  0  0  0  0  0  0  0  0  0  0  0
   -1.3164    1.1508    0.5005 N   0  0  0  0  0  0  0  0  0  0  0  0
    0.0618    1.3074    0.6704 C   0  0  0  0  0  0  0  0  0  0  0  0
    0.9111    0.3804    0.9697 N   0  0  0  0  0  0  0  0  0  0  0  0
    2.2255    0.7120    1.1603 C   0  0  0  0  0  0  0  0  0  0  0  0
    2.6456    1.2605    2.1729 O   0  0  0  0  0  0  0  0  0  0  0  0
    3.1295    0.2601    0.0319 C   0  0  0  0  0  0  0  0  0  0  0  0
    4.5132    0.8917    0.1383 C   0  0  0  0  0  0  0  0  0  0  0  0
    5.3869    0.4999   -1.0275 C   0  0  0  0  0  0  0  0  0  0  0  0
    5.4533    1.3092   -2.1694 C   0  0  0  0  0  0  0  0  0  0  0  0
    6.2447    0.9342   -3.2561 C   0  0  0  0  0  0  0  0  0  0  0  0
    6.9727   -0.2534   -3.2129 C   0  0  0  0  0  0  0  0  0  0  0  0
    6.9098   -1.0675   -2.0834 C   0  0  0  0  0  0  0  0  0  0  0  0
    6.1193   -0.6943   -0.9956 C   0  0  0  0  0  0  0  0  0  0  0  0
    0.5188    3.0049    0.3871 S   0  0  0  0  0  0  0  0  0  0  0  0
   -1.1313    3.4437   -0.2104 C   0  0  0  0  0  0  0  0  0  0  0  0
   -1.2156    3.2778   -1.7168 C   0  0  0  0  0  0  0  0  0  0  0  0
   -2.9490    3.0593   -1.9987 S   0  0  0  0  0  6  0  0  0  0  0  0
   -3.5562    4.3731   -2.0614 O   0  0  0  0  0  0  0  0  0  0  0  0
   -3.1368    2.0703   -3.0369 O   0  0  0  0  0  0  0  0  0  0  0  0
   -3.3455    2.3491   -0.4196 C   0  0  0  0  0  0  0  0  0  0  0  0
   -2.0756    2.4151    0.4320 C   0  0  0  0  0  0  0  0  0  0  0  0
   -3.0504   -0.0241    1.8059 C   0  0  0  0  0  0  0  0  0  0  0  0
   -3.6977   -1.2167    2.1764 C   0  0  0  0  0  0  0  0  0  0  0  0
   -4.2555   -5.7262    1.7142 H   0  0  0  0  0  0  0  0  0  0  0  0
   -3.9573   -4.7719    0.2569 H   0  0  0  0  0  0  0  0  0  0  0  0
   -2.6300   -5.1679    1.3931 H   0  0  0  0  0  0  0  0  0  0  0  0
   -5.9940   -3.0816    2.0964 H   0  0  0  0  0  0  0  0  0  0  0  0
   -5.1727   -3.0672    3.6880 H   0  0  0  0  0  0  0  0  0  0  0  0
   -5.6365   -4.5855    2.9539 H   0  0  0  0  0  0  0  0  0  0  0  0
   -1.8245   -3.3792    0.3837 H   0  0  0  0  0  0  0  0  0  0  0  0
   -0.7294   -1.3416   -0.2623 H   0  0  0  0  0  0  0  0  0  0  0  0
    2.6612    0.5368   -0.9205 H   0  0  0  0  0  0  0  0  0  0  0  0
    3.1975   -0.8335    0.0687 H   0  0  0  0  0  0  0  0  0  0  0  0
    5.0017    0.5928    1.0750 H   0  0  0  0  0  0  0  0  0  0  0  0
    4.4312    1.9856    0.1847 H   0  0  0  0  0  0  0  0  0  0  0  0
    4.8907    2.2386   -2.2185 H   0  0  0  0  0  0  0  0  0  0  0  0
    6.2941    1.5695   -4.1366 H   0  0  0  0  0  0  0  0  0  0  0  0
    7.5897   -0.5442   -4.0589 H   0  0  0  0  0  0  0  0  0  0  0  0
    7.4774   -1.9937   -2.0490 H   0  0  0  0  0  0  0  0  0  0  0  0
    6.0794   -1.3403   -0.1212 H   0  0  0  0  0  0  0  0  0  0  0  0
   -1.4017    4.4628    0.0870 H   0  0  0  0  0  0  0  0  0  0  0  0
   -0.8637    4.1560   -2.2636 H   0  0  0  0  0  0  0  0  0  0  0  0
   -0.7102    2.3811   -2.0907 H   0  0  0  0  0  0  0  0  0  0  0  0
   -4.1329    2.9698    0.0197 H   0  0  0  0  0  0  0  0  0  0  0  0
   -3.7345    1.3427   -0.5857 H   0  0  0  0  0  0  0  0  0  0  0  0
   -2.3239    2.7325    1.4538 H   0  0  0  0  0  0  0  0  0  0  0  0
   -3.4016    0.8941    2.2669 H   0  0  0  0  0  0  0  0  0  0  0  0
   -4.5119   -1.1291    2.8897 H   0  0  0  0  0  0  0  0  0  0  0  0
  1  2  1  0
  2  3  1  0
  2  4  1  0
  4  5  2  0
  5  6  1  0
  6  7  2  0
  7  8  1  0
  8  9  1  0
  9 10  2  3
 10 11  1  0
 11 12  2  0
 11 13  1  0
 13 14  1  0
 14 15  1  0
 15 16  2  0
 16 17  1  0
 17 18  2  0
 18 19  1  0
 19 20  2  0
  9 21  1  0
 21 22  1  0
 22 23  1  0
 23 24  1  0
 24 25  2  0
 24 26  2  0
 24 27  1  0
 27 28  1  0
  7 29  1  0
 29 30  2  0
 30  4  1  0
 28  8  1  0
 20 15  1  0
 28 22  1  0
  1 31  1  0
  1 32  1  0
  1 33  1  0
  3 34  1  0
  3 35  1  0
  3 36  1  0
  5 37  1  0
  6 38  1  0
 13 39  1  0
 13 40  1  0
 14 41  1  0
 14 42  1  0
 16 43  1  0
 17 44  1  0
 18 45  1  0
 19 46  1  0
 20 47  1  0
 22 48  1  0
 23 49  1  0
 23 50  1  0
 27 51  1  0
 27 52  1  0
 28 53  1  0
 29 54  1  0
 30 55  1  0
M  END
$$$$
