
     RDKit          3D

 48 50  0  0  0  0  0  0  0  0999 V2000
   -3.1007    2.7616   -3.1548 C   0  0  0  0  0  0  0  0  0  0  0  0
   -2.4226    1.5108   -3.6802 C   0  0  0  0  0  0  0  0  0  0  0  0
   -1.5631    0.9563   -2.6715 O   0  0  0  0  0  0  0  0  0  0  0  0
   -2.1495    0.0965   -1.7834 C   0  0  0  0  0  0  0  0  0  0  0  0
   -3.3351   -0.2067   -1.8266 O   0  0  0  0  0  0  0  0  0  0  0  0
   -1.2131   -0.4255   -0.7724 C   0  0  0  0  0  0  0  0  0  0  0  0
    0.1569   -0.1565   -0.7446 C   0  0  0  0  0  0  0  0  0  0  0  0
    0.8598    0.6400   -1.6402 N   0  0  0  0  0  0  0  0  0  0  0  0
    2.1725    1.0196   -1.7735 C   0  0  0  0  0  0  0  0  0  0  0  0
    2.4516    2.0436   -3.0719 S   0  0  0  0  0  0  0  0  0  0  0  0
    3.0753    0.5138   -0.8839 N   0  0  0  0  0  0  0  0  0  0  0  0
    4.4435    0.7588   -0.6260 C   0  0  0  0  0  0  0  0  0  0  0  0
    5.1891    1.8224   -1.1326 C   0  0  0  0  0  0  0  0  0  0  0  0
    6.5404    1.9740   -0.7957 C   0  0  0  0  0  0  0  0  0  0  0  0
    7.1599    1.0686    0.0608 C   0  0  0  0  0  0  0  0  0  0  0  0
    6.4262    0.0125    0.5887 C   0  0  0  0  0  0  0  0  0  0  0  0
    5.0781   -0.1367    0.2505 C   0  0  0  0  0  0  0  0  0  0  0  0
    0.9407   -0.9318    0.5457 S   0  0  0  0  0  0  0  0  0  0  0  0
   -0.4876   -1.6417    1.1046 C   0  0  0  0  0  0  0  0  0  0  0  0
   -1.5783   -1.2943    0.3354 C   0  0  0  0  0  0  0  0  0  0  0  0
   -2.9363   -1.8153    0.7182 C   0  0  0  0  0  0  0  0  0  0  0  0
   -3.2355   -1.6310    2.2276 C   0  0  0  0  0  0  0  0  0  0  0  0
   -3.3812   -0.1383    2.5763 C   0  0  0  0  0  0  0  0  0  0  0  0
   -4.5541   -2.3493    2.5616 C   0  0  0  0  0  0  0  0  0  0  0  0
   -1.9451   -2.3375    3.3696 S   0  0  0  0  0  0  0  0  0  0  0  0
   -0.4995   -2.5602    2.2787 C   0  0  0  0  0  0  0  0  0  0  0  0
   -2.3564    3.4889   -2.8144 H   0  0  0  0  0  0  0  0  0  0  0  0
   -3.7178    3.2238   -3.9308 H   0  0  0  0  0  0  0  0  0  0  0  0
   -3.7357    2.5327   -2.2934 H   0  0  0  0  0  0  0  0  0  0  0  0
   -3.1536    0.7737   -4.0325 H   0  0  0  0  0  0  0  0  0  0  0  0
   -1.7868    1.7680   -4.5335 H   0  0  0  0  0  0  0  0  0  0  0  0
    0.2781    1.0641   -2.3619 H   0  0  0  0  0  0  0  0  0  0  0  0
    2.6863   -0.2346   -0.3258 H   0  0  0  0  0  0  0  0  0  0  0  0
    4.7579    2.5797   -1.7742 H   0  0  0  0  0  0  0  0  0  0  0  0
    7.1044    2.8101   -1.2023 H   0  0  0  0  0  0  0  0  0  0  0  0
    8.2086    1.1910    0.3195 H   0  0  0  0  0  0  0  0  0  0  0  0
    6.8994   -0.6959    1.2634 H   0  0  0  0  0  0  0  0  0  0  0  0
    4.5328   -0.9741    0.6790 H   0  0  0  0  0  0  0  0  0  0  0  0
   -2.9792   -2.8806    0.4521 H   0  0  0  0  0  0  0  0  0  0  0  0
   -3.7302   -1.3284    0.1471 H   0  0  0  0  0  0  0  0  0  0  0  0
   -3.6819    0.0063    3.6210 H   0  0  0  0  0  0  0  0  0  0  0  0
   -2.4514    0.4191    2.4174 H   0  0  0  0  0  0  0  0  0  0  0  0
   -4.1522    0.3308    1.9535 H   0  0  0  0  0  0  0  0  0  0  0  0
   -4.8385   -2.2180    3.6123 H   0  0  0  0  0  0  0  0  0  0  0  0
   -5.3765   -1.9523    1.9545 H   0  0  0  0  0  0  0  0  0  0  0  0
   -4.4905   -3.4249    2.3586 H   0  0  0  0  0  0  0  0  0  0  0  0
    0.3957   -2.4356    2.8972 H   0  0  0  0  0  0  0  0  0  0  0  0
   -0.5051   -3.5974    1.9250 H   0  0  0  0  0  0  0  0  0  0  0  0
  1  2  1  0
  2  3  1  0
  3  4  1  0
  4  5  2  0
  4  6  1  0
  6  7  2  0
  7  8  1  0
  8  9  1  0
  9 10  2  0
  9 11  1  0
 11 12  1  0
 12 13  2  0
 13 14  1  0
 14 15  2  0
 15 16  1  0
 16 17  2  0
  7 18  1  0
 18 19  1  0
 19 20  2  0
 20 21  1  0
 21 22  1  0
 22 23  1  0
 22 24  1  0
 22 25  1  0
 25 26  1  0
 20  6  1  0
 17 12  1  0
 26 19  1  0
  1 27  1  0
  1 28  1  0
  1 29  1  0
  2 30  1  0
  2 31  1  0
  8 32  1  0
 11 33  1  0
 13 34  1  0
 14 35  1  0
 15 36  1  0
 16 37  1  0
 17 38  1  0
 21 39  1  0
 21 40  1  0
 23 41  1  0
 23 42  1  0
 23 43  1  0
 24 44  1  0
 24 45  1  0
 24 46  1  0
 26 47  1  0
 26 48  1  0
M  END
$$$$
