
     RDKit          3D

 32 34  0  0  0  0  0  0  0  0999 V2000
    6.0548    0.5976    0.1394 C   0  0  0  0  0  0  0  0  0  0  0  0
    4.7100    0.1211   -0.3212 C   0  0  0  0  0  0  0  0  0  0  0  0
    4.6154   -0.9683   -1.2072 C   0  0  0  0  0  0  0  0  0  0  0  0
    3.3772   -1.4648   -1.6412 C   0  0  0  0  0  0  0  0  0  0  0  0
    2.2418   -0.8269   -1.1381 C   0  0  0  0  0  0  0  0  0  0  0  0
    0.9011   -1.0385   -1.3357 N   0  0  0  0  0  0  0  0  0  0  0  0
    0.1930   -0.1213   -0.5761 C   0  0  0  0  0  0  0  0  0  0  0  0
   -1.2356   -0.1314   -0.5931 C   0  0  0  0  0  0  0  0  0  0  0  0
   -1.9510   -0.8445   -1.6094 C   0  0  0  0  0  0  0  0  0  0  0  0
   -2.4821   -1.4077   -2.4759 N   0  0  0  0  0  0  0  0  0  0  0  0
   -1.8732    0.5716    0.3646 C   0  0  0  0  0  0  0  0  0  0  0  0
   -3.2892    0.6371    0.4468 C   0  0  0  0  0  0  0  0  0  0  0  0
   -4.1776    1.4705   -0.2350 C   0  0  0  0  0  0  0  0  0  0  0  0
   -5.4927    1.1458    0.1831 C   0  0  0  0  0  0  0  0  0  0  0  0
   -5.3331    0.1311    1.0949 C   0  0  0  0  0  0  0  0  0  0  0  0
   -6.2766   -0.6235    1.8564 N   0  0  0  0  0  4  0  0  0  0  0  0
   -7.4738   -0.4006    1.6202 O   0  0  0  0  0  0  0  0  0  0  0  0
   -5.8372   -1.4223    2.6931 O   0  0  0  0  0  1  0  0  0  0  0  0
   -4.0225   -0.1829    1.2756 O   0  0  0  0  0  0  0  0  0  0  0  0
    1.0283    0.6640    0.0841 N   0  0  0  0  0  0  0  0  0  0  0  0
    2.2933    0.2427   -0.2494 C   0  0  0  0  0  0  0  0  0  0  0  0
    3.5404    0.7270    0.1746 C   0  0  0  0  0  0  0  0  0  0  0  0
    6.8003    0.4742   -0.6511 H   0  0  0  0  0  0  0  0  0  0  0  0
    6.3735    0.0289    1.0175 H   0  0  0  0  0  0  0  0  0  0  0  0
    6.0242    1.6620    0.3954 H   0  0  0  0  0  0  0  0  0  0  0  0
    5.5224   -1.4475   -1.5676 H   0  0  0  0  0  0  0  0  0  0  0  0
    3.3146   -2.3083   -2.3238 H   0  0  0  0  0  0  0  0  0  0  0  0
    0.5132   -1.7568   -1.9365 H   0  0  0  0  0  0  0  0  0  0  0  0
   -1.3156    1.1035    1.1296 H   0  0  0  0  0  0  0  0  0  0  0  0
   -3.8990    2.2244   -0.9643 H   0  0  0  0  0  0  0  0  0  0  0  0
   -6.4284    1.5827   -0.1462 H   0  0  0  0  0  0  0  0  0  0  0  0
    3.5839    1.5610    0.8745 H   0  0  0  0  0  0  0  0  0  0  0  0
  1  2  1  0
  2  3  2  0
  3  4  1  0
  4  5  2  0
  5  6  1  0
  6  7  1  0
  7  8  1  0
  8  9  1  0
  9 10  3  0
  8 11  2  3
 11 12  1  0
 12 13  2  0
 13 14  1  0
 14 15  2  0
 15 16  1  0
 16 17  2  0
 16 18  1  0
 15 19  1  0
  7 20  2  0
 20 21  1  0
 21 22  2  0
 22  2  1  0
 21  5  1  0
 19 12  1  0
  1 23  1  0
  1 24  1  0
  1 25  1  0
  3 26  1  0
  4 27  1  0
  6 28  1  0
 11 29  1  0
 13 30  1  0
 14 31  1  0
 22 32  1  0
M  CHG  2  16   1  18  -1
M  END
$$$$
