
     RDKit          3D

 61 64  0  0  0  0  0  0  0  0999 V2000
    9.0086   -1.6655    1.8693 C   0  0  0  0  0  0  0  0  0  0  0  0
    8.1116   -0.7171    1.1316 C   0  0  0  0  0  0  0  0  0  0  0  0
    7.4064    0.2706    1.8313 C   0  0  0  0  0  0  0  0  0  0  0  0
    6.5877    1.1751    1.1506 C   0  0  0  0  0  0  0  0  0  0  0  0
    6.4673    1.1137   -0.2447 C   0  0  0  0  0  0  0  0  0  0  0  0
    5.5762    2.0753   -0.9914 C   0  0  0  0  0  0  0  0  0  0  0  0
    4.3051    1.4668   -1.3304 N   0  0  0  0  0  0  0  0  0  0  0  0
    3.1924    1.4339   -0.4166 C   0  0  0  0  0  0  0  0  0  0  0  0
    2.2497    0.4092   -1.0322 C   0  0  0  0  0  0  0  0  0  0  0  0
    0.7953    0.7143   -0.7212 C   0  0  0  0  0  0  0  0  0  0  0  0
    0.4786    1.6288    0.0313 O   0  0  0  0  0  0  0  0  0  0  0  0
   -0.0735   -0.1744   -1.3361 N   0  0  0  0  0  0  0  0  0  0  0  0
   -1.4842   -0.1506   -1.3091 C   0  0  0  0  0  0  0  0  0  0  0  0
   -2.1525   -1.2124   -1.9375 C   0  0  0  0  0  0  0  0  0  0  0  0
   -3.5495   -1.2666   -1.9611 C   0  0  0  0  0  0  0  0  0  0  0  0
   -4.2828   -0.2444   -1.3596 C   0  0  0  0  0  0  0  0  0  0  0  0
   -6.0580   -0.2854   -1.3723 S   0  0  0  0  0  6  0  0  0  0  0  0
   -6.4839   -1.5677   -1.8970 O   0  0  0  0  0  0  0  0  0  0  0  0
   -6.5069    0.9545   -1.9680 O   0  0  0  0  0  0  0  0  0  0  0  0
   -6.4428   -0.2636    0.2950 N   0  0  0  0  0  0  0  0  0  0  0  0
   -5.9311   -1.4272    1.0838 C   0  0  0  0  0  0  0  0  0  0  0  0
   -6.7695   -1.7012    2.3331 C   0  0  0  0  0  0  0  0  0  0  0  0
   -7.2086   -0.4052    3.0002 C   0  0  0  0  0  0  0  0  0  0  0  0
   -7.9956    0.4896    2.0370 C   0  0  0  0  0  0  0  0  0  0  0  0
   -7.8609    0.0642    0.5752 C   0  0  0  0  0  0  0  0  0  0  0  0
   -3.6347    0.8272   -0.7437 C   0  0  0  0  0  0  0  0  0  0  0  0
   -2.2370    0.8689   -0.7166 C   0  0  0  0  0  0  0  0  0  0  0  0
    2.5621    0.4797   -2.5284 C   0  0  0  0  0  0  0  0  0  0  0  0
    3.9888    0.9598   -2.5724 C   0  0  0  0  0  0  0  0  0  0  0  0
    4.7098    0.9165   -3.5549 O   0  0  0  0  0  0  0  0  0  0  0  0
    7.1743    0.1233   -0.9429 C   0  0  0  0  0  0  0  0  0  0  0  0
    7.9943   -0.7791   -0.2614 C   0  0  0  0  0  0  0  0  0  0  0  0
    9.9193   -1.1488    2.1896 H   0  0  0  0  0  0  0  0  0  0  0  0
    8.4947   -2.0716    2.7484 H   0  0  0  0  0  0  0  0  0  0  0  0
    9.2962   -2.5125    1.2367 H   0  0  0  0  0  0  0  0  0  0  0  0
    7.4933    0.3427    2.9159 H   0  0  0  0  0  0  0  0  0  0  0  0
    6.0464    1.9294    1.7190 H   0  0  0  0  0  0  0  0  0  0  0  0
    6.0837    2.3957   -1.9102 H   0  0  0  0  0  0  0  0  0  0  0  0
    5.3837    2.9793   -0.4015 H   0  0  0  0  0  0  0  0  0  0  0  0
    3.5231    1.1299    0.5800 H   0  0  0  0  0  0  0  0  0  0  0  0
    2.7760    2.4452   -0.3654 H   0  0  0  0  0  0  0  0  0  0  0  0
    2.4923   -0.5885   -0.6451 H   0  0  0  0  0  0  0  0  0  0  0  0
    0.3410   -0.9517   -1.8371 H   0  0  0  0  0  0  0  0  0  0  0  0
   -1.5989   -2.0126   -2.4208 H   0  0  0  0  0  0  0  0  0  0  0  0
   -4.0489   -2.0980   -2.4526 H   0  0  0  0  0  0  0  0  0  0  0  0
   -5.8979   -2.3397    0.4774 H   0  0  0  0  0  0  0  0  0  0  0  0
   -4.9046   -1.1917    1.3919 H   0  0  0  0  0  0  0  0  0  0  0  0
   -7.6574   -2.2870    2.0599 H   0  0  0  0  0  0  0  0  0  0  0  0
   -6.1959   -2.3185    3.0354 H   0  0  0  0  0  0  0  0  0  0  0  0
   -6.3210    0.1373    3.3533 H   0  0  0  0  0  0  0  0  0  0  0  0
   -7.8133   -0.6187    3.8871 H   0  0  0  0  0  0  0  0  0  0  0  0
   -9.0583    0.4894    2.3093 H   0  0  0  0  0  0  0  0  0  0  0  0
   -7.6477    1.5251    2.1574 H   0  0  0  0  0  0  0  0  0  0  0  0
   -8.2071    0.8925   -0.0533 H   0  0  0  0  0  0  0  0  0  0  0  0
   -8.4960   -0.8034    0.3613 H   0  0  0  0  0  0  0  0  0  0  0  0
   -4.2079    1.6295   -0.2839 H   0  0  0  0  0  0  0  0  0  0  0  0
   -1.7687    1.7189   -0.2291 H   0  0  0  0  0  0  0  0  0  0  0  0
    1.9281    1.1970   -3.0595 H   0  0  0  0  0  0  0  0  0  0  0  0
    2.4807   -0.5045   -2.9989 H   0  0  0  0  0  0  0  0  0  0  0  0
    7.0882    0.0536   -2.0276 H   0  0  0  0  0  0  0  0  0  0  0  0
    8.5402   -1.5293   -0.8294 H   0  0  0  0  0  0  0  0  0  0  0  0
  1  2  1  0
  2  3  2  0
  3  4  1  0
  4  5  2  0
  5  6  1  0
  6  7  1  0
  7  8  1  0
  8  9  1  0
  9 10  1  0
 10 11  2  0
 10 12  1  0
 12 13  1  0
 13 14  2  0
 14 15  1  0
 15 16  2  0
 16 17  1  0
 17 18  2  0
 17 19  2  0
 17 20  1  0
 20 21  1  0
 21 22  1  0
 22 23  1  0
 23 24  1  0
 24 25  1  0
 16 26  1  0
 26 27  2  0
  9 28  1  0
 28 29  1  0
 29 30  2  0
  5 31  1  0
 31 32  2  0
 32  2  1  0
 29  7  1  0
 27 13  1  0
 25 20  1  0
  1 33  1  0
  1 34  1  0
  1 35  1  0
  3 36  1  0
  4 37  1  0
  6 38  1  0
  6 39  1  0
  8 40  1  0
  8 41  1  0
  9 42  1  0
 12 43  1  0
 14 44  1  0
 15 45  1  0
 21 46  1  0
 21 47  1  0
 22 48  1  0
 22 49  1  0
 23 50  1  0
 23 51  1  0
 24 52  1  0
 24 53  1  0
 25 54  1  0
 25 55  1  0
 26 56  1  0
 27 57  1  0
 28 58  1  0
 28 59  1  0
 31 60  1  0
 32 61  1  0
M  END
$$$$
