
     RDKit          3D

 59 62  0  0  0  0  0  0  0  0999 V2000
   -7.1836    1.0346   -2.6384 C   0  0  0  0  0  0  0  0  0  0  0  0
   -5.8945    0.5828   -2.2412 O   0  0  0  0  0  0  0  0  0  0  0  0
   -5.6344    0.5450   -0.9002 C   0  0  0  0  0  0  0  0  0  0  0  0
   -6.5095    0.9255    0.1134 C   0  0  0  0  0  0  0  0  0  0  0  0
   -6.1072    0.8291    1.4466 C   0  0  0  0  0  0  0  0  0  0  0  0
   -4.8256    0.3528    1.7695 C   0  0  0  0  0  0  0  0  0  0  0  0
   -4.3939    0.2403    3.0939 C   0  0  0  0  0  0  0  0  0  0  0  0
   -3.1099   -0.2356    3.3695 C   0  0  0  0  0  0  0  0  0  0  0  0
   -2.6985   -0.3680    4.7347 C   0  0  0  0  0  0  0  0  0  0  0  0
   -2.4097   -0.4393    5.8587 N   0  0  0  0  0  0  0  0  0  0  0  0
   -2.2746   -0.5894    2.3043 C   0  0  0  0  0  0  0  0  0  0  0  0
   -0.9588   -1.0433    2.5431 N   0  0  0  0  0  0  0  0  0  0  0  0
   -0.0536    0.1192    2.7437 C   0  0  0  0  0  0  0  0  0  0  0  0
    1.4135   -0.2608    2.4429 C   0  0  0  0  0  0  0  0  0  0  0  0
    1.6433   -0.6666    1.0292 N   0  0  0  0  0  0  0  0  0  0  0  0
    2.8304   -1.5298    0.9218 C   0  0  0  0  0  0  0  0  0  0  0  0
    4.0868   -0.8192    1.2873 C   0  0  0  0  0  0  0  0  0  0  0  0
    4.8037   -0.9772    2.3846 N   0  0  0  0  0  0  0  0  0  0  0  0
    5.8698   -0.1196    2.2740 N   0  0  0  0  0  0  0  0  0  0  0  0
    5.8213    0.5555    1.1330 N   0  0  0  0  0  0  0  0  0  0  0  0
    4.7043    0.1298    0.5189 N   0  0  0  0  0  0  0  0  0  0  0  0
    4.3259    0.6679   -0.7703 C   0  0  0  0  0  0  0  0  0  0  0  0
    4.9308   -0.1435   -1.9173 C   0  0  0  0  0  0  0  0  0  0  0  0
    4.5592    0.3430   -3.3295 C   0  0  0  0  0  0  0  0  0  0  0  0
    3.0574    0.2491   -3.6019 C   0  0  0  0  0  0  0  0  0  0  0  0
    5.0661    1.7593   -3.6060 C   0  0  0  0  0  0  0  0  0  0  0  0
    0.4377   -1.3321    0.4738 C   0  0  0  0  0  0  0  0  0  0  0  0
   -0.4738   -2.0046    1.5242 C   0  0  0  0  0  0  0  0  0  0  0  0
   -2.6963   -0.4882    1.0187 N   0  0  0  0  0  0  0  0  0  0  0  0
   -3.9336   -0.0304    0.7523 C   0  0  0  0  0  0  0  0  0  0  0  0
   -4.3589    0.0750   -0.5649 C   0  0  0  0  0  0  0  0  0  0  0  0
   -7.9724    0.3922   -2.2317 H   0  0  0  0  0  0  0  0  0  0  0  0
   -7.3368    2.0808   -2.3537 H   0  0  0  0  0  0  0  0  0  0  0  0
   -7.2376    0.9760   -3.7307 H   0  0  0  0  0  0  0  0  0  0  0  0
   -7.5077    1.2991   -0.0961 H   0  0  0  0  0  0  0  0  0  0  0  0
   -6.8022    1.1298    2.2308 H   0  0  0  0  0  0  0  0  0  0  0  0
   -5.0567    0.5183    3.9141 H   0  0  0  0  0  0  0  0  0  0  0  0
   -0.1212    0.4580    3.7841 H   0  0  0  0  0  0  0  0  0  0  0  0
   -0.3375    0.9645    2.1005 H   0  0  0  0  0  0  0  0  0  0  0  0
    1.6970   -1.0693    3.1302 H   0  0  0  0  0  0  0  0  0  0  0  0
    2.0512    0.6016    2.6695 H   0  0  0  0  0  0  0  0  0  0  0  0
    2.9364   -1.8814   -0.1121 H   0  0  0  0  0  0  0  0  0  0  0  0
    2.7214   -2.4284    1.5414 H   0  0  0  0  0  0  0  0  0  0  0  0
    3.2338    0.6803   -0.8171 H   0  0  0  0  0  0  0  0  0  0  0  0
    4.6672    1.7092   -0.7974 H   0  0  0  0  0  0  0  0  0  0  0  0
    6.0260   -0.1414   -1.8211 H   0  0  0  0  0  0  0  0  0  0  0  0
    4.6276   -1.1955   -1.8178 H   0  0  0  0  0  0  0  0  0  0  0  0
    5.0624   -0.3297   -4.0364 H   0  0  0  0  0  0  0  0  0  0  0  0
    2.8442    0.4665   -4.6537 H   0  0  0  0  0  0  0  0  0  0  0  0
    2.4884    0.9631   -2.9963 H   0  0  0  0  0  0  0  0  0  0  0  0
    2.6829   -0.7573   -3.3875 H   0  0  0  0  0  0  0  0  0  0  0  0
    4.9327    2.0146   -4.6635 H   0  0  0  0  0  0  0  0  0  0  0  0
    4.5254    2.5078   -3.0156 H   0  0  0  0  0  0  0  0  0  0  0  0
    6.1337    1.8449   -3.3728 H   0  0  0  0  0  0  0  0  0  0  0  0
    0.7106   -2.0653   -0.2948 H   0  0  0  0  0  0  0  0  0  0  0  0
   -0.1382   -0.5600   -0.0522 H   0  0  0  0  0  0  0  0  0  0  0  0
   -1.2931   -2.5444    1.0326 H   0  0  0  0  0  0  0  0  0  0  0  0
    0.1049   -2.7762    2.0500 H   0  0  0  0  0  0  0  0  0  0  0  0
   -3.6760   -0.2192   -1.3598 H   0  0  0  0  0  0  0  0  0  0  0  0
  1  2  1  0
  2  3  1  0
  3  4  2  0
  4  5  1  0
  5  6  2  0
  6  7  1  0
  7  8  2  0
  8  9  1  0
  9 10  3  0
  8 11  1  0
 11 12  1  0
 12 13  1  0
 13 14  1  0
 14 15  1  0
 15 16  1  0
 16 17  1  0
 17 18  2  0
 18 19  1  0
 19 20  2  0
 20 21  1  0
 21 22  1  0
 22 23  1  0
 23 24  1  0
 24 25  1  0
 24 26  1  0
 15 27  1  0
 27 28  1  0
 11 29  2  0
 29 30  1  0
 30 31  2  0
 31  3  1  0
 30  6  1  0
 28 12  1  0
 21 17  1  0
  1 32  1  0
  1 33  1  0
  1 34  1  0
  4 35  1  0
  5 36  1  0
  7 37  1  0
 13 38  1  0
 13 39  1  0
 14 40  1  0
 14 41  1  0
 16 42  1  0
 16 43  1  0
 22 44  1  0
 22 45  1  0
 23 46  1  0
 23 47  1  0
 24 48  1  0
 25 49  1  0
 25 50  1  0
 25 51  1  0
 26 52  1  0
 26 53  1  0
 26 54  1  0
 27 55  1  0
 27 56  1  0
 28 57  1  0
 28 58  1  0
 31 59  1  0
M  END
$$$$
