
     RDKit          3D

 37 40  0  0  0  0  0  0  0  0999 V2000
    2.6193    3.8281   -0.0296 O   0  0  0  0  0  0  0  0  0  0  0  0
    3.0310    2.6895    0.0591 C   0  0  0  0  0  0  0  0  0  0  0  0
    4.3276    2.2866    0.1260 O   0  0  0  0  0  0  0  0  0  0  0  0
    4.2924    0.9314    0.2156 C   0  0  0  0  0  0  0  0  0  0  0  0
    5.5775    0.3102    0.2968 C   0  0  0  0  0  0  0  0  0  0  0  0
    6.8614    0.8263    0.3019 C   0  0  0  0  0  0  0  0  0  0  0  0
    7.7457   -0.2753    0.4029 C   0  0  0  0  0  0  0  0  0  0  0  0
    6.9532   -1.3965    0.4535 C   0  0  0  0  0  0  0  0  0  0  0  0
    5.6417   -1.0544    0.3901 O   0  0  0  0  0  0  0  0  0  0  0  0
    3.1350    0.3530    0.2186 N   0  0  0  0  0  0  0  0  0  0  0  0
    2.2717    1.4116    0.1211 C   0  0  0  0  0  0  0  0  0  0  0  0
    0.9347    1.4159    0.0794 C   0  0  0  0  0  0  0  0  0  0  0  0
    0.1128    0.2563    0.1316 C   0  0  0  0  0  0  0  0  0  0  0  0
    0.4087   -1.0978    0.2311 C   0  0  0  0  0  0  0  0  0  0  0  0
   -0.8108   -1.8175    0.2416 C   0  0  0  0  0  0  0  0  0  0  0  0
   -1.8162   -0.8822    0.1483 C   0  0  0  0  0  0  0  0  0  0  0  0
   -3.2759   -0.9450    0.1076 C   0  0  0  0  0  0  0  0  0  0  0  0
   -3.9394   -2.1785    0.1743 C   0  0  0  0  0  0  0  0  0  0  0  0
   -5.3346   -2.2479    0.1405 C   0  0  0  0  0  0  0  0  0  0  0  0
   -6.0903   -1.0819    0.0368 C   0  0  0  0  0  0  0  0  0  0  0  0
   -5.4578    0.1658   -0.0411 C   0  0  0  0  0  0  0  0  0  0  0  0
   -6.2652    1.4365   -0.1308 C   0  0  0  0  0  0  0  0  0  0  0  0
   -7.5006    1.2492   -0.6754 F   0  0  0  0  0  0  0  0  0  0  0  0
   -6.4785    2.0020    1.0893 F   0  0  0  0  0  0  0  0  0  0  0  0
   -5.6692    2.3972   -0.8906 F   0  0  0  0  0  0  0  0  0  0  0  0
   -4.0528    0.2204    0.0029 C   0  0  0  0  0  0  0  0  0  0  0  0
   -1.2616    0.3617    0.0824 O   0  0  0  0  0  0  0  0  0  0  0  0
    7.1258    1.8735    0.2400 H   0  0  0  0  0  0  0  0  0  0  0  0
    8.8263   -0.2557    0.4350 H   0  0  0  0  0  0  0  0  0  0  0  0
    7.1563   -2.4560    0.5307 H   0  0  0  0  0  0  0  0  0  0  0  0
    0.4090    2.3649   -0.0004 H   0  0  0  0  0  0  0  0  0  0  0  0
    1.4006   -1.5255    0.2900 H   0  0  0  0  0  0  0  0  0  0  0  0
   -0.9295   -2.8891    0.3094 H   0  0  0  0  0  0  0  0  0  0  0  0
   -3.3781   -3.1062    0.2563 H   0  0  0  0  0  0  0  0  0  0  0  0
   -5.8305   -3.2142    0.1971 H   0  0  0  0  0  0  0  0  0  0  0  0
   -7.1772   -1.1495    0.0153 H   0  0  0  0  0  0  0  0  0  0  0  0
   -3.5624    1.1930   -0.0474 H   0  0  0  0  0  0  0  0  0  0  0  0
  1  2  2  0
  2  3  1  0
  3  4  1  0
  4  5  1  0
  5  6  2  0
  6  7  1  0
  7  8  2  0
  8  9  1  0
  4 10  2  0
 10 11  1  0
 11 12  2  3
 12 13  1  0
 13 14  2  0
 14 15  1  0
 15 16  2  0
 16 17  1  0
 17 18  2  0
 18 19  1  0
 19 20  2  0
 20 21  1  0
 21 22  1  0
 22 23  1  0
 22 24  1  0
 22 25  1  0
 21 26  2  0
 16 27  1  0
 11  2  1  0
 27 13  1  0
  9  5  1  0
 26 17  1  0
  6 28  1  0
  7 29  1  0
  8 30  1  0
 12 31  1  0
 14 32  1  0
 15 33  1  0
 18 34  1  0
 19 35  1  0
 20 36  1  0
 26 37  1  0
M  END
$$$$
