
     RDKit          3D

 59 63  0  0  0  0  0  0  0  0999 V2000
    4.6079   -4.9197    2.5568 C   0  0  0  0  0  0  0  0  0  0  0  0
    5.3137   -3.6860    2.5228 O   0  0  0  0  0  0  0  0  0  0  0  0
    4.9098   -2.7693    1.5919 C   0  0  0  0  0  0  0  0  0  0  0  0
    5.6148   -1.5642    1.6153 C   0  0  0  0  0  0  0  0  0  0  0  0
    5.3022   -0.5366    0.7207 C   0  0  0  0  0  0  0  0  0  0  0  0
    4.2765   -0.7020   -0.2175 C   0  0  0  0  0  0  0  0  0  0  0  0
    3.9239    0.3789   -1.1479 C   0  0  0  0  0  0  0  0  0  0  0  0
    5.1060    0.9037   -2.2695 S   0  0  0  0  0  0  0  0  0  0  0  0
    4.0576    2.0655   -2.9746 C   0  0  0  0  0  0  0  0  0  0  0  0
    4.3628    2.9434   -4.0344 C   0  0  0  0  0  0  0  0  0  0  0  0
    3.3857    3.8349   -4.4809 C   0  0  0  0  0  0  0  0  0  0  0  0
    2.1325    3.8581   -3.8884 C   0  0  0  0  0  0  0  0  0  0  0  0
    1.8345    2.9842   -2.8386 C   0  0  0  0  0  0  0  0  0  0  0  0
    2.8025    2.0598   -2.3637 C   0  0  0  0  0  0  0  0  0  0  0  0
    2.7312    1.0698   -1.3089 C   0  0  0  0  0  0  0  0  0  0  0  0
    1.5609    0.7947   -0.4795 C   0  0  0  0  0  0  0  0  0  0  0  0
    1.5756    1.0694    0.8901 C   0  0  0  0  0  0  0  0  0  0  0  0
    0.4476    0.7977    1.6686 C   0  0  0  0  0  0  0  0  0  0  0  0
   -0.7053    0.2542    1.0946 C   0  0  0  0  0  0  0  0  0  0  0  0
   -1.7299    0.0470    1.9750 O   0  0  0  0  0  0  0  0  0  0  0  0
   -2.9236   -0.5861    1.5051 C   0  0  0  0  0  0  0  0  0  0  0  0
   -3.9123    0.4558    0.9519 C   0  0  0  0  0  0  0  0  0  0  0  0
   -5.1361   -0.1272    0.3735 N   0  0  0  0  0  0  0  0  0  0  0  0
   -5.9269   -0.8675    1.3841 C   0  0  0  0  0  0  0  0  0  0  0  0
   -7.4150   -0.9475    1.0097 C   0  0  0  0  0  0  0  0  0  0  0  0
   -8.0414    0.3419    0.9664 O   0  0  0  0  0  0  0  0  0  0  0  0
   -7.1398    1.3928    0.5922 C   0  0  0  0  0  0  0  0  0  0  0  0
   -5.9725    0.9053   -0.2807 C   0  0  0  0  0  0  0  0  0  0  0  0
   -0.7229   -0.0108   -0.2747 C   0  0  0  0  0  0  0  0  0  0  0  0
    0.4057    0.2577   -1.0584 C   0  0  0  0  0  0  0  0  0  0  0  0
    3.5747   -1.9141   -0.2396 C   0  0  0  0  0  0  0  0  0  0  0  0
    3.8878   -2.9415    0.6592 C   0  0  0  0  0  0  0  0  0  0  0  0
    5.0395   -5.5295    3.3564 H   0  0  0  0  0  0  0  0  0  0  0  0
    4.7284   -5.4690    1.6172 H   0  0  0  0  0  0  0  0  0  0  0  0
    3.5498   -4.7638    2.7916 H   0  0  0  0  0  0  0  0  0  0  0  0
    6.4132   -1.4219    2.3394 H   0  0  0  0  0  0  0  0  0  0  0  0
    5.8618    0.3945    0.7696 H   0  0  0  0  0  0  0  0  0  0  0  0
    5.3457    2.9295   -4.4971 H   0  0  0  0  0  0  0  0  0  0  0  0
    3.6131    4.5168   -5.2968 H   0  0  0  0  0  0  0  0  0  0  0  0
    1.3779    4.5588   -4.2373 H   0  0  0  0  0  0  0  0  0  0  0  0
    0.8490    3.0202   -2.3799 H   0  0  0  0  0  0  0  0  0  0  0  0
    2.4596    1.4916    1.3618 H   0  0  0  0  0  0  0  0  0  0  0  0
    0.4700    1.0101    2.7349 H   0  0  0  0  0  0  0  0  0  0  0  0
   -2.7119   -1.3911    0.7919 H   0  0  0  0  0  0  0  0  0  0  0  0
   -3.3652   -1.0740    2.3817 H   0  0  0  0  0  0  0  0  0  0  0  0
   -3.3947    1.0340    0.1768 H   0  0  0  0  0  0  0  0  0  0  0  0
   -4.1548    1.1792    1.7420 H   0  0  0  0  0  0  0  0  0  0  0  0
   -5.8518   -0.3743    2.3625 H   0  0  0  0  0  0  0  0  0  0  0  0
   -5.5243   -1.8816    1.4826 H   0  0  0  0  0  0  0  0  0  0  0  0
   -7.5497   -1.4301    0.0345 H   0  0  0  0  0  0  0  0  0  0  0  0
   -7.9565   -1.5494    1.7464 H   0  0  0  0  0  0  0  0  0  0  0  0
   -7.7230    2.1457    0.0523 H   0  0  0  0  0  0  0  0  0  0  0  0
   -6.7681    1.8653    1.5088 H   0  0  0  0  0  0  0  0  0  0  0  0
   -5.3734    1.7586   -0.6195 H   0  0  0  0  0  0  0  0  0  0  0  0
   -6.3895    0.4473   -1.1870 H   0  0  0  0  0  0  0  0  0  0  0  0
   -1.5956   -0.4208   -0.7720 H   0  0  0  0  0  0  0  0  0  0  0  0
    0.3766    0.0399   -2.1240 H   0  0  0  0  0  0  0  0  0  0  0  0
    2.7737   -2.0691   -0.9591 H   0  0  0  0  0  0  0  0  0  0  0  0
    3.3122   -3.8590    0.6019 H   0  0  0  0  0  0  0  0  0  0  0  0
  1  2  1  0
  2  3  1  0
  3  4  2  0
  4  5  1  0
  5  6  2  0
  6  7  1  0
  7  8  1  0
  8  9  1  0
  9 10  2  0
 10 11  1  0
 11 12  2  0
 12 13  1  0
 13 14  2  0
 14 15  1  0
 15 16  1  0
 16 17  2  0
 17 18  1  0
 18 19  2  0
 19 20  1  0
 20 21  1  0
 21 22  1  0
 22 23  1  0
 23 24  1  0
 24 25  1  0
 25 26  1  0
 26 27  1  0
 27 28  1  0
 19 29  1  0
 29 30  2  0
  6 31  1  0
 31 32  2  0
 32  3  1  0
 15  7  2  0
 30 16  1  0
 14  9  1  0
 28 23  1  0
  1 33  1  0
  1 34  1  0
  1 35  1  0
  4 36  1  0
  5 37  1  0
 10 38  1  0
 11 39  1  0
 12 40  1  0
 13 41  1  0
 17 42  1  0
 18 43  1  0
 21 44  1  0
 21 45  1  0
 22 46  1  0
 22 47  1  0
 24 48  1  0
 24 49  1  0
 25 50  1  0
 25 51  1  0
 27 52  1  0
 27 53  1  0
 28 54  1  0
 28 55  1  0
 29 56  1  0
 30 57  1  0
 31 58  1  0
 32 59  1  0
M  END
$$$$
