
     RDKit          3D

 50 53  0  0  0  0  0  0  0  0999 V2000
  -10.1790    0.5709   -1.2322 C   0  0  0  0  0  0  0  0  0  0  0  0
   -8.7597    0.5414   -0.7414 C   0  0  0  0  0  0  0  0  0  0  0  0
   -8.4623    0.9285    0.5676 C   0  0  0  0  0  0  0  0  0  0  0  0
   -7.1494    0.8779    1.0505 C   0  0  0  0  0  0  0  0  0  0  0  0
   -6.1119    0.4219    0.2144 C   0  0  0  0  0  0  0  0  0  0  0  0
   -4.7759    0.3198    0.5594 N   0  0  0  0  0  0  0  0  0  0  0  0
   -4.0649   -0.1455   -0.4501 C   0  0  0  0  0  0  0  0  0  0  0  0
   -2.6040   -0.3691   -0.3858 C   0  0  0  0  0  0  0  0  0  0  0  0
   -1.9381   -0.1526    0.8315 C   0  0  0  0  0  0  0  0  0  0  0  0
   -0.5549   -0.3458    0.9598 C   0  0  0  0  0  0  0  0  0  0  0  0
    0.2032   -0.7615   -0.1314 C   0  0  0  0  0  0  0  0  0  0  0  0
    1.5960   -0.9789   -0.0935 N   0  0  0  0  0  0  0  0  0  0  0  0
    2.4407   -0.8393    0.9945 C   0  0  0  0  0  0  0  0  0  0  0  0
    2.1285   -0.4951    2.1277 O   0  0  0  0  0  0  0  0  0  0  0  0
    3.8779   -1.1461    0.6280 C   0  0  0  0  0  0  0  0  0  0  0  0
    4.7713   -1.1349    1.8572 C   0  0  0  0  0  0  0  0  0  0  0  0
    6.4746   -1.4409    1.4574 S   0  0  0  0  0  6  0  0  0  0  0  0
    6.5235   -2.5706    0.5471 O   0  0  0  0  0  0  0  0  0  0  0  0
    7.2379   -1.4519    2.6904 O   0  0  0  0  0  0  0  0  0  0  0  0
    6.9803    0.0047    0.5549 C   0  0  0  0  0  0  0  0  0  0  0  0
    7.2217   -0.0775   -0.8190 C   0  0  0  0  0  0  0  0  0  0  0  0
    7.6131    1.0668   -1.5137 C   0  0  0  0  0  0  0  0  0  0  0  0
    7.7692    2.2774   -0.8360 C   0  0  0  0  0  0  0  0  0  0  0  0
    7.5433    2.3485    0.5399 C   0  0  0  0  0  0  0  0  0  0  0  0
    7.1523    1.2095    1.2428 C   0  0  0  0  0  0  0  0  0  0  0  0
   -0.4456   -0.9793   -1.3512 C   0  0  0  0  0  0  0  0  0  0  0  0
   -1.8293   -0.7859   -1.4777 C   0  0  0  0  0  0  0  0  0  0  0  0
   -4.9832   -0.4875   -1.8679 S   0  0  0  0  0  0  0  0  0  0  0  0
   -6.4234    0.0250   -1.0836 C   0  0  0  0  0  0  0  0  0  0  0  0
   -7.7376    0.0702   -1.5809 C   0  0  0  0  0  0  0  0  0  0  0  0
  -10.7384    1.3852   -0.7597 H   0  0  0  0  0  0  0  0  0  0  0  0
  -10.2151    0.7376   -2.3139 H   0  0  0  0  0  0  0  0  0  0  0  0
  -10.6731   -0.3785   -1.0036 H   0  0  0  0  0  0  0  0  0  0  0  0
   -9.2521    1.2767    1.2306 H   0  0  0  0  0  0  0  0  0  0  0  0
   -6.9214    1.1844    2.0666 H   0  0  0  0  0  0  0  0  0  0  0  0
   -2.4989    0.1735    1.7075 H   0  0  0  0  0  0  0  0  0  0  0  0
   -0.1100   -0.1595    1.9322 H   0  0  0  0  0  0  0  0  0  0  0  0
    2.0167   -1.2823   -0.9633 H   0  0  0  0  0  0  0  0  0  0  0  0
    3.9145   -2.1281    0.1423 H   0  0  0  0  0  0  0  0  0  0  0  0
    4.2068   -0.3957   -0.0990 H   0  0  0  0  0  0  0  0  0  0  0  0
    4.4696   -1.9247    2.5547 H   0  0  0  0  0  0  0  0  0  0  0  0
    4.7202   -0.1834    2.3964 H   0  0  0  0  0  0  0  0  0  0  0  0
    7.1173   -1.0199   -1.3521 H   0  0  0  0  0  0  0  0  0  0  0  0
    7.8069    1.0150   -2.5826 H   0  0  0  0  0  0  0  0  0  0  0  0
    8.0809    3.1665   -1.3798 H   0  0  0  0  0  0  0  0  0  0  0  0
    7.6827    3.2910    1.0647 H   0  0  0  0  0  0  0  0  0  0  0  0
    6.9977    1.2671    2.3182 H   0  0  0  0  0  0  0  0  0  0  0  0
    0.1101   -1.3036   -2.2276 H   0  0  0  0  0  0  0  0  0  0  0  0
   -2.2769   -0.9685   -2.4512 H   0  0  0  0  0  0  0  0  0  0  0  0
   -7.9518   -0.2530   -2.5958 H   0  0  0  0  0  0  0  0  0  0  0  0
  1  2  1  0
  2  3  2  0
  3  4  1  0
  4  5  2  0
  5  6  1  0
  6  7  2  0
  7  8  1  0
  8  9  2  0
  9 10  1  0
 10 11  2  0
 11 12  1  0
 12 13  1  0
 13 14  2  0
 13 15  1  0
 15 16  1  0
 16 17  1  0
 17 18  2  0
 17 19  2  0
 17 20  1  0
 20 21  2  0
 21 22  1  0
 22 23  2  0
 23 24  1  0
 24 25  2  0
 11 26  1  0
 26 27  2  0
  7 28  1  0
 28 29  1  0
 29 30  2  0
 30  2  1  0
 29  5  1  0
 27  8  1  0
 25 20  1  0
  1 31  1  0
  1 32  1  0
  1 33  1  0
  3 34  1  0
  4 35  1  0
  9 36  1  0
 10 37  1  0
 12 38  1  0
 15 39  1  0
 15 40  1  0
 16 41  1  0
 16 42  1  0
 21 43  1  0
 22 44  1  0
 23 45  1  0
 24 46  1  0
 25 47  1  0
 26 48  1  0
 27 49  1  0
 30 50  1  0
M  END
$$$$
