
     RDKit          3D

 28 29  0  0  0  0  0  0  0  0999 V2000
   -0.8681   -2.1296    0.3452 O   0  0  0  0  0  0  0  0  0  0  0  0
   -1.5632   -1.1511    0.6131 C   0  0  0  0  0  0  0  0  0  0  0  0
   -3.0287   -1.3093    0.9380 C   0  0  0  0  0  0  0  0  0  0  0  0
   -3.8467   -0.7371   -0.1018 N   0  0  0  0  0  0  0  0  0  0  0  0
   -4.5613   -1.3795   -1.0583 C   0  0  0  0  0  0  0  0  0  0  0  0
   -5.1891   -0.4972   -1.7991 N   0  0  0  0  0  0  0  0  0  0  0  0
   -4.8264    0.6945   -1.2378 C   0  0  0  0  0  0  0  0  0  0  0  0
   -4.0155    0.5997   -0.1786 N   0  0  0  0  0  0  0  0  0  0  0  0
   -1.1346    0.1725    0.6985 N   0  0  0  0  0  0  0  0  0  0  0  0
    0.1183    0.6470    0.4244 N   0  0  0  0  0  0  0  0  0  0  0  0
    1.1447   -0.1300    0.5551 C   0  0  0  0  0  0  0  0  0  0  0  0
    2.5117    0.3477    0.2530 C   0  0  0  0  0  0  0  0  0  0  0  0
    3.5751   -0.5592    0.3335 C   0  0  0  0  0  0  0  0  0  0  0  0
    4.8780   -0.1315    0.0584 C   0  0  0  0  0  0  0  0  0  0  0  0
    5.1100    1.2003   -0.2830 C   0  0  0  0  0  0  0  0  0  0  0  0
    6.7140    1.7316   -0.6040 Cl  0  0  0  0  0  0  0  0  0  0  0  0
    4.0516    2.1062   -0.3622 C   0  0  0  0  0  0  0  0  0  0  0  0
    2.7492    1.6810   -0.0957 C   0  0  0  0  0  0  0  0  0  0  0  0
   -3.2790   -2.3706    1.0422 H   0  0  0  0  0  0  0  0  0  0  0  0
   -3.2652   -0.8083    1.8838 H   0  0  0  0  0  0  0  0  0  0  0  0
   -4.5965   -2.4545   -1.1696 H   0  0  0  0  0  0  0  0  0  0  0  0
   -5.1629    1.6546   -1.6090 H   0  0  0  0  0  0  0  0  0  0  0  0
   -1.8599    0.8916    0.6212 H   0  0  0  0  0  0  0  0  0  0  0  0
    1.0817   -1.1679    0.9144 H   0  0  0  0  0  0  0  0  0  0  0  0
    3.4000   -1.5984    0.6051 H   0  0  0  0  0  0  0  0  0  0  0  0
    5.7015   -0.8380    0.1163 H   0  0  0  0  0  0  0  0  0  0  0  0
    4.2334    3.1445   -0.6250 H   0  0  0  0  0  0  0  0  0  0  0  0
    1.9278    2.3910   -0.1550 H   0  0  0  0  0  0  0  0  0  0  0  0
  1  2  2  0
  2  3  1  0
  3  4  1  0
  4  5  1  0
  5  6  2  0
  6  7  1  0
  7  8  2  0
  2  9  1  0
  9 10  1  0
 10 11  2  3
 11 12  1  0
 12 13  2  0
 13 14  1  0
 14 15  2  0
 15 16  1  0
 15 17  1  0
 17 18  2  0
  8  4  1  0
 18 12  1  0
  3 19  1  0
  3 20  1  0
  5 21  1  0
  7 22  1  0
  9 23  1  0
 11 24  1  0
 13 25  1  0
 14 26  1  0
 17 27  1  0
 18 28  1  0
M  END
$$$$
