
     RDKit          3D

 43 45  0  0  0  0  0  0  0  0999 V2000
   -1.8838   -3.7479   -0.4811 N   0  0  0  0  0  0  0  0  0  0  0  0
   -0.7830   -2.9933   -0.3131 C   0  0  0  0  0  0  0  0  0  0  0  0
    0.2608   -3.4345    0.3251 N   0  0  0  0  0  0  0  0  0  0  0  0
    1.2232   -2.2971    0.2776 C   0  0  0  0  0  0  0  0  0  0  0  0
    0.6232   -1.2349   -0.6723 C   0  0  0  0  0  0  0  0  0  0  0  0
    0.6772    0.1789   -0.0812 C   0  0  0  0  0  0  0  0  0  0  0  0
    2.0834    0.7286   -0.0059 C   0  0  0  0  0  0  0  0  0  0  0  0
    2.7569    0.7984    1.2222 C   0  0  0  0  0  0  0  0  0  0  0  0
    4.0616    1.2927    1.2894 C   0  0  0  0  0  0  0  0  0  0  0  0
    4.6922    1.7196    0.1259 C   0  0  0  0  0  0  0  0  0  0  0  0
    5.9648    2.2083    0.1454 O   0  0  0  0  0  0  0  0  0  0  0  0
    4.0400    1.6615   -1.0991 C   0  0  0  0  0  0  0  0  0  0  0  0
    2.7367    1.1675   -1.1666 C   0  0  0  0  0  0  0  0  0  0  0  0
   -0.7440   -1.7351   -0.8215 N   0  0  0  0  0  0  0  0  0  0  0  0
   -1.6118   -1.1750   -1.8460 C   0  0  0  0  0  0  0  0  0  0  0  0
   -2.9955   -0.7884   -1.3035 C   0  0  0  0  0  0  0  0  0  0  0  0
   -2.9690    0.3737   -0.3392 C   0  0  0  0  0  0  0  0  0  0  0  0
   -2.8523    0.1451    1.0406 C   0  0  0  0  0  0  0  0  0  0  0  0
   -2.8077    1.2142    1.9391 C   0  0  0  0  0  0  0  0  0  0  0  0
   -2.8780    2.5226    1.4659 C   0  0  0  0  0  0  0  0  0  0  0  0
   -2.9921    2.7498    0.0997 C   0  0  0  0  0  0  0  0  0  0  0  0
   -3.0573    4.0078   -0.3564 F   0  0  0  0  0  0  0  0  0  0  0  0
   -3.0372    1.6929   -0.8046 C   0  0  0  0  0  0  0  0  0  0  0  0
   -1.7038   -4.6887   -0.1439 H   0  0  0  0  0  0  0  0  0  0  0  0
   -2.2207   -3.7745   -1.4319 H   0  0  0  0  0  0  0  0  0  0  0  0
    2.1922   -2.6469   -0.0937 H   0  0  0  0  0  0  0  0  0  0  0  0
    1.3610   -1.9230    1.2977 H   0  0  0  0  0  0  0  0  0  0  0  0
    1.1348   -1.2831   -1.6422 H   0  0  0  0  0  0  0  0  0  0  0  0
    0.0820    0.8714   -0.6885 H   0  0  0  0  0  0  0  0  0  0  0  0
    0.2156    0.1952    0.9142 H   0  0  0  0  0  0  0  0  0  0  0  0
    2.2688    0.4671    2.1367 H   0  0  0  0  0  0  0  0  0  0  0  0
    4.5632    1.3363    2.2509 H   0  0  0  0  0  0  0  0  0  0  0  0
    6.2863    2.1949    1.0617 H   0  0  0  0  0  0  0  0  0  0  0  0
    4.5443    2.0021   -1.9989 H   0  0  0  0  0  0  0  0  0  0  0  0
    2.2350    1.1325   -2.1309 H   0  0  0  0  0  0  0  0  0  0  0  0
   -1.1440   -0.2953   -2.3049 H   0  0  0  0  0  0  0  0  0  0  0  0
   -1.7316   -1.9052   -2.6556 H   0  0  0  0  0  0  0  0  0  0  0  0
   -3.4866   -1.6431   -0.8243 H   0  0  0  0  0  0  0  0  0  0  0  0
   -3.6413   -0.5206   -2.1501 H   0  0  0  0  0  0  0  0  0  0  0  0
   -2.7806   -0.8743    1.4193 H   0  0  0  0  0  0  0  0  0  0  0  0
   -2.7139    1.0228    3.0049 H   0  0  0  0  0  0  0  0  0  0  0  0
   -2.8434    3.3637    2.1504 H   0  0  0  0  0  0  0  0  0  0  0  0
   -3.1255    1.9133   -1.8639 H   0  0  0  0  0  0  0  0  0  0  0  0
  1  2  1  0
  2  3  2  0
  3  4  1  0
  4  5  1  0
  5  6  1  0
  6  7  1  0
  7  8  2  0
  8  9  1  0
  9 10  2  0
 10 11  1  0
 10 12  1  0
 12 13  2  0
  5 14  1  0
 14 15  1  0
 15 16  1  0
 16 17  1  0
 17 18  2  0
 18 19  1  0
 19 20  2  0
 20 21  1  0
 21 22  1  0
 21 23  2  0
 14  2  1  0
 23 17  1  0
 13  7  1  0
  1 24  1  0
  1 25  1  0
  4 26  1  0
  4 27  1  0
  5 28  1  0
  6 29  1  0
  6 30  1  0
  8 31  1  0
  9 32  1  0
 11 33  1  0
 12 34  1  0
 13 35  1  0
 15 36  1  0
 15 37  1  0
 16 38  1  0
 16 39  1  0
 18 40  1  0
 19 41  1  0
 20 42  1  0
 23 43  1  0
M  END
$$$$
