
     RDKit          3D

 50 52  0  0  0  0  0  0  0  0999 V2000
    1.6774    2.6386   -2.8473 O   0  0  0  0  0  0  0  0  0  0  0  0
    2.4773    1.7376   -2.6773 C   0  0  0  0  0  0  0  0  0  0  0  0
    2.9805    1.0360   -3.7051 O   0  0  0  0  0  0  0  0  0  0  0  0
    3.0037    1.2951   -1.3649 C   0  0  0  0  0  0  0  0  0  0  0  0
    2.5830    1.9882   -0.2227 C   0  0  0  0  0  0  0  0  0  0  0  0
    3.0399    1.6002    1.0361 C   0  0  0  0  0  0  0  0  0  0  0  0
    2.5498    2.2810    2.1849 N   0  0  0  0  0  0  0  0  0  0  0  0
    1.5280    1.4687    3.2599 S   0  0  0  0  0  6  0  0  0  0  0  0
    0.9506    2.4811    4.1170 O   0  0  0  0  0  0  0  0  0  0  0  0
    2.2133    0.3171    3.8017 O   0  0  0  0  0  0  0  0  0  0  0  0
    0.2360    0.8714    2.1924 C   0  0  0  0  0  0  0  0  0  0  0  0
   -0.8657    1.6806    1.9175 C   0  0  0  0  0  0  0  0  0  0  0  0
   -1.8647    1.2153    1.0543 C   0  0  0  0  0  0  0  0  0  0  0  0
   -1.7971   -0.0526    0.4421 C   0  0  0  0  0  0  0  0  0  0  0  0
   -2.8291   -0.3770   -0.4396 N   0  0  0  0  0  0  0  0  0  0  0  0
   -2.5237   -0.9915   -1.7324 C   0  0  0  0  0  0  0  0  0  0  0  0
   -3.6501   -0.6582   -2.7129 C   0  0  0  0  0  0  0  0  0  0  0  0
   -5.0472   -0.8313   -2.1074 C   0  0  0  0  0  0  0  0  0  0  0  0
   -5.0100   -1.5297   -0.7526 C   0  0  0  0  0  0  0  0  0  0  0  0
   -4.0703   -0.8169    0.2233 C   0  0  0  0  0  0  0  0  0  0  0  0
   -0.6895   -0.8489    0.7855 C   0  0  0  0  0  0  0  0  0  0  0  0
   -0.5538   -2.1977    0.2837 N   0  0  0  0  0  4  0  0  0  0  0  0
   -1.3444   -3.0501    0.7099 O   0  0  0  0  0  0  0  0  0  0  0  0
    0.3709   -2.4021   -0.5162 O   0  0  0  0  0  1  0  0  0  0  0  0
    0.3226   -0.4112    1.6538 C   0  0  0  0  0  0  0  0  0  0  0  0
    3.9192    0.5261    1.1629 C   0  0  0  0  0  0  0  0  0  0  0  0
    4.3473   -0.1674    0.0233 C   0  0  0  0  0  0  0  0  0  0  0  0
    5.2844   -1.3017    0.2056 C   0  0  0  0  0  0  0  0  0  0  0  0
    5.7275   -1.6950    1.2674 O   0  0  0  0  0  0  0  0  0  0  0  0
    5.6228   -1.8869   -0.9553 O   0  0  0  0  0  0  0  0  0  0  0  0
    3.8862    0.2157   -1.2425 C   0  0  0  0  0  0  0  0  0  0  0  0
    2.5566    1.4236   -4.4997 H   0  0  0  0  0  0  0  0  0  0  0  0
    1.8885    2.8198   -0.3250 H   0  0  0  0  0  0  0  0  0  0  0  0
    2.3022    3.2664    2.0959 H   0  0  0  0  0  0  0  0  0  0  0  0
   -0.9577    2.6721    2.3567 H   0  0  0  0  0  0  0  0  0  0  0  0
   -2.7071    1.8689    0.8277 H   0  0  0  0  0  0  0  0  0  0  0  0
   -2.4310   -2.0794   -1.6402 H   0  0  0  0  0  0  0  0  0  0  0  0
   -1.5800   -0.6081   -2.1395 H   0  0  0  0  0  0  0  0  0  0  0  0
   -3.5440    0.3783   -3.0575 H   0  0  0  0  0  0  0  0  0  0  0  0
   -3.5479   -1.2889   -3.6039 H   0  0  0  0  0  0  0  0  0  0  0  0
   -5.6863   -1.3900   -2.8007 H   0  0  0  0  0  0  0  0  0  0  0  0
   -5.5104    0.1564   -1.9886 H   0  0  0  0  0  0  0  0  0  0  0  0
   -4.6771   -2.5663   -0.8911 H   0  0  0  0  0  0  0  0  0  0  0  0
   -6.0175   -1.5819   -0.3246 H   0  0  0  0  0  0  0  0  0  0  0  0
   -3.8559   -1.4918    1.0616 H   0  0  0  0  0  0  0  0  0  0  0  0
   -4.5830    0.0629    0.6314 H   0  0  0  0  0  0  0  0  0  0  0  0
    1.1617   -1.0610    1.8976 H   0  0  0  0  0  0  0  0  0  0  0  0
    4.2798    0.2262    2.1464 H   0  0  0  0  0  0  0  0  0  0  0  0
    6.2237   -2.6148   -0.6885 H   0  0  0  0  0  0  0  0  0  0  0  0
    4.2110   -0.3267   -2.1281 H   0  0  0  0  0  0  0  0  0  0  0  0
  1  2  2  0
  2  3  1  0
  2  4  1  0
  4  5  2  0
  5  6  1  0
  6  7  1  0
  7  8  1  0
  8  9  2  0
  8 10  2  0
  8 11  1  0
 11 12  2  0
 12 13  1  0
 13 14  2  0
 14 15  1  0
 15 16  1  0
 16 17  1  0
 17 18  1  0
 18 19  1  0
 19 20  1  0
 14 21  1  0
 21 22  1  0
 22 23  2  0
 22 24  1  0
 21 25  2  0
  6 26  2  0
 26 27  1  0
 27 28  1  0
 28 29  2  0
 28 30  1  0
 27 31  2  0
 31  4  1  0
 25 11  1  0
 20 15  1  0
  3 32  1  0
  5 33  1  0
  7 34  1  0
 12 35  1  0
 13 36  1  0
 16 37  1  0
 16 38  1  0
 17 39  1  0
 17 40  1  0
 18 41  1  0
 18 42  1  0
 19 43  1  0
 19 44  1  0
 20 45  1  0
 20 46  1  0
 25 47  1  0
 26 48  1  0
 30 49  1  0
 31 50  1  0
M  CHG  2  22   1  24  -1
M  END
$$$$
