
     RDKit          3D

 49 51  0  0  0  0  0  0  0  0999 V2000
   -5.9051    2.2655    1.5282 C   0  0  0  0  0  0  0  0  0  0  0  0
   -4.8167    1.5193    2.0544 O   0  0  0  0  0  0  0  0  0  0  0  0
   -4.2277    0.5895    1.2328 C   0  0  0  0  0  0  0  0  0  0  0  0
   -4.6367    0.3216   -0.0796 C   0  0  0  0  0  0  0  0  0  0  0  0
   -3.9801   -0.6475   -0.8415 C   0  0  0  0  0  0  0  0  0  0  0  0
   -2.9043   -1.3538   -0.3026 C   0  0  0  0  0  0  0  0  0  0  0  0
   -2.2169   -2.3758   -1.0937 C   0  0  0  0  0  0  0  0  0  0  0  0
   -1.2216   -2.1465   -1.9623 C   0  0  0  0  0  0  0  0  0  0  0  0
   -0.4279   -3.4159   -2.8212 S   0  0  0  0  0  0  0  0  0  0  0  0
    0.6647   -2.3049   -3.6273 C   0  0  0  0  0  0  0  0  0  0  0  0
    1.4212   -2.6647   -4.5161 O   0  0  0  0  0  0  0  0  0  0  0  0
    0.4700   -1.0311   -3.1579 N   0  0  0  0  0  0  0  0  0  0  0  0
    1.2510    0.0807   -3.6823 C   0  0  0  0  0  0  0  0  0  0  0  0
    1.8451    1.0059   -2.6177 C   0  0  0  0  0  0  0  0  0  0  0  0
    2.7812    0.2868   -1.6637 C   0  0  0  0  0  0  0  0  0  0  0  0
    3.1069   -0.8823   -1.8338 O   0  0  0  0  0  0  0  0  0  0  0  0
    3.1899    1.1163   -0.6316 N   0  0  0  0  0  0  0  0  0  0  0  0
    4.0560    0.7995    0.4362 C   0  0  0  0  0  0  0  0  0  0  0  0
    4.2742    1.7961    1.3984 C   0  0  0  0  0  0  0  0  0  0  0  0
    5.1150    1.5641    2.4900 C   0  0  0  0  0  0  0  0  0  0  0  0
    5.7482    0.3326    2.6298 C   0  0  0  0  0  0  0  0  0  0  0  0
    5.5423   -0.6622    1.6765 C   0  0  0  0  0  0  0  0  0  0  0  0
    4.6990   -0.4306    0.5846 C   0  0  0  0  0  0  0  0  0  0  0  0
   -0.6166   -0.8359   -2.3359 C   0  0  0  0  0  0  0  0  0  0  0  0
   -1.0445    0.2543   -1.9859 O   0  0  0  0  0  0  0  0  0  0  0  0
   -2.4873   -1.0902    1.0076 C   0  0  0  0  0  0  0  0  0  0  0  0
   -3.1411   -0.1225    1.7805 C   0  0  0  0  0  0  0  0  0  0  0  0
   -2.8000    0.1985    3.0716 O   0  0  0  0  0  0  0  0  0  0  0  0
   -1.7443   -0.5354    3.6778 C   0  0  0  0  0  0  0  0  0  0  0  0
   -6.7463    1.6115    1.2741 H   0  0  0  0  0  0  0  0  0  0  0  0
   -6.2465    2.9559    2.3070 H   0  0  0  0  0  0  0  0  0  0  0  0
   -5.5930    2.8647    0.6660 H   0  0  0  0  0  0  0  0  0  0  0  0
   -5.4649    0.8503   -0.5405 H   0  0  0  0  0  0  0  0  0  0  0  0
   -4.3133   -0.8368   -1.8597 H   0  0  0  0  0  0  0  0  0  0  0  0
   -2.5600   -3.3908   -0.9049 H   0  0  0  0  0  0  0  0  0  0  0  0
    0.5816    0.6673   -4.3240 H   0  0  0  0  0  0  0  0  0  0  0  0
    2.0549   -0.3036   -4.3210 H   0  0  0  0  0  0  0  0  0  0  0  0
    1.0569    1.4941   -2.0355 H   0  0  0  0  0  0  0  0  0  0  0  0
    2.4193    1.7956   -3.1182 H   0  0  0  0  0  0  0  0  0  0  0  0
    2.7935    2.0485   -0.6118 H   0  0  0  0  0  0  0  0  0  0  0  0
    3.7921    2.7672    1.3167 H   0  0  0  0  0  0  0  0  0  0  0  0
    5.2728    2.3440    3.2312 H   0  0  0  0  0  0  0  0  0  0  0  0
    6.4019    0.1476    3.4792 H   0  0  0  0  0  0  0  0  0  0  0  0
    6.0377   -1.6236    1.7796 H   0  0  0  0  0  0  0  0  0  0  0  0
    4.5736   -1.2329   -0.1350 H   0  0  0  0  0  0  0  0  0  0  0  0
   -1.6451   -1.6480    1.4024 H   0  0  0  0  0  0  0  0  0  0  0  0
   -1.9747   -1.6056    3.7125 H   0  0  0  0  0  0  0  0  0  0  0  0
   -0.7929   -0.3518    3.1654 H   0  0  0  0  0  0  0  0  0  0  0  0
   -1.6416   -0.1847    4.7099 H   0  0  0  0  0  0  0  0  0  0  0  0
  1  2  1  0
  2  3  1  0
  3  4  2  0
  4  5  1  0
  5  6  2  0
  6  7  1  0
  7  8  2  3
  8  9  1  0
  9 10  1  0
 10 11  2  0
 10 12  1  0
 12 13  1  0
 13 14  1  0
 14 15  1  0
 15 16  2  0
 15 17  1  0
 17 18  1  0
 18 19  2  0
 19 20  1  0
 20 21  2  0
 21 22  1  0
 22 23  2  0
 12 24  1  0
 24 25  2  0
  6 26  1  0
 26 27  2  0
 27 28  1  0
 28 29  1  0
 27  3  1  0
 24  8  1  0
 23 18  1  0
  1 30  1  0
  1 31  1  0
  1 32  1  0
  4 33  1  0
  5 34  1  0
  7 35  1  0
 13 36  1  0
 13 37  1  0
 14 38  1  0
 14 39  1  0
 17 40  1  0
 19 41  1  0
 20 42  1  0
 21 43  1  0
 22 44  1  0
 23 45  1  0
 26 46  1  0
 29 47  1  0
 29 48  1  0
 29 49  1  0
M  END
$$$$
