
     RDKit          3D

 67 72  0  0  0  0  0  0  0  0999 V2000
   -1.7601   -1.6726   -1.9114 O   0  0  0  0  0  0  0  0  0  0  0  0
   -2.0139   -0.9566   -0.9403 C   0  0  0  0  0  0  0  0  0  0  0  0
   -0.8903   -0.3116   -0.1333 C   0  0  0  0  0  0  0  0  0  0  0  0
   -0.7904    1.1826   -0.4600 C   0  0  0  0  0  0  0  0  0  0  0  0
    0.3555    1.8154    0.3200 C   0  0  0  0  0  0  0  0  0  0  0  0
    1.6831    1.1016    0.0606 C   0  0  0  0  0  0  0  0  0  0  0  0
    1.5428   -0.3389    0.3001 N   0  0  0  0  0  0  0  0  0  0  0  0
    2.7414   -1.0894    0.2520 C   0  0  0  0  0  0  0  0  0  0  0  0
    2.6466   -2.4521    0.3636 N   0  0  0  0  0  0  0  0  0  0  0  0
    3.7588   -3.2129    0.3496 C   0  0  0  0  0  0  0  0  0  0  0  0
    5.0348   -2.8142    0.2343 N   0  0  0  0  0  0  0  0  0  0  0  0
    5.1078   -1.4786    0.1272 C   0  0  0  0  0  0  0  0  0  0  0  0
    4.0601   -0.5686    0.1292 C   0  0  0  0  0  0  0  0  0  0  0  0
    4.5592    0.7173   -0.0135 N   0  0  0  0  0  0  0  0  0  0  0  0
    5.8700    0.5937   -0.0885 C   0  0  0  0  0  0  0  0  0  0  0  0
    6.2419   -0.7262   -0.0100 N   0  0  0  0  0  0  0  0  0  0  0  0
    7.5963   -1.2307   -0.0615 C   0  0  0  0  0  0  0  0  0  0  0  0
    8.4723   -0.7082    1.0745 C   0  0  0  0  0  0  0  0  0  0  0  0
    8.9375    0.7370    0.8830 C   0  0  0  0  0  0  0  0  0  0  0  0
    7.8255    1.7876    0.9348 C   0  0  0  0  0  0  0  0  0  0  0  0
    6.8449    1.7109   -0.2340 C   0  0  0  0  0  0  0  0  0  0  0  0
    0.4476   -1.0016   -0.4381 C   0  0  0  0  0  0  0  0  0  0  0  0
   -3.3283   -0.6539   -0.5873 N   0  0  0  0  0  0  0  0  0  0  0  0
   -4.3915   -1.3518   -1.3246 C   0  0  0  0  0  0  0  0  0  0  0  0
   -5.7327   -0.5979   -1.3117 C   0  0  0  0  0  0  0  0  0  0  0  0
   -6.1149   -0.2295    0.0744 N   0  0  0  0  0  0  0  0  0  0  0  0
   -7.4556    0.1842    0.1980 C   0  0  0  0  0  0  0  0  0  0  0  0
   -7.8211    1.4505    0.6847 C   0  0  0  0  0  0  0  0  0  0  0  0
   -9.1649    1.8334    0.8045 C   0  0  0  0  0  0  0  0  0  0  0  0
  -10.1828    0.9537    0.4489 C   0  0  0  0  0  0  0  0  0  0  0  0
   -9.8564   -0.3119   -0.0228 C   0  0  0  0  0  0  0  0  0  0  0  0
   -8.5165   -0.6843   -0.1400 C   0  0  0  0  0  0  0  0  0  0  0  0
   -8.2579   -1.9317   -0.5680 F   0  0  0  0  0  0  0  0  0  0  0  0
   -5.0686    0.5528    0.7583 C   0  0  0  0  0  0  0  0  0  0  0  0
   -3.7286   -0.2080    0.7562 C   0  0  0  0  0  0  0  0  0  0  0  0
   -1.0879   -0.4555    0.9354 H   0  0  0  0  0  0  0  0  0  0  0  0
   -0.6270    1.3216   -1.5367 H   0  0  0  0  0  0  0  0  0  0  0  0
   -1.7232    1.7055   -0.2232 H   0  0  0  0  0  0  0  0  0  0  0  0
    0.4484    2.8737    0.0516 H   0  0  0  0  0  0  0  0  0  0  0  0
    0.1241    1.7758    1.3921 H   0  0  0  0  0  0  0  0  0  0  0  0
    2.0079    1.2916   -0.9702 H   0  0  0  0  0  0  0  0  0  0  0  0
    2.4096    1.5439    0.7510 H   0  0  0  0  0  0  0  0  0  0  0  0
    3.5984   -4.2827    0.4430 H   0  0  0  0  0  0  0  0  0  0  0  0
    7.5539   -2.3240   -0.0071 H   0  0  0  0  0  0  0  0  0  0  0  0
    8.0083   -0.9699   -1.0431 H   0  0  0  0  0  0  0  0  0  0  0  0
    7.9547   -0.8083    2.0364 H   0  0  0  0  0  0  0  0  0  0  0  0
    9.3680   -1.3393    1.1299 H   0  0  0  0  0  0  0  0  0  0  0  0
    9.6579    0.9681    1.6778 H   0  0  0  0  0  0  0  0  0  0  0  0
    9.4849    0.8259   -0.0636 H   0  0  0  0  0  0  0  0  0  0  0  0
    7.2936    1.7201    1.8921 H   0  0  0  0  0  0  0  0  0  0  0  0
    8.3037    2.7750    0.9104 H   0  0  0  0  0  0  0  0  0  0  0  0
    7.3801    1.6219   -1.1865 H   0  0  0  0  0  0  0  0  0  0  0  0
    6.2826    2.6519   -0.2782 H   0  0  0  0  0  0  0  0  0  0  0  0
    0.6662   -0.9780   -1.5146 H   0  0  0  0  0  0  0  0  0  0  0  0
    0.3447   -2.0549   -0.1474 H   0  0  0  0  0  0  0  0  0  0  0  0
   -4.5102   -2.3368   -0.8560 H   0  0  0  0  0  0  0  0  0  0  0  0
   -4.0861   -1.5165   -2.3638 H   0  0  0  0  0  0  0  0  0  0  0  0
   -6.4781   -1.2336   -1.7995 H   0  0  0  0  0  0  0  0  0  0  0  0
   -5.6403    0.3176   -1.9113 H   0  0  0  0  0  0  0  0  0  0  0  0
   -7.0693    2.1811    0.9671 H   0  0  0  0  0  0  0  0  0  0  0  0
   -9.4114    2.8247    1.1778 H   0  0  0  0  0  0  0  0  0  0  0  0
  -11.2236    1.2508    0.5449 H   0  0  0  0  0  0  0  0  0  0  0  0
  -10.6313   -1.0213   -0.2943 H   0  0  0  0  0  0  0  0  0  0  0  0
   -5.3471    0.7424    1.8019 H   0  0  0  0  0  0  0  0  0  0  0  0
   -4.9311    1.5173    0.2525 H   0  0  0  0  0  0  0  0  0  0  0  0
   -3.8050   -1.1091    1.3772 H   0  0  0  0  0  0  0  0  0  0  0  0
   -2.9669    0.4314    1.2054 H   0  0  0  0  0  0  0  0  0  0  0  0
  1  2  2  0
  2  3  1  0
  3  4  1  0
  4  5  1  0
  5  6  1  0
  6  7  1  0
  7  8  1  0
  8  9  2  0
  9 10  1  0
 10 11  2  0
 11 12  1  0
 12 13  2  0
 13 14  1  0
 14 15  2  0
 15 16  1  0
 16 17  1  0
 17 18  1  0
 18 19  1  0
 19 20  1  0
 20 21  1  0
  7 22  1  0
  2 23  1  0
 23 24  1  0
 24 25  1  0
 25 26  1  0
 26 27  1  0
 27 28  2  0
 28 29  1  0
 29 30  2  0
 30 31  1  0
 31 32  2  0
 32 33  1  0
 26 34  1  0
 34 35  1  0
 22  3  1  0
 35 23  1  0
 13  8  1  0
 21 15  1  0
 32 27  1  0
 16 12  1  0
  3 36  1  0
  4 37  1  0
  4 38  1  0
  5 39  1  0
  5 40  1  0
  6 41  1  0
  6 42  1  0
 10 43  1  0
 17 44  1  0
 17 45  1  0
 18 46  1  0
 18 47  1  0
 19 48  1  0
 19 49  1  0
 20 50  1  0
 20 51  1  0
 21 52  1  0
 21 53  1  0
 22 54  1  0
 22 55  1  0
 24 56  1  0
 24 57  1  0
 25 58  1  0
 25 59  1  0
 28 60  1  0
 29 61  1  0
 30 62  1  0
 31 63  1  0
 34 64  1  0
 34 65  1  0
 35 66  1  0
 35 67  1  0
M  END
$$$$
