
     RDKit          3D

 52 55  0  0  0  0  0  0  0  0999 V2000
   -8.7660   -0.4243    0.5028 C   0  0  0  0  0  0  0  0  0  0  0  0
   -7.8393   -1.4941    0.3675 O   0  0  0  0  0  0  0  0  0  0  0  0
   -6.5326   -1.2195    0.6726 C   0  0  0  0  0  0  0  0  0  0  0  0
   -5.6913   -2.3341    0.6866 C   0  0  0  0  0  0  0  0  0  0  0  0
   -4.3322   -2.1987    0.9884 C   0  0  0  0  0  0  0  0  0  0  0  0
   -3.7980   -0.9389    1.2701 C   0  0  0  0  0  0  0  0  0  0  0  0
   -2.3792   -0.7794    1.6025 C   0  0  0  0  0  0  0  0  0  0  0  0
   -1.3560   -0.8707    0.7421 C   0  0  0  0  0  0  0  0  0  0  0  0
   -1.4351   -1.2071   -0.9375 S   0  0  0  0  0  0  0  0  0  0  0  0
    0.2746   -0.8664   -1.1383 C   0  0  0  0  0  0  0  0  0  0  0  0
    0.7840   -0.6466   -2.3737 C   0  0  0  0  0  0  0  0  0  0  0  0
    0.0477   -0.9118   -3.5702 C   0  0  0  0  0  0  0  0  0  0  0  0
   -0.5489   -1.1311   -4.5439 N   0  0  0  0  0  0  0  0  0  0  0  0
    2.1281   -0.0685   -2.6352 C   0  0  0  0  0  0  0  0  0  0  0  0
    2.9139   -0.6266   -3.3933 O   0  0  0  0  0  0  0  0  0  0  0  0
    2.3638    1.1476   -2.0457 N   0  0  0  0  0  0  0  0  0  0  0  0
    3.5331    1.9375   -2.3585 C   0  0  0  0  0  0  0  0  0  0  0  0
    4.1152    2.4502   -1.0922 C   0  0  0  0  0  0  0  0  0  0  0  0
    5.3070    2.2108   -0.4337 C   0  0  0  0  0  0  0  0  0  0  0  0
    5.2840    3.0006    0.7408 C   0  0  0  0  0  0  0  0  0  0  0  0
    4.0810    3.6755    0.7264 C   0  0  0  0  0  0  0  0  0  0  0  0
    3.3621    3.3461   -0.3809 O   0  0  0  0  0  0  0  0  0  0  0  0
    0.9176   -0.7621    0.1030 N   0  0  0  0  0  0  0  0  0  0  0  0
    2.3176   -0.9657    0.3555 C   0  0  0  0  0  0  0  0  0  0  0  0
    2.9774   -0.2986    1.3971 C   0  0  0  0  0  0  0  0  0  0  0  0
    4.3176   -0.5590    1.6876 C   0  0  0  0  0  0  0  0  0  0  0  0
    5.0227   -1.4940    0.9413 C   0  0  0  0  0  0  0  0  0  0  0  0
    4.3853   -2.1704   -0.0934 C   0  0  0  0  0  0  0  0  0  0  0  0
    3.0447   -1.9148   -0.3818 C   0  0  0  0  0  0  0  0  0  0  0  0
    0.0464   -0.6893    1.2069 C   0  0  0  0  0  0  0  0  0  0  0  0
    0.3206   -0.5412    2.3871 O   0  0  0  0  0  0  0  0  0  0  0  0
   -4.6377    0.1800    1.2538 C   0  0  0  0  0  0  0  0  0  0  0  0
   -5.9984    0.0411    0.9486 C   0  0  0  0  0  0  0  0  0  0  0  0
   -9.7677   -0.8223    0.3292 H   0  0  0  0  0  0  0  0  0  0  0  0
   -8.7507   -0.0055    1.5106 H   0  0  0  0  0  0  0  0  0  0  0  0
   -8.5805    0.3521   -0.2460 H   0  0  0  0  0  0  0  0  0  0  0  0
   -6.0971   -3.3190    0.4680 H   0  0  0  0  0  0  0  0  0  0  0  0
   -3.7043   -3.0864    1.0057 H   0  0  0  0  0  0  0  0  0  0  0  0
   -2.1894   -0.5543    2.6525 H   0  0  0  0  0  0  0  0  0  0  0  0
    1.6808    1.5810   -1.4382 H   0  0  0  0  0  0  0  0  0  0  0  0
    4.2671    1.3562   -2.9309 H   0  0  0  0  0  0  0  0  0  0  0  0
    3.1942    2.7749   -2.9810 H   0  0  0  0  0  0  0  0  0  0  0  0
    6.0899    1.5347   -0.7659 H   0  0  0  0  0  0  0  0  0  0  0  0
    6.0510    3.0740    1.5004 H   0  0  0  0  0  0  0  0  0  0  0  0
    3.6160    4.3962    1.3909 H   0  0  0  0  0  0  0  0  0  0  0  0
    2.4602    0.4184    2.0178 H   0  0  0  0  0  0  0  0  0  0  0  0
    4.8041   -0.0476    2.5096 H   0  0  0  0  0  0  0  0  0  0  0  0
    6.0603   -1.7137    1.1827 H   0  0  0  0  0  0  0  0  0  0  0  0
    4.9175   -2.9348   -0.6528 H   0  0  0  0  0  0  0  0  0  0  0  0
    2.5723   -2.5156   -1.1549 H   0  0  0  0  0  0  0  0  0  0  0  0
   -4.2425    1.1710    1.4683 H   0  0  0  0  0  0  0  0  0  0  0  0
   -6.6109    0.9362    0.9318 H   0  0  0  0  0  0  0  0  0  0  0  0
  1  2  1  0
  2  3  1  0
  3  4  2  0
  4  5  1  0
  5  6  2  0
  6  7  1  0
  7  8  2  3
  8  9  1  0
  9 10  1  0
 10 11  2  3
 11 12  1  0
 12 13  3  0
 11 14  1  0
 14 15  2  0
 14 16  1  0
 16 17  1  0
 17 18  1  0
 18 19  2  0
 19 20  1  0
 20 21  2  0
 21 22  1  0
 10 23  1  0
 23 24  1  0
 24 25  2  0
 25 26  1  0
 26 27  2  0
 27 28  1  0
 28 29  2  0
 23 30  1  0
 30 31  2  0
  6 32  1  0
 32 33  2  0
 33  3  1  0
 30  8  1  0
 22 18  1  0
 29 24  1  0
  1 34  1  0
  1 35  1  0
  1 36  1  0
  4 37  1  0
  5 38  1  0
  7 39  1  0
 16 40  1  0
 17 41  1  0
 17 42  1  0
 19 43  1  0
 20 44  1  0
 21 45  1  0
 25 46  1  0
 26 47  1  0
 27 48  1  0
 28 49  1  0
 29 50  1  0
 32 51  1  0
 33 52  1  0
M  END
$$$$
