
     RDKit          3D

 48 49  0  0  0  0  0  0  0  0999 V2000
   -3.4881   -2.3535    2.9044 C   0  0  0  0  0  0  0  0  0  0  0  0
   -3.0536   -1.7138    1.6196 C   0  0  0  0  0  0  0  0  0  0  0  0
   -3.4489   -0.4082    1.3094 C   0  0  0  0  0  0  0  0  0  0  0  0
   -3.0738    0.1789    0.0985 C   0  0  0  0  0  0  0  0  0  0  0  0
   -2.3031   -0.5321   -0.8280 C   0  0  0  0  0  0  0  0  0  0  0  0
   -1.8608    0.1093   -2.1276 C   0  0  0  0  0  0  0  0  0  0  0  0
   -0.5423    0.8976   -2.0317 C   0  0  0  0  0  0  0  0  0  0  0  0
    0.5315    0.1389   -1.3701 N   0  0  0  0  0  0  0  0  0  0  0  0
    1.2769   -0.7892   -2.0617 C   0  0  0  0  0  0  0  0  0  0  0  0
    1.2037   -0.9254   -3.2774 O   0  0  0  0  0  0  0  0  0  0  0  0
    2.1687   -1.6685   -1.2509 C   0  0  0  0  0  0  0  0  0  0  0  0
    2.6026   -2.8732   -1.8209 C   0  0  0  0  0  0  0  0  0  0  0  0
    3.4335   -3.7349   -1.1026 C   0  0  0  0  0  0  0  0  0  0  0  0
    3.8412   -3.3952    0.1863 C   0  0  0  0  0  0  0  0  0  0  0  0
    3.4253   -2.1923    0.7558 C   0  0  0  0  0  0  0  0  0  0  0  0
    2.5937   -1.3264    0.0404 C   0  0  0  0  0  0  0  0  0  0  0  0
   -0.6945    2.2528   -1.3134 C   0  0  0  0  0  0  0  0  0  0  0  0
   -1.7521    2.8626   -1.1962 O   0  0  0  0  0  0  0  0  0  0  0  0
    0.5225    2.7860   -0.9172 N   0  0  0  0  0  0  0  0  0  0  0  0
    0.5742    3.8150    0.1161 C   0  0  0  0  0  0  0  0  0  0  0  0
    1.7946    4.7003   -0.0732 C   0  0  0  0  0  0  0  0  0  0  0  0
    0.6552    3.0943    1.4629 C   0  0  0  0  0  0  0  0  0  0  0  0
    0.9923    1.9302    1.6379 O   0  0  0  0  0  0  0  0  0  0  0  0
    0.3430    3.8837    2.5091 O   0  0  0  0  0  0  0  0  0  0  0  0
   -1.9277   -1.8481   -0.5251 C   0  0  0  0  0  0  0  0  0  0  0  0
   -2.3016   -2.4341    0.6861 C   0  0  0  0  0  0  0  0  0  0  0  0
   -4.4658   -2.8275    2.7745 H   0  0  0  0  0  0  0  0  0  0  0  0
   -3.5574   -1.6102    3.7056 H   0  0  0  0  0  0  0  0  0  0  0  0
   -2.7676   -3.1123    3.2272 H   0  0  0  0  0  0  0  0  0  0  0  0
   -4.0560    0.1630    2.0081 H   0  0  0  0  0  0  0  0  0  0  0  0
   -3.3957    1.1965   -0.1161 H   0  0  0  0  0  0  0  0  0  0  0  0
   -2.6665    0.7526   -2.5036 H   0  0  0  0  0  0  0  0  0  0  0  0
   -1.7472   -0.6845   -2.8782 H   0  0  0  0  0  0  0  0  0  0  0  0
   -0.2145    1.1375   -3.0517 H   0  0  0  0  0  0  0  0  0  0  0  0
    0.4137    0.0084   -0.3698 H   0  0  0  0  0  0  0  0  0  0  0  0
    2.2913   -3.1453   -2.8278 H   0  0  0  0  0  0  0  0  0  0  0  0
    3.7631   -4.6690   -1.5507 H   0  0  0  0  0  0  0  0  0  0  0  0
    4.4896   -4.0659    0.7450 H   0  0  0  0  0  0  0  0  0  0  0  0
    3.7531   -1.9249    1.7578 H   0  0  0  0  0  0  0  0  0  0  0  0
    2.3078   -0.3870    0.5052 H   0  0  0  0  0  0  0  0  0  0  0  0
    1.2836    2.1117   -0.9239 H   0  0  0  0  0  0  0  0  0  0  0  0
   -0.3477    4.4052    0.0886 H   0  0  0  0  0  0  0  0  0  0  0  0
    1.7704    5.1921   -1.0514 H   0  0  0  0  0  0  0  0  0  0  0  0
    2.7220    4.1190   -0.0150 H   0  0  0  0  0  0  0  0  0  0  0  0
    1.8413    5.4754    0.6990 H   0  0  0  0  0  0  0  0  0  0  0  0
    0.4139    3.2984    3.2922 H   0  0  0  0  0  0  0  0  0  0  0  0
   -1.3408   -2.4288   -1.2343 H   0  0  0  0  0  0  0  0  0  0  0  0
   -2.0032   -3.4592    0.8938 H   0  0  0  0  0  0  0  0  0  0  0  0
  1  2  1  0
  2  3  2  0
  3  4  1  0
  4  5  2  0
  5  6  1  0
  6  7  1  0
  7  8  1  0
  8  9  1  0
  9 10  2  0
  9 11  1  0
 11 12  2  0
 12 13  1  0
 13 14  2  0
 14 15  1  0
 15 16  2  0
  7 17  1  0
 17 18  2  0
 17 19  1  0
 19 20  1  0
 20 21  1  0
 20 22  1  0
 22 23  2  0
 22 24  1  0
  5 25  1  0
 25 26  2  0
 26  2  1  0
 16 11  1  0
  1 27  1  0
  1 28  1  0
  1 29  1  0
  3 30  1  0
  4 31  1  0
  6 32  1  0
  6 33  1  0
  7 34  1  0
  8 35  1  0
 12 36  1  0
 13 37  1  0
 14 38  1  0
 15 39  1  0
 16 40  1  0
 19 41  1  0
 20 42  1  0
 21 43  1  0
 21 44  1  0
 21 45  1  0
 24 46  1  0
 25 47  1  0
 26 48  1  0
M  END
$$$$
