
     RDKit          3D

 30 31  0  0  0  0  0  0  0  0999 V2000
   -2.4232   -2.0462   -1.3255 C   0  0  0  0  0  0  0  0  0  0  0  0
   -2.3570   -2.1159    0.0930 O   0  0  0  0  0  0  0  0  0  0  0  0
   -1.8436   -1.0312    0.7509 C   0  0  0  0  0  0  0  0  0  0  0  0
   -1.3490    0.1244    0.1445 C   0  0  0  0  0  0  0  0  0  0  0  0
   -0.8311    1.1576    0.9404 C   0  0  0  0  0  0  0  0  0  0  0  0
   -0.1962    2.6307    0.1633 S   0  0  0  0  0  6  0  0  0  0  0  0
   -0.6984    2.6668   -1.1946 O   0  0  0  0  0  0  0  0  0  0  0  0
   -0.4362    3.7301    1.0742 O   0  0  0  0  0  0  0  0  0  0  0  0
    1.4670    2.3778    0.1343 N   0  0  0  0  0  0  0  0  0  0  0  0
    1.9056    1.1953   -0.4877 C   0  0  0  0  0  0  0  0  0  0  0  0
    1.8220    0.9853   -1.8528 C   0  0  0  0  0  0  0  0  0  0  0  0
    2.2359   -0.2478   -2.3450 C   0  0  0  0  0  0  0  0  0  0  0  0
    2.7095   -1.2096   -1.4578 C   0  0  0  0  0  0  0  0  0  0  0  0
    2.7530   -0.8945   -0.1081 C   0  0  0  0  0  0  0  0  0  0  0  0
    2.3584    0.2940    0.3998 N   0  0  0  0  0  0  0  0  0  0  0  0
   -0.8333    1.0680    2.3363 C   0  0  0  0  0  0  0  0  0  0  0  0
   -1.3307   -0.0840    2.9403 C   0  0  0  0  0  0  0  0  0  0  0  0
   -1.8242   -1.1204    2.1489 C   0  0  0  0  0  0  0  0  0  0  0  0
   -2.2918   -2.2203    2.7589 F   0  0  0  0  0  0  0  0  0  0  0  0
   -1.4227   -1.9626   -1.7628 H   0  0  0  0  0  0  0  0  0  0  0  0
   -2.8669   -2.9792   -1.6859 H   0  0  0  0  0  0  0  0  0  0  0  0
   -3.0679   -1.2231   -1.6511 H   0  0  0  0  0  0  0  0  0  0  0  0
   -1.3464    0.2400   -0.9346 H   0  0  0  0  0  0  0  0  0  0  0  0
    1.8669    2.4650    1.0662 H   0  0  0  0  0  0  0  0  0  0  0  0
    1.4479    1.7554   -2.5186 H   0  0  0  0  0  0  0  0  0  0  0  0
    2.1903   -0.4558   -3.4105 H   0  0  0  0  0  0  0  0  0  0  0  0
    3.0400   -2.1811   -1.8097 H   0  0  0  0  0  0  0  0  0  0  0  0
    3.1160   -1.6138    0.6214 H   0  0  0  0  0  0  0  0  0  0  0  0
   -0.4530    1.8805    2.9511 H   0  0  0  0  0  0  0  0  0  0  0  0
   -1.3408   -0.1865    4.0211 H   0  0  0  0  0  0  0  0  0  0  0  0
  1  2  1  0
  2  3  1  0
  3  4  2  0
  4  5  1  0
  5  6  1  0
  6  7  2  0
  6  8  2  0
  6  9  1  0
  9 10  1  0
 10 11  2  0
 11 12  1  0
 12 13  2  0
 13 14  1  0
 14 15  2  0
  5 16  2  0
 16 17  1  0
 17 18  2  0
 18 19  1  0
 18  3  1  0
 15 10  1  0
  1 20  1  0
  1 21  1  0
  1 22  1  0
  4 23  1  0
  9 24  1  0
 11 25  1  0
 12 26  1  0
 13 27  1  0
 14 28  1  0
 16 29  1  0
 17 30  1  0
M  END
$$$$
