
     RDKit          3D

 40 41  0  0  0  0  0  0  0  0999 V2000
   -5.0588    1.1037    1.6985 C   0  0  0  0  0  0  0  0  0  0  0  0
   -3.8524    1.4627    0.8303 C   0  0  0  0  0  0  0  0  0  0  0  0
   -4.0424    0.9864   -0.6210 C   0  0  0  0  0  0  0  0  0  0  0  0
   -3.2830   -0.3028   -0.9140 C   0  0  0  0  0  0  0  0  0  0  0  0
   -1.8520   -0.1564   -0.6593 N   0  0  0  0  0  0  0  0  0  0  0  0
   -0.9858   -1.0414   -1.2992 C   0  0  0  0  0  0  0  0  0  0  0  0
   -1.3654   -1.9832   -1.9912 O   0  0  0  0  0  0  0  0  0  0  0  0
    0.4738   -0.8461   -1.1506 C   0  0  0  0  0  0  0  0  0  0  0  0
    1.2556   -1.9196   -0.7121 C   0  0  0  0  0  0  0  0  0  0  0  0
    2.6351   -1.7591   -0.5697 C   0  0  0  0  0  0  0  0  0  0  0  0
    3.2282   -0.5386   -0.8952 C   0  0  0  0  0  0  0  0  0  0  0  0
    4.6267   -0.3576   -0.6891 N   0  0  0  0  0  0  0  0  0  0  0  0
    5.1107    0.1283    0.8616 S   0  0  0  0  0  6  0  0  0  0  0  0
    5.7570   -1.3969    1.5100 C   0  0  0  0  0  0  0  0  0  0  0  0
    6.2285    1.0236    0.6493 O   0  0  0  0  0  0  0  0  0  0  0  0
    3.9640    0.5271    1.6464 O   0  0  0  0  0  0  0  0  0  0  0  0
    2.4511    0.5302   -1.3478 C   0  0  0  0  0  0  0  0  0  0  0  0
    1.0708    0.3737   -1.4881 C   0  0  0  0  0  0  0  0  0  0  0  0
   -1.4524    0.7476    0.4248 C   0  0  0  0  0  0  0  0  0  0  0  0
   -2.5620    0.9114    1.4589 C   0  0  0  0  0  0  0  0  0  0  0  0
   -4.9193    1.4615    2.7241 H   0  0  0  0  0  0  0  0  0  0  0  0
   -5.2155    0.0202    1.7338 H   0  0  0  0  0  0  0  0  0  0  0  0
   -5.9711    1.5646    1.3052 H   0  0  0  0  0  0  0  0  0  0  0  0
   -3.7845    2.5586    0.8093 H   0  0  0  0  0  0  0  0  0  0  0  0
   -3.6641    1.7686   -1.2930 H   0  0  0  0  0  0  0  0  0  0  0  0
   -5.1043    0.8617   -0.8615 H   0  0  0  0  0  0  0  0  0  0  0  0
   -3.4381   -0.5971   -1.9582 H   0  0  0  0  0  0  0  0  0  0  0  0
   -3.6510   -1.1222   -0.2850 H   0  0  0  0  0  0  0  0  0  0  0  0
    0.7886   -2.8738   -0.4787 H   0  0  0  0  0  0  0  0  0  0  0  0
    3.2367   -2.5925   -0.2204 H   0  0  0  0  0  0  0  0  0  0  0  0
    5.0889    0.2432   -1.3753 H   0  0  0  0  0  0  0  0  0  0  0  0
    6.5398   -1.7634    0.8433 H   0  0  0  0  0  0  0  0  0  0  0  0
    4.9456   -2.1204    1.6006 H   0  0  0  0  0  0  0  0  0  0  0  0
    6.1783   -1.1899    2.4963 H   0  0  0  0  0  0  0  0  0  0  0  0
    2.9067    1.4881   -1.5829 H   0  0  0  0  0  0  0  0  0  0  0  0
    0.4672    1.1978   -1.8590 H   0  0  0  0  0  0  0  0  0  0  0  0
   -0.5517    0.3701    0.9184 H   0  0  0  0  0  0  0  0  0  0  0  0
   -1.2141    1.7167   -0.0281 H   0  0  0  0  0  0  0  0  0  0  0  0
   -2.7560   -0.0643    1.9239 H   0  0  0  0  0  0  0  0  0  0  0  0
   -2.2294    1.5798    2.2618 H   0  0  0  0  0  0  0  0  0  0  0  0
  1  2  1  0
  2  3  1  0
  3  4  1  0
  4  5  1  0
  5  6  1  0
  6  7  2  0
  6  8  1  0
  8  9  2  0
  9 10  1  0
 10 11  2  0
 11 12  1  0
 12 13  1  0
 13 14  1  0
 13 15  2  0
 13 16  2  0
 11 17  1  0
 17 18  2  0
  5 19  1  0
 19 20  1  0
 20  2  1  0
 18  8  1  0
  1 21  1  0
  1 22  1  0
  1 23  1  0
  2 24  1  0
  3 25  1  0
  3 26  1  0
  4 27  1  0
  4 28  1  0
  9 29  1  0
 10 30  1  0
 12 31  1  0
 14 32  1  0
 14 33  1  0
 14 34  1  0
 17 35  1  0
 18 36  1  0
 19 37  1  0
 19 38  1  0
 20 39  1  0
 20 40  1  0
M  END
$$$$
