
     RDKit          3D

 55 58  0  0  0  0  0  0  0  0999 V2000
    4.5291   -1.2412   -1.6929 C   0  0  0  0  0  0  0  0  0  0  0  0
    4.6219   -0.3704   -0.4504 C   0  0  0  0  0  0  0  0  0  0  0  0
    4.3539   -1.1160    0.7435 O   0  0  0  0  0  0  0  0  0  0  0  0
    3.0270   -1.4065    0.9274 C   0  0  0  0  0  0  0  0  0  0  0  0
    2.0966   -0.3824    1.1274 C   0  0  0  0  0  0  0  0  0  0  0  0
    0.7370   -0.6792    1.2836 C   0  0  0  0  0  0  0  0  0  0  0  0
   -0.2146    0.4308    1.4349 C   0  0  0  0  0  0  0  0  0  0  0  0
   -1.3676    0.6133    0.7567 C   0  0  0  0  0  0  0  0  0  0  0  0
   -1.8464   -0.3479   -0.2846 C   0  0  0  0  0  0  0  0  0  0  0  0
   -2.9065   -0.9461   -0.0927 O   0  0  0  0  0  0  0  0  0  0  0  0
   -1.0977   -0.4931   -1.4353 N   0  0  0  0  0  0  0  0  0  0  0  0
   -0.0591    0.4373   -1.8950 C   0  0  0  0  0  0  0  0  0  0  0  0
   -0.0516    0.5258   -3.4251 C   0  0  0  0  0  0  0  0  0  0  0  0
    0.1746   -0.7368   -4.0684 O   0  0  0  0  0  0  0  0  0  0  0  0
   -0.2878   -1.8687   -3.3153 C   0  0  0  0  0  0  0  0  0  0  0  0
   -1.4593   -1.5440   -2.3859 C   0  0  0  0  0  0  0  0  0  0  0  0
   -2.1951    1.7165    1.1090 C   0  0  0  0  0  0  0  0  0  0  0  0
   -1.8841    2.8946    1.6199 N   0  0  0  0  0  0  0  0  0  0  0  0
   -3.0756    3.5625    1.7741 C   0  0  0  0  0  0  0  0  0  0  0  0
   -3.3243    4.8532    2.2629 C   0  0  0  0  0  0  0  0  0  0  0  0
   -4.6478    5.3076    2.3148 C   0  0  0  0  0  0  0  0  0  0  0  0
   -5.7025    4.4901    1.8986 C   0  0  0  0  0  0  0  0  0  0  0  0
   -5.4735    3.1994    1.4069 C   0  0  0  0  0  0  0  0  0  0  0  0
   -4.1437    2.7777    1.3571 C   0  0  0  0  0  0  0  0  0  0  0  0
   -3.5607    1.6080    0.9466 N   0  0  0  0  0  0  0  0  0  0  0  0
    0.3288   -2.0179    1.3099 C   0  0  0  0  0  0  0  0  0  0  0  0
    1.2631   -3.0435    1.1394 C   0  0  0  0  0  0  0  0  0  0  0  0
    0.6962   -4.6751    1.1546 Cl  0  0  0  0  0  0  0  0  0  0  0  0
    2.6188   -2.7454    0.9661 C   0  0  0  0  0  0  0  0  0  0  0  0
    3.5019   -3.7746    0.7494 O   0  0  0  0  0  0  0  0  0  0  0  0
    4.4383   -3.9000    1.8196 C   0  0  0  0  0  0  0  0  0  0  0  0
    3.4958   -1.5549   -1.8769 H   0  0  0  0  0  0  0  0  0  0  0  0
    4.8824   -0.6931   -2.5721 H   0  0  0  0  0  0  0  0  0  0  0  0
    5.1269   -2.1513   -1.5775 H   0  0  0  0  0  0  0  0  0  0  0  0
    3.9825    0.5153   -0.5379 H   0  0  0  0  0  0  0  0  0  0  0  0
    5.6496   -0.0020   -0.3577 H   0  0  0  0  0  0  0  0  0  0  0  0
    2.4318    0.6519    1.1476 H   0  0  0  0  0  0  0  0  0  0  0  0
    0.0746    1.1648    2.1887 H   0  0  0  0  0  0  0  0  0  0  0  0
    0.9014    0.0397   -1.5524 H   0  0  0  0  0  0  0  0  0  0  0  0
   -0.2074    1.4290   -1.4598 H   0  0  0  0  0  0  0  0  0  0  0  0
   -1.0093    0.9160   -3.7885 H   0  0  0  0  0  0  0  0  0  0  0  0
    0.7313    1.2129   -3.7607 H   0  0  0  0  0  0  0  0  0  0  0  0
    0.5628   -2.2482   -2.7362 H   0  0  0  0  0  0  0  0  0  0  0  0
   -0.5721   -2.6479   -4.0295 H   0  0  0  0  0  0  0  0  0  0  0  0
   -2.3128   -1.1714   -2.9641 H   0  0  0  0  0  0  0  0  0  0  0  0
   -1.7788   -2.4377   -1.8383 H   0  0  0  0  0  0  0  0  0  0  0  0
   -2.5027    5.4801    2.5912 H   0  0  0  0  0  0  0  0  0  0  0  0
   -4.8561    6.3068    2.6910 H   0  0  0  0  0  0  0  0  0  0  0  0
   -6.7226    4.8637    1.9538 H   0  0  0  0  0  0  0  0  0  0  0  0
   -6.2923    2.5642    1.0857 H   0  0  0  0  0  0  0  0  0  0  0  0
   -4.0421    0.7868    0.5980 H   0  0  0  0  0  0  0  0  0  0  0  0
   -0.7185   -2.2731    1.4611 H   0  0  0  0  0  0  0  0  0  0  0  0
    4.7757   -4.9409    1.8450 H   0  0  0  0  0  0  0  0  0  0  0  0
    3.9952   -3.6665    2.7950 H   0  0  0  0  0  0  0  0  0  0  0  0
    5.3151   -3.2725    1.6375 H   0  0  0  0  0  0  0  0  0  0  0  0
  1  2  1  0
  2  3  1  0
  3  4  1  0
  4  5  2  0
  5  6  1  0
  6  7  1  0
  7  8  2  3
  8  9  1  0
  9 10  2  0
  9 11  1  0
 11 12  1  0
 12 13  1  0
 13 14  1  0
 14 15  1  0
 15 16  1  0
  8 17  1  0
 17 18  2  0
 18 19  1  0
 19 20  2  0
 20 21  1  0
 21 22  2  0
 22 23  1  0
 23 24  2  0
 24 25  1  0
  6 26  2  0
 26 27  1  0
 27 28  1  0
 27 29  2  0
 29 30  1  0
 30 31  1  0
 29  4  1  0
 16 11  1  0
 25 17  1  0
 24 19  1  0
  1 32  1  0
  1 33  1  0
  1 34  1  0
  2 35  1  0
  2 36  1  0
  5 37  1  0
  7 38  1  0
 12 39  1  0
 12 40  1  0
 13 41  1  0
 13 42  1  0
 15 43  1  0
 15 44  1  0
 16 45  1  0
 16 46  1  0
 20 47  1  0
 21 48  1  0
 22 49  1  0
 23 50  1  0
 25 51  1  0
 26 52  1  0
 31 53  1  0
 31 54  1  0
 31 55  1  0
M  END
$$$$
