
     RDKit          3D

 49 52  0  0  0  0  0  0  0  0999 V2000
   -7.0655   -2.2954   -2.5346 C   0  0  0  0  0  0  0  0  0  0  0  0
   -6.8516   -0.8986   -2.3755 O   0  0  0  0  0  0  0  0  0  0  0  0
   -6.2033   -0.5000   -1.2390 C   0  0  0  0  0  0  0  0  0  0  0  0
   -6.0113    0.8792   -1.1297 C   0  0  0  0  0  0  0  0  0  0  0  0
   -5.3616    1.4251   -0.0198 C   0  0  0  0  0  0  0  0  0  0  0  0
   -4.8988    0.5934    1.0064 C   0  0  0  0  0  0  0  0  0  0  0  0
   -4.1737    1.1646    2.1968 C   0  0  0  0  0  0  0  0  0  0  0  0
   -2.7459    1.0828    2.0117 N   0  0  0  0  0  0  0  0  0  0  0  0
   -1.9848    0.0744    2.5622 C   0  0  0  0  0  0  0  0  0  0  0  0
   -2.4625   -0.7382    3.3516 O   0  0  0  0  0  0  0  0  0  0  0  0
   -0.5882    0.0336    2.1435 C   0  0  0  0  0  0  0  0  0  0  0  0
    0.3716   -0.8927    2.5472 C   0  0  0  0  0  0  0  0  0  0  0  0
    1.6168   -0.6324    1.9411 C   0  0  0  0  0  0  0  0  0  0  0  0
    1.5682    0.4513    1.1209 C   0  0  0  0  0  0  0  0  0  0  0  0
    0.0785    1.1925    1.0352 S   0  0  0  0  0  0  0  0  0  0  0  0
    2.8689    0.7258    0.4823 C   0  0  0  0  0  0  0  0  0  0  0  0
    3.6343   -0.5185    0.8024 N   0  0  0  0  0  0  0  0  0  0  0  0
    5.0539   -0.2722    1.0488 C   0  0  0  0  0  0  0  0  0  0  0  0
    5.7826    0.2588   -0.1673 C   0  0  0  0  0  0  0  0  0  0  0  0
    5.8084   -0.4792   -1.3605 C   0  0  0  0  0  0  0  0  0  0  0  0
    6.4857    0.0048   -2.4805 C   0  0  0  0  0  0  0  0  0  0  0  0
    7.1475    1.2294   -2.4194 C   0  0  0  0  0  0  0  0  0  0  0  0
    7.1326    1.9708   -1.2393 C   0  0  0  0  0  0  0  0  0  0  0  0
    6.4548    1.4885   -0.1178 C   0  0  0  0  0  0  0  0  0  0  0  0
    2.9783   -1.2134    1.9529 C   0  0  0  0  0  0  0  0  0  0  0  0
   -5.0862   -0.7907    0.8895 C   0  0  0  0  0  0  0  0  0  0  0  0
   -5.7363   -1.3343   -0.2241 C   0  0  0  0  0  0  0  0  0  0  0  0
   -6.1152   -2.8369   -2.5890 H   0  0  0  0  0  0  0  0  0  0  0  0
   -7.5893   -2.4472   -3.4833 H   0  0  0  0  0  0  0  0  0  0  0  0
   -7.7019   -2.6911   -1.7362 H   0  0  0  0  0  0  0  0  0  0  0  0
   -6.3702    1.5346   -1.9197 H   0  0  0  0  0  0  0  0  0  0  0  0
   -5.2225    2.5021    0.0343 H   0  0  0  0  0  0  0  0  0  0  0  0
   -4.4246    2.2235    2.3240 H   0  0  0  0  0  0  0  0  0  0  0  0
   -4.4811    0.6476    3.1127 H   0  0  0  0  0  0  0  0  0  0  0  0
   -2.3266    1.6316    1.2732 H   0  0  0  0  0  0  0  0  0  0  0  0
    0.1585   -1.7005    3.2377 H   0  0  0  0  0  0  0  0  0  0  0  0
    2.7844    0.8525   -0.6009 H   0  0  0  0  0  0  0  0  0  0  0  0
    3.3194    1.6185    0.9317 H   0  0  0  0  0  0  0  0  0  0  0  0
    5.1851    0.4119    1.8976 H   0  0  0  0  0  0  0  0  0  0  0  0
    5.5476   -1.2116    1.3310 H   0  0  0  0  0  0  0  0  0  0  0  0
    5.2889   -1.4337   -1.4194 H   0  0  0  0  0  0  0  0  0  0  0  0
    6.4944   -0.5739   -3.4003 H   0  0  0  0  0  0  0  0  0  0  0  0
    7.6746    1.6060   -3.2920 H   0  0  0  0  0  0  0  0  0  0  0  0
    7.6498    2.9255   -1.1923 H   0  0  0  0  0  0  0  0  0  0  0  0
    6.4550    2.0807    0.7943 H   0  0  0  0  0  0  0  0  0  0  0  0
    3.4672   -0.9865    2.9075 H   0  0  0  0  0  0  0  0  0  0  0  0
    2.9692   -2.2942    1.7862 H   0  0  0  0  0  0  0  0  0  0  0  0
   -4.7190   -1.4568    1.6696 H   0  0  0  0  0  0  0  0  0  0  0  0
   -5.8564   -2.4115   -0.2657 H   0  0  0  0  0  0  0  0  0  0  0  0
  1  2  1  0
  2  3  1  0
  3  4  2  0
  4  5  1  0
  5  6  2  0
  6  7  1  0
  7  8  1  0
  8  9  1  0
  9 10  2  0
  9 11  1  0
 11 12  2  0
 12 13  1  0
 13 14  2  0
 14 15  1  0
 14 16  1  0
 16 17  1  0
 17 18  1  0
 18 19  1  0
 19 20  2  0
 20 21  1  0
 21 22  2  0
 22 23  1  0
 23 24  2  0
 17 25  1  0
  6 26  1  0
 26 27  2  0
 27  3  1  0
 15 11  1  0
 24 19  1  0
 25 13  1  0
  1 28  1  0
  1 29  1  0
  1 30  1  0
  4 31  1  0
  5 32  1  0
  7 33  1  0
  7 34  1  0
  8 35  1  0
 12 36  1  0
 16 37  1  0
 16 38  1  0
 18 39  1  0
 18 40  1  0
 20 41  1  0
 21 42  1  0
 22 43  1  0
 23 44  1  0
 24 45  1  0
 25 46  1  0
 25 47  1  0
 26 48  1  0
 27 49  1  0
M  END
$$$$
