
     RDKit          3D

 32 33  0  0  0  0  0  0  0  0999 V2000
   -3.4308    0.1872    2.3887 C   0  0  0  0  0  0  0  0  0  0  0  0
   -4.0259    0.4865    1.1306 O   0  0  0  0  0  0  0  0  0  0  0  0
   -3.1916    0.4903    0.0420 C   0  0  0  0  0  0  0  0  0  0  0  0
   -1.8223    0.2193    0.0506 C   0  0  0  0  0  0  0  0  0  0  0  0
   -1.0782    0.2669   -1.1420 C   0  0  0  0  0  0  0  0  0  0  0  0
    0.3557   -0.0516   -1.0842 C   0  0  0  0  0  0  0  0  0  0  0  0
    1.2912    0.6179   -1.7747 C   0  0  0  0  0  0  0  0  0  0  0  0
    2.7609    0.3468   -1.7495 C   0  0  0  0  0  0  0  0  0  0  0  0
    3.4004    0.6889   -2.7459 O   0  0  0  0  0  0  0  0  0  0  0  0
    3.4047   -0.2655   -0.6011 C   0  0  0  0  0  0  0  0  0  0  0  0
    4.7075   -0.7186   -0.4453 C   0  0  0  0  0  0  0  0  0  0  0  0
    4.8322   -1.1993    0.8836 C   0  0  0  0  0  0  0  0  0  0  0  0
    3.5994   -1.0001    1.4542 C   0  0  0  0  0  0  0  0  0  0  0  0
    3.0932   -1.2788    2.7608 N   0  0  0  0  0  4  0  0  0  0  0  0
    1.8991   -1.0344    2.9793 O   0  0  0  0  0  0  0  0  0  0  0  0
    3.8986   -1.7543    3.5718 O   0  0  0  0  0  1  0  0  0  0  0  0
    2.7290   -0.4297    0.5810 O   0  0  0  0  0  0  0  0  0  0  0  0
   -1.7272    0.5645   -2.3487 C   0  0  0  0  0  0  0  0  0  0  0  0
   -3.0953    0.8353   -2.3645 C   0  0  0  0  0  0  0  0  0  0  0  0
   -3.8095    0.7976   -1.1747 C   0  0  0  0  0  0  0  0  0  0  0  0
   -5.1505    1.0666   -1.2176 O   0  0  0  0  0  0  0  0  0  0  0  0
   -4.2178    0.2284    3.1479 H   0  0  0  0  0  0  0  0  0  0  0  0
   -2.6730    0.9318    2.6539 H   0  0  0  0  0  0  0  0  0  0  0  0
   -3.0132   -0.8250    2.3965 H   0  0  0  0  0  0  0  0  0  0  0  0
   -1.3068   -0.0233    0.9753 H   0  0  0  0  0  0  0  0  0  0  0  0
    0.6111   -0.8726   -0.4205 H   0  0  0  0  0  0  0  0  0  0  0  0
    1.0219    1.4176   -2.4589 H   0  0  0  0  0  0  0  0  0  0  0  0
    5.4704   -0.6950   -1.2140 H   0  0  0  0  0  0  0  0  0  0  0  0
    5.7036   -1.6292    1.3591 H   0  0  0  0  0  0  0  0  0  0  0  0
   -1.1818    0.5783   -3.2892 H   0  0  0  0  0  0  0  0  0  0  0  0
   -3.6020    1.0681   -3.2962 H   0  0  0  0  0  0  0  0  0  0  0  0
   -5.4529    0.9854   -0.2920 H   0  0  0  0  0  0  0  0  0  0  0  0
  1  2  1  0
  2  3  1  0
  3  4  2  0
  4  5  1  0
  5  6  1  0
  6  7  2  3
  7  8  1  0
  8  9  2  0
  8 10  1  0
 10 11  2  0
 11 12  1  0
 12 13  2  0
 13 14  1  0
 14 15  2  0
 14 16  1  0
 13 17  1  0
  5 18  2  0
 18 19  1  0
 19 20  2  0
 20 21  1  0
 20  3  1  0
 17 10  1  0
  1 22  1  0
  1 23  1  0
  1 24  1  0
  4 25  1  0
  6 26  1  0
  7 27  1  0
 11 28  1  0
 12 29  1  0
 18 30  1  0
 19 31  1  0
 21 32  1  0
M  CHG  2  14   1  16  -1
M  END
$$$$
