
     RDKit          3D

 46 48  0  0  0  0  0  0  0  0999 V2000
   -1.6941    2.8766   -2.6107 C   0  0  0  0  0  0  0  0  0  0  0  0
   -1.4846    3.0631   -1.1113 C   0  0  0  0  0  0  0  0  0  0  0  0
   -1.0151    1.7692   -0.4328 C   0  0  0  0  0  0  0  0  0  0  0  0
   -1.0942    1.9754    1.3971 S   0  0  0  0  0  0  0  0  0  0  0  0
   -2.7308    1.5346    1.6969 C   0  0  0  0  0  0  0  0  0  0  0  0
   -3.5299    0.8585    0.9105 N   0  0  0  0  0  0  0  0  0  0  0  0
   -4.7112    0.7698    1.6095 C   0  0  0  0  0  0  0  0  0  0  0  0
   -5.9225    0.1619    1.2494 C   0  0  0  0  0  0  0  0  0  0  0  0
   -6.9924    0.2098    2.1526 C   0  0  0  0  0  0  0  0  0  0  0  0
   -6.8587    0.8478    3.3890 C   0  0  0  0  0  0  0  0  0  0  0  0
   -5.6580    1.4601    3.7675 C   0  0  0  0  0  0  0  0  0  0  0  0
   -4.6090    1.3992    2.8483 C   0  0  0  0  0  0  0  0  0  0  0  0
   -3.3234    1.8762    2.8759 N   0  0  0  0  0  0  0  0  0  0  0  0
    0.4387    1.4030   -0.7783 C   0  0  0  0  0  0  0  0  0  0  0  0
    1.2058    2.1985   -1.3119 O   0  0  0  0  0  0  0  0  0  0  0  0
    0.7439    0.0949   -0.4166 N   0  0  0  0  0  0  0  0  0  0  0  0
    1.9601   -0.5913   -0.5993 C   0  0  0  0  0  0  0  0  0  0  0  0
    2.0368   -1.8968   -0.1041 C   0  0  0  0  0  0  0  0  0  0  0  0
    3.2096   -2.6480   -0.2466 C   0  0  0  0  0  0  0  0  0  0  0  0
    4.3292   -2.1092   -0.8885 C   0  0  0  0  0  0  0  0  0  0  0  0
    5.4713   -2.9293   -0.9910 N   0  0  0  0  0  0  0  0  0  0  0  0
    6.6878   -2.6111   -1.5683 C   0  0  0  0  0  0  0  0  0  0  0  0
    7.6745   -3.7489   -1.4776 C   0  0  0  0  0  0  0  0  0  0  0  0
    7.0066   -1.5472   -2.0859 O   0  0  0  0  0  0  0  0  0  0  0  0
    4.2506   -0.8091   -1.3843 C   0  0  0  0  0  0  0  0  0  0  0  0
    3.0751   -0.0557   -1.2406 C   0  0  0  0  0  0  0  0  0  0  0  0
   -0.7658    2.5960   -3.1169 H   0  0  0  0  0  0  0  0  0  0  0  0
   -2.4402    2.0995   -2.8061 H   0  0  0  0  0  0  0  0  0  0  0  0
   -2.0519    3.8090   -3.0589 H   0  0  0  0  0  0  0  0  0  0  0  0
   -0.7640    3.8750   -0.9524 H   0  0  0  0  0  0  0  0  0  0  0  0
   -2.4407    3.3929   -0.6859 H   0  0  0  0  0  0  0  0  0  0  0  0
   -1.6473    0.9312   -0.7488 H   0  0  0  0  0  0  0  0  0  0  0  0
   -6.0209   -0.3335    0.2902 H   0  0  0  0  0  0  0  0  0  0  0  0
   -7.9380   -0.2568    1.8859 H   0  0  0  0  0  0  0  0  0  0  0  0
   -7.7063    0.8699    4.0715 H   0  0  0  0  0  0  0  0  0  0  0  0
   -5.5568    1.9553    4.7272 H   0  0  0  0  0  0  0  0  0  0  0  0
   -2.8847    2.3941    3.6220 H   0  0  0  0  0  0  0  0  0  0  0  0
    0.0159   -0.4089    0.0777 H   0  0  0  0  0  0  0  0  0  0  0  0
    1.1883   -2.3508    0.4014 H   0  0  0  0  0  0  0  0  0  0  0  0
    3.2292   -3.6581    0.1537 H   0  0  0  0  0  0  0  0  0  0  0  0
    5.3899   -3.8531   -0.5865 H   0  0  0  0  0  0  0  0  0  0  0  0
    8.1424   -3.7448   -0.4898 H   0  0  0  0  0  0  0  0  0  0  0  0
    7.1792   -4.7093   -1.6474 H   0  0  0  0  0  0  0  0  0  0  0  0
    8.4450   -3.6241   -2.2444 H   0  0  0  0  0  0  0  0  0  0  0  0
    5.0866   -0.3393   -1.8938 H   0  0  0  0  0  0  0  0  0  0  0  0
    3.0740    0.9508   -1.6474 H   0  0  0  0  0  0  0  0  0  0  0  0
  1  2  1  0
  2  3  1  0
  3  4  1  0
  4  5  1  0
  5  6  2  0
  6  7  1  0
  7  8  2  0
  8  9  1  0
  9 10  2  0
 10 11  1  0
 11 12  2  0
 12 13  1  0
  3 14  1  0
 14 15  2  0
 14 16  1  0
 16 17  1  0
 17 18  2  0
 18 19  1  0
 19 20  2  0
 20 21  1  0
 21 22  1  0
 22 23  1  0
 22 24  2  0
 20 25  1  0
 25 26  2  0
 13  5  1  0
 26 17  1  0
 12  7  1  0
  1 27  1  0
  1 28  1  0
  1 29  1  0
  2 30  1  0
  2 31  1  0
  3 32  1  0
  8 33  1  0
  9 34  1  0
 10 35  1  0
 11 36  1  0
 13 37  1  0
 16 38  1  0
 18 39  1  0
 19 40  1  0
 21 41  1  0
 23 42  1  0
 23 43  1  0
 23 44  1  0
 25 45  1  0
 26 46  1  0
M  END
$$$$
