
     RDKit          3D

 53 56  0  0  0  0  0  0  0  0999 V2000
    6.8200    3.2979    1.0705 C   0  0  0  0  0  0  0  0  0  0  0  0
    6.2940    1.8746    1.1222 C   0  0  0  0  0  0  0  0  0  0  0  0
    6.1630    1.2709   -0.2729 C   0  0  0  0  0  0  0  0  0  0  0  0
    5.7097   -0.0802   -0.1929 O   0  0  0  0  0  0  0  0  0  0  0  0
    4.3682   -0.3258   -0.2655 C   0  0  0  0  0  0  0  0  0  0  0  0
    3.3491    0.6187   -0.1953 C   0  0  0  0  0  0  0  0  0  0  0  0
    2.0072    0.2178   -0.2805 C   0  0  0  0  0  0  0  0  0  0  0  0
    1.6422   -1.1332   -0.4347 C   0  0  0  0  0  0  0  0  0  0  0  0
    0.2264   -1.5470   -0.5309 C   0  0  0  0  0  0  0  0  0  0  0  0
   -0.7103   -0.5883   -0.4473 N   0  0  0  0  0  0  0  0  0  0  0  0
   -2.0006   -0.9582   -0.5274 C   0  0  0  0  0  0  0  0  0  0  0  0
   -2.9910    0.0391   -0.3846 N   0  0  0  0  0  0  0  0  0  0  0  0
   -3.6811   -0.0286    0.9279 C   0  0  0  0  0  0  0  0  0  0  0  0
   -3.5377    1.2788    1.7424 C   0  0  0  0  0  0  0  0  0  0  0  0
   -3.9267    2.5166    1.0332 N   0  0  0  0  0  0  0  0  0  0  0  0
   -5.3303    2.8544    1.2538 C   0  0  0  0  0  0  0  0  0  0  0  0
   -3.6347    2.4208   -0.4175 C   0  0  0  0  0  0  0  0  0  0  0  0
   -2.5309    1.3947   -0.7559 C   0  0  0  0  0  0  0  0  0  0  0  0
   -2.3715   -2.3019   -0.7355 C   0  0  0  0  0  0  0  0  0  0  0  0
   -3.7014   -2.7695   -0.9013 C   0  0  0  0  0  0  0  0  0  0  0  0
   -3.9702   -4.1220   -1.0970 C   0  0  0  0  0  0  0  0  0  0  0  0
   -2.9168   -5.0234   -1.1378 C   0  0  0  0  0  0  0  0  0  0  0  0
   -1.6056   -4.5621   -0.9934 C   0  0  0  0  0  0  0  0  0  0  0  0
   -1.3143   -3.2166   -0.8008 C   0  0  0  0  0  0  0  0  0  0  0  0
   -0.0349   -2.8542   -0.6920 N   0  0  0  0  0  0  0  0  0  0  0  0
    2.6900   -2.0687   -0.4921 C   0  0  0  0  0  0  0  0  0  0  0  0
    4.0298   -1.6712   -0.4054 C   0  0  0  0  0  0  0  0  0  0  0  0
    7.8062    3.3353    0.5969 H   0  0  0  0  0  0  0  0  0  0  0  0
    6.1422    3.9447    0.5049 H   0  0  0  0  0  0  0  0  0  0  0  0
    6.9138    3.7047    2.0819 H   0  0  0  0  0  0  0  0  0  0  0  0
    5.3278    1.8591    1.6380 H   0  0  0  0  0  0  0  0  0  0  0  0
    6.9650    1.2524    1.7260 H   0  0  0  0  0  0  0  0  0  0  0  0
    5.5469    1.8804   -0.9439 H   0  0  0  0  0  0  0  0  0  0  0  0
    7.1567    1.2331   -0.7351 H   0  0  0  0  0  0  0  0  0  0  0  0
    3.5523    1.6758   -0.0644 H   0  0  0  0  0  0  0  0  0  0  0  0
    1.2343    0.9833   -0.2226 H   0  0  0  0  0  0  0  0  0  0  0  0
   -3.3209   -0.8608    1.5463 H   0  0  0  0  0  0  0  0  0  0  0  0
   -4.7458   -0.2105    0.7371 H   0  0  0  0  0  0  0  0  0  0  0  0
   -2.4829    1.3886    2.0268 H   0  0  0  0  0  0  0  0  0  0  0  0
   -4.0827    1.1841    2.6899 H   0  0  0  0  0  0  0  0  0  0  0  0
   -5.5859    3.7881    0.7397 H   0  0  0  0  0  0  0  0  0  0  0  0
   -5.5219    3.0214    2.3194 H   0  0  0  0  0  0  0  0  0  0  0  0
   -6.0079    2.0680    0.9019 H   0  0  0  0  0  0  0  0  0  0  0  0
   -4.5367    2.1360   -0.9765 H   0  0  0  0  0  0  0  0  0  0  0  0
   -3.3315    3.4113   -0.7747 H   0  0  0  0  0  0  0  0  0  0  0  0
   -1.6094    1.6820   -0.2325 H   0  0  0  0  0  0  0  0  0  0  0  0
   -2.3315    1.4276   -1.8338 H   0  0  0  0  0  0  0  0  0  0  0  0
   -4.5293   -2.0643   -0.8942 H   0  0  0  0  0  0  0  0  0  0  0  0
   -4.9934   -4.4651   -1.2234 H   0  0  0  0  0  0  0  0  0  0  0  0
   -3.1057   -6.0827   -1.2917 H   0  0  0  0  0  0  0  0  0  0  0  0
   -0.7849   -5.2750   -1.0396 H   0  0  0  0  0  0  0  0  0  0  0  0
    2.4693   -3.1288   -0.6068 H   0  0  0  0  0  0  0  0  0  0  0  0
    4.8146   -2.4220   -0.4531 H   0  0  0  0  0  0  0  0  0  0  0  0
  1  2  1  0
  2  3  1  0
  3  4  1  0
  4  5  1  0
  5  6  2  0
  6  7  1  0
  7  8  2  0
  8  9  1  0
  9 10  2  0
 10 11  1  0
 11 12  1  0
 12 13  1  0
 13 14  1  0
 14 15  1  0
 15 16  1  0
 15 17  1  0
 17 18  1  0
 11 19  2  0
 19 20  1  0
 20 21  2  0
 21 22  1  0
 22 23  2  0
 23 24  1  0
 24 25  2  0
  8 26  1  0
 26 27  2  0
 27  5  1  0
 25  9  1  0
 18 12  1  0
 24 19  1  0
  1 28  1  0
  1 29  1  0
  1 30  1  0
  2 31  1  0
  2 32  1  0
  3 33  1  0
  3 34  1  0
  6 35  1  0
  7 36  1  0
 13 37  1  0
 13 38  1  0
 14 39  1  0
 14 40  1  0
 16 41  1  0
 16 42  1  0
 16 43  1  0
 17 44  1  0
 17 45  1  0
 18 46  1  0
 18 47  1  0
 20 48  1  0
 21 49  1  0
 22 50  1  0
 23 51  1  0
 26 52  1  0
 27 53  1  0
M  END
$$$$
