
     RDKit          3D

 43 45  0  0  0  0  0  0  0  0999 V2000
    4.7489   -3.3457   -0.1624 C   0  0  0  0  0  0  0  0  0  0  0  0
    5.5878   -2.2098    0.0119 O   0  0  0  0  0  0  0  0  0  0  0  0
    4.9694   -0.9877    0.0421 C   0  0  0  0  0  0  0  0  0  0  0  0
    5.8348    0.0954    0.1957 C   0  0  0  0  0  0  0  0  0  0  0  0
    5.3625    1.4107    0.2444 C   0  0  0  0  0  0  0  0  0  0  0  0
    3.9822    1.6044    0.1341 C   0  0  0  0  0  0  0  0  0  0  0  0
    3.2512    2.7668    0.1471 N   0  0  0  0  0  0  0  0  0  0  0  0
    1.9166    2.4893    0.0102 C   0  0  0  0  0  0  0  0  0  0  0  0
    1.7596    1.1165   -0.0960 C   0  0  0  0  0  0  0  0  0  0  0  0
    0.4874    0.3912   -0.2574 C   0  0  0  0  0  0  0  0  0  0  0  0
    0.4825   -0.8342   -0.3738 O   0  0  0  0  0  0  0  0  0  0  0  0
   -0.8005    1.2414   -0.2768 C   0  0  0  0  0  0  0  0  0  0  0  0
   -2.0495    0.4482   -0.3501 N   0  0  0  0  0  0  0  0  0  0  0  0
   -2.2463   -0.3850    0.8512 C   0  0  0  0  0  0  0  0  0  0  0  0
   -3.7183   -0.6867    1.1739 C   0  0  0  0  0  0  0  0  0  0  0  0
   -4.5441   -0.8233   -0.1049 C   0  0  0  0  0  0  0  0  0  0  0  0
   -5.9964   -1.1787    0.1996 C   0  0  0  0  0  0  0  0  0  0  0  0
   -4.4460    0.4656   -0.9387 C   0  0  0  0  0  0  0  0  0  0  0  0
   -3.2046    1.3059   -0.6119 C   0  0  0  0  0  0  0  0  0  0  0  0
    3.0800    0.5515   -0.0190 C   0  0  0  0  0  0  0  0  0  0  0  0
    3.5914   -0.7675   -0.0653 C   0  0  0  0  0  0  0  0  0  0  0  0
    5.3883   -4.2337   -0.1737 H   0  0  0  0  0  0  0  0  0  0  0  0
    4.0486   -3.4512    0.6728 H   0  0  0  0  0  0  0  0  0  0  0  0
    4.2210   -3.3042   -1.1209 H   0  0  0  0  0  0  0  0  0  0  0  0
    6.9042   -0.0876    0.2785 H   0  0  0  0  0  0  0  0  0  0  0  0
    6.0498    2.2417    0.3629 H   0  0  0  0  0  0  0  0  0  0  0  0
    3.6508    3.6908    0.2430 H   0  0  0  0  0  0  0  0  0  0  0  0
    1.2001    3.2998   -0.0013 H   0  0  0  0  0  0  0  0  0  0  0  0
   -0.8179    1.8878    0.6091 H   0  0  0  0  0  0  0  0  0  0  0  0
   -0.7303    1.8744   -1.1704 H   0  0  0  0  0  0  0  0  0  0  0  0
   -1.7311   -1.3398    0.6978 H   0  0  0  0  0  0  0  0  0  0  0  0
   -1.8019    0.0797    1.7408 H   0  0  0  0  0  0  0  0  0  0  0  0
   -3.7776   -1.6044    1.7712 H   0  0  0  0  0  0  0  0  0  0  0  0
   -4.1300    0.1206    1.7940 H   0  0  0  0  0  0  0  0  0  0  0  0
   -4.1193   -1.6461   -0.6965 H   0  0  0  0  0  0  0  0  0  0  0  0
   -6.4768   -0.4052    0.8083 H   0  0  0  0  0  0  0  0  0  0  0  0
   -6.0574   -2.1251    0.7472 H   0  0  0  0  0  0  0  0  0  0  0  0
   -6.5707   -1.2884   -0.7263 H   0  0  0  0  0  0  0  0  0  0  0  0
   -4.4352    0.1902   -2.0013 H   0  0  0  0  0  0  0  0  0  0  0  0
   -5.3332    1.0947   -0.7942 H   0  0  0  0  0  0  0  0  0  0  0  0
   -3.4055    1.9585    0.2480 H   0  0  0  0  0  0  0  0  0  0  0  0
   -3.0144    1.9648   -1.4683 H   0  0  0  0  0  0  0  0  0  0  0  0
    2.8899   -1.5855   -0.1855 H   0  0  0  0  0  0  0  0  0  0  0  0
  1  2  1  0
  2  3  1  0
  3  4  2  0
  4  5  1  0
  5  6  2  0
  6  7  1  0
  7  8  1  0
  8  9  2  0
  9 10  1  0
 10 11  2  0
 10 12  1  0
 12 13  1  0
 13 14  1  0
 14 15  1  0
 15 16  1  0
 16 17  1  0
 16 18  1  0
 18 19  1  0
  9 20  1  0
 20 21  2  0
 21  3  1  0
 20  6  1  0
 19 13  1  0
  1 22  1  0
  1 23  1  0
  1 24  1  0
  4 25  1  0
  5 26  1  0
  7 27  1  0
  8 28  1  0
 12 29  1  0
 12 30  1  0
 14 31  1  0
 14 32  1  0
 15 33  1  0
 15 34  1  0
 16 35  1  0
 17 36  1  0
 17 37  1  0
 17 38  1  0
 18 39  1  0
 18 40  1  0
 19 41  1  0
 19 42  1  0
 21 43  1  0
M  END
$$$$
