
     RDKit          3D

 63 65  0  0  0  0  0  0  0  0999 V2000
   -0.5509    0.2809    2.3983 C   0  0  0  0  0  0  0  0  0  0  0  0
    0.4639    0.6094    1.3083 C   0  0  0  0  0  0  0  0  0  0  0  0
    0.6940   -0.3957    0.2587 N   0  0  0  0  0  0  0  0  0  0  0  0
    1.4232   -1.5941    0.7450 C   0  0  0  0  0  0  0  0  0  0  0  0
    2.9329   -1.3213    0.8614 C   0  0  0  0  0  0  0  0  0  0  0  0
    3.6371   -1.9648    1.6334 O   0  0  0  0  0  0  0  0  0  0  0  0
    3.3591   -0.3521   -0.0251 N   0  0  0  0  0  0  0  0  0  0  0  0
    4.6748    0.0444   -0.3130 C   0  0  0  0  0  0  0  0  0  0  0  0
    4.8628    0.9222   -1.3856 C   0  0  0  0  0  0  0  0  0  0  0  0
    6.1519    1.3161   -1.7677 C   0  0  0  0  0  0  0  0  0  0  0  0
    7.2739    0.8558   -1.0717 C   0  0  0  0  0  0  0  0  0  0  0  0
    8.5417    1.2740   -1.5312 N   0  0  0  0  0  0  0  0  0  0  0  0
    9.7719    1.0069   -0.9538 C   0  0  0  0  0  0  0  0  0  0  0  0
   10.9151    1.5513   -1.7757 C   0  0  0  0  0  0  0  0  0  0  0  0
    9.9832    0.4343    0.1132 O   0  0  0  0  0  0  0  0  0  0  0  0
    7.0807    0.0019    0.0134 C   0  0  0  0  0  0  0  0  0  0  0  0
    5.7920   -0.4045    0.3884 C   0  0  0  0  0  0  0  0  0  0  0  0
   -0.4952   -0.7245   -0.5555 C   0  0  0  0  0  0  0  0  0  0  0  0
   -1.5499   -1.6245    0.1169 C   0  0  0  0  0  0  0  0  0  0  0  0
   -1.2459   -2.5856    0.8154 O   0  0  0  0  0  0  0  0  0  0  0  0
   -2.8421   -1.2253   -0.1775 N   0  0  0  0  0  0  0  0  0  0  0  0
   -4.0639   -1.8495    0.1740 C   0  0  0  0  0  0  0  0  0  0  0  0
   -4.1170   -3.1056    0.7872 C   0  0  0  0  0  0  0  0  0  0  0  0
   -5.3436   -3.7126    1.0752 C   0  0  0  0  0  0  0  0  0  0  0  0
   -6.5368   -3.0797    0.7444 C   0  0  0  0  0  0  0  0  0  0  0  0
   -6.5096   -1.8241    0.1421 C   0  0  0  0  0  0  0  0  0  0  0  0
   -5.2812   -1.1930   -0.1227 C   0  0  0  0  0  0  0  0  0  0  0  0
   -5.2721    0.1761   -0.7201 C   0  0  0  0  0  0  0  0  0  0  0  0
   -4.3417    0.5170   -1.4531 O   0  0  0  0  0  0  0  0  0  0  0  0
   -6.3303    1.1678   -0.4061 C   0  0  0  0  0  0  0  0  0  0  0  0
   -6.7807    2.0172   -1.4218 C   0  0  0  0  0  0  0  0  0  0  0  0
   -7.7607    2.9719   -1.1448 C   0  0  0  0  0  0  0  0  0  0  0  0
   -8.2830    3.0841    0.1448 C   0  0  0  0  0  0  0  0  0  0  0  0
   -7.8189    2.2521    1.1638 C   0  0  0  0  0  0  0  0  0  0  0  0
   -6.8358    1.2994    0.8937 C   0  0  0  0  0  0  0  0  0  0  0  0
   -0.3802   -0.7051    2.8407 H   0  0  0  0  0  0  0  0  0  0  0  0
   -0.4725    1.0125    3.2121 H   0  0  0  0  0  0  0  0  0  0  0  0
   -1.5771    0.3234    2.0220 H   0  0  0  0  0  0  0  0  0  0  0  0
    0.1604    1.5482    0.8280 H   0  0  0  0  0  0  0  0  0  0  0  0
    1.4203    0.8393    1.7953 H   0  0  0  0  0  0  0  0  0  0  0  0
    1.0587   -1.9362    1.7184 H   0  0  0  0  0  0  0  0  0  0  0  0
    1.3399   -2.4231    0.0327 H   0  0  0  0  0  0  0  0  0  0  0  0
    2.6019    0.0612   -0.5632 H   0  0  0  0  0  0  0  0  0  0  0  0
    4.0142    1.2943   -1.9533 H   0  0  0  0  0  0  0  0  0  0  0  0
    6.2586    1.9823   -2.6184 H   0  0  0  0  0  0  0  0  0  0  0  0
    8.5455    1.8355   -2.3737 H   0  0  0  0  0  0  0  0  0  0  0  0
   11.0567    2.6106   -1.5433 H   0  0  0  0  0  0  0  0  0  0  0  0
   10.7205    1.4299   -2.8465 H   0  0  0  0  0  0  0  0  0  0  0  0
   11.8291    0.9989   -1.5350 H   0  0  0  0  0  0  0  0  0  0  0  0
    7.9147   -0.3893    0.5885 H   0  0  0  0  0  0  0  0  0  0  0  0
    5.7013   -1.0733    1.2408 H   0  0  0  0  0  0  0  0  0  0  0  0
   -0.1708   -1.2465   -1.4647 H   0  0  0  0  0  0  0  0  0  0  0  0
   -0.9527    0.2134   -0.8951 H   0  0  0  0  0  0  0  0  0  0  0  0
   -2.9547   -0.3717   -0.7308 H   0  0  0  0  0  0  0  0  0  0  0  0
   -3.2156   -3.6568    1.0383 H   0  0  0  0  0  0  0  0  0  0  0  0
   -5.3588   -4.6935    1.5459 H   0  0  0  0  0  0  0  0  0  0  0  0
   -7.4864   -3.5676    0.9532 H   0  0  0  0  0  0  0  0  0  0  0  0
   -7.4540   -1.3523   -0.1221 H   0  0  0  0  0  0  0  0  0  0  0  0
   -6.3711    1.9363   -2.4264 H   0  0  0  0  0  0  0  0  0  0  0  0
   -8.1138    3.6342   -1.9312 H   0  0  0  0  0  0  0  0  0  0  0  0
   -9.0421    3.8321    0.3611 H   0  0  0  0  0  0  0  0  0  0  0  0
   -8.2090    2.3584    2.1716 H   0  0  0  0  0  0  0  0  0  0  0  0
   -6.4620    0.6788    1.7026 H   0  0  0  0  0  0  0  0  0  0  0  0
  1  2  1  0
  2  3  1  0
  3  4  1  0
  4  5  1  0
  5  6  2  0
  5  7  1  0
  7  8  1  0
  8  9  2  0
  9 10  1  0
 10 11  2  0
 11 12  1  0
 12 13  1  0
 13 14  1  0
 13 15  2  0
 11 16  1  0
 16 17  2  0
  3 18  1  0
 18 19  1  0
 19 20  2  0
 19 21  1  0
 21 22  1  0
 22 23  2  0
 23 24  1  0
 24 25  2  0
 25 26  1  0
 26 27  2  0
 27 28  1  0
 28 29  2  0
 28 30  1  0
 30 31  2  0
 31 32  1  0
 32 33  2  0
 33 34  1  0
 34 35  2  0
 17  8  1  0
 27 22  1  0
 35 30  1  0
  1 36  1  0
  1 37  1  0
  1 38  1  0
  2 39  1  0
  2 40  1  0
  4 41  1  0
  4 42  1  0
  7 43  1  0
  9 44  1  0
 10 45  1  0
 12 46  1  0
 14 47  1  0
 14 48  1  0
 14 49  1  0
 16 50  1  0
 17 51  1  0
 18 52  1  0
 18 53  1  0
 21 54  1  0
 23 55  1  0
 24 56  1  0
 25 57  1  0
 26 58  1  0
 31 59  1  0
 32 60  1  0
 33 61  1  0
 34 62  1  0
 35 63  1  0
M  END
$$$$
