
     RDKit          3D

 70 72  0  0  0  0  0  0  0  0999 V2000
   -2.6519    1.4711   -3.2319 C   0  0  0  0  0  0  0  0  0  0  0  0
   -2.6140    1.8332   -1.7307 C   0  0  0  0  0  0  0  0  0  0  0  0
   -4.0459    2.1269   -1.2244 C   0  0  0  0  0  0  0  0  0  0  0  0
   -1.8463    3.1780   -1.6297 C   0  0  0  0  0  0  0  0  0  0  0  0
   -1.9662    0.6848   -0.9200 C   0  0  0  0  0  0  0  0  0  0  0  0
   -0.7391    0.8752   -0.2621 C   0  0  0  0  0  0  0  0  0  0  0  0
   -0.1380   -0.1346    0.5075 C   0  0  0  0  0  0  0  0  0  0  0  0
    1.1912    0.1502    1.2290 C   0  0  0  0  0  0  0  0  0  0  0  0
    0.9061    0.3757    2.7151 C   0  0  0  0  0  0  0  0  0  0  0  0
    0.8530   -0.6640    3.6541 C   0  0  0  0  0  0  0  0  0  0  0  0
    0.5604   -0.3841    4.9858 C   0  0  0  0  0  0  0  0  0  0  0  0
    0.3221    0.9331    5.3432 C   0  0  0  0  0  0  0  0  0  0  0  0
    0.3583    1.9659    4.4744 N   0  0  0  0  0  0  0  0  0  0  0  0
    0.6403    1.6621    3.1852 C   0  0  0  0  0  0  0  0  0  0  0  0
    2.2407   -0.8910    0.9855 N   0  0  0  0  0  0  0  0  0  0  0  0
    3.5593   -0.4591    1.5255 C   0  0  0  0  0  0  0  0  0  0  0  0
    4.4626    0.3779    0.5721 C   0  0  0  0  0  0  0  0  0  0  0  0
    3.7267    1.0234   -0.5272 N   0  0  0  0  0  0  0  0  0  0  0  0
    4.6241    1.8323   -1.3641 C   0  0  0  0  0  0  0  0  0  0  0  0
    3.9045    2.6993   -2.4078 C   0  0  0  0  0  0  0  0  0  0  0  0
    4.8525    3.4531   -3.1613 O   0  0  0  0  0  0  0  0  0  0  0  0
    2.9780    0.0153   -1.3014 C   0  0  0  0  0  0  0  0  0  0  0  0
    2.4404   -1.1699   -0.4555 C   0  0  0  0  0  0  0  0  0  0  0  0
   -0.7912   -1.3716    0.6309 C   0  0  0  0  0  0  0  0  0  0  0  0
   -2.0158   -1.6410   -0.0034 C   0  0  0  0  0  0  0  0  0  0  0  0
   -2.7113   -3.0131    0.1762 C   0  0  0  0  0  0  0  0  0  0  0  0
   -4.1277   -2.8334    0.7687 C   0  0  0  0  0  0  0  0  0  0  0  0
   -1.9647   -3.9679    1.1467 C   0  0  0  0  0  0  0  0  0  0  0  0
   -2.7996   -3.7597   -1.1728 C   0  0  0  0  0  0  0  0  0  0  0  0
   -2.5612   -0.5934   -0.7863 C   0  0  0  0  0  0  0  0  0  0  0  0
   -3.7243   -0.8334   -1.4654 O   0  0  0  0  0  0  0  0  0  0  0  0
   -1.6527    1.2141   -3.6049 H   0  0  0  0  0  0  0  0  0  0  0  0
   -3.0222    2.3130   -3.8287 H   0  0  0  0  0  0  0  0  0  0  0  0
   -3.3093    0.6250   -3.4467 H   0  0  0  0  0  0  0  0  0  0  0  0
   -4.7435    1.3094   -1.4220 H   0  0  0  0  0  0  0  0  0  0  0  0
   -4.4653    3.0114   -1.7173 H   0  0  0  0  0  0  0  0  0  0  0  0
   -4.0543    2.3147   -0.1432 H   0  0  0  0  0  0  0  0  0  0  0  0
   -0.8342    3.1012   -2.0446 H   0  0  0  0  0  0  0  0  0  0  0  0
   -2.3567    3.9678   -2.1947 H   0  0  0  0  0  0  0  0  0  0  0  0
   -1.7714    3.5245   -0.5917 H   0  0  0  0  0  0  0  0  0  0  0  0
   -0.2183    1.8274   -0.3265 H   0  0  0  0  0  0  0  0  0  0  0  0
    1.5695    1.1023    0.8350 H   0  0  0  0  0  0  0  0  0  0  0  0
    1.0390   -1.6924    3.3503 H   0  0  0  0  0  0  0  0  0  0  0  0
    0.5134   -1.1762    5.7243 H   0  0  0  0  0  0  0  0  0  0  0  0
    0.0854    1.2003    6.3690 H   0  0  0  0  0  0  0  0  0  0  0  0
    0.6450    2.5189    2.5151 H   0  0  0  0  0  0  0  0  0  0  0  0
    3.4522    0.0789    2.4733 H   0  0  0  0  0  0  0  0  0  0  0  0
    4.1161   -1.3703    1.7844 H   0  0  0  0  0  0  0  0  0  0  0  0
    5.2415   -0.2780    0.1593 H   0  0  0  0  0  0  0  0  0  0  0  0
    4.9715    1.1426    1.1748 H   0  0  0  0  0  0  0  0  0  0  0  0
    5.2040    2.5136   -0.7262 H   0  0  0  0  0  0  0  0  0  0  0  0
    5.3667    1.1982   -1.8693 H   0  0  0  0  0  0  0  0  0  0  0  0
    3.2265    3.4053   -1.9167 H   0  0  0  0  0  0  0  0  0  0  0  0
    3.3273    2.0937   -3.1117 H   0  0  0  0  0  0  0  0  0  0  0  0
    5.3609    2.8247   -3.7029 H   0  0  0  0  0  0  0  0  0  0  0  0
    3.5985   -0.4054   -2.1008 H   0  0  0  0  0  0  0  0  0  0  0  0
    2.1277    0.5177   -1.7739 H   0  0  0  0  0  0  0  0  0  0  0  0
    3.1668   -1.9921   -0.5260 H   0  0  0  0  0  0  0  0  0  0  0  0
    1.5360   -1.5730   -0.9239 H   0  0  0  0  0  0  0  0  0  0  0  0
   -0.3006   -2.1242    1.2419 H   0  0  0  0  0  0  0  0  0  0  0  0
   -4.0899   -2.2788    1.7155 H   0  0  0  0  0  0  0  0  0  0  0  0
   -4.8067   -2.2977    0.0998 H   0  0  0  0  0  0  0  0  0  0  0  0
   -4.5963   -3.8056    0.9731 H   0  0  0  0  0  0  0  0  0  0  0  0
   -2.4987   -4.9185    1.2592 H   0  0  0  0  0  0  0  0  0  0  0  0
   -0.9622   -4.2115    0.7799 H   0  0  0  0  0  0  0  0  0  0  0  0
   -1.8723   -3.5338    2.1491 H   0  0  0  0  0  0  0  0  0  0  0  0
   -3.4659   -3.2697   -1.8868 H   0  0  0  0  0  0  0  0  0  0  0  0
   -3.1907   -4.7752   -1.0335 H   0  0  0  0  0  0  0  0  0  0  0  0
   -1.8132   -3.8451   -1.6440 H   0  0  0  0  0  0  0  0  0  0  0  0
   -3.4470   -1.1987   -2.3238 H   0  0  0  0  0  0  0  0  0  0  0  0
  1  2  1  0
  2  3  1  0
  2  4  1  0
  2  5  1  0
  5  6  2  0
  6  7  1  0
  7  8  1  0
  8  9  1  0
  9 10  2  0
 10 11  1  0
 11 12  2  0
 12 13  1  0
 13 14  2  0
  8 15  1  0
 15 16  1  0
 16 17  1  0
 17 18  1  0
 18 19  1  0
 19 20  1  0
 20 21  1  0
 18 22  1  0
 22 23  1  0
  7 24  2  0
 24 25  1  0
 25 26  1  0
 26 27  1  0
 26 28  1  0
 26 29  1  0
 25 30  2  0
 30 31  1  0
 30  5  1  0
 14  9  1  0
 23 15  1  0
  1 32  1  0
  1 33  1  0
  1 34  1  0
  3 35  1  0
  3 36  1  0
  3 37  1  0
  4 38  1  0
  4 39  1  0
  4 40  1  0
  6 41  1  0
  8 42  1  0
 10 43  1  0
 11 44  1  0
 12 45  1  0
 14 46  1  0
 16 47  1  0
 16 48  1  0
 17 49  1  0
 17 50  1  0
 19 51  1  0
 19 52  1  0
 20 53  1  0
 20 54  1  0
 21 55  1  0
 22 56  1  0
 22 57  1  0
 23 58  1  0
 23 59  1  0
 24 60  1  0
 27 61  1  0
 27 62  1  0
 27 63  1  0
 28 64  1  0
 28 65  1  0
 28 66  1  0
 29 67  1  0
 29 68  1  0
 29 69  1  0
 31 70  1  0
M  END
$$$$
