
     RDKit          3D

 44 45  0  0  0  0  0  0  0  0999 V2000
    6.3632   -2.0861    2.6924 C   0  0  0  0  0  0  0  0  0  0  0  0
    5.3552   -1.2241    1.9897 C   0  0  0  0  0  0  0  0  0  0  0  0
    3.9875   -1.3312    2.2902 C   0  0  0  0  0  0  0  0  0  0  0  0
    3.0419   -0.5409    1.6263 C   0  0  0  0  0  0  0  0  0  0  0  0
    3.4502    0.3490    0.6325 C   0  0  0  0  0  0  0  0  0  0  0  0
    2.5225    1.1644    0.0492 O   0  0  0  0  0  0  0  0  0  0  0  0
    1.8017    0.5028   -0.9893 C   0  0  0  0  0  0  0  0  0  0  0  0
    0.3453    0.1918   -0.6227 C   0  0  0  0  0  0  0  0  0  0  0  0
   -0.0702    0.2581    0.5307 O   0  0  0  0  0  0  0  0  0  0  0  0
   -0.4007   -0.1761   -1.7354 N   0  0  0  0  0  0  0  0  0  0  0  0
   -1.7496   -0.4820   -1.7201 C   0  0  0  0  0  0  0  0  0  0  0  0
   -2.5517   -0.8488   -2.8248 C   0  0  0  0  0  0  0  0  0  0  0  0
   -3.8259   -1.0647   -2.4901 N   0  0  0  0  0  0  0  0  0  0  0  0
   -3.8419   -0.8236   -1.1641 N   0  0  0  0  0  0  0  0  0  0  0  0
   -5.0909   -0.8890   -0.4304 C   0  0  0  0  0  0  0  0  0  0  0  0
   -6.0572    0.2517   -0.7626 C   0  0  0  0  0  0  0  0  0  0  0  0
   -5.4913    1.6575   -0.5571 C   0  0  0  0  0  0  0  0  0  0  0  0
   -5.1094    1.9319    0.8707 C   0  0  0  0  0  0  0  0  0  0  0  0
   -5.4308    1.2853    1.8523 O   0  0  0  0  0  0  0  0  0  0  0  0
   -4.3468    3.0325    0.9852 O   0  0  0  0  0  0  0  0  0  0  0  0
   -2.6176   -0.4986   -0.6572 C   0  0  0  0  0  0  0  0  0  0  0  0
    4.8106    0.4579    0.3395 C   0  0  0  0  0  0  0  0  0  0  0  0
    5.2671    1.3851   -0.6794 N   0  0  0  0  0  4  0  0  0  0  0  0
    6.1575    2.1846   -0.3544 O   0  0  0  0  0  0  0  0  0  0  0  0
    4.7696    1.2775   -1.8110 O   0  0  0  0  0  1  0  0  0  0  0  0
    5.7682   -0.3240    1.0005 C   0  0  0  0  0  0  0  0  0  0  0  0
    5.9597   -2.4851    3.6287 H   0  0  0  0  0  0  0  0  0  0  0  0
    6.6509   -2.9263    2.0516 H   0  0  0  0  0  0  0  0  0  0  0  0
    7.2553   -1.5043    2.9438 H   0  0  0  0  0  0  0  0  0  0  0  0
    3.6456   -2.0213    3.0601 H   0  0  0  0  0  0  0  0  0  0  0  0
    1.9913   -0.6104    1.9060 H   0  0  0  0  0  0  0  0  0  0  0  0
    2.2840   -0.4290   -1.3174 H   0  0  0  0  0  0  0  0  0  0  0  0
    1.7931    1.1862   -1.8472 H   0  0  0  0  0  0  0  0  0  0  0  0
    0.0500   -0.2013   -2.6394 H   0  0  0  0  0  0  0  0  0  0  0  0
   -2.2616   -0.9763   -3.8612 H   0  0  0  0  0  0  0  0  0  0  0  0
   -4.8539   -0.9139    0.6372 H   0  0  0  0  0  0  0  0  0  0  0  0
   -5.5530   -1.8532   -0.6787 H   0  0  0  0  0  0  0  0  0  0  0  0
   -6.3748    0.1564   -1.8086 H   0  0  0  0  0  0  0  0  0  0  0  0
   -6.9594    0.1298   -0.1521 H   0  0  0  0  0  0  0  0  0  0  0  0
   -6.2511    2.3942   -0.8412 H   0  0  0  0  0  0  0  0  0  0  0  0
   -4.6157    1.8104   -1.1964 H   0  0  0  0  0  0  0  0  0  0  0  0
   -4.1606    3.1191    1.9450 H   0  0  0  0  0  0  0  0  0  0  0  0
   -2.4810   -0.2874    0.3942 H   0  0  0  0  0  0  0  0  0  0  0  0
    6.8245   -0.2285    0.7525 H   0  0  0  0  0  0  0  0  0  0  0  0
  1  2  1  0
  2  3  2  0
  3  4  1  0
  4  5  2  0
  5  6  1  0
  6  7  1  0
  7  8  1  0
  8  9  2  0
  8 10  1  0
 10 11  1  0
 11 12  1  0
 12 13  2  0
 13 14  1  0
 14 15  1  0
 15 16  1  0
 16 17  1  0
 17 18  1  0
 18 19  2  0
 18 20  1  0
 14 21  1  0
  5 22  1  0
 22 23  1  0
 23 24  2  0
 23 25  1  0
 22 26  2  0
 26  2  1  0
 21 11  2  0
  1 27  1  0
  1 28  1  0
  1 29  1  0
  3 30  1  0
  4 31  1  0
  7 32  1  0
  7 33  1  0
 10 34  1  0
 12 35  1  0
 15 36  1  0
 15 37  1  0
 16 38  1  0
 16 39  1  0
 17 40  1  0
 17 41  1  0
 20 42  1  0
 21 43  1  0
 26 44  1  0
M  CHG  2  23   1  25  -1
M  END
$$$$
