
     RDKit          3D

 42 44  0  0  0  0  0  0  0  0999 V2000
   -6.4614    1.6560   -0.1674 C   0  0  0  0  0  0  0  0  0  0  0  0
   -6.1442    0.2613    0.1367 N   0  0  0  0  0  0  0  0  0  0  0  0
   -7.0855   -0.4177    1.0256 C   0  0  0  0  0  0  0  0  0  0  0  0
   -4.8023   -0.1396    0.1357 C   0  0  0  0  0  0  0  0  0  0  0  0
   -3.7977    0.6132   -0.4962 C   0  0  0  0  0  0  0  0  0  0  0  0
   -2.4516    0.2111   -0.5142 C   0  0  0  0  0  0  0  0  0  0  0  0
   -2.0526   -0.9725    0.1050 C   0  0  0  0  0  0  0  0  0  0  0  0
   -0.6649   -1.4557    0.0911 C   0  0  0  0  0  0  0  0  0  0  0  0
    0.4148   -0.6575    0.1178 C   0  0  0  0  0  0  0  0  0  0  0  0
    1.7750   -1.2613    0.1017 C   0  0  0  0  0  0  0  0  0  0  0  0
    1.9265   -2.4727   -0.0780 O   0  0  0  0  0  0  0  0  0  0  0  0
    2.9673   -0.3681    0.2189 C   0  0  0  0  0  0  0  0  0  0  0  0
    4.1153   -0.7966   -0.3468 C   0  0  0  0  0  0  0  0  0  0  0  0
    4.2694   -2.0075   -1.0016 O   0  0  0  0  0  0  0  0  0  0  0  0
    5.3191    0.0352   -0.3200 C   0  0  0  0  0  0  0  0  0  0  0  0
    6.5331   -0.3482   -0.9028 C   0  0  0  0  0  0  0  0  0  0  0  0
    7.6462    0.4982   -0.8527 C   0  0  0  0  0  0  0  0  0  0  0  0
    7.5572    1.7380   -0.2196 C   0  0  0  0  0  0  0  0  0  0  0  0
    6.3562    2.1316    0.3645 C   0  0  0  0  0  0  0  0  0  0  0  0
    5.2578    1.2743    0.3052 C   0  0  0  0  0  0  0  0  0  0  0  0
    4.0734    1.7110    0.9168 O   0  0  0  0  0  0  0  0  0  0  0  0
    2.9333    0.9192    0.9478 C   0  0  0  0  0  0  0  0  0  0  0  0
    1.9460    1.2941    1.5713 O   0  0  0  0  0  0  0  0  0  0  0  0
   -3.0356   -1.7554    0.7091 C   0  0  0  0  0  0  0  0  0  0  0  0
   -4.3784   -1.3443    0.7215 C   0  0  0  0  0  0  0  0  0  0  0  0
   -7.5395    1.8420   -0.1023 H   0  0  0  0  0  0  0  0  0  0  0  0
   -6.1754    1.9133   -1.1928 H   0  0  0  0  0  0  0  0  0  0  0  0
   -5.9667    2.3354    0.5355 H   0  0  0  0  0  0  0  0  0  0  0  0
   -6.7909   -0.3019    2.0745 H   0  0  0  0  0  0  0  0  0  0  0  0
   -7.1663   -1.4821    0.7801 H   0  0  0  0  0  0  0  0  0  0  0  0
   -8.0968   -0.0093    0.9188 H   0  0  0  0  0  0  0  0  0  0  0  0
   -4.0347    1.5405   -1.0085 H   0  0  0  0  0  0  0  0  0  0  0  0
   -1.7350    0.8393   -1.0362 H   0  0  0  0  0  0  0  0  0  0  0  0
   -0.5468   -2.5383    0.0802 H   0  0  0  0  0  0  0  0  0  0  0  0
    0.3169    0.4195    0.1461 H   0  0  0  0  0  0  0  0  0  0  0  0
    3.4722   -2.5615   -0.8387 H   0  0  0  0  0  0  0  0  0  0  0  0
    6.6243   -1.3101   -1.4038 H   0  0  0  0  0  0  0  0  0  0  0  0
    8.5825    0.1867   -1.3099 H   0  0  0  0  0  0  0  0  0  0  0  0
    8.4235    2.3936   -0.1816 H   0  0  0  0  0  0  0  0  0  0  0  0
    6.2774    3.0937    0.8626 H   0  0  0  0  0  0  0  0  0  0  0  0
   -2.7759   -2.6981    1.1859 H   0  0  0  0  0  0  0  0  0  0  0  0
   -5.0851   -2.0087    1.2088 H   0  0  0  0  0  0  0  0  0  0  0  0
  1  2  1  0
  2  3  1  0
  2  4  1  0
  4  5  2  0
  5  6  1  0
  6  7  2  0
  7  8  1  0
  8  9  2  3
  9 10  1  0
 10 11  2  0
 10 12  1  0
 12 13  2  0
 13 14  1  0
 13 15  1  0
 15 16  2  0
 16 17  1  0
 17 18  2  0
 18 19  1  0
 19 20  2  0
 20 21  1  0
 21 22  1  0
 22 23  2  0
  7 24  1  0
 24 25  2  0
 25  4  1  0
 22 12  1  0
 20 15  1  0
  1 26  1  0
  1 27  1  0
  1 28  1  0
  3 29  1  0
  3 30  1  0
  3 31  1  0
  5 32  1  0
  6 33  1  0
  8 34  1  0
  9 35  1  0
 14 36  1  0
 16 37  1  0
 17 38  1  0
 18 39  1  0
 19 40  1  0
 24 41  1  0
 25 42  1  0
M  END
$$$$
