
     RDKit          3D

 61 64  0  0  0  0  0  0  0  0999 V2000
    8.7373   -0.9158   -0.8311 C   0  0  0  0  0  0  0  0  0  0  0  0
    7.5724   -0.7516    0.1129 C   0  0  0  0  0  0  0  0  0  0  0  0
    7.5752    0.1272    0.9661 O   0  0  0  0  0  0  0  0  0  0  0  0
    6.5661   -1.6664   -0.1389 N   0  0  0  0  0  0  0  0  0  0  0  0
    5.3422   -1.8111    0.5467 C   0  0  0  0  0  0  0  0  0  0  0  0
    4.5079   -2.8648    0.1463 C   0  0  0  0  0  0  0  0  0  0  0  0
    3.2865   -3.0935    0.7864 C   0  0  0  0  0  0  0  0  0  0  0  0
    2.8819   -2.2477    1.8202 C   0  0  0  0  0  0  0  0  0  0  0  0
    1.3596   -2.5688    2.6865 S   0  0  0  0  0  6  0  0  0  0  0  0
    1.5090   -2.0489    4.0290 O   0  0  0  0  0  0  0  0  0  0  0  0
    1.0138   -3.9560    2.4589 O   0  0  0  0  0  0  0  0  0  0  0  0
    0.2340   -1.6137    1.8769 N   0  0  0  0  0  0  0  0  0  0  0  0
    0.2936   -0.1419    2.0577 C   0  0  0  0  0  0  0  0  0  0  0  0
   -1.0218    0.5077    1.5818 C   0  0  0  0  0  0  0  0  0  0  0  0
   -1.4007    0.1160    0.2024 N   0  0  0  0  0  0  0  0  0  0  0  0
   -1.8008    1.1207   -0.6257 C   0  0  0  0  0  0  0  0  0  0  0  0
   -1.1521    1.5734   -1.6747 N   0  0  0  0  0  0  0  0  0  0  0  0
   -1.9470    2.5485   -2.2173 C   0  0  0  0  0  0  0  0  0  0  0  0
   -1.7205    3.3573   -3.3421 C   0  0  0  0  0  0  0  0  0  0  0  0
   -2.6995    4.2858   -3.7136 C   0  0  0  0  0  0  0  0  0  0  0  0
   -3.8818    4.4066   -2.9815 C   0  0  0  0  0  0  0  0  0  0  0  0
   -4.1234    3.6105   -1.8545 C   0  0  0  0  0  0  0  0  0  0  0  0
   -3.1310    2.6874   -1.4987 C   0  0  0  0  0  0  0  0  0  0  0  0
   -3.0271    1.7441   -0.4982 N   0  0  0  0  0  0  0  0  0  0  0  0
   -4.0615    1.4288    0.4707 C   0  0  0  0  0  0  0  0  0  0  0  0
   -4.7922    0.0991    0.2089 C   0  0  0  0  0  0  0  0  0  0  0  0
   -5.7019   -0.2285    1.3961 C   0  0  0  0  0  0  0  0  0  0  0  0
   -5.6160    0.1404   -1.0813 C   0  0  0  0  0  0  0  0  0  0  0  0
   -0.4881   -0.8657   -0.4222 C   0  0  0  0  0  0  0  0  0  0  0  0
   -0.2211   -2.0499    0.5244 C   0  0  0  0  0  0  0  0  0  0  0  0
    3.7081   -1.2028    2.2374 C   0  0  0  0  0  0  0  0  0  0  0  0
    4.9335   -0.9847    1.5969 C   0  0  0  0  0  0  0  0  0  0  0  0
    8.5084   -0.4207   -1.7798 H   0  0  0  0  0  0  0  0  0  0  0  0
    8.9487   -1.9753   -1.0092 H   0  0  0  0  0  0  0  0  0  0  0  0
    9.6310   -0.4652   -0.3928 H   0  0  0  0  0  0  0  0  0  0  0  0
    6.7394   -2.3335   -0.8812 H   0  0  0  0  0  0  0  0  0  0  0  0
    4.8061   -3.5344   -0.6573 H   0  0  0  0  0  0  0  0  0  0  0  0
    2.6715   -3.9373    0.4844 H   0  0  0  0  0  0  0  0  0  0  0  0
    0.4301    0.1029    3.1161 H   0  0  0  0  0  0  0  0  0  0  0  0
    1.1425    0.2690    1.5000 H   0  0  0  0  0  0  0  0  0  0  0  0
   -1.8282    0.1845    2.2513 H   0  0  0  0  0  0  0  0  0  0  0  0
   -0.9295    1.5984    1.6808 H   0  0  0  0  0  0  0  0  0  0  0  0
   -0.8005    3.2565   -3.9059 H   0  0  0  0  0  0  0  0  0  0  0  0
   -2.5378    4.9150   -4.5863 H   0  0  0  0  0  0  0  0  0  0  0  0
   -4.6311    5.1320   -3.2914 H   0  0  0  0  0  0  0  0  0  0  0  0
   -5.0484    3.7091   -1.2956 H   0  0  0  0  0  0  0  0  0  0  0  0
   -4.7788    2.2580    0.4929 H   0  0  0  0  0  0  0  0  0  0  0  0
   -3.5861    1.4244    1.4573 H   0  0  0  0  0  0  0  0  0  0  0  0
   -4.0591   -0.7122    0.1160 H   0  0  0  0  0  0  0  0  0  0  0  0
   -6.2095   -1.1882    1.2441 H   0  0  0  0  0  0  0  0  0  0  0  0
   -5.1197   -0.3020    2.3211 H   0  0  0  0  0  0  0  0  0  0  0  0
   -6.4677    0.5419    1.5369 H   0  0  0  0  0  0  0  0  0  0  0  0
   -6.3486    0.9542   -1.0587 H   0  0  0  0  0  0  0  0  0  0  0  0
   -4.9738    0.2838   -1.9565 H   0  0  0  0  0  0  0  0  0  0  0  0
   -6.1592   -0.7993   -1.2271 H   0  0  0  0  0  0  0  0  0  0  0  0
   -0.9332   -1.2558   -1.3465 H   0  0  0  0  0  0  0  0  0  0  0  0
    0.4630   -0.3861   -0.6903 H   0  0  0  0  0  0  0  0  0  0  0  0
   -1.1478   -2.6231    0.6595 H   0  0  0  0  0  0  0  0  0  0  0  0
    0.5112   -2.7104    0.0507 H   0  0  0  0  0  0  0  0  0  0  0  0
    3.4205   -0.5625    3.0683 H   0  0  0  0  0  0  0  0  0  0  0  0
    5.5521   -0.1654    1.9535 H   0  0  0  0  0  0  0  0  0  0  0  0
  1  2  1  0
  2  3  2  0
  2  4  1  0
  4  5  1  0
  5  6  2  0
  6  7  1  0
  7  8  2  0
  8  9  1  0
  9 10  2  0
  9 11  2  0
  9 12  1  0
 12 13  1  0
 13 14  1  0
 14 15  1  0
 15 16  1  0
 16 17  2  0
 17 18  1  0
 18 19  2  0
 19 20  1  0
 20 21  2  0
 21 22  1  0
 22 23  2  0
 23 24  1  0
 24 25  1  0
 25 26  1  0
 26 27  1  0
 26 28  1  0
 15 29  1  0
 29 30  1  0
  8 31  1  0
 31 32  2  0
 32  5  1  0
 30 12  1  0
 24 16  1  0
 23 18  1  0
  1 33  1  0
  1 34  1  0
  1 35  1  0
  4 36  1  0
  6 37  1  0
  7 38  1  0
 13 39  1  0
 13 40  1  0
 14 41  1  0
 14 42  1  0
 19 43  1  0
 20 44  1  0
 21 45  1  0
 22 46  1  0
 25 47  1  0
 25 48  1  0
 26 49  1  0
 27 50  1  0
 27 51  1  0
 27 52  1  0
 28 53  1  0
 28 54  1  0
 28 55  1  0
 29 56  1  0
 29 57  1  0
 30 58  1  0
 30 59  1  0
 31 60  1  0
 32 61  1  0
M  END
$$$$
