
     RDKit          3D

 51 56  0  0  0  0  0  0  0  0999 V2000
   -2.7368   -1.2440   -1.2725 O   0  0  0  0  0  0  0  0  0  0  0  0
   -2.5594   -1.0516   -0.0663 C   0  0  0  0  0  0  0  0  0  0  0  0
   -3.2274   -1.9769    0.8955 C   0  0  0  0  0  0  0  0  0  0  0  0
   -2.7344   -2.2062    2.1861 C   0  0  0  0  0  0  0  0  0  0  0  0
   -3.3981   -3.0902    3.0441 C   0  0  0  0  0  0  0  0  0  0  0  0
   -4.5486   -3.7490    2.6131 C   0  0  0  0  0  0  0  0  0  0  0  0
   -5.3582   -4.8357    3.6723 Cl  0  0  0  0  0  0  0  0  0  0  0  0
   -5.0417   -3.5369    1.3281 C   0  0  0  0  0  0  0  0  0  0  0  0
   -4.3798   -2.6551    0.4695 C   0  0  0  0  0  0  0  0  0  0  0  0
   -1.6849    0.0730    0.4930 C   0  0  0  0  0  0  0  0  0  0  0  0
   -0.2505   -0.1500    0.1987 C   0  0  0  0  0  0  0  0  0  0  0  0
    0.2173    0.6753   -0.8410 C   0  0  0  0  0  0  0  0  0  0  0  0
    1.5397    0.3705   -1.0553 C   0  0  0  0  0  0  0  0  0  0  0  0
    2.3967    0.9297   -1.9089 O   0  0  0  0  0  0  0  0  0  0  0  0
    1.8903   -0.6443   -0.1423 N   0  0  0  0  0  0  0  0  0  0  0  0
    3.1742   -1.2558   -0.0224 C   0  0  0  0  0  0  0  0  0  0  0  0
    3.9219   -1.5552   -1.1699 C   0  0  0  0  0  0  0  0  0  0  0  0
    5.1775   -2.1563   -1.0467 C   0  0  0  0  0  0  0  0  0  0  0  0
    5.6852   -2.4537    0.2170 C   0  0  0  0  0  0  0  0  0  0  0  0
    7.2319   -3.1908    0.3645 Cl  0  0  0  0  0  0  0  0  0  0  0  0
    4.9473   -2.1580    1.3621 C   0  0  0  0  0  0  0  0  0  0  0  0
    3.6894   -1.5605    1.2458 C   0  0  0  0  0  0  0  0  0  0  0  0
    0.7579   -0.9684    0.6230 C   0  0  0  0  0  0  0  0  0  0  0  0
    0.6940   -1.9518    1.5195 O   0  0  0  0  0  0  0  0  0  0  0  0
   -0.8806    1.5427   -1.3612 C   0  0  0  0  0  0  0  0  0  0  0  0
   -0.4418    2.9664   -1.5059 C   0  0  0  0  0  0  0  0  0  0  0  0
    0.5221    3.3747   -2.4401 C   0  0  0  0  0  0  0  0  0  0  0  0
    0.8566    4.7244   -2.5844 C   0  0  0  0  0  0  0  0  0  0  0  0
    0.2113    5.6919   -1.8171 C   0  0  0  0  0  0  0  0  0  0  0  0
   -0.7802    5.3112   -0.9157 C   0  0  0  0  0  0  0  0  0  0  0  0
   -1.1029    3.9570   -0.7792 C   0  0  0  0  0  0  0  0  0  0  0  0
   -2.1831    3.5643    0.1287 C   0  0  0  0  0  0  0  0  0  0  0  0
   -2.5459    2.3456    0.3841 N   0  0  0  0  0  0  0  0  0  0  0  0
   -1.9074    1.3255   -0.2913 N   0  0  0  0  0  0  0  0  0  0  0  0
   -1.8254   -1.7296    2.5437 H   0  0  0  0  0  0  0  0  0  0  0  0
   -3.0077   -3.2641    4.0438 H   0  0  0  0  0  0  0  0  0  0  0  0
   -5.9354   -4.0521    0.9860 H   0  0  0  0  0  0  0  0  0  0  0  0
   -4.7685   -2.4949   -0.5353 H   0  0  0  0  0  0  0  0  0  0  0  0
   -1.8779    0.2864    1.5472 H   0  0  0  0  0  0  0  0  0  0  0  0
    3.2980    0.8518   -1.5485 H   0  0  0  0  0  0  0  0  0  0  0  0
    3.5269   -1.3738   -2.1687 H   0  0  0  0  0  0  0  0  0  0  0  0
    5.7490   -2.3993   -1.9394 H   0  0  0  0  0  0  0  0  0  0  0  0
    5.3501   -2.3807    2.3473 H   0  0  0  0  0  0  0  0  0  0  0  0
    3.1499   -1.2998    2.1552 H   0  0  0  0  0  0  0  0  0  0  0  0
    1.3987   -2.5982    1.3306 H   0  0  0  0  0  0  0  0  0  0  0  0
   -1.2965    1.1519   -2.2962 H   0  0  0  0  0  0  0  0  0  0  0  0
    1.0146    2.6402   -3.0741 H   0  0  0  0  0  0  0  0  0  0  0  0
    1.6153    5.0181   -3.3058 H   0  0  0  0  0  0  0  0  0  0  0  0
    0.4699    6.7410   -1.9345 H   0  0  0  0  0  0  0  0  0  0  0  0
   -1.2987    6.0697   -0.3361 H   0  0  0  0  0  0  0  0  0  0  0  0
   -2.7138    4.3718    0.6600 H   0  0  0  0  0  0  0  0  0  0  0  0
  1  2  2  0
  2  3  1  0
  3  4  2  0
  4  5  1  0
  5  6  2  0
  6  7  1  0
  6  8  1  0
  8  9  2  0
  2 10  1  0
 10 11  1  0
 11 12  1  0
 12 13  2  0
 13 14  1  0
 13 15  1  0
 15 16  1  0
 16 17  2  0
 17 18  1  0
 18 19  2  0
 19 20  1  0
 19 21  1  0
 21 22  2  0
 15 23  1  0
 23 24  1  0
 12 25  1  0
 25 26  1  0
 26 27  2  0
 27 28  1  0
 28 29  2  0
 29 30  1  0
 30 31  2  0
 31 32  1  0
 32 33  2  0
 33 34  1  0
  9  3  1  0
 34 10  1  0
 23 11  2  0
 34 25  1  0
 22 16  1  0
 31 26  1  0
  4 35  1  0
  5 36  1  0
  8 37  1  0
  9 38  1  0
 10 39  1  0
 14 40  1  0
 17 41  1  0
 18 42  1  0
 21 43  1  0
 22 44  1  0
 24 45  1  0
 25 46  1  0
 27 47  1  0
 28 48  1  0
 29 49  1  0
 30 50  1  0
 32 51  1  0
M  END
$$$$
