
     RDKit          3D

 45 47  0  0  0  0  0  0  0  0999 V2000
    2.8675   -3.0504    0.2040 O   0  0  0  0  0  0  0  0  0  0  0  0
    2.1723   -2.2736    0.8657 C   0  0  0  0  0  0  0  0  0  0  0  0
    2.7055   -1.6464    2.1541 C   0  0  0  0  0  0  0  0  0  0  0  0
    4.4528   -1.1380    1.9881 S   0  0  0  0  0  0  0  0  0  0  0  0
    4.2375    0.2161    0.8452 C   0  0  0  0  0  0  0  0  0  0  0  0
    3.9946    1.5087    1.3272 C   0  0  0  0  0  0  0  0  0  0  0  0
    3.8119    2.5678    0.4337 C   0  0  0  0  0  0  0  0  0  0  0  0
    3.8782    2.3328   -0.9405 C   0  0  0  0  0  0  0  0  0  0  0  0
    3.6387    3.7675   -2.1518 Br  0  0  0  0  0  0  0  0  0  0  0  0
    4.1260    1.0512   -1.4274 C   0  0  0  0  0  0  0  0  0  0  0  0
    4.3095   -0.0063   -0.5333 C   0  0  0  0  0  0  0  0  0  0  0  0
    0.8613   -1.9854    0.4758 N   0  0  0  0  0  0  0  0  0  0  0  0
    0.0296   -0.9540    1.1077 C   0  0  0  0  0  0  0  0  0  0  0  0
   -1.4764   -1.1104    0.8298 C   0  0  0  0  0  0  0  0  0  0  0  0
   -1.7839   -1.3574   -0.6070 N   0  0  0  0  0  0  0  0  0  0  0  0
   -1.8270   -0.0007   -1.6371 S   0  0  0  0  0  6  0  0  0  0  0  0
   -2.1560   -0.4527   -2.9716 O   0  0  0  0  0  0  0  0  0  0  0  0
   -0.6369    0.7830   -1.3800 O   0  0  0  0  0  0  0  0  0  0  0  0
   -3.2344    0.8957   -1.0266 C   0  0  0  0  0  0  0  0  0  0  0  0
   -4.4998    0.3039   -1.1039 C   0  0  0  0  0  0  0  0  0  0  0  0
   -5.6133    0.9964   -0.6210 C   0  0  0  0  0  0  0  0  0  0  0  0
   -5.4564    2.2685   -0.0694 C   0  0  0  0  0  0  0  0  0  0  0  0
   -4.1900    2.8567   -0.0021 C   0  0  0  0  0  0  0  0  0  0  0  0
   -3.0730    2.1731   -0.4843 C   0  0  0  0  0  0  0  0  0  0  0  0
   -0.9972   -2.5169   -1.1184 C   0  0  0  0  0  0  0  0  0  0  0  0
    0.5076   -2.3221   -0.9111 C   0  0  0  0  0  0  0  0  0  0  0  0
    2.6273   -2.3962    2.9487 H   0  0  0  0  0  0  0  0  0  0  0  0
    2.1524   -0.7612    2.4635 H   0  0  0  0  0  0  0  0  0  0  0  0
    3.9503    1.7019    2.3967 H   0  0  0  0  0  0  0  0  0  0  0  0
    3.6240    3.5666    0.8149 H   0  0  0  0  0  0  0  0  0  0  0  0
    4.1776    0.8631   -2.4958 H   0  0  0  0  0  0  0  0  0  0  0  0
    4.5041   -1.0045   -0.9188 H   0  0  0  0  0  0  0  0  0  0  0  0
    0.1643   -0.9927    2.1923 H   0  0  0  0  0  0  0  0  0  0  0  0
    0.4014    0.0168    0.7656 H   0  0  0  0  0  0  0  0  0  0  0  0
   -2.0228   -0.2401    1.2047 H   0  0  0  0  0  0  0  0  0  0  0  0
   -1.8591   -1.9708    1.3944 H   0  0  0  0  0  0  0  0  0  0  0  0
   -4.6203   -0.6850   -1.5414 H   0  0  0  0  0  0  0  0  0  0  0  0
   -6.6038    0.5487   -0.6813 H   0  0  0  0  0  0  0  0  0  0  0  0
   -6.3277    2.8095    0.2989 H   0  0  0  0  0  0  0  0  0  0  0  0
   -4.0781    3.8528    0.4182 H   0  0  0  0  0  0  0  0  0  0  0  0
   -2.0926    2.6420   -0.4403 H   0  0  0  0  0  0  0  0  0  0  0  0
   -1.3330   -3.4101   -0.5747 H   0  0  0  0  0  0  0  0  0  0  0  0
   -1.2224   -2.7014   -2.1729 H   0  0  0  0  0  0  0  0  0  0  0  0
    1.0232   -3.2351   -1.2202 H   0  0  0  0  0  0  0  0  0  0  0  0
    0.8864   -1.5113   -1.5433 H   0  0  0  0  0  0  0  0  0  0  0  0
  1  2  2  0
  2  3  1  0
  3  4  1  0
  4  5  1  0
  5  6  2  0
  6  7  1  0
  7  8  2  0
  8  9  1  0
  8 10  1  0
 10 11  2  0
  2 12  1  0
 12 13  1  0
 13 14  1  0
 14 15  1  0
 15 16  1  0
 16 17  2  0
 16 18  2  0
 16 19  1  0
 19 20  2  0
 20 21  1  0
 21 22  2  0
 22 23  1  0
 23 24  2  0
 15 25  1  0
 25 26  1  0
 11  5  1  0
 26 12  1  0
 24 19  1  0
  3 27  1  0
  3 28  1  0
  6 29  1  0
  7 30  1  0
 10 31  1  0
 11 32  1  0
 13 33  1  0
 13 34  1  0
 14 35  1  0
 14 36  1  0
 20 37  1  0
 21 38  1  0
 22 39  1  0
 23 40  1  0
 24 41  1  0
 25 42  1  0
 25 43  1  0
 26 44  1  0
 26 45  1  0
M  END
$$$$
