
     RDKit          3D

 39 41  0  0  0  0  0  0  0  0999 V2000
   -8.2574    1.5847   -0.6792 C   0  0  0  0  0  0  0  0  0  0  0  0
   -6.9371    1.8777    0.0107 C   0  0  0  0  0  0  0  0  0  0  0  0
   -5.9359    1.0573   -0.5891 O   0  0  0  0  0  0  0  0  0  0  0  0
   -4.6597    1.1687   -0.1062 C   0  0  0  0  0  0  0  0  0  0  0  0
   -4.2486    2.0153    0.9205 C   0  0  0  0  0  0  0  0  0  0  0  0
   -2.9076    2.0415    1.3300 C   0  0  0  0  0  0  0  0  0  0  0  0
   -1.9630    1.2069    0.7018 C   0  0  0  0  0  0  0  0  0  0  0  0
   -0.6132    1.1302    1.0031 N   0  0  0  0  0  0  0  0  0  0  0  0
   -0.0379    0.2496    0.2205 C   0  0  0  0  0  0  0  0  0  0  0  0
    1.3059   -0.0032    0.3306 N   0  0  0  0  0  0  0  0  0  0  0  0
    2.0530   -0.8915   -0.4112 C   0  0  0  0  0  0  0  0  0  0  0  0
    1.6571   -1.6240   -1.3092 O   0  0  0  0  0  0  0  0  0  0  0  0
    3.5062   -0.8768    0.0162 C   0  0  0  0  0  0  0  0  0  0  0  0
    4.3319   -1.8573   -0.8045 C   0  0  0  0  0  0  0  0  0  0  0  0
    5.7270   -1.8443   -0.3966 N   0  0  0  0  0  0  0  0  0  0  0  0
    6.6959   -1.0310   -0.9219 C   0  0  0  0  0  0  0  0  0  0  0  0
    7.8778   -1.3065   -0.2693 C   0  0  0  0  0  0  0  0  0  0  0  0
    7.6104   -2.3235    0.6781 C   0  0  0  0  0  0  0  0  0  0  0  0
    6.2730   -2.6392    0.5762 C   0  0  0  0  0  0  0  0  0  0  0  0
   -1.0448   -0.5306   -0.9041 S   0  0  0  0  0  0  0  0  0  0  0  0
   -2.3932    0.3659   -0.3244 C   0  0  0  0  0  0  0  0  0  0  0  0
   -3.7334    0.3323   -0.7416 C   0  0  0  0  0  0  0  0  0  0  0  0
   -9.0624    2.1907   -0.2541 H   0  0  0  0  0  0  0  0  0  0  0  0
   -8.5193    0.5264   -0.5768 H   0  0  0  0  0  0  0  0  0  0  0  0
   -8.1864    1.7931   -1.7519 H   0  0  0  0  0  0  0  0  0  0  0  0
   -6.6910    2.9373   -0.1233 H   0  0  0  0  0  0  0  0  0  0  0  0
   -7.0313    1.6440    1.0774 H   0  0  0  0  0  0  0  0  0  0  0  0
   -4.9431    2.6746    1.4313 H   0  0  0  0  0  0  0  0  0  0  0  0
   -2.5888    2.7021    2.1305 H   0  0  0  0  0  0  0  0  0  0  0  0
    1.7494    0.5504    1.0510 H   0  0  0  0  0  0  0  0  0  0  0  0
    3.5596   -1.1341    1.0811 H   0  0  0  0  0  0  0  0  0  0  0  0
    3.8955    0.1415   -0.1049 H   0  0  0  0  0  0  0  0  0  0  0  0
    3.9643   -2.8841   -0.6904 H   0  0  0  0  0  0  0  0  0  0  0  0
    4.2981   -1.6132   -1.8730 H   0  0  0  0  0  0  0  0  0  0  0  0
    6.4737   -0.3273   -1.7136 H   0  0  0  0  0  0  0  0  0  0  0  0
    8.8308   -0.8298   -0.4591 H   0  0  0  0  0  0  0  0  0  0  0  0
    8.3178   -2.7804    1.3579 H   0  0  0  0  0  0  0  0  0  0  0  0
    5.6752   -3.3633    1.1146 H   0  0  0  0  0  0  0  0  0  0  0  0
   -4.0488   -0.3298   -1.5429 H   0  0  0  0  0  0  0  0  0  0  0  0
  1  2  1  0
  2  3  1  0
  3  4  1  0
  4  5  2  0
  5  6  1  0
  6  7  2  0
  7  8  1  0
  8  9  2  0
  9 10  1  0
 10 11  1  0
 11 12  2  0
 11 13  1  0
 13 14  1  0
 14 15  1  0
 15 16  1  0
 16 17  2  0
 17 18  1  0
 18 19  2  0
  9 20  1  0
 20 21  1  0
 21 22  2  0
 22  4  1  0
 21  7  1  0
 19 15  1  0
  1 23  1  0
  1 24  1  0
  1 25  1  0
  2 26  1  0
  2 27  1  0
  5 28  1  0
  6 29  1  0
 10 30  1  0
 13 31  1  0
 13 32  1  0
 14 33  1  0
 14 34  1  0
 16 35  1  0
 17 36  1  0
 18 37  1  0
 19 38  1  0
 22 39  1  0
M  END
$$$$
