
     RDKit          3D

 59 63  0  0  0  0  0  0  0  0999 V2000
   -0.2759    2.5970   -0.9165 C   0  0  0  0  0  0  0  0  0  0  0  0
   -1.6510    1.9426   -0.9277 C   0  0  0  0  0  0  0  0  0  0  0  0
   -1.5842    0.4027   -1.0521 C   0  0  0  0  0  0  0  0  0  0  0  0
   -1.0395   -0.2428    0.1858 N   0  0  0  0  0  0  0  0  0  0  0  0
   -1.4578   -1.5993    0.2547 C   0  0  0  0  0  0  0  0  0  0  0  0
   -2.7556   -1.8834   -0.0065 N   0  0  0  0  0  0  0  0  0  0  0  0
   -3.1714   -3.1588    0.0978 C   0  0  0  0  0  0  0  0  0  0  0  0
   -4.4978   -3.4755   -0.1708 C   0  0  0  0  0  0  0  0  0  0  0  0
   -4.9661   -4.7872   -0.0719 C   0  0  0  0  0  0  0  0  0  0  0  0
   -4.0923   -5.7992    0.3029 C   0  0  0  0  0  0  0  0  0  0  0  0
   -2.7593   -5.4890    0.5769 C   0  0  0  0  0  0  0  0  0  0  0  0
   -2.2872   -4.1856    0.4817 C   0  0  0  0  0  0  0  0  0  0  0  0
   -1.0003   -3.9184    0.7592 N   0  0  0  0  0  0  0  0  0  0  0  0
   -0.5775   -2.6229    0.6469 C   0  0  0  0  0  0  0  0  0  0  0  0
    0.8756   -2.3991    0.9867 C   0  0  0  0  0  0  0  0  0  0  0  0
    1.0863   -1.4881    2.1207 C   0  0  0  0  0  0  0  0  0  0  0  0
    1.2428   -0.7608    3.0140 N   0  0  0  0  0  0  0  0  0  0  0  0
    1.7252   -2.0175   -0.2143 C   0  0  0  0  0  0  0  0  0  0  0  0
    2.4156   -2.8562   -0.7980 O   0  0  0  0  0  0  0  0  0  0  0  0
    1.7023   -0.7005   -0.6120 N   0  0  0  0  0  0  0  0  0  0  0  0
    2.5388   -0.1891   -1.6771 C   0  0  0  0  0  0  0  0  0  0  0  0
    3.3447    0.9946   -1.2028 C   0  0  0  0  0  0  0  0  0  0  0  0
    4.2084    0.8669   -0.0867 C   0  0  0  0  0  0  0  0  0  0  0  0
    4.9630    1.9510    0.3730 C   0  0  0  0  0  0  0  0  0  0  0  0
    4.8419    3.1456   -0.3009 C   0  0  0  0  0  0  0  0  0  0  0  0
    4.0165    3.2791   -1.3919 C   0  0  0  0  0  0  0  0  0  0  0  0
    3.2645    2.2260   -1.8726 C   0  0  0  0  0  0  0  0  0  0  0  0
    4.0389    4.5372   -1.9092 O   0  0  0  0  0  0  0  0  0  0  0  0
    4.9757    5.1795   -1.0169 C   0  0  0  0  0  0  0  0  0  0  0  0
    5.4909    4.3009    0.0042 O   0  0  0  0  0  0  0  0  0  0  0  0
   -1.5029    0.4618    1.4259 C   0  0  0  0  0  0  0  0  0  0  0  0
   -2.7123    1.3787    1.1605 C   0  0  0  0  0  0  0  0  0  0  0  0
   -3.1678    2.0639    2.4435 C   0  0  0  0  0  0  0  0  0  0  0  0
   -2.3843    2.4109    0.2162 O   0  0  0  0  0  0  0  0  0  0  0  0
   -0.3741    3.6855   -0.8451 H   0  0  0  0  0  0  0  0  0  0  0  0
    0.3208    2.2820   -0.0550 H   0  0  0  0  0  0  0  0  0  0  0  0
    0.2744    2.3598   -1.8311 H   0  0  0  0  0  0  0  0  0  0  0  0
   -2.1842    2.3257   -1.8063 H   0  0  0  0  0  0  0  0  0  0  0  0
   -0.9552    0.1211   -1.9061 H   0  0  0  0  0  0  0  0  0  0  0  0
   -2.6034    0.0658   -1.2758 H   0  0  0  0  0  0  0  0  0  0  0  0
   -5.1821   -2.6821   -0.4640 H   0  0  0  0  0  0  0  0  0  0  0  0
   -6.0084   -5.0124   -0.2860 H   0  0  0  0  0  0  0  0  0  0  0  0
   -4.4420   -6.8251    0.3844 H   0  0  0  0  0  0  0  0  0  0  0  0
   -2.0720   -6.2786    0.8724 H   0  0  0  0  0  0  0  0  0  0  0  0
    1.2822   -3.3683    1.3171 H   0  0  0  0  0  0  0  0  0  0  0  0
    0.9907   -0.0846   -0.2221 H   0  0  0  0  0  0  0  0  0  0  0  0
    1.8645    0.0987   -2.4909 H   0  0  0  0  0  0  0  0  0  0  0  0
    3.2151   -0.9608   -2.0611 H   0  0  0  0  0  0  0  0  0  0  0  0
    4.2902   -0.0883    0.4310 H   0  0  0  0  0  0  0  0  0  0  0  0
    5.6188    1.8555    1.2323 H   0  0  0  0  0  0  0  0  0  0  0  0
    2.6282    2.3654   -2.7394 H   0  0  0  0  0  0  0  0  0  0  0  0
    4.4744    6.0256   -0.5317 H   0  0  0  0  0  0  0  0  0  0  0  0
    5.8160    5.5625   -1.6073 H   0  0  0  0  0  0  0  0  0  0  0  0
   -0.6611    1.0783    1.7648 H   0  0  0  0  0  0  0  0  0  0  0  0
   -1.7303   -0.2403    2.2399 H   0  0  0  0  0  0  0  0  0  0  0  0
   -3.5556    0.8029    0.7585 H   0  0  0  0  0  0  0  0  0  0  0  0
   -4.0179    2.7240    2.2419 H   0  0  0  0  0  0  0  0  0  0  0  0
   -2.3707    2.6923    2.8571 H   0  0  0  0  0  0  0  0  0  0  0  0
   -3.4661    1.3307    3.2003 H   0  0  0  0  0  0  0  0  0  0  0  0
  1  2  1  0
  2  3  1  0
  3  4  1  0
  4  5  1  0
  5  6  2  0
  6  7  1  0
  7  8  2  0
  8  9  1  0
  9 10  2  0
 10 11  1  0
 11 12  2  0
 12 13  1  0
 13 14  2  0
 14 15  1  0
 15 16  1  0
 16 17  3  0
 15 18  1  0
 18 19  2  0
 18 20  1  0
 20 21  1  0
 21 22  1  0
 22 23  2  0
 23 24  1  0
 24 25  2  0
 25 26  1  0
 26 27  2  0
 26 28  1  0
 28 29  1  0
 29 30  1  0
  4 31  1  0
 31 32  1  0
 32 33  1  0
 32 34  1  0
 34  2  1  0
 14  5  1  0
 27 22  1  0
 12  7  1  0
 30 25  1  0
  1 35  1  0
  1 36  1  0
  1 37  1  0
  2 38  1  0
  3 39  1  0
  3 40  1  0
  8 41  1  0
  9 42  1  0
 10 43  1  0
 11 44  1  0
 15 45  1  0
 20 46  1  0
 21 47  1  0
 21 48  1  0
 23 49  1  0
 24 50  1  0
 27 51  1  0
 29 52  1  0
 29 53  1  0
 31 54  1  0
 31 55  1  0
 32 56  1  0
 33 57  1  0
 33 58  1  0
 33 59  1  0
M  END
$$$$
