
     RDKit          3D

 42 45  0  0  0  0  0  0  0  0999 V2000
   -2.9190    0.3045   -1.9620 O   0  0  0  0  0  0  0  0  0  0  0  0
   -3.2229    0.3654   -0.7665 C   0  0  0  0  0  0  0  0  0  0  0  0
   -2.2124    0.7926    0.2176 C   0  0  0  0  0  0  0  0  0  0  0  0
   -0.8911    1.2241   -0.0971 C   0  0  0  0  0  0  0  0  0  0  0  0
   -0.3096    1.5124    1.1131 C   0  0  0  0  0  0  0  0  0  0  0  0
    1.0156    1.9977    1.5602 C   0  0  0  0  0  0  0  0  0  0  0  0
    1.8599    2.1939    0.4202 O   0  0  0  0  0  0  0  0  0  0  0  0
    2.7878    1.2248    0.1631 C   0  0  0  0  0  0  0  0  0  0  0  0
    3.9479    1.6672   -0.4753 C   0  0  0  0  0  0  0  0  0  0  0  0
    4.9692    0.7697   -0.8066 C   0  0  0  0  0  0  0  0  0  0  0  0
    4.8226   -0.5919   -0.5116 C   0  0  0  0  0  0  0  0  0  0  0  0
    5.8388   -1.5284   -0.8363 N   0  0  0  0  0  0  0  0  0  0  0  0
    7.0582   -1.3116   -1.4327 C   0  0  0  0  0  0  0  0  0  0  0  0
    7.7160   -2.4398   -1.5685 N   0  0  0  0  0  0  0  0  0  0  0  0
    6.8558   -3.3476   -1.0329 C   0  0  0  0  0  0  0  0  0  0  0  0
    5.7101   -2.8521   -0.5653 N   0  0  0  0  0  0  0  0  0  0  0  0
    3.6469   -1.0381    0.1106 C   0  0  0  0  0  0  0  0  0  0  0  0
    2.6321   -0.1324    0.4416 C   0  0  0  0  0  0  0  0  0  0  0  0
   -1.2149    1.2798    2.0982 O   0  0  0  0  0  0  0  0  0  0  0  0
   -2.3960    0.8310    1.5477 N   0  0  0  0  0  0  0  0  0  0  0  0
   -4.5139    0.0476   -0.3587 N   0  0  0  0  0  0  0  0  0  0  0  0
   -5.5267   -0.3019   -1.3385 C   0  0  0  0  0  0  0  0  0  0  0  0
   -6.8435   -0.1558   -0.5927 C   0  0  0  0  0  0  0  0  0  0  0  0
   -6.4688   -0.5378    0.8321 C   0  0  0  0  0  0  0  0  0  0  0  0
   -5.0677    0.0418    0.9898 C   0  0  0  0  0  0  0  0  0  0  0  0
   -0.4422    1.3076   -1.0786 H   0  0  0  0  0  0  0  0  0  0  0  0
    0.8909    2.9796    2.0334 H   0  0  0  0  0  0  0  0  0  0  0  0
    1.4643    1.3400    2.3149 H   0  0  0  0  0  0  0  0  0  0  0  0
    4.0608    2.7242   -0.7082 H   0  0  0  0  0  0  0  0  0  0  0  0
    5.8523    1.1689   -1.2952 H   0  0  0  0  0  0  0  0  0  0  0  0
    7.4124   -0.3400   -1.7439 H   0  0  0  0  0  0  0  0  0  0  0  0
    7.0733   -4.4062   -0.9785 H   0  0  0  0  0  0  0  0  0  0  0  0
    3.4991   -2.0948    0.3364 H   0  0  0  0  0  0  0  0  0  0  0  0
    1.7258   -0.5237    0.8943 H   0  0  0  0  0  0  0  0  0  0  0  0
   -5.3533   -1.3400   -1.6428 H   0  0  0  0  0  0  0  0  0  0  0  0
   -5.4698    0.3419   -2.2211 H   0  0  0  0  0  0  0  0  0  0  0  0
   -7.1775    0.8887   -0.6202 H   0  0  0  0  0  0  0  0  0  0  0  0
   -7.6361   -0.7825   -1.0094 H   0  0  0  0  0  0  0  0  0  0  0  0
   -7.1700   -0.1510    1.5782 H   0  0  0  0  0  0  0  0  0  0  0  0
   -6.4356   -1.6308    0.9265 H   0  0  0  0  0  0  0  0  0  0  0  0
   -5.1056    1.0753    1.3513 H   0  0  0  0  0  0  0  0  0  0  0  0
   -4.4633   -0.5724    1.6623 H   0  0  0  0  0  0  0  0  0  0  0  0
  1  2  2  0
  2  3  1  0
  3  4  1  0
  4  5  2  0
  5  6  1  0
  6  7  1  0
  7  8  1  0
  8  9  2  0
  9 10  1  0
 10 11  2  0
 11 12  1  0
 12 13  1  0
 13 14  2  0
 14 15  1  0
 15 16  2  0
 11 17  1  0
 17 18  2  0
  5 19  1  0
 19 20  1  0
  2 21  1  0
 21 22  1  0
 22 23  1  0
 23 24  1  0
 24 25  1  0
 20  3  2  0
 25 21  1  0
 18  8  1  0
 16 12  1  0
  4 26  1  0
  6 27  1  0
  6 28  1  0
  9 29  1  0
 10 30  1  0
 13 31  1  0
 15 32  1  0
 17 33  1  0
 18 34  1  0
 22 35  1  0
 22 36  1  0
 23 37  1  0
 23 38  1  0
 24 39  1  0
 24 40  1  0
 25 41  1  0
 25 42  1  0
M  END
$$$$
