
     RDKit          3D

 48 51  0  0  0  0  0  0  0  0999 V2000
    2.6664    1.2503    0.1386 O   0  0  0  0  0  0  0  0  0  0  0  0
    3.5230    0.3964   -0.0444 C   0  0  0  0  0  0  0  0  0  0  0  0
    3.4315   -0.9682    0.2330 N   0  0  0  0  0  0  0  0  0  0  0  0
    2.5906   -1.7001    1.0407 C   0  0  0  0  0  0  0  0  0  0  0  0
    3.2679   -3.1243    1.6346 S   0  0  0  0  0  0  0  0  0  0  0  0
    1.3096   -1.2706    1.3016 N   0  0  0  0  0  0  0  0  0  0  0  0
    0.5069   -1.8499    2.3971 C   0  0  0  0  0  0  0  0  0  0  0  0
   -0.7896   -1.0619    2.6511 C   0  0  0  0  0  0  0  0  0  0  0  0
   -1.6911   -1.0434    1.4793 N   0  0  0  0  0  0  0  0  0  0  0  0
   -2.6490    0.0668    1.5957 C   0  0  0  0  0  0  0  0  0  0  0  0
   -3.8244   -0.0548    0.6458 C   0  0  0  0  0  0  0  0  0  0  0  0
   -4.5953   -1.2418    0.6084 C   0  0  0  0  0  0  0  0  0  0  0  0
   -5.6940   -1.3643   -0.2478 C   0  0  0  0  0  0  0  0  0  0  0  0
   -6.0034   -0.2873   -1.0481 C   0  0  0  0  0  0  0  0  0  0  0  0
   -5.2673    0.8734   -1.0156 C   0  0  0  0  0  0  0  0  0  0  0  0
   -4.1787    1.0237   -0.1818 C   0  0  0  0  0  0  0  0  0  0  0  0
   -5.7399    1.8121   -1.8791 O   0  0  0  0  0  0  0  0  0  0  0  0
   -6.8574    1.1075   -2.4589 C   0  0  0  0  0  0  0  0  0  0  0  0
   -7.0311   -0.2257   -1.9364 O   0  0  0  0  0  0  0  0  0  0  0  0
   -0.9303   -1.0125    0.2093 C   0  0  0  0  0  0  0  0  0  0  0  0
    0.5175   -0.4921    0.3321 C   0  0  0  0  0  0  0  0  0  0  0  0
    4.7992    0.8161   -0.6887 C   0  0  0  0  0  0  0  0  0  0  0  0
    4.7469    1.7840   -1.7009 C   0  0  0  0  0  0  0  0  0  0  0  0
    5.9212    2.2083   -2.3278 C   0  0  0  0  0  0  0  0  0  0  0  0
    7.1471    1.6741   -1.9343 C   0  0  0  0  0  0  0  0  0  0  0  0
    8.5936    2.1965   -2.7042 Cl  0  0  0  0  0  0  0  0  0  0  0  0
    7.2104    0.7251   -0.9136 C   0  0  0  0  0  0  0  0  0  0  0  0
    6.0372    0.2972   -0.2842 C   0  0  0  0  0  0  0  0  0  0  0  0
    4.2701   -1.5008    0.0463 H   0  0  0  0  0  0  0  0  0  0  0  0
    0.2651   -2.8873    2.1342 H   0  0  0  0  0  0  0  0  0  0  0  0
    1.1149   -1.8628    3.3087 H   0  0  0  0  0  0  0  0  0  0  0  0
   -0.5143   -0.0387    2.9418 H   0  0  0  0  0  0  0  0  0  0  0  0
   -1.3217   -1.5098    3.4982 H   0  0  0  0  0  0  0  0  0  0  0  0
   -2.1377    1.0281    1.4534 H   0  0  0  0  0  0  0  0  0  0  0  0
   -3.0759    0.0867    2.6077 H   0  0  0  0  0  0  0  0  0  0  0  0
   -4.3242   -2.0782    1.2510 H   0  0  0  0  0  0  0  0  0  0  0  0
   -6.2812   -2.2745   -0.2812 H   0  0  0  0  0  0  0  0  0  0  0  0
   -3.6194    1.9529   -0.1773 H   0  0  0  0  0  0  0  0  0  0  0  0
   -6.7060    1.0422   -3.5426 H   0  0  0  0  0  0  0  0  0  0  0  0
   -7.7713    1.6812   -2.2661 H   0  0  0  0  0  0  0  0  0  0  0  0
   -1.4493   -0.4424   -0.5695 H   0  0  0  0  0  0  0  0  0  0  0  0
   -0.8885   -2.0461   -0.1586 H   0  0  0  0  0  0  0  0  0  0  0  0
    0.9893   -0.5262   -0.6548 H   0  0  0  0  0  0  0  0  0  0  0  0
    0.4845    0.5436    0.6857 H   0  0  0  0  0  0  0  0  0  0  0  0
    3.7914    2.2099   -2.0026 H   0  0  0  0  0  0  0  0  0  0  0  0
    5.8723    2.9566   -3.1149 H   0  0  0  0  0  0  0  0  0  0  0  0
    8.1706    0.3247   -0.5968 H   0  0  0  0  0  0  0  0  0  0  0  0
    6.1139   -0.4122    0.5360 H   0  0  0  0  0  0  0  0  0  0  0  0
  1  2  2  0
  2  3  1  0
  3  4  1  0
  4  5  2  0
  4  6  1  0
  6  7  1  0
  7  8  1  0
  8  9  1  0
  9 10  1  0
 10 11  1  0
 11 12  2  0
 12 13  1  0
 13 14  2  0
 14 15  1  0
 15 16  2  0
 15 17  1  0
 17 18  1  0
 18 19  1  0
  9 20  1  0
 20 21  1  0
  2 22  1  0
 22 23  2  0
 23 24  1  0
 24 25  2  0
 25 26  1  0
 25 27  1  0
 27 28  2  0
 21  6  1  0
 28 22  1  0
 16 11  1  0
 19 14  1  0
  3 29  1  0
  7 30  1  0
  7 31  1  0
  8 32  1  0
  8 33  1  0
 10 34  1  0
 10 35  1  0
 12 36  1  0
 13 37  1  0
 16 38  1  0
 18 39  1  0
 18 40  1  0
 20 41  1  0
 20 42  1  0
 21 43  1  0
 21 44  1  0
 23 45  1  0
 24 46  1  0
 27 47  1  0
 28 48  1  0
M  END
$$$$
