
     RDKit          3D

 51 54  0  0  0  0  0  0  0  0999 V2000
    3.6503    1.3129    3.7175 C   0  0  0  0  0  0  0  0  0  0  0  0
    2.2424    1.8431    3.5127 C   0  0  0  0  0  0  0  0  0  0  0  0
    1.9695    1.8212    2.1106 O   0  0  0  0  0  0  0  0  0  0  0  0
    0.6420    1.6777    1.7908 C   0  0  0  0  0  0  0  0  0  0  0  0
    0.3934    0.7428    0.7774 C   0  0  0  0  0  0  0  0  0  0  0  0
   -0.9147    0.4833    0.3365 C   0  0  0  0  0  0  0  0  0  0  0  0
   -1.2193   -0.5853   -0.7128 C   0  0  0  0  0  0  0  0  0  0  0  0
   -1.0986   -1.9842   -0.0830 C   0  0  0  0  0  0  0  0  0  0  0  0
   -2.4726   -2.5431    0.2585 C   0  0  0  0  0  0  0  0  0  0  0  0
   -3.4613   -1.8227    0.3912 O   0  0  0  0  0  0  0  0  0  0  0  0
   -2.5916   -4.0419    0.4507 C   0  0  0  0  0  0  0  0  0  0  0  0
   -1.2306   -4.6667    0.7205 C   0  0  0  0  0  0  0  0  0  0  0  0
   -0.2749   -4.4212   -0.4395 C   0  0  0  0  0  0  0  0  0  0  0  0
   -0.3195   -2.9801   -0.9213 C   0  0  0  0  0  0  0  0  0  0  0  0
    0.3403   -2.7077   -2.0004 N   0  0  0  0  0  0  0  0  0  0  0  0
    0.3197   -1.4454   -2.4765 C   0  0  0  0  0  0  0  0  0  0  0  0
    0.8993   -0.9641   -3.5510 N   0  0  0  0  0  0  0  0  0  0  0  0
    0.4767    0.3547   -3.6235 C   0  0  0  0  0  0  0  0  0  0  0  0
    0.8742    1.2783   -4.7039 C   0  0  0  0  0  0  0  0  0  0  0  0
    0.4783    2.4373   -4.8073 O   0  0  0  0  0  0  0  0  0  0  0  0
    1.7417    0.6956   -5.5927 O   0  0  0  0  0  0  0  0  0  0  0  0
    2.1488    1.5537   -6.6559 C   0  0  0  0  0  0  0  0  0  0  0  0
   -0.3530    0.6988   -2.6181 N   0  0  0  0  0  0  0  0  0  0  0  0
   -0.3829   -0.4316   -1.8915 N   0  0  0  0  0  0  0  0  0  0  0  0
   -1.9691    1.1889    0.9336 C   0  0  0  0  0  0  0  0  0  0  0  0
   -1.7206    2.1477    1.9218 C   0  0  0  0  0  0  0  0  0  0  0  0
   -0.4143    2.4175    2.3457 C   0  0  0  0  0  0  0  0  0  0  0  0
   -0.1086    3.3623    3.2888 O   0  0  0  0  0  0  0  0  0  0  0  0
   -1.0453    4.4175    3.4628 C   0  0  0  0  0  0  0  0  0  0  0  0
    3.7547    0.3104    3.2898 H   0  0  0  0  0  0  0  0  0  0  0  0
    4.3773    1.9587    3.2132 H   0  0  0  0  0  0  0  0  0  0  0  0
    3.9026    1.2669    4.7808 H   0  0  0  0  0  0  0  0  0  0  0  0
    2.2002    2.8700    3.8862 H   0  0  0  0  0  0  0  0  0  0  0  0
    1.5413    1.2125    4.0734 H   0  0  0  0  0  0  0  0  0  0  0  0
    1.2432    0.2207    0.3417 H   0  0  0  0  0  0  0  0  0  0  0  0
   -2.2318   -0.4119   -1.1026 H   0  0  0  0  0  0  0  0  0  0  0  0
   -0.5614   -1.9291    0.8742 H   0  0  0  0  0  0  0  0  0  0  0  0
   -3.2562   -4.2297    1.3001 H   0  0  0  0  0  0  0  0  0  0  0  0
   -3.0432   -4.4676   -0.4511 H   0  0  0  0  0  0  0  0  0  0  0  0
   -1.3382   -5.7446    0.8867 H   0  0  0  0  0  0  0  0  0  0  0  0
   -0.8073   -4.2428    1.6401 H   0  0  0  0  0  0  0  0  0  0  0  0
    0.7515   -4.6611   -0.1416 H   0  0  0  0  0  0  0  0  0  0  0  0
   -0.5383   -5.0681   -1.2848 H   0  0  0  0  0  0  0  0  0  0  0  0
    2.8448    0.9986   -7.2932 H   0  0  0  0  0  0  0  0  0  0  0  0
    2.6690    2.4322   -6.2625 H   0  0  0  0  0  0  0  0  0  0  0  0
    1.2865    1.8507   -7.2623 H   0  0  0  0  0  0  0  0  0  0  0  0
   -3.0001    0.9996    0.6346 H   0  0  0  0  0  0  0  0  0  0  0  0
   -2.5739    2.6623    2.3522 H   0  0  0  0  0  0  0  0  0  0  0  0
   -0.5605    5.2003    4.0557 H   0  0  0  0  0  0  0  0  0  0  0  0
   -1.3390    4.8608    2.5051 H   0  0  0  0  0  0  0  0  0  0  0  0
   -1.9206    4.0722    4.0222 H   0  0  0  0  0  0  0  0  0  0  0  0
  1  2  1  0
  2  3  1  0
  3  4  1  0
  4  5  2  0
  5  6  1  0
  6  7  1  0
  7  8  1  0
  8  9  1  0
  9 10  2  0
  9 11  1  0
 11 12  1  0
 12 13  1  0
 13 14  1  0
 14 15  2  0
 15 16  1  0
 16 17  2  0
 17 18  1  0
 18 19  1  0
 19 20  2  0
 19 21  1  0
 21 22  1  0
 18 23  2  0
 23 24  1  0
  6 25  2  0
 25 26  1  0
 26 27  2  0
 27 28  1  0
 28 29  1  0
 27  4  1  0
 24  7  1  0
 14  8  1  0
 24 16  1  0
  1 30  1  0
  1 31  1  0
  1 32  1  0
  2 33  1  0
  2 34  1  0
  5 35  1  0
  7 36  1  0
  8 37  1  0
 11 38  1  0
 11 39  1  0
 12 40  1  0
 12 41  1  0
 13 42  1  0
 13 43  1  0
 22 44  1  0
 22 45  1  0
 22 46  1  0
 25 47  1  0
 26 48  1  0
 29 49  1  0
 29 50  1  0
 29 51  1  0
M  END
$$$$
