
     RDKit          3D

 56 60  0  0  0  0  0  0  0  0999 V2000
    3.7138   -0.6833    5.1120 C   0  0  0  0  0  0  0  0  0  0  0  0
    3.7606   -2.0209    4.3904 C   0  0  0  0  0  0  0  0  0  0  0  0
    3.9038   -1.8566    2.9649 N   0  0  0  0  0  0  0  0  0  0  0  0
    5.1195   -1.7610    2.2936 C   0  0  0  0  0  0  0  0  0  0  0  0
    6.2510   -1.8419    2.7284 O   0  0  0  0  0  0  0  0  0  0  0  0
    4.7601   -1.5324    0.8792 C   0  0  0  0  0  0  0  0  0  0  0  0
    5.5505   -1.3805   -0.2395 C   0  0  0  0  0  0  0  0  0  0  0  0
    4.8954   -1.1735   -1.4598 C   0  0  0  0  0  0  0  0  0  0  0  0
    3.4859   -1.1168   -1.5317 C   0  0  0  0  0  0  0  0  0  0  0  0
    2.6667   -1.2729   -0.3733 C   0  0  0  0  0  0  0  0  0  0  0  0
    1.2527   -1.2708   -0.1798 C   0  0  0  0  0  0  0  0  0  0  0  0
    0.1038   -1.0109   -1.5219 S   0  0  0  0  0  6  0  0  0  0  0  0
    0.7819   -0.4258   -2.6610 O   0  0  0  0  0  0  0  0  0  0  0  0
   -0.6147   -2.2663   -1.6535 O   0  0  0  0  0  0  0  0  0  0  0  0
   -0.9867    0.1678   -0.8989 N   0  0  0  0  0  0  0  0  0  0  0  0
   -0.4519    1.3737   -0.3442 C   0  0  0  0  0  0  0  0  0  0  0  0
    0.7393    1.6537   -0.3670 O   0  0  0  0  0  0  0  0  0  0  0  0
   -1.3872    2.2744    0.3756 C   0  0  0  0  0  0  0  0  0  0  0  0
   -2.5810    1.8495    0.9658 C   0  0  0  0  0  0  0  0  0  0  0  0
   -3.3989    2.7810    1.6062 C   0  0  0  0  0  0  0  0  0  0  0  0
   -2.9910    4.1044    1.6409 C   0  0  0  0  0  0  0  0  0  0  0  0
   -1.8352    4.5442    1.0984 N   0  0  0  0  0  0  0  0  0  0  0  0
   -1.0562    3.6187    0.4800 C   0  0  0  0  0  0  0  0  0  0  0  0
   -2.1132    0.3646   -1.7928 C   0  0  0  0  0  0  0  0  0  0  0  0
   -2.0806    1.3128   -2.8212 C   0  0  0  0  0  0  0  0  0  0  0  0
   -3.1690    1.4323   -3.6893 C   0  0  0  0  0  0  0  0  0  0  0  0
   -4.2791    0.5892   -3.5671 C   0  0  0  0  0  0  0  0  0  0  0  0
   -5.2697    0.8152   -4.4799 O   0  0  0  0  0  0  0  0  0  0  0  0
   -6.3834   -0.0716   -4.4591 C   0  0  0  0  0  0  0  0  0  0  0  0
   -4.2904   -0.3860   -2.5695 C   0  0  0  0  0  0  0  0  0  0  0  0
   -3.2083   -0.5014   -1.6908 C   0  0  0  0  0  0  0  0  0  0  0  0
    0.6843   -1.4960    1.1074 C   0  0  0  0  0  0  0  0  0  0  0  0
    1.4921   -1.6883    2.2381 C   0  0  0  0  0  0  0  0  0  0  0  0
    2.8562   -1.6779    2.0527 C   0  0  0  0  0  0  0  0  0  0  0  0
    3.3906   -1.4836    0.8014 C   0  0  0  0  0  0  0  0  0  0  0  0
    4.6293   -0.1076    4.9334 H   0  0  0  0  0  0  0  0  0  0  0  0
    2.8683   -0.0796    4.7688 H   0  0  0  0  0  0  0  0  0  0  0  0
    3.6100   -0.8369    6.1914 H   0  0  0  0  0  0  0  0  0  0  0  0
    2.8597   -2.6063    4.6037 H   0  0  0  0  0  0  0  0  0  0  0  0
    4.6211   -2.5957    4.7588 H   0  0  0  0  0  0  0  0  0  0  0  0
    6.6323   -1.4217   -0.1703 H   0  0  0  0  0  0  0  0  0  0  0  0
    5.4789   -1.0501   -2.3710 H   0  0  0  0  0  0  0  0  0  0  0  0
    3.0451   -0.9536   -2.5114 H   0  0  0  0  0  0  0  0  0  0  0  0
   -2.8841    0.8081    0.9466 H   0  0  0  0  0  0  0  0  0  0  0  0
   -4.3345    2.4822    2.0670 H   0  0  0  0  0  0  0  0  0  0  0  0
   -3.5959    4.8696    2.1249 H   0  0  0  0  0  0  0  0  0  0  0  0
   -0.1356    4.0133    0.0560 H   0  0  0  0  0  0  0  0  0  0  0  0
   -1.2134    1.9539   -2.9738 H   0  0  0  0  0  0  0  0  0  0  0  0
   -3.1454    2.1779   -4.4834 H   0  0  0  0  0  0  0  0  0  0  0  0
   -7.0579    0.2246   -5.2667 H   0  0  0  0  0  0  0  0  0  0  0  0
   -6.0694   -1.1037   -4.6458 H   0  0  0  0  0  0  0  0  0  0  0  0
   -6.9332    0.0111   -3.5146 H   0  0  0  0  0  0  0  0  0  0  0  0
   -5.1134   -1.0830   -2.4541 H   0  0  0  0  0  0  0  0  0  0  0  0
   -3.2222   -1.2838   -0.9338 H   0  0  0  0  0  0  0  0  0  0  0  0
   -0.3987   -1.5313    1.2262 H   0  0  0  0  0  0  0  0  0  0  0  0
    1.0473   -1.8507    3.2136 H   0  0  0  0  0  0  0  0  0  0  0  0
  1  2  1  0
  2  3  1  0
  3  4  1  0
  4  5  2  0
  4  6  1  0
  6  7  2  0
  7  8  1  0
  8  9  2  0
  9 10  1  0
 10 11  2  0
 11 12  1  0
 12 13  2  0
 12 14  2  0
 12 15  1  0
 15 16  1  0
 16 17  2  0
 16 18  1  0
 18 19  2  0
 19 20  1  0
 20 21  2  0
 21 22  1  0
 22 23  2  0
 15 24  1  0
 24 25  2  0
 25 26  1  0
 26 27  2  0
 27 28  1  0
 28 29  1  0
 27 30  1  0
 30 31  2  0
 11 32  1  0
 32 33  2  0
 33 34  1  0
 34 35  2  0
 34  3  1  0
 35  6  1  0
 35 10  1  0
 23 18  1  0
 31 24  1  0
  1 36  1  0
  1 37  1  0
  1 38  1  0
  2 39  1  0
  2 40  1  0
  7 41  1  0
  8 42  1  0
  9 43  1  0
 19 44  1  0
 20 45  1  0
 21 46  1  0
 23 47  1  0
 25 48  1  0
 26 49  1  0
 29 50  1  0
 29 51  1  0
 29 52  1  0
 30 53  1  0
 31 54  1  0
 32 55  1  0
 33 56  1  0
M  END
$$$$
