
     RDKit          3D

 39 41  0  0  0  0  0  0  0  0999 V2000
   -3.0623    1.7172   -1.6508 O   0  0  0  0  0  0  0  0  0  0  0  0
   -4.0968    1.1464   -1.3554 C   0  0  0  0  0  0  0  0  0  0  0  0
   -5.3013    1.6525   -1.6877 O   0  0  0  0  0  0  0  0  0  0  0  0
   -4.2076   -0.1555   -0.6589 C   0  0  0  0  0  0  0  0  0  0  0  0
   -5.1656   -1.0243   -1.1118 N   0  0  0  0  0  0  0  0  0  0  0  0
   -5.1769   -2.2402   -0.5207 C   0  0  0  0  0  0  0  0  0  0  0  0
   -4.2682   -2.5978    0.4626 C   0  0  0  0  0  0  0  0  0  0  0  0
   -3.3117   -1.7529    0.9119 N   0  0  0  0  0  0  0  0  0  0  0  0
   -3.3040   -0.5127    0.3305 C   0  0  0  0  0  0  0  0  0  0  0  0
   -2.3783    0.4909    0.9080 C   0  0  0  0  0  0  0  0  0  0  0  0
   -2.8748    1.5331    1.3348 O   0  0  0  0  0  0  0  0  0  0  0  0
   -1.0126    0.2177    0.9500 N   0  0  0  0  0  0  0  0  0  0  0  0
   -0.0935    1.2689    1.3896 C   0  0  0  0  0  0  0  0  0  0  0  0
    1.0724    1.4680    0.4030 C   0  0  0  0  0  0  0  0  0  0  0  0
    1.7977    0.2060    0.1415 N   0  0  0  0  0  0  0  0  0  0  0  0
    3.1491    0.2439   -0.1767 C   0  0  0  0  0  0  0  0  0  0  0  0
    4.0253   -0.8085    0.1346 C   0  0  0  0  0  0  0  0  0  0  0  0
    5.3860   -0.7647   -0.1966 C   0  0  0  0  0  0  0  0  0  0  0  0
    5.9081    0.3392   -0.8591 C   0  0  0  0  0  0  0  0  0  0  0  0
    5.0677    1.3943   -1.1899 C   0  0  0  0  0  0  0  0  0  0  0  0
    3.7096    1.3416   -0.8529 C   0  0  0  0  0  0  0  0  0  0  0  0
    1.1387   -1.0401    0.5603 C   0  0  0  0  0  0  0  0  0  0  0  0
   -0.3871   -0.9669    0.3484 C   0  0  0  0  0  0  0  0  0  0  0  0
   -5.0987    2.4957   -2.1417 H   0  0  0  0  0  0  0  0  0  0  0  0
   -5.9410   -2.9292   -0.8650 H   0  0  0  0  0  0  0  0  0  0  0  0
   -4.2912   -3.5799    0.9233 H   0  0  0  0  0  0  0  0  0  0  0  0
    0.2936    0.9594    2.3681 H   0  0  0  0  0  0  0  0  0  0  0  0
   -0.6184    2.2188    1.5321 H   0  0  0  0  0  0  0  0  0  0  0  0
    0.6829    1.8506   -0.5482 H   0  0  0  0  0  0  0  0  0  0  0  0
    1.7409    2.2249    0.8311 H   0  0  0  0  0  0  0  0  0  0  0  0
    3.6719   -1.6859    0.6677 H   0  0  0  0  0  0  0  0  0  0  0  0
    6.0333   -1.5961    0.0690 H   0  0  0  0  0  0  0  0  0  0  0  0
    6.9621    0.3756   -1.1186 H   0  0  0  0  0  0  0  0  0  0  0  0
    5.4600    2.2598   -1.7169 H   0  0  0  0  0  0  0  0  0  0  0  0
    3.0837    2.1767   -1.1564 H   0  0  0  0  0  0  0  0  0  0  0  0
    1.5076   -1.8946   -0.0194 H   0  0  0  0  0  0  0  0  0  0  0  0
    1.3562   -1.2262    1.6194 H   0  0  0  0  0  0  0  0  0  0  0  0
   -0.8454   -1.8676    0.7651 H   0  0  0  0  0  0  0  0  0  0  0  0
   -0.6116   -0.9381   -0.7248 H   0  0  0  0  0  0  0  0  0  0  0  0
  1  2  2  0
  2  3  1  0
  2  4  1  0
  4  5  2  0
  5  6  1  0
  6  7  2  0
  7  8  1  0
  8  9  2  0
  9 10  1  0
 10 11  2  0
 10 12  1  0
 12 13  1  0
 13 14  1  0
 14 15  1  0
 15 16  1  0
 16 17  2  0
 17 18  1  0
 18 19  2  0
 19 20  1  0
 20 21  2  0
 15 22  1  0
 22 23  1  0
  9  4  1  0
 23 12  1  0
 21 16  1  0
  3 24  1  0
  6 25  1  0
  7 26  1  0
 13 27  1  0
 13 28  1  0
 14 29  1  0
 14 30  1  0
 17 31  1  0
 18 32  1  0
 19 33  1  0
 20 34  1  0
 21 35  1  0
 22 36  1  0
 22 37  1  0
 23 38  1  0
 23 39  1  0
M  END
$$$$
