
     RDKit          3D

 45 47  0  0  0  0  0  0  0  0999 V2000
    1.7666    1.6221   -1.2290 O   0  0  0  0  0  0  0  0  0  0  0  0
    1.2131    1.0106   -0.3114 C   0  0  0  0  0  0  0  0  0  0  0  0
    1.4203    1.4537    1.1306 C   0  0  0  0  0  0  0  0  0  0  0  0
    2.7536    0.5023    1.9352 S   0  0  0  0  0  0  0  0  0  0  0  0
    4.1611    1.0125    0.9664 C   0  0  0  0  0  0  0  0  0  0  0  0
    4.9027    0.0430    0.2825 C   0  0  0  0  0  0  0  0  0  0  0  0
    6.0194    0.4098   -0.4733 C   0  0  0  0  0  0  0  0  0  0  0  0
    6.4004    1.7482   -0.5367 C   0  0  0  0  0  0  0  0  0  0  0  0
    7.9110    2.2469   -1.5575 Br  0  0  0  0  0  0  0  0  0  0  0  0
    5.6790    2.7208    0.1523 C   0  0  0  0  0  0  0  0  0  0  0  0
    4.5624    2.3512    0.9076 C   0  0  0  0  0  0  0  0  0  0  0  0
    0.3787   -0.0712   -0.5601 N   0  0  0  0  0  0  0  0  0  0  0  0
   -0.3318   -0.8402    0.4687 C   0  0  0  0  0  0  0  0  0  0  0  0
   -0.8453   -2.1954   -0.0381 C   0  0  0  0  0  0  0  0  0  0  0  0
   -1.6789   -2.0555   -1.2612 N   0  0  0  0  0  0  0  0  0  0  0  0
   -3.3187   -2.4664   -1.1691 S   0  0  0  0  0  6  0  0  0  0  0  0
   -3.8897   -2.3258   -2.4917 O   0  0  0  0  0  0  0  0  0  0  0  0
   -3.4266   -3.7072   -0.4313 O   0  0  0  0  0  0  0  0  0  0  0  0
   -4.0063   -1.1788   -0.1469 C   0  0  0  0  0  0  0  0  0  0  0  0
   -4.5189   -0.0209   -0.7400 C   0  0  0  0  0  0  0  0  0  0  0  0
   -5.0706    0.9768    0.0636 C   0  0  0  0  0  0  0  0  0  0  0  0
   -5.1263    0.8082    1.4481 C   0  0  0  0  0  0  0  0  0  0  0  0
   -4.6418   -0.3622    2.0343 C   0  0  0  0  0  0  0  0  0  0  0  0
   -4.0879   -1.3641    1.2375 C   0  0  0  0  0  0  0  0  0  0  0  0
   -1.3066   -0.9345   -2.1687 C   0  0  0  0  0  0  0  0  0  0  0  0
    0.1419   -0.4816   -1.9492 C   0  0  0  0  0  0  0  0  0  0  0  0
    0.4962    1.3354    1.7032 H   0  0  0  0  0  0  0  0  0  0  0  0
    1.6505    2.5240    1.1425 H   0  0  0  0  0  0  0  0  0  0  0  0
    4.6147   -1.0047    0.3259 H   0  0  0  0  0  0  0  0  0  0  0  0
    6.5804   -0.3533   -1.0060 H   0  0  0  0  0  0  0  0  0  0  0  0
    5.9752    3.7654    0.1095 H   0  0  0  0  0  0  0  0  0  0  0  0
    4.0172    3.1197    1.4488 H   0  0  0  0  0  0  0  0  0  0  0  0
   -1.1707   -0.2178    0.7997 H   0  0  0  0  0  0  0  0  0  0  0  0
    0.3213   -1.0017    1.3292 H   0  0  0  0  0  0  0  0  0  0  0  0
   -1.3877   -2.7020    0.7654 H   0  0  0  0  0  0  0  0  0  0  0  0
    0.0030   -2.8425   -0.2932 H   0  0  0  0  0  0  0  0  0  0  0  0
   -4.4995    0.1077   -1.8200 H   0  0  0  0  0  0  0  0  0  0  0  0
   -5.4698    1.8815   -0.3896 H   0  0  0  0  0  0  0  0  0  0  0  0
   -5.5660    1.5844    2.0706 H   0  0  0  0  0  0  0  0  0  0  0  0
   -4.7107   -0.4982    3.1112 H   0  0  0  0  0  0  0  0  0  0  0  0
   -3.7362   -2.2843    1.6987 H   0  0  0  0  0  0  0  0  0  0  0  0
   -1.4257   -1.2657   -3.2057 H   0  0  0  0  0  0  0  0  0  0  0  0
   -1.9678   -0.0797   -1.9975 H   0  0  0  0  0  0  0  0  0  0  0  0
    0.8357   -1.3043   -2.1600 H   0  0  0  0  0  0  0  0  0  0  0  0
    0.3789    0.3337   -2.6404 H   0  0  0  0  0  0  0  0  0  0  0  0
  1  2  2  0
  2  3  1  0
  3  4  1  0
  4  5  1  0
  5  6  2  0
  6  7  1  0
  7  8  2  0
  8  9  1  0
  8 10  1  0
 10 11  2  0
  2 12  1  0
 12 13  1  0
 13 14  1  0
 14 15  1  0
 15 16  1  0
 16 17  2  0
 16 18  2  0
 16 19  1  0
 19 20  2  0
 20 21  1  0
 21 22  2  0
 22 23  1  0
 23 24  2  0
 15 25  1  0
 25 26  1  0
 11  5  1  0
 26 12  1  0
 24 19  1  0
  3 27  1  0
  3 28  1  0
  6 29  1  0
  7 30  1  0
 10 31  1  0
 11 32  1  0
 13 33  1  0
 13 34  1  0
 14 35  1  0
 14 36  1  0
 20 37  1  0
 21 38  1  0
 22 39  1  0
 23 40  1  0
 24 41  1  0
 25 42  1  0
 25 43  1  0
 26 44  1  0
 26 45  1  0
M  END
$$$$
