
     RDKit          3D

 30 31  0  0  0  0  0  0  0  0999 V2000
    1.9828   -0.2036    4.2903 N   0  0  0  0  0  0  0  0  0  0  0  0
    2.4353   -0.7496    3.3634 C   0  0  0  0  0  0  0  0  0  0  0  0
    3.0660   -1.3966    2.2054 C   0  0  0  0  0  0  0  0  0  0  0  0
    3.2518   -0.4142    1.0541 C   0  0  0  0  0  0  0  0  0  0  0  0
    2.0322   -0.0054    0.3826 N   0  0  0  0  0  0  0  0  0  0  0  0
    1.9156    1.0392   -0.4895 C   0  0  0  0  0  0  0  0  0  0  0  0
    0.5923    1.0652   -0.8841 C   0  0  0  0  0  0  0  0  0  0  0  0
   -0.0188    2.0316   -1.7692 C   0  0  0  0  0  0  0  0  0  0  0  0
    0.7225    2.9204   -2.3604 N   0  0  0  0  0  0  0  0  0  0  0  0
   -0.0912    3.7406   -3.1596 O   0  0  0  0  0  0  0  0  0  0  0  0
   -0.0095   -0.0406   -0.2027 C   0  0  0  0  0  0  0  0  0  0  0  0
   -1.4000   -0.4867   -0.2371 C   0  0  0  0  0  0  0  0  0  0  0  0
   -2.0421   -0.7429   -1.4604 C   0  0  0  0  0  0  0  0  0  0  0  0
   -3.3789   -1.1550   -1.4812 C   0  0  0  0  0  0  0  0  0  0  0  0
   -4.0728   -1.3162   -0.2799 C   0  0  0  0  0  0  0  0  0  0  0  0
   -5.7181   -1.8203   -0.3112 Cl  0  0  0  0  0  0  0  0  0  0  0  0
   -3.4413   -1.0779    0.9461 C   0  0  0  0  0  0  0  0  0  0  0  0
   -2.1053   -0.6666    0.9672 C   0  0  0  0  0  0  0  0  0  0  0  0
    0.8903   -0.6903    0.5520 N   0  0  0  0  0  0  0  0  0  0  0  0
    2.4918   -2.2738    1.8893 H   0  0  0  0  0  0  0  0  0  0  0  0
    4.0534   -1.7630    2.5106 H   0  0  0  0  0  0  0  0  0  0  0  0
    3.8770   -0.8681    0.2774 H   0  0  0  0  0  0  0  0  0  0  0  0
    3.7493    0.5008    1.4024 H   0  0  0  0  0  0  0  0  0  0  0  0
    2.7513    1.6837   -0.7453 H   0  0  0  0  0  0  0  0  0  0  0  0
   -1.1111    1.9914   -1.9217 H   0  0  0  0  0  0  0  0  0  0  0  0
    0.5435    4.3931   -3.5127 H   0  0  0  0  0  0  0  0  0  0  0  0
   -1.5069   -0.6432   -2.4038 H   0  0  0  0  0  0  0  0  0  0  0  0
   -3.8690   -1.3541   -2.4348 H   0  0  0  0  0  0  0  0  0  0  0  0
   -3.9772   -1.2115    1.8862 H   0  0  0  0  0  0  0  0  0  0  0  0
   -1.6131   -0.4863    1.9265 H   0  0  0  0  0  0  0  0  0  0  0  0
  1  2  3  0
  2  3  1  0
  3  4  1  0
  4  5  1  0
  5  6  1  0
  6  7  2  0
  7  8  1  0
  8  9  2  3
  9 10  1  0
  7 11  1  0
 11 12  1  0
 12 13  2  0
 13 14  1  0
 14 15  2  0
 15 16  1  0
 15 17  1  0
 17 18  2  0
 11 19  2  0
 19  5  1  0
 18 12  1  0
  3 20  1  0
  3 21  1  0
  4 22  1  0
  4 23  1  0
  6 24  1  0
  8 25  1  0
 10 26  1  0
 13 27  1  0
 14 28  1  0
 17 29  1  0
 18 30  1  0
M  END
$$$$
