
     RDKit          3D

 67 72  0  0  0  0  0  0  0  0999 V2000
    5.2905    2.6671    1.6831 C   0  0  0  0  0  0  0  0  0  0  0  0
    5.5779    1.1961    1.3451 C   0  0  0  0  0  0  0  0  0  0  0  0
    5.7980    0.4309    2.6570 C   0  0  0  0  0  0  0  0  0  0  0  0
    6.8082    1.1334    0.4318 C   0  0  0  0  0  0  0  0  0  0  0  0
    4.3843    0.7396    0.6577 O   0  0  0  0  0  0  0  0  0  0  0  0
    4.2607   -0.5478    0.2424 C   0  0  0  0  0  0  0  0  0  0  0  0
    5.1260   -1.4033    0.3721 O   0  0  0  0  0  0  0  0  0  0  0  0
    3.0267   -0.7891   -0.3410 N   0  0  0  0  0  0  0  0  0  0  0  0
    2.6545   -2.1967   -0.5678 C   0  0  0  0  0  0  0  0  0  0  0  0
    1.4433   -2.3999   -1.5125 C   0  0  0  0  0  0  0  0  0  0  0  0
    0.3821   -1.4917   -1.1143 N   0  0  0  0  0  0  0  0  0  0  0  0
    0.8354   -0.0733   -1.2395 C   0  0  2  0  0  0  0  0  0  0  0  0
    1.9194    0.1773   -0.1974 C   0  0  0  0  0  0  0  0  0  0  0  0
   -0.4568    0.6297   -1.1051 C   0  0  0  0  0  0  0  0  0  0  0  0
   -1.5132   -0.2569   -1.4048 C   0  0  0  0  0  0  0  0  0  0  0  0
   -2.6959    0.4214   -1.2868 C   0  0  0  0  0  0  0  0  0  0  0  0
   -3.9389   -0.0114   -1.4557 O   0  0  0  0  0  0  0  0  0  0  0  0
   -2.3633    1.7271   -0.9327 N   0  0  0  0  0  0  0  0  0  0  0  0
   -3.3002    2.8412   -0.8143 C   0  0  0  0  0  0  0  0  0  0  0  0
   -4.0995    2.7862    0.4662 C   0  0  0  0  0  0  0  0  0  0  0  0
   -5.5019    2.7662    0.4272 C   0  0  0  0  0  0  0  0  0  0  0  0
   -6.2431    2.7252    1.6097 C   0  0  0  0  0  0  0  0  0  0  0  0
   -5.5933    2.7178    2.8434 C   0  0  0  0  0  0  0  0  0  0  0  0
   -4.2016    2.7553    2.8965 C   0  0  0  0  0  0  0  0  0  0  0  0
   -3.4589    2.7930    1.7152 C   0  0  0  0  0  0  0  0  0  0  0  0
   -0.9835    1.8581   -0.8192 C   0  0  0  0  0  0  0  0  0  0  0  0
   -0.4229    3.0184   -0.4991 O   0  0  0  0  0  0  0  0  0  0  0  0
   -0.9752   -1.6085   -1.7035 C   0  0  1  0  0  0  0  0  0  0  0  0
   -1.0019   -1.9726   -3.2125 C   0  0  0  0  0  0  0  0  0  0  0  0
   -0.4307   -1.4235   -4.1430 O   0  0  0  0  0  0  0  0  0  0  0  0
   -1.7971   -3.1166   -3.3308 N   0  0  0  0  0  0  0  0  0  0  0  0
   -2.2899   -3.5192   -2.0948 C   0  0  0  0  0  0  0  0  0  0  0  0
   -3.1008   -4.6052   -1.8401 C   0  0  0  0  0  0  0  0  0  0  0  0
   -3.4700   -4.8335   -0.5118 C   0  0  0  0  0  0  0  0  0  0  0  0
   -3.0255   -3.9821    0.5167 C   0  0  0  0  0  0  0  0  0  0  0  0
   -2.2011   -2.8892    0.2355 C   0  0  0  0  0  0  0  0  0  0  0  0
   -1.8413   -2.6627   -1.0843 C   0  0  0  0  0  0  0  0  0  0  0  0
    5.1374    3.2531    0.7694 H   0  0  0  0  0  0  0  0  0  0  0  0
    6.1059    3.1208    2.2541 H   0  0  0  0  0  0  0  0  0  0  0  0
    4.3676    2.7590    2.2660 H   0  0  0  0  0  0  0  0  0  0  0  0
    6.0850   -0.6105    2.4798 H   0  0  0  0  0  0  0  0  0  0  0  0
    4.8807    0.4094    3.2594 H   0  0  0  0  0  0  0  0  0  0  0  0
    6.5965    0.8882    3.2539 H   0  0  0  0  0  0  0  0  0  0  0  0
    7.6826    1.5786    0.9154 H   0  0  0  0  0  0  0  0  0  0  0  0
    7.0684    0.1064    0.1629 H   0  0  0  0  0  0  0  0  0  0  0  0
    6.6223    1.6626   -0.5077 H   0  0  0  0  0  0  0  0  0  0  0  0
    3.5206   -2.7435   -0.9592 H   0  0  0  0  0  0  0  0  0  0  0  0
    2.4227   -2.6202    0.4188 H   0  0  0  0  0  0  0  0  0  0  0  0
    1.7545   -2.2193   -2.5486 H   0  0  0  0  0  0  0  0  0  0  0  0
    1.1165   -3.4429   -1.4405 H   0  0  0  0  0  0  0  0  0  0  0  0
    1.2342    0.1098   -2.2478 H   0  0  0  0  0  0  0  0  0  0  0  0
    2.2988    1.1992   -0.2997 H   0  0  0  0  0  0  0  0  0  0  0  0
    1.5305    0.0786    0.8240 H   0  0  0  0  0  0  0  0  0  0  0  0
   -4.5375    0.5301   -0.9143 H   0  0  0  0  0  0  0  0  0  0  0  0
   -2.7514    3.7874   -0.8697 H   0  0  0  0  0  0  0  0  0  0  0  0
   -3.9506    2.7945   -1.6966 H   0  0  0  0  0  0  0  0  0  0  0  0
   -6.0320    2.7849   -0.5227 H   0  0  0  0  0  0  0  0  0  0  0  0
   -7.3304    2.7023    1.5683 H   0  0  0  0  0  0  0  0  0  0  0  0
   -6.1711    2.6883    3.7638 H   0  0  0  0  0  0  0  0  0  0  0  0
   -3.6945    2.7538    3.8583 H   0  0  0  0  0  0  0  0  0  0  0  0
   -2.3734    2.8233    1.7746 H   0  0  0  0  0  0  0  0  0  0  0  0
    0.5401    2.9131   -0.5720 H   0  0  0  0  0  0  0  0  0  0  0  0
   -1.9854   -3.5618   -4.2152 H   0  0  0  0  0  0  0  0  0  0  0  0
   -3.4425   -5.2613   -2.6318 H   0  0  0  0  0  0  0  0  0  0  0  0
   -4.1093   -5.6776   -0.2650 H   0  0  0  0  0  0  0  0  0  0  0  0
   -3.3308   -4.1781    1.5423 H   0  0  0  0  0  0  0  0  0  0  0  0
   -1.8560   -2.2294    1.0264 H   0  0  0  0  0  0  0  0  0  0  0  0
  1  2  1  0
  2  3  1  0
  2  4  1  0
  2  5  1  0
  5  6  1  0
  6  7  2  0
  6  8  1  0
  8  9  1  0
  9 10  1  0
 10 11  1  0
 11 12  1  0
 12 13  1  0
 12 14  1  0
 14 15  1  0
 15 16  2  0
 16 17  1  0
 16 18  1  0
 18 19  1  0
 19 20  1  0
 20 21  2  0
 21 22  1  0
 22 23  2  0
 23 24  1  0
 24 25  2  0
 18 26  1  0
 26 27  1  0
 15 28  1  0
 28 29  1  0
 29 30  2  0
 29 31  1  0
 31 32  1  0
 32 33  2  0
 33 34  1  0
 34 35  2  0
 35 36  1  0
 36 37  2  0
 13  8  1  0
 26 14  2  0
 37 28  1  0
 28 11  1  1
 37 32  1  0
 25 20  1  0
  1 38  1  0
  1 39  1  0
  1 40  1  0
  3 41  1  0
  3 42  1  0
  3 43  1  0
  4 44  1  0
  4 45  1  0
  4 46  1  0
  9 47  1  0
  9 48  1  0
 10 49  1  0
 10 50  1  0
 12 51  1  6
 13 52  1  0
 13 53  1  0
 17 54  1  0
 19 55  1  0
 19 56  1  0
 21 57  1  0
 22 58  1  0
 23 59  1  0
 24 60  1  0
 25 61  1  0
 27 62  1  0
 31 63  1  0
 33 64  1  0
 34 65  1  0
 35 66  1  0
 36 67  1  0
M  END
$$$$
