
     RDKit          3D

 62 64  0  0  0  0  0  0  0  0999 V2000
   -4.2801    2.2950   -1.7315 C   0  0  0  0  0  0  0  0  0  0  0  0
   -3.3769    1.1597   -1.3195 C   0  0  0  0  0  0  0  0  0  0  0  0
   -2.1069    1.1651   -1.9454 C   0  0  0  0  0  0  0  0  0  0  0  0
   -1.1412    0.2132   -1.6539 C   0  0  0  0  0  0  0  0  0  0  0  0
    0.0559    0.2983   -2.3801 O   0  0  0  0  0  0  0  0  0  0  0  0
    1.0365   -0.6702   -2.2546 C   0  0  0  0  0  0  0  0  0  0  0  0
    2.0351   -0.6618   -2.9757 O   0  0  0  0  0  0  0  0  0  0  0  0
    0.8478   -1.7087   -1.2017 C   0  0  0  0  0  0  0  0  0  0  0  0
    2.0148   -2.6613   -1.1144 C   0  0  0  0  0  0  0  0  0  0  0  0
    3.1688   -1.9860   -0.3900 C   0  0  0  0  0  0  0  0  0  0  0  0
    3.1764   -1.8344    0.8281 O   0  0  0  0  0  0  0  0  0  0  0  0
    4.1807   -1.5633   -1.2310 N   0  0  0  0  0  0  0  0  0  0  0  0
    5.3343   -0.8414   -0.7304 C   0  0  0  0  0  0  0  0  0  0  0  0
    5.0464    0.6502   -0.5985 C   0  0  0  0  0  0  0  0  0  0  0  0
    6.3030    1.4661   -0.2692 C   0  0  0  0  0  0  0  0  0  0  0  0
    7.0020    1.0420    0.9533 N   0  0  0  0  0  0  0  0  0  0  0  0
    6.2129    1.3225    2.1540 C   0  0  0  0  0  0  0  0  0  0  0  0
    8.3063    1.6967    1.0487 C   0  0  0  0  0  0  0  0  0  0  0  0
   -0.2684   -1.7597   -0.4397 C   0  0  0  0  0  0  0  0  0  0  0  0
   -0.4546   -2.7378    0.6907 C   0  0  0  0  0  0  0  0  0  0  0  0
   -1.3390   -0.7857   -0.7172 C   0  0  0  0  0  0  0  0  0  0  0  0
   -2.6079   -0.7882   -0.1096 C   0  0  0  0  0  0  0  0  0  0  0  0
   -3.0169   -1.7027    0.8058 O   0  0  0  0  0  0  0  0  0  0  0  0
   -4.2730   -1.4059    1.1649 C   0  0  0  0  0  0  0  0  0  0  0  0
   -4.7495   -0.2861    0.5057 C   0  0  0  0  0  0  0  0  0  0  0  0
   -6.1586    0.2780    0.7099 C   0  0  0  0  0  0  0  0  0  0  0  0
   -6.1106    1.7476    1.1679 C   0  0  0  0  0  0  0  0  0  0  0  0
   -7.0113    0.0921   -0.5615 C   0  0  0  0  0  0  0  0  0  0  0  0
   -6.9281   -0.4747    1.8367 C   0  0  0  0  0  0  0  0  0  0  0  0
   -3.6433    0.1329   -0.3597 C   0  0  0  0  0  0  0  0  0  0  0  0
   -5.3340    2.0801   -1.5766 H   0  0  0  0  0  0  0  0  0  0  0  0
   -4.0136    3.2010   -1.1724 H   0  0  0  0  0  0  0  0  0  0  0  0
   -4.1686    2.5056   -2.8030 H   0  0  0  0  0  0  0  0  0  0  0  0
   -1.8727    1.9279   -2.6861 H   0  0  0  0  0  0  0  0  0  0  0  0
    1.7806   -3.5913   -0.5897 H   0  0  0  0  0  0  0  0  0  0  0  0
    2.3271   -2.9867   -2.1145 H   0  0  0  0  0  0  0  0  0  0  0  0
    3.9366   -1.4266   -2.2097 H   0  0  0  0  0  0  0  0  0  0  0  0
    6.1450   -1.0152   -1.4428 H   0  0  0  0  0  0  0  0  0  0  0  0
    5.6282   -1.2710    0.2320 H   0  0  0  0  0  0  0  0  0  0  0  0
    4.6340    1.0197   -1.5461 H   0  0  0  0  0  0  0  0  0  0  0  0
    4.2684    0.8198    0.1496 H   0  0  0  0  0  0  0  0  0  0  0  0
    6.9832    1.3594   -1.1231 H   0  0  0  0  0  0  0  0  0  0  0  0
    6.0410    2.5290   -0.2156 H   0  0  0  0  0  0  0  0  0  0  0  0
    5.9763    2.3864    2.2503 H   0  0  0  0  0  0  0  0  0  0  0  0
    6.7561    1.0112    3.0542 H   0  0  0  0  0  0  0  0  0  0  0  0
    5.2798    0.7589    2.1557 H   0  0  0  0  0  0  0  0  0  0  0  0
    8.2197    2.7868    1.0980 H   0  0  0  0  0  0  0  0  0  0  0  0
    8.9259    1.4385    0.1858 H   0  0  0  0  0  0  0  0  0  0  0  0
    8.8511    1.3479    1.9340 H   0  0  0  0  0  0  0  0  0  0  0  0
   -0.7405   -2.2188    1.6121 H   0  0  0  0  0  0  0  0  0  0  0  0
    0.4540   -3.2874    0.9475 H   0  0  0  0  0  0  0  0  0  0  0  0
   -1.2197   -3.4787    0.4357 H   0  0  0  0  0  0  0  0  0  0  0  0
   -4.7025   -2.0795    1.8950 H   0  0  0  0  0  0  0  0  0  0  0  0
   -7.1214    2.1611    1.2796 H   0  0  0  0  0  0  0  0  0  0  0  0
   -5.6050    1.8358    2.1376 H   0  0  0  0  0  0  0  0  0  0  0  0
   -5.5727    2.4024    0.4831 H   0  0  0  0  0  0  0  0  0  0  0  0
   -6.5395    0.4880   -1.4621 H   0  0  0  0  0  0  0  0  0  0  0  0
   -7.9908    0.5752   -0.4587 H   0  0  0  0  0  0  0  0  0  0  0  0
   -7.1862   -0.9739   -0.7578 H   0  0  0  0  0  0  0  0  0  0  0  0
   -7.9276   -0.0462    1.9854 H   0  0  0  0  0  0  0  0  0  0  0  0
   -7.0668   -1.5360    1.5958 H   0  0  0  0  0  0  0  0  0  0  0  0
   -6.3999   -0.4147    2.7963 H   0  0  0  0  0  0  0  0  0  0  0  0
  1  2  1  0
  2  3  2  0
  3  4  1  0
  4  5  1  0
  5  6  1  0
  6  7  2  0
  6  8  1  0
  8  9  1  0
  9 10  1  0
 10 11  2  0
 10 12  1  0
 12 13  1  0
 13 14  1  0
 14 15  1  0
 15 16  1  0
 16 17  1  0
 16 18  1  0
  8 19  2  0
 19 20  1  0
 19 21  1  0
 21 22  1  0
 22 23  1  0
 23 24  1  0
 24 25  2  0
 25 26  1  0
 26 27  1  0
 26 28  1  0
 26 29  1  0
 25 30  1  0
 30  2  1  0
 21  4  2  0
 30 22  2  0
  1 31  1  0
  1 32  1  0
  1 33  1  0
  3 34  1  0
  9 35  1  0
  9 36  1  0
 12 37  1  0
 13 38  1  0
 13 39  1  0
 14 40  1  0
 14 41  1  0
 15 42  1  0
 15 43  1  0
 17 44  1  0
 17 45  1  0
 17 46  1  0
 18 47  1  0
 18 48  1  0
 18 49  1  0
 20 50  1  0
 20 51  1  0
 20 52  1  0
 24 53  1  0
 27 54  1  0
 27 55  1  0
 27 56  1  0
 28 57  1  0
 28 58  1  0
 28 59  1  0
 29 60  1  0
 29 61  1  0
 29 62  1  0
M  END
$$$$
