
     RDKit          3D

 40 43  0  0  0  0  0  0  0  0999 V2000
    1.8819    1.6029    1.5590 O   0  0  0  0  0  0  0  0  0  0  0  0
    2.2546    1.4654    0.1654 S   0  0  0  0  0  6  0  0  0  0  0  0
    2.7502    2.6039   -0.5754 O   0  0  0  0  0  0  0  0  0  0  0  0
    3.4664    0.2099    0.0597 C   0  0  0  0  0  0  0  0  0  0  0  0
    4.0879   -0.3104    1.2174 C   0  0  0  0  0  0  0  0  0  0  0  0
    5.0752   -1.3271    1.1653 C   0  0  0  0  0  0  0  0  0  0  0  0
    5.5165   -1.9029   -0.0403 C   0  0  0  0  0  0  0  0  0  0  0  0
    4.9025   -1.3935   -1.2011 C   0  0  0  0  0  0  0  0  0  0  0  0
    5.1018   -1.7410   -2.4770 N   0  0  0  0  0  0  0  0  0  0  0  0
    4.2530   -0.9425   -3.2218 O   0  0  0  0  0  0  0  0  0  0  0  0
    3.5043   -0.1021   -2.4200 N   0  0  0  0  0  0  0  0  0  0  0  0
    3.8861   -0.3458   -1.1594 C   0  0  0  0  0  0  0  0  0  0  0  0
    0.9032    0.8207   -0.6412 N   0  0  0  0  0  0  0  0  0  0  0  0
    0.3471   -0.4479   -0.0662 C   0  0  0  0  0  0  0  0  0  0  0  0
   -1.0878   -0.7368   -0.5490 C   0  0  0  0  0  0  0  0  0  0  0  0
   -2.0008    0.3562   -0.1821 N   0  0  0  0  0  0  0  0  0  0  0  0
   -3.3316    0.1234    0.1409 C   0  0  0  0  0  0  0  0  0  0  0  0
   -4.0078   -1.0085   -0.3511 C   0  0  0  0  0  0  0  0  0  0  0  0
   -5.3526   -1.2663   -0.0485 C   0  0  0  0  0  0  0  0  0  0  0  0
   -6.0687   -0.3922    0.7606 C   0  0  0  0  0  0  0  0  0  0  0  0
   -5.4376    0.7390    1.2621 C   0  0  0  0  0  0  0  0  0  0  0  0
   -4.0974    0.9868    0.9530 C   0  0  0  0  0  0  0  0  0  0  0  0
   -3.5462    2.0865    1.4934 F   0  0  0  0  0  0  0  0  0  0  0  0
   -1.3989    1.6935   -0.0356 C   0  0  0  0  0  0  0  0  0  0  0  0
   -0.1620    1.8390   -0.9409 C   0  0  0  0  0  0  0  0  0  0  0  0
    3.8092    0.0850    2.1965 H   0  0  0  0  0  0  0  0  0  0  0  0
    5.5143   -1.6752    2.1017 H   0  0  0  0  0  0  0  0  0  0  0  0
    6.2714   -2.6783   -0.0777 H   0  0  0  0  0  0  0  0  0  0  0  0
    0.9919   -1.2797   -0.3689 H   0  0  0  0  0  0  0  0  0  0  0  0
    0.3453   -0.3960    1.0287 H   0  0  0  0  0  0  0  0  0  0  0  0
   -1.3987   -1.6839   -0.0923 H   0  0  0  0  0  0  0  0  0  0  0  0
   -1.0993   -0.8638   -1.6382 H   0  0  0  0  0  0  0  0  0  0  0  0
   -3.5028   -1.7071   -1.0130 H   0  0  0  0  0  0  0  0  0  0  0  0
   -5.8371   -2.1503   -0.4561 H   0  0  0  0  0  0  0  0  0  0  0  0
   -7.1108   -0.5892    0.9962 H   0  0  0  0  0  0  0  0  0  0  0  0
   -5.9729    1.4366    1.8983 H   0  0  0  0  0  0  0  0  0  0  0  0
   -2.1122    2.4711   -0.3333 H   0  0  0  0  0  0  0  0  0  0  0  0
   -1.1169    1.8573    1.0112 H   0  0  0  0  0  0  0  0  0  0  0  0
    0.2274    2.8589   -0.8568 H   0  0  0  0  0  0  0  0  0  0  0  0
   -0.4481    1.7043   -1.9917 H   0  0  0  0  0  0  0  0  0  0  0  0
  1  2  2  0
  2  3  2  0
  2  4  1  0
  4  5  2  0
  5  6  1  0
  6  7  2  0
  7  8  1  0
  8  9  2  0
  9 10  1  0
 10 11  1  0
 11 12  2  0
  2 13  1  0
 13 14  1  0
 14 15  1  0
 15 16  1  0
 16 17  1  0
 17 18  2  0
 18 19  1  0
 19 20  2  0
 20 21  1  0
 21 22  2  0
 22 23  1  0
 16 24  1  0
 24 25  1  0
 12  4  1  0
 25 13  1  0
 12  8  1  0
 22 17  1  0
  5 26  1  0
  6 27  1  0
  7 28  1  0
 14 29  1  0
 14 30  1  0
 15 31  1  0
 15 32  1  0
 18 33  1  0
 19 34  1  0
 20 35  1  0
 21 36  1  0
 24 37  1  0
 24 38  1  0
 25 39  1  0
 25 40  1  0
M  END
$$$$
