
     RDKit          3D

 35 37  0  0  0  0  0  0  0  0999 V2000
   -7.2157   -0.1521    0.3965 C   0  0  0  0  0  0  0  0  0  0  0  0
   -5.8278   -0.6474    0.0728 C   0  0  0  0  0  0  0  0  0  0  0  0
   -5.6631   -1.7318   -0.4735 O   0  0  0  0  0  0  0  0  0  0  0  0
   -4.8517    0.2629    0.4363 N   0  0  0  0  0  0  0  0  0  0  0  0
   -3.4563    0.1336    0.2810 C   0  0  0  0  0  0  0  0  0  0  0  0
   -2.6622    1.2002    0.7182 C   0  0  0  0  0  0  0  0  0  0  0  0
   -1.2661    1.1535    0.6020 C   0  0  0  0  0  0  0  0  0  0  0  0
   -0.6330    0.0365    0.0455 C   0  0  0  0  0  0  0  0  0  0  0  0
    0.8143   -0.0523   -0.0934 C   0  0  0  0  0  0  0  0  0  0  0  0
    1.7401    0.9025    0.2759 C   0  0  0  0  0  0  0  0  0  0  0  0
    2.9664    0.3763   -0.0462 N   0  0  0  0  0  0  0  0  0  0  0  0
    4.2362    0.9257    0.1159 C   0  0  0  0  0  0  0  0  0  0  0  0
    5.3170    0.2230   -0.2763 C   0  0  0  0  0  0  0  0  0  0  0  0
    6.7233    0.7172   -0.1486 C   0  0  0  0  0  0  0  0  0  0  0  0
    5.1054   -1.1013   -0.8618 C   0  0  0  0  0  0  0  0  0  0  0  0
    3.8716   -1.6219   -1.0133 C   0  0  0  0  0  0  0  0  0  0  0  0
    2.7340   -0.8762   -0.5977 C   0  0  0  0  0  0  0  0  0  0  0  0
    1.4484   -1.1517   -0.6348 N   0  0  0  0  0  0  0  0  0  0  0  0
   -1.4342   -1.0273   -0.3891 C   0  0  0  0  0  0  0  0  0  0  0  0
   -2.8306   -0.9811   -0.2732 C   0  0  0  0  0  0  0  0  0  0  0  0
   -7.5598    0.5095   -0.4028 H   0  0  0  0  0  0  0  0  0  0  0  0
   -7.2270    0.3844    1.3497 H   0  0  0  0  0  0  0  0  0  0  0  0
   -7.8956   -1.0049    0.4801 H   0  0  0  0  0  0  0  0  0  0  0  0
   -5.1706    1.1265    0.8558 H   0  0  0  0  0  0  0  0  0  0  0  0
   -3.1134    2.0865    1.1565 H   0  0  0  0  0  0  0  0  0  0  0  0
   -0.6917    2.0048    0.9549 H   0  0  0  0  0  0  0  0  0  0  0  0
    1.6493    1.8797    0.7245 H   0  0  0  0  0  0  0  0  0  0  0  0
    4.2932    1.9119    0.5587 H   0  0  0  0  0  0  0  0  0  0  0  0
    7.2014    0.7764   -1.1321 H   0  0  0  0  0  0  0  0  0  0  0  0
    6.7625    1.7152    0.3009 H   0  0  0  0  0  0  0  0  0  0  0  0
    7.3118    0.0443    0.4841 H   0  0  0  0  0  0  0  0  0  0  0  0
    5.9761   -1.6690   -1.1785 H   0  0  0  0  0  0  0  0  0  0  0  0
    3.7159   -2.6029   -1.4471 H   0  0  0  0  0  0  0  0  0  0  0  0
   -0.9744   -1.9124   -0.8269 H   0  0  0  0  0  0  0  0  0  0  0  0
   -3.3937   -1.8385   -0.6282 H   0  0  0  0  0  0  0  0  0  0  0  0
  1  2  1  0
  2  3  2  0
  2  4  1  0
  4  5  1  0
  5  6  2  0
  6  7  1  0
  7  8  2  0
  8  9  1  0
  9 10  2  0
 10 11  1  0
 11 12  1  0
 12 13  2  0
 13 14  1  0
 13 15  1  0
 15 16  2  0
 16 17  1  0
 17 18  2  0
  8 19  1  0
 19 20  2  0
 20  5  1  0
 18  9  1  0
 17 11  1  0
  1 21  1  0
  1 22  1  0
  1 23  1  0
  4 24  1  0
  6 25  1  0
  7 26  1  0
 10 27  1  0
 12 28  1  0
 14 29  1  0
 14 30  1  0
 14 31  1  0
 15 32  1  0
 16 33  1  0
 19 34  1  0
 20 35  1  0
M  END
$$$$
