
     RDKit          3D

 66 72  0  0  0  0  0  0  0  0999 V2000
    1.9916    2.2194   -0.8757 O   0  0  0  0  0  0  0  0  0  0  0  0
    2.2197    1.2678   -0.1406 C   0  0  0  0  0  0  0  0  0  0  0  0
    3.3938    0.4928   -0.1327 N   0  0  0  0  0  0  0  0  0  0  0  0
    4.4573    0.6635   -1.0967 C   0  0  0  0  0  0  0  0  0  0  0  0
    4.3584   -0.3296   -2.2345 C   0  0  0  0  0  0  0  0  0  0  0  0
    5.3830   -1.2591   -2.4656 C   0  0  0  0  0  0  0  0  0  0  0  0
    5.2745   -2.1919   -3.4991 C   0  0  0  0  0  0  0  0  0  0  0  0
    4.1437   -2.2042   -4.3127 C   0  0  0  0  0  0  0  0  0  0  0  0
    3.1261   -1.2763   -4.1042 C   0  0  0  0  0  0  0  0  0  0  0  0
    3.2350   -0.3398   -3.0758 C   0  0  0  0  0  0  0  0  0  0  0  0
    3.3200   -0.5415    0.8125 C   0  0  0  0  0  0  0  0  0  0  0  0
    4.2610   -1.5117    1.1082 C   0  0  0  0  0  0  0  0  0  0  0  0
    3.9477   -2.4549    2.0913 C   0  0  0  0  0  0  0  0  0  0  0  0
    2.7117   -2.4172    2.7555 C   0  0  0  0  0  0  0  0  0  0  0  0
    1.7688   -1.4347    2.4477 C   0  0  0  0  0  0  0  0  0  0  0  0
    2.0860   -0.4985    1.4709 C   0  0  0  0  0  0  0  0  0  0  0  0
    1.2791    0.6412    0.9212 C   0  0  0  0  0  0  0  0  0  0  0  0
    0.8206    1.6376    1.9429 N   0  0  0  0  0  0  0  0  0  0  0  0
   -0.6001    2.0469    1.5884 C   0  0  2  0  0  0  0  0  0  0  0  0
   -1.4082    2.3008    2.8730 C   0  0  0  0  0  0  0  0  0  0  0  0
   -2.6831    3.0911    2.6818 C   0  0  0  0  0  0  0  0  0  0  0  0
   -2.6410    4.4241    2.2504 C   0  0  0  0  0  0  0  0  0  0  0  0
   -3.8190    5.1583    2.0975 C   0  0  0  0  0  0  0  0  0  0  0  0
   -5.0507    4.5707    2.3803 C   0  0  0  0  0  0  0  0  0  0  0  0
   -5.1046    3.2484    2.8149 C   0  0  0  0  0  0  0  0  0  0  0  0
   -3.9276    2.5133    2.9672 C   0  0  0  0  0  0  0  0  0  0  0  0
   -1.0485    0.8996    0.7594 C   0  0  0  0  0  0  0  0  0  0  0  0
    0.0291    0.1139    0.3511 C   0  0  0  0  0  0  0  0  0  0  0  0
   -0.4260   -0.8727   -0.4877 C   0  0  0  0  0  0  0  0  0  0  0  0
    0.2363   -1.8433   -1.1128 O   0  0  0  0  0  0  0  0  0  0  0  0
   -1.8271   -0.7459   -0.5454 N   0  0  0  0  0  0  0  0  0  0  0  0
   -2.7374   -1.6407   -1.1943 C   0  0  0  0  0  0  0  0  0  0  0  0
   -2.3574   -2.3424   -2.3448 C   0  0  0  0  0  0  0  0  0  0  0  0
   -3.2587   -3.2060   -2.9732 C   0  0  0  0  0  0  0  0  0  0  0  0
   -4.5390   -3.3844   -2.4537 C   0  0  0  0  0  0  0  0  0  0  0  0
   -4.9204   -2.7036   -1.3002 C   0  0  0  0  0  0  0  0  0  0  0  0
   -4.0250   -1.8360   -0.6701 C   0  0  0  0  0  0  0  0  0  0  0  0
   -2.1835    0.4179    0.1667 C   0  0  0  0  0  0  0  0  0  0  0  0
   -3.4021    0.9530    0.1689 O   0  0  0  0  0  0  0  0  0  0  0  0
    5.4195    0.5801   -0.5769 H   0  0  0  0  0  0  0  0  0  0  0  0
    4.4125    1.6766   -1.5158 H   0  0  0  0  0  0  0  0  0  0  0  0
    6.2734   -1.2670   -1.8414 H   0  0  0  0  0  0  0  0  0  0  0  0
    6.0717   -2.9124   -3.6682 H   0  0  0  0  0  0  0  0  0  0  0  0
    4.0564   -2.9345   -5.1135 H   0  0  0  0  0  0  0  0  0  0  0  0
    2.2453   -1.2798   -4.7402 H   0  0  0  0  0  0  0  0  0  0  0  0
    2.4332    0.3831   -2.9348 H   0  0  0  0  0  0  0  0  0  0  0  0
    5.2200   -1.5564    0.6060 H   0  0  0  0  0  0  0  0  0  0  0  0
    4.6684   -3.2297    2.3447 H   0  0  0  0  0  0  0  0  0  0  0  0
    2.4858   -3.1641    3.5137 H   0  0  0  0  0  0  0  0  0  0  0  0
    0.8065   -1.4191    2.9520 H   0  0  0  0  0  0  0  0  0  0  0  0
    0.7632    1.1343    2.8264 H   0  0  0  0  0  0  0  0  0  0  0  0
   -0.5338    2.9490    0.9684 H   0  0  0  0  0  0  0  0  0  0  0  0
   -1.6304    1.3482    3.3740 H   0  0  0  0  0  0  0  0  0  0  0  0
   -0.7954    2.8723    3.5843 H   0  0  0  0  0  0  0  0  0  0  0  0
   -1.6890    4.9025    2.0320 H   0  0  0  0  0  0  0  0  0  0  0  0
   -3.7729    6.1900    1.7576 H   0  0  0  0  0  0  0  0  0  0  0  0
   -5.9676    5.1413    2.2602 H   0  0  0  0  0  0  0  0  0  0  0  0
   -6.0625    2.7853    3.0312 H   0  0  0  0  0  0  0  0  0  0  0  0
   -3.9906    1.4787    3.2954 H   0  0  0  0  0  0  0  0  0  0  0  0
    1.1848   -1.7601   -0.9057 H   0  0  0  0  0  0  0  0  0  0  0  0
   -1.3771   -2.2100   -2.7941 H   0  0  0  0  0  0  0  0  0  0  0  0
   -2.9571   -3.7375   -3.8726 H   0  0  0  0  0  0  0  0  0  0  0  0
   -5.2358   -4.0603   -2.9422 H   0  0  0  0  0  0  0  0  0  0  0  0
   -5.9117   -2.8580   -0.8820 H   0  0  0  0  0  0  0  0  0  0  0  0
   -4.3379   -1.3617    0.2580 H   0  0  0  0  0  0  0  0  0  0  0  0
   -3.8630    0.6831   -0.6459 H   0  0  0  0  0  0  0  0  0  0  0  0
  1  2  2  0
  2  3  1  0
  3  4  1  0
  4  5  1  0
  5  6  2  0
  6  7  1  0
  7  8  2  0
  8  9  1  0
  9 10  2  0
  3 11  1  0
 11 12  2  0
 12 13  1  0
 13 14  2  0
 14 15  1  0
 15 16  2  0
 16 17  1  0
 17 18  1  0
 18 19  1  0
 19 20  1  0
 20 21  1  0
 21 22  2  0
 22 23  1  0
 23 24  2  0
 24 25  1  0
 25 26  2  0
 19 27  1  0
 27 28  1  0
 28 29  2  0
 29 30  1  0
 29 31  1  0
 31 32  1  0
 32 33  2  0
 33 34  1  0
 34 35  2  0
 35 36  1  0
 36 37  2  0
 31 38  1  0
 38 39  1  0
 17  2  1  0
 26 21  1  0
 38 27  2  0
 10  5  1  0
 16 11  1  0
 28 17  1  0
 37 32  1  0
  4 40  1  0
  4 41  1  0
  6 42  1  0
  7 43  1  0
  8 44  1  0
  9 45  1  0
 10 46  1  0
 12 47  1  0
 13 48  1  0
 14 49  1  0
 15 50  1  0
 18 51  1  0
 19 52  1  6
 20 53  1  0
 20 54  1  0
 22 55  1  0
 23 56  1  0
 24 57  1  0
 25 58  1  0
 26 59  1  0
 30 60  1  0
 33 61  1  0
 34 62  1  0
 35 63  1  0
 36 64  1  0
 37 65  1  0
 39 66  1  0
M  END
$$$$
