
     RDKit          3D

 36 37  0  0  0  0  0  0  0  0999 V2000
    2.1521   -0.4871   -2.5382 C   0  0  0  0  0  0  0  0  0  0  0  0
    1.3481    0.0565   -1.3540 C   0  0  0  0  0  0  0  0  0  0  0  0
    0.1918   -0.8265   -1.1757 N   0  0  0  0  0  0  0  0  0  0  0  0
   -0.8125   -0.4860   -0.4452 C   0  0  0  0  0  0  0  0  0  0  0  0
   -1.9367   -1.5206   -0.3888 C   0  0  0  0  0  0  0  0  0  0  0  0
   -3.2851   -0.9432   -0.7879 C   0  0  0  0  0  0  0  0  0  0  0  0
   -4.0284   -0.2945    0.3786 C   0  0  0  0  0  0  0  0  0  0  0  0
   -3.1638    0.5423    1.3214 C   0  0  0  0  0  0  0  0  0  0  0  0
   -2.1331    1.3965    0.6000 C   0  0  0  0  0  0  0  0  0  0  0  0
   -0.9174    0.6683    0.2956 N   0  0  0  0  0  0  0  0  0  0  0  0
    2.2478    0.1673   -0.1345 C   0  0  0  0  0  0  0  0  0  0  0  0
    2.9064    1.3754    0.1442 C   0  0  0  0  0  0  0  0  0  0  0  0
    3.7431    1.4887    1.2562 C   0  0  0  0  0  0  0  0  0  0  0  0
    3.9358    0.3959    2.0990 C   0  0  0  0  0  0  0  0  0  0  0  0
    3.2959   -0.8120    1.8290 C   0  0  0  0  0  0  0  0  0  0  0  0
    2.4601   -0.9268    0.7172 C   0  0  0  0  0  0  0  0  0  0  0  0
    3.0142    0.1512   -2.7610 H   0  0  0  0  0  0  0  0  0  0  0  0
    1.5277   -0.5380   -3.4373 H   0  0  0  0  0  0  0  0  0  0  0  0
    2.5252   -1.4989   -2.3406 H   0  0  0  0  0  0  0  0  0  0  0  0
    0.9915    1.0563   -1.6361 H   0  0  0  0  0  0  0  0  0  0  0  0
   -1.9617   -1.9632    0.6132 H   0  0  0  0  0  0  0  0  0  0  0  0
   -1.6871   -2.3315   -1.0851 H   0  0  0  0  0  0  0  0  0  0  0  0
   -3.1598   -0.2143   -1.5981 H   0  0  0  0  0  0  0  0  0  0  0  0
   -3.9188   -1.7436   -1.1891 H   0  0  0  0  0  0  0  0  0  0  0  0
   -4.5269   -1.0728    0.9699 H   0  0  0  0  0  0  0  0  0  0  0  0
   -4.8298    0.3328   -0.0316 H   0  0  0  0  0  0  0  0  0  0  0  0
   -3.8332    1.1950    1.8954 H   0  0  0  0  0  0  0  0  0  0  0  0
   -2.6709   -0.1093    2.0538 H   0  0  0  0  0  0  0  0  0  0  0  0
   -1.8566    2.2271    1.2600 H   0  0  0  0  0  0  0  0  0  0  0  0
   -2.5457    1.8459   -0.3102 H   0  0  0  0  0  0  0  0  0  0  0  0
   -0.0996    1.2657    0.2623 H   0  0  0  0  0  0  0  0  0  0  0  0
    2.7763    2.2351   -0.5090 H   0  0  0  0  0  0  0  0  0  0  0  0
    4.2490    2.4282    1.4624 H   0  0  0  0  0  0  0  0  0  0  0  0
    4.5882    0.4831    2.9636 H   0  0  0  0  0  0  0  0  0  0  0  0
    3.4472   -1.6674    2.4818 H   0  0  0  0  0  0  0  0  0  0  0  0
    1.9668   -1.8755    0.5139 H   0  0  0  0  0  0  0  0  0  0  0  0
  1  2  1  0
  2  3  1  0
  3  4  2  3
  4  5  1  0
  5  6  1  0
  6  7  1  0
  7  8  1  0
  8  9  1  0
  9 10  1  0
  2 11  1  0
 11 12  2  0
 12 13  1  0
 13 14  2  0
 14 15  1  0
 15 16  2  0
 10  4  1  0
 16 11  1  0
  1 17  1  0
  1 18  1  0
  1 19  1  0
  2 20  1  0
  5 21  1  0
  5 22  1  0
  6 23  1  0
  6 24  1  0
  7 25  1  0
  7 26  1  0
  8 27  1  0
  8 28  1  0
  9 29  1  0
  9 30  1  0
 10 31  1  0
 12 32  1  0
 13 33  1  0
 14 34  1  0
 15 35  1  0
 16 36  1  0
M  END
$$$$
