
     RDKit          3D

 22 23  0  0  0  0  0  0  0  0999 V2000
   -4.1682    0.3963    0.2518 C   0  0  0  0  0  0  0  0  0  0  0  0
   -2.6780    0.2375    0.1933 C   0  0  0  0  0  0  0  0  0  0  0  0
   -1.9100    1.0428   -0.6520 C   0  0  0  0  0  0  0  0  0  0  0  0
   -0.5217    0.8743   -0.7318 C   0  0  0  0  0  0  0  0  0  0  0  0
    0.1338   -0.1102    0.0248 C   0  0  0  0  0  0  0  0  0  0  0  0
    1.5912   -0.3351   -0.0167 C   0  0  0  0  0  0  0  0  0  0  0  0
    2.2142   -1.3082    0.6243 N   0  0  0  0  0  0  0  0  0  0  0  0
    3.5786   -1.2980    0.4190 N   0  0  0  0  0  0  0  0  0  0  0  0
    3.9585   -0.3174   -0.3648 C   0  0  0  0  0  0  0  0  0  0  0  0
    5.2358   -0.0724   -0.7169 N   0  0  0  0  0  0  0  0  0  0  0  0
    2.6699    0.6741   -0.9061 S   0  0  0  0  0  0  0  0  0  0  0  0
   -0.6541   -0.9236    0.8572 C   0  0  0  0  0  0  0  0  0  0  0  0
   -2.0408   -0.7570    0.9384 C   0  0  0  0  0  0  0  0  0  0  0  0
   -4.6420   -0.2369   -0.5047 H   0  0  0  0  0  0  0  0  0  0  0  0
   -4.5524    0.1171    1.2386 H   0  0  0  0  0  0  0  0  0  0  0  0
   -4.4573    1.4374    0.0739 H   0  0  0  0  0  0  0  0  0  0  0  0
   -2.3865    1.8105   -1.2586 H   0  0  0  0  0  0  0  0  0  0  0  0
    0.0256    1.5291   -1.4051 H   0  0  0  0  0  0  0  0  0  0  0  0
    5.9348   -0.5189   -0.1320 H   0  0  0  0  0  0  0  0  0  0  0  0
    5.4727    0.8772   -0.9774 H   0  0  0  0  0  0  0  0  0  0  0  0
   -0.1884   -1.7063    1.4556 H   0  0  0  0  0  0  0  0  0  0  0  0
   -2.6157   -1.4122    1.5895 H   0  0  0  0  0  0  0  0  0  0  0  0
  1  2  1  0
  2  3  2  0
  3  4  1  0
  4  5  2  0
  5  6  1  0
  6  7  2  0
  7  8  1  0
  8  9  2  0
  9 10  1  0
  9 11  1  0
  5 12  1  0
 12 13  2  0
 13  2  1  0
 11  6  1  0
  1 14  1  0
  1 15  1  0
  1 16  1  0
  3 17  1  0
  4 18  1  0
 10 19  1  0
 10 20  1  0
 12 21  1  0
 13 22  1  0
M  END
$$$$
