
     RDKit          3D

 48 49  0  0  0  0  0  0  0  0999 V2000
   -6.4845   -1.0917   -2.2462 C   0  0  0  0  0  0  0  0  0  0  0  0
   -5.2004   -1.0433   -1.4729 C   0  0  0  0  0  0  0  0  0  0  0  0
   -4.1988   -1.9941   -1.6961 C   0  0  0  0  0  0  0  0  0  0  0  0
   -2.9894   -1.9275   -0.9995 C   0  0  0  0  0  0  0  0  0  0  0  0
   -2.7593   -0.9039   -0.0706 C   0  0  0  0  0  0  0  0  0  0  0  0
   -1.4445   -0.8207    0.6705 C   0  0  0  0  0  0  0  0  0  0  0  0
   -0.4253    0.0961   -0.0363 C   0  0  0  0  0  0  0  0  0  0  0  0
    0.9084   -0.5457   -0.0817 N   0  0  0  0  0  0  0  0  0  0  0  0
    1.8814   -0.0380   -0.9249 C   0  0  0  0  0  0  0  0  0  0  0  0
    1.7772    1.0387   -1.4969 O   0  0  0  0  0  0  0  0  0  0  0  0
    3.0899   -0.8841   -1.1217 C   0  0  0  0  0  0  0  0  0  0  0  0
    3.8087   -0.7519   -2.3160 C   0  0  0  0  0  0  0  0  0  0  0  0
    4.9490   -1.5261   -2.5374 C   0  0  0  0  0  0  0  0  0  0  0  0
    5.3801   -2.4260   -1.5635 C   0  0  0  0  0  0  0  0  0  0  0  0
    4.6777   -2.5497   -0.3644 C   0  0  0  0  0  0  0  0  0  0  0  0
    3.5349   -1.7782   -0.1388 C   0  0  0  0  0  0  0  0  0  0  0  0
   -0.3833    1.4456    0.7246 C   0  0  0  0  0  0  0  0  0  0  0  0
   -1.2991    2.2641    0.6791 O   0  0  0  0  0  0  0  0  0  0  0  0
    0.6873    1.5913    1.5763 N   0  0  0  0  0  0  0  0  0  0  0  0
    0.9489    2.8176    2.3206 C   0  0  0  0  0  0  0  0  0  0  0  0
    1.4296    3.9317    1.3977 C   0  0  0  0  0  0  0  0  0  0  0  0
    2.0066    2.5751    3.4000 C   0  0  0  0  0  0  0  0  0  0  0  0
    2.3937    3.3830    4.2300 O   0  0  0  0  0  0  0  0  0  0  0  0
    2.5650    1.3410    3.3600 O   0  0  0  0  0  0  0  0  0  0  0  0
   -3.7543    0.0585    0.1363 C   0  0  0  0  0  0  0  0  0  0  0  0
   -4.9627   -0.0096   -0.5609 C   0  0  0  0  0  0  0  0  0  0  0  0
   -6.3966   -0.4907   -3.1564 H   0  0  0  0  0  0  0  0  0  0  0  0
   -7.3149   -0.7067   -1.6456 H   0  0  0  0  0  0  0  0  0  0  0  0
   -6.7358   -2.1204   -2.5246 H   0  0  0  0  0  0  0  0  0  0  0  0
   -4.3537   -2.7931   -2.4174 H   0  0  0  0  0  0  0  0  0  0  0  0
   -2.2295   -2.6809   -1.1922 H   0  0  0  0  0  0  0  0  0  0  0  0
   -1.0530   -1.8419    0.7691 H   0  0  0  0  0  0  0  0  0  0  0  0
   -1.6365   -0.4913    1.7007 H   0  0  0  0  0  0  0  0  0  0  0  0
   -0.7111    0.3114   -1.0737 H   0  0  0  0  0  0  0  0  0  0  0  0
    0.9286   -1.5487    0.0427 H   0  0  0  0  0  0  0  0  0  0  0  0
    3.4805   -0.0464   -3.0770 H   0  0  0  0  0  0  0  0  0  0  0  0
    5.5026   -1.4228   -3.4677 H   0  0  0  0  0  0  0  0  0  0  0  0
    6.2711   -3.0253   -1.7366 H   0  0  0  0  0  0  0  0  0  0  0  0
    5.0281   -3.2408    0.3985 H   0  0  0  0  0  0  0  0  0  0  0  0
    3.0237   -1.8673    0.8154 H   0  0  0  0  0  0  0  0  0  0  0  0
    1.4564    0.9377    1.4730 H   0  0  0  0  0  0  0  0  0  0  0  0
    0.0183    3.1074    2.8202 H   0  0  0  0  0  0  0  0  0  0  0  0
    1.6368    4.8476    1.9613 H   0  0  0  0  0  0  0  0  0  0  0  0
    0.6826    4.1679    0.6338 H   0  0  0  0  0  0  0  0  0  0  0  0
    2.3530    3.6442    0.8819 H   0  0  0  0  0  0  0  0  0  0  0  0
    3.2218    1.3720    4.0871 H   0  0  0  0  0  0  0  0  0  0  0  0
   -3.5940    0.8791    0.8346 H   0  0  0  0  0  0  0  0  0  0  0  0
   -5.7152    0.7567   -0.3897 H   0  0  0  0  0  0  0  0  0  0  0  0
  1  2  1  0
  2  3  2  0
  3  4  1  0
  4  5  2  0
  5  6  1  0
  6  7  1  0
  7  8  1  0
  8  9  1  0
  9 10  2  0
  9 11  1  0
 11 12  2  0
 12 13  1  0
 13 14  2  0
 14 15  1  0
 15 16  2  0
  7 17  1  0
 17 18  2  0
 17 19  1  0
 19 20  1  0
 20 21  1  0
 20 22  1  0
 22 23  2  0
 22 24  1  0
  5 25  1  0
 25 26  2  0
 26  2  1  0
 16 11  1  0
  1 27  1  0
  1 28  1  0
  1 29  1  0
  3 30  1  0
  4 31  1  0
  6 32  1  0
  6 33  1  0
  7 34  1  0
  8 35  1  0
 12 36  1  0
 13 37  1  0
 14 38  1  0
 15 39  1  0
 16 40  1  0
 19 41  1  0
 20 42  1  0
 21 43  1  0
 21 44  1  0
 21 45  1  0
 24 46  1  0
 25 47  1  0
 26 48  1  0
M  END
$$$$
