
     RDKit          3D

 35 37  0  0  0  0  0  0  0  0999 V2000
    1.2434   -1.6687   -2.0730 O   0  0  0  0  0  0  0  0  0  0  0  0
    1.5030   -0.7598   -1.2932 C   0  0  0  0  0  0  0  0  0  0  0  0
    0.5756   -0.2102   -0.4374 N   0  0  0  0  0  0  0  0  0  0  0  0
   -0.7833   -0.7311   -0.3402 C   0  0  0  0  0  0  0  0  0  0  0  0
   -0.7812   -1.9686    0.5726 C   0  0  0  0  0  0  0  0  0  0  0  0
   -2.1949   -2.3561    0.9791 C   0  0  0  0  0  0  0  0  0  0  0  0
   -2.8274   -1.2332    1.7944 C   0  0  0  0  0  0  0  0  0  0  0  0
   -2.7096    0.1106    1.1189 C   0  0  0  0  0  0  0  0  0  0  0  0
   -3.5711    1.1446    1.5192 C   0  0  0  0  0  0  0  0  0  0  0  0
   -3.5054    2.4000    0.9172 C   0  0  0  0  0  0  0  0  0  0  0  0
   -2.5801    2.6365   -0.0934 C   0  0  0  0  0  0  0  0  0  0  0  0
   -1.7092    1.6219   -0.4899 C   0  0  0  0  0  0  0  0  0  0  0  0
   -1.7402    0.3565    0.1266 C   0  0  0  0  0  0  0  0  0  0  0  0
    2.8697   -0.1878   -1.2626 C   0  0  0  0  0  0  0  0  0  0  0  0
    3.6783   -0.3504   -2.3841 C   0  0  0  0  0  0  0  0  0  0  0  0
    4.9448    0.1288   -2.4826 N   0  0  0  0  0  0  0  0  0  0  0  0
    5.4286    0.7864   -1.4035 C   0  0  0  0  0  0  0  0  0  0  0  0
    4.7031    0.9812   -0.2374 C   0  0  0  0  0  0  0  0  0  0  0  0
    5.4634    1.8963    1.2260 Br  0  0  0  0  0  0  0  0  0  0  0  0
    3.4036    0.4854   -0.1604 C   0  0  0  0  0  0  0  0  0  0  0  0
    0.8113    0.5566    0.1749 H   0  0  0  0  0  0  0  0  0  0  0  0
   -1.1106   -1.0425   -1.3413 H   0  0  0  0  0  0  0  0  0  0  0  0
   -0.1869   -1.7747    1.4763 H   0  0  0  0  0  0  0  0  0  0  0  0
   -0.2963   -2.8087    0.0609 H   0  0  0  0  0  0  0  0  0  0  0  0
   -2.1773   -3.2767    1.5731 H   0  0  0  0  0  0  0  0  0  0  0  0
   -2.7956   -2.5601    0.0837 H   0  0  0  0  0  0  0  0  0  0  0  0
   -3.8834   -1.4755    1.9634 H   0  0  0  0  0  0  0  0  0  0  0  0
   -2.3402   -1.1688    2.7753 H   0  0  0  0  0  0  0  0  0  0  0  0
   -4.3087    0.9706    2.3001 H   0  0  0  0  0  0  0  0  0  0  0  0
   -4.1847    3.1888    1.2294 H   0  0  0  0  0  0  0  0  0  0  0  0
   -2.5395    3.6087   -0.5777 H   0  0  0  0  0  0  0  0  0  0  0  0
   -1.0044    1.8208   -1.2955 H   0  0  0  0  0  0  0  0  0  0  0  0
    3.3217   -0.8807   -3.2650 H   0  0  0  0  0  0  0  0  0  0  0  0
    6.4451    1.1548   -1.5110 H   0  0  0  0  0  0  0  0  0  0  0  0
    2.8384    0.6050    0.7573 H   0  0  0  0  0  0  0  0  0  0  0  0
  1  2  2  0
  2  3  1  0
  3  4  1  0
  4  5  1  0
  5  6  1  0
  6  7  1  0
  7  8  1  0
  8  9  2  0
  9 10  1  0
 10 11  2  0
 11 12  1  0
 12 13  2  0
  2 14  1  0
 14 15  2  0
 15 16  1  0
 16 17  2  0
 17 18  1  0
 18 19  1  0
 18 20  2  0
 13  4  1  0
 20 14  1  0
 13  8  1  0
  3 21  1  0
  4 22  1  0
  5 23  1  0
  5 24  1  0
  6 25  1  0
  6 26  1  0
  7 27  1  0
  7 28  1  0
  9 29  1  0
 10 30  1  0
 11 31  1  0
 12 32  1  0
 15 33  1  0
 17 34  1  0
 20 35  1  0
M  END
$$$$
