
     RDKit          3D

 37 38  0  0  0  0  0  0  0  0999 V2000
   -5.1011    0.0364   -1.9299 C   0  0  0  0  0  0  0  0  0  0  0  0
   -4.6006    0.0192   -0.5586 N   0  0  0  0  0  0  0  0  0  0  0  0
   -4.2081    1.3769   -0.1260 C   0  0  0  0  0  0  0  0  0  0  0  0
   -3.1361    1.3885    0.9769 C   0  0  0  0  0  0  0  0  0  0  0  0
   -1.9077    0.7228    0.5335 N   0  0  0  0  0  0  0  0  0  0  0  0
   -0.7055    1.1273    1.0829 C   0  0  0  0  0  0  0  0  0  0  0  0
   -0.6283    1.9620    1.9815 O   0  0  0  0  0  0  0  0  0  0  0  0
    0.5290    0.5159    0.5191 C   0  0  0  0  0  0  0  0  0  0  0  0
    1.6724    0.5701    1.2201 C   0  0  0  0  0  0  0  0  0  0  0  0
    2.9459    0.0078    0.7547 C   0  0  0  0  0  0  0  0  0  0  0  0
    3.3704    0.1232   -0.5770 C   0  0  0  0  0  0  0  0  0  0  0  0
    4.6030   -0.4006   -0.9808 C   0  0  0  0  0  0  0  0  0  0  0  0
    5.4237   -1.0371   -0.0421 C   0  0  0  0  0  0  0  0  0  0  0  0
    6.7182   -1.5887   -0.4611 N   0  0  0  0  0  4  0  0  0  0  0  0
    7.0237   -1.4953   -1.6584 O   0  0  0  0  0  0  0  0  0  0  0  0
    7.4279   -2.1176    0.4060 O   0  0  0  0  0  1  0  0  0  0  0  0
    5.0215   -1.1455    1.2941 C   0  0  0  0  0  0  0  0  0  0  0  0
    3.7873   -0.6172    1.6862 C   0  0  0  0  0  0  0  0  0  0  0  0
   -2.0907   -0.3948   -0.4010 C   0  0  0  0  0  0  0  0  0  0  0  0
   -3.5212   -0.9673   -0.3717 C   0  0  0  0  0  0  0  0  0  0  0  0
   -5.9231    0.7536   -2.0316 H   0  0  0  0  0  0  0  0  0  0  0  0
   -4.3191    0.3005   -2.6508 H   0  0  0  0  0  0  0  0  0  0  0  0
   -5.5056   -0.9443   -2.2033 H   0  0  0  0  0  0  0  0  0  0  0  0
   -3.8109    1.9470   -0.9771 H   0  0  0  0  0  0  0  0  0  0  0  0
   -5.1008    1.9040    0.2293 H   0  0  0  0  0  0  0  0  0  0  0  0
   -3.4929    0.8627    1.8708 H   0  0  0  0  0  0  0  0  0  0  0  0
   -2.9172    2.4219    1.2673 H   0  0  0  0  0  0  0  0  0  0  0  0
    0.4797    0.0576   -0.4577 H   0  0  0  0  0  0  0  0  0  0  0  0
    1.6865    1.0319    2.2068 H   0  0  0  0  0  0  0  0  0  0  0  0
    2.7550    0.6373   -1.3124 H   0  0  0  0  0  0  0  0  0  0  0  0
    4.9073   -0.2971   -2.0205 H   0  0  0  0  0  0  0  0  0  0  0  0
    5.6504   -1.6303    2.0380 H   0  0  0  0  0  0  0  0  0  0  0  0
    3.4846   -0.7031    2.7290 H   0  0  0  0  0  0  0  0  0  0  0  0
   -1.8542   -0.0203   -1.4036 H   0  0  0  0  0  0  0  0  0  0  0  0
   -1.3810   -1.1922   -0.1584 H   0  0  0  0  0  0  0  0  0  0  0  0
   -3.6038   -1.7928   -1.0892 H   0  0  0  0  0  0  0  0  0  0  0  0
   -3.6786   -1.4223    0.6151 H   0  0  0  0  0  0  0  0  0  0  0  0
  1  2  1  0
  2  3  1  0
  3  4  1  0
  4  5  1  0
  5  6  1  0
  6  7  2  0
  6  8  1  0
  8  9  2  3
  9 10  1  0
 10 11  2  0
 11 12  1  0
 12 13  2  0
 13 14  1  0
 14 15  2  0
 14 16  1  0
 13 17  1  0
 17 18  2  0
  5 19  1  0
 19 20  1  0
 20  2  1  0
 18 10  1  0
  1 21  1  0
  1 22  1  0
  1 23  1  0
  3 24  1  0
  3 25  1  0
  4 26  1  0
  4 27  1  0
  8 28  1  0
  9 29  1  0
 11 30  1  0
 12 31  1  0
 17 32  1  0
 18 33  1  0
 19 34  1  0
 19 35  1  0
 20 36  1  0
 20 37  1  0
M  CHG  2  14   1  16  -1
M  END
$$$$
