
     RDKit          3D

 62 64  0  0  0  0  0  0  0  0999 V2000
   -4.7525    2.8013    0.5209 C   0  0  0  0  0  0  0  0  0  0  0  0
   -3.7558    1.6732    0.4860 C   0  0  0  0  0  0  0  0  0  0  0  0
   -2.5037    1.9781    1.0727 C   0  0  0  0  0  0  0  0  0  0  0  0
   -1.4798    1.0433    1.1439 C   0  0  0  0  0  0  0  0  0  0  0  0
   -0.3063    1.4518    1.7964 O   0  0  0  0  0  0  0  0  0  0  0  0
    0.7126    0.5501    2.0496 C   0  0  0  0  0  0  0  0  0  0  0  0
    1.6681    0.8588    2.7610 O   0  0  0  0  0  0  0  0  0  0  0  0
    0.6243   -0.7929    1.4052 C   0  0  0  0  0  0  0  0  0  0  0  0
    1.8553   -1.6317    1.6451 C   0  0  0  0  0  0  0  0  0  0  0  0
    3.0123   -1.0991    0.8093 C   0  0  0  0  0  0  0  0  0  0  0  0
    3.0445   -1.2200   -0.4124 O   0  0  0  0  0  0  0  0  0  0  0  0
    4.0048   -0.4925    1.5535 N   0  0  0  0  0  0  0  0  0  0  0  0
    5.1507    0.1464    0.9328 C   0  0  0  0  0  0  0  0  0  0  0  0
    6.1346   -0.8702    0.3552 C   0  0  0  0  0  0  0  0  0  0  0  0
    7.4970   -0.2503    0.0186 C   0  0  0  0  0  0  0  0  0  0  0  0
    7.4641    0.9047   -0.8957 N   0  0  0  0  0  0  0  0  0  0  0  0
    6.9023    0.5578   -2.2043 C   0  0  0  0  0  0  0  0  0  0  0  0
    8.8190    1.4442   -1.0545 C   0  0  0  0  0  0  0  0  0  0  0  0
   -0.4653   -1.1728    0.6994 C   0  0  0  0  0  0  0  0  0  0  0  0
   -0.5505   -2.4681   -0.0639 C   0  0  0  0  0  0  0  0  0  0  0  0
   -1.6040   -0.2384    0.6354 C   0  0  0  0  0  0  0  0  0  0  0  0
   -2.8709   -0.5477    0.1080 C   0  0  0  0  0  0  0  0  0  0  0  0
   -3.2250   -1.7716   -0.3630 O   0  0  0  0  0  0  0  0  0  0  0  0
   -4.4983   -1.7054   -0.7776 C   0  0  0  0  0  0  0  0  0  0  0  0
   -5.0417   -0.4429   -0.5986 C   0  0  0  0  0  0  0  0  0  0  0  0
   -6.4738   -0.0754   -1.0046 C   0  0  0  0  0  0  0  0  0  0  0  0
   -7.2820    0.4749    0.1853 C   0  0  0  0  0  0  0  0  0  0  0  0
   -6.4619    0.9048   -2.1947 C   0  0  0  0  0  0  0  0  0  0  0  0
   -7.2709   -1.3203   -1.4976 C   0  0  0  0  0  0  0  0  0  0  0  0
   -3.9614    0.3402    0.0077 C   0  0  0  0  0  0  0  0  0  0  0  0
   -5.2787    2.7984    1.4805 H   0  0  0  0  0  0  0  0  0  0  0  0
   -5.4742    2.7538   -0.2861 H   0  0  0  0  0  0  0  0  0  0  0  0
   -4.2466    3.7674    0.4124 H   0  0  0  0  0  0  0  0  0  0  0  0
   -2.3281    2.9694    1.4908 H   0  0  0  0  0  0  0  0  0  0  0  0
    2.1133   -1.6352    2.7131 H   0  0  0  0  0  0  0  0  0  0  0  0
    1.7212   -2.6878    1.3931 H   0  0  0  0  0  0  0  0  0  0  0  0
    3.7207   -0.1240    2.4617 H   0  0  0  0  0  0  0  0  0  0  0  0
    4.7887    0.8364    0.1618 H   0  0  0  0  0  0  0  0  0  0  0  0
    5.6380    0.7352    1.7190 H   0  0  0  0  0  0  0  0  0  0  0  0
    6.3064   -1.6645    1.0945 H   0  0  0  0  0  0  0  0  0  0  0  0
    5.7087   -1.3692   -0.5226 H   0  0  0  0  0  0  0  0  0  0  0  0
    7.9425    0.0770    0.9698 H   0  0  0  0  0  0  0  0  0  0  0  0
    8.1535   -1.0378   -0.3789 H   0  0  0  0  0  0  0  0  0  0  0  0
    7.4126   -0.2992   -2.6584 H   0  0  0  0  0  0  0  0  0  0  0  0
    6.9708    1.4066   -2.8948 H   0  0  0  0  0  0  0  0  0  0  0  0
    5.8379    0.3289   -2.1129 H   0  0  0  0  0  0  0  0  0  0  0  0
    9.2291    1.7407   -0.0816 H   0  0  0  0  0  0  0  0  0  0  0  0
    8.8134    2.3476   -1.6775 H   0  0  0  0  0  0  0  0  0  0  0  0
    9.5016    0.7198   -1.5139 H   0  0  0  0  0  0  0  0  0  0  0  0
   -1.2263   -3.1680    0.4366 H   0  0  0  0  0  0  0  0  0  0  0  0
   -0.8995   -2.2938   -1.0873 H   0  0  0  0  0  0  0  0  0  0  0  0
    0.4148   -2.9679   -0.1775 H   0  0  0  0  0  0  0  0  0  0  0  0
   -4.8858   -2.6327   -1.1801 H   0  0  0  0  0  0  0  0  0  0  0  0
   -7.3228   -0.2574    1.0002 H   0  0  0  0  0  0  0  0  0  0  0  0
   -8.3141    0.7015   -0.1091 H   0  0  0  0  0  0  0  0  0  0  0  0
   -6.8689    1.3879    0.6055 H   0  0  0  0  0  0  0  0  0  0  0  0
   -5.8816    1.8084   -2.0046 H   0  0  0  0  0  0  0  0  0  0  0  0
   -7.4804    1.2126   -2.4665 H   0  0  0  0  0  0  0  0  0  0  0  0
   -6.0105    0.4332   -3.0779 H   0  0  0  0  0  0  0  0  0  0  0  0
   -8.2946   -1.0478   -1.7852 H   0  0  0  0  0  0  0  0  0  0  0  0
   -7.3438   -2.0867   -0.7142 H   0  0  0  0  0  0  0  0  0  0  0  0
   -6.8030   -1.7833   -2.3768 H   0  0  0  0  0  0  0  0  0  0  0  0
  1  2  1  0
  2  3  2  0
  3  4  1  0
  4  5  1  0
  5  6  1  0
  6  7  2  0
  6  8  1  0
  8  9  1  0
  9 10  1  0
 10 11  2  0
 10 12  1  0
 12 13  1  0
 13 14  1  0
 14 15  1  0
 15 16  1  0
 16 17  1  0
 16 18  1  0
  8 19  2  0
 19 20  1  0
 19 21  1  0
 21 22  1  0
 22 23  1  0
 23 24  1  0
 24 25  2  0
 25 26  1  0
 26 27  1  0
 26 28  1  0
 26 29  1  0
 25 30  1  0
 30  2  1  0
 21  4  2  0
 30 22  2  0
  1 31  1  0
  1 32  1  0
  1 33  1  0
  3 34  1  0
  9 35  1  0
  9 36  1  0
 12 37  1  0
 13 38  1  0
 13 39  1  0
 14 40  1  0
 14 41  1  0
 15 42  1  0
 15 43  1  0
 17 44  1  0
 17 45  1  0
 17 46  1  0
 18 47  1  0
 18 48  1  0
 18 49  1  0
 20 50  1  0
 20 51  1  0
 20 52  1  0
 24 53  1  0
 27 54  1  0
 27 55  1  0
 27 56  1  0
 28 57  1  0
 28 58  1  0
 28 59  1  0
 29 60  1  0
 29 61  1  0
 29 62  1  0
M  END
$$$$
