
     RDKit          3D

 50 53  0  0  0  0  0  0  0  0999 V2000
    7.5505    2.0298    0.7384 C   0  0  0  0  0  0  0  0  0  0  0  0
    6.7788    0.8471    0.9103 O   0  0  0  0  0  0  0  0  0  0  0  0
    5.4983    0.8721    0.4329 C   0  0  0  0  0  0  0  0  0  0  0  0
    4.8818    1.9396   -0.2121 C   0  0  0  0  0  0  0  0  0  0  0  0
    3.5560    1.8246   -0.6507 C   0  0  0  0  0  0  0  0  0  0  0  0
    2.8190    0.6441   -0.4444 C   0  0  0  0  0  0  0  0  0  0  0  0
    1.4677    0.5882   -0.9109 N   0  0  0  0  0  0  0  0  0  0  0  0
    1.0128    1.5909   -1.7216 N   0  0  0  0  0  0  0  0  0  0  0  0
   -0.2134    1.2292   -2.0869 C   0  0  0  0  0  0  0  0  0  0  0  0
   -0.6237    0.0462   -1.4653 C   0  0  0  0  0  0  0  0  0  0  0  0
    0.4561   -0.3411   -0.6910 C   0  0  0  0  0  0  0  0  0  0  0  0
    0.4720   -1.5449    0.1929 C   0  0  0  0  0  0  0  0  0  0  0  0
   -0.9672   -2.0898    0.4525 C   0  0  0  0  0  0  0  0  0  0  0  0
   -1.6388   -1.2850    1.5837 C   0  0  0  0  0  0  0  0  0  0  0  0
   -0.8620   -3.5544    0.9252 C   0  0  0  0  0  0  0  0  0  0  0  0
   -1.8202   -2.0576   -0.8556 C   0  0  0  0  0  0  0  0  0  0  0  0
   -1.9245   -0.6732   -1.5406 C   0  0  0  0  0  0  0  0  0  0  0  0
   -2.9279    0.1719   -0.9287 N   0  0  0  0  0  0  0  0  0  0  0  0
   -4.2700   -0.0190   -1.1579 C   0  0  0  0  0  0  0  0  0  0  0  0
   -4.6970   -0.8717   -1.9289 O   0  0  0  0  0  0  0  0  0  0  0  0
   -5.1572    0.8586   -0.4150 C   0  0  0  0  0  0  0  0  0  0  0  0
   -6.5722    0.8467   -0.4484 C   0  0  0  0  0  0  0  0  0  0  0  0
   -7.1195    1.7727    0.3433 N   0  0  0  0  0  0  0  0  0  0  0  0
   -6.0606    2.3897    0.8856 N   0  0  0  0  0  0  0  0  0  0  0  0
   -4.8626    1.8806    0.4693 C   0  0  0  0  0  0  0  0  0  0  0  0
    3.4523   -0.4282    0.1879 C   0  0  0  0  0  0  0  0  0  0  0  0
    4.7787   -0.3080    0.6245 C   0  0  0  0  0  0  0  0  0  0  0  0
    7.6913    2.2587   -0.3231 H   0  0  0  0  0  0  0  0  0  0  0  0
    7.1002    2.8752    1.2697 H   0  0  0  0  0  0  0  0  0  0  0  0
    8.5382    1.8509    1.1743 H   0  0  0  0  0  0  0  0  0  0  0  0
    5.3970    2.8765   -0.3949 H   0  0  0  0  0  0  0  0  0  0  0  0
    3.1067    2.6818   -1.1511 H   0  0  0  0  0  0  0  0  0  0  0  0
   -0.7650    1.8596   -2.7736 H   0  0  0  0  0  0  0  0  0  0  0  0
    1.0636   -2.3221   -0.3075 H   0  0  0  0  0  0  0  0  0  0  0  0
    0.9445   -1.3170    1.1552 H   0  0  0  0  0  0  0  0  0  0  0  0
   -1.1346   -1.4610    2.5413 H   0  0  0  0  0  0  0  0  0  0  0  0
   -1.6032   -0.2069    1.4063 H   0  0  0  0  0  0  0  0  0  0  0  0
   -2.6879   -1.5755    1.7060 H   0  0  0  0  0  0  0  0  0  0  0  0
   -1.8508   -3.9661    1.1558 H   0  0  0  0  0  0  0  0  0  0  0  0
   -0.4080   -4.1889    0.1556 H   0  0  0  0  0  0  0  0  0  0  0  0
   -0.2458   -3.6356    1.8277 H   0  0  0  0  0  0  0  0  0  0  0  0
   -1.3494   -2.7432   -1.5755 H   0  0  0  0  0  0  0  0  0  0  0  0
   -2.8207   -2.4641   -0.6609 H   0  0  0  0  0  0  0  0  0  0  0  0
   -2.2067   -0.8236   -2.5901 H   0  0  0  0  0  0  0  0  0  0  0  0
   -2.6334    0.8448   -0.2376 H   0  0  0  0  0  0  0  0  0  0  0  0
   -7.2173    0.1927   -1.0225 H   0  0  0  0  0  0  0  0  0  0  0  0
   -6.2305    3.1513    1.5350 H   0  0  0  0  0  0  0  0  0  0  0  0
   -3.9352    2.2950    0.8357 H   0  0  0  0  0  0  0  0  0  0  0  0
    2.9795   -1.3890    0.3359 H   0  0  0  0  0  0  0  0  0  0  0  0
    5.2606   -1.1525    1.1131 H   0  0  0  0  0  0  0  0  0  0  0  0
  1  2  1  0
  2  3  1  0
  3  4  2  0
  4  5  1  0
  5  6  2  0
  6  7  1  0
  7  8  1  0
  8  9  2  0
  9 10  1  0
 10 11  2  0
 11 12  1  0
 12 13  1  0
 13 14  1  0
 13 15  1  0
 13 16  1  0
 16 17  1  0
 17 18  1  0
 18 19  1  0
 19 20  2  0
 19 21  1  0
 21 22  1  0
 22 23  2  0
 23 24  1  0
 24 25  1  0
  6 26  1  0
 26 27  2  0
 27  3  1  0
 11  7  1  0
 25 21  2  0
 17 10  1  0
  1 28  1  0
  1 29  1  0
  1 30  1  0
  4 31  1  0
  5 32  1  0
  9 33  1  0
 12 34  1  0
 12 35  1  0
 14 36  1  0
 14 37  1  0
 14 38  1  0
 15 39  1  0
 15 40  1  0
 15 41  1  0
 16 42  1  0
 16 43  1  0
 17 44  1  0
 18 45  1  0
 22 46  1  0
 24 47  1  0
 25 48  1  0
 26 49  1  0
 27 50  1  0
M  END
$$$$
