
     RDKit          3D

 77 83  0  0  0  0  0  0  0  0999 V2000
   -7.1294   -3.3717   -0.8688 C   0  0  0  0  0  0  0  0  0  0  0  0
   -6.5220   -2.1772   -1.6192 C   0  0  0  0  0  0  0  0  0  0  0  0
   -7.5624   -1.0527   -1.6728 C   0  0  0  0  0  0  0  0  0  0  0  0
   -6.1037   -2.6403   -3.0190 C   0  0  0  0  0  0  0  0  0  0  0  0
   -5.3610   -1.8032   -0.8337 O   0  0  0  0  0  0  0  0  0  0  0  0
   -4.5851   -0.7486   -1.1924 C   0  0  0  0  0  0  0  0  0  0  0  0
   -4.8074   -0.0148   -2.1474 O   0  0  0  0  0  0  0  0  0  0  0  0
   -3.4995   -0.5940   -0.3552 N   0  0  0  0  0  0  0  0  0  0  0  0
   -3.1262   -1.5615    0.6837 C   0  0  0  0  0  0  0  0  0  0  0  0
   -1.5948   -1.6913    0.8019 C   0  0  0  0  0  0  0  0  0  0  0  0
   -0.9560   -0.4212    1.1343 N   0  0  0  0  0  0  0  0  0  0  0  0
   -1.6633    0.7986    0.6138 C   0  0  2  0  0  0  0  0  0  0  0  0
   -2.5776    0.5214   -0.5908 C   0  0  0  0  0  0  0  0  0  0  0  0
   -0.5399    1.7150    0.3345 C   0  0  0  0  0  0  0  0  0  0  0  0
    0.6960    1.1097    0.5622 C   0  0  0  0  0  0  0  0  0  0  0  0
    1.6859    2.0292    0.3342 C   0  0  0  0  0  0  0  0  0  0  0  0
    3.0030    1.8416    0.3685 O   0  0  0  0  0  0  0  0  0  0  0  0
    1.0517    3.2327   -0.0264 N   0  0  0  0  0  0  0  0  0  0  0  0
    1.7047    4.4593   -0.3399 C   0  0  0  0  0  0  0  0  0  0  0  0
    1.2358    5.2535   -1.3950 C   0  0  0  0  0  0  0  0  0  0  0  0
    1.8812    6.4525   -1.7010 C   0  0  0  0  0  0  0  0  0  0  0  0
    2.9862    6.8626   -0.9575 C   0  0  0  0  0  0  0  0  0  0  0  0
    3.4510    6.0760    0.0966 C   0  0  0  0  0  0  0  0  0  0  0  0
    2.8147    4.8733    0.4062 C   0  0  0  0  0  0  0  0  0  0  0  0
   -0.3398    3.0200   -0.0214 C   0  0  0  0  0  0  0  0  0  0  0  0
   -1.2576    3.9587   -0.2416 O   0  0  0  0  0  0  0  0  0  0  0  0
    0.5279   -0.3097    0.9429 C   0  0  1  0  0  0  0  0  0  0  0  0
    1.3002   -0.7190    2.2251 C   0  0  0  0  0  0  0  0  0  0  0  0
    1.1525   -0.2855    3.3613 O   0  0  0  0  0  0  0  0  0  0  0  0
    2.2160   -1.7141    1.8391 N   0  0  0  0  0  0  0  0  0  0  0  0
    3.1668   -2.3154    2.7473 C   0  0  0  0  0  0  0  0  0  0  0  0
    4.5852   -1.8270    2.5473 C   0  0  0  0  0  0  0  0  0  0  0  0
    5.6359   -2.7430    2.3867 C   0  0  0  0  0  0  0  0  0  0  0  0
    6.9446   -2.2971    2.1902 C   0  0  0  0  0  0  0  0  0  0  0  0
    7.2196   -0.9321    2.1643 C   0  0  0  0  0  0  0  0  0  0  0  0
    6.1883   -0.0116    2.3438 C   0  0  0  0  0  0  0  0  0  0  0  0
    4.8797   -0.4557    2.5383 C   0  0  0  0  0  0  0  0  0  0  0  0
    2.1548   -1.9571    0.4576 C   0  0  0  0  0  0  0  0  0  0  0  0
    2.9100   -2.8415   -0.2936 C   0  0  0  0  0  0  0  0  0  0  0  0
    2.6858   -2.8957   -1.6719 C   0  0  0  0  0  0  0  0  0  0  0  0
    1.7226   -2.0716   -2.2743 C   0  0  0  0  0  0  0  0  0  0  0  0
    0.9656   -1.1844   -1.5058 C   0  0  0  0  0  0  0  0  0  0  0  0
    1.1820   -1.1410   -0.1325 C   0  0  0  0  0  0  0  0  0  0  0  0
   -7.4211   -3.0872    0.1492 H   0  0  0  0  0  0  0  0  0  0  0  0
   -8.0117   -3.7687   -1.3821 H   0  0  0  0  0  0  0  0  0  0  0  0
   -6.3974   -4.1806   -0.7652 H   0  0  0  0  0  0  0  0  0  0  0  0
   -8.5106   -1.4088   -2.0879 H   0  0  0  0  0  0  0  0  0  0  0  0
   -7.2325   -0.2169   -2.2967 H   0  0  0  0  0  0  0  0  0  0  0  0
   -7.7499   -0.6465   -0.6724 H   0  0  0  0  0  0  0  0  0  0  0  0
   -5.3087   -3.3925   -2.9552 H   0  0  0  0  0  0  0  0  0  0  0  0
   -6.9473   -3.0741   -3.5671 H   0  0  0  0  0  0  0  0  0  0  0  0
   -5.7094   -1.8173   -3.6203 H   0  0  0  0  0  0  0  0  0  0  0  0
   -3.5577   -1.2089    1.6280 H   0  0  0  0  0  0  0  0  0  0  0  0
   -3.5579   -2.5439    0.4678 H   0  0  0  0  0  0  0  0  0  0  0  0
   -1.3491   -2.4347    1.5665 H   0  0  0  0  0  0  0  0  0  0  0  0
   -1.2430   -2.0792   -0.1575 H   0  0  0  0  0  0  0  0  0  0  0  0
   -2.2690    1.1963    1.4380 H   0  0  0  0  0  0  0  0  0  0  0  0
   -1.9883    0.2598   -1.4778 H   0  0  0  0  0  0  0  0  0  0  0  0
   -3.1539    1.4171   -0.8516 H   0  0  0  0  0  0  0  0  0  0  0  0
    3.4376    2.5217   -0.1802 H   0  0  0  0  0  0  0  0  0  0  0  0
    0.4016    4.9351   -2.0174 H   0  0  0  0  0  0  0  0  0  0  0  0
    1.5287    7.0638   -2.5300 H   0  0  0  0  0  0  0  0  0  0  0  0
    3.4872    7.7983   -1.1972 H   0  0  0  0  0  0  0  0  0  0  0  0
    4.3028    6.4068    0.6846 H   0  0  0  0  0  0  0  0  0  0  0  0
    3.1680    4.3010    1.2636 H   0  0  0  0  0  0  0  0  0  0  0  0
   -0.8681    4.8322   -0.0606 H   0  0  0  0  0  0  0  0  0  0  0  0
    2.8735   -2.1022    3.7827 H   0  0  0  0  0  0  0  0  0  0  0  0
    3.1057   -3.4042    2.6226 H   0  0  0  0  0  0  0  0  0  0  0  0
    5.4425   -3.8130    2.4045 H   0  0  0  0  0  0  0  0  0  0  0  0
    7.7493   -3.0149    2.0497 H   0  0  0  0  0  0  0  0  0  0  0  0
    8.2370   -0.5842    2.0055 H   0  0  0  0  0  0  0  0  0  0  0  0
    6.3982    1.0540    2.3243 H   0  0  0  0  0  0  0  0  0  0  0  0
    4.0850    0.2777    2.6720 H   0  0  0  0  0  0  0  0  0  0  0  0
    3.6663   -3.4745    0.1551 H   0  0  0  0  0  0  0  0  0  0  0  0
    3.2710   -3.5771   -2.2867 H   0  0  0  0  0  0  0  0  0  0  0  0
    1.5706   -2.1190   -3.3507 H   0  0  0  0  0  0  0  0  0  0  0  0
    0.2289   -0.5418   -1.9770 H   0  0  0  0  0  0  0  0  0  0  0  0
  1  2  1  0
  2  3  1  0
  2  4  1  0
  2  5  1  0
  5  6  1  0
  6  7  2  0
  6  8  1  0
  8  9  1  0
  9 10  1  0
 10 11  1  0
 11 12  1  0
 12 13  1  0
 12 14  1  0
 14 15  1  0
 15 16  2  0
 16 17  1  0
 16 18  1  0
 18 19  1  0
 19 20  2  0
 20 21  1  0
 21 22  2  0
 22 23  1  0
 23 24  2  0
 18 25  1  0
 25 26  1  0
 15 27  1  0
 27 28  1  0
 28 29  2  0
 28 30  1  0
 30 31  1  0
 31 32  1  0
 32 33  2  0
 33 34  1  0
 34 35  2  0
 35 36  1  0
 36 37  2  0
 30 38  1  0
 38 39  2  0
 39 40  1  0
 40 41  2  0
 41 42  1  0
 42 43  2  0
 13  8  1  0
 25 14  2  0
 43 27  1  0
 27 11  1  1
 37 32  1  0
 43 38  1  0
 24 19  1  0
  1 44  1  0
  1 45  1  0
  1 46  1  0
  3 47  1  0
  3 48  1  0
  3 49  1  0
  4 50  1  0
  4 51  1  0
  4 52  1  0
  9 53  1  0
  9 54  1  0
 10 55  1  0
 10 56  1  0
 12 57  1  1
 13 58  1  0
 13 59  1  0
 17 60  1  0
 20 61  1  0
 21 62  1  0
 22 63  1  0
 23 64  1  0
 24 65  1  0
 26 66  1  0
 31 67  1  0
 31 68  1  0
 33 69  1  0
 34 70  1  0
 35 71  1  0
 36 72  1  0
 37 73  1  0
 39 74  1  0
 40 75  1  0
 41 76  1  0
 42 77  1  0
M  END
$$$$
