
     RDKit          3D

 55 57  0  0  0  0  0  0  0  0999 V2000
    8.7996   -0.3651    0.7557 C   0  0  0  0  0  0  0  0  0  0  0  0
    7.3689    0.0562    1.0350 C   0  0  0  0  0  0  0  0  0  0  0  0
    6.5309   -0.5468    0.0542 O   0  0  0  0  0  0  0  0  0  0  0  0
    5.1904   -0.2553    0.0817 C   0  0  0  0  0  0  0  0  0  0  0  0
    4.5727    0.5301    1.0559 C   0  0  0  0  0  0  0  0  0  0  0  0
    3.1909    0.7633    1.0066 C   0  0  0  0  0  0  0  0  0  0  0  0
    2.3994    0.2135   -0.0110 C   0  0  0  0  0  0  0  0  0  0  0  0
    0.9286    0.4929    0.0175 C   0  0  0  0  0  0  0  0  0  0  0  0
    0.5015    1.3098    0.8345 O   0  0  0  0  0  0  0  0  0  0  0  0
    0.0030   -0.2114   -0.9460 C   0  0  0  0  0  0  0  0  0  0  0  0
   -0.1484    0.5566   -2.2177 C   0  0  0  0  0  0  0  0  0  0  0  0
    0.7480    0.8187   -2.9997 O   0  0  0  0  0  0  0  0  0  0  0  0
   -1.5981    0.9674   -2.4119 C   0  0  0  0  0  0  0  0  0  0  0  0
   -1.9940    1.6902   -3.3008 O   0  0  0  0  0  0  0  0  0  0  0  0
   -2.3069    0.3816   -1.3911 N   0  0  0  0  0  0  0  0  0  0  0  0
   -3.6891    0.7481   -1.0910 C   0  0  0  0  0  0  0  0  0  0  0  0
   -3.7959    2.0774   -0.3143 C   0  0  0  0  0  0  0  0  0  0  0  0
   -5.1833    2.4533    0.0171 N   0  0  0  0  0  0  0  0  0  0  0  0
   -5.7347    1.6159    1.0852 C   0  0  0  0  0  0  0  0  0  0  0  0
   -5.2345    3.8622    0.4220 C   0  0  0  0  0  0  0  0  0  0  0  0
   -1.4476   -0.2711   -0.4121 C   0  0  0  0  0  0  0  0  0  0  0  0
   -1.8471   -1.7147   -0.1475 C   0  0  0  0  0  0  0  0  0  0  0  0
   -2.3363   -2.5514   -1.1633 C   0  0  0  0  0  0  0  0  0  0  0  0
   -2.6462   -3.8872   -0.8977 C   0  0  0  0  0  0  0  0  0  0  0  0
   -2.4558   -4.4078    0.3807 C   0  0  0  0  0  0  0  0  0  0  0  0
   -1.9675   -3.5922    1.3990 C   0  0  0  0  0  0  0  0  0  0  0  0
   -1.6670   -2.2522    1.1378 C   0  0  0  0  0  0  0  0  0  0  0  0
    3.0126   -0.5626   -0.9972 C   0  0  0  0  0  0  0  0  0  0  0  0
    4.3947   -0.7963   -0.9455 C   0  0  0  0  0  0  0  0  0  0  0  0
    5.0875   -1.7810   -2.1891 Cl  0  0  0  0  0  0  0  0  0  0  0  0
    9.4836    0.0778    1.4846 H   0  0  0  0  0  0  0  0  0  0  0  0
    8.8980   -1.4526    0.7972 H   0  0  0  0  0  0  0  0  0  0  0  0
    9.1069   -0.0534   -0.2498 H   0  0  0  0  0  0  0  0  0  0  0  0
    7.3016    1.1470    0.9746 H   0  0  0  0  0  0  0  0  0  0  0  0
    7.0827   -0.2843    2.0361 H   0  0  0  0  0  0  0  0  0  0  0  0
    5.1333    0.9790    1.8717 H   0  0  0  0  0  0  0  0  0  0  0  0
    2.7383    1.3838    1.7783 H   0  0  0  0  0  0  0  0  0  0  0  0
    0.3702   -1.2170   -1.1726 H   0  0  0  0  0  0  0  0  0  0  0  0
   -4.2224    0.8491   -2.0450 H   0  0  0  0  0  0  0  0  0  0  0  0
   -4.1442   -0.0816   -0.5431 H   0  0  0  0  0  0  0  0  0  0  0  0
   -3.1796    2.0391    0.5942 H   0  0  0  0  0  0  0  0  0  0  0  0
   -3.3536    2.8580   -0.9494 H   0  0  0  0  0  0  0  0  0  0  0  0
   -5.1531    1.6905    2.0102 H   0  0  0  0  0  0  0  0  0  0  0  0
   -5.7755    0.5659    0.7874 H   0  0  0  0  0  0  0  0  0  0  0  0
   -6.7674    1.9083    1.3063 H   0  0  0  0  0  0  0  0  0  0  0  0
   -4.6194    4.0601    1.3053 H   0  0  0  0  0  0  0  0  0  0  0  0
   -4.8898    4.5081   -0.3902 H   0  0  0  0  0  0  0  0  0  0  0  0
   -6.2624    4.1663    0.6436 H   0  0  0  0  0  0  0  0  0  0  0  0
   -1.5736    0.2870    0.5226 H   0  0  0  0  0  0  0  0  0  0  0  0
   -2.4817   -2.1732   -2.1731 H   0  0  0  0  0  0  0  0  0  0  0  0
   -3.0275   -4.5257   -1.6920 H   0  0  0  0  0  0  0  0  0  0  0  0
   -2.6871   -5.4545    0.5870 H   0  0  0  0  0  0  0  0  0  0  0  0
   -1.8167   -3.9998    2.3988 H   0  0  0  0  0  0  0  0  0  0  0  0
   -1.2890   -1.6333    1.9515 H   0  0  0  0  0  0  0  0  0  0  0  0
    2.4520   -0.9867   -1.8275 H   0  0  0  0  0  0  0  0  0  0  0  0
  1  2  1  0
  2  3  1  0
  3  4  1  0
  4  5  2  0
  5  6  1  0
  6  7  2  0
  7  8  1  0
  8  9  2  0
  8 10  1  0
 10 11  1  0
 11 12  2  0
 11 13  1  0
 13 14  2  0
 13 15  1  0
 15 16  1  0
 16 17  1  0
 17 18  1  0
 18 19  1  0
 18 20  1  0
 15 21  1  0
 21 22  1  0
 22 23  2  0
 23 24  1  0
 24 25  2  0
 25 26  1  0
 26 27  2  0
  7 28  1  0
 28 29  2  0
 29 30  1  0
 29  4  1  0
 21 10  1  0
 27 22  1  0
  1 31  1  0
  1 32  1  0
  1 33  1  0
  2 34  1  0
  2 35  1  0
  5 36  1  0
  6 37  1  0
 10 38  1  0
 16 39  1  0
 16 40  1  0
 17 41  1  0
 17 42  1  0
 19 43  1  0
 19 44  1  0
 19 45  1  0
 20 46  1  0
 20 47  1  0
 20 48  1  0
 21 49  1  0
 23 50  1  0
 24 51  1  0
 25 52  1  0
 26 53  1  0
 27 54  1  0
 28 55  1  0
M  END
$$$$
