
     RDKit          3D

 61 64  0  0  0  0  0  0  0  0999 V2000
    9.0769   -2.6362    0.8010 C   0  0  0  0  0  0  0  0  0  0  0  0
    7.6109   -2.7917    1.1211 C   0  0  0  0  0  0  0  0  0  0  0  0
    7.0663   -3.8872    1.0489 O   0  0  0  0  0  0  0  0  0  0  0  0
    7.0294   -1.5959    1.5041 N   0  0  0  0  0  0  0  0  0  0  0  0
    5.6915   -1.3771    1.8916 C   0  0  0  0  0  0  0  0  0  0  0  0
    4.7245   -2.3843    1.9664 C   0  0  0  0  0  0  0  0  0  0  0  0
    3.4145   -2.0880    2.3593 C   0  0  0  0  0  0  0  0  0  0  0  0
    3.0703   -0.7728    2.6700 C   0  0  0  0  0  0  0  0  0  0  0  0
    1.4132   -0.3704    3.1619 S   0  0  0  0  0  6  0  0  0  0  0  0
    0.6436   -1.5932    3.2521 O   0  0  0  0  0  0  0  0  0  0  0  0
    1.5069    0.5385    4.2842 O   0  0  0  0  0  0  0  0  0  0  0  0
    0.8325    0.5018    1.8150 N   0  0  0  0  0  0  0  0  0  0  0  0
    0.8228   -0.2640    0.5194 C   0  0  0  0  0  0  0  0  0  0  0  0
   -0.1370    0.3603   -0.5070 C   0  0  0  0  0  0  0  0  0  0  0  0
   -1.5485    0.3401   -0.0347 N   0  0  0  0  0  0  0  0  0  0  0  0
   -2.3348    1.2391   -0.6915 C   0  0  0  0  0  0  0  0  0  0  0  0
   -2.5090    2.5024   -0.3818 N   0  0  0  0  0  0  0  0  0  0  0  0
   -3.3160    3.0137   -1.3637 C   0  0  0  0  0  0  0  0  0  0  0  0
   -3.7833    4.3253   -1.5343 C   0  0  0  0  0  0  0  0  0  0  0  0
   -4.5885    4.6172   -2.6410 C   0  0  0  0  0  0  0  0  0  0  0  0
   -4.9215    3.6225   -3.5610 C   0  0  0  0  0  0  0  0  0  0  0  0
   -4.4681    2.3076   -3.4050 C   0  0  0  0  0  0  0  0  0  0  0  0
   -3.6679    2.0334   -2.2877 C   0  0  0  0  0  0  0  0  0  0  0  0
   -3.0719    0.8881   -1.8028 N   0  0  0  0  0  0  0  0  0  0  0  0
   -3.1666   -0.4329   -2.3910 C   0  0  0  0  0  0  0  0  0  0  0  0
   -4.3019   -1.3387   -1.8706 C   0  0  0  0  0  0  0  0  0  0  0  0
   -4.1549   -1.6936   -0.3914 C   0  0  0  0  0  0  0  0  0  0  0  0
   -5.6942   -0.7694   -2.1410 C   0  0  0  0  0  0  0  0  0  0  0  0
   -1.6585    0.4281    1.4489 C   0  0  0  0  0  0  0  0  0  0  0  0
   -0.4830    1.1951    2.0726 C   0  0  0  0  0  0  0  0  0  0  0  0
    4.0250    0.2434    2.6123 C   0  0  0  0  0  0  0  0  0  0  0  0
    5.3311   -0.0624    2.2223 C   0  0  0  0  0  0  0  0  0  0  0  0
    9.6538   -2.6497    1.7292 H   0  0  0  0  0  0  0  0  0  0  0  0
    9.2626   -1.7006    0.2652 H   0  0  0  0  0  0  0  0  0  0  0  0
    9.3993   -3.4629    0.1619 H   0  0  0  0  0  0  0  0  0  0  0  0
    7.6320   -0.7825    1.5130 H   0  0  0  0  0  0  0  0  0  0  0  0
    4.9585   -3.4185    1.7308 H   0  0  0  0  0  0  0  0  0  0  0  0
    2.6806   -2.8889    2.4192 H   0  0  0  0  0  0  0  0  0  0  0  0
    0.5310   -1.3064    0.6909 H   0  0  0  0  0  0  0  0  0  0  0  0
    1.8366   -0.2524    0.1051 H   0  0  0  0  0  0  0  0  0  0  0  0
    0.1863    1.3904   -0.7128 H   0  0  0  0  0  0  0  0  0  0  0  0
   -0.0676   -0.1996   -1.4467 H   0  0  0  0  0  0  0  0  0  0  0  0
   -3.5148    5.0933   -0.8179 H   0  0  0  0  0  0  0  0  0  0  0  0
   -4.9544    5.6309   -2.7838 H   0  0  0  0  0  0  0  0  0  0  0  0
   -5.5475    3.8726   -4.4152 H   0  0  0  0  0  0  0  0  0  0  0  0
   -4.7352    1.5417   -4.1245 H   0  0  0  0  0  0  0  0  0  0  0  0
   -3.2715   -0.2993   -3.4746 H   0  0  0  0  0  0  0  0  0  0  0  0
   -2.2030   -0.9343   -2.2498 H   0  0  0  0  0  0  0  0  0  0  0  0
   -4.2274   -2.2796   -2.4324 H   0  0  0  0  0  0  0  0  0  0  0  0
   -4.2993   -0.8201    0.2518 H   0  0  0  0  0  0  0  0  0  0  0  0
   -4.9011   -2.4412   -0.1005 H   0  0  0  0  0  0  0  0  0  0  0  0
   -3.1671   -2.1188   -0.1875 H   0  0  0  0  0  0  0  0  0  0  0  0
   -6.4663   -1.4955   -1.8643 H   0  0  0  0  0  0  0  0  0  0  0  0
   -5.8235   -0.5426   -3.2039 H   0  0  0  0  0  0  0  0  0  0  0  0
   -5.8794    0.1423   -1.5649 H   0  0  0  0  0  0  0  0  0  0  0  0
   -1.6793   -0.5966    1.8400 H   0  0  0  0  0  0  0  0  0  0  0  0
   -2.6082    0.8877    1.7521 H   0  0  0  0  0  0  0  0  0  0  0  0
   -0.4100    2.2065    1.6550 H   0  0  0  0  0  0  0  0  0  0  0  0
   -0.6568    1.3164    3.1468 H   0  0  0  0  0  0  0  0  0  0  0  0
    3.7570    1.2665    2.8686 H   0  0  0  0  0  0  0  0  0  0  0  0
    6.0606    0.7427    2.1827 H   0  0  0  0  0  0  0  0  0  0  0  0
  1  2  1  0
  2  3  2  0
  2  4  1  0
  4  5  1  0
  5  6  2  0
  6  7  1  0
  7  8  2  0
  8  9  1  0
  9 10  2  0
  9 11  2  0
  9 12  1  0
 12 13  1  0
 13 14  1  0
 14 15  1  0
 15 16  1  0
 16 17  2  0
 17 18  1  0
 18 19  2  0
 19 20  1  0
 20 21  2  0
 21 22  1  0
 22 23  2  0
 23 24  1  0
 24 25  1  0
 25 26  1  0
 26 27  1  0
 26 28  1  0
 15 29  1  0
 29 30  1  0
  8 31  1  0
 31 32  2  0
 32  5  1  0
 30 12  1  0
 24 16  1  0
 23 18  1  0
  1 33  1  0
  1 34  1  0
  1 35  1  0
  4 36  1  0
  6 37  1  0
  7 38  1  0
 13 39  1  0
 13 40  1  0
 14 41  1  0
 14 42  1  0
 19 43  1  0
 20 44  1  0
 21 45  1  0
 22 46  1  0
 25 47  1  0
 25 48  1  0
 26 49  1  0
 27 50  1  0
 27 51  1  0
 27 52  1  0
 28 53  1  0
 28 54  1  0
 28 55  1  0
 29 56  1  0
 29 57  1  0
 30 58  1  0
 30 59  1  0
 31 60  1  0
 32 61  1  0
M  END
$$$$
