
     RDKit          3D

 45 48  0  0  0  0  0  0  0  0999 V2000
   -1.1788   -3.1019    1.2499 C   0  0  0  0  0  0  0  0  0  0  0  0
   -1.6552   -1.7372    1.7071 C   0  0  0  0  0  0  0  0  0  0  0  0
   -1.3399   -0.7911    0.6805 O   0  0  0  0  0  0  0  0  0  0  0  0
   -1.5803    0.5034    1.0239 C   0  0  0  0  0  0  0  0  0  0  0  0
   -2.0949    0.8872    2.0646 O   0  0  0  0  0  0  0  0  0  0  0  0
   -1.2520    1.3924   -0.1142 C   0  0  0  0  0  0  0  0  0  0  0  0
   -2.3631    2.2879   -0.5139 C   0  0  0  0  0  0  0  0  0  0  0  0
   -2.2458    3.4816   -0.7485 O   0  0  0  0  0  0  0  0  0  0  0  0
   -3.5097    1.5676   -0.6199 O   0  0  0  0  0  0  0  0  0  0  0  0
   -4.6589    2.3404   -0.9865 C   0  0  0  0  0  0  0  0  0  0  0  0
   -5.8569    1.4123   -1.0317 C   0  0  0  0  0  0  0  0  0  0  0  0
   -0.0772    1.3706   -0.8031 C   0  0  0  0  0  0  0  0  0  0  0  0
    0.0099    2.0264   -2.1629 C   0  0  0  0  0  0  0  0  0  0  0  0
    0.9577    1.7056   -3.0805 C   0  0  0  0  0  0  0  0  0  0  0  0
    0.9815    2.4899   -4.7758 Br  0  0  0  0  0  0  0  0  0  0  0  0
    1.9838    0.7634   -2.7418 C   0  0  0  0  0  0  0  0  0  0  0  0
    3.0149    0.2675   -3.4354 N   0  0  0  0  0  0  0  0  0  0  0  0
    3.7411   -0.4999   -2.5133 O   0  0  0  0  0  0  0  0  0  0  0  0
    3.1410   -0.4305   -1.2858 C   0  0  0  0  0  0  0  0  0  0  0  0
    3.5597   -0.9668   -0.0620 C   0  0  0  0  0  0  0  0  0  0  0  0
    4.7264   -1.7480    0.0281 C   0  0  0  0  0  0  0  0  0  0  0  0
    5.1195   -2.2445    1.2664 C   0  0  0  0  0  0  0  0  0  0  0  0
    4.3587   -1.9654    2.4002 C   0  0  0  0  0  0  0  0  0  0  0  0
    3.2011   -1.1805    2.3075 C   0  0  0  0  0  0  0  0  0  0  0  0
    2.7664   -0.6469    1.0737 C   0  0  0  0  0  0  0  0  0  0  0  0
    1.6013    0.1673    0.9085 C   0  0  0  0  0  0  0  0  0  0  0  0
    0.9346    0.6369    2.0124 O   0  0  0  0  0  0  0  0  0  0  0  0
    1.1269    0.5768   -0.3524 C   0  0  0  0  0  0  0  0  0  0  0  0
    1.9935    0.3057   -1.4142 C   0  0  0  0  0  0  0  0  0  0  0  0
   -1.6596   -3.3825    0.3070 H   0  0  0  0  0  0  0  0  0  0  0  0
   -1.4011   -3.8649    2.0010 H   0  0  0  0  0  0  0  0  0  0  0  0
   -0.0992   -3.0908    1.0656 H   0  0  0  0  0  0  0  0  0  0  0  0
   -2.7390   -1.7541    1.8659 H   0  0  0  0  0  0  0  0  0  0  0  0
   -1.1495   -1.4656    2.6407 H   0  0  0  0  0  0  0  0  0  0  0  0
   -4.8283    3.1280   -0.2438 H   0  0  0  0  0  0  0  0  0  0  0  0
   -4.5011    2.7902   -1.9731 H   0  0  0  0  0  0  0  0  0  0  0  0
   -6.7632    1.9580   -1.3087 H   0  0  0  0  0  0  0  0  0  0  0  0
   -5.6935    0.6070   -1.7556 H   0  0  0  0  0  0  0  0  0  0  0  0
   -6.0134    0.9375   -0.0575 H   0  0  0  0  0  0  0  0  0  0  0  0
   -0.7517    2.7465   -2.4487 H   0  0  0  0  0  0  0  0  0  0  0  0
    5.3220   -1.9681   -0.8550 H   0  0  0  0  0  0  0  0  0  0  0  0
    6.0169   -2.8531    1.3487 H   0  0  0  0  0  0  0  0  0  0  0  0
    4.6634   -2.3659    3.3649 H   0  0  0  0  0  0  0  0  0  0  0  0
    2.6298   -1.0196    3.2187 H   0  0  0  0  0  0  0  0  0  0  0  0
    1.5623    0.7275    2.7489 H   0  0  0  0  0  0  0  0  0  0  0  0
  1  2  1  0
  2  3  1  0
  3  4  1  0
  4  5  2  0
  4  6  1  0
  6  7  1  0
  7  8  2  0
  7  9  1  0
  9 10  1  0
 10 11  1  0
  6 12  2  3
 12 13  1  0
 13 14  2  0
 14 15  1  0
 14 16  1  0
 16 17  2  0
 17 18  1  0
 18 19  1  0
 19 20  1  0
 20 21  2  0
 21 22  1  0
 22 23  2  0
 23 24  1  0
 24 25  2  0
 25 26  1  0
 26 27  1  0
 26 28  2  0
 28 29  1  0
 28 12  1  0
 29 16  1  0
 29 19  2  0
 25 20  1  0
  1 30  1  0
  1 31  1  0
  1 32  1  0
  2 33  1  0
  2 34  1  0
 10 35  1  0
 10 36  1  0
 11 37  1  0
 11 38  1  0
 11 39  1  0
 13 40  1  0
 21 41  1  0
 22 42  1  0
 23 43  1  0
 24 44  1  0
 27 45  1  0
M  END
$$$$
