
     RDKit          3D

 70 73  0  0  0  0  0  0  0  0999 V2000
   -2.8618    2.2944    2.6153 C   0  0  0  0  0  0  0  0  0  0  0  0
   -2.5563    1.5151    1.4605 O   0  0  0  0  0  0  0  0  0  0  0  0
   -1.9434    2.2176    0.4544 C   0  0  0  0  0  0  0  0  0  0  0  0
   -2.4832    3.4410    0.0172 C   0  0  0  0  0  0  0  0  0  0  0  0
   -1.9135    4.1453   -1.0485 C   0  0  0  0  0  0  0  0  0  0  0  0
   -2.3818    5.3455   -1.5215 O   0  0  0  0  0  0  0  0  0  0  0  0
   -3.6163    5.8231   -1.0029 C   0  0  0  0  0  0  0  0  0  0  0  0
   -0.7900    3.6121   -1.6954 C   0  0  0  0  0  0  0  0  0  0  0  0
   -0.1422    4.2798   -2.8226 C   0  0  0  0  0  0  0  0  0  0  0  0
    0.9067    3.7236   -3.4346 C   0  0  0  0  0  0  0  0  0  0  0  0
    1.4648    2.4344   -3.0094 C   0  0  0  0  0  0  0  0  0  0  0  0
    2.4290    1.9441   -3.5855 O   0  0  0  0  0  0  0  0  0  0  0  0
    0.8457    1.8246   -1.9315 O   0  0  0  0  0  0  0  0  0  0  0  0
   -0.2783    2.3822   -1.2627 C   0  0  0  0  0  0  0  0  0  0  0  0
   -0.8296    1.6506   -0.1864 C   0  0  0  0  0  0  0  0  0  0  0  0
   -0.2162    0.2903    0.1798 C   0  0  0  0  0  0  0  0  0  0  0  0
   -0.2551   -0.0979    1.6811 C   0  0  0  0  0  0  0  0  0  0  0  0
    0.7535   -1.2002    2.0604 C   0  0  0  0  0  0  0  0  0  0  0  0
    2.1638   -0.8330    1.8519 N   0  0  0  0  0  0  0  0  0  0  0  0
    2.5709    0.3108    2.6821 C   0  0  0  0  0  0  0  0  0  0  0  0
    4.0848    0.3942    2.8607 C   0  0  0  0  0  0  0  0  0  0  0  0
    4.6298   -0.8408    3.5787 C   0  0  0  0  0  0  0  0  0  0  0  0
    3.7652   -2.0887    3.3323 C   0  0  0  0  0  0  0  0  0  0  0  0
    4.6065   -3.3591    3.4359 C   0  0  0  0  0  0  0  0  0  0  0  0
    3.0573   -1.9978    1.9734 C   0  0  0  0  0  0  0  0  0  0  0  0
   -0.7634   -0.8233   -0.7110 C   0  0  0  0  0  0  0  0  0  0  0  0
   -2.0981   -1.2297   -0.6562 C   0  0  0  0  0  0  0  0  0  0  0  0
   -2.5770   -2.2471   -1.4966 C   0  0  0  0  0  0  0  0  0  0  0  0
   -1.7581   -2.8966   -2.4361 C   0  0  0  0  0  0  0  0  0  0  0  0
   -2.2382   -3.9175   -3.2688 N   0  0  0  0  0  0  0  0  0  0  0  0
   -3.6816   -4.1091   -3.3896 C   0  0  0  0  0  0  0  0  0  0  0  0
   -1.4558   -4.2725   -4.4520 C   0  0  0  0  0  0  0  0  0  0  0  0
   -0.4137   -2.4859   -2.4567 C   0  0  0  0  0  0  0  0  0  0  0  0
    0.0757   -1.4703   -1.6215 C   0  0  0  0  0  0  0  0  0  0  0  0
   -2.9438    1.6110    3.4664 H   0  0  0  0  0  0  0  0  0  0  0  0
   -2.0733    3.0214    2.8425 H   0  0  0  0  0  0  0  0  0  0  0  0
   -3.8280    2.7937    2.4934 H   0  0  0  0  0  0  0  0  0  0  0  0
   -3.3718    3.8191    0.5099 H   0  0  0  0  0  0  0  0  0  0  0  0
   -3.8703    6.7412   -1.5418 H   0  0  0  0  0  0  0  0  0  0  0  0
   -4.4239    5.1039   -1.1737 H   0  0  0  0  0  0  0  0  0  0  0  0
   -3.5259    6.0741    0.0588 H   0  0  0  0  0  0  0  0  0  0  0  0
   -0.5359    5.2324   -3.1618 H   0  0  0  0  0  0  0  0  0  0  0  0
    1.3928    4.1966   -4.2801 H   0  0  0  0  0  0  0  0  0  0  0  0
    0.8538    0.3948   -0.0427 H   0  0  0  0  0  0  0  0  0  0  0  0
   -1.2484   -0.4671    1.9631 H   0  0  0  0  0  0  0  0  0  0  0  0
   -0.0701    0.7874    2.3018 H   0  0  0  0  0  0  0  0  0  0  0  0
    0.5129   -2.0897    1.4650 H   0  0  0  0  0  0  0  0  0  0  0  0
    0.5923   -1.4817    3.1094 H   0  0  0  0  0  0  0  0  0  0  0  0
    2.2233    1.2373    2.2119 H   0  0  0  0  0  0  0  0  0  0  0  0
    2.1105    0.2567    3.6771 H   0  0  0  0  0  0  0  0  0  0  0  0
    4.3506    1.2951    3.4255 H   0  0  0  0  0  0  0  0  0  0  0  0
    4.5642    0.4896    1.8782 H   0  0  0  0  0  0  0  0  0  0  0  0
    5.6683   -1.0030    3.2626 H   0  0  0  0  0  0  0  0  0  0  0  0
    4.6684   -0.6501    4.6595 H   0  0  0  0  0  0  0  0  0  0  0  0
    2.9991   -2.1394    4.1185 H   0  0  0  0  0  0  0  0  0  0  0  0
    5.0929   -3.4228    4.4148 H   0  0  0  0  0  0  0  0  0  0  0  0
    3.9812   -4.2500    3.3099 H   0  0  0  0  0  0  0  0  0  0  0  0
    5.3851   -3.3839    2.6660 H   0  0  0  0  0  0  0  0  0  0  0  0
    3.8161   -1.9124    1.1840 H   0  0  0  0  0  0  0  0  0  0  0  0
    2.5256   -2.9330    1.7562 H   0  0  0  0  0  0  0  0  0  0  0  0
   -2.7889   -0.7587    0.0387 H   0  0  0  0  0  0  0  0  0  0  0  0
   -3.6243   -2.5110   -1.3892 H   0  0  0  0  0  0  0  0  0  0  0  0
   -4.1297   -4.3672   -2.4243 H   0  0  0  0  0  0  0  0  0  0  0  0
   -4.1661   -3.2140   -3.7954 H   0  0  0  0  0  0  0  0  0  0  0  0
   -3.9149   -4.9450   -4.0590 H   0  0  0  0  0  0  0  0  0  0  0  0
   -1.3066   -3.4037   -5.1023 H   0  0  0  0  0  0  0  0  0  0  0  0
   -1.9599   -5.0441   -5.0442 H   0  0  0  0  0  0  0  0  0  0  0  0
   -0.4859   -4.6963   -4.1724 H   0  0  0  0  0  0  0  0  0  0  0  0
    0.3042   -2.9477   -3.1275 H   0  0  0  0  0  0  0  0  0  0  0  0
    1.1264   -1.1930   -1.6928 H   0  0  0  0  0  0  0  0  0  0  0  0
  1  2  1  0
  2  3  1  0
  3  4  2  0
  4  5  1  0
  5  6  1  0
  6  7  1  0
  5  8  2  0
  8  9  1  0
  9 10  2  0
 10 11  1  0
 11 12  2  0
 11 13  1  0
 13 14  1  0
 14 15  2  0
 15 16  1  0
 16 17  1  0
 17 18  1  0
 18 19  1  0
 19 20  1  0
 20 21  1  0
 21 22  1  0
 22 23  1  0
 23 24  1  0
 23 25  1  0
 16 26  1  0
 26 27  2  0
 27 28  1  0
 28 29  2  0
 29 30  1  0
 30 31  1  0
 30 32  1  0
 29 33  1  0
 33 34  2  0
 15  3  1  0
 25 19  1  0
 34 26  1  0
 14  8  1  0
  1 35  1  0
  1 36  1  0
  1 37  1  0
  4 38  1  0
  7 39  1  0
  7 40  1  0
  7 41  1  0
  9 42  1  0
 10 43  1  0
 16 44  1  0
 17 45  1  0
 17 46  1  0
 18 47  1  0
 18 48  1  0
 20 49  1  0
 20 50  1  0
 21 51  1  0
 21 52  1  0
 22 53  1  0
 22 54  1  0
 23 55  1  0
 24 56  1  0
 24 57  1  0
 24 58  1  0
 25 59  1  0
 25 60  1  0
 27 61  1  0
 28 62  1  0
 31 63  1  0
 31 64  1  0
 31 65  1  0
 32 66  1  0
 32 67  1  0
 32 68  1  0
 33 69  1  0
 34 70  1  0
M  END
$$$$
