
     RDKit          3D

 46 50  0  0  0  0  0  0  0  0999 V2000
   -7.9681   -1.7706    1.0949 C   0  0  0  0  0  0  0  0  0  0  0  0
   -6.4971   -1.4569    0.9935 C   0  0  0  0  0  0  0  0  0  0  0  0
   -5.5920   -2.2048    1.7672 C   0  0  0  0  0  0  0  0  0  0  0  0
   -4.2150   -1.9736    1.7273 C   0  0  0  0  0  0  0  0  0  0  0  0
   -3.7763   -0.9589    0.8777 C   0  0  0  0  0  0  0  0  0  0  0  0
   -4.6400   -0.1889    0.0892 C   0  0  0  0  0  0  0  0  0  0  0  0
   -3.9390    0.7460   -0.6572 N   0  0  0  0  0  0  0  0  0  0  0  0
   -2.6980    0.5359   -0.3234 C   0  0  0  0  0  0  0  0  0  0  0  0
   -1.2168    1.2695   -0.7963 S   0  0  0  0  0  0  0  0  0  0  0  0
   -0.3410    0.2000    0.2691 C   0  0  0  0  0  0  0  0  0  0  0  0
    0.9782    0.1017    0.4792 C   0  0  0  0  0  0  0  0  0  0  0  0
    2.0006    0.8895   -0.1191 C   0  0  0  0  0  0  0  0  0  0  0  0
    2.0274    2.1928   -0.6036 C   0  0  0  0  0  0  0  0  0  0  0  0
    3.3350    2.4623   -1.0778 C   0  0  0  0  0  0  0  0  0  0  0  0
    4.0708    1.3266   -0.8375 C   0  0  0  0  0  0  0  0  0  0  0  0
    5.4482    0.9309   -1.0998 C   0  0  0  0  0  0  0  0  0  0  0  0
    6.0206    1.2712   -2.3390 C   0  0  0  0  0  0  0  0  0  0  0  0
    7.3150    0.8619   -2.6744 C   0  0  0  0  0  0  0  0  0  0  0  0
    8.0610    0.1009   -1.7790 C   0  0  0  0  0  0  0  0  0  0  0  0
    7.5190   -0.2377   -0.5406 C   0  0  0  0  0  0  0  0  0  0  0  0
    6.2269    0.1894   -0.1934 C   0  0  0  0  0  0  0  0  0  0  0  0
    5.7656   -0.1691    1.1611 C   0  0  0  0  0  0  0  0  0  0  0  0
    5.8513   -1.2674    1.6774 O   0  0  0  0  0  0  0  0  0  0  0  0
    5.3421    0.9096    1.8433 O   0  0  0  0  0  0  0  0  0  0  0  0
    3.2749    0.3827   -0.2668 O   0  0  0  0  0  0  0  0  0  0  0  0
   -1.2517   -0.7394    0.9914 C   0  0  0  0  0  0  0  0  0  0  0  0
   -0.9931   -1.6077    1.8039 O   0  0  0  0  0  0  0  0  0  0  0  0
   -2.5353   -0.4573    0.5810 N   0  0  0  0  0  0  0  0  0  0  0  0
   -6.0322   -0.4262    0.1329 C   0  0  0  0  0  0  0  0  0  0  0  0
   -6.9913    0.3797   -0.6993 C   0  0  0  0  0  0  0  0  0  0  0  0
   -8.3587   -2.0797    0.1203 H   0  0  0  0  0  0  0  0  0  0  0  0
   -8.5197   -0.8948    1.4509 H   0  0  0  0  0  0  0  0  0  0  0  0
   -8.1583   -2.5874    1.7993 H   0  0  0  0  0  0  0  0  0  0  0  0
   -5.9615   -2.9928    2.4229 H   0  0  0  0  0  0  0  0  0  0  0  0
   -3.5263   -2.5588    2.3298 H   0  0  0  0  0  0  0  0  0  0  0  0
    1.3430   -0.6806    1.1447 H   0  0  0  0  0  0  0  0  0  0  0  0
    1.2021    2.8906   -0.6098 H   0  0  0  0  0  0  0  0  0  0  0  0
    3.6968    3.3792   -1.5211 H   0  0  0  0  0  0  0  0  0  0  0  0
    5.4490    1.8404   -3.0699 H   0  0  0  0  0  0  0  0  0  0  0  0
    7.7338    1.1275   -3.6423 H   0  0  0  0  0  0  0  0  0  0  0  0
    9.0637   -0.2266   -2.0429 H   0  0  0  0  0  0  0  0  0  0  0  0
    8.1062   -0.8264    0.1618 H   0  0  0  0  0  0  0  0  0  0  0  0
    5.0890    0.5513    2.7184 H   0  0  0  0  0  0  0  0  0  0  0  0
   -6.4681    1.1285   -1.3023 H   0  0  0  0  0  0  0  0  0  0  0  0
   -7.5404   -0.2725   -1.3856 H   0  0  0  0  0  0  0  0  0  0  0  0
   -7.7004    0.9100   -0.0561 H   0  0  0  0  0  0  0  0  0  0  0  0
  1  2  1  0
  2  3  2  0
  3  4  1  0
  4  5  2  0
  5  6  1  0
  6  7  1  0
  7  8  2  0
  8  9  1  0
  9 10  1  0
 10 11  2  3
 11 12  1  0
 12 13  2  0
 13 14  1  0
 14 15  2  0
 15 16  1  0
 16 17  2  0
 17 18  1  0
 18 19  2  0
 19 20  1  0
 20 21  2  0
 21 22  1  0
 22 23  2  0
 22 24  1  0
 15 25  1  0
 10 26  1  0
 26 27  2  0
 26 28  1  0
  6 29  2  0
 29 30  1  0
 29  2  1  0
 28  5  1  0
 28  8  1  0
 25 12  1  0
 21 16  1  0
  1 31  1  0
  1 32  1  0
  1 33  1  0
  3 34  1  0
  4 35  1  0
 11 36  1  0
 13 37  1  0
 14 38  1  0
 17 39  1  0
 18 40  1  0
 19 41  1  0
 20 42  1  0
 24 43  1  0
 30 44  1  0
 30 45  1  0
 30 46  1  0
M  END
$$$$
