
     RDKit          3D

 53 56  0  0  0  0  0  0  0  0999 V2000
    7.0339   -0.1483    1.3964 C   0  0  0  0  0  0  0  0  0  0  0  0
    6.8558    0.0160   -0.0047 O   0  0  0  0  0  0  0  0  0  0  0  0
    5.5563    0.5048   -0.3494 C   0  0  0  0  0  0  0  0  0  0  0  0
    4.5288   -0.6225   -0.3999 C   0  0  0  0  0  0  0  0  0  0  0  0
    3.2136   -0.1523   -0.8114 N   0  0  0  0  0  0  0  0  0  0  0  0
    2.7337   -0.1903   -2.1031 C   0  0  0  0  0  0  0  0  0  0  0  0
    3.5143   -0.6998   -3.2643 C   0  0  0  0  0  0  0  0  0  0  0  0
    1.4461    0.3030   -2.0788 C   0  0  0  0  0  0  0  0  0  0  0  0
    1.1222    0.6670   -0.7424 C   0  0  0  0  0  0  0  0  0  0  0  0
   -0.1391    1.2349   -0.2354 C   0  0  0  0  0  0  0  0  0  0  0  0
   -0.2591    1.5984    0.9386 O   0  0  0  0  0  0  0  0  0  0  0  0
   -1.3038    1.4300   -1.1902 C   0  0  0  0  0  0  0  0  0  0  0  0
   -2.1258   -0.1240   -1.6514 S   0  0  0  0  0  0  0  0  0  0  0  0
   -2.5197   -0.7194   -0.0370 C   0  0  0  0  0  0  0  0  0  0  0  0
   -1.5759   -1.4210    0.6170 N   0  0  0  0  0  0  0  0  0  0  0  0
   -1.8457   -1.8628    1.8577 C   0  0  0  0  0  0  0  0  0  0  0  0
   -0.7643   -2.6332    2.5512 C   0  0  0  0  0  0  0  0  0  0  0  0
   -3.0029   -1.7141    2.5158 N   0  0  0  0  0  0  0  0  0  0  0  0
   -3.9213   -1.0214    1.8226 C   0  0  0  0  0  0  0  0  0  0  0  0
   -5.4742   -0.7218    2.5022 S   0  0  0  0  0  0  0  0  0  0  0  0
   -5.9343    0.1085    1.1284 C   0  0  0  0  0  0  0  0  0  0  0  0
   -4.9661    0.1799    0.1637 C   0  0  0  0  0  0  0  0  0  0  0  0
   -3.7667   -0.4845    0.5442 C   0  0  0  0  0  0  0  0  0  0  0  0
   -5.4599    0.9273   -1.0220 C   0  0  0  0  0  0  0  0  0  0  0  0
   -6.7640    1.5939   -0.4813 C   0  0  0  0  0  0  0  0  0  0  0  0
   -7.2066    0.7745    0.7677 C   0  0  0  0  0  0  0  0  0  0  0  0
    2.2528    0.3868    0.0245 C   0  0  0  0  0  0  0  0  0  0  0  0
    2.4453    0.5922    1.4930 C   0  0  0  0  0  0  0  0  0  0  0  0
    8.0562   -0.4939    1.5724 H   0  0  0  0  0  0  0  0  0  0  0  0
    6.8960    0.8052    1.9150 H   0  0  0  0  0  0  0  0  0  0  0  0
    6.3438   -0.8970    1.7939 H   0  0  0  0  0  0  0  0  0  0  0  0
    5.2561    1.3069    0.3353 H   0  0  0  0  0  0  0  0  0  0  0  0
    5.6460    0.9600   -1.3424 H   0  0  0  0  0  0  0  0  0  0  0  0
    4.4229   -1.1271    0.5656 H   0  0  0  0  0  0  0  0  0  0  0  0
    4.8573   -1.4048   -1.0928 H   0  0  0  0  0  0  0  0  0  0  0  0
    4.4832   -0.1963   -3.3371 H   0  0  0  0  0  0  0  0  0  0  0  0
    2.9769   -0.5226   -4.2019 H   0  0  0  0  0  0  0  0  0  0  0  0
    3.6811   -1.7776   -3.1731 H   0  0  0  0  0  0  0  0  0  0  0  0
    0.8068    0.3815   -2.9495 H   0  0  0  0  0  0  0  0  0  0  0  0
   -0.9558    1.9439   -2.0916 H   0  0  0  0  0  0  0  0  0  0  0  0
   -2.0378    2.0912   -0.7159 H   0  0  0  0  0  0  0  0  0  0  0  0
   -0.7759   -2.4268    3.6258 H   0  0  0  0  0  0  0  0  0  0  0  0
   -0.9172   -3.7048    2.3947 H   0  0  0  0  0  0  0  0  0  0  0  0
    0.2201   -2.3571    2.1609 H   0  0  0  0  0  0  0  0  0  0  0  0
   -5.6939    0.2375   -1.8396 H   0  0  0  0  0  0  0  0  0  0  0  0
   -4.7559    1.6859   -1.3738 H   0  0  0  0  0  0  0  0  0  0  0  0
   -6.5349    2.6219   -0.1701 H   0  0  0  0  0  0  0  0  0  0  0  0
   -7.5485    1.6495   -1.2424 H   0  0  0  0  0  0  0  0  0  0  0  0
   -7.5929    1.4281    1.5542 H   0  0  0  0  0  0  0  0  0  0  0  0
   -7.9680    0.0372    0.4936 H   0  0  0  0  0  0  0  0  0  0  0  0
    2.2411    1.6348    1.7584 H   0  0  0  0  0  0  0  0  0  0  0  0
    1.7601   -0.0508    2.0549 H   0  0  0  0  0  0  0  0  0  0  0  0
    3.4599    0.3737    1.8331 H   0  0  0  0  0  0  0  0  0  0  0  0
  1  2  1  0
  2  3  1  0
  3  4  1  0
  4  5  1  0
  5  6  1  0
  6  7  1  0
  6  8  2  0
  8  9  1  0
  9 10  1  0
 10 11  2  0
 10 12  1  0
 12 13  1  0
 13 14  1  0
 14 15  2  0
 15 16  1  0
 16 17  1  0
 16 18  2  0
 18 19  1  0
 19 20  1  0
 20 21  1  0
 21 22  2  0
 22 23  1  0
 22 24  1  0
 24 25  1  0
 25 26  1  0
  9 27  2  0
 27 28  1  0
 27  5  1  0
 23 14  1  0
 23 19  2  0
 26 21  1  0
  1 29  1  0
  1 30  1  0
  1 31  1  0
  3 32  1  0
  3 33  1  0
  4 34  1  0
  4 35  1  0
  7 36  1  0
  7 37  1  0
  7 38  1  0
  8 39  1  0
 12 40  1  0
 12 41  1  0
 17 42  1  0
 17 43  1  0
 17 44  1  0
 24 45  1  0
 24 46  1  0
 25 47  1  0
 25 48  1  0
 26 49  1  0
 26 50  1  0
 28 51  1  0
 28 52  1  0
 28 53  1  0
M  END
$$$$
