
     RDKit          3D

 45 48  0  0  0  0  0  0  0  0999 V2000
    4.4820    0.7108   -1.4256 O   0  0  0  0  0  0  0  0  0  0  0  0
    3.5115    0.4375   -0.7308 C   0  0  0  0  0  0  0  0  0  0  0  0
    2.3867   -0.2726   -1.1110 N   0  0  0  0  0  0  0  0  0  0  0  0
    2.1069   -0.8989   -2.3543 C   0  0  0  0  0  0  0  0  0  0  0  0
    3.0263   -0.8533   -3.4145 C   0  0  0  0  0  0  0  0  0  0  0  0
    2.7558   -1.4720   -4.6378 C   0  0  0  0  0  0  0  0  0  0  0  0
    1.5631   -2.1584   -4.8226 C   0  0  0  0  0  0  0  0  0  0  0  0
    0.6346   -2.2173   -3.7831 C   0  0  0  0  0  0  0  0  0  0  0  0
    0.8793   -1.5922   -2.5405 C   0  0  0  0  0  0  0  0  0  0  0  0
   -0.1719   -1.7185   -1.5266 C   0  0  0  0  0  0  0  0  0  0  0  0
   -1.3287   -2.3505   -1.5832 N   0  0  0  0  0  0  0  0  0  0  0  0
   -1.9468   -2.1581   -0.3638 N   0  0  0  0  0  0  0  0  0  0  0  0
   -1.1303   -1.4228    0.3610 C   0  0  0  0  0  0  0  0  0  0  0  0
   -1.4127   -0.8967    1.9888 S   0  0  0  0  0  0  0  0  0  0  0  0
   -3.2058   -1.1350    2.1351 C   0  0  0  0  0  0  0  0  0  0  0  0
   -4.0050   -0.0278    1.4849 C   0  0  0  0  0  0  0  0  0  0  0  0
   -4.1476    1.2203    2.1158 C   0  0  0  0  0  0  0  0  0  0  0  0
   -4.8974    2.2389    1.5189 C   0  0  0  0  0  0  0  0  0  0  0  0
   -5.5031    2.0200    0.2836 C   0  0  0  0  0  0  0  0  0  0  0  0
   -6.4192    3.2783   -0.4521 Cl  0  0  0  0  0  0  0  0  0  0  0  0
   -5.3675    0.7908   -0.3595 C   0  0  0  0  0  0  0  0  0  0  0  0
   -4.6171   -0.2284    0.2382 C   0  0  0  0  0  0  0  0  0  0  0  0
    0.0270   -1.1189   -0.3091 O   0  0  0  0  0  0  0  0  0  0  0  0
    3.4918    0.9304    0.6790 C   0  0  0  0  0  0  0  0  0  0  0  0
    4.1217    2.1479    0.9678 C   0  0  0  0  0  0  0  0  0  0  0  0
    4.1218    2.6455    2.2722 C   0  0  0  0  0  0  0  0  0  0  0  0
    3.5020    1.9255    3.2939 C   0  0  0  0  0  0  0  0  0  0  0  0
    2.8917    0.7026    3.0173 C   0  0  0  0  0  0  0  0  0  0  0  0
    2.8902    0.1995    1.7142 C   0  0  0  0  0  0  0  0  0  0  0  0
    1.6364   -0.3172   -0.4306 H   0  0  0  0  0  0  0  0  0  0  0  0
    3.9756   -0.3346   -3.3251 H   0  0  0  0  0  0  0  0  0  0  0  0
    3.4848   -1.4164   -5.4410 H   0  0  0  0  0  0  0  0  0  0  0  0
    1.3516   -2.6448   -5.7719 H   0  0  0  0  0  0  0  0  0  0  0  0
   -0.2976   -2.7608   -3.9505 H   0  0  0  0  0  0  0  0  0  0  0  0
   -3.4497   -1.1554    3.2053 H   0  0  0  0  0  0  0  0  0  0  0  0
   -3.5045   -2.1176    1.7502 H   0  0  0  0  0  0  0  0  0  0  0  0
   -3.6775    1.4067    3.0794 H   0  0  0  0  0  0  0  0  0  0  0  0
   -5.0023    3.2003    2.0195 H   0  0  0  0  0  0  0  0  0  0  0  0
   -5.8378    0.6176   -1.3244 H   0  0  0  0  0  0  0  0  0  0  0  0
   -4.5174   -1.1810   -0.2799 H   0  0  0  0  0  0  0  0  0  0  0  0
    4.6134    2.7104    0.1755 H   0  0  0  0  0  0  0  0  0  0  0  0
    4.6104    3.5918    2.4906 H   0  0  0  0  0  0  0  0  0  0  0  0
    3.5064    2.3127    4.3098 H   0  0  0  0  0  0  0  0  0  0  0  0
    2.4266    0.1352    3.8201 H   0  0  0  0  0  0  0  0  0  0  0  0
    2.4422   -0.7736    1.5330 H   0  0  0  0  0  0  0  0  0  0  0  0
  1  2  2  0
  2  3  1  0
  3  4  1  0
  4  5  2  0
  5  6  1  0
  6  7  2  0
  7  8  1  0
  8  9  2  0
  9 10  1  0
 10 11  2  0
 11 12  1  0
 12 13  2  0
 13 14  1  0
 14 15  1  0
 15 16  1  0
 16 17  2  0
 17 18  1  0
 18 19  2  0
 19 20  1  0
 19 21  1  0
 21 22  2  0
 13 23  1  0
  2 24  1  0
 24 25  2  0
 25 26  1  0
 26 27  2  0
 27 28  1  0
 28 29  2  0
  9  4  1  0
 23 10  1  0
 29 24  1  0
 22 16  1  0
  3 30  1  0
  5 31  1  0
  6 32  1  0
  7 33  1  0
  8 34  1  0
 15 35  1  0
 15 36  1  0
 17 37  1  0
 18 38  1  0
 21 39  1  0
 22 40  1  0
 25 41  1  0
 26 42  1  0
 27 43  1  0
 28 44  1  0
 29 45  1  0
M  END
$$$$
