
     RDKit          3D

 48 50  0  0  0  0  0  0  0  0999 V2000
    6.2245    0.0912    1.1660 C   0  0  0  0  0  0  0  0  0  0  0  0
    4.8629   -0.3722    0.7379 C   0  0  0  0  0  0  0  0  0  0  0  0
    4.6482   -1.7051    0.3783 C   0  0  0  0  0  0  0  0  0  0  0  0
    3.3935   -2.1736   -0.0646 C   0  0  0  0  0  0  0  0  0  0  0  0
    3.2410   -3.6298   -0.4044 C   0  0  0  0  0  0  0  0  0  0  0  0
    2.3448   -1.2285   -0.1205 C   0  0  0  0  0  0  0  0  0  0  0  0
    0.6932   -1.4327   -0.5769 S   0  0  0  0  0  0  0  0  0  0  0  0
    0.3846    0.2318   -0.3157 C   0  0  0  0  0  0  0  0  0  0  0  0
   -0.9047    0.7269   -0.5392 N   0  0  0  0  0  0  0  0  0  0  0  0
   -2.1061   -0.1180   -0.5732 C   0  0  0  0  0  0  0  0  0  0  0  0
   -2.5852   -0.5194    0.8264 C   0  0  0  0  0  0  0  0  0  0  0  0
   -3.7349   -1.5342    0.7876 C   0  0  0  0  0  0  0  0  0  0  0  0
   -4.8898   -1.1205   -0.0240 N   0  0  0  0  0  0  0  0  0  0  0  0
   -5.5639    0.0535    0.5404 C   0  0  0  0  0  0  0  0  0  0  0  0
   -5.8452   -2.2261   -0.1402 C   0  0  0  0  0  0  0  0  0  0  0  0
   -1.1278    2.1169   -0.4035 C   0  0  0  0  0  0  0  0  0  0  0  0
   -2.2221    2.5281   -0.0035 O   0  0  0  0  0  0  0  0  0  0  0  0
   -0.1042    3.0539   -0.8658 C   0  0  0  0  0  0  0  0  0  0  0  0
    0.7338    2.9792   -1.9679 C   0  0  0  0  0  0  0  0  0  0  0  0
    1.5873    4.1176   -2.0830 C   0  0  0  0  0  0  0  0  0  0  0  0
    1.3450    5.0187   -1.0789 C   0  0  0  0  0  0  0  0  0  0  0  0
    2.2896    6.6702   -0.8962 Br  0  0  0  0  0  0  0  0  0  0  0  0
    0.1177    4.5329   -0.0198 S   0  0  0  0  0  0  0  0  0  0  0  0
    1.4170    0.9199    0.1043 N   0  0  0  0  0  0  0  0  0  0  0  0
    2.5336    0.1119    0.2194 C   0  0  0  0  0  0  0  0  0  0  0  0
    3.8067    0.5414    0.6427 C   0  0  0  0  0  0  0  0  0  0  0  0
    6.8092    0.3919    0.2912 H   0  0  0  0  0  0  0  0  0  0  0  0
    6.7596   -0.7053    1.6939 H   0  0  0  0  0  0  0  0  0  0  0  0
    6.1507    0.9418    1.8518 H   0  0  0  0  0  0  0  0  0  0  0  0
    5.4786   -2.4093    0.4412 H   0  0  0  0  0  0  0  0  0  0  0  0
    4.0988   -3.9762   -0.9906 H   0  0  0  0  0  0  0  0  0  0  0  0
    3.1789   -4.2204    0.5149 H   0  0  0  0  0  0  0  0  0  0  0  0
    2.3443   -3.8204   -1.0005 H   0  0  0  0  0  0  0  0  0  0  0  0
   -2.8973    0.4412   -1.0883 H   0  0  0  0  0  0  0  0  0  0  0  0
   -1.9217   -0.9983   -1.1981 H   0  0  0  0  0  0  0  0  0  0  0  0
   -2.8793    0.3692    1.3964 H   0  0  0  0  0  0  0  0  0  0  0  0
   -1.7577   -0.9678    1.3896 H   0  0  0  0  0  0  0  0  0  0  0  0
   -3.3270   -2.4658    0.3729 H   0  0  0  0  0  0  0  0  0  0  0  0
   -4.0451   -1.7607    1.8162 H   0  0  0  0  0  0  0  0  0  0  0  0
   -4.9088    0.9301    0.5339 H   0  0  0  0  0  0  0  0  0  0  0  0
   -6.4350    0.3242   -0.0675 H   0  0  0  0  0  0  0  0  0  0  0  0
   -5.9038   -0.1204    1.5678 H   0  0  0  0  0  0  0  0  0  0  0  0
   -6.2423   -2.5339    0.8340 H   0  0  0  0  0  0  0  0  0  0  0  0
   -5.3730   -3.0954   -0.6115 H   0  0  0  0  0  0  0  0  0  0  0  0
   -6.6863   -1.9429   -0.7830 H   0  0  0  0  0  0  0  0  0  0  0  0
    0.7435    2.1417   -2.6548 H   0  0  0  0  0  0  0  0  0  0  0  0
    2.3279    4.2549   -2.8608 H   0  0  0  0  0  0  0  0  0  0  0  0
    3.9462    1.5879    0.8986 H   0  0  0  0  0  0  0  0  0  0  0  0
  1  2  1  0
  2  3  2  0
  3  4  1  0
  4  5  1  0
  4  6  2  0
  6  7  1  0
  7  8  1  0
  8  9  1  0
  9 10  1  0
 10 11  1  0
 11 12  1  0
 12 13  1  0
 13 14  1  0
 13 15  1  0
  9 16  1  0
 16 17  2  0
 16 18  1  0
 18 19  2  0
 19 20  1  0
 20 21  2  0
 21 22  1  0
 21 23  1  0
  8 24  2  0
 24 25  1  0
 25 26  2  0
 26  2  1  0
 25  6  1  0
 23 18  1  0
  1 27  1  0
  1 28  1  0
  1 29  1  0
  3 30  1  0
  5 31  1  0
  5 32  1  0
  5 33  1  0
 10 34  1  0
 10 35  1  0
 11 36  1  0
 11 37  1  0
 12 38  1  0
 12 39  1  0
 14 40  1  0
 14 41  1  0
 14 42  1  0
 15 43  1  0
 15 44  1  0
 15 45  1  0
 19 46  1  0
 20 47  1  0
 26 48  1  0
M  END
$$$$
