
     RDKit          3D

 49 51  0  0  0  0  0  0  0  0999 V2000
   -5.7738   -0.3197    1.1991 C   0  0  0  0  0  0  0  0  0  0  0  0
   -4.7241    0.3694    0.3773 C   0  0  0  0  0  0  0  0  0  0  0  0
   -4.9972    1.5992   -0.2328 C   0  0  0  0  0  0  0  0  0  0  0  0
   -4.0109    2.2637   -0.9687 C   0  0  0  0  0  0  0  0  0  0  0  0
   -4.3195    3.5613   -1.6550 C   0  0  0  0  0  0  0  0  0  0  0  0
   -2.7463    1.6742   -1.1006 C   0  0  0  0  0  0  0  0  0  0  0  0
   -2.4489    0.4525   -0.4817 C   0  0  0  0  0  0  0  0  0  0  0  0
   -1.1467   -0.0537   -0.6652 N   0  0  0  0  0  0  0  0  0  0  0  0
   -0.5733   -1.1806   -0.0855 C   0  0  0  0  0  0  0  0  0  0  0  0
   -1.1212   -1.9074    0.7396 O   0  0  0  0  0  0  0  0  0  0  0  0
    0.8785   -1.4264   -0.5914 C   0  0  0  0  0  0  0  0  0  0  0  0
    1.8270   -0.5640    0.0593 O   0  0  0  0  0  0  0  0  0  0  0  0
    1.9013    0.6975   -0.4198 C   0  0  0  0  0  0  0  0  0  0  0  0
    1.2085    1.1506   -1.3193 O   0  0  0  0  0  0  0  0  0  0  0  0
    2.9372    1.4789    0.3072 C   0  0  0  0  0  0  0  0  0  0  0  0
    3.7223    0.9192    1.3268 C   0  0  0  0  0  0  0  0  0  0  0  0
    4.6824    1.6954    1.9832 C   0  0  0  0  0  0  0  0  0  0  0  0
    4.8540    3.0265    1.6167 C   0  0  0  0  0  0  0  0  0  0  0  0
    5.7771    3.8189    2.2305 O   0  0  0  0  0  0  0  0  0  0  0  0
    4.0852    3.5939    0.6068 C   0  0  0  0  0  0  0  0  0  0  0  0
    3.1252    2.8213   -0.0495 C   0  0  0  0  0  0  0  0  0  0  0  0
    1.3557   -2.8563   -0.3808 C   0  0  0  0  0  0  0  0  0  0  0  0
    1.5244   -3.7157   -1.4786 C   0  0  0  0  0  0  0  0  0  0  0  0
    1.9706   -5.0260   -1.2935 C   0  0  0  0  0  0  0  0  0  0  0  0
    2.2517   -5.4945   -0.0119 C   0  0  0  0  0  0  0  0  0  0  0  0
    2.0853   -4.6552    1.0872 C   0  0  0  0  0  0  0  0  0  0  0  0
    1.6406   -3.3449    0.9049 C   0  0  0  0  0  0  0  0  0  0  0  0
   -3.4420   -0.1897    0.2587 C   0  0  0  0  0  0  0  0  0  0  0  0
   -5.6439   -1.4062    1.1690 H   0  0  0  0  0  0  0  0  0  0  0  0
   -6.7757   -0.1028    0.8147 H   0  0  0  0  0  0  0  0  0  0  0  0
   -5.7136    0.0153    2.2389 H   0  0  0  0  0  0  0  0  0  0  0  0
   -5.9866    2.0413   -0.1335 H   0  0  0  0  0  0  0  0  0  0  0  0
   -3.4258    4.1907   -1.7201 H   0  0  0  0  0  0  0  0  0  0  0  0
   -4.6925    3.3704   -2.6659 H   0  0  0  0  0  0  0  0  0  0  0  0
   -5.0745    4.1278   -1.0997 H   0  0  0  0  0  0  0  0  0  0  0  0
   -1.9859    2.1849   -1.6877 H   0  0  0  0  0  0  0  0  0  0  0  0
   -0.5229    0.5264   -1.2282 H   0  0  0  0  0  0  0  0  0  0  0  0
    0.8948   -1.2340   -1.6737 H   0  0  0  0  0  0  0  0  0  0  0  0
    3.5985   -0.1204    1.6222 H   0  0  0  0  0  0  0  0  0  0  0  0
    5.2811    1.2462    2.7698 H   0  0  0  0  0  0  0  0  0  0  0  0
    6.2230    3.3046    2.9239 H   0  0  0  0  0  0  0  0  0  0  0  0
    4.2322    4.6349    0.3318 H   0  0  0  0  0  0  0  0  0  0  0  0
    2.5262    3.2738   -0.8371 H   0  0  0  0  0  0  0  0  0  0  0  0
    1.3093   -3.3745   -2.4890 H   0  0  0  0  0  0  0  0  0  0  0  0
    2.0955   -5.6834   -2.1503 H   0  0  0  0  0  0  0  0  0  0  0  0
    2.5935   -6.5161    0.1313 H   0  0  0  0  0  0  0  0  0  0  0  0
    2.2928   -5.0225    2.0888 H   0  0  0  0  0  0  0  0  0  0  0  0
    1.5002   -2.7064    1.7752 H   0  0  0  0  0  0  0  0  0  0  0  0
   -3.2487   -1.1384    0.7502 H   0  0  0  0  0  0  0  0  0  0  0  0
  1  2  1  0
  2  3  2  0
  3  4  1  0
  4  5  1  0
  4  6  2  0
  6  7  1  0
  7  8  1  0
  8  9  1  0
  9 10  2  0
  9 11  1  0
 11 12  1  0
 12 13  1  0
 13 14  2  0
 13 15  1  0
 15 16  2  0
 16 17  1  0
 17 18  2  0
 18 19  1  0
 18 20  1  0
 20 21  2  0
 11 22  1  0
 22 23  2  0
 23 24  1  0
 24 25  2  0
 25 26  1  0
 26 27  2  0
  7 28  2  0
 28  2  1  0
 21 15  1  0
 27 22  1  0
  1 29  1  0
  1 30  1  0
  1 31  1  0
  3 32  1  0
  5 33  1  0
  5 34  1  0
  5 35  1  0
  6 36  1  0
  8 37  1  0
 11 38  1  0
 16 39  1  0
 17 40  1  0
 19 41  1  0
 20 42  1  0
 21 43  1  0
 23 44  1  0
 24 45  1  0
 25 46  1  0
 26 47  1  0
 27 48  1  0
 28 49  1  0
M  END
$$$$
