
     RDKit          3D

 52 54  0  0  0  0  0  0  0  0999 V2000
   -4.1916    3.2720   -2.1373 C   0  0  0  0  0  0  0  0  0  0  0  0
   -3.5441    2.1872   -1.2498 C   0  0  0  0  0  0  0  0  0  0  0  0
   -3.6363    2.6745    0.2086 C   0  0  0  0  0  0  0  0  0  0  0  0
   -2.0577    2.0245   -1.6829 C   0  0  0  0  0  0  0  0  0  0  0  0
   -1.4504    0.7700   -1.1236 C   0  0  0  0  0  0  0  0  0  0  0  0
   -2.2742   -0.2767   -0.7411 C   0  0  0  0  0  0  0  0  0  0  0  0
   -1.3807   -1.5566   -0.0602 S   0  0  0  0  0  0  0  0  0  0  0  0
    0.0901   -0.7392   -0.2397 C   0  0  0  0  0  0  0  0  0  0  0  0
    1.2745   -1.2797    0.2361 N   0  0  0  0  0  0  0  0  0  0  0  0
    1.4782   -2.5300    0.7896 C   0  0  0  0  0  0  0  0  0  0  0  0
    0.6687   -3.4497    0.8790 O   0  0  0  0  0  0  0  0  0  0  0  0
    2.9215   -2.7419    1.2574 C   0  0  0  0  0  0  0  0  0  0  0  0
    3.6094   -1.5067    1.4176 O   0  0  0  0  0  0  0  0  0  0  0  0
    4.8303   -1.5488    2.0369 C   0  0  0  0  0  0  0  0  0  0  0  0
    5.6261   -2.6964    2.1202 C   0  0  0  0  0  0  0  0  0  0  0  0
    6.8735   -2.6452    2.7520 C   0  0  0  0  0  0  0  0  0  0  0  0
    7.3316   -1.4478    3.2965 C   0  0  0  0  0  0  0  0  0  0  0  0
    8.8689   -1.3948    4.0666 Cl  0  0  0  0  0  0  0  0  0  0  0  0
    6.5563   -0.2952    3.2174 C   0  0  0  0  0  0  0  0  0  0  0  0
    5.3119   -0.3470    2.5851 C   0  0  0  0  0  0  0  0  0  0  0  0
    4.3782    1.1069    2.5160 Cl  0  0  0  0  0  0  0  0  0  0  0  0
   -0.0493    0.4852   -0.8827 C   0  0  0  0  0  0  0  0  0  0  0  0
    1.1180    1.3091   -1.2025 C   0  0  0  0  0  0  0  0  0  0  0  0
    0.9813    2.1969   -2.2305 N   0  0  0  0  0  0  0  0  0  0  0  0
    2.2062    1.1799   -0.6479 O   0  0  0  0  0  0  0  0  0  0  0  0
   -3.7916   -0.3070   -0.8608 C   0  0  0  0  0  0  0  0  0  0  0  0
   -4.2205   -1.4611   -1.7981 C   0  0  0  0  0  0  0  0  0  0  0  0
   -4.4821   -0.5198    0.4992 C   0  0  0  0  0  0  0  0  0  0  0  0
   -4.3203    0.9439   -1.4785 N   0  0  0  0  0  0  0  0  0  0  0  0
   -5.2406    3.4382   -1.8644 H   0  0  0  0  0  0  0  0  0  0  0  0
   -4.1610    2.9963   -3.1977 H   0  0  0  0  0  0  0  0  0  0  0  0
   -3.6664    4.2285   -2.0334 H   0  0  0  0  0  0  0  0  0  0  0  0
   -3.2379    3.6917    0.3057 H   0  0  0  0  0  0  0  0  0  0  0  0
   -3.0626    2.0491    0.8989 H   0  0  0  0  0  0  0  0  0  0  0  0
   -4.6763    2.7001    0.5535 H   0  0  0  0  0  0  0  0  0  0  0  0
   -1.9946    1.9681   -2.7779 H   0  0  0  0  0  0  0  0  0  0  0  0
   -1.4860    2.9028   -1.3605 H   0  0  0  0  0  0  0  0  0  0  0  0
    2.0877   -0.6588    0.1988 H   0  0  0  0  0  0  0  0  0  0  0  0
    2.8752   -3.2776    2.2133 H   0  0  0  0  0  0  0  0  0  0  0  0
    3.4148   -3.3524    0.4930 H   0  0  0  0  0  0  0  0  0  0  0  0
    5.3133   -3.6448    1.6933 H   0  0  0  0  0  0  0  0  0  0  0  0
    7.4860   -3.5438    2.8075 H   0  0  0  0  0  0  0  0  0  0  0  0
    6.9166    0.6380    3.6409 H   0  0  0  0  0  0  0  0  0  0  0  0
    0.2514    2.0733   -2.9149 H   0  0  0  0  0  0  0  0  0  0  0  0
    1.8397    2.6340   -2.5400 H   0  0  0  0  0  0  0  0  0  0  0  0
   -3.7448   -1.3771   -2.7834 H   0  0  0  0  0  0  0  0  0  0  0  0
   -5.3071   -1.4676   -1.9504 H   0  0  0  0  0  0  0  0  0  0  0  0
   -3.9494   -2.4414   -1.3897 H   0  0  0  0  0  0  0  0  0  0  0  0
   -4.1669    0.2067    1.2517 H   0  0  0  0  0  0  0  0  0  0  0  0
   -4.2661   -1.5127    0.9104 H   0  0  0  0  0  0  0  0  0  0  0  0
   -5.5727   -0.4494    0.4039 H   0  0  0  0  0  0  0  0  0  0  0  0
   -4.3786    0.7922   -2.4858 H   0  0  0  0  0  0  0  0  0  0  0  0
  1  2  1  0
  2  3  1  0
  2  4  1  0
  4  5  1  0
  5  6  2  0
  6  7  1  0
  7  8  1  0
  8  9  1  0
  9 10  1  0
 10 11  2  0
 10 12  1  0
 12 13  1  0
 13 14  1  0
 14 15  2  0
 15 16  1  0
 16 17  2  0
 17 18  1  0
 17 19  1  0
 19 20  2  0
 20 21  1  0
  8 22  2  0
 22 23  1  0
 23 24  1  0
 23 25  2  0
  6 26  1  0
 26 27  1  0
 26 28  1  0
 26 29  1  0
 29  2  1  0
 22  5  1  0
 20 14  1  0
  1 30  1  0
  1 31  1  0
  1 32  1  0
  3 33  1  0
  3 34  1  0
  3 35  1  0
  4 36  1  0
  4 37  1  0
  9 38  1  0
 12 39  1  0
 12 40  1  0
 15 41  1  0
 16 42  1  0
 19 43  1  0
 24 44  1  0
 24 45  1  0
 27 46  1  0
 27 47  1  0
 27 48  1  0
 28 49  1  0
 28 50  1  0
 28 51  1  0
 29 52  1  0
M  END
$$$$
