
     RDKit          3D

 68 73  0  0  0  0  0  0  0  0999 V2000
   -2.6324    5.1189   -2.9600 C   0  0  0  0  0  0  0  0  0  0  0  0
   -2.0087    3.9788   -2.3841 O   0  0  0  0  0  0  0  0  0  0  0  0
   -2.3770    3.6457   -1.1081 C   0  0  0  0  0  0  0  0  0  0  0  0
   -3.3083    4.3434   -0.3144 C   0  0  0  0  0  0  0  0  0  0  0  0
   -3.6086    3.9182    0.9863 C   0  0  0  0  0  0  0  0  0  0  0  0
   -2.9634    2.7946    1.4554 C   0  0  0  0  0  0  0  0  0  0  0  0
   -2.0442    2.0834    0.6816 C   0  0  0  0  0  0  0  0  0  0  0  0
   -1.7379    2.5068   -0.6027 C   0  0  0  0  0  0  0  0  0  0  0  0
   -1.5320    0.9312    1.4879 C   0  0  1  0  0  0  0  0  0  0  0  0
   -2.2755    1.0909    2.8415 C   0  0  0  0  0  0  0  0  0  0  0  0
   -2.1709    0.4130    3.8540 O   0  0  0  0  0  0  0  0  0  0  0  0
   -3.0958    2.2164    2.7128 N   0  0  0  0  0  0  0  0  0  0  0  0
   -1.8414   -0.3465    0.8000 C   0  0  0  0  0  0  0  0  0  0  0  0
   -0.7442   -1.2215    0.8677 C   0  0  0  0  0  0  0  0  0  0  0  0
   -1.0794   -2.3993    0.2540 C   0  0  0  0  0  0  0  0  0  0  0  0
   -0.3630   -3.5050    0.0707 O   0  0  0  0  0  0  0  0  0  0  0  0
   -2.3838   -2.2391   -0.2597 N   0  0  0  0  0  0  0  0  0  0  0  0
   -3.0858   -3.1591   -1.1030 C   0  0  0  0  0  0  0  0  0  0  0  0
   -2.8747   -4.5389   -0.9953 C   0  0  0  0  0  0  0  0  0  0  0  0
   -3.5715   -5.4247   -1.8222 C   0  0  0  0  0  0  0  0  0  0  0  0
   -4.4731   -4.9406   -2.7677 C   0  0  0  0  0  0  0  0  0  0  0  0
   -4.6770   -3.5686   -2.8937 C   0  0  0  0  0  0  0  0  0  0  0  0
   -3.9856   -2.6788   -2.0679 C   0  0  0  0  0  0  0  0  0  0  0  0
   -2.8798   -0.9975    0.1924 C   0  0  0  0  0  0  0  0  0  0  0  0
   -4.1465   -0.5985    0.0821 O   0  0  0  0  0  0  0  0  0  0  0  0
    0.3601   -0.5923    1.6257 C   0  0  1  0  0  0  0  0  0  0  0  0
    1.7693   -0.6664    1.0369 C   0  0  0  0  0  0  0  0  0  0  0  0
    2.6755    0.3342    1.6324 N   0  0  0  0  0  0  0  0  0  0  0  0
    4.0164    0.3866    1.3124 C   0  0  0  0  0  0  0  0  0  0  0  0
    4.8162    1.1358    1.8566 O   0  0  0  0  0  0  0  0  0  0  0  0
    4.3321   -0.4972    0.3303 O   0  0  0  0  0  0  0  0  0  0  0  0
    5.6883   -0.6041   -0.1723 C   0  0  0  0  0  0  0  0  0  0  0  0
    6.6508   -1.0803    0.9211 C   0  0  0  0  0  0  0  0  0  0  0  0
    6.1521    0.7071   -0.8161 C   0  0  0  0  0  0  0  0  0  0  0  0
    5.6126   -1.6840   -1.2625 C   0  0  0  0  0  0  0  0  0  0  0  0
    2.1467    1.1801    2.7113 C   0  0  0  0  0  0  0  0  0  0  0  0
    0.7031    1.7012    2.4626 C   0  0  0  0  0  0  0  0  0  0  0  0
   -0.0637    0.8280    1.5961 N   0  0  0  0  0  0  0  0  0  0  0  0
   -2.3937    6.0266   -2.3961 H   0  0  0  0  0  0  0  0  0  0  0  0
   -2.2342    5.2419   -3.9717 H   0  0  0  0  0  0  0  0  0  0  0  0
   -3.7150    4.9772   -3.0434 H   0  0  0  0  0  0  0  0  0  0  0  0
   -3.8157    5.2278   -0.6862 H   0  0  0  0  0  0  0  0  0  0  0  0
   -4.3228    4.4609    1.5948 H   0  0  0  0  0  0  0  0  0  0  0  0
   -1.0173    1.9633   -1.2065 H   0  0  0  0  0  0  0  0  0  0  0  0
   -3.6973    2.5422    3.4532 H   0  0  0  0  0  0  0  0  0  0  0  0
    0.5043   -3.3800    0.4911 H   0  0  0  0  0  0  0  0  0  0  0  0
   -2.1983   -4.9547   -0.2538 H   0  0  0  0  0  0  0  0  0  0  0  0
   -3.4083   -6.4953   -1.7257 H   0  0  0  0  0  0  0  0  0  0  0  0
   -5.0081   -5.6327   -3.4127 H   0  0  0  0  0  0  0  0  0  0  0  0
   -5.3624   -3.1885   -3.6472 H   0  0  0  0  0  0  0  0  0  0  0  0
   -4.1250   -1.6119   -2.2329 H   0  0  0  0  0  0  0  0  0  0  0  0
   -4.7077   -1.3822   -0.0609 H   0  0  0  0  0  0  0  0  0  0  0  0
    0.3481   -0.9698    2.6573 H   0  0  0  0  0  0  0  0  0  0  0  0
    1.7593   -0.4946   -0.0475 H   0  0  0  0  0  0  0  0  0  0  0  0
    2.1977   -1.6625    1.2012 H   0  0  0  0  0  0  0  0  0  0  0  0
    7.6352   -1.3241    0.5073 H   0  0  0  0  0  0  0  0  0  0  0  0
    6.2554   -1.9688    1.4264 H   0  0  0  0  0  0  0  0  0  0  0  0
    6.8004   -0.3209    1.6942 H   0  0  0  0  0  0  0  0  0  0  0  0
    6.2965    1.4989   -0.0750 H   0  0  0  0  0  0  0  0  0  0  0  0
    5.4054    1.0761   -1.5282 H   0  0  0  0  0  0  0  0  0  0  0  0
    7.1029    0.5772   -1.3441 H   0  0  0  0  0  0  0  0  0  0  0  0
    4.9058   -1.3945   -2.0492 H   0  0  0  0  0  0  0  0  0  0  0  0
    6.5889   -1.8652   -1.7245 H   0  0  0  0  0  0  0  0  0  0  0  0
    5.2439   -2.6302   -0.8492 H   0  0  0  0  0  0  0  0  0  0  0  0
    2.1524    0.5533    3.6122 H   0  0  0  0  0  0  0  0  0  0  0  0
    2.8159    2.0256    2.9033 H   0  0  0  0  0  0  0  0  0  0  0  0
    0.7672    2.6868    1.9874 H   0  0  0  0  0  0  0  0  0  0  0  0
    0.2275    1.8462    3.4387 H   0  0  0  0  0  0  0  0  0  0  0  0
  1  2  1  0
  2  3  1  0
  3  4  2  0
  4  5  1  0
  5  6  2  0
  6  7  1  0
  7  8  2  0
  7  9  1  0
  9 10  1  0
 10 11  2  0
 10 12  1  0
  9 13  1  0
 13 14  1  0
 14 15  2  0
 15 16  1  0
 15 17  1  0
 17 18  1  0
 18 19  2  0
 19 20  1  0
 20 21  2  0
 21 22  1  0
 22 23  2  0
 17 24  1  0
 24 25  1  0
 14 26  1  0
 26 27  1  0
 27 28  1  0
 28 29  1  0
 29 30  2  0
 29 31  1  0
 31 32  1  0
 32 33  1  0
 32 34  1  0
 32 35  1  0
 28 36  1  0
 36 37  1  0
 37 38  1  0
  8  3  1  0
  9 38  1  1
 12  6  1  0
 24 13  2  0
 38 26  1  0
 23 18  1  0
  1 39  1  0
  1 40  1  0
  1 41  1  0
  4 42  1  0
  5 43  1  0
  8 44  1  0
 12 45  1  0
 16 46  1  0
 19 47  1  0
 20 48  1  0
 21 49  1  0
 22 50  1  0
 23 51  1  0
 25 52  1  0
 26 53  1  1
 27 54  1  0
 27 55  1  0
 33 56  1  0
 33 57  1  0
 33 58  1  0
 34 59  1  0
 34 60  1  0
 34 61  1  0
 35 62  1  0
 35 63  1  0
 35 64  1  0
 36 65  1  0
 36 66  1  0
 37 67  1  0
 37 68  1  0
M  END
$$$$
