
     RDKit          3D

 41 42  0  0  0  0  0  0  0  0999 V2000
   -0.7161   -1.1822    2.6662 O   0  0  0  0  0  0  0  0  0  0  0  0
   -0.1516   -1.3383    1.3560 C   0  0  0  0  0  0  0  0  0  0  0  0
    0.5985   -0.0613    0.9511 C   0  0  0  0  0  0  0  0  0  0  0  0
    1.6142    0.2264    1.9296 O   0  0  0  0  0  0  0  0  0  0  0  0
    2.8747   -0.3813    1.6379 C   0  0  0  0  0  0  0  0  0  0  0  0
    3.6604    0.4142    0.6221 C   0  0  0  0  0  0  0  0  0  0  0  0
    3.7121    1.8149    0.6936 C   0  0  0  0  0  0  0  0  0  0  0  0
    4.4576    2.5474   -0.2328 C   0  0  0  0  0  0  0  0  0  0  0  0
    5.1643    1.8821   -1.2312 C   0  0  0  0  0  0  0  0  0  0  0  0
    6.0845    2.7819   -2.3732 Cl  0  0  0  0  0  0  0  0  0  0  0  0
    5.1340    0.4913   -1.3092 C   0  0  0  0  0  0  0  0  0  0  0  0
    4.3875   -0.2412   -0.3825 C   0  0  0  0  0  0  0  0  0  0  0  0
   -1.2268   -1.7683    0.3328 C   0  0  0  0  0  0  0  0  0  0  0  0
   -2.1113   -0.7019   -0.1917 N   0  0  0  0  0  0  0  0  0  0  0  0
   -2.9037   -1.2285   -1.3180 C   0  0  0  0  0  0  0  0  0  0  0  0
   -3.7982   -0.1507   -1.9303 C   0  0  0  0  0  0  0  0  0  0  0  0
   -4.7182    0.4606   -0.8826 C   0  0  0  0  0  0  0  0  0  0  0  0
   -3.9080    0.9371    0.3152 C   0  0  0  0  0  0  0  0  0  0  0  0
   -2.9997   -0.1697    0.8578 C   0  0  0  0  0  0  0  0  0  0  0  0
   -0.0789   -0.6293    3.1594 H   0  0  0  0  0  0  0  0  0  0  0  0
    0.5648   -2.1617    1.4536 H   0  0  0  0  0  0  0  0  0  0  0  0
   -0.0794    0.7978    0.9744 H   0  0  0  0  0  0  0  0  0  0  0  0
    1.0219   -0.1365   -0.0564 H   0  0  0  0  0  0  0  0  0  0  0  0
    3.4502   -0.4049    2.5699 H   0  0  0  0  0  0  0  0  0  0  0  0
    2.7327   -1.4190    1.3161 H   0  0  0  0  0  0  0  0  0  0  0  0
    3.1625    2.3408    1.4728 H   0  0  0  0  0  0  0  0  0  0  0  0
    4.4818    3.6317   -0.1679 H   0  0  0  0  0  0  0  0  0  0  0  0
    5.6896   -0.0275   -2.0857 H   0  0  0  0  0  0  0  0  0  0  0  0
    4.3781   -1.3268   -0.4527 H   0  0  0  0  0  0  0  0  0  0  0  0
   -1.8326   -2.5755    0.7655 H   0  0  0  0  0  0  0  0  0  0  0  0
   -0.6800   -2.1956   -0.5183 H   0  0  0  0  0  0  0  0  0  0  0  0
   -3.5198   -2.0787   -0.9963 H   0  0  0  0  0  0  0  0  0  0  0  0
   -2.2318   -1.5931   -2.1046 H   0  0  0  0  0  0  0  0  0  0  0  0
   -4.3963   -0.5825   -2.7407 H   0  0  0  0  0  0  0  0  0  0  0  0
   -3.1753    0.6352   -2.3760 H   0  0  0  0  0  0  0  0  0  0  0  0
   -5.2795    1.2962   -1.3149 H   0  0  0  0  0  0  0  0  0  0  0  0
   -5.4516   -0.2869   -0.5561 H   0  0  0  0  0  0  0  0  0  0  0  0
   -4.5852    1.2793    1.1060 H   0  0  0  0  0  0  0  0  0  0  0  0
   -3.2970    1.8006    0.0226 H   0  0  0  0  0  0  0  0  0  0  0  0
   -2.4149    0.2737    1.6690 H   0  0  0  0  0  0  0  0  0  0  0  0
   -3.6134   -0.9699    1.2916 H   0  0  0  0  0  0  0  0  0  0  0  0
  1  2  1  0
  2  3  1  0
  3  4  1  0
  4  5  1  0
  5  6  1  0
  6  7  2  0
  7  8  1  0
  8  9  2  0
  9 10  1  0
  9 11  1  0
 11 12  2  0
  2 13  1  0
 13 14  1  0
 14 15  1  0
 15 16  1  0
 16 17  1  0
 17 18  1  0
 18 19  1  0
 12  6  1  0
 19 14  1  0
  1 20  1  0
  2 21  1  0
  3 22  1  0
  3 23  1  0
  5 24  1  0
  5 25  1  0
  7 26  1  0
  8 27  1  0
 11 28  1  0
 12 29  1  0
 13 30  1  0
 13 31  1  0
 15 32  1  0
 15 33  1  0
 16 34  1  0
 16 35  1  0
 17 36  1  0
 17 37  1  0
 18 38  1  0
 18 39  1  0
 19 40  1  0
 19 41  1  0
M  END
$$$$
