
     RDKit          3D

 36 38  0  0  0  0  0  0  0  0999 V2000
    0.1213   -0.3724   -2.4559 C   0  0  0  0  0  0  0  0  0  0  0  0
   -1.0171   -0.3756   -1.4983 C   0  0  0  0  0  0  0  0  0  0  0  0
   -1.9929   -1.3368   -1.3231 C   0  0  0  0  0  0  0  0  0  0  0  0
   -2.8894   -0.8882   -0.3205 C   0  0  0  0  0  0  0  0  0  0  0  0
   -4.0552   -1.4320    0.2539 C   0  0  0  0  0  0  0  0  0  0  0  0
   -4.7379   -0.7130    1.2398 C   0  0  0  0  0  0  0  0  0  0  0  0
   -4.2754    0.5322    1.6527 C   0  0  0  0  0  0  0  0  0  0  0  0
   -3.1199    1.0910    1.0974 C   0  0  0  0  0  0  0  0  0  0  0  0
   -2.4360    0.3597    0.1105 C   0  0  0  0  0  0  0  0  0  0  0  0
   -1.2789    0.6397   -0.6003 N   0  0  0  0  0  0  0  0  0  0  0  0
   -0.4816    1.8472   -0.4148 C   0  0  0  0  0  0  0  0  0  0  0  0
    0.3763    1.8008    0.8525 C   0  0  0  0  0  0  0  0  0  0  0  0
    1.4540    0.8341    0.7881 N   0  0  0  0  0  0  0  0  0  0  0  0
    2.6325    1.0874    0.1201 C   0  0  0  0  0  0  0  0  0  0  0  0
    2.8718    2.1772   -0.3929 O   0  0  0  0  0  0  0  0  0  0  0  0
    3.5343   -0.0428    0.0602 C   0  0  0  0  0  0  0  0  0  0  0  0
    4.7909   -0.1746   -0.4997 C   0  0  0  0  0  0  0  0  0  0  0  0
    5.2017   -1.5102   -0.2695 C   0  0  0  0  0  0  0  0  0  0  0  0
    4.1731   -2.1151    0.4147 C   0  0  0  0  0  0  0  0  0  0  0  0
    4.1551   -3.9252    0.9979 Br  0  0  0  0  0  0  0  0  0  0  0  0
    3.1567   -1.2359    0.6202 O   0  0  0  0  0  0  0  0  0  0  0  0
    1.0774   -0.3561   -1.9274 H   0  0  0  0  0  0  0  0  0  0  0  0
    0.1046   -1.2711   -3.0817 H   0  0  0  0  0  0  0  0  0  0  0  0
    0.0680    0.4946   -3.1215 H   0  0  0  0  0  0  0  0  0  0  0  0
   -2.0638   -2.2658   -1.8741 H   0  0  0  0  0  0  0  0  0  0  0  0
   -4.4242   -2.4010   -0.0688 H   0  0  0  0  0  0  0  0  0  0  0  0
   -5.6386   -1.1308    1.6823 H   0  0  0  0  0  0  0  0  0  0  0  0
   -4.8205    1.0806    2.4176 H   0  0  0  0  0  0  0  0  0  0  0  0
   -2.7747    2.0648    1.4283 H   0  0  0  0  0  0  0  0  0  0  0  0
   -1.1842    2.6870   -0.3656 H   0  0  0  0  0  0  0  0  0  0  0  0
    0.1348    2.0005   -1.3056 H   0  0  0  0  0  0  0  0  0  0  0  0
   -0.2214    1.5494    1.7343 H   0  0  0  0  0  0  0  0  0  0  0  0
    0.8164    2.7902    1.0203 H   0  0  0  0  0  0  0  0  0  0  0  0
    1.2755   -0.1262    1.0675 H   0  0  0  0  0  0  0  0  0  0  0  0
    5.3345    0.6087   -1.0113 H   0  0  0  0  0  0  0  0  0  0  0  0
    6.1325   -1.9723   -0.5674 H   0  0  0  0  0  0  0  0  0  0  0  0
  1  2  1  0
  2  3  2  0
  3  4  1  0
  4  5  2  0
  5  6  1  0
  6  7  2  0
  7  8  1  0
  8  9  2  0
  9 10  1  0
 10 11  1  0
 11 12  1  0
 12 13  1  0
 13 14  1  0
 14 15  2  0
 14 16  1  0
 16 17  2  0
 17 18  1  0
 18 19  2  0
 19 20  1  0
 19 21  1  0
 10  2  1  0
 21 16  1  0
  9  4  1  0
  1 22  1  0
  1 23  1  0
  1 24  1  0
  3 25  1  0
  5 26  1  0
  6 27  1  0
  7 28  1  0
  8 29  1  0
 11 30  1  0
 11 31  1  0
 12 32  1  0
 12 33  1  0
 13 34  1  0
 17 35  1  0
 18 36  1  0
M  END
$$$$
