
     RDKit          3D

 42 43  0  0  0  0  0  0  0  0999 V2000
   -2.2208    1.3725    1.3175 C   0  0  0  0  0  0  0  0  0  0  0  0
   -2.9664    0.5216    0.2756 C   0  0  0  0  0  0  0  0  0  0  0  0
   -4.0484   -0.2983    1.0087 C   0  0  0  0  0  0  0  0  0  0  0  0
   -3.6672    1.4571   -0.7224 C   0  0  0  0  0  0  0  0  0  0  0  0
   -2.0119   -0.4773   -0.4363 C   0  0  0  0  0  0  0  0  0  0  0  0
   -0.9210    0.1683   -1.1436 N   0  0  0  0  0  0  0  0  0  0  0  0
   -0.7956    0.4043   -2.4757 C   0  0  0  0  0  0  0  0  0  0  0  0
   -1.7960    0.0742   -3.3103 N   0  0  0  0  0  0  0  0  0  0  0  0
    0.3288    0.9082   -2.9014 N   0  0  0  0  0  0  0  0  0  0  0  0
    1.1065    1.1279   -1.6443 C   0  0  0  0  0  0  0  0  0  0  0  0
    0.4167    0.2725   -0.5571 C   0  0  0  0  0  0  0  0  0  0  0  0
    1.0893   -1.1085   -0.4161 C   0  0  0  0  0  0  0  0  0  0  0  0
    2.4164   -1.0510    0.3071 C   0  0  0  0  0  0  0  0  0  0  0  0
    3.6177   -1.2335   -0.3932 C   0  0  0  0  0  0  0  0  0  0  0  0
    4.8442   -1.1727    0.2722 C   0  0  0  0  0  0  0  0  0  0  0  0
    4.8682   -0.9322    1.6416 C   0  0  0  0  0  0  0  0  0  0  0  0
    6.0426   -0.8643    2.3308 O   0  0  0  0  0  0  0  0  0  0  0  0
    3.6887   -0.7538    2.3535 C   0  0  0  0  0  0  0  0  0  0  0  0
    2.4632   -0.8141    1.6888 C   0  0  0  0  0  0  0  0  0  0  0  0
   -1.5195    2.0669    0.8433 H   0  0  0  0  0  0  0  0  0  0  0  0
   -2.9202    1.9768    1.9070 H   0  0  0  0  0  0  0  0  0  0  0  0
   -1.6590    0.7420    2.0155 H   0  0  0  0  0  0  0  0  0  0  0  0
   -3.6020   -0.9640    1.7560 H   0  0  0  0  0  0  0  0  0  0  0  0
   -4.6185   -0.9176    0.3070 H   0  0  0  0  0  0  0  0  0  0  0  0
   -4.7592    0.3545    1.5282 H   0  0  0  0  0  0  0  0  0  0  0  0
   -4.3712    2.1228   -0.2093 H   0  0  0  0  0  0  0  0  0  0  0  0
   -4.2382    0.8885   -1.4641 H   0  0  0  0  0  0  0  0  0  0  0  0
   -2.9509    2.0923   -1.2536 H   0  0  0  0  0  0  0  0  0  0  0  0
   -1.6119   -1.1666    0.3164 H   0  0  0  0  0  0  0  0  0  0  0  0
   -2.5865   -1.1087   -1.1256 H   0  0  0  0  0  0  0  0  0  0  0  0
   -2.7038    0.3811   -2.9956 H   0  0  0  0  0  0  0  0  0  0  0  0
   -1.5990    0.4289   -4.2405 H   0  0  0  0  0  0  0  0  0  0  0  0
    1.0503    2.1932   -1.3902 H   0  0  0  0  0  0  0  0  0  0  0  0
    2.1569    0.8707   -1.8027 H   0  0  0  0  0  0  0  0  0  0  0  0
    0.4040    0.8065    0.3979 H   0  0  0  0  0  0  0  0  0  0  0  0
    0.4468   -1.7986    0.1437 H   0  0  0  0  0  0  0  0  0  0  0  0
    1.2173   -1.5754   -1.4018 H   0  0  0  0  0  0  0  0  0  0  0  0
    3.6050   -1.4208   -1.4656 H   0  0  0  0  0  0  0  0  0  0  0  0
    5.7606   -1.3145   -0.2918 H   0  0  0  0  0  0  0  0  0  0  0  0
    6.7737   -1.0095    1.7083 H   0  0  0  0  0  0  0  0  0  0  0  0
    3.7235   -0.5704    3.4235 H   0  0  0  0  0  0  0  0  0  0  0  0
    1.5468   -0.6790    2.2587 H   0  0  0  0  0  0  0  0  0  0  0  0
  1  2  1  0
  2  3  1  0
  2  4  1  0
  2  5  1  0
  5  6  1  0
  6  7  1  0
  7  8  1  0
  7  9  2  0
  9 10  1  0
 10 11  1  0
 11 12  1  0
 12 13  1  0
 13 14  2  0
 14 15  1  0
 15 16  2  0
 16 17  1  0
 16 18  1  0
 18 19  2  0
 11  6  1  0
 19 13  1  0
  1 20  1  0
  1 21  1  0
  1 22  1  0
  3 23  1  0
  3 24  1  0
  3 25  1  0
  4 26  1  0
  4 27  1  0
  4 28  1  0
  5 29  1  0
  5 30  1  0
  8 31  1  0
  8 32  1  0
 10 33  1  0
 10 34  1  0
 11 35  1  0
 12 36  1  0
 12 37  1  0
 14 38  1  0
 15 39  1  0
 17 40  1  0
 18 41  1  0
 19 42  1  0
M  END
$$$$
