
     RDKit          3D

 47 50  0  0  0  0  0  0  0  0999 V2000
    7.2670   -0.0601    2.2840 C   0  0  0  0  0  0  0  0  0  0  0  0
    6.2663   -0.9066    2.0059 C   0  0  0  0  0  0  0  0  0  0  0  0
    5.8881   -1.3519    0.6197 C   0  0  0  0  0  0  0  0  0  0  0  0
    4.6452   -0.6980    0.2371 N   0  0  0  0  0  0  0  0  0  0  0  0
    4.7365    0.4831   -0.4709 C   0  0  0  0  0  0  0  0  0  0  0  0
    5.7940    0.9945   -0.8355 O   0  0  0  0  0  0  0  0  0  0  0  0
    3.5651    1.1007   -0.7899 N   0  0  0  0  0  0  0  0  0  0  0  0
    2.2949    0.6703   -0.5448 C   0  0  0  0  0  0  0  0  0  0  0  0
    1.3406    1.3211   -0.9492 O   0  0  0  0  0  0  0  0  0  0  0  0
    2.2055   -0.5985    0.2092 C   0  0  0  0  0  0  0  0  0  0  0  0
    1.0430   -1.1787    0.5718 C   0  0  0  0  0  0  0  0  0  0  0  0
   -0.3124   -0.6901    0.3104 C   0  0  0  0  0  0  0  0  0  0  0  0
   -1.0058   -1.1145   -0.8225 C   0  0  0  0  0  0  0  0  0  0  0  0
   -2.3169   -0.6704   -1.0682 C   0  0  0  0  0  0  0  0  0  0  0  0
   -2.9647    0.1922   -0.1578 C   0  0  0  0  0  0  0  0  0  0  0  0
   -2.2438    0.6328    0.9728 C   0  0  0  0  0  0  0  0  0  0  0  0
   -0.9333    0.1802    1.2056 C   0  0  0  0  0  0  0  0  0  0  0  0
   -2.8761    1.5539    1.9858 C   0  0  0  0  0  0  0  0  0  0  0  0
   -4.1063    2.2540    1.4294 C   0  0  0  0  0  0  0  0  0  0  0  0
   -4.9884    1.2362    0.7254 C   0  0  0  0  0  0  0  0  0  0  0  0
   -4.2690    0.6482   -0.4023 N   0  0  0  0  0  0  0  0  0  0  0  0
   -5.0639   -0.1040   -1.3701 C   0  0  0  0  0  0  0  0  0  0  0  0
   -4.2533   -0.3425   -2.6334 C   0  0  0  0  0  0  0  0  0  0  0  0
   -3.0296   -1.1803   -2.2960 C   0  0  0  0  0  0  0  0  0  0  0  0
    3.4552   -1.3052    0.6088 C   0  0  0  0  0  0  0  0  0  0  0  0
    3.4140   -2.3667    1.2319 O   0  0  0  0  0  0  0  0  0  0  0  0
    7.4971    0.2135    3.3093 H   0  0  0  0  0  0  0  0  0  0  0  0
    7.8708    0.3861    1.4980 H   0  0  0  0  0  0  0  0  0  0  0  0
    5.6888   -1.3311    2.8254 H   0  0  0  0  0  0  0  0  0  0  0  0
    6.6809   -1.1162   -0.0995 H   0  0  0  0  0  0  0  0  0  0  0  0
    5.7652   -2.4409    0.6116 H   0  0  0  0  0  0  0  0  0  0  0  0
    3.6462    1.9592   -1.3158 H   0  0  0  0  0  0  0  0  0  0  0  0
    1.0459   -2.1178    1.1257 H   0  0  0  0  0  0  0  0  0  0  0  0
   -0.5310   -1.7938   -1.5266 H   0  0  0  0  0  0  0  0  0  0  0  0
   -0.4017    0.5164    2.0927 H   0  0  0  0  0  0  0  0  0  0  0  0
   -2.1529    2.3102    2.3128 H   0  0  0  0  0  0  0  0  0  0  0  0
   -3.1567    0.9581    2.8632 H   0  0  0  0  0  0  0  0  0  0  0  0
   -3.8018    3.0350    0.7203 H   0  0  0  0  0  0  0  0  0  0  0  0
   -4.6563    2.7457    2.2395 H   0  0  0  0  0  0  0  0  0  0  0  0
   -5.8901    1.7437    0.3628 H   0  0  0  0  0  0  0  0  0  0  0  0
   -5.3137    0.4511    1.4201 H   0  0  0  0  0  0  0  0  0  0  0  0
   -5.3975   -1.0537   -0.9323 H   0  0  0  0  0  0  0  0  0  0  0  0
   -5.9626    0.4669   -1.6317 H   0  0  0  0  0  0  0  0  0  0  0  0
   -3.9402    0.6194   -3.0606 H   0  0  0  0  0  0  0  0  0  0  0  0
   -4.8597   -0.8530   -3.3896 H   0  0  0  0  0  0  0  0  0  0  0  0
   -2.3491   -1.1799   -3.1561 H   0  0  0  0  0  0  0  0  0  0  0  0
   -3.3336   -2.2184   -2.1105 H   0  0  0  0  0  0  0  0  0  0  0  0
  1  2  2  0
  2  3  1  0
  3  4  1  0
  4  5  1  0
  5  6  2  0
  5  7  1  0
  7  8  1  0
  8  9  2  0
  8 10  1  0
 10 11  2  3
 11 12  1  0
 12 13  2  0
 13 14  1  0
 14 15  2  0
 15 16  1  0
 16 17  2  0
 16 18  1  0
 18 19  1  0
 19 20  1  0
 20 21  1  0
 21 22  1  0
 22 23  1  0
 23 24  1  0
 10 25  1  0
 25 26  2  0
 25  4  1  0
 17 12  1  0
 24 14  1  0
 21 15  1  0
  1 27  1  0
  1 28  1  0
  2 29  1  0
  3 30  1  0
  3 31  1  0
  7 32  1  0
 11 33  1  0
 13 34  1  0
 17 35  1  0
 18 36  1  0
 18 37  1  0
 19 38  1  0
 19 39  1  0
 20 40  1  0
 20 41  1  0
 22 42  1  0
 22 43  1  0
 23 44  1  0
 23 45  1  0
 24 46  1  0
 24 47  1  0
M  END
$$$$
