
     RDKit          3D

 30 31  0  0  0  0  0  0  0  0999 V2000
    2.4647   -3.2998   -0.9004 C   0  0  0  0  0  0  0  0  0  0  0  0
    1.6598   -2.0182   -0.8916 C   0  0  0  0  0  0  0  0  0  0  0  0
    0.4199   -2.0981   -1.2898 N   0  0  0  0  0  0  0  0  0  0  0  0
   -0.4027   -1.0155   -1.1123 N   0  0  0  0  0  0  0  0  0  0  0  0
   -0.7340   -0.5661    0.1627 C   0  0  0  0  0  0  0  0  0  0  0  0
   -0.1812   -0.9350    1.1976 O   0  0  0  0  0  0  0  0  0  0  0  0
   -1.8400    0.4389    0.2443 C   0  0  0  0  0  0  0  0  0  0  0  0
   -1.9980    1.1143    1.4661 C   0  0  0  0  0  0  0  0  0  0  0  0
   -3.0005    2.0697    1.6173 C   0  0  0  0  0  0  0  0  0  0  0  0
   -3.1798    2.8939    3.1166 Cl  0  0  0  0  0  0  0  0  0  0  0  0
   -3.8601    2.3656    0.5620 C   0  0  0  0  0  0  0  0  0  0  0  0
   -3.7199    1.6992   -0.6560 C   0  0  0  0  0  0  0  0  0  0  0  0
   -2.7154    0.7392   -0.8126 C   0  0  0  0  0  0  0  0  0  0  0  0
   -2.6110    0.0870   -2.0132 O   0  0  0  0  0  0  0  0  0  0  0  0
    2.3701   -0.8247   -0.4571 C   0  0  0  0  0  0  0  0  0  0  0  0
    3.1418   -0.6549    0.6792 C   0  0  0  0  0  0  0  0  0  0  0  0
    3.7137    0.6506    0.7586 C   0  0  0  0  0  0  0  0  0  0  0  0
    3.3720    1.4060   -0.3333 C   0  0  0  0  0  0  0  0  0  0  0  0
    3.9459    3.2109   -0.5881 Br  0  0  0  0  0  0  0  0  0  0  0  0
    2.3958    0.5808   -1.4429 S   0  0  0  0  0  0  0  0  0  0  0  0
    1.9423   -4.0765   -1.4667 H   0  0  0  0  0  0  0  0  0  0  0  0
    2.6041   -3.6486    0.1270 H   0  0  0  0  0  0  0  0  0  0  0  0
    3.4434   -3.1284   -1.3582 H   0  0  0  0  0  0  0  0  0  0  0  0
   -1.1433   -0.9273   -1.8085 H   0  0  0  0  0  0  0  0  0  0  0  0
   -1.3327    0.8950    2.2995 H   0  0  0  0  0  0  0  0  0  0  0  0
   -4.6414    3.1121    0.6836 H   0  0  0  0  0  0  0  0  0  0  0  0
   -4.4028    1.9406   -1.4659 H   0  0  0  0  0  0  0  0  0  0  0  0
   -3.3066    0.4088   -2.6151 H   0  0  0  0  0  0  0  0  0  0  0  0
    3.2638   -1.4213    1.4356 H   0  0  0  0  0  0  0  0  0  0  0  0
    4.3322    1.0017    1.5751 H   0  0  0  0  0  0  0  0  0  0  0  0
  1  2  1  0
  2  3  2  3
  3  4  1  0
  4  5  1  0
  5  6  2  0
  5  7  1  0
  7  8  2  0
  8  9  1  0
  9 10  1  0
  9 11  2  0
 11 12  1  0
 12 13  2  0
 13 14  1  0
  2 15  1  0
 15 16  2  0
 16 17  1  0
 17 18  2  0
 18 19  1  0
 18 20  1  0
 13  7  1  0
 20 15  1  0
  1 21  1  0
  1 22  1  0
  1 23  1  0
  4 24  1  0
  8 25  1  0
 11 26  1  0
 12 27  1  0
 14 28  1  0
 16 29  1  0
 17 30  1  0
M  END
$$$$
