
     RDKit          3D

 40 41  0  0  0  0  0  0  0  0999 V2000
   -5.4054    0.5524    1.5596 C   0  0  0  0  0  0  0  0  0  0  0  0
   -4.3046    0.6417    0.5055 C   0  0  0  0  0  0  0  0  0  0  0  0
   -4.1718   -0.6800   -0.2600 C   0  0  0  0  0  0  0  0  0  0  0  0
   -3.0326   -0.6249   -1.2740 C   0  0  0  0  0  0  0  0  0  0  0  0
   -1.7745   -0.2051   -0.6609 N   0  0  0  0  0  0  0  0  0  0  0  0
   -0.6049   -0.5890   -1.3285 C   0  0  0  0  0  0  0  0  0  0  0  0
   -0.5935   -1.2345   -2.3738 O   0  0  0  0  0  0  0  0  0  0  0  0
    0.7031   -0.2395   -0.7309 C   0  0  0  0  0  0  0  0  0  0  0  0
    1.6659    0.3916   -1.5219 C   0  0  0  0  0  0  0  0  0  0  0  0
    2.9171    0.6989   -0.9804 C   0  0  0  0  0  0  0  0  0  0  0  0
    3.2178    0.3466    0.3368 C   0  0  0  0  0  0  0  0  0  0  0  0
    4.4777    0.6437    0.9291 N   0  0  0  0  0  0  0  0  0  0  0  0
    5.9141    0.1708    0.1917 S   0  0  0  0  0  6  0  0  0  0  0  0
    5.7214   -1.5973    0.0660 C   0  0  0  0  0  0  0  0  0  0  0  0
    5.9926    0.7262   -1.1404 O   0  0  0  0  0  0  0  0  0  0  0  0
    6.9498    0.4259    1.1711 O   0  0  0  0  0  0  0  0  0  0  0  0
    2.2523   -0.2890    1.1245 C   0  0  0  0  0  0  0  0  0  0  0  0
    0.9981   -0.5943    0.5895 C   0  0  0  0  0  0  0  0  0  0  0  0
   -1.8428    1.0396    0.1097 C   0  0  0  0  0  0  0  0  0  0  0  0
   -2.9601    1.0036    1.1481 C   0  0  0  0  0  0  0  0  0  0  0  0
   -5.1868   -0.2239    2.3006 H   0  0  0  0  0  0  0  0  0  0  0  0
   -6.3684    0.3156    1.0953 H   0  0  0  0  0  0  0  0  0  0  0  0
   -5.5133    1.5049    2.0890 H   0  0  0  0  0  0  0  0  0  0  0  0
   -4.5776    1.4326   -0.2056 H   0  0  0  0  0  0  0  0  0  0  0  0
   -3.9817   -1.4973    0.4480 H   0  0  0  0  0  0  0  0  0  0  0  0
   -5.1096   -0.9149   -0.7768 H   0  0  0  0  0  0  0  0  0  0  0  0
   -3.2640    0.0843   -2.0783 H   0  0  0  0  0  0  0  0  0  0  0  0
   -2.9122   -1.6126   -1.7334 H   0  0  0  0  0  0  0  0  0  0  0  0
    1.4432    0.6472   -2.5557 H   0  0  0  0  0  0  0  0  0  0  0  0
    3.6401    1.2226   -1.6011 H   0  0  0  0  0  0  0  0  0  0  0  0
    4.5432    0.6118    1.9461 H   0  0  0  0  0  0  0  0  0  0  0  0
    5.5168   -2.0031    1.0585 H   0  0  0  0  0  0  0  0  0  0  0  0
    4.9136   -1.8267   -0.6304 H   0  0  0  0  0  0  0  0  0  0  0  0
    6.6598   -2.0079   -0.3137 H   0  0  0  0  0  0  0  0  0  0  0  0
    2.4661   -0.5642    2.1538 H   0  0  0  0  0  0  0  0  0  0  0  0
    0.2580   -1.1113    1.1957 H   0  0  0  0  0  0  0  0  0  0  0  0
   -0.8955    1.2586    0.6065 H   0  0  0  0  0  0  0  0  0  0  0  0
   -2.0137    1.8528   -0.6070 H   0  0  0  0  0  0  0  0  0  0  0  0
   -3.0289    1.9786    1.6444 H   0  0  0  0  0  0  0  0  0  0  0  0
   -2.7089    0.2654    1.9209 H   0  0  0  0  0  0  0  0  0  0  0  0
  1  2  1  0
  2  3  1  0
  3  4  1  0
  4  5  1  0
  5  6  1  0
  6  7  2  0
  6  8  1  0
  8  9  2  0
  9 10  1  0
 10 11  2  0
 11 12  1  0
 12 13  1  0
 13 14  1  0
 13 15  2  0
 13 16  2  0
 11 17  1  0
 17 18  2  0
  5 19  1  0
 19 20  1  0
 20  2  1  0
 18  8  1  0
  1 21  1  0
  1 22  1  0
  1 23  1  0
  2 24  1  0
  3 25  1  0
  3 26  1  0
  4 27  1  0
  4 28  1  0
  9 29  1  0
 10 30  1  0
 12 31  1  0
 14 32  1  0
 14 33  1  0
 14 34  1  0
 17 35  1  0
 18 36  1  0
 19 37  1  0
 19 38  1  0
 20 39  1  0
 20 40  1  0
M  END
$$$$
