
     RDKit          3D

 40 42  0  0  0  0  0  0  0  0999 V2000
    5.4732    1.9764    0.9755 C   0  0  0  0  0  0  0  0  0  0  0  0
    4.9655    1.8427   -0.4479 C   0  0  0  0  0  0  0  0  0  0  0  0
    3.9533    0.8297   -0.5191 O   0  0  0  0  0  0  0  0  0  0  0  0
    2.6804    1.2386   -0.2505 C   0  0  0  0  0  0  0  0  0  0  0  0
    2.3583    2.3814    0.0434 O   0  0  0  0  0  0  0  0  0  0  0  0
    1.7291    0.0767   -0.3623 C   0  0  0  0  0  0  0  0  0  0  0  0
    0.4297    0.3486   -0.1606 N   0  0  0  0  0  0  0  0  0  0  0  0
   -0.4334   -0.6755   -0.2408 C   0  0  0  0  0  0  0  0  0  0  0  0
   -1.8254   -0.4377   -0.0682 N   0  0  0  0  0  0  0  0  0  0  0  0
   -2.4855    0.7145    0.4305 C   0  0  0  0  0  0  0  0  0  0  0  0
   -1.8579    1.5912    1.3295 C   0  0  0  0  0  0  0  0  0  0  0  0
   -2.5292    2.6918    1.8683 C   0  0  0  0  0  0  0  0  0  0  0  0
   -3.8581    2.9231    1.5407 C   0  0  0  0  0  0  0  0  0  0  0  0
   -4.5192    2.0448    0.6862 C   0  0  0  0  0  0  0  0  0  0  0  0
   -3.8543    0.9311    0.1396 C   0  0  0  0  0  0  0  0  0  0  0  0
   -4.6336    0.0088   -0.7599 C   0  0  0  0  0  0  0  0  0  0  0  0
   -0.0030   -1.9922   -0.5071 C   0  0  0  0  0  0  0  0  0  0  0  0
   -0.8471   -3.1321   -0.5695 C   0  0  0  0  0  0  0  0  0  0  0  0
   -0.3282   -4.3948   -0.8481 C   0  0  0  0  0  0  0  0  0  0  0  0
    1.0349   -4.5378   -1.0631 C   0  0  0  0  0  0  0  0  0  0  0  0
    1.8686   -3.4191   -0.9898 C   0  0  0  0  0  0  0  0  0  0  0  0
    1.3748   -2.1507   -0.7110 C   0  0  0  0  0  0  0  0  0  0  0  0
    2.2372   -1.1372   -0.6466 N   0  0  0  0  0  0  0  0  0  0  0  0
    5.8363    1.0122    1.3462 H   0  0  0  0  0  0  0  0  0  0  0  0
    4.6725    2.2956    1.6501 H   0  0  0  0  0  0  0  0  0  0  0  0
    6.2870    2.7049    1.0302 H   0  0  0  0  0  0  0  0  0  0  0  0
    5.7840    1.5236   -1.1015 H   0  0  0  0  0  0  0  0  0  0  0  0
    4.6000    2.8006   -0.8355 H   0  0  0  0  0  0  0  0  0  0  0  0
   -2.3137   -0.8197   -0.8696 H   0  0  0  0  0  0  0  0  0  0  0  0
   -0.8257    1.4330    1.6296 H   0  0  0  0  0  0  0  0  0  0  0  0
   -2.0068    3.3619    2.5458 H   0  0  0  0  0  0  0  0  0  0  0  0
   -4.3816    3.7791    1.9574 H   0  0  0  0  0  0  0  0  0  0  0  0
   -5.5650    2.2314    0.4517 H   0  0  0  0  0  0  0  0  0  0  0  0
   -4.2344    0.0481   -1.7784 H   0  0  0  0  0  0  0  0  0  0  0  0
   -4.5869   -1.0191   -0.3858 H   0  0  0  0  0  0  0  0  0  0  0  0
   -5.6916    0.2883   -0.8073 H   0  0  0  0  0  0  0  0  0  0  0  0
   -1.9148   -3.0412   -0.3814 H   0  0  0  0  0  0  0  0  0  0  0  0
   -0.9840   -5.2610   -0.8896 H   0  0  0  0  0  0  0  0  0  0  0  0
    1.4570   -5.5161   -1.2795 H   0  0  0  0  0  0  0  0  0  0  0  0
    2.9378   -3.5439   -1.1514 H   0  0  0  0  0  0  0  0  0  0  0  0
  1  2  1  0
  2  3  1  0
  3  4  1  0
  4  5  2  0
  4  6  1  0
  6  7  2  0
  7  8  1  0
  8  9  1  0
  9 10  1  0
 10 11  2  0
 11 12  1  0
 12 13  2  0
 13 14  1  0
 14 15  2  0
 15 16  1  0
  8 17  2  0
 17 18  1  0
 18 19  2  0
 19 20  1  0
 20 21  2  0
 21 22  1  0
 22 23  2  0
 23  6  1  0
 15 10  1  0
 22 17  1  0
  1 24  1  0
  1 25  1  0
  1 26  1  0
  2 27  1  0
  2 28  1  0
  9 29  1  0
 11 30  1  0
 12 31  1  0
 13 32  1  0
 14 33  1  0
 16 34  1  0
 16 35  1  0
 16 36  1  0
 18 37  1  0
 19 38  1  0
 20 39  1  0
 21 40  1  0
M  END
$$$$
