
     RDKit          3D

 33 35  0  0  0  0  0  0  0  0999 V2000
    2.2440   -2.4167   -0.0609 O   0  0  0  0  0  0  0  0  0  0  0  0
    3.3971   -1.6838    0.3565 C   0  0  0  0  0  0  0  0  0  0  0  0
    2.9863   -0.4569    1.1685 C   0  0  0  0  0  0  0  0  0  0  0  0
    2.7195    0.6870    0.3056 N   0  0  0  0  0  0  0  0  0  0  0  0
    1.5620    1.0533   -0.1127 C   0  0  0  0  0  0  0  0  0  0  0  0
    1.5049    2.4190   -0.8178 C   0  0  0  0  0  0  0  0  0  0  0  0
    0.2052    2.6894   -1.5853 C   0  0  0  0  0  0  0  0  0  0  0  0
   -1.0362    2.3852   -0.7350 C   0  0  0  0  0  0  0  0  0  0  0  0
   -0.9380    0.9937   -0.2110 C   0  0  0  0  0  0  0  0  0  0  0  0
    0.2844    0.3938    0.0549 C   0  0  0  0  0  0  0  0  0  0  0  0
    0.0175   -0.9076    0.3902 N   0  0  0  0  0  0  0  0  0  0  0  0
   -1.3403   -1.1297    0.4493 C   0  0  0  0  0  0  0  0  0  0  0  0
   -2.0470   -2.2917    0.7811 C   0  0  0  0  0  0  0  0  0  0  0  0
   -3.4432   -2.2332    0.7343 C   0  0  0  0  0  0  0  0  0  0  0  0
   -4.0939   -1.0595    0.3613 C   0  0  0  0  0  0  0  0  0  0  0  0
   -5.8161   -1.0254    0.3088 Cl  0  0  0  0  0  0  0  0  0  0  0  0
   -3.3764    0.0922    0.0236 C   0  0  0  0  0  0  0  0  0  0  0  0
   -1.9691    0.0567    0.0728 C   0  0  0  0  0  0  0  0  0  0  0  0
    2.5662   -3.0898   -0.6883 H   0  0  0  0  0  0  0  0  0  0  0  0
    3.9976   -2.3559    0.9774 H   0  0  0  0  0  0  0  0  0  0  0  0
    3.9782   -1.4031   -0.5280 H   0  0  0  0  0  0  0  0  0  0  0  0
    3.8347   -0.1715    1.8018 H   0  0  0  0  0  0  0  0  0  0  0  0
    2.1603   -0.6695    1.8538 H   0  0  0  0  0  0  0  0  0  0  0  0
    1.6357    3.1846   -0.0423 H   0  0  0  0  0  0  0  0  0  0  0  0
    2.3599    2.4995   -1.4993 H   0  0  0  0  0  0  0  0  0  0  0  0
    0.1813    3.7329   -1.9185 H   0  0  0  0  0  0  0  0  0  0  0  0
    0.1887    2.0632   -2.4872 H   0  0  0  0  0  0  0  0  0  0  0  0
   -1.9367    2.5076   -1.3466 H   0  0  0  0  0  0  0  0  0  0  0  0
   -1.1022    3.0885    0.1033 H   0  0  0  0  0  0  0  0  0  0  0  0
    0.7233   -1.6277    0.5067 H   0  0  0  0  0  0  0  0  0  0  0  0
   -1.5343   -3.2054    1.0643 H   0  0  0  0  0  0  0  0  0  0  0  0
   -4.0199   -3.1189    0.9897 H   0  0  0  0  0  0  0  0  0  0  0  0
   -3.8932    0.9997   -0.2713 H   0  0  0  0  0  0  0  0  0  0  0  0
  1  2  1  0
  2  3  1  0
  3  4  1  0
  4  5  2  3
  5  6  1  0
  6  7  1  0
  7  8  1  0
  8  9  1  0
  9 10  2  0
 10 11  1  0
 11 12  1  0
 12 13  2  0
 13 14  1  0
 14 15  2  0
 15 16  1  0
 15 17  1  0
 17 18  2  0
 10  5  1  0
 18 12  1  0
 18  9  1  0
  1 19  1  0
  2 20  1  0
  2 21  1  0
  3 22  1  0
  3 23  1  0
  6 24  1  0
  6 25  1  0
  7 26  1  0
  7 27  1  0
  8 28  1  0
  8 29  1  0
 11 30  1  0
 13 31  1  0
 14 32  1  0
 17 33  1  0
M  END
$$$$
