
     RDKit          3D

 40 43  0  0  0  0  0  0  0  0999 V2000
   -3.7246    3.0267   -0.5531 O   0  0  0  0  0  0  0  0  0  0  0  0
   -4.2018    1.9139   -0.6959 C   0  0  0  0  0  0  0  0  0  0  0  0
   -5.5361    1.6137   -0.8628 N   0  0  0  0  0  0  0  0  0  0  0  0
   -5.5852    0.3278   -0.9395 C   0  0  0  0  0  0  0  0  0  0  0  0
   -6.7846   -0.5128   -1.1209 C   0  0  0  0  0  0  0  0  0  0  0  0
   -6.6300   -1.8454   -1.1947 C   0  0  0  0  0  0  0  0  0  0  0  0
   -5.3316   -2.4934   -1.1077 C   0  0  0  0  0  0  0  0  0  0  0  0
   -4.2021   -1.7863   -0.9366 C   0  0  0  0  0  0  0  0  0  0  0  0
   -4.2911   -0.3585   -0.8357 C   0  0  0  0  0  0  0  0  0  0  0  0
   -3.4261    0.6438   -0.6788 C   0  0  0  0  0  0  0  0  0  0  0  0
   -2.0247    0.5589   -0.5583 C   0  0  0  0  0  0  0  0  0  0  0  0
   -1.2624   -0.3376    0.7037 S   0  0  0  0  0  0  0  0  0  0  0  0
    0.2617    0.1763    0.1384 C   0  0  0  0  0  0  0  0  0  0  0  0
    1.5489   -0.2462    0.6704 N   0  0  0  0  0  0  0  0  0  0  0  0
    1.8194    0.3477    2.2296 S   0  0  0  0  0  6  0  0  0  0  0  0
    0.8433   -0.2359    3.1271 O   0  0  0  0  0  0  0  0  0  0  0  0
    1.9738    1.7842    2.1336 O   0  0  0  0  0  0  0  0  0  0  0  0
    3.4122   -0.3771    2.6485 C   0  0  0  0  0  0  0  0  0  0  0  0
    4.4062   -0.1802    1.5325 C   0  0  0  0  0  0  0  0  0  0  0  0
    4.9894    1.0738    1.3010 C   0  0  0  0  0  0  0  0  0  0  0  0
    5.8916    1.2519    0.2516 C   0  0  0  0  0  0  0  0  0  0  0  0
    6.2268    0.1795   -0.5719 C   0  0  0  0  0  0  0  0  0  0  0  0
    5.6613   -1.0734   -0.3468 C   0  0  0  0  0  0  0  0  0  0  0  0
    4.7569   -1.2546    0.7004 C   0  0  0  0  0  0  0  0  0  0  0  0
    0.2684    0.8998   -0.9528 N   0  0  0  0  0  0  0  0  0  0  0  0
   -1.0285    1.1405   -1.3226 C   0  0  0  0  0  0  0  0  0  0  0  0
   -1.3087    1.8782   -2.4056 O   0  0  0  0  0  0  0  0  0  0  0  0
   -7.7458   -0.0201   -1.1884 H   0  0  0  0  0  0  0  0  0  0  0  0
   -7.4969   -2.4875   -1.3282 H   0  0  0  0  0  0  0  0  0  0  0  0
   -5.3022   -3.5766   -1.1897 H   0  0  0  0  0  0  0  0  0  0  0  0
   -3.2377   -2.2783   -0.8797 H   0  0  0  0  0  0  0  0  0  0  0  0
    2.2551    0.1345    0.0351 H   0  0  0  0  0  0  0  0  0  0  0  0
    3.7607    0.0979    3.5710 H   0  0  0  0  0  0  0  0  0  0  0  0
    3.2447   -1.4394    2.8543 H   0  0  0  0  0  0  0  0  0  0  0  0
    4.7404    1.9280    1.9303 H   0  0  0  0  0  0  0  0  0  0  0  0
    6.3334    2.2302    0.0771 H   0  0  0  0  0  0  0  0  0  0  0  0
    6.9323    0.3203   -1.3873 H   0  0  0  0  0  0  0  0  0  0  0  0
    5.9288   -1.9112   -0.9864 H   0  0  0  0  0  0  0  0  0  0  0  0
    4.3281   -2.2430    0.8579 H   0  0  0  0  0  0  0  0  0  0  0  0
   -0.4637    2.2440   -2.7194 H   0  0  0  0  0  0  0  0  0  0  0  0
  1  2  2  0
  2  3  1  0
  3  4  2  0
  4  5  1  0
  5  6  2  0
  6  7  1  0
  7  8  2  0
  8  9  1  0
  9 10  2  0
 10 11  1  0
 11 12  1  0
 12 13  1  0
 13 14  1  0
 14 15  1  0
 15 16  2  0
 15 17  2  0
 15 18  1  0
 18 19  1  0
 19 20  2  0
 20 21  1  0
 21 22  2  0
 22 23  1  0
 23 24  2  0
 13 25  2  0
 25 26  1  0
 26 27  1  0
 10  2  1  0
 26 11  2  0
  9  4  1  0
 24 19  1  0
  5 28  1  0
  6 29  1  0
  7 30  1  0
  8 31  1  0
 14 32  1  0
 18 33  1  0
 18 34  1  0
 20 35  1  0
 21 36  1  0
 22 37  1  0
 23 38  1  0
 24 39  1  0
 27 40  1  0
M  END
$$$$
