
     RDKit          3D

 41 42  0  0  0  0  0  0  0  0999 V2000
    3.8587   -2.7493    0.5074 C   0  0  0  0  0  0  0  0  0  0  0  0
    2.9178   -1.6833    0.4329 O   0  0  0  0  0  0  0  0  0  0  0  0
    3.3944   -0.4465    0.0600 C   0  0  0  0  0  0  0  0  0  0  0  0
    4.7345   -0.1564   -0.2115 C   0  0  0  0  0  0  0  0  0  0  0  0
    5.0972    1.1477   -0.5801 C   0  0  0  0  0  0  0  0  0  0  0  0
    6.5050    1.4547   -0.8652 N   0  0  0  0  0  4  0  0  0  0  0  0
    7.3239    0.5282   -0.7784 O   0  0  0  0  0  0  0  0  0  0  0  0
    6.7923    2.6194   -1.1739 O   0  0  0  0  0  1  0  0  0  0  0  0
    4.1360    2.1591   -0.6755 C   0  0  0  0  0  0  0  0  0  0  0  0
    2.7975    1.8659   -0.4026 C   0  0  0  0  0  0  0  0  0  0  0  0
    2.4172    0.5703   -0.0408 C   0  0  0  0  0  0  0  0  0  0  0  0
    1.0860    0.2061    0.2547 N   0  0  0  0  0  0  0  0  0  0  0  0
   -0.0631    0.9565    0.0856 C   0  0  0  0  0  0  0  0  0  0  0  0
   -0.1251    2.0626   -0.4379 O   0  0  0  0  0  0  0  0  0  0  0  0
   -1.1730    0.2517    0.5710 N   0  0  0  0  0  0  0  0  0  0  0  0
   -2.4411    0.8968    0.5905 N   0  0  0  0  0  0  0  0  0  0  0  0
   -3.1417    0.7277   -0.6997 C   0  0  0  0  0  0  0  0  0  0  0  0
   -3.7341   -0.6842   -0.9103 C   0  0  0  0  0  0  0  0  0  0  0  0
   -4.5931   -1.1741    0.1882 N   0  0  0  0  0  0  0  0  0  0  0  0
   -5.8998   -0.5171    0.1765 C   0  0  0  0  0  0  0  0  0  0  0  0
   -3.9018   -0.9804    1.4765 C   0  0  0  0  0  0  0  0  0  0  0  0
   -3.2966    0.4254    1.6953 C   0  0  0  0  0  0  0  0  0  0  0  0
    4.6128   -2.5552    1.2770 H   0  0  0  0  0  0  0  0  0  0  0  0
    4.3223   -2.9354   -0.4669 H   0  0  0  0  0  0  0  0  0  0  0  0
    3.3147   -3.6540    0.7953 H   0  0  0  0  0  0  0  0  0  0  0  0
    5.4999   -0.9226   -0.1406 H   0  0  0  0  0  0  0  0  0  0  0  0
    4.4044    3.1757   -0.9573 H   0  0  0  0  0  0  0  0  0  0  0  0
    2.0724    2.6721   -0.4753 H   0  0  0  0  0  0  0  0  0  0  0  0
    0.9659   -0.7749    0.4732 H   0  0  0  0  0  0  0  0  0  0  0  0
   -0.9646   -0.3878    1.3288 H   0  0  0  0  0  0  0  0  0  0  0  0
   -3.9473    1.4707   -0.7503 H   0  0  0  0  0  0  0  0  0  0  0  0
   -2.4719    0.9678   -1.5347 H   0  0  0  0  0  0  0  0  0  0  0  0
   -4.2842   -0.7126   -1.8591 H   0  0  0  0  0  0  0  0  0  0  0  0
   -2.9080   -1.3974   -1.0319 H   0  0  0  0  0  0  0  0  0  0  0  0
   -5.8426    0.5668    0.3180 H   0  0  0  0  0  0  0  0  0  0  0  0
   -6.5392   -0.9293    0.9651 H   0  0  0  0  0  0  0  0  0  0  0  0
   -6.4145   -0.7101   -0.7714 H   0  0  0  0  0  0  0  0  0  0  0  0
   -3.0935   -1.7213    1.5351 H   0  0  0  0  0  0  0  0  0  0  0  0
   -4.5763   -1.2217    2.3076 H   0  0  0  0  0  0  0  0  0  0  0  0
   -4.1089    1.1504    1.8312 H   0  0  0  0  0  0  0  0  0  0  0  0
   -2.7325    0.4380    2.6365 H   0  0  0  0  0  0  0  0  0  0  0  0
  1  2  1  0
  2  3  1  0
  3  4  2  0
  4  5  1  0
  5  6  1  0
  6  7  2  0
  6  8  1  0
  5  9  2  0
  9 10  1  0
 10 11  2  0
 11 12  1  0
 12 13  1  0
 13 14  2  0
 13 15  1  0
 15 16  1  0
 16 17  1  0
 17 18  1  0
 18 19  1  0
 19 20  1  0
 19 21  1  0
 21 22  1  0
 11  3  1  0
 22 16  1  0
  1 23  1  0
  1 24  1  0
  1 25  1  0
  4 26  1  0
  9 27  1  0
 10 28  1  0
 12 29  1  0
 15 30  1  0
 17 31  1  0
 17 32  1  0
 18 33  1  0
 18 34  1  0
 20 35  1  0
 20 36  1  0
 20 37  1  0
 21 38  1  0
 21 39  1  0
 22 40  1  0
 22 41  1  0
M  CHG  2   6   1   8  -1
M  END
$$$$
