
     RDKit          3D

 45 47  0  0  0  0  0  0  0  0999 V2000
    3.4597    0.7029   -3.1393 C   0  0  0  0  0  0  0  0  0  0  0  0
    2.4761   -0.3791   -2.7539 C   0  0  0  0  0  0  0  0  0  0  0  0
    1.2011   -0.1439   -2.7976 N   0  0  0  0  0  0  0  0  0  0  0  0
    3.0323   -1.7142   -2.3021 C   0  0  0  0  0  0  0  0  0  0  0  0
    2.0194   -2.7662   -2.1725 C   0  0  0  0  0  0  0  0  0  0  0  0
    1.2740   -3.6483   -2.0480 N   0  0  0  0  0  0  0  0  0  0  0  0
    3.8812   -1.5919   -1.0582 C   0  0  0  0  0  0  0  0  0  0  0  0
    5.0659   -1.2454   -1.1567 O   0  0  0  0  0  0  0  0  0  0  0  0
    3.2917   -1.9199    0.3171 C   0  0  0  0  0  0  0  0  0  0  0  0
    1.9521   -1.5524    0.6106 O   0  0  0  0  0  0  0  0  0  0  0  0
    1.7059   -0.2223    0.6185 C   0  0  0  0  0  0  0  0  0  0  0  0
    2.4693    0.6555    0.2599 O   0  0  0  0  0  0  0  0  0  0  0  0
    0.3272   -0.0009    1.0820 C   0  0  0  0  0  0  0  0  0  0  0  0
   -0.5716    0.5095    0.1485 C   0  0  0  0  0  0  0  0  0  0  0  0
   -1.8803    0.7230    0.5414 C   0  0  0  0  0  0  0  0  0  0  0  0
   -2.9173    1.2357   -0.3757 C   0  0  0  0  0  0  0  0  0  0  0  0
   -2.9408    0.8897   -1.7410 C   0  0  0  0  0  0  0  0  0  0  0  0
   -3.9270    1.3844   -2.6012 C   0  0  0  0  0  0  0  0  0  0  0  0
   -4.9154    2.2345   -2.1120 C   0  0  0  0  0  0  0  0  0  0  0  0
   -4.9159    2.5798   -0.7637 C   0  0  0  0  0  0  0  0  0  0  0  0
   -6.2622    3.7255   -0.0912 Br  0  0  0  0  0  0  0  0  0  0  0  0
   -3.9334    2.0867    0.0969 C   0  0  0  0  0  0  0  0  0  0  0  0
   -2.2853    0.4766    1.8115 N   0  0  0  0  0  0  0  0  0  0  0  0
   -1.4124   -0.0029    2.7144 C   0  0  0  0  0  0  0  0  0  0  0  0
   -1.8644   -0.2421    4.0051 C   0  0  0  0  0  0  0  0  0  0  0  0
   -1.0212   -0.7277    5.0072 C   0  0  0  0  0  0  0  0  0  0  0  0
    0.3121   -0.9810    4.7203 C   0  0  0  0  0  0  0  0  0  0  0  0
    0.7910   -0.7517    3.4321 C   0  0  0  0  0  0  0  0  0  0  0  0
   -0.0650   -0.2662    2.4101 C   0  0  0  0  0  0  0  0  0  0  0  0
    2.9722    1.4758   -3.7404 H   0  0  0  0  0  0  0  0  0  0  0  0
    4.2773    0.2710   -3.7226 H   0  0  0  0  0  0  0  0  0  0  0  0
    3.8671    1.1618   -2.2340 H   0  0  0  0  0  0  0  0  0  0  0  0
    1.0202    0.8152   -3.1262 H   0  0  0  0  0  0  0  0  0  0  0  0
    3.7153   -2.0406   -3.0997 H   0  0  0  0  0  0  0  0  0  0  0  0
    3.9472   -1.4838    1.0821 H   0  0  0  0  0  0  0  0  0  0  0  0
    3.3607   -3.0075    0.4378 H   0  0  0  0  0  0  0  0  0  0  0  0
   -0.2465    0.7341   -0.8603 H   0  0  0  0  0  0  0  0  0  0  0  0
   -2.1998    0.2051   -2.1511 H   0  0  0  0  0  0  0  0  0  0  0  0
   -3.9276    1.0956   -3.6496 H   0  0  0  0  0  0  0  0  0  0  0  0
   -5.6812    2.6128   -2.7838 H   0  0  0  0  0  0  0  0  0  0  0  0
   -3.9512    2.3639    1.1495 H   0  0  0  0  0  0  0  0  0  0  0  0
   -2.9081   -0.0422    4.2392 H   0  0  0  0  0  0  0  0  0  0  0  0
   -1.4110   -0.9020    6.0065 H   0  0  0  0  0  0  0  0  0  0  0  0
    0.9776   -1.3542    5.4949 H   0  0  0  0  0  0  0  0  0  0  0  0
    1.8412   -0.9527    3.2331 H   0  0  0  0  0  0  0  0  0  0  0  0
  1  2  1  0
  2  3  2  3
  2  4  1  0
  4  5  1  0
  5  6  3  0
  4  7  1  0
  7  8  2  0
  7  9  1  0
  9 10  1  0
 10 11  1  0
 11 12  2  0
 11 13  1  0
 13 14  2  0
 14 15  1  0
 15 16  1  0
 16 17  2  0
 17 18  1  0
 18 19  2  0
 19 20  1  0
 20 21  1  0
 20 22  2  0
 15 23  2  0
 23 24  1  0
 24 25  2  0
 25 26  1  0
 26 27  2  0
 27 28  1  0
 28 29  2  0
 29 13  1  0
 22 16  1  0
 29 24  1  0
  1 30  1  0
  1 31  1  0
  1 32  1  0
  3 33  1  0
  4 34  1  0
  9 35  1  0
  9 36  1  0
 14 37  1  0
 17 38  1  0
 18 39  1  0
 19 40  1  0
 22 41  1  0
 25 42  1  0
 26 43  1  0
 27 44  1  0
 28 45  1  0
M  END
$$$$
