
     RDKit          3D

 49 51  0  0  0  0  0  0  0  0999 V2000
    1.1164    2.3275   -3.5238 N   0  0  0  0  0  0  0  0  0  0  0  0
    1.7525    1.4628   -2.7125 C   0  0  0  0  0  0  0  0  0  0  0  0
    2.9589    1.0397   -2.9326 N   0  0  0  0  0  0  0  0  0  0  0  0
    3.2129    0.0850   -1.8211 C   0  0  0  0  0  0  0  0  0  0  0  0
    2.0512    0.2451   -0.8172 C   0  0  0  0  0  0  0  0  0  0  0  0
    2.4722    1.0029    0.4539 C   0  0  0  0  0  0  0  0  0  0  0  0
    3.2504    0.1417    1.4215 C   0  0  0  0  0  0  0  0  0  0  0  0
    2.5907   -0.8081    2.2166 C   0  0  0  0  0  0  0  0  0  0  0  0
    3.3084   -1.6140    3.1036 C   0  0  0  0  0  0  0  0  0  0  0  0
    4.6883   -1.4687    3.1957 C   0  0  0  0  0  0  0  0  0  0  0  0
    5.4286   -2.2338    4.0471 O   0  0  0  0  0  0  0  0  0  0  0  0
    5.3581   -0.5321    2.4188 C   0  0  0  0  0  0  0  0  0  0  0  0
    4.6412    0.2739    1.5335 C   0  0  0  0  0  0  0  0  0  0  0  0
    1.0956    1.0625   -1.5854 N   0  0  0  0  0  0  0  0  0  0  0  0
   -0.2868    0.5748   -1.6662 C   0  0  0  0  0  0  0  0  0  0  0  0
   -0.9936    0.6734   -0.3094 C   0  0  0  0  0  0  0  0  0  0  0  0
   -2.4371    0.2354   -0.3889 C   0  0  0  0  0  0  0  0  0  0  0  0
   -2.7788   -1.1151   -0.2346 C   0  0  0  0  0  0  0  0  0  0  0  0
   -4.1160   -1.5356   -0.3118 C   0  0  0  0  0  0  0  0  0  0  0  0
   -4.4691   -2.9965   -0.1553 C   0  0  0  0  0  0  0  0  0  0  0  0
   -3.6173   -3.6635    0.6726 F   0  0  0  0  0  0  0  0  0  0  0  0
   -5.7153   -3.1919    0.3572 F   0  0  0  0  0  0  0  0  0  0  0  0
   -4.4399   -3.6636   -1.3407 F   0  0  0  0  0  0  0  0  0  0  0  0
   -5.1139   -0.5823   -0.5716 C   0  0  0  0  0  0  0  0  0  0  0  0
   -4.7918    0.7736   -0.7445 C   0  0  0  0  0  0  0  0  0  0  0  0
   -5.8759    1.7957   -0.9976 C   0  0  0  0  0  0  0  0  0  0  0  0
   -5.4453    2.8592   -1.7314 F   0  0  0  0  0  0  0  0  0  0  0  0
   -6.9419    1.2842   -1.6731 F   0  0  0  0  0  0  0  0  0  0  0  0
   -6.3755    2.3133    0.1574 F   0  0  0  0  0  0  0  0  0  0  0  0
   -3.4492    1.1708   -0.6432 C   0  0  0  0  0  0  0  0  0  0  0  0
    1.7635    2.7095   -4.2059 H   0  0  0  0  0  0  0  0  0  0  0  0
    0.6454    3.0621   -3.0127 H   0  0  0  0  0  0  0  0  0  0  0  0
    3.2236   -0.9307   -2.2333 H   0  0  0  0  0  0  0  0  0  0  0  0
    4.1948    0.2811   -1.3818 H   0  0  0  0  0  0  0  0  0  0  0  0
    1.6381   -0.7406   -0.5699 H   0  0  0  0  0  0  0  0  0  0  0  0
    3.0522    1.8984    0.1937 H   0  0  0  0  0  0  0  0  0  0  0  0
    1.5860    1.3816    0.9797 H   0  0  0  0  0  0  0  0  0  0  0  0
    1.5108   -0.9229    2.1545 H   0  0  0  0  0  0  0  0  0  0  0  0
    2.7780   -2.3410    3.7102 H   0  0  0  0  0  0  0  0  0  0  0  0
    4.8322   -2.8308    4.5273 H   0  0  0  0  0  0  0  0  0  0  0  0
    6.4363   -0.4280    2.5027 H   0  0  0  0  0  0  0  0  0  0  0  0
    5.1788    1.0048    0.9328 H   0  0  0  0  0  0  0  0  0  0  0  0
   -0.2934   -0.4599   -2.0325 H   0  0  0  0  0  0  0  0  0  0  0  0
   -0.8552    1.1653   -2.3954 H   0  0  0  0  0  0  0  0  0  0  0  0
   -0.4800    0.0604    0.4414 H   0  0  0  0  0  0  0  0  0  0  0  0
   -0.9425    1.7035    0.0665 H   0  0  0  0  0  0  0  0  0  0  0  0
   -1.9978   -1.8525   -0.0461 H   0  0  0  0  0  0  0  0  0  0  0  0
   -6.1560   -0.9001   -0.6411 H   0  0  0  0  0  0  0  0  0  0  0  0
   -3.1927    2.2236   -0.7680 H   0  0  0  0  0  0  0  0  0  0  0  0
  1  2  1  0
  2  3  2  0
  3  4  1  0
  4  5  1  0
  5  6  1  0
  6  7  1  0
  7  8  2  0
  8  9  1  0
  9 10  2  0
 10 11  1  0
 10 12  1  0
 12 13  2  0
  5 14  1  0
 14 15  1  0
 15 16  1  0
 16 17  1  0
 17 18  2  0
 18 19  1  0
 19 20  1  0
 20 21  1  0
 20 22  1  0
 20 23  1  0
 19 24  2  0
 24 25  1  0
 25 26  1  0
 26 27  1  0
 26 28  1  0
 26 29  1  0
 25 30  2  0
 14  2  1  0
 30 17  1  0
 13  7  1  0
  1 31  1  0
  1 32  1  0
  4 33  1  0
  4 34  1  0
  5 35  1  0
  6 36  1  0
  6 37  1  0
  8 38  1  0
  9 39  1  0
 11 40  1  0
 12 41  1  0
 13 42  1  0
 15 43  1  0
 15 44  1  0
 16 45  1  0
 16 46  1  0
 18 47  1  0
 24 48  1  0
 30 49  1  0
M  END
$$$$
