
     RDKit          3D

 31 31  0  0  0  0  0  0  0  0999 V2000
    4.9725   -1.6496   -0.9856 N   0  0  0  0  0  0  0  0  0  0  0  0
    4.0996   -0.9952   -0.1734 C   0  0  0  0  0  0  0  0  0  0  0  0
    4.2039   -1.1682    1.4795 S   0  0  0  0  0  0  0  0  0  0  0  0
    3.1994   -0.2151   -0.8573 N   0  0  0  0  0  0  0  0  0  0  0  0
    2.0985    0.3439   -0.1772 N   0  0  0  0  0  0  0  0  0  0  0  0
    0.8828    0.3242   -0.8358 C   0  0  0  0  0  0  0  0  0  0  0  0
    0.7988    0.0564   -2.0343 O   0  0  0  0  0  0  0  0  0  0  0  0
   -0.3097    0.7656    0.0143 C   0  0  0  0  0  0  0  0  0  0  0  0
   -0.3802    0.0406    1.3717 C   0  0  0  0  0  0  0  0  0  0  0  0
   -1.7806    0.0082    1.9858 C   0  0  0  0  0  0  0  0  0  0  0  0
   -2.6181    1.1961    1.5397 C   0  0  0  0  0  0  0  0  0  0  0  0
   -2.8290    1.2055    0.0242 C   0  0  0  0  0  0  0  0  0  0  0  0
   -1.6277    0.6799   -0.7803 C   0  0  0  0  0  0  0  0  0  0  0  0
   -1.9061   -0.7308   -1.2693 C   0  0  0  0  0  0  0  0  0  0  0  0
   -1.5016   -1.7738   -0.7844 O   0  0  0  0  0  0  0  0  0  0  0  0
   -2.7226   -0.7481   -2.3419 O   0  0  0  0  0  0  0  0  0  0  0  0
    5.1623   -1.2903   -1.9114 H   0  0  0  0  0  0  0  0  0  0  0  0
    5.7344   -2.1435   -0.5346 H   0  0  0  0  0  0  0  0  0  0  0  0
    2.9941   -0.4612   -1.8267 H   0  0  0  0  0  0  0  0  0  0  0  0
    2.1510    0.3092    0.8389 H   0  0  0  0  0  0  0  0  0  0  0  0
   -0.1345    1.8326    0.2196 H   0  0  0  0  0  0  0  0  0  0  0  0
    0.2907    0.5561    2.0718 H   0  0  0  0  0  0  0  0  0  0  0  0
    0.0042   -0.9842    1.2991 H   0  0  0  0  0  0  0  0  0  0  0  0
   -1.6993   -0.0070    3.0788 H   0  0  0  0  0  0  0  0  0  0  0  0
   -2.2886   -0.9215    1.7026 H   0  0  0  0  0  0  0  0  0  0  0  0
   -3.5913    1.1836    2.0437 H   0  0  0  0  0  0  0  0  0  0  0  0
   -2.1215    2.1255    1.8458 H   0  0  0  0  0  0  0  0  0  0  0  0
   -3.7320    0.6283   -0.2116 H   0  0  0  0  0  0  0  0  0  0  0  0
   -3.0446    2.2372   -0.2814 H   0  0  0  0  0  0  0  0  0  0  0  0
   -1.5195    1.2937   -1.6860 H   0  0  0  0  0  0  0  0  0  0  0  0
   -2.7852   -1.6981   -2.5740 H   0  0  0  0  0  0  0  0  0  0  0  0
  1  2  1  0
  2  3  2  0
  2  4  1  0
  4  5  1  0
  5  6  1  0
  6  7  2  0
  6  8  1  0
  8  9  1  0
  9 10  1  0
 10 11  1  0
 11 12  1  0
 12 13  1  0
 13 14  1  0
 14 15  2  0
 14 16  1  0
 13  8  1  0
  1 17  1  0
  1 18  1  0
  4 19  1  0
  5 20  1  0
  8 21  1  0
  9 22  1  0
  9 23  1  0
 10 24  1  0
 10 25  1  0
 11 26  1  0
 11 27  1  0
 12 28  1  0
 12 29  1  0
 13 30  1  0
 16 31  1  0
M  END
$$$$
