
     RDKit          3D

 55 57  0  0  0  0  0  0  0  0999 V2000
    4.4517    1.2617    2.8273 C   0  0  0  0  0  0  0  0  0  0  0  0
    3.4836    2.3679    2.3930 C   0  0  0  0  0  0  0  0  0  0  0  0
    4.3047    3.6156    2.0319 C   0  0  0  0  0  0  0  0  0  0  0  0
    2.5721    1.9423    1.2124 C   0  0  0  0  0  0  0  0  0  0  0  0
    1.6666    3.0922    0.9097 N   0  0  0  0  0  0  0  0  0  0  0  0
    1.2174    3.3675   -0.6892 S   0  0  0  0  0  6  0  0  0  0  0  0
    2.3519    3.0705   -1.5360 O   0  0  0  0  0  0  0  0  0  0  0  0
    0.5677    4.6588   -0.7175 O   0  0  0  0  0  0  0  0  0  0  0  0
   -0.0378    2.1497   -0.9799 C   0  0  0  0  0  0  0  0  0  0  0  0
    0.2576    0.9917   -1.7039 C   0  0  0  0  0  0  0  0  0  0  0  0
   -0.7576    0.0686   -1.9629 C   0  0  0  0  0  0  0  0  0  0  0  0
   -2.0536    0.3052   -1.5046 C   0  0  0  0  0  0  0  0  0  0  0  0
   -2.3480    1.4873   -0.8163 C   0  0  0  0  0  0  0  0  0  0  0  0
   -1.3409    2.4079   -0.5417 C   0  0  0  0  0  0  0  0  0  0  0  0
   -3.6087    1.8100   -0.3838 O   0  0  0  0  0  0  0  0  0  0  0  0
   -4.6005    1.0098   -1.0379 C   0  0  0  0  0  0  0  0  0  0  0  0
   -4.1925   -0.4532   -1.0246 C   0  0  0  0  0  0  0  0  0  0  0  0
   -2.9927   -0.6557   -1.7804 O   0  0  0  0  0  0  0  0  0  0  0  0
    1.7063    0.7314    1.5663 C   0  0  0  0  0  0  0  0  0  0  0  0
    0.5339    0.8040    1.9196 O   0  0  0  0  0  0  0  0  0  0  0  0
    2.4101   -0.4250    1.4482 O   0  0  0  0  0  0  0  0  0  0  0  0
    1.6714   -1.6147    1.7259 C   0  0  0  0  0  0  0  0  0  0  0  0
    0.9914   -2.1558    0.4667 C   0  0  0  0  0  0  0  0  0  0  0  0
    1.5507   -2.0998   -0.6254 O   0  0  0  0  0  0  0  0  0  0  0  0
   -0.2598   -2.6903    0.7133 N   0  0  0  0  0  0  0  0  0  0  0  0
   -1.1242   -3.3358   -0.2077 C   0  0  0  0  0  0  0  0  0  0  0  0
   -0.7182   -3.7095   -1.4929 C   0  0  0  0  0  0  0  0  0  0  0  0
   -1.6096   -4.3299   -2.3717 C   0  0  0  0  0  0  0  0  0  0  0  0
   -2.9169   -4.5926   -1.9731 C   0  0  0  0  0  0  0  0  0  0  0  0
   -3.3361   -4.2450   -0.6882 C   0  0  0  0  0  0  0  0  0  0  0  0
   -4.9716   -4.6089   -0.2568 Cl  0  0  0  0  0  0  0  0  0  0  0  0
   -2.4436   -3.6260    0.1992 C   0  0  0  0  0  0  0  0  0  0  0  0
   -2.9418   -3.1995    1.8129 Cl  0  0  0  0  0  0  0  0  0  0  0  0
    5.0276    0.8806    1.9769 H   0  0  0  0  0  0  0  0  0  0  0  0
    5.1611    1.6339    3.5751 H   0  0  0  0  0  0  0  0  0  0  0  0
    3.9192    0.4253    3.2898 H   0  0  0  0  0  0  0  0  0  0  0  0
    2.8563    2.6189    3.2592 H   0  0  0  0  0  0  0  0  0  0  0  0
    4.9731    3.8953    2.8544 H   0  0  0  0  0  0  0  0  0  0  0  0
    4.9193    3.4386    1.1422 H   0  0  0  0  0  0  0  0  0  0  0  0
    3.6602    4.4781    1.8351 H   0  0  0  0  0  0  0  0  0  0  0  0
    3.1843    1.6970    0.3380 H   0  0  0  0  0  0  0  0  0  0  0  0
    0.8615    3.1504    1.5408 H   0  0  0  0  0  0  0  0  0  0  0  0
    1.2633    0.7968   -2.0709 H   0  0  0  0  0  0  0  0  0  0  0  0
   -0.5324   -0.8384   -2.5174 H   0  0  0  0  0  0  0  0  0  0  0  0
   -1.5820    3.3264   -0.0125 H   0  0  0  0  0  0  0  0  0  0  0  0
   -5.5438    1.1458   -0.4999 H   0  0  0  0  0  0  0  0  0  0  0  0
   -4.7324    1.3826   -2.0616 H   0  0  0  0  0  0  0  0  0  0  0  0
   -4.0237   -0.8074   -0.0012 H   0  0  0  0  0  0  0  0  0  0  0  0
   -4.9760   -1.0703   -1.4739 H   0  0  0  0  0  0  0  0  0  0  0  0
    2.3871   -2.3743    2.0589 H   0  0  0  0  0  0  0  0  0  0  0  0
    0.9617   -1.4668    2.5475 H   0  0  0  0  0  0  0  0  0  0  0  0
   -0.6802   -2.4991    1.6194 H   0  0  0  0  0  0  0  0  0  0  0  0
    0.2942   -3.5368   -1.8441 H   0  0  0  0  0  0  0  0  0  0  0  0
   -1.2793   -4.6054   -3.3708 H   0  0  0  0  0  0  0  0  0  0  0  0
   -3.6024   -5.0714   -2.6679 H   0  0  0  0  0  0  0  0  0  0  0  0
  1  2  1  0
  2  3  1  0
  2  4  1  0
  4  5  1  0
  5  6  1  0
  6  7  2  0
  6  8  2  0
  6  9  1  0
  9 10  2  0
 10 11  1  0
 11 12  2  0
 12 13  1  0
 13 14  2  0
 13 15  1  0
 15 16  1  0
 16 17  1  0
 17 18  1  0
  4 19  1  0
 19 20  2  0
 19 21  1  0
 21 22  1  0
 22 23  1  0
 23 24  2  0
 23 25  1  0
 25 26  1  0
 26 27  2  0
 27 28  1  0
 28 29  2  0
 29 30  1  0
 30 31  1  0
 30 32  2  0
 32 33  1  0
 14  9  1  0
 32 26  1  0
 18 12  1  0
  1 34  1  0
  1 35  1  0
  1 36  1  0
  2 37  1  0
  3 38  1  0
  3 39  1  0
  3 40  1  0
  4 41  1  0
  5 42  1  0
 10 43  1  0
 11 44  1  0
 14 45  1  0
 16 46  1  0
 16 47  1  0
 17 48  1  0
 17 49  1  0
 22 50  1  0
 22 51  1  0
 25 52  1  0
 27 53  1  0
 28 54  1  0
 29 55  1  0
M  END
$$$$
