
     RDKit          3D

 36 37  0  0  0  0  0  0  0  0999 V2000
    4.8588   -2.0183   -1.4437 C   0  0  0  0  0  0  0  0  0  0  0  0
    3.7388   -1.1211   -1.2240 N   0  0  0  0  0  0  0  0  0  0  0  0
    3.4813   -0.4248   -0.0557 C   0  0  0  0  0  0  0  0  0  0  0  0
    4.4562   -0.5438    1.3081 S   0  0  0  0  0  0  0  0  0  0  0  0
    2.3303    0.3683   -0.1339 N   0  0  0  0  0  0  0  0  0  0  0  0
    2.0394    1.4561    0.8094 C   0  0  0  0  0  0  0  0  0  0  0  0
    0.8480    1.0932    1.6909 C   0  0  0  0  0  0  0  0  0  0  0  0
   -0.3397    0.7013    0.8450 C   0  0  0  0  0  0  0  0  0  0  0  0
   -1.6350    0.7834    1.3782 C   0  0  0  0  0  0  0  0  0  0  0  0
   -2.7476    0.4114    0.6159 C   0  0  0  0  0  0  0  0  0  0  0  0
   -4.0466    0.4706    1.0580 O   0  0  0  0  0  0  0  0  0  0  0  0
   -4.2694    0.8881    2.3968 C   0  0  0  0  0  0  0  0  0  0  0  0
   -2.5630   -0.0580   -0.6988 C   0  0  0  0  0  0  0  0  0  0  0  0
   -3.7045   -0.3962   -1.3835 O   0  0  0  0  0  0  0  0  0  0  0  0
   -3.5596   -0.9260   -2.6925 C   0  0  0  0  0  0  0  0  0  0  0  0
   -1.2685   -0.1531   -1.2237 C   0  0  0  0  0  0  0  0  0  0  0  0
   -0.1483    0.2133   -0.4584 C   0  0  0  0  0  0  0  0  0  0  0  0
    1.2340    0.0887   -1.0710 C   0  0  0  0  0  0  0  0  0  0  0  0
    5.7859   -1.4391   -1.4619 H   0  0  0  0  0  0  0  0  0  0  0  0
    4.9006   -2.7726   -0.6540 H   0  0  0  0  0  0  0  0  0  0  0  0
    4.7160   -2.5105   -2.4090 H   0  0  0  0  0  0  0  0  0  0  0  0
    3.3975   -0.6685   -2.0592 H   0  0  0  0  0  0  0  0  0  0  0  0
    2.9044    1.7120    1.4259 H   0  0  0  0  0  0  0  0  0  0  0  0
    1.8150    2.3477    0.2087 H   0  0  0  0  0  0  0  0  0  0  0  0
    0.5959    1.9533    2.3217 H   0  0  0  0  0  0  0  0  0  0  0  0
    1.1004    0.2501    2.3450 H   0  0  0  0  0  0  0  0  0  0  0  0
   -1.7479    1.1456    2.3950 H   0  0  0  0  0  0  0  0  0  0  0  0
   -5.3471    0.8519    2.5834 H   0  0  0  0  0  0  0  0  0  0  0  0
   -3.7866    0.2106    3.1088 H   0  0  0  0  0  0  0  0  0  0  0  0
   -3.9415    1.9218    2.5474 H   0  0  0  0  0  0  0  0  0  0  0  0
   -2.9831   -1.8569   -2.6817 H   0  0  0  0  0  0  0  0  0  0  0  0
   -3.1120   -0.1901   -3.3685 H   0  0  0  0  0  0  0  0  0  0  0  0
   -4.5592   -1.1595   -3.0717 H   0  0  0  0  0  0  0  0  0  0  0  0
   -1.1022   -0.5162   -2.2329 H   0  0  0  0  0  0  0  0  0  0  0  0
    1.3327   -0.9233   -1.4773 H   0  0  0  0  0  0  0  0  0  0  0  0
    1.3264    0.8107   -1.8909 H   0  0  0  0  0  0  0  0  0  0  0  0
  1  2  1  0
  2  3  1  0
  3  4  2  0
  3  5  1  0
  5  6  1  0
  6  7  1  0
  7  8  1  0
  8  9  2  0
  9 10  1  0
 10 11  1  0
 11 12  1  0
 10 13  2  0
 13 14  1  0
 14 15  1  0
 13 16  1  0
 16 17  2  0
 17 18  1  0
 18  5  1  0
 17  8  1  0
  1 19  1  0
  1 20  1  0
  1 21  1  0
  2 22  1  0
  6 23  1  0
  6 24  1  0
  7 25  1  0
  7 26  1  0
  9 27  1  0
 12 28  1  0
 12 29  1  0
 12 30  1  0
 15 31  1  0
 15 32  1  0
 15 33  1  0
 16 34  1  0
 18 35  1  0
 18 36  1  0
M  END
$$$$
