
     RDKit          3D

 54 58  0  0  0  0  0  0  0  0999 V2000
   -6.0457   -3.2101    0.6088 C   0  0  0  0  0  0  0  0  0  0  0  0
   -4.8148   -2.5540   -0.0005 C   0  0  0  0  0  0  0  0  0  0  0  0
   -3.6925   -2.2879    1.0225 C   0  0  0  0  0  0  0  0  0  0  0  0
   -3.1149   -3.5766    1.6183 C   0  0  0  0  0  0  0  0  0  0  0  0
   -2.6314   -1.4555    0.4280 N   0  0  0  0  0  0  0  0  0  0  0  0
   -1.8606   -1.9438   -0.6240 C   0  0  0  0  0  0  0  0  0  0  0  0
   -0.9090   -1.3109   -1.2417 N   0  0  0  0  0  0  0  0  0  0  0  0
   -0.7016   -0.0632   -0.7619 C   0  0  0  0  0  0  0  0  0  0  0  0
   -1.3905    0.5640    0.2550 C   0  0  0  0  0  0  0  0  0  0  0  0
   -2.4515   -0.1498    0.9199 C   0  0  0  0  0  0  0  0  0  0  0  0
   -3.1294    0.3407    1.8173 O   0  0  0  0  0  0  0  0  0  0  0  0
   -0.8527    1.8565    0.4029 C   0  0  0  0  0  0  0  0  0  0  0  0
   -1.1701    2.8738    1.2406 N   0  0  0  0  0  0  0  0  0  0  0  0
   -0.4295    3.9816    1.0818 C   0  0  0  0  0  0  0  0  0  0  0  0
   -0.6900    5.0687    1.9062 C   0  0  0  0  0  0  0  0  0  0  0  0
    0.0353    6.2563    1.8022 C   0  0  0  0  0  0  0  0  0  0  0  0
    1.0427    6.3609    0.8539 C   0  0  0  0  0  0  0  0  0  0  0  0
    1.3157    5.2768    0.0182 C   0  0  0  0  0  0  0  0  0  0  0  0
    0.6026    4.0881    0.1100 C   0  0  0  0  0  0  0  0  0  0  0  0
    0.9228    3.0874   -0.7290 N   0  0  0  0  0  0  0  0  0  0  0  0
    0.1668    1.9863   -0.5378 C   0  0  0  0  0  0  0  0  0  0  0  0
    0.2612    0.7999   -1.2244 N   0  0  0  0  0  0  0  0  0  0  0  0
    1.2042    0.5327   -2.2961 C   0  0  0  0  0  0  0  0  0  0  0  0
    2.4827   -0.0719   -1.7703 C   0  0  0  0  0  0  0  0  0  0  0  0
    3.5361    0.7460   -1.3438 C   0  0  0  0  0  0  0  0  0  0  0  0
    4.7126    0.1807   -0.8465 C   0  0  0  0  0  0  0  0  0  0  0  0
    4.8577   -1.2053   -0.7602 C   0  0  0  0  0  0  0  0  0  0  0  0
    6.0581   -1.6246   -0.2562 O   0  0  0  0  0  0  0  0  0  0  0  0
    6.2463   -3.0281   -0.1307 C   0  0  0  0  0  0  0  0  0  0  0  0
    3.8092   -2.0258   -1.1750 C   0  0  0  0  0  0  0  0  0  0  0  0
    2.6291   -1.4624   -1.6740 C   0  0  0  0  0  0  0  0  0  0  0  0
   -6.8388   -3.2886   -0.1418 H   0  0  0  0  0  0  0  0  0  0  0  0
   -5.8267   -4.2209    0.9650 H   0  0  0  0  0  0  0  0  0  0  0  0
   -6.4311   -2.6216    1.4472 H   0  0  0  0  0  0  0  0  0  0  0  0
   -4.4488   -3.1813   -0.8219 H   0  0  0  0  0  0  0  0  0  0  0  0
   -5.1201   -1.6009   -0.4510 H   0  0  0  0  0  0  0  0  0  0  0  0
   -4.1386   -1.7348    1.8575 H   0  0  0  0  0  0  0  0  0  0  0  0
   -3.8633   -4.1039    2.2180 H   0  0  0  0  0  0  0  0  0  0  0  0
   -2.7632   -4.2645    0.8429 H   0  0  0  0  0  0  0  0  0  0  0  0
   -2.2666   -3.3513    2.2741 H   0  0  0  0  0  0  0  0  0  0  0  0
   -2.1106   -2.9692   -0.9363 H   0  0  0  0  0  0  0  0  0  0  0  0
   -1.4799    4.9860    2.6498 H   0  0  0  0  0  0  0  0  0  0  0  0
   -0.1899    7.0910    2.4612 H   0  0  0  0  0  0  0  0  0  0  0  0
    1.6169    7.2792    0.7608 H   0  0  0  0  0  0  0  0  0  0  0  0
    2.1060    5.3607   -0.7242 H   0  0  0  0  0  0  0  0  0  0  0  0
    1.4050    1.4717   -2.8253 H   0  0  0  0  0  0  0  0  0  0  0  0
    0.7240   -0.1333   -3.0225 H   0  0  0  0  0  0  0  0  0  0  0  0
    3.4452    1.8299   -1.3876 H   0  0  0  0  0  0  0  0  0  0  0  0
    5.5219    0.8281   -0.5178 H   0  0  0  0  0  0  0  0  0  0  0  0
    5.5172   -3.4644    0.5602 H   0  0  0  0  0  0  0  0  0  0  0  0
    6.2096   -3.5204   -1.1081 H   0  0  0  0  0  0  0  0  0  0  0  0
    7.2431   -3.1956    0.2886 H   0  0  0  0  0  0  0  0  0  0  0  0
    3.8727   -3.1072   -1.1209 H   0  0  0  0  0  0  0  0  0  0  0  0
    1.8171   -2.1192   -1.9817 H   0  0  0  0  0  0  0  0  0  0  0  0
  1  2  1  0
  2  3  1  0
  3  4  1  0
  3  5  1  0
  5  6  1  0
  6  7  2  0
  7  8  1  0
  8  9  2  0
  9 10  1  0
 10 11  2  0
  9 12  1  0
 12 13  2  0
 13 14  1  0
 14 15  2  0
 15 16  1  0
 16 17  2  0
 17 18  1  0
 18 19  2  0
 19 20  1  0
 20 21  2  0
 21 22  1  0
 22 23  1  0
 23 24  1  0
 24 25  2  0
 25 26  1  0
 26 27  2  0
 27 28  1  0
 28 29  1  0
 27 30  1  0
 30 31  2  0
 10  5  1  0
 21 12  1  0
 31 24  1  0
 22  8  1  0
 19 14  1  0
  1 32  1  0
  1 33  1  0
  1 34  1  0
  2 35  1  0
  2 36  1  0
  3 37  1  0
  4 38  1  0
  4 39  1  0
  4 40  1  0
  6 41  1  0
 15 42  1  0
 16 43  1  0
 17 44  1  0
 18 45  1  0
 23 46  1  0
 23 47  1  0
 25 48  1  0
 26 49  1  0
 29 50  1  0
 29 51  1  0
 29 52  1  0
 30 53  1  0
 31 54  1  0
M  END
$$$$
