
     RDKit          3D

 69 72  0  0  0  0  0  0  0  0999 V2000
  -11.1996    2.1102    1.5369 C   0  0  0  0  0  0  0  0  0  0  0  0
   -9.8187    1.6878    1.1317 C   0  0  0  0  0  0  0  0  0  0  0  0
   -9.6255    0.5810    0.2993 C   0  0  0  0  0  0  0  0  0  0  0  0
   -8.3352    0.1672   -0.0567 C   0  0  0  0  0  0  0  0  0  0  0  0
   -7.2136    0.8416    0.4360 C   0  0  0  0  0  0  0  0  0  0  0  0
   -5.8762    0.4589    0.1016 N   0  0  0  0  0  0  0  0  0  0  0  0
   -4.8722    1.3537    0.3129 N   0  0  0  0  0  0  0  0  0  0  0  0
   -3.8003    0.8200   -0.2769 C   0  0  0  0  0  0  0  0  0  0  0  0
   -2.4795    1.4271   -0.3835 C   0  0  0  0  0  0  0  0  0  0  0  0
   -2.1988    2.5355    0.0698 O   0  0  0  0  0  0  0  0  0  0  0  0
   -1.5542    0.5998   -1.0542 N   0  0  0  0  0  0  0  0  0  0  0  0
   -0.1693    1.0451   -1.1874 C   0  0  0  0  0  0  0  0  0  0  0  0
    0.6637    0.6241    0.0257 C   0  0  0  0  0  0  0  0  0  0  0  0
    2.0438    1.2761    0.0570 C   0  0  0  0  0  0  0  0  0  0  0  0
    2.9914    0.7633   -1.0105 C   0  0  0  0  0  0  0  0  0  0  0  0
    2.6856   -0.0727   -1.8522 O   0  0  0  0  0  0  0  0  0  0  0  0
    4.2379    1.3524   -0.9367 N   0  0  0  0  0  0  0  0  0  0  0  0
    5.3423    0.8406   -1.7313 C   0  0  0  0  0  0  0  0  0  0  0  0
    6.0039   -0.3797   -1.0596 C   0  0  0  0  0  0  0  0  0  0  0  0
    6.3855   -0.1208    0.3503 N   0  0  0  0  0  0  0  0  0  0  0  0
    7.5897    0.7313    0.4650 C   0  0  0  0  0  0  0  0  0  0  0  0
    8.9300    0.0352    0.1181 C   0  0  0  0  0  0  0  0  0  0  0  0
    9.1648   -1.2489    0.8057 N   0  0  0  0  0  0  0  0  0  0  0  0
    9.5508   -1.0443    2.2014 C   0  0  0  0  0  0  0  0  0  0  0  0
    7.9624   -2.0985    0.6982 C   0  0  0  0  0  0  0  0  0  0  0  0
    6.6341   -1.3933    1.0652 C   0  0  0  0  0  0  0  0  0  0  0  0
   -1.8261   -0.6836   -1.5380 N   0  0  0  0  0  0  0  0  0  0  0  0
   -3.0138   -1.2081   -1.4284 C   0  0  0  0  0  0  0  0  0  0  0  0
   -3.2392   -2.5835   -1.9875 C   0  0  0  0  0  0  0  0  0  0  0  0
   -4.0607   -0.4605   -0.7752 C   0  0  0  0  0  0  0  0  0  0  0  0
   -5.3750   -0.7350   -0.4338 C   0  0  0  0  0  0  0  0  0  0  0  0
   -6.1348   -2.0089   -0.5205 C   0  0  0  0  0  0  0  0  0  0  0  0
   -7.4116    1.9618    1.2612 C   0  0  0  0  0  0  0  0  0  0  0  0
   -8.7011    2.3727    1.6138 C   0  0  0  0  0  0  0  0  0  0  0  0
  -11.9446    1.7809    0.8041 H   0  0  0  0  0  0  0  0  0  0  0  0
  -11.2674    3.2015    1.6018 H   0  0  0  0  0  0  0  0  0  0  0  0
  -11.4514    1.6790    2.5112 H   0  0  0  0  0  0  0  0  0  0  0  0
  -10.4825    0.0375   -0.0937 H   0  0  0  0  0  0  0  0  0  0  0  0
   -8.2588   -0.6565   -0.7559 H   0  0  0  0  0  0  0  0  0  0  0  0
   -0.1600    2.1366   -1.2889 H   0  0  0  0  0  0  0  0  0  0  0  0
    0.2339    0.6289   -2.1163 H   0  0  0  0  0  0  0  0  0  0  0  0
    0.1337    0.9095    0.9443 H   0  0  0  0  0  0  0  0  0  0  0  0
    0.7554   -0.4694    0.0504 H   0  0  0  0  0  0  0  0  0  0  0  0
    1.9531    2.3634   -0.0455 H   0  0  0  0  0  0  0  0  0  0  0  0
    2.5030    1.0680    1.0312 H   0  0  0  0  0  0  0  0  0  0  0  0
    4.5064    1.7209   -0.0329 H   0  0  0  0  0  0  0  0  0  0  0  0
    4.9765    0.5614   -2.7256 H   0  0  0  0  0  0  0  0  0  0  0  0
    6.0570    1.6597   -1.8562 H   0  0  0  0  0  0  0  0  0  0  0  0
    6.8536   -0.7147   -1.6646 H   0  0  0  0  0  0  0  0  0  0  0  0
    5.2653   -1.1913   -1.0814 H   0  0  0  0  0  0  0  0  0  0  0  0
    7.6407    1.0933    1.4999 H   0  0  0  0  0  0  0  0  0  0  0  0
    7.4852    1.6368   -0.1429 H   0  0  0  0  0  0  0  0  0  0  0  0
    9.7595    0.7259    0.3167 H   0  0  0  0  0  0  0  0  0  0  0  0
    8.9649   -0.1514   -0.9625 H   0  0  0  0  0  0  0  0  0  0  0  0
   10.4739   -0.4562    2.2587 H   0  0  0  0  0  0  0  0  0  0  0  0
    8.7853   -0.5333    2.7937 H   0  0  0  0  0  0  0  0  0  0  0  0
    9.7671   -2.0059    2.6810 H   0  0  0  0  0  0  0  0  0  0  0  0
    8.0801   -2.9987    1.3145 H   0  0  0  0  0  0  0  0  0  0  0  0
    7.8976   -2.4623   -0.3352 H   0  0  0  0  0  0  0  0  0  0  0  0
    5.7977   -2.0859    0.9077 H   0  0  0  0  0  0  0  0  0  0  0  0
    6.6272   -1.1809    2.1420 H   0  0  0  0  0  0  0  0  0  0  0  0
   -3.3131   -3.3031   -1.1676 H   0  0  0  0  0  0  0  0  0  0  0  0
   -2.4020   -2.8748   -2.6290 H   0  0  0  0  0  0  0  0  0  0  0  0
   -4.1557   -2.6050   -2.5826 H   0  0  0  0  0  0  0  0  0  0  0  0
   -6.8510   -2.1141    0.2993 H   0  0  0  0  0  0  0  0  0  0  0  0
   -5.4677   -2.8705   -0.4345 H   0  0  0  0  0  0  0  0  0  0  0  0
   -6.6573   -2.0849   -1.4782 H   0  0  0  0  0  0  0  0  0  0  0  0
   -6.5654    2.5249    1.6520 H   0  0  0  0  0  0  0  0  0  0  0  0
   -8.8213    3.2349    2.2672 H   0  0  0  0  0  0  0  0  0  0  0  0
  1  2  1  0
  2  3  2  0
  3  4  1  0
  4  5  2  0
  5  6  1  0
  6  7  1  0
  7  8  2  0
  8  9  1  0
  9 10  2  0
  9 11  1  0
 11 12  1  0
 12 13  1  0
 13 14  1  0
 14 15  1  0
 15 16  2  0
 15 17  1  0
 17 18  1  0
 18 19  1  0
 19 20  1  0
 20 21  1  0
 21 22  1  0
 22 23  1  0
 23 24  1  0
 23 25  1  0
 25 26  1  0
 11 27  1  0
 27 28  2  0
 28 29  1  0
 28 30  1  0
 30 31  2  0
 31 32  1  0
  5 33  1  0
 33 34  2  0
 34  2  1  0
 31  6  1  0
 30  8  1  0
 26 20  1  0
  1 35  1  0
  1 36  1  0
  1 37  1  0
  3 38  1  0
  4 39  1  0
 12 40  1  0
 12 41  1  0
 13 42  1  0
 13 43  1  0
 14 44  1  0
 14 45  1  0
 17 46  1  0
 18 47  1  0
 18 48  1  0
 19 49  1  0
 19 50  1  0
 21 51  1  0
 21 52  1  0
 22 53  1  0
 22 54  1  0
 24 55  1  0
 24 56  1  0
 24 57  1  0
 25 58  1  0
 25 59  1  0
 26 60  1  0
 26 61  1  0
 29 62  1  0
 29 63  1  0
 29 64  1  0
 32 65  1  0
 32 66  1  0
 32 67  1  0
 33 68  1  0
 34 69  1  0
M  END
$$$$
