
     RDKit          3D

 57 60  0  0  0  0  0  0  0  0999 V2000
   -3.3254    4.0066    0.5642 C   0  0  0  0  0  0  0  0  0  0  0  0
   -3.8240    2.7133    0.2064 O   0  0  0  0  0  0  0  0  0  0  0  0
   -2.8341    1.7902    0.0298 C   0  0  0  0  0  0  0  0  0  0  0  0
   -1.8603    2.0023   -0.9570 C   0  0  0  0  0  0  0  0  0  0  0  0
   -0.8791    1.0400   -1.2022 C   0  0  0  0  0  0  0  0  0  0  0  0
   -0.8669   -0.1393   -0.4546 C   0  0  0  0  0  0  0  0  0  0  0  0
    0.1185   -1.2045   -0.7383 C   0  0  0  0  0  0  0  0  0  0  0  0
   -0.3190   -2.3177   -1.0148 O   0  0  0  0  0  0  0  0  0  0  0  0
    1.4703   -0.8979   -0.6940 N   0  0  0  0  0  0  0  0  0  0  0  0
    2.4293   -1.9331   -1.0819 C   0  0  0  0  0  0  0  0  0  0  0  0
    3.7848   -1.3590   -1.5282 C   0  0  0  0  0  0  0  0  0  0  0  0
    4.3654   -0.4556   -0.5146 N   0  0  0  0  0  0  0  0  0  0  0  0
    5.7449   -0.3377   -0.3894 C   0  0  0  0  0  0  0  0  0  0  0  0
    6.3603    0.0566    0.8117 C   0  0  0  0  0  0  0  0  0  0  0  0
    7.7512    0.1799    0.9318 C   0  0  0  0  0  0  0  0  0  0  0  0
    8.5707   -0.0881   -0.1564 C   0  0  0  0  0  0  0  0  0  0  0  0
    7.9964   -0.4728   -1.3621 C   0  0  0  0  0  0  0  0  0  0  0  0
    6.6047   -0.5911   -1.4725 C   0  0  0  0  0  0  0  0  0  0  0  0
    3.4526    0.0750    0.5104 C   0  0  0  0  0  0  0  0  0  0  0  0
    2.0374    0.2988   -0.0570 C   0  0  0  0  0  0  0  0  0  0  0  0
   -1.8492   -0.3735    0.5096 C   0  0  0  0  0  0  0  0  0  0  0  0
   -2.8478    0.5860    0.7403 C   0  0  0  0  0  0  0  0  0  0  0  0
   -4.0390    0.2487    2.0233 S   0  0  0  0  0  6  0  0  0  0  0  0
   -3.4455   -0.7603    2.8794 O   0  0  0  0  0  0  0  0  0  0  0  0
   -4.4874    1.5016    2.5932 O   0  0  0  0  0  0  0  0  0  0  0  0
   -5.3271   -0.4795    1.2223 N   0  0  0  0  0  0  0  0  0  0  0  0
   -6.2358    0.3303    0.3836 C   0  0  0  0  0  0  0  0  0  0  0  0
   -6.4592   -0.5130   -0.8662 C   0  0  0  0  0  0  0  0  0  0  0  0
   -6.3232   -1.9328   -0.3465 C   0  0  0  0  0  0  0  0  0  0  0  0
   -5.1475   -1.8143    0.6169 C   0  0  0  0  0  0  0  0  0  0  0  0
   -3.0860    4.5804   -0.3346 H   0  0  0  0  0  0  0  0  0  0  0  0
   -4.1172    4.5378    1.0989 H   0  0  0  0  0  0  0  0  0  0  0  0
   -2.4511    3.9481    1.2241 H   0  0  0  0  0  0  0  0  0  0  0  0
   -1.8798    2.9046   -1.5639 H   0  0  0  0  0  0  0  0  0  0  0  0
   -0.1493    1.1987   -1.9927 H   0  0  0  0  0  0  0  0  0  0  0  0
    2.0060   -2.5461   -1.8841 H   0  0  0  0  0  0  0  0  0  0  0  0
    2.5656   -2.5837   -0.2104 H   0  0  0  0  0  0  0  0  0  0  0  0
    4.4485   -2.2083   -1.7333 H   0  0  0  0  0  0  0  0  0  0  0  0
    3.6544   -0.7939   -2.4593 H   0  0  0  0  0  0  0  0  0  0  0  0
    5.7682    0.2587    1.6986 H   0  0  0  0  0  0  0  0  0  0  0  0
    8.1878    0.4800    1.8807 H   0  0  0  0  0  0  0  0  0  0  0  0
    9.6502    0.0019   -0.0653 H   0  0  0  0  0  0  0  0  0  0  0  0
    8.6270   -0.6818   -2.2225 H   0  0  0  0  0  0  0  0  0  0  0  0
    6.2022   -0.8696   -2.4440 H   0  0  0  0  0  0  0  0  0  0  0  0
    3.4060   -0.6276    1.3509 H   0  0  0  0  0  0  0  0  0  0  0  0
    3.8063    1.0415    0.8894 H   0  0  0  0  0  0  0  0  0  0  0  0
    2.0774    1.0766   -0.8286 H   0  0  0  0  0  0  0  0  0  0  0  0
    1.3747    0.6447    0.7432 H   0  0  0  0  0  0  0  0  0  0  0  0
   -1.8372   -1.3105    1.0656 H   0  0  0  0  0  0  0  0  0  0  0  0
   -7.1744    0.4669    0.9337 H   0  0  0  0  0  0  0  0  0  0  0  0
   -5.8448    1.3123    0.1232 H   0  0  0  0  0  0  0  0  0  0  0  0
   -5.6697   -0.3090   -1.6001 H   0  0  0  0  0  0  0  0  0  0  0  0
   -7.4255   -0.3195   -1.3399 H   0  0  0  0  0  0  0  0  0  0  0  0
   -6.1416   -2.6604   -1.1446 H   0  0  0  0  0  0  0  0  0  0  0  0
   -7.2322   -2.2282    0.1945 H   0  0  0  0  0  0  0  0  0  0  0  0
   -5.1725   -2.6003    1.3770 H   0  0  0  0  0  0  0  0  0  0  0  0
   -4.2091   -1.8723    0.0571 H   0  0  0  0  0  0  0  0  0  0  0  0
  1  2  1  0
  2  3  1  0
  3  4  2  0
  4  5  1  0
  5  6  2  0
  6  7  1  0
  7  8  2  0
  7  9  1  0
  9 10  1  0
 10 11  1  0
 11 12  1  0
 12 13  1  0
 13 14  2  0
 14 15  1  0
 15 16  2  0
 16 17  1  0
 17 18  2  0
 12 19  1  0
 19 20  1  0
  6 21  1  0
 21 22  2  0
 22 23  1  0
 23 24  2  0
 23 25  2  0
 23 26  1  0
 26 27  1  0
 27 28  1  0
 28 29  1  0
 29 30  1  0
 22  3  1  0
 30 26  1  0
 20  9  1  0
 18 13  1  0
  1 31  1  0
  1 32  1  0
  1 33  1  0
  4 34  1  0
  5 35  1  0
 10 36  1  0
 10 37  1  0
 11 38  1  0
 11 39  1  0
 14 40  1  0
 15 41  1  0
 16 42  1  0
 17 43  1  0
 18 44  1  0
 19 45  1  0
 19 46  1  0
 20 47  1  0
 20 48  1  0
 21 49  1  0
 27 50  1  0
 27 51  1  0
 28 52  1  0
 28 53  1  0
 29 54  1  0
 29 55  1  0
 30 56  1  0
 30 57  1  0
M  END
$$$$
