
     RDKit          3D

 43 45  0  0  0  0  0  0  0  0999 V2000
    2.5221   -2.1736    3.5759 C   0  0  0  0  0  0  0  0  0  0  0  0
    1.4491   -2.3175    2.5944 N   0  0  0  0  0  0  0  0  0  0  0  0
    0.1153   -2.3106    3.2320 C   0  0  0  0  0  0  0  0  0  0  0  0
   -0.6412   -0.9726    3.1505 C   0  0  0  0  0  0  0  0  0  0  0  0
   -0.7641   -0.4905    1.7756 N   0  0  0  0  0  0  0  0  0  0  0  0
   -1.8134    0.3575    1.4544 C   0  0  0  0  0  0  0  0  0  0  0  0
   -2.6363    0.7869    2.2558 O   0  0  0  0  0  0  0  0  0  0  0  0
   -1.9522    0.8079    0.0109 C   0  0  0  0  0  0  0  0  0  0  0  0
   -1.8845    2.3087   -0.1846 C   0  0  0  0  0  0  0  0  0  0  0  0
   -0.5111    2.7047   -0.6417 C   0  0  0  0  0  0  0  0  0  0  0  0
   -0.0816    2.9874   -1.9253 C   0  0  0  0  0  0  0  0  0  0  0  0
    1.2978    3.3437   -1.9684 C   0  0  0  0  0  0  0  0  0  0  0  0
    1.8746    3.3304   -0.7181 C   0  0  0  0  0  0  0  0  0  0  0  0
    0.7542    2.9033    0.4993 S   0  0  0  0  0  0  0  0  0  0  0  0
   -2.1025   -0.1209   -0.8885 N   0  0  0  0  0  0  0  0  0  0  0  0
   -2.2416    0.2508   -2.1977 C   0  0  0  0  0  0  0  0  0  0  0  0
   -3.1013    1.0221   -2.6079 O   0  0  0  0  0  0  0  0  0  0  0  0
   -1.2686   -0.3945   -3.0575 C   0  0  0  0  0  0  0  0  0  0  0  0
   -1.1624   -0.4108   -4.4375 C   0  0  0  0  0  0  0  0  0  0  0  0
   -0.0150   -1.1780   -4.7532 C   0  0  0  0  0  0  0  0  0  0  0  0
    0.5179   -1.5794   -3.5517 C   0  0  0  0  0  0  0  0  0  0  0  0
   -0.2252   -1.1092   -2.5198 O   0  0  0  0  0  0  0  0  0  0  0  0
    0.2443   -0.9750    0.8249 C   0  0  0  0  0  0  0  0  0  0  0  0
    1.5728   -1.2962    1.5335 C   0  0  0  0  0  0  0  0  0  0  0  0
    2.5050   -3.0072    4.2876 H   0  0  0  0  0  0  0  0  0  0  0  0
    2.4351   -1.2372    4.1414 H   0  0  0  0  0  0  0  0  0  0  0  0
    3.5025   -2.1948    3.0872 H   0  0  0  0  0  0  0  0  0  0  0  0
   -0.4826   -3.0689    2.7092 H   0  0  0  0  0  0  0  0  0  0  0  0
    0.1672   -2.6450    4.2756 H   0  0  0  0  0  0  0  0  0  0  0  0
   -1.6387   -1.0795    3.5938 H   0  0  0  0  0  0  0  0  0  0  0  0
   -0.1050   -0.1998    3.7173 H   0  0  0  0  0  0  0  0  0  0  0  0
   -2.1295    2.8199    0.7533 H   0  0  0  0  0  0  0  0  0  0  0  0
   -2.6392    2.6365   -0.9043 H   0  0  0  0  0  0  0  0  0  0  0  0
   -0.7272    2.9503   -2.7960 H   0  0  0  0  0  0  0  0  0  0  0  0
    1.8406    3.6031   -2.8710 H   0  0  0  0  0  0  0  0  0  0  0  0
    2.8986    3.5640   -0.4589 H   0  0  0  0  0  0  0  0  0  0  0  0
   -1.8465    0.0712   -5.1237 H   0  0  0  0  0  0  0  0  0  0  0  0
    0.3746   -1.4148   -5.7340 H   0  0  0  0  0  0  0  0  0  0  0  0
    1.3788   -2.1732   -3.2751 H   0  0  0  0  0  0  0  0  0  0  0  0
    0.4200   -0.2264    0.0494 H   0  0  0  0  0  0  0  0  0  0  0  0
   -0.1623   -1.8737    0.3443 H   0  0  0  0  0  0  0  0  0  0  0  0
    2.3045   -1.6421    0.7939 H   0  0  0  0  0  0  0  0  0  0  0  0
    1.9569   -0.3568    1.9548 H   0  0  0  0  0  0  0  0  0  0  0  0
  1  2  1  0
  2  3  1  0
  3  4  1  0
  4  5  1  0
  5  6  1  0
  6  7  2  0
  6  8  1  0
  8  9  1  0
  9 10  1  0
 10 11  2  0
 11 12  1  0
 12 13  2  0
 13 14  1  0
  8 15  2  3
 15 16  1  0
 16 17  2  0
 16 18  1  0
 18 19  2  0
 19 20  1  0
 20 21  2  0
 21 22  1  0
  5 23  1  0
 23 24  1  0
 24  2  1  0
 14 10  1  0
 22 18  1  0
  1 25  1  0
  1 26  1  0
  1 27  1  0
  3 28  1  0
  3 29  1  0
  4 30  1  0
  4 31  1  0
  9 32  1  0
  9 33  1  0
 11 34  1  0
 12 35  1  0
 13 36  1  0
 19 37  1  0
 20 38  1  0
 21 39  1  0
 23 40  1  0
 23 41  1  0
 24 42  1  0
 24 43  1  0
M  END
$$$$
