
     RDKit          3D

 54 57  0  0  0  0  0  0  0  0999 V2000
    5.6749   -4.1832    1.2978 C   0  0  0  0  0  0  0  0  0  0  0  0
    6.5767   -3.0965    1.1325 O   0  0  0  0  0  0  0  0  0  0  0  0
    6.0320   -1.8619    0.9072 C   0  0  0  0  0  0  0  0  0  0  0  0
    6.9621   -0.8288    0.7962 C   0  0  0  0  0  0  0  0  0  0  0  0
    6.5391    0.4790    0.5699 C   0  0  0  0  0  0  0  0  0  0  0  0
    5.1776    0.7643    0.4488 C   0  0  0  0  0  0  0  0  0  0  0  0
    4.2322   -0.2572    0.5503 C   0  0  0  0  0  0  0  0  0  0  0  0
    2.8375   -0.0547    0.4417 N   0  0  0  0  0  0  0  0  0  0  0  0
    2.1794    1.1279    0.1573 C   0  0  0  0  0  0  0  0  0  0  0  0
    2.7014    2.2006   -0.1285 O   0  0  0  0  0  0  0  0  0  0  0  0
    0.6881    1.0167    0.1332 C   0  0  0  0  0  0  0  0  0  0  0  0
    0.0227    0.2195    0.9872 C   0  0  0  0  0  0  0  0  0  0  0  0
   -1.4258    0.0783    0.9714 C   0  0  0  0  0  0  0  0  0  0  0  0
   -2.0762   -0.8621    1.9273 C   0  0  0  0  0  0  0  0  0  0  0  0
   -1.3773   -1.5268    2.6966 O   0  0  0  0  0  0  0  0  0  0  0  0
   -3.4556   -0.9321    1.8699 N   0  0  0  0  0  0  0  0  0  0  0  0
   -4.1378   -1.7724    2.7436 C   0  0  0  0  0  0  0  0  0  0  0  0
   -5.4716   -1.8836    2.7168 C   0  0  0  0  0  0  0  0  0  0  0  0
   -6.2341   -1.1231    1.7635 C   0  0  0  0  0  0  0  0  0  0  0  0
   -5.6181   -0.3041    0.9029 C   0  0  0  0  0  0  0  0  0  0  0  0
   -4.1333   -0.1766    0.9316 C   0  0  0  0  0  0  0  0  0  0  0  0
   -3.5648    0.6218    0.0874 N   0  0  0  0  0  0  0  0  0  0  0  0
   -2.1954    0.7656    0.0979 C   0  0  0  0  0  0  0  0  0  0  0  0
   -1.5600    1.6467   -0.8107 N   0  0  0  0  0  0  0  0  0  0  0  0
   -2.3819    2.4112   -1.7714 C   0  0  0  0  0  0  0  0  0  0  0  0
   -2.7772    1.5615   -2.9965 C   0  0  0  0  0  0  0  0  0  0  0  0
   -1.5719    1.1955   -3.8645 C   0  0  0  0  0  0  0  0  0  0  0  0
   -3.8084    2.3169   -3.8384 C   0  0  0  0  0  0  0  0  0  0  0  0
   -0.1699    1.8425   -0.7973 C   0  0  0  0  0  0  0  0  0  0  0  0
    0.3785    2.7272   -1.5823 N   0  0  0  0  0  0  0  0  0  0  0  0
    4.6700   -1.5722    0.7836 C   0  0  0  0  0  0  0  0  0  0  0  0
    5.0212   -4.0260    2.1623 H   0  0  0  0  0  0  0  0  0  0  0  0
    5.0920   -4.3538    0.3866 H   0  0  0  0  0  0  0  0  0  0  0  0
    6.2669   -5.0836    1.4873 H   0  0  0  0  0  0  0  0  0  0  0  0
    8.0237   -1.0440    0.8891 H   0  0  0  0  0  0  0  0  0  0  0  0
    7.2691    1.2802    0.4870 H   0  0  0  0  0  0  0  0  0  0  0  0
    4.8926    1.7975    0.2768 H   0  0  0  0  0  0  0  0  0  0  0  0
    2.2746   -0.8906    0.5272 H   0  0  0  0  0  0  0  0  0  0  0  0
    0.5482   -0.3526    1.7475 H   0  0  0  0  0  0  0  0  0  0  0  0
   -3.5408   -2.3382    3.4545 H   0  0  0  0  0  0  0  0  0  0  0  0
   -5.9960   -2.5408    3.4031 H   0  0  0  0  0  0  0  0  0  0  0  0
   -7.3143   -1.2294    1.7593 H   0  0  0  0  0  0  0  0  0  0  0  0
   -6.1547    0.2854    0.1699 H   0  0  0  0  0  0  0  0  0  0  0  0
   -1.8760    3.3274   -2.1004 H   0  0  0  0  0  0  0  0  0  0  0  0
   -3.2869    2.7703   -1.2630 H   0  0  0  0  0  0  0  0  0  0  0  0
   -3.2432    0.6271   -2.6609 H   0  0  0  0  0  0  0  0  0  0  0  0
   -0.8646    0.5659   -3.3164 H   0  0  0  0  0  0  0  0  0  0  0  0
   -1.8887    0.6324   -4.7491 H   0  0  0  0  0  0  0  0  0  0  0  0
   -1.0420    2.0901   -4.2079 H   0  0  0  0  0  0  0  0  0  0  0  0
   -4.7025    2.5423   -3.2475 H   0  0  0  0  0  0  0  0  0  0  0  0
   -3.4008    3.2623   -4.2124 H   0  0  0  0  0  0  0  0  0  0  0  0
   -4.1219    1.7183   -4.7002 H   0  0  0  0  0  0  0  0  0  0  0  0
    1.3973    2.7844   -1.4128 H   0  0  0  0  0  0  0  0  0  0  0  0
    3.9343   -2.3644    0.8649 H   0  0  0  0  0  0  0  0  0  0  0  0
  1  2  1  0
  2  3  1  0
  3  4  2  0
  4  5  1  0
  5  6  2  0
  6  7  1  0
  7  8  1  0
  8  9  1  0
  9 10  2  0
  9 11  1  0
 11 12  2  0
 12 13  1  0
 13 14  1  0
 14 15  2  0
 14 16  1  0
 16 17  1  0
 17 18  2  0
 18 19  1  0
 19 20  2  0
 20 21  1  0
 21 22  2  0
 22 23  1  0
 23 24  1  0
 24 25  1  0
 25 26  1  0
 26 27  1  0
 26 28  1  0
 24 29  1  0
 29 30  2  3
  7 31  2  0
 31  3  1  0
 29 11  1  0
 23 13  2  0
 21 16  1  0
  1 32  1  0
  1 33  1  0
  1 34  1  0
  4 35  1  0
  5 36  1  0
  6 37  1  0
  8 38  1  0
 12 39  1  0
 17 40  1  0
 18 41  1  0
 19 42  1  0
 20 43  1  0
 25 44  1  0
 25 45  1  0
 26 46  1  0
 27 47  1  0
 27 48  1  0
 27 49  1  0
 28 50  1  0
 28 51  1  0
 28 52  1  0
 30 53  1  0
 31 54  1  0
M  END
$$$$
