
     RDKit          3D

 47 49  0  0  0  0  0  0  0  0999 V2000
    6.8265    2.7516   -3.4406 C   0  0  0  0  0  0  0  0  0  0  0  0
    5.5400    2.5944   -2.8566 O   0  0  0  0  0  0  0  0  0  0  0  0
    5.2046    1.3410   -2.4205 C   0  0  0  0  0  0  0  0  0  0  0  0
    5.9766    0.1904   -2.5739 C   0  0  0  0  0  0  0  0  0  0  0  0
    5.4997   -1.0346   -2.1062 C   0  0  0  0  0  0  0  0  0  0  0  0
    4.2562   -1.1093   -1.4763 C   0  0  0  0  0  0  0  0  0  0  0  0
    3.4840    0.0421   -1.2881 C   0  0  0  0  0  0  0  0  0  0  0  0
    2.2231   -0.1201   -0.6740 N   0  0  0  0  0  0  0  0  0  0  0  0
    1.4155    0.7835    0.0062 C   0  0  0  0  0  0  0  0  0  0  0  0
    1.9626    2.1856    0.7571 S   0  0  0  0  0  0  0  0  0  0  0  0
    0.0771    0.3280    0.0779 N   0  0  0  0  0  0  0  0  0  0  0  0
   -0.5362   -0.3874   -1.0498 C   0  0  0  0  0  0  0  0  0  0  0  0
   -1.4570   -1.4987   -0.5548 C   0  0  0  0  0  0  0  0  0  0  0  0
   -2.4435   -0.9881    0.4635 C   0  0  0  0  0  0  0  0  0  0  0  0
   -3.6236   -1.7046    0.7158 C   0  0  0  0  0  0  0  0  0  0  0  0
   -4.5405   -1.2596    1.6746 C   0  0  0  0  0  0  0  0  0  0  0  0
   -5.7191   -1.8967    1.9763 O   0  0  0  0  0  0  0  0  0  0  0  0
   -6.0287   -3.0861    1.2656 C   0  0  0  0  0  0  0  0  0  0  0  0
   -4.2702   -0.0838    2.4003 C   0  0  0  0  0  0  0  0  0  0  0  0
   -5.2198    0.2891    3.3197 O   0  0  0  0  0  0  0  0  0  0  0  0
   -4.9731    1.4572    4.0884 C   0  0  0  0  0  0  0  0  0  0  0  0
   -3.0861    0.6214    2.1558 C   0  0  0  0  0  0  0  0  0  0  0  0
   -2.1608    0.1735    1.1976 C   0  0  0  0  0  0  0  0  0  0  0  0
   -0.8984    0.9784    0.9663 C   0  0  0  0  0  0  0  0  0  0  0  0
    3.9587    1.2577   -1.7847 C   0  0  0  0  0  0  0  0  0  0  0  0
    6.9508    3.8082   -3.6964 H   0  0  0  0  0  0  0  0  0  0  0  0
    7.6184    2.4850   -2.7328 H   0  0  0  0  0  0  0  0  0  0  0  0
    6.9116    2.1730   -4.3663 H   0  0  0  0  0  0  0  0  0  0  0  0
    6.9454    0.2107   -3.0610 H   0  0  0  0  0  0  0  0  0  0  0  0
    6.0981   -1.9332   -2.2332 H   0  0  0  0  0  0  0  0  0  0  0  0
    3.9102   -2.0761   -1.1206 H   0  0  0  0  0  0  0  0  0  0  0  0
    1.9442   -1.0790   -0.5123 H   0  0  0  0  0  0  0  0  0  0  0  0
    0.2078   -0.8045   -1.7337 H   0  0  0  0  0  0  0  0  0  0  0  0
   -1.1010    0.3554   -1.6289 H   0  0  0  0  0  0  0  0  0  0  0  0
   -0.8615   -2.2921   -0.0866 H   0  0  0  0  0  0  0  0  0  0  0  0
   -1.9864   -1.9310   -1.4117 H   0  0  0  0  0  0  0  0  0  0  0  0
   -3.8048   -2.6108    0.1471 H   0  0  0  0  0  0  0  0  0  0  0  0
   -5.2845   -3.8661    1.4571 H   0  0  0  0  0  0  0  0  0  0  0  0
   -6.1317   -2.8905    0.1932 H   0  0  0  0  0  0  0  0  0  0  0  0
   -6.9935   -3.4520    1.6299 H   0  0  0  0  0  0  0  0  0  0  0  0
   -4.9126    2.3447    3.4500 H   0  0  0  0  0  0  0  0  0  0  0  0
   -5.8195    1.5951    4.7682 H   0  0  0  0  0  0  0  0  0  0  0  0
   -4.0715    1.3456    4.6997 H   0  0  0  0  0  0  0  0  0  0  0  0
   -2.8540    1.5298    2.7034 H   0  0  0  0  0  0  0  0  0  0  0  0
   -1.1712    1.9394    0.5130 H   0  0  0  0  0  0  0  0  0  0  0  0
   -0.4240    1.1612    1.9369 H   0  0  0  0  0  0  0  0  0  0  0  0
    3.3626    2.1624   -1.7220 H   0  0  0  0  0  0  0  0  0  0  0  0
  1  2  1  0
  2  3  1  0
  3  4  2  0
  4  5  1  0
  5  6  2  0
  6  7  1  0
  7  8  1  0
  8  9  1  0
  9 10  2  0
  9 11  1  0
 11 12  1  0
 12 13  1  0
 13 14  1  0
 14 15  2  0
 15 16  1  0
 16 17  1  0
 17 18  1  0
 16 19  2  0
 19 20  1  0
 20 21  1  0
 19 22  1  0
 22 23  2  0
 23 24  1  0
  7 25  2  0
 25  3  1  0
 24 11  1  0
 23 14  1  0
  1 26  1  0
  1 27  1  0
  1 28  1  0
  4 29  1  0
  5 30  1  0
  6 31  1  0
  8 32  1  0
 12 33  1  0
 12 34  1  0
 13 35  1  0
 13 36  1  0
 15 37  1  0
 18 38  1  0
 18 39  1  0
 18 40  1  0
 21 41  1  0
 21 42  1  0
 21 43  1  0
 22 44  1  0
 24 45  1  0
 24 46  1  0
 25 47  1  0
M  END
$$$$
