
     RDKit          3D

 71 76  0  0  0  0  0  0  0  0999 V2000
   10.3380    2.4101    1.6002 C   0  0  0  0  0  0  0  0  0  0  0  0
   10.1177    1.2676    0.7813 O   0  0  0  0  0  0  0  0  0  0  0  0
    8.8428    1.0777    0.3255 C   0  0  0  0  0  0  0  0  0  0  0  0
    7.7816    1.9653    0.4650 C   0  0  0  0  0  0  0  0  0  0  0  0
    6.5197    1.6381   -0.0500 C   0  0  0  0  0  0  0  0  0  0  0  0
    6.2768    0.4201   -0.7088 C   0  0  0  0  0  0  0  0  0  0  0  0
    4.9840    0.1439   -1.1876 N   0  0  0  0  0  0  0  0  0  0  0  0
    4.8296   -0.9579   -2.1631 C   0  0  0  0  0  0  0  0  0  0  0  0
    3.4075   -0.9745   -2.7521 C   0  0  0  0  0  0  0  0  0  0  0  0
    2.3580   -0.9653   -1.7237 N   0  0  0  0  0  0  0  0  0  0  0  0
    1.1027   -1.4491   -2.0953 C   0  0  0  0  0  0  0  0  0  0  0  0
    0.9176   -1.9846   -3.1894 O   0  0  0  0  0  0  0  0  0  0  0  0
   -0.0195   -1.3703   -1.0643 C   0  0  0  0  0  0  0  0  0  0  0  0
    0.2144   -2.3933    0.0623 C   0  0  0  0  0  0  0  0  0  0  0  0
   -1.0795   -3.0086    0.5919 C   0  0  0  0  0  0  0  0  0  0  0  0
   -2.2326   -2.0067    0.6143 C   0  0  0  0  0  0  0  0  0  0  0  0
   -2.4245   -1.4173   -0.7074 N   0  0  0  0  0  0  0  0  0  0  0  0
   -3.6688   -0.9156   -1.0606 C   0  0  0  0  0  0  0  0  0  0  0  0
   -3.9691   -0.7499   -2.3830 N   0  0  0  0  0  0  0  0  0  0  0  0
   -5.1773   -0.2674   -2.7388 C   0  0  0  0  0  0  0  0  0  0  0  0
   -6.1922    0.1102   -1.9431 N   0  0  0  0  0  0  0  0  0  0  0  0
   -5.8626   -0.0404   -0.6504 C   0  0  0  0  0  0  0  0  0  0  0  0
   -4.6714   -0.5270   -0.1338 C   0  0  0  0  0  0  0  0  0  0  0  0
   -4.7139   -0.5128    1.2520 N   0  0  0  0  0  0  0  0  0  0  0  0
   -5.8976   -0.0280    1.5705 C   0  0  0  0  0  0  0  0  0  0  0  0
   -6.6290    0.2626    0.4421 N   0  0  0  0  0  0  0  0  0  0  0  0
   -7.9688    0.8056    0.4163 C   0  0  0  0  0  0  0  0  0  0  0  0
   -8.0749    2.1723    1.0877 C   0  0  0  0  0  0  0  0  0  0  0  0
   -8.0577    2.1158    2.6173 C   0  0  0  0  0  0  0  0  0  0  0  0
   -6.7327    1.6569    3.2317 C   0  0  0  0  0  0  0  0  0  0  0  0
   -6.4011    0.1911    2.9555 C   0  0  0  0  0  0  0  0  0  0  0  0
   -1.3885   -1.5788   -1.7279 C   0  0  0  0  0  0  0  0  0  0  0  0
    2.5508    0.0554   -0.6829 C   0  0  0  0  0  0  0  0  0  0  0  0
    3.9764    0.0732   -0.1034 C   0  0  0  0  0  0  0  0  0  0  0  0
    7.3664   -0.4450   -0.8611 C   0  0  0  0  0  0  0  0  0  0  0  0
    8.6307   -0.1221   -0.3492 C   0  0  0  0  0  0  0  0  0  0  0  0
    9.7164    2.3765    2.5024 H   0  0  0  0  0  0  0  0  0  0  0  0
   11.3860    2.3984    1.9167 H   0  0  0  0  0  0  0  0  0  0  0  0
   10.1752    3.3373    1.0406 H   0  0  0  0  0  0  0  0  0  0  0  0
    7.8953    2.9241    0.9579 H   0  0  0  0  0  0  0  0  0  0  0  0
    5.7207    2.3690    0.0393 H   0  0  0  0  0  0  0  0  0  0  0  0
    5.5390   -0.8366   -2.9910 H   0  0  0  0  0  0  0  0  0  0  0  0
    5.0217   -1.9227   -1.6753 H   0  0  0  0  0  0  0  0  0  0  0  0
    3.2978   -1.8552   -3.3947 H   0  0  0  0  0  0  0  0  0  0  0  0
    3.2480   -0.0870   -3.3779 H   0  0  0  0  0  0  0  0  0  0  0  0
   -0.0417   -0.3578   -0.6439 H   0  0  0  0  0  0  0  0  0  0  0  0
    0.7446   -1.9073    0.8905 H   0  0  0  0  0  0  0  0  0  0  0  0
    0.8710   -3.2066   -0.2726 H   0  0  0  0  0  0  0  0  0  0  0  0
   -1.3542   -3.8547   -0.0498 H   0  0  0  0  0  0  0  0  0  0  0  0
   -0.9156   -3.4221    1.5915 H   0  0  0  0  0  0  0  0  0  0  0  0
   -3.1278   -2.5478    0.9427 H   0  0  0  0  0  0  0  0  0  0  0  0
   -2.0204   -1.2147    1.3417 H   0  0  0  0  0  0  0  0  0  0  0  0
   -5.3494   -0.1725   -3.8071 H   0  0  0  0  0  0  0  0  0  0  0  0
   -8.6309    0.0711    0.8885 H   0  0  0  0  0  0  0  0  0  0  0  0
   -8.2774    0.9003   -0.6302 H   0  0  0  0  0  0  0  0  0  0  0  0
   -7.2776    2.8363    0.7333 H   0  0  0  0  0  0  0  0  0  0  0  0
   -9.0260    2.6275    0.7849 H   0  0  0  0  0  0  0  0  0  0  0  0
   -8.2726    3.1248    2.9916 H   0  0  0  0  0  0  0  0  0  0  0  0
   -8.8715    1.4734    2.9767 H   0  0  0  0  0  0  0  0  0  0  0  0
   -6.8062    1.7875    4.3188 H   0  0  0  0  0  0  0  0  0  0  0  0
   -5.9189    2.3098    2.8909 H   0  0  0  0  0  0  0  0  0  0  0  0
   -5.6169   -0.1238    3.6559 H   0  0  0  0  0  0  0  0  0  0  0  0
   -7.2683   -0.4513    3.1465 H   0  0  0  0  0  0  0  0  0  0  0  0
   -1.4693   -2.5706   -2.1915 H   0  0  0  0  0  0  0  0  0  0  0  0
   -1.4949   -0.8363   -2.5291 H   0  0  0  0  0  0  0  0  0  0  0  0
    2.3227    1.0236   -1.1468 H   0  0  0  0  0  0  0  0  0  0  0  0
    1.8506   -0.0819    0.1416 H   0  0  0  0  0  0  0  0  0  0  0  0
    4.0398    0.9308    0.5730 H   0  0  0  0  0  0  0  0  0  0  0  0
    4.1425   -0.8349    0.4899 H   0  0  0  0  0  0  0  0  0  0  0  0
    7.2616   -1.3993   -1.3686 H   0  0  0  0  0  0  0  0  0  0  0  0
    9.4536   -0.8197   -0.4738 H   0  0  0  0  0  0  0  0  0  0  0  0
  1  2  1  0
  2  3  1  0
  3  4  2  0
  4  5  1  0
  5  6  2  0
  6  7  1  0
  7  8  1  0
  8  9  1  0
  9 10  1  0
 10 11  1  0
 11 12  2  0
 11 13  1  0
 13 14  1  0
 14 15  1  0
 15 16  1  0
 16 17  1  0
 17 18  1  0
 18 19  2  0
 19 20  1  0
 20 21  2  0
 21 22  1  0
 22 23  2  0
 23 24  1  0
 24 25  2  0
 25 26  1  0
 26 27  1  0
 27 28  1  0
 28 29  1  0
 29 30  1  0
 30 31  1  0
 17 32  1  0
 10 33  1  0
 33 34  1  0
  6 35  1  0
 35 36  2  0
 36  3  1  0
 34  7  1  0
 32 13  1  0
 23 18  1  0
 31 25  1  0
 26 22  1  0
  1 37  1  0
  1 38  1  0
  1 39  1  0
  4 40  1  0
  5 41  1  0
  8 42  1  0
  8 43  1  0
  9 44  1  0
  9 45  1  0
 13 46  1  0
 14 47  1  0
 14 48  1  0
 15 49  1  0
 15 50  1  0
 16 51  1  0
 16 52  1  0
 20 53  1  0
 27 54  1  0
 27 55  1  0
 28 56  1  0
 28 57  1  0
 29 58  1  0
 29 59  1  0
 30 60  1  0
 30 61  1  0
 31 62  1  0
 31 63  1  0
 32 64  1  0
 32 65  1  0
 33 66  1  0
 33 67  1  0
 34 68  1  0
 34 69  1  0
 35 70  1  0
 36 71  1  0
M  END
$$$$
