
     RDKit          3D

 47 49  0  0  0  0  0  0  0  0999 V2000
   -2.5817    5.5637   -0.4448 C   0  0  0  0  0  0  0  0  0  0  0  0
   -1.9462    4.6230    0.4220 O   0  0  0  0  0  0  0  0  0  0  0  0
   -1.5689    3.4663   -0.1932 C   0  0  0  0  0  0  0  0  0  0  0  0
   -1.6734    3.2464   -1.3936 O   0  0  0  0  0  0  0  0  0  0  0  0
   -0.9166    2.5265    0.8127 C   0  0  0  0  0  0  0  0  0  0  0  0
   -1.1934    1.1215    0.5193 N   0  0  0  0  0  0  0  0  0  0  0  0
   -0.5531    0.3510   -0.4480 C   0  0  0  0  0  0  0  0  0  0  0  0
    0.5465    0.8635   -1.3266 C   0  0  0  0  0  0  0  0  0  0  0  0
    1.7745   -0.0390   -1.2575 C   0  0  0  0  0  0  0  0  0  0  0  0
    1.6986   -1.2052   -1.6423 O   0  0  0  0  0  0  0  0  0  0  0  0
    2.8940    0.5843   -0.7362 N   0  0  0  0  0  0  0  0  0  0  0  0
    4.1615    0.0115   -0.4997 C   0  0  0  0  0  0  0  0  0  0  0  0
    5.1558    0.8559    0.0144 C   0  0  0  0  0  0  0  0  0  0  0  0
    6.4387    0.3683    0.2830 C   0  0  0  0  0  0  0  0  0  0  0  0
    6.7339   -0.9696    0.0397 C   0  0  0  0  0  0  0  0  0  0  0  0
    8.3100   -1.5723    0.3692 Cl  0  0  0  0  0  0  0  0  0  0  0  0
    5.7564   -1.8199   -0.4679 C   0  0  0  0  0  0  0  0  0  0  0  0
    4.4731   -1.3298   -0.7378 C   0  0  0  0  0  0  0  0  0  0  0  0
   -1.1432   -0.8605   -0.4764 C   0  0  0  0  0  0  0  0  0  0  0  0
   -0.8032   -1.9392   -1.2382 O   0  0  0  0  0  0  0  0  0  0  0  0
   -2.1791   -0.9338    0.4462 N   0  0  0  0  0  0  0  0  0  0  0  0
   -3.0242   -2.0593    0.6824 C   0  0  0  0  0  0  0  0  0  0  0  0
   -3.3956   -2.9088   -0.3727 C   0  0  0  0  0  0  0  0  0  0  0  0
   -4.2175   -4.0214   -0.1578 C   0  0  0  0  0  0  0  0  0  0  0  0
   -4.6714   -4.3064    1.1244 C   0  0  0  0  0  0  0  0  0  0  0  0
   -5.6790   -5.6737    1.3953 Cl  0  0  0  0  0  0  0  0  0  0  0  0
   -4.3055   -3.4913    2.1898 C   0  0  0  0  0  0  0  0  0  0  0  0
   -3.4844   -2.3782    1.9680 C   0  0  0  0  0  0  0  0  0  0  0  0
   -2.2757    0.3600    1.0807 C   0  0  0  0  0  0  0  0  0  0  0  0
   -3.4140    0.9526    2.1506 S   0  0  0  0  0  0  0  0  0  0  0  0
   -2.8700    6.4331    0.1521 H   0  0  0  0  0  0  0  0  0  0  0  0
   -3.4847    5.1307   -0.8860 H   0  0  0  0  0  0  0  0  0  0  0  0
   -1.8878    5.8928   -1.2242 H   0  0  0  0  0  0  0  0  0  0  0  0
   -1.2811    2.7656    1.8160 H   0  0  0  0  0  0  0  0  0  0  0  0
    0.1641    2.6994    0.8181 H   0  0  0  0  0  0  0  0  0  0  0  0
    0.2076    0.8799   -2.3699 H   0  0  0  0  0  0  0  0  0  0  0  0
    0.8267    1.8932   -1.0907 H   0  0  0  0  0  0  0  0  0  0  0  0
    2.8116    1.5663   -0.5033 H   0  0  0  0  0  0  0  0  0  0  0  0
    4.9518    1.9047    0.2139 H   0  0  0  0  0  0  0  0  0  0  0  0
    7.1988    1.0356    0.6807 H   0  0  0  0  0  0  0  0  0  0  0  0
    5.9802   -2.8664   -0.6598 H   0  0  0  0  0  0  0  0  0  0  0  0
    3.7431   -2.0291   -1.1326 H   0  0  0  0  0  0  0  0  0  0  0  0
    0.1153   -1.8231   -1.5638 H   0  0  0  0  0  0  0  0  0  0  0  0
   -3.0767   -2.6991   -1.3907 H   0  0  0  0  0  0  0  0  0  0  0  0
   -4.4962   -4.6528   -0.9969 H   0  0  0  0  0  0  0  0  0  0  0  0
   -4.6426   -3.7167    3.1981 H   0  0  0  0  0  0  0  0  0  0  0  0
   -3.1771   -1.8004    2.8344 H   0  0  0  0  0  0  0  0  0  0  0  0
  1  2  1  0
  2  3  1  0
  3  4  2  0
  3  5  1  0
  5  6  1  0
  6  7  1  0
  7  8  1  0
  8  9  1  0
  9 10  2  0
  9 11  1  0
 11 12  1  0
 12 13  2  0
 13 14  1  0
 14 15  2  0
 15 16  1  0
 15 17  1  0
 17 18  2  0
  7 19  2  0
 19 20  1  0
 19 21  1  0
 21 22  1  0
 22 23  2  0
 23 24  1  0
 24 25  2  0
 25 26  1  0
 25 27  1  0
 27 28  2  0
 21 29  1  0
 29 30  2  0
 29  6  1  0
 18 12  1  0
 28 22  1  0
  1 31  1  0
  1 32  1  0
  1 33  1  0
  5 34  1  0
  5 35  1  0
  8 36  1  0
  8 37  1  0
 11 38  1  0
 13 39  1  0
 14 40  1  0
 17 41  1  0
 18 42  1  0
 20 43  1  0
 23 44  1  0
 24 45  1  0
 27 46  1  0
 28 47  1  0
M  END
$$$$
