
     RDKit          3D

 37 39  0  0  0  0  0  0  0  0999 V2000
   -3.9159   -3.0379   -1.1261 C   0  0  0  0  0  0  0  0  0  0  0  0
   -4.0705   -1.8992   -1.9600 O   0  0  0  0  0  0  0  0  0  0  0  0
   -3.1720   -0.8766   -1.8109 C   0  0  0  0  0  0  0  0  0  0  0  0
   -2.0922   -0.8764   -0.9240 C   0  0  0  0  0  0  0  0  0  0  0  0
   -1.2220    0.2248   -0.8527 C   0  0  0  0  0  0  0  0  0  0  0  0
   -0.0932    0.2558    0.0877 C   0  0  0  0  0  0  0  0  0  0  0  0
    0.7486   -0.7748    0.2700 C   0  0  0  0  0  0  0  0  0  0  0  0
    1.8347   -0.6728    1.1880 C   0  0  0  0  0  0  0  0  0  0  0  0
    2.1460    0.3714    1.9310 N   0  0  0  0  0  0  0  0  0  0  0  0
    3.2639    0.1106    2.7045 C   0  0  0  0  0  0  0  0  0  0  0  0
    3.8676    1.0043    3.6123 C   0  0  0  0  0  0  0  0  0  0  0  0
    4.9993    0.6070    4.3319 C   0  0  0  0  0  0  0  0  0  0  0  0
    5.5335   -0.6656    4.1572 C   0  0  0  0  0  0  0  0  0  0  0  0
    4.9526   -1.5701    3.2627 C   0  0  0  0  0  0  0  0  0  0  0  0
    3.8161   -1.1593    2.5459 C   0  0  0  0  0  0  0  0  0  0  0  0
    2.8886   -2.0299    1.3903 S   0  0  0  0  0  0  0  0  0  0  0  0
   -1.4532    1.3488   -1.6604 C   0  0  0  0  0  0  0  0  0  0  0  0
   -2.5245    1.3647   -2.5521 C   0  0  0  0  0  0  0  0  0  0  0  0
   -2.8528    2.3919   -3.4016 O   0  0  0  0  0  0  0  0  0  0  0  0
   -2.0192    3.5447   -3.3641 C   0  0  0  0  0  0  0  0  0  0  0  0
   -3.3707    0.2485   -2.6191 C   0  0  0  0  0  0  0  0  0  0  0  0
   -4.4244    0.2728   -3.5025 O   0  0  0  0  0  0  0  0  0  0  0  0
   -4.0165   -2.7706   -0.0690 H   0  0  0  0  0  0  0  0  0  0  0  0
   -4.7179   -3.7418   -1.3685 H   0  0  0  0  0  0  0  0  0  0  0  0
   -2.9627   -3.5413   -1.3183 H   0  0  0  0  0  0  0  0  0  0  0  0
   -1.9159   -1.7221   -0.2677 H   0  0  0  0  0  0  0  0  0  0  0  0
    0.0495    1.1905    0.6287 H   0  0  0  0  0  0  0  0  0  0  0  0
    0.6251   -1.6976   -0.2888 H   0  0  0  0  0  0  0  0  0  0  0  0
    3.4468    1.9960    3.7452 H   0  0  0  0  0  0  0  0  0  0  0  0
    5.4618    1.2995    5.0314 H   0  0  0  0  0  0  0  0  0  0  0  0
    6.4143   -0.9627    4.7230 H   0  0  0  0  0  0  0  0  0  0  0  0
    5.3703   -2.5631    3.1273 H   0  0  0  0  0  0  0  0  0  0  0  0
   -0.7765    2.1937   -1.5802 H   0  0  0  0  0  0  0  0  0  0  0  0
   -0.9932    3.2993   -3.6577 H   0  0  0  0  0  0  0  0  0  0  0  0
   -2.0473    4.0201   -2.3781 H   0  0  0  0  0  0  0  0  0  0  0  0
   -2.4105    4.2630   -4.0911 H   0  0  0  0  0  0  0  0  0  0  0  0
   -4.3675    1.1406   -3.9441 H   0  0  0  0  0  0  0  0  0  0  0  0
  1  2  1  0
  2  3  1  0
  3  4  2  0
  4  5  1  0
  5  6  1  0
  6  7  2  3
  7  8  1  0
  8  9  2  0
  9 10  1  0
 10 11  2  0
 11 12  1  0
 12 13  2  0
 13 14  1  0
 14 15  2  0
 15 16  1  0
  5 17  2  0
 17 18  1  0
 18 19  1  0
 19 20  1  0
 18 21  2  0
 21 22  1  0
 21  3  1  0
 16  8  1  0
 15 10  1  0
  1 23  1  0
  1 24  1  0
  1 25  1  0
  4 26  1  0
  6 27  1  0
  7 28  1  0
 11 29  1  0
 12 30  1  0
 13 31  1  0
 14 32  1  0
 17 33  1  0
 20 34  1  0
 20 35  1  0
 20 36  1  0
 22 37  1  0
M  END
$$$$
