
     RDKit          3D

 51 52  0  0  0  0  0  0  0  0999 V2000
    6.0649   -1.4572    1.2981 C   0  0  0  0  0  0  0  0  0  0  0  0
    5.1826   -2.3949    0.5915 N   0  0  0  0  0  0  0  0  0  0  0  0
    5.4181   -2.4523   -0.8599 C   0  0  0  0  0  0  0  0  0  0  0  0
    3.5805   -2.5186    1.1010 S   0  0  0  0  0  6  0  0  0  0  0  0
    2.9587   -3.5914    0.3634 O   0  0  0  0  0  0  0  0  0  0  0  0
    3.5493   -2.4515    2.5420 O   0  0  0  0  0  0  0  0  0  0  0  0
    3.0077   -1.0203    0.5375 N   0  0  0  0  0  0  0  0  0  0  0  0
    1.5805   -0.8534    0.5502 C   0  0  0  0  0  0  0  0  0  0  0  0
    0.7493   -1.6328   -0.2459 C   0  0  0  0  0  0  0  0  0  0  0  0
   -0.6392   -1.4388   -0.2306 C   0  0  0  0  0  0  0  0  0  0  0  0
   -1.2335   -0.4667    0.5812 C   0  0  0  0  0  0  0  0  0  0  0  0
   -2.6540   -0.2058    0.5464 N   0  0  0  0  0  0  0  0  0  0  0  0
   -3.7726   -1.4042    0.1807 S   0  0  0  0  0  6  0  0  0  0  0  0
   -3.3507   -2.6427    0.7869 O   0  0  0  0  0  0  0  0  0  0  0  0
   -5.0818   -0.8474    0.4339 O   0  0  0  0  0  0  0  0  0  0  0  0
   -3.5898   -1.5300   -1.5022 N   0  0  0  0  0  0  0  0  0  0  0  0
   -4.2217   -2.7452   -2.0611 C   0  0  0  0  0  0  0  0  0  0  0  0
   -3.9722   -0.3175   -2.2601 C   0  0  0  0  0  0  0  0  0  0  0  0
   -0.3690    0.3790    1.2943 C   0  0  0  0  0  0  0  0  0  0  0  0
   -0.9897    1.7531    2.2363 S   0  0  0  0  0  6  0  0  0  0  0  0
    0.0134    2.0938    3.2300 O   0  0  0  0  0  0  0  0  0  0  0  0
   -2.3420    1.4182    2.6521 O   0  0  0  0  0  0  0  0  0  0  0  0
   -1.0921    3.1194    1.1011 C   0  0  0  0  0  0  0  0  0  0  0  0
    0.0025    3.9779    0.9596 C   0  0  0  0  0  0  0  0  0  0  0  0
   -0.0796    5.0554    0.0782 C   0  0  0  0  0  0  0  0  0  0  0  0
   -1.2508    5.2764   -0.6466 C   0  0  0  0  0  0  0  0  0  0  0  0
   -2.3459    4.4260   -0.4890 C   0  0  0  0  0  0  0  0  0  0  0  0
   -2.2728    3.3462    0.3905 C   0  0  0  0  0  0  0  0  0  0  0  0
    1.0231    0.1734    1.3042 C   0  0  0  0  0  0  0  0  0  0  0  0
    7.1092   -1.7322    1.1231 H   0  0  0  0  0  0  0  0  0  0  0  0
    5.9079   -1.4968    2.3810 H   0  0  0  0  0  0  0  0  0  0  0  0
    5.9083   -0.4327    0.9468 H   0  0  0  0  0  0  0  0  0  0  0  0
    4.8760   -3.2826   -1.3185 H   0  0  0  0  0  0  0  0  0  0  0  0
    6.4815   -2.6214   -1.0569 H   0  0  0  0  0  0  0  0  0  0  0  0
    5.1224   -1.5156   -1.3402 H   0  0  0  0  0  0  0  0  0  0  0  0
    3.4672   -0.3225    1.1211 H   0  0  0  0  0  0  0  0  0  0  0  0
    1.1597   -2.4056   -0.8914 H   0  0  0  0  0  0  0  0  0  0  0  0
   -1.2307   -2.0884   -0.8693 H   0  0  0  0  0  0  0  0  0  0  0  0
   -2.9927    0.2353    1.4176 H   0  0  0  0  0  0  0  0  0  0  0  0
   -4.0832   -2.7771   -3.1439 H   0  0  0  0  0  0  0  0  0  0  0  0
   -5.2961   -2.7641   -1.8491 H   0  0  0  0  0  0  0  0  0  0  0  0
   -3.7505   -3.6430   -1.6527 H   0  0  0  0  0  0  0  0  0  0  0  0
   -5.0515   -0.1477   -2.2175 H   0  0  0  0  0  0  0  0  0  0  0  0
   -3.4468    0.5663   -1.8840 H   0  0  0  0  0  0  0  0  0  0  0  0
   -3.6830   -0.4355   -3.3107 H   0  0  0  0  0  0  0  0  0  0  0  0
    0.9128    3.8256    1.5352 H   0  0  0  0  0  0  0  0  0  0  0  0
    0.7639    5.7321   -0.0361 H   0  0  0  0  0  0  0  0  0  0  0  0
   -1.3142    6.1231   -1.3250 H   0  0  0  0  0  0  0  0  0  0  0  0
   -3.2602    4.6144   -1.0418 H   0  0  0  0  0  0  0  0  0  0  0  0
   -3.1374    2.7007    0.5169 H   0  0  0  0  0  0  0  0  0  0  0  0
    1.6642    0.8197    1.8992 H   0  0  0  0  0  0  0  0  0  0  0  0
  1  2  1  0
  2  3  1  0
  2  4  1  0
  4  5  2  0
  4  6  2  0
  4  7  1  0
  7  8  1  0
  8  9  2  0
  9 10  1  0
 10 11  2  0
 11 12  1  0
 12 13  1  0
 13 14  2  0
 13 15  2  0
 13 16  1  0
 16 17  1  0
 16 18  1  0
 11 19  1  0
 19 20  1  0
 20 21  2  0
 20 22  2  0
 20 23  1  0
 23 24  2  0
 24 25  1  0
 25 26  2  0
 26 27  1  0
 27 28  2  0
 19 29  2  0
 29  8  1  0
 28 23  1  0
  1 30  1  0
  1 31  1  0
  1 32  1  0
  3 33  1  0
  3 34  1  0
  3 35  1  0
  7 36  1  0
  9 37  1  0
 10 38  1  0
 12 39  1  0
 17 40  1  0
 17 41  1  0
 17 42  1  0
 18 43  1  0
 18 44  1  0
 18 45  1  0
 24 46  1  0
 25 47  1  0
 26 48  1  0
 27 49  1  0
 28 50  1  0
 29 51  1  0
M  END
$$$$
