
     RDKit          3D

 36 37  0  0  0  0  0  0  0  0999 V2000
    5.0750    1.1832    2.9192 C   0  0  0  0  0  0  0  0  0  0  0  0
    5.0984    0.4455    1.7036 O   0  0  0  0  0  0  0  0  0  0  0  0
    3.8991   -0.0178    1.2369 C   0  0  0  0  0  0  0  0  0  0  0  0
    3.9816   -0.7473    0.0457 C   0  0  0  0  0  0  0  0  0  0  0  0
    2.8351   -1.2804   -0.5468 C   0  0  0  0  0  0  0  0  0  0  0  0
    1.5939   -1.0692    0.0562 C   0  0  0  0  0  0  0  0  0  0  0  0
    0.1295   -1.7739   -0.6662 S   0  0  0  0  0  6  0  0  0  0  0  0
   -0.8278   -1.9958    0.3982 O   0  0  0  0  0  0  0  0  0  0  0  0
    0.5433   -2.8423   -1.5523 O   0  0  0  0  0  0  0  0  0  0  0  0
   -0.4317   -0.4974   -1.6668 N   0  0  0  0  0  0  0  0  0  0  0  0
   -0.6237    0.8454   -1.0542 N   0  0  0  0  0  0  0  0  0  0  0  0
   -1.8308    1.1178   -0.6514 C   0  0  0  0  0  0  0  0  0  0  0  0
   -2.0525    2.4216    0.0764 C   0  0  0  0  0  0  0  0  0  0  0  0
   -3.0203    0.2625   -0.8529 C   0  0  0  0  0  0  0  0  0  0  0  0
   -3.4735    0.0108   -2.1448 C   0  0  0  0  0  0  0  0  0  0  0  0
   -4.6076   -0.7664   -2.2809 C   0  0  0  0  0  0  0  0  0  0  0  0
   -5.2917   -1.2834   -1.2367 N   0  0  0  0  0  0  0  0  0  0  0  0
   -4.8124   -1.0292    0.0016 C   0  0  0  0  0  0  0  0  0  0  0  0
   -3.6922   -0.2582    0.2483 C   0  0  0  0  0  0  0  0  0  0  0  0
    1.5000   -0.3566    1.2548 C   0  0  0  0  0  0  0  0  0  0  0  0
    2.6541    0.1739    1.8406 C   0  0  0  0  0  0  0  0  0  0  0  0
    4.4849    2.0994    2.8134 H   0  0  0  0  0  0  0  0  0  0  0  0
    6.1035    1.4749    3.1528 H   0  0  0  0  0  0  0  0  0  0  0  0
    4.7071    0.5683    3.7471 H   0  0  0  0  0  0  0  0  0  0  0  0
    4.9519   -0.9054   -0.4202 H   0  0  0  0  0  0  0  0  0  0  0  0
    2.9236   -1.8563   -1.4647 H   0  0  0  0  0  0  0  0  0  0  0  0
    0.0841   -0.5126   -2.5509 H   0  0  0  0  0  0  0  0  0  0  0  0
   -1.6134    3.2391   -0.5032 H   0  0  0  0  0  0  0  0  0  0  0  0
   -1.5614    2.3744    1.0527 H   0  0  0  0  0  0  0  0  0  0  0  0
   -3.1162    2.6295    0.2201 H   0  0  0  0  0  0  0  0  0  0  0  0
   -2.9617    0.4051   -3.0143 H   0  0  0  0  0  0  0  0  0  0  0  0
   -5.0126   -1.0026   -3.2609 H   0  0  0  0  0  0  0  0  0  0  0  0
   -5.3728   -1.4805    0.8157 H   0  0  0  0  0  0  0  0  0  0  0  0
   -3.3441   -0.0978    1.2615 H   0  0  0  0  0  0  0  0  0  0  0  0
    0.5346   -0.2063    1.7326 H   0  0  0  0  0  0  0  0  0  0  0  0
    2.5466    0.7281    2.7671 H   0  0  0  0  0  0  0  0  0  0  0  0
  1  2  1  0
  2  3  1  0
  3  4  2  0
  4  5  1  0
  5  6  2  0
  6  7  1  0
  7  8  2  0
  7  9  2  0
  7 10  1  0
 10 11  1  0
 11 12  2  3
 12 13  1  0
 12 14  1  0
 14 15  2  0
 15 16  1  0
 16 17  2  0
 17 18  1  0
 18 19  2  0
  6 20  1  0
 20 21  2  0
 21  3  1  0
 19 14  1  0
  1 22  1  0
  1 23  1  0
  1 24  1  0
  4 25  1  0
  5 26  1  0
 10 27  1  0
 13 28  1  0
 13 29  1  0
 13 30  1  0
 15 31  1  0
 16 32  1  0
 18 33  1  0
 19 34  1  0
 20 35  1  0
 21 36  1  0
M  END
$$$$
