
     RDKit          3D

 57 60  0  0  0  0  0  0  0  0999 V2000
    6.3690    2.8631   -0.0266 C   0  0  0  0  0  0  0  0  0  0  0  0
    5.1416    2.2140    0.2748 O   0  0  0  0  0  0  0  0  0  0  0  0
    5.0956    0.8516    0.1256 C   0  0  0  0  0  0  0  0  0  0  0  0
    6.2112    0.0410   -0.1058 C   0  0  0  0  0  0  0  0  0  0  0  0
    6.0638   -1.3400   -0.2529 C   0  0  0  0  0  0  0  0  0  0  0  0
    4.7991   -1.9220   -0.1809 C   0  0  0  0  0  0  0  0  0  0  0  0
    3.6658   -1.1286    0.0422 C   0  0  0  0  0  0  0  0  0  0  0  0
    2.3471   -1.8226    0.0863 C   0  0  0  0  0  0  0  0  0  0  0  0
    2.2845   -3.0051    0.4055 O   0  0  0  0  0  0  0  0  0  0  0  0
    1.2441   -1.0788   -0.2580 N   0  0  0  0  0  0  0  0  0  0  0  0
   -0.0993   -1.5868   -0.0865 C   0  0  0  0  0  0  0  0  0  0  0  0
   -0.5399   -1.4611    1.3921 C   0  0  0  0  0  0  0  0  0  0  0  0
   -2.0819   -1.5237    1.5997 C   0  0  0  0  0  0  0  0  0  0  0  0
   -2.3876   -1.3300    3.0975 C   0  0  0  0  0  0  0  0  0  0  0  0
   -2.6318   -2.9007    1.1756 C   0  0  0  0  0  0  0  0  0  0  0  0
   -2.7841   -0.3840    0.7950 C   0  0  0  0  0  0  0  0  0  0  0  0
   -2.2158   -0.2597   -0.5799 C   0  0  0  0  0  0  0  0  0  0  0  0
   -1.0109   -0.8136   -0.9760 C   0  0  0  0  0  0  0  0  0  0  0  0
   -0.9395   -0.5612   -2.3498 C   0  0  0  0  0  0  0  0  0  0  0  0
   -1.9961    0.1137   -2.7956 N   0  0  0  0  0  0  0  0  0  0  0  0
   -2.7648    0.3599   -1.6953 N   0  0  0  0  0  0  0  0  0  0  0  0
   -3.9390    1.1606   -1.8438 C   0  0  0  0  0  0  0  0  0  0  0  0
   -4.6394    1.6909   -0.7518 C   0  0  0  0  0  0  0  0  0  0  0  0
   -5.7880    2.4690   -0.9518 C   0  0  0  0  0  0  0  0  0  0  0  0
   -6.2416    2.7303   -2.2416 C   0  0  0  0  0  0  0  0  0  0  0  0
   -5.5392    2.2210   -3.3250 C   0  0  0  0  0  0  0  0  0  0  0  0
   -5.9717    2.4756   -4.5670 F   0  0  0  0  0  0  0  0  0  0  0  0
   -4.3964    1.4494   -3.1415 C   0  0  0  0  0  0  0  0  0  0  0  0
    3.8238    0.2554    0.2296 C   0  0  0  0  0  0  0  0  0  0  0  0
    2.7196    1.0451    0.4685 O   0  0  0  0  0  0  0  0  0  0  0  0
    2.6179    1.3367    1.8658 C   0  0  0  0  0  0  0  0  0  0  0  0
    6.6979    2.6420   -1.0477 H   0  0  0  0  0  0  0  0  0  0  0  0
    6.2007    3.9421    0.0415 H   0  0  0  0  0  0  0  0  0  0  0  0
    7.1405    2.6006    0.7045 H   0  0  0  0  0  0  0  0  0  0  0  0
    7.2129    0.4530   -0.1737 H   0  0  0  0  0  0  0  0  0  0  0  0
    6.9366   -1.9646   -0.4298 H   0  0  0  0  0  0  0  0  0  0  0  0
    4.6957   -2.9986   -0.3081 H   0  0  0  0  0  0  0  0  0  0  0  0
    1.3682   -0.0767   -0.3735 H   0  0  0  0  0  0  0  0  0  0  0  0
   -0.1180   -2.6431   -0.3822 H   0  0  0  0  0  0  0  0  0  0  0  0
   -0.0417   -2.2390    1.9862 H   0  0  0  0  0  0  0  0  0  0  0  0
   -0.1773   -0.5028    1.7943 H   0  0  0  0  0  0  0  0  0  0  0  0
   -1.9302   -2.1227    3.7000 H   0  0  0  0  0  0  0  0  0  0  0  0
   -3.4666   -1.3459    3.2867 H   0  0  0  0  0  0  0  0  0  0  0  0
   -2.0003   -0.3717    3.4619 H   0  0  0  0  0  0  0  0  0  0  0  0
   -2.1317   -3.7072    1.7240 H   0  0  0  0  0  0  0  0  0  0  0  0
   -3.7053   -2.9749    1.3849 H   0  0  0  0  0  0  0  0  0  0  0  0
   -2.4960   -3.0950    0.1069 H   0  0  0  0  0  0  0  0  0  0  0  0
   -2.6225    0.5685    1.3142 H   0  0  0  0  0  0  0  0  0  0  0  0
   -3.8609   -0.5807    0.7600 H   0  0  0  0  0  0  0  0  0  0  0  0
   -0.1682   -0.8562   -3.0508 H   0  0  0  0  0  0  0  0  0  0  0  0
   -4.3109    1.5596    0.2710 H   0  0  0  0  0  0  0  0  0  0  0  0
   -6.3217    2.8790   -0.0973 H   0  0  0  0  0  0  0  0  0  0  0  0
   -7.1292    3.3313   -2.4103 H   0  0  0  0  0  0  0  0  0  0  0  0
   -3.8849    1.0722   -4.0239 H   0  0  0  0  0  0  0  0  0  0  0  0
    1.6465    1.8122    2.0348 H   0  0  0  0  0  0  0  0  0  0  0  0
    3.3957    2.0364    2.1857 H   0  0  0  0  0  0  0  0  0  0  0  0
    2.6548    0.4228    2.4704 H   0  0  0  0  0  0  0  0  0  0  0  0
  1  2  1  0
  2  3  1  0
  3  4  2  0
  4  5  1  0
  5  6  2  0
  6  7  1  0
  7  8  1  0
  8  9  2  0
  8 10  1  0
 10 11  1  0
 11 12  1  0
 12 13  1  0
 13 14  1  0
 13 15  1  0
 13 16  1  0
 16 17  1  0
 17 18  2  0
 18 19  1  0
 19 20  2  0
 20 21  1  0
 21 22  1  0
 22 23  2  0
 23 24  1  0
 24 25  2  0
 25 26  1  0
 26 27  1  0
 26 28  2  0
  7 29  2  0
 29 30  1  0
 30 31  1  0
 29  3  1  0
 18 11  1  0
 28 22  1  0
 21 17  1  0
  1 32  1  0
  1 33  1  0
  1 34  1  0
  4 35  1  0
  5 36  1  0
  6 37  1  0
 10 38  1  0
 11 39  1  0
 12 40  1  0
 12 41  1  0
 14 42  1  0
 14 43  1  0
 14 44  1  0
 15 45  1  0
 15 46  1  0
 15 47  1  0
 16 48  1  0
 16 49  1  0
 19 50  1  0
 23 51  1  0
 24 52  1  0
 25 53  1  0
 28 54  1  0
 31 55  1  0
 31 56  1  0
 31 57  1  0
M  END
$$$$
