
     RDKit          3D

 63 67  0  0  0  0  0  0  0  0999 V2000
   -2.6197   -1.7360   -2.0892 O   0  0  0  0  0  0  0  0  0  0  0  0
   -2.5815   -1.5390   -0.8822 C   0  0  0  0  0  0  0  0  0  0  0  0
   -3.6271   -1.0207   -0.1569 N   0  0  0  0  0  0  0  0  0  0  0  0
   -4.9266   -0.7551   -0.7589 C   0  0  0  0  0  0  0  0  0  0  0  0
   -5.7452   -2.0563   -0.7687 C   0  0  0  0  0  0  0  0  0  0  0  0
   -7.2119   -1.7841   -1.0658 C   0  0  0  0  0  0  0  0  0  0  0  0
   -7.8131   -0.9201    0.0376 C   0  0  0  0  0  0  0  0  0  0  0  0
   -6.9863    0.3084    0.3259 C   0  0  0  0  0  0  0  0  0  0  0  0
   -7.5908    1.3855    0.9944 C   0  0  0  0  0  0  0  0  0  0  0  0
   -6.8724    2.5484    1.2660 C   0  0  0  0  0  0  0  0  0  0  0  0
   -5.5410    2.6485    0.8708 C   0  0  0  0  0  0  0  0  0  0  0  0
   -4.9247    1.5793    0.2222 C   0  0  0  0  0  0  0  0  0  0  0  0
   -5.6260    0.3854   -0.0350 C   0  0  0  0  0  0  0  0  0  0  0  0
   -1.3410   -1.8328   -0.1194 C   0  0  0  0  0  0  0  0  0  0  0  0
   -1.3825   -2.3136    1.1972 C   0  0  0  0  0  0  0  0  0  0  0  0
   -0.1952   -2.5910    1.8816 C   0  0  0  0  0  0  0  0  0  0  0  0
    1.0359   -2.3882    1.2582 C   0  0  0  0  0  0  0  0  0  0  0  0
    1.0705   -1.9092   -0.0545 C   0  0  0  0  0  0  0  0  0  0  0  0
    2.6261   -1.6455   -0.8692 S   0  0  0  0  0  6  0  0  0  0  0  0
    2.5337   -2.2597   -2.1752 O   0  0  0  0  0  0  0  0  0  0  0  0
    3.6842   -2.0044    0.0505 O   0  0  0  0  0  0  0  0  0  0  0  0
    2.6473    0.0428   -1.0687 N   0  0  0  0  0  0  0  0  0  0  0  0
    2.7503    0.8734    0.1757 C   0  0  0  0  0  0  0  0  0  0  0  0
    4.1965    1.0181    0.6966 C   0  0  0  0  0  0  0  0  0  0  0  0
    5.1063    1.4784   -0.3809 N   0  0  0  0  0  0  0  0  0  0  0  0
    6.3766    1.8430    0.1000 C   0  0  0  0  0  0  0  0  0  0  0  0
    7.5540    1.1527   -0.2144 C   0  0  0  0  0  0  0  0  0  0  0  0
    8.7935    1.5596    0.2916 C   0  0  0  0  0  0  0  0  0  0  0  0
    8.8823    2.6739    1.1196 C   0  0  0  0  0  0  0  0  0  0  0  0
    7.7327    3.3837    1.4378 C   0  0  0  0  0  0  0  0  0  0  0  0
    6.4965    2.9707    0.9308 C   0  0  0  0  0  0  0  0  0  0  0  0
    5.0501    0.6113   -1.5785 C   0  0  0  0  0  0  0  0  0  0  0  0
    3.6061    0.5414   -2.1101 C   0  0  0  0  0  0  0  0  0  0  0  0
   -0.1101   -1.6442   -0.7543 C   0  0  0  0  0  0  0  0  0  0  0  0
   -3.5311   -0.8395    0.8312 H   0  0  0  0  0  0  0  0  0  0  0  0
   -4.7741   -0.4353   -1.7985 H   0  0  0  0  0  0  0  0  0  0  0  0
   -5.3356   -2.7491   -1.5115 H   0  0  0  0  0  0  0  0  0  0  0  0
   -5.6637   -2.5636    0.2018 H   0  0  0  0  0  0  0  0  0  0  0  0
   -7.7647   -2.7273   -1.1366 H   0  0  0  0  0  0  0  0  0  0  0  0
   -7.3066   -1.2808   -2.0346 H   0  0  0  0  0  0  0  0  0  0  0  0
   -7.8940   -1.5051    0.9621 H   0  0  0  0  0  0  0  0  0  0  0  0
   -8.8257   -0.6263   -0.2598 H   0  0  0  0  0  0  0  0  0  0  0  0
   -8.6346    1.3225    1.2958 H   0  0  0  0  0  0  0  0  0  0  0  0
   -7.3529    3.3817    1.7719 H   0  0  0  0  0  0  0  0  0  0  0  0
   -4.9825    3.5613    1.0596 H   0  0  0  0  0  0  0  0  0  0  0  0
   -3.8879    1.6838   -0.0970 H   0  0  0  0  0  0  0  0  0  0  0  0
   -2.3306   -2.5094    1.6906 H   0  0  0  0  0  0  0  0  0  0  0  0
   -0.2312   -2.9774    2.8977 H   0  0  0  0  0  0  0  0  0  0  0  0
    1.9560   -2.6158    1.7931 H   0  0  0  0  0  0  0  0  0  0  0  0
    2.3514    1.8663   -0.0661 H   0  0  0  0  0  0  0  0  0  0  0  0
    2.1061    0.4728    0.9642 H   0  0  0  0  0  0  0  0  0  0  0  0
    4.1726    1.7310    1.5275 H   0  0  0  0  0  0  0  0  0  0  0  0
    4.5598    0.0682    1.1030 H   0  0  0  0  0  0  0  0  0  0  0  0
    7.5352    0.2671   -0.8427 H   0  0  0  0  0  0  0  0  0  0  0  0
    9.6893    0.9994    0.0394 H   0  0  0  0  0  0  0  0  0  0  0  0
    9.8468    2.9879    1.5075 H   0  0  0  0  0  0  0  0  0  0  0  0
    7.7902    4.2605    2.0754 H   0  0  0  0  0  0  0  0  0  0  0  0
    5.6145    3.5578    1.1719 H   0  0  0  0  0  0  0  0  0  0  0  0
    5.4067   -0.3975   -1.3406 H   0  0  0  0  0  0  0  0  0  0  0  0
    5.6830    1.0252   -2.3728 H   0  0  0  0  0  0  0  0  0  0  0  0
    3.2739    1.5429   -2.4147 H   0  0  0  0  0  0  0  0  0  0  0  0
    3.5555   -0.0827   -3.0094 H   0  0  0  0  0  0  0  0  0  0  0  0
   -0.0731   -1.2891   -1.7830 H   0  0  0  0  0  0  0  0  0  0  0  0
  1  2  2  0
  2  3  1  0
  3  4  1  0
  4  5  1  0
  5  6  1  0
  6  7  1  0
  7  8  1  0
  8  9  2  0
  9 10  1  0
 10 11  2  0
 11 12  1  0
 12 13  2  0
  2 14  1  0
 14 15  2  0
 15 16  1  0
 16 17  2  0
 17 18  1  0
 18 19  1  0
 19 20  2  0
 19 21  2  0
 19 22  1  0
 22 23  1  0
 23 24  1  0
 24 25  1  0
 25 26  1  0
 26 27  2  0
 27 28  1  0
 28 29  2  0
 29 30  1  0
 30 31  2  0
 25 32  1  0
 32 33  1  0
 18 34  2  0
 13  4  1  0
 34 14  1  0
 13  8  1  0
 33 22  1  0
 31 26  1  0
  3 35  1  0
  4 36  1  0
  5 37  1  0
  5 38  1  0
  6 39  1  0
  6 40  1  0
  7 41  1  0
  7 42  1  0
  9 43  1  0
 10 44  1  0
 11 45  1  0
 12 46  1  0
 15 47  1  0
 16 48  1  0
 17 49  1  0
 23 50  1  0
 23 51  1  0
 24 52  1  0
 24 53  1  0
 27 54  1  0
 28 55  1  0
 29 56  1  0
 30 57  1  0
 31 58  1  0
 32 59  1  0
 32 60  1  0
 33 61  1  0
 33 62  1  0
 34 63  1  0
M  END
$$$$
