
     RDKit          3D

 50 53  0  0  0  0  0  0  0  0999 V2000
   -4.2792   -4.0545    1.7427 C   0  0  0  0  0  0  0  0  0  0  0  0
   -4.0414   -3.8340    0.3572 O   0  0  0  0  0  0  0  0  0  0  0  0
   -3.1793   -2.8211    0.0328 C   0  0  0  0  0  0  0  0  0  0  0  0
   -2.5000   -1.9997    0.9290 C   0  0  0  0  0  0  0  0  0  0  0  0
   -1.6283   -1.0118    0.4554 C   0  0  0  0  0  0  0  0  0  0  0  0
   -1.4169   -0.8295   -0.9207 C   0  0  0  0  0  0  0  0  0  0  0  0
   -0.4847    0.2424   -1.4642 C   0  0  0  0  0  0  0  0  0  0  0  0
   -1.1920    1.5951   -1.5532 C   0  0  0  0  0  0  0  0  0  0  0  0
   -0.5124    2.3258   -0.4281 C   0  0  0  0  0  0  0  0  0  0  0  0
   -0.9987    3.6386    0.0542 C   0  0  0  0  0  0  0  0  0  0  0  0
   -0.4508    4.1737    1.2276 C   0  0  0  0  0  0  0  0  0  0  0  0
   -0.9002    5.4012    1.7176 C   0  0  0  0  0  0  0  0  0  0  0  0
   -1.8974    6.0999    1.0369 C   0  0  0  0  0  0  0  0  0  0  0  0
   -2.4416    5.5750   -0.1351 C   0  0  0  0  0  0  0  0  0  0  0  0
   -1.9948    4.3456   -0.6272 C   0  0  0  0  0  0  0  0  0  0  0  0
    0.5323    1.7301    0.0613 N   0  0  0  0  0  0  0  0  0  0  0  0
    0.6506    0.5310   -0.5845 N   0  0  0  0  0  0  0  0  0  0  0  0
    1.7843   -0.2615   -0.4173 C   0  0  0  0  0  0  0  0  0  0  0  0
    2.8414    0.1634    0.4105 C   0  0  0  0  0  0  0  0  0  0  0  0
    4.0018   -0.5982    0.5849 C   0  0  0  0  0  0  0  0  0  0  0  0
    4.1217   -1.8163   -0.0751 C   0  0  0  0  0  0  0  0  0  0  0  0
    5.5945   -2.7851    0.1022 S   0  0  0  0  0  6  0  0  0  0  0  0
    6.3525   -2.5084   -1.3776 N   0  0  0  0  0  0  0  0  0  0  0  0
    5.2224   -4.1807    0.1062 O   0  0  0  0  0  0  0  0  0  0  0  0
    6.4265   -2.1951    1.1253 O   0  0  0  0  0  0  0  0  0  0  0  0
    3.0884   -2.2828   -0.8871 C   0  0  0  0  0  0  0  0  0  0  0  0
    1.9355   -1.5056   -1.0524 C   0  0  0  0  0  0  0  0  0  0  0  0
   -2.1237   -1.6476   -1.8141 C   0  0  0  0  0  0  0  0  0  0  0  0
   -2.9909   -2.6350   -1.3390 C   0  0  0  0  0  0  0  0  0  0  0  0
   -4.9575   -4.9100    1.8316 H   0  0  0  0  0  0  0  0  0  0  0  0
   -3.3547   -4.3096    2.2699 H   0  0  0  0  0  0  0  0  0  0  0  0
   -4.7727   -3.1883    2.1973 H   0  0  0  0  0  0  0  0  0  0  0  0
   -2.6116   -2.1035    2.0023 H   0  0  0  0  0  0  0  0  0  0  0  0
   -1.0985   -0.3908    1.1768 H   0  0  0  0  0  0  0  0  0  0  0  0
   -0.1306   -0.0469   -2.4624 H   0  0  0  0  0  0  0  0  0  0  0  0
   -0.9467    2.1020   -2.4929 H   0  0  0  0  0  0  0  0  0  0  0  0
   -2.2762    1.5475   -1.4261 H   0  0  0  0  0  0  0  0  0  0  0  0
    0.3284    3.6371    1.7662 H   0  0  0  0  0  0  0  0  0  0  0  0
   -0.4718    5.8103    2.6286 H   0  0  0  0  0  0  0  0  0  0  0  0
   -2.2472    7.0557    1.4196 H   0  0  0  0  0  0  0  0  0  0  0  0
   -3.2130    6.1265   -0.6676 H   0  0  0  0  0  0  0  0  0  0  0  0
   -2.4271    3.9706   -1.5487 H   0  0  0  0  0  0  0  0  0  0  0  0
    2.7638    1.1182    0.9290 H   0  0  0  0  0  0  0  0  0  0  0  0
    4.7943   -0.2272    1.2312 H   0  0  0  0  0  0  0  0  0  0  0  0
    5.9432   -1.7311   -1.8942 H   0  0  0  0  0  0  0  0  0  0  0  0
    6.3681   -3.3727   -1.9203 H   0  0  0  0  0  0  0  0  0  0  0  0
    3.1670   -3.2412   -1.3920 H   0  0  0  0  0  0  0  0  0  0  0  0
    1.1499   -1.9020   -1.6885 H   0  0  0  0  0  0  0  0  0  0  0  0
   -2.0005   -1.5307   -2.8895 H   0  0  0  0  0  0  0  0  0  0  0  0
   -3.5261   -3.2692   -2.0432 H   0  0  0  0  0  0  0  0  0  0  0  0
  1  2  1  0
  2  3  1  0
  3  4  2  0
  4  5  1  0
  5  6  2  0
  6  7  1  0
  7  8  1  0
  8  9  1  0
  9 10  1  0
 10 11  2  0
 11 12  1  0
 12 13  2  0
 13 14  1  0
 14 15  2  0
  9 16  2  0
 16 17  1  0
 17 18  1  0
 18 19  2  0
 19 20  1  0
 20 21  2  0
 21 22  1  0
 22 23  1  0
 22 24  2  0
 22 25  2  0
 21 26  1  0
 26 27  2  0
  6 28  1  0
 28 29  2  0
 29  3  1  0
 17  7  1  0
 27 18  1  0
 15 10  1  0
  1 30  1  0
  1 31  1  0
  1 32  1  0
  4 33  1  0
  5 34  1  0
  7 35  1  0
  8 36  1  0
  8 37  1  0
 11 38  1  0
 12 39  1  0
 13 40  1  0
 14 41  1  0
 15 42  1  0
 19 43  1  0
 20 44  1  0
 23 45  1  0
 23 46  1  0
 26 47  1  0
 27 48  1  0
 28 49  1  0
 29 50  1  0
M  END
$$$$
