
     RDKit          3D

 50 52  0  0  0  0  0  0  0  0999 V2000
   -4.4227    3.3026   -0.9534 O   0  0  0  0  0  0  0  0  0  0  0  0
   -4.1747    2.2626   -1.5584 C   0  0  0  0  0  0  0  0  0  0  0  0
   -3.2214    2.2176   -2.7533 C   0  0  0  0  0  0  0  0  0  0  0  0
   -1.8783    1.9027   -2.3831 O   0  0  0  0  0  0  0  0  0  0  0  0
   -1.6453    0.5941   -2.1246 C   0  0  0  0  0  0  0  0  0  0  0  0
   -2.4800   -0.2961   -2.1767 O   0  0  0  0  0  0  0  0  0  0  0  0
   -0.2226    0.3710   -1.7498 C   0  0  0  0  0  0  0  0  0  0  0  0
    0.1850   -0.9397   -1.4545 C   0  0  0  0  0  0  0  0  0  0  0  0
    1.5095   -1.2056   -1.0977 C   0  0  0  0  0  0  0  0  0  0  0  0
    2.4254   -0.1532   -1.0324 C   0  0  0  0  0  0  0  0  0  0  0  0
    4.1199   -0.4650   -0.5893 S   0  0  0  0  0  6  0  0  0  0  0  0
    4.9341    0.1735   -1.6011 O   0  0  0  0  0  0  0  0  0  0  0  0
    4.2584   -1.8752   -0.2962 O   0  0  0  0  0  0  0  0  0  0  0  0
    4.2856    0.4019    0.8665 N   0  0  0  0  0  0  0  0  0  0  0  0
    3.4663   -0.0213    2.0307 C   0  0  0  0  0  0  0  0  0  0  0  0
    4.1308   -1.1395    2.8278 C   0  0  0  0  0  0  0  0  0  0  0  0
    5.5652   -0.7893    3.2096 C   0  0  0  0  0  0  0  0  0  0  0  0
    6.3672   -0.3646    1.9839 C   0  0  0  0  0  0  0  0  0  0  0  0
    5.6723    0.7726    1.2464 C   0  0  0  0  0  0  0  0  0  0  0  0
    2.0353    1.1564   -1.3292 C   0  0  0  0  0  0  0  0  0  0  0  0
    0.7097    1.4179   -1.6850 C   0  0  0  0  0  0  0  0  0  0  0  0
   -4.7238    1.0455   -1.2238 N   0  0  0  0  0  0  0  0  0  0  0  0
   -5.5025    0.9114   -0.0165 C   0  0  0  0  0  0  0  0  0  0  0  0
   -6.1448   -0.4228   -0.0130 C   0  0  0  0  0  0  0  0  0  0  0  0
   -7.3977   -0.8731   -0.3745 C   0  0  0  0  0  0  0  0  0  0  0  0
   -7.3993   -2.2709   -0.1518 C   0  0  0  0  0  0  0  0  0  0  0  0
   -6.1502   -2.5837    0.3301 C   0  0  0  0  0  0  0  0  0  0  0  0
   -5.3811   -1.4686    0.4197 O   0  0  0  0  0  0  0  0  0  0  0  0
   -3.2141    3.2115   -3.2139 H   0  0  0  0  0  0  0  0  0  0  0  0
   -3.5943    1.5243   -3.5174 H   0  0  0  0  0  0  0  0  0  0  0  0
   -0.5282   -1.7613   -1.5052 H   0  0  0  0  0  0  0  0  0  0  0  0
    1.8146   -2.2267   -0.8783 H   0  0  0  0  0  0  0  0  0  0  0  0
    2.4655   -0.3295    1.7141 H   0  0  0  0  0  0  0  0  0  0  0  0
    3.3198    0.8562    2.6730 H   0  0  0  0  0  0  0  0  0  0  0  0
    3.5484   -1.3371    3.7349 H   0  0  0  0  0  0  0  0  0  0  0  0
    4.1289   -2.0695    2.2492 H   0  0  0  0  0  0  0  0  0  0  0  0
    6.0439   -1.6500    3.6895 H   0  0  0  0  0  0  0  0  0  0  0  0
    5.5595    0.0256    3.9440 H   0  0  0  0  0  0  0  0  0  0  0  0
    7.3688   -0.0455    2.2932 H   0  0  0  0  0  0  0  0  0  0  0  0
    6.4974   -1.2237    1.3154 H   0  0  0  0  0  0  0  0  0  0  0  0
    6.2525    1.0688    0.3668 H   0  0  0  0  0  0  0  0  0  0  0  0
    5.6235    1.6632    1.8855 H   0  0  0  0  0  0  0  0  0  0  0  0
    2.7585    1.9687   -1.2864 H   0  0  0  0  0  0  0  0  0  0  0  0
    0.4204    2.4418   -1.9114 H   0  0  0  0  0  0  0  0  0  0  0  0
   -4.2137    0.2169   -1.5338 H   0  0  0  0  0  0  0  0  0  0  0  0
   -4.8314    1.0297    0.8411 H   0  0  0  0  0  0  0  0  0  0  0  0
   -6.2506    1.7105    0.0232 H   0  0  0  0  0  0  0  0  0  0  0  0
   -8.2055   -0.2650   -0.7574 H   0  0  0  0  0  0  0  0  0  0  0  0
   -8.2089   -2.9662   -0.3238 H   0  0  0  0  0  0  0  0  0  0  0  0
   -5.6751   -3.5042    0.6393 H   0  0  0  0  0  0  0  0  0  0  0  0
  1  2  2  0
  2  3  1  0
  3  4  1  0
  4  5  1  0
  5  6  2  0
  5  7  1  0
  7  8  2  0
  8  9  1  0
  9 10  2  0
 10 11  1  0
 11 12  2  0
 11 13  2  0
 11 14  1  0
 14 15  1  0
 15 16  1  0
 16 17  1  0
 17 18  1  0
 18 19  1  0
 10 20  1  0
 20 21  2  0
  2 22  1  0
 22 23  1  0
 23 24  1  0
 24 25  2  0
 25 26  1  0
 26 27  2  0
 27 28  1  0
 21  7  1  0
 28 24  1  0
 19 14  1  0
  3 29  1  0
  3 30  1  0
  8 31  1  0
  9 32  1  0
 15 33  1  0
 15 34  1  0
 16 35  1  0
 16 36  1  0
 17 37  1  0
 17 38  1  0
 18 39  1  0
 18 40  1  0
 19 41  1  0
 19 42  1  0
 20 43  1  0
 21 44  1  0
 22 45  1  0
 23 46  1  0
 23 47  1  0
 25 48  1  0
 26 49  1  0
 27 50  1  0
M  END
$$$$
