
     RDKit          3D

 37 39  0  0  0  0  0  0  0  0999 V2000
   -1.1158    2.3907   -1.5529 O   0  0  0  0  0  0  0  0  0  0  0  0
   -1.0213    1.9658   -0.4055 C   0  0  0  0  0  0  0  0  0  0  0  0
    0.0411    2.5215    0.5310 C   0  0  0  0  0  0  0  0  0  0  0  0
    1.2818    1.6373    0.6867 C   0  0  0  0  0  0  0  0  0  0  0  0
    2.1393    1.3566   -0.8910 S   0  0  0  0  0  0  0  0  0  0  0  0
    3.3711    0.2005   -0.3323 C   0  0  0  0  0  0  0  0  0  0  0  0
    4.5607    0.0884   -1.0610 C   0  0  0  0  0  0  0  0  0  0  0  0
    5.5241   -0.8556   -0.7017 C   0  0  0  0  0  0  0  0  0  0  0  0
    5.2968   -1.7050    0.3783 C   0  0  0  0  0  0  0  0  0  0  0  0
    4.1084   -1.6086    1.1036 C   0  0  0  0  0  0  0  0  0  0  0  0
    3.1496   -0.6495    0.7596 C   0  0  0  0  0  0  0  0  0  0  0  0
    1.9637   -0.6125    1.5081 N   0  0  0  0  0  0  0  0  0  0  0  0
    0.9857    0.3394    1.4289 C   0  0  0  0  0  0  0  0  0  0  0  0
   -0.0637    0.1673    2.0544 O   0  0  0  0  0  0  0  0  0  0  0  0
   -1.8204    0.9990    0.1757 N   0  0  0  0  0  0  0  0  0  0  0  0
   -2.8733    0.2527   -0.4180 C   0  0  0  0  0  0  0  0  0  0  0  0
   -3.1909    0.3720   -1.7774 C   0  0  0  0  0  0  0  0  0  0  0  0
   -4.2130   -0.3916   -2.3593 C   0  0  0  0  0  0  0  0  0  0  0  0
   -4.9428   -1.2979   -1.5971 C   0  0  0  0  0  0  0  0  0  0  0  0
   -4.6550   -1.4416   -0.2444 C   0  0  0  0  0  0  0  0  0  0  0  0
   -3.6311   -0.6697    0.3353 C   0  0  0  0  0  0  0  0  0  0  0  0
   -3.4006   -0.8535    1.7643 N   0  0  0  0  0  4  0  0  0  0  0  0
   -3.1669    0.1571    2.4426 O   0  0  0  0  0  0  0  0  0  0  0  0
   -3.4730   -2.0077    2.2103 O   0  0  0  0  0  1  0  0  0  0  0  0
   -0.4244    2.7041    1.5086 H   0  0  0  0  0  0  0  0  0  0  0  0
    0.3295    3.5123    0.1556 H   0  0  0  0  0  0  0  0  0  0  0  0
    1.9829    2.1870    1.3293 H   0  0  0  0  0  0  0  0  0  0  0  0
    4.7423    0.7292   -1.9217 H   0  0  0  0  0  0  0  0  0  0  0  0
    6.4458   -0.9344   -1.2735 H   0  0  0  0  0  0  0  0  0  0  0  0
    6.0435   -2.4468    0.6525 H   0  0  0  0  0  0  0  0  0  0  0  0
    3.9469   -2.2842    1.9398 H   0  0  0  0  0  0  0  0  0  0  0  0
    1.7635   -1.3752    2.1443 H   0  0  0  0  0  0  0  0  0  0  0  0
   -1.6369    0.8099    1.1672 H   0  0  0  0  0  0  0  0  0  0  0  0
   -2.6539    1.0516   -2.4328 H   0  0  0  0  0  0  0  0  0  0  0  0
   -4.4308   -0.2729   -3.4191 H   0  0  0  0  0  0  0  0  0  0  0  0
   -5.7324   -1.8875   -2.0569 H   0  0  0  0  0  0  0  0  0  0  0  0
   -5.2306   -2.1480    0.3506 H   0  0  0  0  0  0  0  0  0  0  0  0
  1  2  2  0
  2  3  1  0
  3  4  1  0
  4  5  1  0
  5  6  1  0
  6  7  2  0
  7  8  1  0
  8  9  2  0
  9 10  1  0
 10 11  2  0
 11 12  1  0
 12 13  1  0
 13 14  2  0
  2 15  1  0
 15 16  1  0
 16 17  2  0
 17 18  1  0
 18 19  2  0
 19 20  1  0
 20 21  2  0
 21 22  1  0
 22 23  2  0
 22 24  1  0
 13  4  1  0
 21 16  1  0
 11  6  1  0
  3 25  1  0
  3 26  1  0
  4 27  1  0
  7 28  1  0
  8 29  1  0
  9 30  1  0
 10 31  1  0
 12 32  1  0
 15 33  1  0
 17 34  1  0
 18 35  1  0
 19 36  1  0
 20 37  1  0
M  CHG  2  22   1  24  -1
M  END
$$$$
