
     RDKit          3D

 39 39  0  0  0  0  0  0  0  0999 V2000
   -3.1860   -3.5195   -3.0043 C   0  0  0  0  0  0  0  0  0  0  0  0
   -2.7568   -2.2067   -2.6415 O   0  0  0  0  0  0  0  0  0  0  0  0
   -1.9089   -2.1734   -1.5753 C   0  0  0  0  0  0  0  0  0  0  0  0
   -1.5175   -3.1560   -0.9546 O   0  0  0  0  0  0  0  0  0  0  0  0
   -1.5281   -0.7319   -1.2331 C   0  0  0  0  0  0  0  0  0  0  0  0
   -2.5555   -0.1077   -0.2785 C   0  0  0  0  0  0  0  0  0  0  0  0
   -3.8518    0.2668   -0.9949 C   0  0  0  0  0  0  0  0  0  0  0  0
   -5.0540    1.0485    0.1322 S   0  0  0  0  0  0  0  0  0  0  0  0
   -4.2895    2.6814    0.3056 C   0  0  0  0  0  0  0  0  0  0  0  0
   -0.2002   -0.7734   -0.6177 N   0  0  0  0  0  0  0  0  0  0  0  0
    0.5613    0.3511   -0.4800 C   0  0  0  0  0  0  0  0  0  0  0  0
    0.2510    1.4451   -0.9320 O   0  0  0  0  0  0  0  0  0  0  0  0
    1.6891    0.1118    0.2462 N   0  0  0  0  0  0  0  0  0  0  0  0
    2.6552    1.1697    0.4527 C   0  0  0  0  0  0  0  0  0  0  0  0
    3.7959    0.7029    1.3270 C   0  0  0  0  0  0  0  0  0  0  0  0
    4.3244    1.5456    2.3035 C   0  0  0  0  0  0  0  0  0  0  0  0
    5.3794    1.0881    3.0865 C   0  0  0  0  0  0  0  0  0  0  0  0
    5.8866   -0.1876    2.8657 C   0  0  0  0  0  0  0  0  0  0  0  0
    5.3149   -0.9592    1.8663 C   0  0  0  0  0  0  0  0  0  0  0  0
    4.2863   -0.5469    1.0939 N   0  0  0  0  0  0  0  0  0  0  0  0
   -3.9865   -3.4235   -3.7452 H   0  0  0  0  0  0  0  0  0  0  0  0
   -2.3563   -4.0711   -3.4556 H   0  0  0  0  0  0  0  0  0  0  0  0
   -3.5830   -4.0586   -2.1382 H   0  0  0  0  0  0  0  0  0  0  0  0
   -1.4350   -0.1508   -2.1576 H   0  0  0  0  0  0  0  0  0  0  0  0
   -2.7686   -0.8038    0.5433 H   0  0  0  0  0  0  0  0  0  0  0  0
   -2.1217    0.7900    0.1775 H   0  0  0  0  0  0  0  0  0  0  0  0
   -3.6608    0.9380   -1.8393 H   0  0  0  0  0  0  0  0  0  0  0  0
   -4.3399   -0.6283   -1.3911 H   0  0  0  0  0  0  0  0  0  0  0  0
   -4.9550    3.3227    0.8891 H   0  0  0  0  0  0  0  0  0  0  0  0
   -4.1410    3.1419   -0.6741 H   0  0  0  0  0  0  0  0  0  0  0  0
   -3.3356    2.6129    0.8333 H   0  0  0  0  0  0  0  0  0  0  0  0
   -0.0041   -1.5474    0.0044 H   0  0  0  0  0  0  0  0  0  0  0  0
    2.1002   -0.8091    0.1606 H   0  0  0  0  0  0  0  0  0  0  0  0
    3.0476    1.4832   -0.5216 H   0  0  0  0  0  0  0  0  0  0  0  0
    2.1337    2.0226    0.9050 H   0  0  0  0  0  0  0  0  0  0  0  0
    3.9166    2.5385    2.4668 H   0  0  0  0  0  0  0  0  0  0  0  0
    5.8018    1.7199    3.8648 H   0  0  0  0  0  0  0  0  0  0  0  0
    6.7096   -0.5711    3.4578 H   0  0  0  0  0  0  0  0  0  0  0  0
    5.6823   -1.9594    1.6524 H   0  0  0  0  0  0  0  0  0  0  0  0
  1  2  1  0
  2  3  1  0
  3  4  2  0
  3  5  1  0
  5  6  1  0
  6  7  1  0
  7  8  1  0
  8  9  1  0
  5 10  1  0
 10 11  1  0
 11 12  2  0
 11 13  1  0
 13 14  1  0
 14 15  1  0
 15 16  2  0
 16 17  1  0
 17 18  2  0
 18 19  1  0
 19 20  2  0
 20 15  1  0
  1 21  1  0
  1 22  1  0
  1 23  1  0
  5 24  1  0
  6 25  1  0
  6 26  1  0
  7 27  1  0
  7 28  1  0
  9 29  1  0
  9 30  1  0
  9 31  1  0
 10 32  1  0
 13 33  1  0
 14 34  1  0
 14 35  1  0
 16 36  1  0
 17 37  1  0
 18 38  1  0
 19 39  1  0
M  END
$$$$
