
     RDKit          3D

 31 32  0  0  0  0  0  0  0  0999 V2000
   -6.1784   -1.3735    0.7333 N   0  0  0  0  0  0  0  0  0  0  0  0
   -4.8907   -0.9634    0.3272 N   0  0  0  0  0  0  0  0  0  0  0  0
   -4.7450    0.1490   -0.4912 C   0  0  0  0  0  0  0  0  0  0  0  0
   -5.6989    0.7444   -0.9923 O   0  0  0  0  0  0  0  0  0  0  0  0
   -3.2961    0.5616   -0.7408 C   0  0  0  0  0  0  0  0  0  0  0  0
   -2.4012   -0.1695    0.0930 O   0  0  0  0  0  0  0  0  0  0  0  0
   -1.0683    0.1048   -0.0401 C   0  0  0  0  0  0  0  0  0  0  0  0
   -0.2333   -0.6403    0.7931 C   0  0  0  0  0  0  0  0  0  0  0  0
    1.1526   -0.4615    0.7604 C   0  0  0  0  0  0  0  0  0  0  0  0
    1.7363    0.4713   -0.1119 C   0  0  0  0  0  0  0  0  0  0  0  0
    3.2345    0.6939   -0.1726 C   0  0  0  0  0  0  0  0  0  0  0  0
    4.1417   -0.8106   -0.6620 S   0  0  0  0  0  0  0  0  0  0  0  0
    5.5269   -0.5961    0.4815 C   0  0  0  0  0  0  0  0  0  0  0  0
    4.9650   -0.0653    1.7841 C   0  0  0  0  0  0  0  0  0  0  0  0
    3.9022    1.3477    1.3949 S   0  0  0  0  0  0  0  0  0  0  0  0
    0.8852    1.2164   -0.9445 C   0  0  0  0  0  0  0  0  0  0  0  0
   -0.5035    1.0357   -0.9100 C   0  0  0  0  0  0  0  0  0  0  0  0
   -6.7866   -0.5448    0.6889 H   0  0  0  0  0  0  0  0  0  0  0  0
   -6.5520   -1.9801   -0.0028 H   0  0  0  0  0  0  0  0  0  0  0  0
   -4.0694   -1.2936    0.8374 H   0  0  0  0  0  0  0  0  0  0  0  0
   -3.2256    1.6327   -0.5190 H   0  0  0  0  0  0  0  0  0  0  0  0
   -3.0839    0.3606   -1.7971 H   0  0  0  0  0  0  0  0  0  0  0  0
   -0.6605   -1.3691    1.4776 H   0  0  0  0  0  0  0  0  0  0  0  0
    1.7726   -1.0600    1.4244 H   0  0  0  0  0  0  0  0  0  0  0  0
    3.4587    1.4474   -0.9351 H   0  0  0  0  0  0  0  0  0  0  0  0
    6.0326   -1.5540    0.6351 H   0  0  0  0  0  0  0  0  0  0  0  0
    6.2524    0.0984    0.0438 H   0  0  0  0  0  0  0  0  0  0  0  0
    4.3751   -0.8266    2.3065 H   0  0  0  0  0  0  0  0  0  0  0  0
    5.7684    0.2511    2.4560 H   0  0  0  0  0  0  0  0  0  0  0  0
    1.2975    1.9517   -1.6335 H   0  0  0  0  0  0  0  0  0  0  0  0
   -1.1080    1.6417   -1.5769 H   0  0  0  0  0  0  0  0  0  0  0  0
  1  2  1  0
  2  3  1  0
  3  4  2  0
  3  5  1  0
  5  6  1  0
  6  7  1  0
  7  8  2  0
  8  9  1  0
  9 10  2  0
 10 11  1  0
 11 12  1  0
 12 13  1  0
 13 14  1  0
 14 15  1  0
 10 16  1  0
 16 17  2  0
 17  7  1  0
 15 11  1  0
  1 18  1  0
  1 19  1  0
  2 20  1  0
  5 21  1  0
  5 22  1  0
  8 23  1  0
  9 24  1  0
 11 25  1  0
 13 26  1  0
 13 27  1  0
 14 28  1  0
 14 29  1  0
 16 30  1  0
 17 31  1  0
M  END
$$$$
