
     RDKit          3D

 52 55  0  0  0  0  0  0  0  0999 V2000
    6.9378   -1.9216    2.7760 C   0  0  0  0  0  0  0  0  0  0  0  0
    5.6035   -1.4342    2.2876 C   0  0  0  0  0  0  0  0  0  0  0  0
    4.4243   -2.0479    2.7351 C   0  0  0  0  0  0  0  0  0  0  0  0
    3.1646   -1.5968    2.3260 C   0  0  0  0  0  0  0  0  0  0  0  0
    3.1449   -0.5055    1.4624 C   0  0  0  0  0  0  0  0  0  0  0  0
    2.0255    0.0777    0.9624 O   0  0  0  0  0  0  0  0  0  0  0  0
    2.4224    1.1061    0.1488 C   0  0  0  0  0  0  0  0  0  0  0  0
    1.4182    1.9466   -0.4841 C   0  0  0  0  0  0  0  0  0  0  0  0
    1.6418    3.1315   -0.7401 O   0  0  0  0  0  0  0  0  0  0  0  0
    0.1603    1.3936   -0.7665 N   0  0  0  0  0  0  0  0  0  0  0  0
   -0.8976    2.3025   -1.1970 C   0  0  0  0  0  0  0  0  0  0  0  0
   -2.2639    1.6141   -1.2553 C   0  0  0  0  0  0  0  0  0  0  0  0
   -2.4051    0.5443   -0.1532 C   0  0  0  0  0  0  0  0  0  0  0  0
   -2.2427    1.2247    1.1054 O   0  0  0  0  0  0  0  0  0  0  0  0
   -3.7708   -0.1439   -0.0944 C   0  0  0  0  0  0  0  0  0  0  0  0
   -4.1656   -0.8024    1.0857 C   0  0  0  0  0  0  0  0  0  0  0  0
   -5.3917   -1.4626    1.1775 C   0  0  0  0  0  0  0  0  0  0  0  0
   -6.2521   -1.4875    0.0841 C   0  0  0  0  0  0  0  0  0  0  0  0
   -5.8892   -0.8575   -1.1130 C   0  0  0  0  0  0  0  0  0  0  0  0
   -6.8257   -0.8635   -2.2964 C   0  0  0  0  0  0  0  0  0  0  0  0
   -7.6579   -1.9423   -2.3199 F   0  0  0  0  0  0  0  0  0  0  0  0
   -6.1695   -0.8783   -3.4916 F   0  0  0  0  0  0  0  0  0  0  0  0
   -7.6319    0.2329   -2.3278 F   0  0  0  0  0  0  0  0  0  0  0  0
   -4.6524   -0.1868   -1.1884 C   0  0  0  0  0  0  0  0  0  0  0  0
   -1.2933   -0.5288   -0.2807 C   0  0  0  0  0  0  0  0  0  0  0  0
   -0.0741   -0.0186   -1.0477 C   0  0  0  0  0  0  0  0  0  0  0  0
    3.8101    1.2025    0.1582 C   0  0  0  0  0  0  0  0  0  0  0  0
    4.6288    2.2126   -0.5598 C   0  0  0  0  0  0  0  0  0  0  0  0
    4.2781    0.1457    0.9983 C   0  0  0  0  0  0  0  0  0  0  0  0
    5.5361   -0.3220    1.4263 C   0  0  0  0  0  0  0  0  0  0  0  0
    7.2125   -1.3982    3.6970 H   0  0  0  0  0  0  0  0  0  0  0  0
    6.9118   -2.9983    2.9739 H   0  0  0  0  0  0  0  0  0  0  0  0
    7.7154   -1.7489    2.0244 H   0  0  0  0  0  0  0  0  0  0  0  0
    4.4786   -2.8942    3.4181 H   0  0  0  0  0  0  0  0  0  0  0  0
    2.2490   -2.0645    2.6664 H   0  0  0  0  0  0  0  0  0  0  0  0
   -0.6343    2.7033   -2.1830 H   0  0  0  0  0  0  0  0  0  0  0  0
   -0.9260    3.1488   -0.5000 H   0  0  0  0  0  0  0  0  0  0  0  0
   -2.3738    1.1535   -2.2453 H   0  0  0  0  0  0  0  0  0  0  0  0
   -3.0450    2.3799   -1.1699 H   0  0  0  0  0  0  0  0  0  0  0  0
   -1.2969    1.4390    1.2017 H   0  0  0  0  0  0  0  0  0  0  0  0
   -3.5116   -0.7899    1.9570 H   0  0  0  0  0  0  0  0  0  0  0  0
   -5.6742   -1.9514    2.1066 H   0  0  0  0  0  0  0  0  0  0  0  0
   -7.2087   -2.0005    0.1688 H   0  0  0  0  0  0  0  0  0  0  0  0
   -4.3955    0.3003   -2.1269 H   0  0  0  0  0  0  0  0  0  0  0  0
   -0.9737   -0.8486    0.7200 H   0  0  0  0  0  0  0  0  0  0  0  0
   -1.6564   -1.4257   -0.7985 H   0  0  0  0  0  0  0  0  0  0  0  0
   -0.2519   -0.0987   -2.1284 H   0  0  0  0  0  0  0  0  0  0  0  0
    0.7961   -0.6487   -0.8572 H   0  0  0  0  0  0  0  0  0  0  0  0
    4.5405    3.1890   -0.0728 H   0  0  0  0  0  0  0  0  0  0  0  0
    5.6872    1.9351   -0.5733 H   0  0  0  0  0  0  0  0  0  0  0  0
    4.2996    2.3112   -1.5993 H   0  0  0  0  0  0  0  0  0  0  0  0
    6.4443    0.1727    1.0932 H   0  0  0  0  0  0  0  0  0  0  0  0
  1  2  1  0
  2  3  2  0
  3  4  1  0
  4  5  2  0
  5  6  1  0
  6  7  1  0
  7  8  1  0
  8  9  2  0
  8 10  1  0
 10 11  1  0
 11 12  1  0
 12 13  1  0
 13 14  1  0
 13 15  1  0
 15 16  2  0
 16 17  1  0
 17 18  2  0
 18 19  1  0
 19 20  1  0
 20 21  1  0
 20 22  1  0
 20 23  1  0
 19 24  2  0
 13 25  1  0
 25 26  1  0
  7 27  2  0
 27 28  1  0
 27 29  1  0
 29 30  2  0
 30  2  1  0
 29  5  1  0
 26 10  1  0
 24 15  1  0
  1 31  1  0
  1 32  1  0
  1 33  1  0
  3 34  1  0
  4 35  1  0
 11 36  1  0
 11 37  1  0
 12 38  1  0
 12 39  1  0
 14 40  1  0
 16 41  1  0
 17 42  1  0
 18 43  1  0
 24 44  1  0
 25 45  1  0
 25 46  1  0
 26 47  1  0
 26 48  1  0
 28 49  1  0
 28 50  1  0
 28 51  1  0
 30 52  1  0
M  END
$$$$
