
     RDKit          3D

 50 52  0  0  0  0  0  0  0  0999 V2000
   -6.6810   -0.2411    1.4630 C   0  0  0  0  0  0  0  0  0  0  0  0
   -5.6557   -0.8485    0.5037 C   0  0  0  0  0  0  0  0  0  0  0  0
   -5.7855   -0.2547   -0.9098 C   0  0  0  0  0  0  0  0  0  0  0  0
   -4.8625    0.9397   -1.1322 C   0  0  0  0  0  0  0  0  0  0  0  0
   -3.4591    0.6350   -0.8479 N   0  0  0  0  0  0  0  0  0  0  0  0
   -2.4984    1.4474   -1.4422 C   0  0  0  0  0  0  0  0  0  0  0  0
   -2.7561    2.3480   -2.2373 O   0  0  0  0  0  0  0  0  0  0  0  0
   -1.0735    1.2415   -1.1200 C   0  0  0  0  0  0  0  0  0  0  0  0
   -0.5956    1.5093    0.1677 C   0  0  0  0  0  0  0  0  0  0  0  0
    0.7659    1.3675    0.4493 C   0  0  0  0  0  0  0  0  0  0  0  0
    1.6575    0.9646   -0.5587 C   0  0  0  0  0  0  0  0  0  0  0  0
    3.3991    0.9388   -0.1701 S   0  0  0  0  0  6  0  0  0  0  0  0
    4.1017    1.2887   -1.3880 O   0  0  0  0  0  0  0  0  0  0  0  0
    3.5456    1.7707    1.0111 O   0  0  0  0  0  0  0  0  0  0  0  0
    3.7204   -0.7681    0.2715 C   0  0  0  0  0  0  0  0  0  0  0  0
    5.1220   -0.8745    0.8018 C   0  0  0  0  0  0  0  0  0  0  0  0
    6.2197   -0.9963   -0.0622 C   0  0  0  0  0  0  0  0  0  0  0  0
    7.5170   -1.0710    0.4526 C   0  0  0  0  0  0  0  0  0  0  0  0
    7.7306   -1.0246    1.8312 C   0  0  0  0  0  0  0  0  0  0  0  0
    6.6455   -0.9028    2.6977 C   0  0  0  0  0  0  0  0  0  0  0  0
    5.3566   -0.8277    2.1789 C   0  0  0  0  0  0  0  0  0  0  0  0
    4.3210   -0.7198    3.0242 F   0  0  0  0  0  0  0  0  0  0  0  0
    1.1681    0.7354   -1.8493 C   0  0  0  0  0  0  0  0  0  0  0  0
    2.0199    0.2619   -2.9219 N   0  0  0  0  0  4  0  0  0  0  0  0
    2.0559    0.9321   -3.9593 O   0  0  0  0  0  0  0  0  0  0  0  0
    2.5754   -0.8290   -2.7349 O   0  0  0  0  0  1  0  0  0  0  0  0
   -0.1961    0.8737   -2.1421 C   0  0  0  0  0  0  0  0  0  0  0  0
   -3.1919   -0.5547   -0.0326 C   0  0  0  0  0  0  0  0  0  0  0  0
   -4.2337   -0.6933    1.0725 C   0  0  0  0  0  0  0  0  0  0  0  0
   -6.5429    0.8410    1.5615 H   0  0  0  0  0  0  0  0  0  0  0  0
   -6.5916   -0.6889    2.4582 H   0  0  0  0  0  0  0  0  0  0  0  0
   -7.7017   -0.4195    1.1065 H   0  0  0  0  0  0  0  0  0  0  0  0
   -5.8818   -1.9213    0.4276 H   0  0  0  0  0  0  0  0  0  0  0  0
   -6.8236    0.0254   -1.1255 H   0  0  0  0  0  0  0  0  0  0  0  0
   -5.5219   -1.0342   -1.6378 H   0  0  0  0  0  0  0  0  0  0  0  0
   -4.9611    1.2943   -2.1638 H   0  0  0  0  0  0  0  0  0  0  0  0
   -5.1486    1.7697   -0.4754 H   0  0  0  0  0  0  0  0  0  0  0  0
   -1.2781    1.8525    0.9438 H   0  0  0  0  0  0  0  0  0  0  0  0
    1.1217    1.6057    1.4514 H   0  0  0  0  0  0  0  0  0  0  0  0
    3.5939   -1.4095   -0.6010 H   0  0  0  0  0  0  0  0  0  0  0  0
    2.9861   -1.0652    1.0269 H   0  0  0  0  0  0  0  0  0  0  0  0
    6.0762   -1.0203   -1.1423 H   0  0  0  0  0  0  0  0  0  0  0  0
    8.3642   -1.1582   -0.2246 H   0  0  0  0  0  0  0  0  0  0  0  0
    8.7420   -1.0785    2.2271 H   0  0  0  0  0  0  0  0  0  0  0  0
    6.7953   -0.8624    3.7726 H   0  0  0  0  0  0  0  0  0  0  0  0
   -0.5769    0.7094   -3.1486 H   0  0  0  0  0  0  0  0  0  0  0  0
   -2.1931   -0.5251    0.4059 H   0  0  0  0  0  0  0  0  0  0  0  0
   -3.2181   -1.4237   -0.7027 H   0  0  0  0  0  0  0  0  0  0  0  0
   -4.1762    0.1938    1.7180 H   0  0  0  0  0  0  0  0  0  0  0  0
   -3.9967   -1.5578    1.7052 H   0  0  0  0  0  0  0  0  0  0  0  0
  1  2  1  0
  2  3  1  0
  3  4  1  0
  4  5  1  0
  5  6  1  0
  6  7  2  0
  6  8  1  0
  8  9  2  0
  9 10  1  0
 10 11  2  0
 11 12  1  0
 12 13  2  0
 12 14  2  0
 12 15  1  0
 15 16  1  0
 16 17  2  0
 17 18  1  0
 18 19  2  0
 19 20  1  0
 20 21  2  0
 21 22  1  0
 11 23  1  0
 23 24  1  0
 24 25  2  0
 24 26  1  0
 23 27  2  0
  5 28  1  0
 28 29  1  0
 29  2  1  0
 27  8  1  0
 21 16  1  0
  1 30  1  0
  1 31  1  0
  1 32  1  0
  2 33  1  0
  3 34  1  0
  3 35  1  0
  4 36  1  0
  4 37  1  0
  9 38  1  0
 10 39  1  0
 15 40  1  0
 15 41  1  0
 17 42  1  0
 18 43  1  0
 19 44  1  0
 20 45  1  0
 27 46  1  0
 28 47  1  0
 28 48  1  0
 29 49  1  0
 29 50  1  0
M  CHG  2  24   1  26  -1
M  END
$$$$
