
     RDKit          3D

 54 56  0  0  0  0  0  0  0  0999 V2000
   -3.5089   -2.2885    2.9651 C   0  0  0  0  0  0  0  0  0  0  0  0
   -3.5919   -0.8519    2.4850 C   0  0  0  0  0  0  0  0  0  0  0  0
   -2.5840   -0.6602    1.4875 O   0  0  0  0  0  0  0  0  0  0  0  0
   -2.5232    0.6038    0.9716 C   0  0  0  0  0  0  0  0  0  0  0  0
   -3.2865    1.5022    1.3081 O   0  0  0  0  0  0  0  0  0  0  0  0
   -1.4635    0.7437   -0.0291 C   0  0  0  0  0  0  0  0  0  0  0  0
   -1.5677    1.6282   -1.0950 C   0  0  0  0  0  0  0  0  0  0  0  0
   -2.5685    2.4867   -1.4285 N   0  0  0  0  0  0  0  0  0  0  0  0
   -3.4858    1.9839   -2.1886 C   0  0  0  0  0  0  0  0  0  0  0  0
   -4.6089    2.6371   -2.6469 N   0  0  0  0  0  0  0  0  0  0  0  0
   -5.3618    2.1025   -3.7687 C   0  0  0  0  0  0  0  0  0  0  0  0
   -4.7568    4.0625   -2.3891 C   0  0  0  0  0  0  0  0  0  0  0  0
   -0.1603    1.6031   -2.0742 S   0  0  0  0  0  0  0  0  0  0  0  0
    0.5956    0.3988   -1.1291 C   0  0  0  0  0  0  0  0  0  0  0  0
    1.9165   -0.0216   -1.5467 C   0  0  0  0  0  0  0  0  0  0  0  0
    2.5663   -0.9699   -0.9436 N   0  0  0  0  0  0  0  0  0  0  0  0
    3.8011   -1.2057   -1.4803 N   0  0  0  0  0  0  0  0  0  0  0  0
    4.9286   -0.7110   -0.7601 C   0  0  0  0  0  0  0  0  0  0  0  0
    4.8239    0.2602    0.2453 C   0  0  0  0  0  0  0  0  0  0  0  0
    5.9654    0.7695    0.8719 C   0  0  0  0  0  0  0  0  0  0  0  0
    7.2294    0.3305    0.4849 C   0  0  0  0  0  0  0  0  0  0  0  0
    7.3534   -0.6113   -0.5344 C   0  0  0  0  0  0  0  0  0  0  0  0
    6.2105   -1.1212   -1.1573 C   0  0  0  0  0  0  0  0  0  0  0  0
   -0.2030    0.0194   -0.0617 C   0  0  0  0  0  0  0  0  0  0  0  0
    0.2568   -0.9379    0.9381 C   0  0  0  0  0  0  0  0  0  0  0  0
    0.8142   -0.4777    2.1379 C   0  0  0  0  0  0  0  0  0  0  0  0
    1.2376   -1.3905    3.1061 C   0  0  0  0  0  0  0  0  0  0  0  0
    1.0990   -2.7589    2.8749 C   0  0  0  0  0  0  0  0  0  0  0  0
    1.6162   -3.8825    4.0712 Cl  0  0  0  0  0  0  0  0  0  0  0  0
    0.5410   -3.2246    1.6855 C   0  0  0  0  0  0  0  0  0  0  0  0
    0.1171   -2.3137    0.7156 C   0  0  0  0  0  0  0  0  0  0  0  0
   -3.6355   -2.9830    2.1283 H   0  0  0  0  0  0  0  0  0  0  0  0
   -4.2789   -2.4937    3.7149 H   0  0  0  0  0  0  0  0  0  0  0  0
   -2.5251   -2.4911    3.4029 H   0  0  0  0  0  0  0  0  0  0  0  0
   -4.5807   -0.6617    2.0527 H   0  0  0  0  0  0  0  0  0  0  0  0
   -3.4175   -0.1711    3.3259 H   0  0  0  0  0  0  0  0  0  0  0  0
   -3.4356    0.9373   -2.5485 H   0  0  0  0  0  0  0  0  0  0  0  0
   -6.3720    2.5241   -3.8040 H   0  0  0  0  0  0  0  0  0  0  0  0
   -4.8540    2.3343   -4.7101 H   0  0  0  0  0  0  0  0  0  0  0  0
   -5.4667    1.0148   -3.6871 H   0  0  0  0  0  0  0  0  0  0  0  0
   -5.7730    4.4028   -2.6151 H   0  0  0  0  0  0  0  0  0  0  0  0
   -4.5691    4.2906   -1.3338 H   0  0  0  0  0  0  0  0  0  0  0  0
   -4.0559    4.6376   -3.0034 H   0  0  0  0  0  0  0  0  0  0  0  0
    2.3723    0.4953   -2.4129 H   0  0  0  0  0  0  0  0  0  0  0  0
    3.9708   -2.1998   -1.6568 H   0  0  0  0  0  0  0  0  0  0  0  0
    3.8493    0.6184    0.5630 H   0  0  0  0  0  0  0  0  0  0  0  0
    5.8635    1.5109    1.6603 H   0  0  0  0  0  0  0  0  0  0  0  0
    8.1156    0.7257    0.9743 H   0  0  0  0  0  0  0  0  0  0  0  0
    8.3383   -0.9456   -0.8491 H   0  0  0  0  0  0  0  0  0  0  0  0
    6.3281   -1.8378   -1.9652 H   0  0  0  0  0  0  0  0  0  0  0  0
    0.9270    0.5882    2.3220 H   0  0  0  0  0  0  0  0  0  0  0  0
    1.6756   -1.0294    4.0323 H   0  0  0  0  0  0  0  0  0  0  0  0
    0.4364   -4.2910    1.5057 H   0  0  0  0  0  0  0  0  0  0  0  0
   -0.3147   -2.6808   -0.2118 H   0  0  0  0  0  0  0  0  0  0  0  0
  1  2  1  0
  2  3  1  0
  3  4  1  0
  4  5  2  0
  4  6  1  0
  6  7  2  0
  7  8  1  0
  8  9  2  3
  9 10  1  0
 10 11  1  0
 10 12  1  0
  7 13  1  0
 13 14  1  0
 14 15  1  0
 15 16  2  3
 16 17  1  0
 17 18  1  0
 18 19  2  0
 19 20  1  0
 20 21  2  0
 21 22  1  0
 22 23  2  0
 14 24  2  0
 24 25  1  0
 25 26  2  0
 26 27  1  0
 27 28  2  0
 28 29  1  0
 28 30  1  0
 30 31  2  0
 24  6  1  0
 31 25  1  0
 23 18  1  0
  1 32  1  0
  1 33  1  0
  1 34  1  0
  2 35  1  0
  2 36  1  0
  9 37  1  0
 11 38  1  0
 11 39  1  0
 11 40  1  0
 12 41  1  0
 12 42  1  0
 12 43  1  0
 15 44  1  0
 17 45  1  0
 19 46  1  0
 20 47  1  0
 21 48  1  0
 22 49  1  0
 23 50  1  0
 26 51  1  0
 27 52  1  0
 30 53  1  0
 31 54  1  0
M  END
$$$$
