
     RDKit          3D

 52 56  0  0  0  0  0  0  0  0999 V2000
    6.9619   -0.0133    1.8930 C   0  0  0  0  0  0  0  0  0  0  0  0
    5.9709   -1.1534    2.0506 C   0  0  0  0  0  0  0  0  0  0  0  0
    4.6330   -0.6928    1.8666 O   0  0  0  0  0  0  0  0  0  0  0  0
    4.1034   -0.6822    0.6086 C   0  0  0  0  0  0  0  0  0  0  0  0
    4.7664   -0.9918   -0.5733 C   0  0  0  0  0  0  0  0  0  0  0  0
    4.0844   -0.9318   -1.7965 C   0  0  0  0  0  0  0  0  0  0  0  0
    2.7487   -0.5651   -1.8750 C   0  0  0  0  0  0  0  0  0  0  0  0
    2.1412   -0.5319   -3.0695 N   0  0  0  0  0  0  0  0  0  0  0  0
    0.8434   -0.1562   -3.1089 C   0  0  0  0  0  0  0  0  0  0  0  0
    0.1987   -0.2160   -4.7059 Cl  0  0  0  0  0  0  0  0  0  0  0  0
    0.0774    0.1924   -2.0012 C   0  0  0  0  0  0  0  0  0  0  0  0
   -1.3875    0.5622   -2.1337 C   0  0  0  0  0  0  0  0  0  0  0  0
   -2.2713   -0.6809   -2.0893 C   0  0  0  0  0  0  0  0  0  0  0  0
   -2.8439   -0.5434   -0.7012 C   0  0  0  0  0  0  0  0  0  0  0  0
   -3.6005   -1.6391   -0.0528 C   0  0  0  0  0  0  0  0  0  0  0  0
   -3.8787   -2.8346   -0.7247 C   0  0  0  0  0  0  0  0  0  0  0  0
   -4.5952   -3.8472   -0.0811 C   0  0  0  0  0  0  0  0  0  0  0  0
   -5.0364   -3.6698    1.2297 C   0  0  0  0  0  0  0  0  0  0  0  0
   -4.7647   -2.4795    1.9016 C   0  0  0  0  0  0  0  0  0  0  0  0
   -4.0494   -1.4652    1.2626 C   0  0  0  0  0  0  0  0  0  0  0  0
   -2.6521    0.6153   -0.1437 N   0  0  0  0  0  0  0  0  0  0  0  0
   -1.9082    1.3611   -1.0241 N   0  0  0  0  0  0  0  0  0  0  0  0
   -1.5784    2.7084   -0.8489 C   0  0  0  0  0  0  0  0  0  0  0  0
   -0.7845    3.2480   -1.6263 O   0  0  0  0  0  0  0  0  0  0  0  0
   -2.1397    3.4481    0.2770 C   0  0  0  0  0  0  0  0  0  0  0  0
   -1.4854    4.4155    1.0218 C   0  0  0  0  0  0  0  0  0  0  0  0
   -2.3153    4.9972    2.0227 C   0  0  0  0  0  0  0  0  0  0  0  0
   -3.5913    4.4836    1.9894 C   0  0  0  0  0  0  0  0  0  0  0  0
   -3.7828    3.3246    0.7477 S   0  0  0  0  0  0  0  0  0  0  0  0
    0.7293    0.1272   -0.7620 C   0  0  0  0  0  0  0  0  0  0  0  0
    2.0789   -0.2456   -0.6809 C   0  0  0  0  0  0  0  0  0  0  0  0
    2.7600   -0.3065    0.5479 C   0  0  0  0  0  0  0  0  0  0  0  0
    6.7148    0.8058    2.5764 H   0  0  0  0  0  0  0  0  0  0  0  0
    6.9384    0.4011    0.8808 H   0  0  0  0  0  0  0  0  0  0  0  0
    7.9792   -0.3537    2.1060 H   0  0  0  0  0  0  0  0  0  0  0  0
    6.0312   -1.5226    3.0809 H   0  0  0  0  0  0  0  0  0  0  0  0
    6.2122   -2.0099    1.4116 H   0  0  0  0  0  0  0  0  0  0  0  0
    5.8127   -1.2760   -0.5926 H   0  0  0  0  0  0  0  0  0  0  0  0
    4.6147   -1.1764   -2.7145 H   0  0  0  0  0  0  0  0  0  0  0  0
   -1.5490    1.1405   -3.0504 H   0  0  0  0  0  0  0  0  0  0  0  0
   -3.0932   -0.6051   -2.8094 H   0  0  0  0  0  0  0  0  0  0  0  0
   -1.7338   -1.6220   -2.2302 H   0  0  0  0  0  0  0  0  0  0  0  0
   -3.5561   -3.0029   -1.7476 H   0  0  0  0  0  0  0  0  0  0  0  0
   -4.8121   -4.7761   -0.6034 H   0  0  0  0  0  0  0  0  0  0  0  0
   -5.5952   -4.4590    1.7274 H   0  0  0  0  0  0  0  0  0  0  0  0
   -5.1107   -2.3383    2.9226 H   0  0  0  0  0  0  0  0  0  0  0  0
   -3.8470   -0.5399    1.7986 H   0  0  0  0  0  0  0  0  0  0  0  0
   -0.4489    4.6841    0.8517 H   0  0  0  0  0  0  0  0  0  0  0  0
   -1.9951    5.7597    2.7221 H   0  0  0  0  0  0  0  0  0  0  0  0
   -4.4278    4.7437    2.6233 H   0  0  0  0  0  0  0  0  0  0  0  0
    0.1909    0.3675    0.1536 H   0  0  0  0  0  0  0  0  0  0  0  0
    2.2430   -0.0577    1.4728 H   0  0  0  0  0  0  0  0  0  0  0  0
  1  2  1  0
  2  3  1  0
  3  4  1  0
  4  5  2  0
  5  6  1  0
  6  7  2  0
  7  8  1  0
  8  9  2  0
  9 10  1  0
  9 11  1  0
 11 12  1  0
 12 13  1  0
 13 14  1  0
 14 15  1  0
 15 16  2  0
 16 17  1  0
 17 18  2  0
 18 19  1  0
 19 20  2  0
 14 21  2  0
 21 22  1  0
 22 23  1  0
 23 24  2  0
 23 25  1  0
 25 26  2  0
 26 27  1  0
 27 28  2  0
 28 29  1  0
 11 30  2  0
 30 31  1  0
 31 32  2  0
 32  4  1  0
 31  7  1  0
 22 12  1  0
 29 25  1  0
 20 15  1  0
  1 33  1  0
  1 34  1  0
  1 35  1  0
  2 36  1  0
  2 37  1  0
  5 38  1  0
  6 39  1  0
 12 40  1  0
 13 41  1  0
 13 42  1  0
 16 43  1  0
 17 44  1  0
 18 45  1  0
 19 46  1  0
 20 47  1  0
 26 48  1  0
 27 49  1  0
 28 50  1  0
 30 51  1  0
 32 52  1  0
M  END
$$$$
