
     RDKit          3D

 62 63  0  0  0  0  0  0  0  0999 V2000
   -6.0630   -1.8277    1.4394 C   0  0  0  0  0  0  0  0  0  0  0  0
   -6.0462   -0.4217    0.7982 C   0  0  0  0  0  0  0  0  0  0  0  0
   -7.1180   -0.4172   -0.3145 C   0  0  0  0  0  0  0  0  0  0  0  0
   -6.4497    0.5836    1.8994 C   0  0  0  0  0  0  0  0  0  0  0  0
   -4.6831   -0.0189    0.2036 C   0  0  0  0  0  0  0  0  0  0  0  0
   -4.5269    1.2348   -0.4140 C   0  0  0  0  0  0  0  0  0  0  0  0
   -3.3042    1.6379   -0.9586 C   0  0  0  0  0  0  0  0  0  0  0  0
   -2.1980    0.7935   -0.8939 C   0  0  0  0  0  0  0  0  0  0  0  0
   -0.9523    1.1025   -1.3801 O   0  0  0  0  0  0  0  0  0  0  0  0
   -0.6961    2.4770   -1.7012 C   0  0  0  0  0  0  0  0  0  0  0  0
    0.8166    2.6492   -1.8267 C   0  0  0  0  0  0  0  0  0  0  0  0
    1.3746    2.5660   -0.5019 O   0  0  0  0  0  0  0  0  0  0  0  0
    2.4728    1.7438   -0.4427 C   0  0  0  0  0  0  0  0  0  0  0  0
    3.6059    1.9937   -1.2109 C   0  0  0  0  0  0  0  0  0  0  0  0
    4.7099    1.1457   -1.1085 C   0  0  0  0  0  0  0  0  0  0  0  0
    4.7124    0.0452   -0.2285 C   0  0  0  0  0  0  0  0  0  0  0  0
    5.9519   -0.8675   -0.1378 C   0  0  0  0  0  0  0  0  0  0  0  0
    7.1782   -0.0385    0.3030 C   0  0  0  0  0  0  0  0  0  0  0  0
    6.2338   -1.4965   -1.5207 C   0  0  0  0  0  0  0  0  0  0  0  0
    5.8047   -2.0287    0.8726 C   0  0  0  0  0  0  0  0  0  0  0  0
    3.5574   -0.1688    0.5524 C   0  0  0  0  0  0  0  0  0  0  0  0
    2.4430    0.6725    0.4607 C   0  0  0  0  0  0  0  0  0  0  0  0
    1.2698    0.5110    1.2300 N   0  0  0  0  0  0  0  0  0  0  0  0
    0.9728   -0.4885    2.1216 C   0  0  0  0  0  0  0  0  0  0  0  0
    1.6260   -1.4840    2.3953 O   0  0  0  0  0  0  0  0  0  0  0  0
   -2.3277   -0.4793   -0.3072 C   0  0  0  0  0  0  0  0  0  0  0  0
   -1.1836   -1.3109   -0.3051 N   0  0  0  0  0  0  0  0  0  0  0  0
   -1.0525   -2.5751    0.2154 C   0  0  0  0  0  0  0  0  0  0  0  0
   -1.8784   -3.2405    0.8241 O   0  0  0  0  0  0  0  0  0  0  0  0
   -3.5595   -0.8660    0.2376 C   0  0  0  0  0  0  0  0  0  0  0  0
   -7.0548   -2.0651    1.8439 H   0  0  0  0  0  0  0  0  0  0  0  0
   -5.8194   -2.6085    0.7090 H   0  0  0  0  0  0  0  0  0  0  0  0
   -5.3509   -1.9018    2.2705 H   0  0  0  0  0  0  0  0  0  0  0  0
   -7.2575    0.5772   -0.7531 H   0  0  0  0  0  0  0  0  0  0  0  0
   -6.8438   -1.1015   -1.1263 H   0  0  0  0  0  0  0  0  0  0  0  0
   -8.0929   -0.7353    0.0737 H   0  0  0  0  0  0  0  0  0  0  0  0
   -5.7041    0.6069    2.7048 H   0  0  0  0  0  0  0  0  0  0  0  0
   -6.5515    1.6051    1.5155 H   0  0  0  0  0  0  0  0  0  0  0  0
   -7.4155    0.3143    2.3472 H   0  0  0  0  0  0  0  0  0  0  0  0
   -5.3679    1.9228   -0.4829 H   0  0  0  0  0  0  0  0  0  0  0  0
   -3.2591    2.6121   -1.4330 H   0  0  0  0  0  0  0  0  0  0  0  0
   -1.0642    3.1334   -0.9029 H   0  0  0  0  0  0  0  0  0  0  0  0
   -1.1769    2.7185   -2.6560 H   0  0  0  0  0  0  0  0  0  0  0  0
    1.2163    1.8786   -2.4995 H   0  0  0  0  0  0  0  0  0  0  0  0
    1.0526    3.6415   -2.2271 H   0  0  0  0  0  0  0  0  0  0  0  0
    3.6453    2.8470   -1.8808 H   0  0  0  0  0  0  0  0  0  0  0  0
    5.5814    1.3618   -1.7225 H   0  0  0  0  0  0  0  0  0  0  0  0
    7.0021    0.4402    1.2736 H   0  0  0  0  0  0  0  0  0  0  0  0
    7.4224    0.7534   -0.4135 H   0  0  0  0  0  0  0  0  0  0  0  0
    8.0693   -0.6708    0.3990 H   0  0  0  0  0  0  0  0  0  0  0  0
    6.4792   -0.7456   -2.2762 H   0  0  0  0  0  0  0  0  0  0  0  0
    7.0759   -2.1904   -1.4770 H   0  0  0  0  0  0  0  0  0  0  0  0
    5.3640   -2.0527   -1.8818 H   0  0  0  0  0  0  0  0  0  0  0  0
    5.6386   -1.6562    1.8928 H   0  0  0  0  0  0  0  0  0  0  0  0
    4.9717   -2.6973    0.6104 H   0  0  0  0  0  0  0  0  0  0  0  0
    6.7140   -2.6451    0.8999 H   0  0  0  0  0  0  0  0  0  0  0  0
    3.5304   -0.9970    1.2503 H   0  0  0  0  0  0  0  0  0  0  0  0
    0.5653    1.2269    1.0824 H   0  0  0  0  0  0  0  0  0  0  0  0
   -0.0119   -0.3107    2.5907 H   0  0  0  0  0  0  0  0  0  0  0  0
   -0.3662   -0.9092   -0.7546 H   0  0  0  0  0  0  0  0  0  0  0  0
   -0.0360   -2.9657    0.0301 H   0  0  0  0  0  0  0  0  0  0  0  0
   -3.6465   -1.8459    0.6928 H   0  0  0  0  0  0  0  0  0  0  0  0
  1  2  1  0
  2  3  1  0
  2  4  1  0
  2  5  1  0
  5  6  2  0
  6  7  1  0
  7  8  2  0
  8  9  1  0
  9 10  1  0
 10 11  1  0
 11 12  1  0
 12 13  1  0
 13 14  2  0
 14 15  1  0
 15 16  2  0
 16 17  1  0
 17 18  1  0
 17 19  1  0
 17 20  1  0
 16 21  1  0
 21 22  2  0
 22 23  1  0
 23 24  1  0
 24 25  2  0
  8 26  1  0
 26 27  1  0
 27 28  1  0
 28 29  2  0
 26 30  2  0
 30  5  1  0
 22 13  1  0
  1 31  1  0
  1 32  1  0
  1 33  1  0
  3 34  1  0
  3 35  1  0
  3 36  1  0
  4 37  1  0
  4 38  1  0
  4 39  1  0
  6 40  1  0
  7 41  1  0
 10 42  1  0
 10 43  1  0
 11 44  1  0
 11 45  1  0
 14 46  1  0
 15 47  1  0
 18 48  1  0
 18 49  1  0
 18 50  1  0
 19 51  1  0
 19 52  1  0
 19 53  1  0
 20 54  1  0
 20 55  1  0
 20 56  1  0
 21 57  1  0
 23 58  1  0
 24 59  1  0
 27 60  1  0
 28 61  1  0
 30 62  1  0
M  END
$$$$
