
     RDKit          3D

 52 55  0  0  0  0  0  0  0  0999 V2000
    3.6005    2.4785    0.5552 O   0  0  0  0  0  0  0  0  0  0  0  0
    3.4002    1.2703    0.6564 C   0  0  0  0  0  0  0  0  0  0  0  0
    2.3490    0.7378    1.3813 N   0  0  0  0  0  0  0  0  0  0  0  0
    1.2858    1.6290    1.6759 N   0  0  0  0  0  0  0  0  0  0  0  0
    0.0771    1.1869    1.0661 C   0  0  0  0  0  0  0  0  0  0  0  0
   -0.9946    2.0522    1.0342 C   0  0  0  0  0  0  0  0  0  0  0  0
   -2.1624    1.5980    0.4649 C   0  0  0  0  0  0  0  0  0  0  0  0
   -3.2752    2.4033    0.3583 N   0  0  0  0  0  0  0  0  0  0  0  0
   -3.5512    3.5234    1.2508 C   0  0  0  0  0  0  0  0  0  0  0  0
   -5.0772    3.6268    1.2646 C   0  0  0  0  0  0  0  0  0  0  0  0
   -5.4912    3.0078   -0.0609 C   0  0  0  0  0  0  0  0  0  0  0  0
   -4.5010    1.8577   -0.2136 C   0  0  0  0  0  0  0  0  0  0  0  0
   -2.2280    0.3530   -0.0357 N   0  0  0  0  0  0  0  0  0  0  0  0
   -1.1658   -0.4591    0.0619 C   0  0  0  0  0  0  0  0  0  0  0  0
   -1.2652   -1.7354   -0.4371 N   0  0  0  0  0  0  0  0  0  0  0  0
   -2.5755   -2.2934   -0.7416 C   0  0  0  0  0  0  0  0  0  0  0  0
   -2.4134   -3.7919   -0.4721 C   0  0  0  0  0  0  0  0  0  0  0  0
   -0.9172   -4.0273   -0.6153 C   0  0  0  0  0  0  0  0  0  0  0  0
   -0.3224   -2.7549   -0.0204 C   0  0  0  0  0  0  0  0  0  0  0  0
   -0.0043   -0.0765    0.6062 N   0  0  0  0  0  0  0  0  0  0  0  0
    4.3055    0.2996   -0.0108 C   0  0  0  0  0  0  0  0  0  0  0  0
    5.6609    0.6371   -0.1364 C   0  0  0  0  0  0  0  0  0  0  0  0
    6.5520   -0.2383   -0.7644 C   0  0  0  0  0  0  0  0  0  0  0  0
    6.0776   -1.4519   -1.2794 C   0  0  0  0  0  0  0  0  0  0  0  0
    7.0079   -2.3764   -1.9410 N   0  0  0  0  0  4  0  0  0  0  0  0
    6.5502   -3.4473   -2.3647 O   0  0  0  0  0  0  0  0  0  0  0  0
    8.1948   -2.0329   -2.0325 O   0  0  0  0  0  1  0  0  0  0  0  0
    4.7200   -1.7884   -1.1758 C   0  0  0  0  0  0  0  0  0  0  0  0
    3.8343   -0.9083   -0.5444 C   0  0  0  0  0  0  0  0  0  0  0  0
    2.0446   -0.2281    1.2756 H   0  0  0  0  0  0  0  0  0  0  0  0
    1.5227    2.5703    1.3405 H   0  0  0  0  0  0  0  0  0  0  0  0
   -0.9047    3.0544    1.4273 H   0  0  0  0  0  0  0  0  0  0  0  0
   -3.1793    3.3660    2.2693 H   0  0  0  0  0  0  0  0  0  0  0  0
   -3.1051    4.4376    0.8442 H   0  0  0  0  0  0  0  0  0  0  0  0
   -5.4830    3.0347    2.0940 H   0  0  0  0  0  0  0  0  0  0  0  0
   -5.4252    4.6570    1.3813 H   0  0  0  0  0  0  0  0  0  0  0  0
   -6.5312    2.6704   -0.0671 H   0  0  0  0  0  0  0  0  0  0  0  0
   -5.3572    3.7341   -0.8716 H   0  0  0  0  0  0  0  0  0  0  0  0
   -4.3821    1.5784   -1.2659 H   0  0  0  0  0  0  0  0  0  0  0  0
   -4.8458    0.9868    0.3577 H   0  0  0  0  0  0  0  0  0  0  0  0
   -2.8156   -2.1132   -1.7952 H   0  0  0  0  0  0  0  0  0  0  0  0
   -3.3863   -1.8955   -0.1205 H   0  0  0  0  0  0  0  0  0  0  0  0
   -3.0085   -4.4059   -1.1540 H   0  0  0  0  0  0  0  0  0  0  0  0
   -2.7280   -4.0208    0.5534 H   0  0  0  0  0  0  0  0  0  0  0  0
   -0.6515   -4.1106   -1.6761 H   0  0  0  0  0  0  0  0  0  0  0  0
   -0.5773   -4.9306   -0.1015 H   0  0  0  0  0  0  0  0  0  0  0  0
    0.6859   -2.5751   -0.4065 H   0  0  0  0  0  0  0  0  0  0  0  0
   -0.2828   -2.8332    1.0732 H   0  0  0  0  0  0  0  0  0  0  0  0
    6.0246    1.5853    0.2581 H   0  0  0  0  0  0  0  0  0  0  0  0
    7.6006    0.0421   -0.8459 H   0  0  0  0  0  0  0  0  0  0  0  0
    4.3363   -2.7195   -1.5895 H   0  0  0  0  0  0  0  0  0  0  0  0
    2.7780   -1.1640   -0.5104 H   0  0  0  0  0  0  0  0  0  0  0  0
  1  2  2  0
  2  3  1  0
  3  4  1  0
  4  5  1  0
  5  6  2  0
  6  7  1  0
  7  8  1  0
  8  9  1  0
  9 10  1  0
 10 11  1  0
 11 12  1  0
  7 13  2  0
 13 14  1  0
 14 15  1  0
 15 16  1  0
 16 17  1  0
 17 18  1  0
 18 19  1  0
 14 20  2  0
  2 21  1  0
 21 22  2  0
 22 23  1  0
 23 24  2  0
 24 25  1  0
 25 26  2  0
 25 27  1  0
 24 28  1  0
 28 29  2  0
 20  5  1  0
 29 21  1  0
 12  8  1  0
 19 15  1  0
  3 30  1  0
  4 31  1  0
  6 32  1  0
  9 33  1  0
  9 34  1  0
 10 35  1  0
 10 36  1  0
 11 37  1  0
 11 38  1  0
 12 39  1  0
 12 40  1  0
 16 41  1  0
 16 42  1  0
 17 43  1  0
 17 44  1  0
 18 45  1  0
 18 46  1  0
 19 47  1  0
 19 48  1  0
 22 49  1  0
 23 50  1  0
 28 51  1  0
 29 52  1  0
M  CHG  2  25   1  27  -1
M  END
$$$$
