
     RDKit          3D

 64 68  0  0  0  0  0  0  0  0999 V2000
   -3.4128    2.9405   -0.2079 C   0  0  0  0  0  0  0  0  0  0  0  0
   -4.0573    1.5486   -0.3407 C   0  0  0  0  0  0  0  0  0  0  0  0
   -4.0481    1.1491   -1.8256 C   0  0  0  0  0  0  0  0  0  0  0  0
   -5.5066    1.6125    0.1653 C   0  0  0  0  0  0  0  0  0  0  0  0
   -3.2799    0.5720    0.5651 C   0  0  0  0  0  0  0  0  0  0  0  0
   -2.9272    0.8788    1.7056 O   0  0  0  0  0  0  0  0  0  0  0  0
   -3.0205   -0.8198    0.0961 C   0  0  0  0  0  0  0  0  0  0  0  0
   -4.1035   -1.7126    0.3089 C   0  0  0  0  0  0  0  0  0  0  0  0
   -5.0159   -2.4064    0.4842 N   0  0  0  0  0  0  0  0  0  0  0  0
   -1.7861   -1.1675   -0.3314 C   0  0  0  0  0  0  0  0  0  0  0  0
   -0.4526   -0.0257   -0.3009 S   0  0  0  0  0  0  0  0  0  0  0  0
    0.6982   -1.2972   -0.3785 C   0  0  0  0  0  0  0  0  0  0  0  0
    2.0171   -1.2069   -0.1522 C   0  0  0  0  0  0  0  0  0  0  0  0
    2.7403   -0.0276    0.1873 C   0  0  0  0  0  0  0  0  0  0  0  0
    3.0608    0.9770   -0.6946 C   0  0  0  0  0  0  0  0  0  0  0  0
    3.8046    1.8997    0.0076 N   0  0  0  0  0  0  0  0  0  0  0  0
    4.3582    3.1240   -0.4663 C   0  0  0  0  0  0  0  0  0  0  0  0
    5.0811    3.9427    0.4173 C   0  0  0  0  0  0  0  0  0  0  0  0
    5.6349    5.1462   -0.0265 C   0  0  0  0  0  0  0  0  0  0  0  0
    5.4720    5.5423   -1.3517 C   0  0  0  0  0  0  0  0  0  0  0  0
    4.7538    4.7370   -2.2357 C   0  0  0  0  0  0  0  0  0  0  0  0
    4.1957    3.5309   -1.7986 C   0  0  0  0  0  0  0  0  0  0  0  0
    3.9911    1.5063    1.2934 N   0  0  0  0  0  0  0  0  0  0  0  0
    3.3293    0.3476    1.4235 C   0  0  0  0  0  0  0  0  0  0  0  0
    3.2963   -0.3440    2.7065 C   0  0  0  0  0  0  0  0  0  0  0  0
    2.1195   -0.8941    3.2217 C   0  0  0  0  0  0  0  0  0  0  0  0
    2.1416   -1.5459    4.4543 C   0  0  0  0  0  0  0  0  0  0  0  0
    3.3459   -1.6275    5.1362 C   0  0  0  0  0  0  0  0  0  0  0  0
    4.5020   -1.1024    4.6779 N   0  0  0  0  0  0  0  0  0  0  0  0
    4.4469   -0.4636    3.4805 C   0  0  0  0  0  0  0  0  0  0  0  0
    0.0598   -2.5916   -0.7293 C   0  0  0  0  0  0  0  0  0  0  0  0
    0.7124   -3.5908   -0.9997 O   0  0  0  0  0  0  0  0  0  0  0  0
   -1.3400   -2.4318   -0.7361 N   0  0  0  0  0  0  0  0  0  0  0  0
   -2.1427   -3.4942   -1.2590 C   0  0  0  0  0  0  0  0  0  0  0  0
   -1.8954   -4.8280   -0.8959 C   0  0  0  0  0  0  0  0  0  0  0  0
   -2.6679   -5.8659   -1.4268 C   0  0  0  0  0  0  0  0  0  0  0  0
   -3.6798   -5.5747   -2.3307 C   0  0  0  0  0  0  0  0  0  0  0  0
   -4.4151   -6.5683   -2.8447 F   0  0  0  0  0  0  0  0  0  0  0  0
   -3.9301   -4.2655   -2.7210 C   0  0  0  0  0  0  0  0  0  0  0  0
   -3.1591   -3.2276   -2.1928 C   0  0  0  0  0  0  0  0  0  0  0  0
   -3.9298    3.6816   -0.8302 H   0  0  0  0  0  0  0  0  0  0  0  0
   -2.3590    2.9211   -0.5145 H   0  0  0  0  0  0  0  0  0  0  0  0
   -3.4479    3.2995    0.8288 H   0  0  0  0  0  0  0  0  0  0  0  0
   -4.5555    0.1931   -1.9951 H   0  0  0  0  0  0  0  0  0  0  0  0
   -4.5653    1.8990   -2.4330 H   0  0  0  0  0  0  0  0  0  0  0  0
   -3.0263    1.0559   -2.2100 H   0  0  0  0  0  0  0  0  0  0  0  0
   -6.0920    2.3554   -0.3897 H   0  0  0  0  0  0  0  0  0  0  0  0
   -5.5429    1.8829    1.2280 H   0  0  0  0  0  0  0  0  0  0  0  0
   -6.0099    0.6446    0.0623 H   0  0  0  0  0  0  0  0  0  0  0  0
    2.6130   -2.1180   -0.2066 H   0  0  0  0  0  0  0  0  0  0  0  0
    2.8319    1.1003   -1.7419 H   0  0  0  0  0  0  0  0  0  0  0  0
    5.2199    3.6599    1.4597 H   0  0  0  0  0  0  0  0  0  0  0  0
    6.1936    5.7719    0.6666 H   0  0  0  0  0  0  0  0  0  0  0  0
    5.9059    6.4777   -1.6969 H   0  0  0  0  0  0  0  0  0  0  0  0
    4.6301    5.0488   -3.2700 H   0  0  0  0  0  0  0  0  0  0  0  0
    3.6466    2.9384   -2.5238 H   0  0  0  0  0  0  0  0  0  0  0  0
    1.1776   -0.7981    2.6907 H   0  0  0  0  0  0  0  0  0  0  0  0
    1.2370   -1.9697    4.8759 H   0  0  0  0  0  0  0  0  0  0  0  0
    3.4145   -2.1263    6.0998 H   0  0  0  0  0  0  0  0  0  0  0  0
    5.3918   -0.0391    3.1491 H   0  0  0  0  0  0  0  0  0  0  0  0
   -1.1080   -5.0762   -0.1879 H   0  0  0  0  0  0  0  0  0  0  0  0
   -2.4815   -6.8982   -1.1466 H   0  0  0  0  0  0  0  0  0  0  0  0
   -4.7147   -4.0573   -3.4403 H   0  0  0  0  0  0  0  0  0  0  0  0
   -3.3503   -2.2225   -2.5592 H   0  0  0  0  0  0  0  0  0  0  0  0
  1  2  1  0
  2  3  1  0
  2  4  1  0
  2  5  1  0
  5  6  2  0
  5  7  1  0
  7  8  1  0
  8  9  3  0
  7 10  2  3
 10 11  1  0
 11 12  1  0
 12 13  2  3
 13 14  1  0
 14 15  2  0
 15 16  1  0
 16 17  1  0
 17 18  2  0
 18 19  1  0
 19 20  2  0
 20 21  1  0
 21 22  2  0
 16 23  1  0
 23 24  2  0
 24 25  1  0
 25 26  2  0
 26 27  1  0
 27 28  2  0
 28 29  1  0
 29 30  2  0
 12 31  1  0
 31 32  2  0
 31 33  1  0
 33 34  1  0
 34 35  2  0
 35 36  1  0
 36 37  2  0
 37 38  1  0
 37 39  1  0
 39 40  2  0
 33 10  1  0
 40 34  1  0
 24 14  1  0
 30 25  1  0
 22 17  1  0
  1 41  1  0
  1 42  1  0
  1 43  1  0
  3 44  1  0
  3 45  1  0
  3 46  1  0
  4 47  1  0
  4 48  1  0
  4 49  1  0
 13 50  1  0
 15 51  1  0
 18 52  1  0
 19 53  1  0
 20 54  1  0
 21 55  1  0
 22 56  1  0
 26 57  1  0
 27 58  1  0
 28 59  1  0
 30 60  1  0
 35 61  1  0
 36 62  1  0
 39 63  1  0
 40 64  1  0
M  END
$$$$
