
     RDKit          3D

 24 26  0  0  0  0  0  0  0  0999 V2000
   -3.3610    2.2783    0.2046 N   0  0  0  0  0  0  0  0  0  0  0  0
   -2.6542    1.0976    0.1407 C   0  0  0  0  0  0  0  0  0  0  0  0
   -3.3455   -0.0389    0.2157 N   0  0  0  0  0  0  0  0  0  0  0  0
   -2.6315   -1.1763    0.1624 C   0  0  0  0  0  0  0  0  0  0  0  0
   -1.2589   -1.2171    0.0406 C   0  0  0  0  0  0  0  0  0  0  0  0
   -0.6298    0.0150   -0.0020 C   0  0  0  0  0  0  0  0  0  0  0  0
   -1.3253    1.1750    0.0586 N   0  0  0  0  0  0  0  0  0  0  0  0
    0.8380    0.1442   -0.1224 C   0  0  0  0  0  0  0  0  0  0  0  0
    1.4839    1.3594    0.1869 C   0  0  0  0  0  0  0  0  0  0  0  0
    2.8658    1.4983    0.0560 C   0  0  0  0  0  0  0  0  0  0  0  0
    3.6168    2.9957    0.4481 Cl  0  0  0  0  0  0  0  0  0  0  0  0
    3.6407    0.4352   -0.3915 C   0  0  0  0  0  0  0  0  0  0  0  0
    3.0275   -0.7761   -0.7076 C   0  0  0  0  0  0  0  0  0  0  0  0
    1.6393   -0.9293   -0.5678 C   0  0  0  0  0  0  0  0  0  0  0  0
    0.9411   -2.5141   -1.0216 S   0  0  0  0  0  0  0  0  0  0  0  0
   -0.5112   -2.5064    0.0616 C   0  0  0  0  0  0  0  0  0  0  0  0
   -4.2472    2.1261    0.6643 H   0  0  0  0  0  0  0  0  0  0  0  0
   -2.7717    3.0194    0.5549 H   0  0  0  0  0  0  0  0  0  0  0  0
   -3.2248   -2.0847    0.2287 H   0  0  0  0  0  0  0  0  0  0  0  0
    0.8983    2.2107    0.5303 H   0  0  0  0  0  0  0  0  0  0  0  0
    4.7166    0.5420   -0.5010 H   0  0  0  0  0  0  0  0  0  0  0  0
    3.6409   -1.6010   -1.0651 H   0  0  0  0  0  0  0  0  0  0  0  0
   -1.1567   -3.3303   -0.2614 H   0  0  0  0  0  0  0  0  0  0  0  0
   -0.1914   -2.7225    1.0873 H   0  0  0  0  0  0  0  0  0  0  0  0
  1  2  1  0
  2  3  2  0
  3  4  1  0
  4  5  2  0
  5  6  1  0
  6  7  2  0
  6  8  1  0
  8  9  2  0
  9 10  1  0
 10 11  1  0
 10 12  2  0
 12 13  1  0
 13 14  2  0
 14 15  1  0
 15 16  1  0
  7  2  1  0
 14  8  1  0
 16  5  1  0
  1 17  1  0
  1 18  1  0
  4 19  1  0
  9 20  1  0
 12 21  1  0
 13 22  1  0
 16 23  1  0
 16 24  1  0
M  END
$$$$
