
     RDKit          3D

 44 47  0  0  0  0  0  0  0  0999 V2000
    1.1650   -0.9088    2.7180 C   0  0  0  0  0  0  0  0  0  0  0  0
    1.9661   -1.1115    1.4309 C   0  0  0  0  0  0  0  0  0  0  0  0
    1.2562   -1.9032    0.4170 N   0  0  0  0  0  0  0  0  0  0  0  0
    0.0527   -1.4545   -0.1635 C   0  0  0  0  0  0  0  0  0  0  0  0
   -0.5269   -0.3274    0.2758 N   0  0  0  0  0  0  0  0  0  0  0  0
   -1.6548    0.0786   -0.3344 C   0  0  0  0  0  0  0  0  0  0  0  0
   -2.2840    1.3335    0.1278 C   0  0  0  0  0  0  0  0  0  0  0  0
   -3.2366    2.0087   -0.6609 C   0  0  0  0  0  0  0  0  0  0  0  0
   -3.8344    3.1983   -0.2313 C   0  0  0  0  0  0  0  0  0  0  0  0
   -3.4947    3.7416    1.0035 C   0  0  0  0  0  0  0  0  0  0  0  0
   -2.5612    3.0956    1.8078 C   0  0  0  0  0  0  0  0  0  0  0  0
   -1.9662    1.9064    1.3734 C   0  0  0  0  0  0  0  0  0  0  0  0
   -2.2544   -0.5736   -1.3440 N   0  0  0  0  0  0  0  0  0  0  0  0
   -1.7042   -1.7186   -1.7461 C   0  0  0  0  0  0  0  0  0  0  0  0
   -2.3260   -2.4261   -2.7685 C   0  0  0  0  0  0  0  0  0  0  0  0
   -1.8229   -3.6406   -3.2412 C   0  0  0  0  0  0  0  0  0  0  0  0
   -0.6711   -4.1711   -2.6795 C   0  0  0  0  0  0  0  0  0  0  0  0
   -0.0293   -3.4768   -1.6560 C   0  0  0  0  0  0  0  0  0  0  0  0
   -0.5327   -2.2358   -1.1820 C   0  0  0  0  0  0  0  0  0  0  0  0
    2.6438    0.1083    0.8255 C   0  0  0  0  0  0  0  0  0  0  0  0
    2.1091    1.3998    0.9283 C   0  0  0  0  0  0  0  0  0  0  0  0
    2.7552    2.4936    0.3468 C   0  0  0  0  0  0  0  0  0  0  0  0
    3.9487    2.3136   -0.3472 C   0  0  0  0  0  0  0  0  0  0  0  0
    4.4955    1.0390   -0.4645 C   0  0  0  0  0  0  0  0  0  0  0  0
    3.8476   -0.0546    0.1140 C   0  0  0  0  0  0  0  0  0  0  0  0
    1.8003   -0.4735    3.4979 H   0  0  0  0  0  0  0  0  0  0  0  0
    0.3065   -0.2457    2.6014 H   0  0  0  0  0  0  0  0  0  0  0  0
    0.7865   -1.8676    3.0900 H   0  0  0  0  0  0  0  0  0  0  0  0
    2.7947   -1.7598    1.7530 H   0  0  0  0  0  0  0  0  0  0  0  0
    1.8942   -2.1111   -0.3467 H   0  0  0  0  0  0  0  0  0  0  0  0
   -3.5194    1.6053   -1.6323 H   0  0  0  0  0  0  0  0  0  0  0  0
   -4.5647    3.6957   -0.8642 H   0  0  0  0  0  0  0  0  0  0  0  0
   -3.9589    4.6648    1.3395 H   0  0  0  0  0  0  0  0  0  0  0  0
   -2.2956    3.5115    2.7762 H   0  0  0  0  0  0  0  0  0  0  0  0
   -1.2495    1.4160    2.0277 H   0  0  0  0  0  0  0  0  0  0  0  0
   -3.2351   -2.0213   -3.2085 H   0  0  0  0  0  0  0  0  0  0  0  0
   -2.3384   -4.1680   -4.0395 H   0  0  0  0  0  0  0  0  0  0  0  0
   -0.2759   -5.1211   -3.0296 H   0  0  0  0  0  0  0  0  0  0  0  0
    0.8612   -3.9140   -1.2104 H   0  0  0  0  0  0  0  0  0  0  0  0
    1.1702    1.5697    1.4470 H   0  0  0  0  0  0  0  0  0  0  0  0
    2.3179    3.4852    0.4305 H   0  0  0  0  0  0  0  0  0  0  0  0
    4.4477    3.1657   -0.8006 H   0  0  0  0  0  0  0  0  0  0  0  0
    5.4252    0.8954   -1.0086 H   0  0  0  0  0  0  0  0  0  0  0  0
    4.2928   -1.0417    0.0091 H   0  0  0  0  0  0  0  0  0  0  0  0
  1  2  1  0
  2  3  1  0
  3  4  1  0
  4  5  2  0
  5  6  1  0
  6  7  1  0
  7  8  2  0
  8  9  1  0
  9 10  2  0
 10 11  1  0
 11 12  2  0
  6 13  2  0
 13 14  1  0
 14 15  2  0
 15 16  1  0
 16 17  2  0
 17 18  1  0
 18 19  2  0
  2 20  1  0
 20 21  2  0
 21 22  1  0
 22 23  2  0
 23 24  1  0
 24 25  2  0
 19  4  1  0
 25 20  1  0
 12  7  1  0
 19 14  1  0
  1 26  1  0
  1 27  1  0
  1 28  1  0
  2 29  1  0
  3 30  1  0
  8 31  1  0
  9 32  1  0
 10 33  1  0
 11 34  1  0
 12 35  1  0
 15 36  1  0
 16 37  1  0
 17 38  1  0
 18 39  1  0
 21 40  1  0
 22 41  1  0
 23 42  1  0
 24 43  1  0
 25 44  1  0
M  END
$$$$
