
     RDKit          3D

 41 44  0  0  0  0  0  0  0  0999 V2000
    3.8819   -4.6572    2.4527 C   0  0  0  0  0  0  0  0  0  0  0  0
    2.8762   -3.6508    2.4651 O   0  0  0  0  0  0  0  0  0  0  0  0
    2.6409   -2.9930    1.2873 C   0  0  0  0  0  0  0  0  0  0  0  0
    3.2888   -3.2252    0.0787 C   0  0  0  0  0  0  0  0  0  0  0  0
    2.9526   -2.4959   -1.0669 C   0  0  0  0  0  0  0  0  0  0  0  0
    1.9521   -1.5237   -0.9552 C   0  0  0  0  0  0  0  0  0  0  0  0
    1.4271   -0.6958   -1.9105 N   0  0  0  0  0  0  0  0  0  0  0  0
    0.4278    0.1052   -1.3966 C   0  0  0  0  0  0  0  0  0  0  0  0
   -0.3815    1.0496   -2.0576 C   0  0  0  0  0  0  0  0  0  0  0  0
   -0.2306    1.3201   -3.5353 C   0  0  0  0  0  0  0  0  0  0  0  0
   -1.3669    1.7131   -1.2769 C   0  0  0  0  0  0  0  0  0  0  0  0
   -2.2598    2.6316   -1.8581 C   0  0  0  0  0  0  0  0  0  0  0  0
   -3.2295    3.2674   -1.0984 C   0  0  0  0  0  0  0  0  0  0  0  0
   -3.3313    3.0116    0.2158 N   0  0  0  0  0  4  0  0  0  0  0  0
   -4.3717    3.6733    1.0216 C   0  0  0  0  0  0  0  0  0  0  0  0
   -2.4936    2.1376    0.8135 C   0  0  0  0  0  0  0  0  0  0  0  0
   -1.4769    1.4638    0.1125 C   0  0  0  0  0  0  0  0  0  0  0  0
   -0.5820    0.5531    0.7625 C   0  0  0  0  0  0  0  0  0  0  0  0
   -0.6407    0.3534    2.2604 C   0  0  0  0  0  0  0  0  0  0  0  0
    0.3429   -0.1802   -0.0343 C   0  0  0  0  0  0  0  0  0  0  0  0
    1.2890   -1.2419    0.2345 C   0  0  0  0  0  0  0  0  0  0  0  0
    1.6430   -2.0097    1.3677 C   0  0  0  0  0  0  0  0  0  0  0  0
    3.9466   -5.0771    3.4611 H   0  0  0  0  0  0  0  0  0  0  0  0
    3.6170   -5.4707    1.7693 H   0  0  0  0  0  0  0  0  0  0  0  0
    4.8608   -4.2337    2.2047 H   0  0  0  0  0  0  0  0  0  0  0  0
    4.0649   -3.9787   -0.0150 H   0  0  0  0  0  0  0  0  0  0  0  0
    3.4555   -2.6894   -2.0098 H   0  0  0  0  0  0  0  0  0  0  0  0
    1.7246   -0.7006   -2.8749 H   0  0  0  0  0  0  0  0  0  0  0  0
   -1.1411    1.0272   -4.0681 H   0  0  0  0  0  0  0  0  0  0  0  0
   -0.0295    2.3825   -3.7080 H   0  0  0  0  0  0  0  0  0  0  0  0
    0.5994    0.7633   -3.9784 H   0  0  0  0  0  0  0  0  0  0  0  0
   -2.2199    2.8641   -2.9204 H   0  0  0  0  0  0  0  0  0  0  0  0
   -3.9269    3.9740   -1.5390 H   0  0  0  0  0  0  0  0  0  0  0  0
   -3.8944    4.1069    1.9046 H   0  0  0  0  0  0  0  0  0  0  0  0
   -5.1043    2.9129    1.3042 H   0  0  0  0  0  0  0  0  0  0  0  0
   -4.8505    4.4634    0.4384 H   0  0  0  0  0  0  0  0  0  0  0  0
   -2.6726    1.9838    1.8722 H   0  0  0  0  0  0  0  0  0  0  0  0
   -1.3799   -0.4131    2.5103 H   0  0  0  0  0  0  0  0  0  0  0  0
   -0.8847    1.2814    2.7858 H   0  0  0  0  0  0  0  0  0  0  0  0
    0.3329    0.0648    2.6606 H   0  0  0  0  0  0  0  0  0  0  0  0
    1.1442   -1.8678    2.3201 H   0  0  0  0  0  0  0  0  0  0  0  0
  1  2  1  0
  2  3  1  0
  3  4  2  0
  4  5  1  0
  5  6  2  0
  6  7  1  0
  7  8  1  0
  8  9  2  0
  9 10  1  0
  9 11  1  0
 11 12  2  0
 12 13  1  0
 13 14  2  0
 14 15  1  0
 14 16  1  0
 16 17  2  0
 17 18  1  0
 18 19  1  0
 18 20  2  0
 20 21  1  0
 21 22  2  0
 22  3  1  0
 21  6  1  0
 20  8  1  0
 17 11  1  0
  1 23  1  0
  1 24  1  0
  1 25  1  0
  4 26  1  0
  5 27  1  0
  7 28  1  0
 10 29  1  0
 10 30  1  0
 10 31  1  0
 12 32  1  0
 13 33  1  0
 15 34  1  0
 15 35  1  0
 15 36  1  0
 16 37  1  0
 19 38  1  0
 19 39  1  0
 19 40  1  0
 22 41  1  0
M  CHG  1  14   1
M  END
$$$$
