
     RDKit          3D

 45 47  0  0  0  0  0  0  0  0999 V2000
    2.3377    1.5480   -0.8454 O   0  0  0  0  0  0  0  0  0  0  0  0
    2.0606    0.5331   -0.2099 C   0  0  0  0  0  0  0  0  0  0  0  0
    2.9944   -0.4508    0.0560 N   0  0  0  0  0  0  0  0  0  0  0  0
    4.3373   -0.1422   -0.2506 N   0  0  0  0  0  0  0  0  0  0  0  0
    5.3074   -0.5462    0.6577 C   0  0  0  0  0  0  0  0  0  0  0  0
    5.0057   -1.3189    1.5710 O   0  0  0  0  0  0  0  0  0  0  0  0
    6.6337    0.0164    0.4416 C   0  0  0  0  0  0  0  0  0  0  0  0
    7.1290    0.7661   -0.6128 C   0  0  0  0  0  0  0  0  0  0  0  0
    8.4978    1.1281   -0.4351 C   0  0  0  0  0  0  0  0  0  0  0  0
    9.0099    0.6416    0.7450 C   0  0  0  0  0  0  0  0  0  0  0  0
    7.8495   -0.2477    1.6275 S   0  0  0  0  0  0  0  0  0  0  0  0
    0.6923    0.3244    0.3388 C   0  0  0  0  0  0  0  0  0  0  0  0
    0.2005   -0.9504    0.6553 C   0  0  0  0  0  0  0  0  0  0  0  0
   -1.0956   -1.0957    1.1598 C   0  0  0  0  0  0  0  0  0  0  0  0
   -1.9067    0.0317    1.3265 C   0  0  0  0  0  0  0  0  0  0  0  0
   -3.5495   -0.1504    2.0001 S   0  0  0  0  0  6  0  0  0  0  0  0
   -3.5762   -1.3979    2.7342 O   0  0  0  0  0  0  0  0  0  0  0  0
   -3.8906    1.1031    2.6387 O   0  0  0  0  0  0  0  0  0  0  0  0
   -4.5125   -0.3254    0.6156 N   0  0  0  0  0  0  0  0  0  0  0  0
   -4.7883    0.8909   -0.1824 C   0  0  0  0  0  0  0  0  0  0  0  0
   -5.7123    0.5545   -1.3469 C   0  0  0  0  0  0  0  0  0  0  0  0
   -5.0755   -0.4611   -2.2945 C   0  0  0  0  0  0  0  0  0  0  0  0
   -4.0708   -1.3704   -1.5891 C   0  0  0  0  0  0  0  0  0  0  0  0
   -4.4447   -1.6035   -0.1311 C   0  0  0  0  0  0  0  0  0  0  0  0
   -1.4193    1.3074    1.0289 C   0  0  0  0  0  0  0  0  0  0  0  0
   -0.1253    1.4494    0.5227 C   0  0  0  0  0  0  0  0  0  0  0  0
    2.8774   -1.0938    0.8401 H   0  0  0  0  0  0  0  0  0  0  0  0
    4.4628    0.6989   -0.8106 H   0  0  0  0  0  0  0  0  0  0  0  0
    6.5530    1.0459   -1.4864 H   0  0  0  0  0  0  0  0  0  0  0  0
    9.0771    1.7129   -1.1397 H   0  0  0  0  0  0  0  0  0  0  0  0
   10.0126    0.7611    1.1327 H   0  0  0  0  0  0  0  0  0  0  0  0
    0.8010   -1.8436    0.5033 H   0  0  0  0  0  0  0  0  0  0  0  0
   -1.4634   -2.0866    1.4200 H   0  0  0  0  0  0  0  0  0  0  0  0
   -5.2813    1.6356    0.4512 H   0  0  0  0  0  0  0  0  0  0  0  0
   -3.8565    1.3212   -0.5626 H   0  0  0  0  0  0  0  0  0  0  0  0
   -5.9755    1.4626   -1.9008 H   0  0  0  0  0  0  0  0  0  0  0  0
   -6.6512    0.1411   -0.9562 H   0  0  0  0  0  0  0  0  0  0  0  0
   -5.8683   -1.0627   -2.7551 H   0  0  0  0  0  0  0  0  0  0  0  0
   -4.5673    0.0589   -3.1155 H   0  0  0  0  0  0  0  0  0  0  0  0
   -3.0750   -0.9113   -1.6387 H   0  0  0  0  0  0  0  0  0  0  0  0
   -4.0012   -2.3254   -2.1217 H   0  0  0  0  0  0  0  0  0  0  0  0
   -5.4250   -2.0898   -0.0622 H   0  0  0  0  0  0  0  0  0  0  0  0
   -3.7228   -2.2928    0.3161 H   0  0  0  0  0  0  0  0  0  0  0  0
   -2.0346    2.1906    1.1889 H   0  0  0  0  0  0  0  0  0  0  0  0
    0.2494    2.4434    0.2817 H   0  0  0  0  0  0  0  0  0  0  0  0
  1  2  2  0
  2  3  1  0
  3  4  1  0
  4  5  1  0
  5  6  2  0
  5  7  1  0
  7  8  2  0
  8  9  1  0
  9 10  2  0
 10 11  1  0
  2 12  1  0
 12 13  2  0
 13 14  1  0
 14 15  2  0
 15 16  1  0
 16 17  2  0
 16 18  2  0
 16 19  1  0
 19 20  1  0
 20 21  1  0
 21 22  1  0
 22 23  1  0
 23 24  1  0
 15 25  1  0
 25 26  2  0
 11  7  1  0
 26 12  1  0
 24 19  1  0
  3 27  1  0
  4 28  1  0
  8 29  1  0
  9 30  1  0
 10 31  1  0
 13 32  1  0
 14 33  1  0
 20 34  1  0
 20 35  1  0
 21 36  1  0
 21 37  1  0
 22 38  1  0
 22 39  1  0
 23 40  1  0
 23 41  1  0
 24 42  1  0
 24 43  1  0
 25 44  1  0
 26 45  1  0
M  END
$$$$
