
     RDKit          3D

 49 52  0  0  0  0  0  0  0  0999 V2000
    0.6771   -4.5102    0.8571 N   0  0  0  0  0  0  0  0  0  0  0  0
   -0.0727   -3.4847    0.4127 C   0  0  0  0  0  0  0  0  0  0  0  0
   -0.9131   -3.5981   -0.5702 N   0  0  0  0  0  0  0  0  0  0  0  0
   -1.5085   -2.2358   -0.7018 C   0  0  0  0  0  0  0  0  0  0  0  0
   -0.8379   -1.3352    0.3597 C   0  0  0  0  0  0  0  0  0  0  0  0
   -1.8385   -0.7160    1.3439 C   0  0  0  0  0  0  0  0  0  0  0  0
   -2.6213    0.4248    0.7357 C   0  0  0  0  0  0  0  0  0  0  0  0
   -3.9850    0.2807    0.4477 C   0  0  0  0  0  0  0  0  0  0  0  0
   -4.6999    1.3342   -0.1242 C   0  0  0  0  0  0  0  0  0  0  0  0
   -4.0551    2.5317   -0.4086 C   0  0  0  0  0  0  0  0  0  0  0  0
   -4.7920    3.5330   -0.9685 O   0  0  0  0  0  0  0  0  0  0  0  0
   -2.7030    2.6966   -0.1292 C   0  0  0  0  0  0  0  0  0  0  0  0
   -1.9875    1.6435    0.4441 C   0  0  0  0  0  0  0  0  0  0  0  0
    0.0433   -2.2870    1.0387 N   0  0  0  0  0  0  0  0  0  0  0  0
    1.2463   -1.7924    1.7022 C   0  0  0  0  0  0  0  0  0  0  0  0
    2.4877   -1.7116    0.7957 C   0  0  0  0  0  0  0  0  0  0  0  0
    2.4046   -0.6725   -0.3074 C   0  0  0  0  0  0  0  0  0  0  0  0
    2.1453   -1.1346   -1.6114 C   0  0  0  0  0  0  0  0  0  0  0  0
    1.9994   -0.2444   -2.6682 C   0  0  0  0  0  0  0  0  0  0  0  0
    2.1086    1.1235   -2.4399 C   0  0  0  0  0  0  0  0  0  0  0  0
    2.3716    1.6208   -1.1555 C   0  0  0  0  0  0  0  0  0  0  0  0
    2.4733    3.0066   -0.9499 C   0  0  0  0  0  0  0  0  0  0  0  0
    2.7368    3.5281    0.3148 C   0  0  0  0  0  0  0  0  0  0  0  0
    2.9075    2.6683    1.3905 C   0  0  0  0  0  0  0  0  0  0  0  0
    2.8096    1.2872    1.2019 C   0  0  0  0  0  0  0  0  0  0  0  0
    2.5326    0.7254   -0.0663 C   0  0  0  0  0  0  0  0  0  0  0  0
    0.3680   -5.3727    0.4199 H   0  0  0  0  0  0  0  0  0  0  0  0
    0.6535   -4.5926    1.8646 H   0  0  0  0  0  0  0  0  0  0  0  0
   -1.3098   -1.8554   -1.7099 H   0  0  0  0  0  0  0  0  0  0  0  0
   -2.5932   -2.3086   -0.5738 H   0  0  0  0  0  0  0  0  0  0  0  0
   -0.2670   -0.5523   -0.1454 H   0  0  0  0  0  0  0  0  0  0  0  0
   -2.5197   -1.4846    1.7322 H   0  0  0  0  0  0  0  0  0  0  0  0
   -1.3127   -0.3256    2.2251 H   0  0  0  0  0  0  0  0  0  0  0  0
   -4.5015   -0.6521    0.6633 H   0  0  0  0  0  0  0  0  0  0  0  0
   -5.7566    1.2201   -0.3482 H   0  0  0  0  0  0  0  0  0  0  0  0
   -4.2117    4.2979   -1.1133 H   0  0  0  0  0  0  0  0  0  0  0  0
   -2.1904    3.6277   -0.3483 H   0  0  0  0  0  0  0  0  0  0  0  0
   -0.9287    1.7794    0.6594 H   0  0  0  0  0  0  0  0  0  0  0  0
    1.4768   -2.4604    2.5412 H   0  0  0  0  0  0  0  0  0  0  0  0
    1.0372   -0.8167    2.1541 H   0  0  0  0  0  0  0  0  0  0  0  0
    3.3695   -1.4944    1.4116 H   0  0  0  0  0  0  0  0  0  0  0  0
    2.6968   -2.6952    0.3571 H   0  0  0  0  0  0  0  0  0  0  0  0
    2.0290   -2.2011   -1.8023 H   0  0  0  0  0  0  0  0  0  0  0  0
    1.7905   -0.6173   -3.6675 H   0  0  0  0  0  0  0  0  0  0  0  0
    1.9856    1.8030   -3.2805 H   0  0  0  0  0  0  0  0  0  0  0  0
    2.3509    3.6956   -1.7833 H   0  0  0  0  0  0  0  0  0  0  0  0
    2.8166    4.6027    0.4552 H   0  0  0  0  0  0  0  0  0  0  0  0
    3.1236    3.0677    2.3781 H   0  0  0  0  0  0  0  0  0  0  0  0
    2.9642    0.6531    2.0703 H   0  0  0  0  0  0  0  0  0  0  0  0
  1  2  1  0
  2  3  2  0
  3  4  1  0
  4  5  1  0
  5  6  1  0
  6  7  1  0
  7  8  2  0
  8  9  1  0
  9 10  2  0
 10 11  1  0
 10 12  1  0
 12 13  2  0
  5 14  1  0
 14 15  1  0
 15 16  1  0
 16 17  1  0
 17 18  2  0
 18 19  1  0
 19 20  2  0
 20 21  1  0
 21 22  2  0
 22 23  1  0
 23 24  2  0
 24 25  1  0
 25 26  2  0
 14  2  1  0
 26 17  1  0
 13  7  1  0
 26 21  1  0
  1 27  1  0
  1 28  1  0
  4 29  1  0
  4 30  1  0
  5 31  1  0
  6 32  1  0
  6 33  1  0
  8 34  1  0
  9 35  1  0
 11 36  1  0
 12 37  1  0
 13 38  1  0
 15 39  1  0
 15 40  1  0
 16 41  1  0
 16 42  1  0
 18 43  1  0
 19 44  1  0
 20 45  1  0
 22 46  1  0
 23 47  1  0
 24 48  1  0
 25 49  1  0
M  END
$$$$
