
     RDKit          3D

 49 51  0  0  0  0  0  0  0  0999 V2000
    4.4650   -2.7121    2.6897 C   0  0  0  0  0  0  0  0  0  0  0  0
    4.8370   -1.8398    1.5258 C   0  0  0  0  0  0  0  0  0  0  0  0
    6.1803   -1.6800    1.1638 C   0  0  0  0  0  0  0  0  0  0  0  0
    6.5310   -0.8636    0.0880 C   0  0  0  0  0  0  0  0  0  0  0  0
    5.5431   -0.1861   -0.6196 C   0  0  0  0  0  0  0  0  0  0  0  0
    5.9624    0.5720   -1.6801 O   0  0  0  0  0  0  0  0  0  0  0  0
    4.1978   -0.2901   -0.2419 C   0  0  0  0  0  0  0  0  0  0  0  0
    3.1701    0.4722   -0.9953 C   0  0  0  0  0  0  0  0  0  0  0  0
    3.3890    0.7570   -2.1726 O   0  0  0  0  0  0  0  0  0  0  0  0
    1.9055    0.9224   -0.3824 C   0  0  0  0  0  0  0  0  0  0  0  0
    1.8426    1.3968    0.9209 C   0  0  0  0  0  0  0  0  0  0  0  0
    0.7009    1.8285    1.5087 N   0  0  0  0  0  0  0  0  0  0  0  0
   -0.4176    1.8040    0.7554 C   0  0  0  0  0  0  0  0  0  0  0  0
   -0.4518    1.3855   -0.5622 C   0  0  0  0  0  0  0  0  0  0  0  0
    0.7382    0.9451   -1.1466 C   0  0  0  0  0  0  0  0  0  0  0  0
   -1.7266    1.5167   -1.3235 C   0  0  0  0  0  0  0  0  0  0  0  0
   -2.9046    1.5752   -0.4702 N   0  0  0  0  0  0  0  0  0  0  0  0
   -4.2127    1.4789   -1.1134 C   0  0  0  0  0  0  0  0  0  0  0  0
   -4.5449    0.0992   -1.6976 C   0  0  0  0  0  0  0  0  0  0  0  0
   -4.7263   -1.0667   -0.7039 C   0  0  0  0  0  0  0  0  0  0  0  0
   -3.4148   -1.5363   -0.0754 C   0  0  0  0  0  0  0  0  0  0  0  0
   -5.7622   -0.7662    0.3785 C   0  0  0  0  0  0  0  0  0  0  0  0
   -2.8300    2.1177    0.8016 C   0  0  0  0  0  0  0  0  0  0  0  0
   -3.8109    2.4585    1.4596 O   0  0  0  0  0  0  0  0  0  0  0  0
   -1.5893    2.2273    1.3479 N   0  0  0  0  0  0  0  0  0  0  0  0
    3.8481   -1.1361    0.8215 C   0  0  0  0  0  0  0  0  0  0  0  0
    4.4420   -2.1186    3.6088 H   0  0  0  0  0  0  0  0  0  0  0  0
    3.4812   -3.1677    2.5365 H   0  0  0  0  0  0  0  0  0  0  0  0
    5.1848   -3.5281    2.8131 H   0  0  0  0  0  0  0  0  0  0  0  0
    6.9643   -2.2022    1.7090 H   0  0  0  0  0  0  0  0  0  0  0  0
    7.5731   -0.7611   -0.2036 H   0  0  0  0  0  0  0  0  0  0  0  0
    5.1679    0.8173   -2.2055 H   0  0  0  0  0  0  0  0  0  0  0  0
    2.7237    1.4642    1.5536 H   0  0  0  0  0  0  0  0  0  0  0  0
    0.7612    0.6306   -2.1879 H   0  0  0  0  0  0  0  0  0  0  0  0
   -1.7005    2.4366   -1.9194 H   0  0  0  0  0  0  0  0  0  0  0  0
   -1.8277    0.6622   -1.9990 H   0  0  0  0  0  0  0  0  0  0  0  0
   -5.0082    1.7798   -0.4245 H   0  0  0  0  0  0  0  0  0  0  0  0
   -4.2225    2.2216   -1.9212 H   0  0  0  0  0  0  0  0  0  0  0  0
   -3.7977   -0.1852   -2.4474 H   0  0  0  0  0  0  0  0  0  0  0  0
   -5.4873    0.2068   -2.2521 H   0  0  0  0  0  0  0  0  0  0  0  0
   -5.1108   -1.9112   -1.2923 H   0  0  0  0  0  0  0  0  0  0  0  0
   -2.6470   -1.6954   -0.8393 H   0  0  0  0  0  0  0  0  0  0  0  0
   -3.0310   -0.8246    0.6601 H   0  0  0  0  0  0  0  0  0  0  0  0
   -3.5646   -2.4883    0.4460 H   0  0  0  0  0  0  0  0  0  0  0  0
   -5.4122    0.0021    1.0748 H   0  0  0  0  0  0  0  0  0  0  0  0
   -5.9776   -1.6670    0.9634 H   0  0  0  0  0  0  0  0  0  0  0  0
   -6.7030   -0.4249   -0.0657 H   0  0  0  0  0  0  0  0  0  0  0  0
   -1.5346    2.5475    2.3029 H   0  0  0  0  0  0  0  0  0  0  0  0
    2.8073   -1.2745    1.1055 H   0  0  0  0  0  0  0  0  0  0  0  0
  1  2  1  0
  2  3  2  0
  3  4  1  0
  4  5  2  0
  5  6  1  0
  5  7  1  0
  7  8  1  0
  8  9  2  0
  8 10  1  0
 10 11  2  0
 11 12  1  0
 12 13  2  0
 13 14  1  0
 14 15  2  0
 14 16  1  0
 16 17  1  0
 17 18  1  0
 18 19  1  0
 19 20  1  0
 20 21  1  0
 20 22  1  0
 17 23  1  0
 23 24  2  0
 23 25  1  0
  7 26  2  0
 26  2  1  0
 15 10  1  0
 25 13  1  0
  1 27  1  0
  1 28  1  0
  1 29  1  0
  3 30  1  0
  4 31  1  0
  6 32  1  0
 11 33  1  0
 15 34  1  0
 16 35  1  0
 16 36  1  0
 18 37  1  0
 18 38  1  0
 19 39  1  0
 19 40  1  0
 20 41  1  0
 21 42  1  0
 21 43  1  0
 21 44  1  0
 22 45  1  0
 22 46  1  0
 22 47  1  0
 25 48  1  0
 26 49  1  0
M  END
$$$$
