
     RDKit          3D

 90 95  0  0  0  0  0  0  0  0999 V2000
    0.7221    2.2247   -3.6943 C   0  0  0  0  0  0  0  0  0  0  0  0
    1.0102    1.5655   -2.3322 C   0  0  0  0  0  0  0  0  0  0  0  0
   -0.0595    2.0590   -1.3560 C   0  0  0  0  0  0  0  0  0  0  0  0
    0.0639    1.4526   -0.0402 N   0  0  0  0  0  0  0  0  0  0  0  0
    0.7797    2.2313    1.0038 C   0  0  0  0  0  0  0  0  0  0  0  0
    1.9764    1.4920    1.5992 C   0  0  0  0  0  0  0  0  0  0  0  0
   -0.1830    2.7627    2.0950 C   0  0  0  0  0  0  0  0  0  0  0  0
   -0.5986    1.7865    3.0492 O   0  0  0  0  0  0  0  0  0  0  0  0
   -0.5572    0.2486    0.2723 C   0  0  0  0  0  0  0  0  0  0  0  0
   -0.4679   -0.2746    1.3835 O   0  0  0  0  0  0  0  0  0  0  0  0
   -1.4831   -0.3814   -0.6957 C   0  0  0  0  0  0  0  0  0  0  0  0
   -2.7714   -0.5926   -0.1444 C   0  0  0  0  0  0  0  0  0  0  0  0
   -3.8239   -1.1244   -0.8921 C   0  0  0  0  0  0  0  0  0  0  0  0
   -5.0798   -1.2099   -0.2615 N   0  0  0  0  0  0  0  0  0  0  0  0
   -6.2989   -1.5497   -0.8381 C   0  0  0  0  0  0  0  0  0  0  0  0
   -6.4508   -1.8353   -2.0173 O   0  0  0  0  0  0  0  0  0  0  0  0
   -7.3111   -1.4920    0.1119 N   0  0  0  0  0  0  0  0  0  0  0  0
   -8.7111   -1.6393   -0.0762 C   0  0  0  0  0  0  0  0  0  0  0  0
   -9.2670   -1.7307   -1.3596 C   0  0  0  0  0  0  0  0  0  0  0  0
  -10.6416   -1.8468   -1.5418 C   0  0  0  0  0  0  0  0  0  0  0  0
  -11.4891   -1.8683   -0.4417 C   0  0  0  0  0  0  0  0  0  0  0  0
  -10.9754   -1.7746    0.8568 C   0  0  0  0  0  0  0  0  0  0  0  0
  -11.8633   -1.8000    1.9453 C   0  0  0  0  0  0  0  0  0  0  0  0
  -11.3998   -1.7119    3.2555 C   0  0  0  0  0  0  0  0  0  0  0  0
  -10.0378   -1.5990    3.4918 C   0  0  0  0  0  0  0  0  0  0  0  0
   -9.1409   -1.5669    2.4193 C   0  0  0  0  0  0  0  0  0  0  0  0
   -9.5728   -1.6574    1.0673 C   0  0  0  0  0  0  0  0  0  0  0  0
   -3.5696   -1.5029   -2.2008 C   0  0  0  0  0  0  0  0  0  0  0  0
   -2.2948   -1.3106   -2.7494 C   0  0  0  0  0  0  0  0  0  0  0  0
   -1.2331   -0.7368   -2.0218 C   0  0  0  0  0  0  0  0  0  0  0  0
   -0.1283   -0.6258   -2.8019 O   0  0  0  0  0  0  0  0  0  0  0  0
    1.1065    0.0290   -2.5082 C   0  0  0  0  0  0  0  0  0  0  0  0
    2.0043   -0.7763   -1.5298 C   0  0  0  0  0  0  0  0  0  0  0  0
    3.4282   -0.3528   -1.4562 N   0  0  0  0  0  0  0  0  0  0  0  0
    4.1287   -0.5896   -2.7240 C   0  0  0  0  0  0  0  0  0  0  0  0
    4.1003   -1.1024   -0.3698 C   0  0  0  0  0  0  0  0  0  0  0  0
    5.4829   -0.5871   -0.0159 C   0  0  0  0  0  0  0  0  0  0  0  0
    6.5676   -1.4660    0.0808 C   0  0  0  0  0  0  0  0  0  0  0  0
    7.8347   -0.9991    0.4542 C   0  0  0  0  0  0  0  0  0  0  0  0
    8.0557    0.3560    0.7530 C   0  0  0  0  0  0  0  0  0  0  0  0
    9.3866    0.8423    1.1640 C   0  0  0  0  0  0  0  0  0  0  0  0
   10.1066    0.2032    2.1867 C   0  0  0  0  0  0  0  0  0  0  0  0
   11.3660    0.6637    2.5825 C   0  0  0  0  0  0  0  0  0  0  0  0
   11.9273    1.7747    1.9618 C   0  0  0  0  0  0  0  0  0  0  0  0
   11.2317    2.4237    0.9452 C   0  0  0  0  0  0  0  0  0  0  0  0
    9.9709    1.9625    0.5506 C   0  0  0  0  0  0  0  0  0  0  0  0
    6.9632    1.2316    0.6470 C   0  0  0  0  0  0  0  0  0  0  0  0
    5.6975    0.7683    0.2684 C   0  0  0  0  0  0  0  0  0  0  0  0
    0.6321    3.3107   -3.5941 H   0  0  0  0  0  0  0  0  0  0  0  0
   -0.2049    1.8448   -4.1332 H   0  0  0  0  0  0  0  0  0  0  0  0
    1.5316    2.0297   -4.4044 H   0  0  0  0  0  0  0  0  0  0  0  0
    1.9853    1.9366   -1.9968 H   0  0  0  0  0  0  0  0  0  0  0  0
    0.0027    3.1502   -1.2468 H   0  0  0  0  0  0  0  0  0  0  0  0
   -1.0636    1.8867   -1.7557 H   0  0  0  0  0  0  0  0  0  0  0  0
    1.1933    3.1186    0.5018 H   0  0  0  0  0  0  0  0  0  0  0  0
    2.6836    1.2547    0.8063 H   0  0  0  0  0  0  0  0  0  0  0  0
    1.7082    0.5593    2.1008 H   0  0  0  0  0  0  0  0  0  0  0  0
    2.4935    2.1279    2.3245 H   0  0  0  0  0  0  0  0  0  0  0  0
    0.3138    3.5627    2.6552 H   0  0  0  0  0  0  0  0  0  0  0  0
   -1.0805    3.1868    1.6309 H   0  0  0  0  0  0  0  0  0  0  0  0
   -0.5538    0.9049    2.6121 H   0  0  0  0  0  0  0  0  0  0  0  0
   -2.9455   -0.3002    0.8915 H   0  0  0  0  0  0  0  0  0  0  0  0
   -5.1143   -0.8942    0.6953 H   0  0  0  0  0  0  0  0  0  0  0  0
   -7.0009   -1.4237    1.0649 H   0  0  0  0  0  0  0  0  0  0  0  0
   -8.6522   -1.7001   -2.2541 H   0  0  0  0  0  0  0  0  0  0  0  0
  -11.0487   -1.9140   -2.5482 H   0  0  0  0  0  0  0  0  0  0  0  0
  -12.5619   -1.9582   -0.6071 H   0  0  0  0  0  0  0  0  0  0  0  0
  -12.9339   -1.8877    1.7793 H   0  0  0  0  0  0  0  0  0  0  0  0
  -12.1004   -1.7379    4.0838 H   0  0  0  0  0  0  0  0  0  0  0  0
   -9.6678   -1.5359    4.5140 H   0  0  0  0  0  0  0  0  0  0  0  0
   -8.0893   -1.4853    2.6738 H   0  0  0  0  0  0  0  0  0  0  0  0
   -4.3385   -1.9399   -2.8318 H   0  0  0  0  0  0  0  0  0  0  0  0
   -2.1343   -1.6140   -3.7852 H   0  0  0  0  0  0  0  0  0  0  0  0
    1.6242   -0.0952   -3.4676 H   0  0  0  0  0  0  0  0  0  0  0  0
    1.5718   -0.7292   -0.5291 H   0  0  0  0  0  0  0  0  0  0  0  0
    1.9451   -1.8401   -1.8082 H   0  0  0  0  0  0  0  0  0  0  0  0
    5.1879   -0.3188   -2.6532 H   0  0  0  0  0  0  0  0  0  0  0  0
    3.7295    0.0422   -3.5244 H   0  0  0  0  0  0  0  0  0  0  0  0
    4.0665   -1.6398   -3.0401 H   0  0  0  0  0  0  0  0  0  0  0  0
    4.1481   -2.1687   -0.6242 H   0  0  0  0  0  0  0  0  0  0  0  0
    3.5119   -1.0337    0.5539 H   0  0  0  0  0  0  0  0  0  0  0  0
    6.4380   -2.5255   -0.1281 H   0  0  0  0  0  0  0  0  0  0  0  0
    8.6582   -1.7103    0.5101 H   0  0  0  0  0  0  0  0  0  0  0  0
    9.6808   -0.6594    2.6990 H   0  0  0  0  0  0  0  0  0  0  0  0
   11.9035    0.1514    3.3750 H   0  0  0  0  0  0  0  0  0  0  0  0
   12.9063    2.1361    2.2668 H   0  0  0  0  0  0  0  0  0  0  0  0
   11.6649    3.2890    0.4554 H   0  0  0  0  0  0  0  0  0  0  0  0
    9.4515    2.4806   -0.2517 H   0  0  0  0  0  0  0  0  0  0  0  0
    7.0835    2.2898    0.8810 H   0  0  0  0  0  0  0  0  0  0  0  0
    4.8737    1.4754    0.1965 H   0  0  0  0  0  0  0  0  0  0  0  0
  1  2  1  0
  2  3  1  0
  3  4  1  0
  4  5  1  0
  5  6  1  0
  5  7  1  0
  7  8  1  0
  4  9  1  0
  9 10  2  0
  9 11  1  0
 11 12  2  0
 12 13  1  0
 13 14  1  0
 14 15  1  0
 15 16  2  0
 15 17  1  0
 17 18  1  0
 18 19  2  0
 19 20  1  0
 20 21  2  0
 21 22  1  0
 22 23  2  0
 23 24  1  0
 24 25  2  0
 25 26  1  0
 26 27  2  0
 13 28  2  0
 28 29  1  0
 29 30  2  0
 30 31  1  0
 31 32  1  0
 32 33  1  0
 33 34  1  0
 34 35  1  0
 34 36  1  0
 36 37  1  0
 37 38  2  0
 38 39  1  0
 39 40  2  0
 40 41  1  0
 41 42  2  0
 42 43  1  0
 43 44  2  0
 44 45  1  0
 45 46  2  0
 40 47  1  0
 47 48  2  0
 32  2  1  0
 48 37  1  0
 30 11  1  0
 46 41  1  0
 27 18  1  0
 27 22  1  0
  1 49  1  0
  1 50  1  0
  1 51  1  0
  2 52  1  0
  3 53  1  0
  3 54  1  0
  5 55  1  0
  6 56  1  0
  6 57  1  0
  6 58  1  0
  7 59  1  0
  7 60  1  0
  8 61  1  0
 12 62  1  0
 14 63  1  0
 17 64  1  0
 19 65  1  0
 20 66  1  0
 21 67  1  0
 23 68  1  0
 24 69  1  0
 25 70  1  0
 26 71  1  0
 28 72  1  0
 29 73  1  0
 32 74  1  0
 33 75  1  0
 33 76  1  0
 35 77  1  0
 35 78  1  0
 35 79  1  0
 36 80  1  0
 36 81  1  0
 38 82  1  0
 39 83  1  0
 42 84  1  0
 43 85  1  0
 44 86  1  0
 45 87  1  0
 46 88  1  0
 47 89  1  0
 48 90  1  0
M  END
$$$$
