
     RDKit          3D

 62 65  0  0  0  0  0  0  0  0999 V2000
   -7.1296   -1.0116   -1.4357 C   0  0  0  0  0  0  0  0  0  0  0  0
   -6.6953   -0.8353   -0.0953 O   0  0  0  0  0  0  0  0  0  0  0  0
   -5.5092   -1.5781    0.1709 C   0  0  0  0  0  0  0  0  0  0  0  0
   -5.1338   -1.3173    1.5924 C   0  0  0  0  0  0  0  0  0  0  0  0
   -3.9531   -0.8832    2.0656 C   0  0  0  0  0  0  0  0  0  0  0  0
   -2.7545   -0.6109    1.2922 C   0  0  0  0  0  0  0  0  0  0  0  0
   -2.1144   -1.6546    0.7100 C   0  0  0  0  0  0  0  0  0  0  0  0
   -0.8764   -1.4239   -0.0372 C   0  0  0  0  0  0  0  0  0  0  0  0
   -0.2333   -2.4563   -0.5991 C   0  0  0  0  0  0  0  0  0  0  0  0
    1.0310   -2.2785   -1.3480 C   0  0  0  0  0  0  0  0  0  0  0  0
    1.6195   -3.2877   -1.7368 O   0  0  0  0  0  0  0  0  0  0  0  0
    1.5285   -0.8683   -1.6728 C   0  0  0  0  0  0  0  0  0  0  0  0
    1.1507   -0.6007   -3.1391 C   0  0  0  0  0  0  0  0  0  0  0  0
    2.9650   -0.7912   -1.6243 O   0  0  0  0  0  0  0  0  0  0  0  0
    3.4973   -0.9515   -0.3832 C   0  0  0  0  0  0  0  0  0  0  0  0
    2.8452   -1.2174    0.6137 O   0  0  0  0  0  0  0  0  0  0  0  0
    4.9677   -0.7192   -0.4098 C   0  0  0  0  0  0  0  0  0  0  0  0
    5.6665   -0.5655   -1.5946 C   0  0  0  0  0  0  0  0  0  0  0  0
    7.0018   -0.3298   -1.6290 N   0  0  0  0  0  0  0  0  0  0  0  0
    7.6258   -0.2461   -0.4374 C   0  0  0  0  0  0  0  0  0  0  0  0
    8.9911    0.0051   -0.3914 C   0  0  0  0  0  0  0  0  0  0  0  0
    9.6697    0.1066    0.8236 C   0  0  0  0  0  0  0  0  0  0  0  0
    8.9717   -0.0481    2.0140 C   0  0  0  0  0  0  0  0  0  0  0  0
    7.6016   -0.3070    1.9809 C   0  0  0  0  0  0  0  0  0  0  0  0
    6.9144   -0.4077    0.7787 C   0  0  0  0  0  0  0  0  0  0  0  0
    5.5911   -0.6492    0.7948 N   0  0  0  0  0  0  0  0  0  0  0  0
    0.8927    0.2532   -0.8521 C   0  0  0  0  0  0  0  0  0  0  0  0
    1.3693    1.3916   -0.8360 O   0  0  0  0  0  0  0  0  0  0  0  0
   -0.3564   -0.0658   -0.1166 C   0  0  0  0  0  0  0  0  0  0  0  0
   -1.0457    0.9107    0.4953 C   0  0  0  0  0  0  0  0  0  0  0  0
   -2.2471    0.7080    1.1955 N   0  0  0  0  0  0  0  0  0  0  0  0
   -2.9122    1.8742    1.8192 C   0  0  0  0  0  0  0  0  0  0  0  0
   -3.5430    2.8161    0.7748 C   0  0  0  0  0  0  0  0  0  0  0  0
   -4.0122    4.1030    1.4599 C   0  0  0  0  0  0  0  0  0  0  0  0
   -4.7168    2.1629    0.0429 C   0  0  0  0  0  0  0  0  0  0  0  0
   -7.3380   -2.0665   -1.6352 H   0  0  0  0  0  0  0  0  0  0  0  0
   -8.0505   -0.4422   -1.5742 H   0  0  0  0  0  0  0  0  0  0  0  0
   -6.3755   -0.6375   -2.1344 H   0  0  0  0  0  0  0  0  0  0  0  0
   -4.7264   -1.2842   -0.5326 H   0  0  0  0  0  0  0  0  0  0  0  0
   -5.7164   -2.6487    0.0437 H   0  0  0  0  0  0  0  0  0  0  0  0
   -5.9376   -1.4732    2.3085 H   0  0  0  0  0  0  0  0  0  0  0  0
   -3.8626   -0.6843    3.1306 H   0  0  0  0  0  0  0  0  0  0  0  0
   -2.4882   -2.6691    0.8101 H   0  0  0  0  0  0  0  0  0  0  0  0
   -0.5858   -3.4802   -0.5229 H   0  0  0  0  0  0  0  0  0  0  0  0
    1.6040   -1.3451   -3.8057 H   0  0  0  0  0  0  0  0  0  0  0  0
    0.0657   -0.6235   -3.2895 H   0  0  0  0  0  0  0  0  0  0  0  0
    1.5169    0.3775   -3.4688 H   0  0  0  0  0  0  0  0  0  0  0  0
    5.1894   -0.6236   -2.5670 H   0  0  0  0  0  0  0  0  0  0  0  0
    9.5361    0.1273   -1.3243 H   0  0  0  0  0  0  0  0  0  0  0  0
   10.7383    0.3067    0.8360 H   0  0  0  0  0  0  0  0  0  0  0  0
    9.4866    0.0328    2.9674 H   0  0  0  0  0  0  0  0  0  0  0  0
    7.0544   -0.4300    2.9126 H   0  0  0  0  0  0  0  0  0  0  0  0
   -0.7043    1.9429    0.4812 H   0  0  0  0  0  0  0  0  0  0  0  0
   -3.6738    1.5757    2.5446 H   0  0  0  0  0  0  0  0  0  0  0  0
   -2.1629    2.4242    2.4007 H   0  0  0  0  0  0  0  0  0  0  0  0
   -2.7922    3.0945    0.0248 H   0  0  0  0  0  0  0  0  0  0  0  0
   -3.1729    4.6103    1.9472 H   0  0  0  0  0  0  0  0  0  0  0  0
   -4.4449    4.7966    0.7306 H   0  0  0  0  0  0  0  0  0  0  0  0
   -4.7693    3.8948    2.2232 H   0  0  0  0  0  0  0  0  0  0  0  0
   -5.1854    2.8696   -0.6489 H   0  0  0  0  0  0  0  0  0  0  0  0
   -5.4856    1.8245    0.7466 H   0  0  0  0  0  0  0  0  0  0  0  0
   -4.3864    1.3042   -0.5476 H   0  0  0  0  0  0  0  0  0  0  0  0
  1  2  1  0
  2  3  1  0
  3  4  1  0
  4  5  2  3
  5  6  1  0
  6  7  2  0
  7  8  1  0
  8  9  2  0
  9 10  1  0
 10 11  2  0
 10 12  1  0
 12 13  1  0
 12 14  1  0
 14 15  1  0
 15 16  2  0
 15 17  1  0
 17 18  2  0
 18 19  1  0
 19 20  2  0
 20 21  1  0
 21 22  2  0
 22 23  1  0
 23 24  2  0
 24 25  1  0
 25 26  2  0
 12 27  1  0
 27 28  2  0
 27 29  1  0
 29 30  2  0
 30 31  1  0
 31 32  1  0
 32 33  1  0
 33 34  1  0
 33 35  1  0
 31  6  1  0
 29  8  1  0
 26 17  1  0
 25 20  1  0
  1 36  1  0
  1 37  1  0
  1 38  1  0
  3 39  1  0
  3 40  1  0
  4 41  1  0
  5 42  1  0
  7 43  1  0
  9 44  1  0
 13 45  1  0
 13 46  1  0
 13 47  1  0
 18 48  1  0
 21 49  1  0
 22 50  1  0
 23 51  1  0
 24 52  1  0
 30 53  1  0
 32 54  1  0
 32 55  1  0
 33 56  1  0
 34 57  1  0
 34 58  1  0
 34 59  1  0
 35 60  1  0
 35 61  1  0
 35 62  1  0
M  END
$$$$
