
     RDKit          3D

 57 60  0  0  0  0  0  0  0  0999 V2000
   -3.9934   -2.5897   -2.3112 C   0  0  0  0  0  0  0  0  0  0  0  0
   -4.1999   -1.4942   -1.4247 O   0  0  0  0  0  0  0  0  0  0  0  0
   -3.0607   -0.8249   -1.0747 C   0  0  0  0  0  0  0  0  0  0  0  0
   -2.1431   -0.4160   -2.0561 C   0  0  0  0  0  0  0  0  0  0  0  0
   -1.0142    0.3222   -1.7040 C   0  0  0  0  0  0  0  0  0  0  0  0
   -0.8019    0.6615   -0.3678 C   0  0  0  0  0  0  0  0  0  0  0  0
    0.3704    1.4691    0.0010 C   0  0  0  0  0  0  0  0  0  0  0  0
    0.1830    2.6410    0.3252 O   0  0  0  0  0  0  0  0  0  0  0  0
    1.6172    0.8658   -0.0596 N   0  0  0  0  0  0  0  0  0  0  0  0
    1.8310   -0.5863   -0.1905 C   0  0  0  0  0  0  0  0  0  0  0  0
    3.2510   -1.0170    0.2327 C   0  0  0  0  0  0  0  0  0  0  0  0
    4.2535   -0.2626   -0.5365 N   0  0  0  0  0  0  0  0  0  0  0  0
    5.5831   -0.6719   -0.5497 C   0  0  0  0  0  0  0  0  0  0  0  0
    6.1462   -1.4490    0.4701 C   0  0  0  0  0  0  0  0  0  0  0  0
    7.4895   -1.8380    0.4279 C   0  0  0  0  0  0  0  0  0  0  0  0
    8.2974   -1.4595   -0.6441 C   0  0  0  0  0  0  0  0  0  0  0  0
    7.7604   -0.6954   -1.6743 C   0  0  0  0  0  0  0  0  0  0  0  0
    6.4194   -0.3054   -1.6211 C   0  0  0  0  0  0  0  0  0  0  0  0
    3.9942    1.1782   -0.7464 C   0  0  0  0  0  0  0  0  0  0  0  0
    2.8195    1.6829    0.1136 C   0  0  0  0  0  0  0  0  0  0  0  0
   -1.7164    0.2878    0.6167 C   0  0  0  0  0  0  0  0  0  0  0  0
   -2.8548   -0.4495    0.2596 C   0  0  0  0  0  0  0  0  0  0  0  0
   -3.9429   -0.9812    1.5707 S   0  0  0  0  0  6  0  0  0  0  0  0
   -4.6119   -2.2015    1.1712 O   0  0  0  0  0  0  0  0  0  0  0  0
   -3.1532   -0.9710    2.7881 O   0  0  0  0  0  0  0  0  0  0  0  0
   -5.0821    0.2495    1.6965 N   0  0  0  0  0  0  0  0  0  0  0  0
   -4.6726    1.5698    2.2289 C   0  0  0  0  0  0  0  0  0  0  0  0
   -5.3302    2.5863    1.3034 C   0  0  0  0  0  0  0  0  0  0  0  0
   -6.5764    1.8630    0.8353 C   0  0  0  0  0  0  0  0  0  0  0  0
   -6.0792    0.4384    0.6275 C   0  0  0  0  0  0  0  0  0  0  0  0
   -4.8249   -3.2900   -2.1845 H   0  0  0  0  0  0  0  0  0  0  0  0
   -4.0084   -2.2399   -3.3475 H   0  0  0  0  0  0  0  0  0  0  0  0
   -3.0616   -3.1262   -2.0985 H   0  0  0  0  0  0  0  0  0  0  0  0
   -2.3119   -0.6420   -3.1055 H   0  0  0  0  0  0  0  0  0  0  0  0
   -0.3121    0.6428   -2.4710 H   0  0  0  0  0  0  0  0  0  0  0  0
    1.6730   -0.8393   -1.2489 H   0  0  0  0  0  0  0  0  0  0  0  0
    1.0806   -1.1186    0.4064 H   0  0  0  0  0  0  0  0  0  0  0  0
    3.3863   -0.8422    1.3087 H   0  0  0  0  0  0  0  0  0  0  0  0
    3.3571   -2.0921    0.0441 H   0  0  0  0  0  0  0  0  0  0  0  0
    5.5665   -1.7253    1.3443 H   0  0  0  0  0  0  0  0  0  0  0  0
    7.9159   -2.4035    1.2491 H   0  0  0  0  0  0  0  0  0  0  0  0
    9.3406   -1.7625   -0.6740 H   0  0  0  0  0  0  0  0  0  0  0  0
    8.3742   -0.4220   -2.5296 H   0  0  0  0  0  0  0  0  0  0  0  0
    6.0139    0.2554   -2.4564 H   0  0  0  0  0  0  0  0  0  0  0  0
    4.8794    1.7841   -0.5131 H   0  0  0  0  0  0  0  0  0  0  0  0
    3.7478    1.3309   -1.8048 H   0  0  0  0  0  0  0  0  0  0  0  0
    3.0893    1.6341    1.1778 H   0  0  0  0  0  0  0  0  0  0  0  0
    2.6014    2.7312   -0.1235 H   0  0  0  0  0  0  0  0  0  0  0  0
   -1.5303    0.5669    1.6516 H   0  0  0  0  0  0  0  0  0  0  0  0
   -3.5910    1.7189    2.2584 H   0  0  0  0  0  0  0  0  0  0  0  0
   -5.0592    1.6685    3.2519 H   0  0  0  0  0  0  0  0  0  0  0  0
   -4.6778    2.8017    0.4473 H   0  0  0  0  0  0  0  0  0  0  0  0
   -5.5490    3.5300    1.8110 H   0  0  0  0  0  0  0  0  0  0  0  0
   -7.3385    1.8858    1.6175 H   0  0  0  0  0  0  0  0  0  0  0  0
   -7.0080    2.2890   -0.0795 H   0  0  0  0  0  0  0  0  0  0  0  0
   -6.8933   -0.2834    0.7331 H   0  0  0  0  0  0  0  0  0  0  0  0
   -5.6427    0.3455   -0.3716 H   0  0  0  0  0  0  0  0  0  0  0  0
  1  2  1  0
  2  3  1  0
  3  4  2  0
  4  5  1  0
  5  6  2  0
  6  7  1  0
  7  8  2  0
  7  9  1  0
  9 10  1  0
 10 11  1  0
 11 12  1  0
 12 13  1  0
 13 14  2  0
 14 15  1  0
 15 16  2  0
 16 17  1  0
 17 18  2  0
 12 19  1  0
 19 20  1  0
  6 21  1  0
 21 22  2  0
 22 23  1  0
 23 24  2  0
 23 25  2  0
 23 26  1  0
 26 27  1  0
 27 28  1  0
 28 29  1  0
 29 30  1  0
 22  3  1  0
 30 26  1  0
 20  9  1  0
 18 13  1  0
  1 31  1  0
  1 32  1  0
  1 33  1  0
  4 34  1  0
  5 35  1  0
 10 36  1  0
 10 37  1  0
 11 38  1  0
 11 39  1  0
 14 40  1  0
 15 41  1  0
 16 42  1  0
 17 43  1  0
 18 44  1  0
 19 45  1  0
 19 46  1  0
 20 47  1  0
 20 48  1  0
 21 49  1  0
 27 50  1  0
 27 51  1  0
 28 52  1  0
 28 53  1  0
 29 54  1  0
 29 55  1  0
 30 56  1  0
 30 57  1  0
M  END
$$$$
