
     RDKit          3D

 47 49  0  0  0  0  0  0  0  0999 V2000
    7.0736   -0.9213    0.1222 C   0  0  0  0  0  0  0  0  0  0  0  0
    6.1017    0.1463    0.6013 C   0  0  0  0  0  0  0  0  0  0  0  0
    5.4896    0.9614   -0.5402 C   0  0  0  0  0  0  0  0  0  0  0  0
    4.4990    0.1981   -1.4277 C   0  0  0  0  0  0  0  0  0  0  0  0
    3.2812   -0.2299   -0.7393 N   0  0  0  0  0  0  0  0  0  0  0  0
    2.3692    0.8034   -0.2728 C   0  0  0  0  0  0  0  0  0  0  0  0
    1.0382    0.2835    0.1502 C   0  0  0  0  0  0  0  0  0  0  0  0
   -0.0707    1.1135    0.3363 C   0  0  0  0  0  0  0  0  0  0  0  0
   -1.2658    0.5636    0.8023 C   0  0  0  0  0  0  0  0  0  0  0  0
   -2.4330    1.4395    1.0231 C   0  0  0  0  0  0  0  0  0  0  0  0
   -2.2420    2.5806    1.4442 O   0  0  0  0  0  0  0  0  0  0  0  0
   -3.8289    0.9965    0.7822 C   0  0  0  0  0  0  0  0  0  0  0  0
   -4.1324    0.0238   -0.1788 C   0  0  0  0  0  0  0  0  0  0  0  0
   -5.4544   -0.3893   -0.3815 C   0  0  0  0  0  0  0  0  0  0  0  0
   -5.6043   -1.3521   -1.3411 O   0  0  0  0  0  0  0  0  0  0  0  0
   -6.9280   -1.8065   -1.5980 C   0  0  0  0  0  0  0  0  0  0  0  0
   -6.4795    0.1829    0.3727 C   0  0  0  0  0  0  0  0  0  0  0  0
   -6.1879    1.1751    1.3122 C   0  0  0  0  0  0  0  0  0  0  0  0
   -4.8730    1.5878    1.5045 C   0  0  0  0  0  0  0  0  0  0  0  0
   -4.6745    2.5846    2.4213 O   0  0  0  0  0  0  0  0  0  0  0  0
   -1.2836   -0.7891    1.1136 C   0  0  0  0  0  0  0  0  0  0  0  0
   -0.2215   -1.6129    0.9429 N   0  0  0  0  0  0  0  0  0  0  0  0
    0.9087   -1.0579    0.4594 C   0  0  0  0  0  0  0  0  0  0  0  0
    1.9887   -1.8940    0.2653 N   0  0  0  0  0  0  0  0  0  0  0  0
    3.1498   -1.5478   -0.3500 C   0  0  0  0  0  0  0  0  0  0  0  0
    4.0020   -2.4086   -0.5590 O   0  0  0  0  0  0  0  0  0  0  0  0
    7.8842   -0.4769   -0.4641 H   0  0  0  0  0  0  0  0  0  0  0  0
    7.5205   -1.4339    0.9801 H   0  0  0  0  0  0  0  0  0  0  0  0
    6.5788   -1.6750   -0.4953 H   0  0  0  0  0  0  0  0  0  0  0  0
    6.6482    0.8329    1.2594 H   0  0  0  0  0  0  0  0  0  0  0  0
    5.3175   -0.3116    1.2133 H   0  0  0  0  0  0  0  0  0  0  0  0
    4.9926    1.8391   -0.1105 H   0  0  0  0  0  0  0  0  0  0  0  0
    6.2969    1.3497   -1.1738 H   0  0  0  0  0  0  0  0  0  0  0  0
    4.9922   -0.6637   -1.8892 H   0  0  0  0  0  0  0  0  0  0  0  0
    4.1853    0.8488   -2.2531 H   0  0  0  0  0  0  0  0  0  0  0  0
    2.8381    1.3086    0.5788 H   0  0  0  0  0  0  0  0  0  0  0  0
    2.2374    1.5249   -1.0873 H   0  0  0  0  0  0  0  0  0  0  0  0
   -0.0044    2.1798    0.1303 H   0  0  0  0  0  0  0  0  0  0  0  0
   -3.3573   -0.4195   -0.7993 H   0  0  0  0  0  0  0  0  0  0  0  0
   -7.5611   -0.9910   -1.9629 H   0  0  0  0  0  0  0  0  0  0  0  0
   -7.3619   -2.2785   -0.7104 H   0  0  0  0  0  0  0  0  0  0  0  0
   -6.8740   -2.5643   -2.3856 H   0  0  0  0  0  0  0  0  0  0  0  0
   -7.5172   -0.1097    0.2483 H   0  0  0  0  0  0  0  0  0  0  0  0
   -6.9878    1.6339    1.8881 H   0  0  0  0  0  0  0  0  0  0  0  0
   -3.7550    2.9166    2.3098 H   0  0  0  0  0  0  0  0  0  0  0  0
   -2.1605   -1.2739    1.5341 H   0  0  0  0  0  0  0  0  0  0  0  0
    1.8652   -2.8675    0.4988 H   0  0  0  0  0  0  0  0  0  0  0  0
  1  2  1  0
  2  3  1  0
  3  4  1  0
  4  5  1  0
  5  6  1  0
  6  7  1  0
  7  8  2  0
  8  9  1  0
  9 10  1  0
 10 11  2  0
 10 12  1  0
 12 13  2  0
 13 14  1  0
 14 15  1  0
 15 16  1  0
 14 17  2  0
 17 18  1  0
 18 19  2  0
 19 20  1  0
  9 21  2  0
 21 22  1  0
 22 23  2  0
 23 24  1  0
 24 25  1  0
 25 26  2  0
 25  5  1  0
 23  7  1  0
 19 12  1  0
  1 27  1  0
  1 28  1  0
  1 29  1  0
  2 30  1  0
  2 31  1  0
  3 32  1  0
  3 33  1  0
  4 34  1  0
  4 35  1  0
  6 36  1  0
  6 37  1  0
  8 38  1  0
 13 39  1  0
 16 40  1  0
 16 41  1  0
 16 42  1  0
 17 43  1  0
 18 44  1  0
 20 45  1  0
 21 46  1  0
 24 47  1  0
M  END
$$$$
