
     RDKit          3D

 43 45  0  0  0  0  0  0  0  0999 V2000
   -6.8445    1.5408    1.0506 C   0  0  0  0  0  0  0  0  0  0  0  0
   -6.2601    1.0680    2.3731 C   0  0  0  0  0  0  0  0  0  0  0  0
   -4.7746    1.3929    2.5144 C   0  0  0  0  0  0  0  0  0  0  0  0
   -3.9257    0.5537    1.6060 C   0  0  0  0  0  0  0  0  0  0  0  0
   -3.7697   -0.7244    1.7482 N   0  0  0  0  0  0  0  0  0  0  0  0
   -2.9282   -1.1797    0.7593 N   0  0  0  0  0  0  0  0  0  0  0  0
   -2.5738   -2.5062    0.6556 C   0  0  0  0  0  0  0  0  0  0  0  0
   -2.9400   -3.4285    1.3766 O   0  0  0  0  0  0  0  0  0  0  0  0
   -1.6458   -2.7826   -0.4648 C   0  0  0  0  0  0  0  0  0  0  0  0
   -1.2268   -1.7763   -1.2517 C   0  0  0  0  0  0  0  0  0  0  0  0
   -0.2739   -2.0415   -2.3971 C   0  0  0  0  0  0  0  0  0  0  0  0
    1.4475   -1.7002   -1.9029 S   0  0  0  0  0  0  0  0  0  0  0  0
    1.4283    0.1279   -2.0244 C   0  0  0  0  0  0  0  0  0  0  0  0
    2.8138    0.7504   -1.8541 C   0  0  0  0  0  0  0  0  0  0  0  0
    3.0492    1.8576   -2.3343 O   0  0  0  0  0  0  0  0  0  0  0  0
    3.6871   -0.0001   -1.0897 N   0  0  0  0  0  0  0  0  0  0  0  0
    5.0051    0.3090   -0.7071 C   0  0  0  0  0  0  0  0  0  0  0  0
    5.6425    1.5163   -1.0078 C   0  0  0  0  0  0  0  0  0  0  0  0
    6.9581    1.7440   -0.5901 C   0  0  0  0  0  0  0  0  0  0  0  0
    7.6298    0.7683    0.1342 C   0  0  0  0  0  0  0  0  0  0  0  0
    8.8858    0.9918    0.5398 F   0  0  0  0  0  0  0  0  0  0  0  0
    7.0136   -0.4359    0.4451 C   0  0  0  0  0  0  0  0  0  0  0  0
    5.7012   -0.6649    0.0253 C   0  0  0  0  0  0  0  0  0  0  0  0
   -1.6440   -0.4682   -1.1020 N   0  0  0  0  0  0  0  0  0  0  0  0
   -2.4508   -0.2456   -0.1193 C   0  0  0  0  0  0  0  0  0  0  0  0
   -3.0870    1.3171    0.2763 S   0  0  0  0  0  0  0  0  0  0  0  0
   -6.6781    2.6136    0.9072 H   0  0  0  0  0  0  0  0  0  0  0  0
   -6.4039    1.0056    0.2053 H   0  0  0  0  0  0  0  0  0  0  0  0
   -7.9240    1.3608    1.0313 H   0  0  0  0  0  0  0  0  0  0  0  0
   -6.8046    1.5566    3.1897 H   0  0  0  0  0  0  0  0  0  0  0  0
   -6.4293   -0.0100    2.4760 H   0  0  0  0  0  0  0  0  0  0  0  0
   -4.5952    2.4596    2.3425 H   0  0  0  0  0  0  0  0  0  0  0  0
   -4.4614    1.1750    3.5426 H   0  0  0  0  0  0  0  0  0  0  0  0
   -1.3257   -3.8100   -0.5854 H   0  0  0  0  0  0  0  0  0  0  0  0
   -0.5418   -1.4528   -3.2808 H   0  0  0  0  0  0  0  0  0  0  0  0
   -0.3238   -3.0936   -2.6994 H   0  0  0  0  0  0  0  0  0  0  0  0
    0.7834    0.5511   -1.2507 H   0  0  0  0  0  0  0  0  0  0  0  0
    1.0586    0.4006   -3.0177 H   0  0  0  0  0  0  0  0  0  0  0  0
    3.3402   -0.9206   -0.8343 H   0  0  0  0  0  0  0  0  0  0  0  0
    5.1448    2.3011   -1.5678 H   0  0  0  0  0  0  0  0  0  0  0  0
    7.4558    2.6786   -0.8267 H   0  0  0  0  0  0  0  0  0  0  0  0
    7.5556   -1.1871    1.0097 H   0  0  0  0  0  0  0  0  0  0  0  0
    5.2323   -1.6124    0.2777 H   0  0  0  0  0  0  0  0  0  0  0  0
  1  2  1  0
  2  3  1  0
  3  4  1  0
  4  5  2  0
  5  6  1  0
  6  7  1  0
  7  8  2  0
  7  9  1  0
  9 10  2  0
 10 11  1  0
 11 12  1  0
 12 13  1  0
 13 14  1  0
 14 15  2  0
 14 16  1  0
 16 17  1  0
 17 18  2  0
 18 19  1  0
 19 20  2  0
 20 21  1  0
 20 22  1  0
 22 23  2  0
 10 24  1  0
 24 25  2  0
 25 26  1  0
 26  4  1  0
 25  6  1  0
 23 17  1  0
  1 27  1  0
  1 28  1  0
  1 29  1  0
  2 30  1  0
  2 31  1  0
  3 32  1  0
  3 33  1  0
  9 34  1  0
 11 35  1  0
 11 36  1  0
 13 37  1  0
 13 38  1  0
 16 39  1  0
 18 40  1  0
 19 41  1  0
 22 42  1  0
 23 43  1  0
M  END
$$$$
