
     RDKit          3D

 53 54  0  0  0  0  0  0  0  0999 V2000
   -1.5120    4.4347   -3.2436 C   0  0  0  0  0  0  0  0  0  0  0  0
   -0.9389    3.3126   -2.3435 C   0  0  0  0  0  0  0  0  0  0  0  0
   -0.6130    2.1153   -3.2558 C   0  0  0  0  0  0  0  0  0  0  0  0
    0.3456    3.8912   -1.6856 C   0  0  0  0  0  0  0  0  0  0  0  0
    0.9665    3.0405   -0.6977 N   0  0  0  0  0  0  0  0  0  0  0  0
    1.9063    2.0928   -1.0113 C   0  0  0  0  0  0  0  0  0  0  0  0
    2.4259    1.9561   -2.1101 O   0  0  0  0  0  0  0  0  0  0  0  0
    2.1810    1.1823    0.1276 C   0  0  0  0  0  0  0  0  0  0  0  0
    2.6918   -0.0359   -0.1049 C   0  0  0  0  0  0  0  0  0  0  0  0
    2.8778   -1.0508    0.9394 C   0  0  0  0  0  0  0  0  0  0  0  0
    3.3032   -0.7289    2.2366 C   0  0  0  0  0  0  0  0  0  0  0  0
    3.4570   -1.7299    3.1995 C   0  0  0  0  0  0  0  0  0  0  0  0
    3.1959   -3.0524    2.8632 C   0  0  0  0  0  0  0  0  0  0  0  0
    3.3318   -4.0092    3.7902 F   0  0  0  0  0  0  0  0  0  0  0  0
    2.7937   -3.3957    1.5793 C   0  0  0  0  0  0  0  0  0  0  0  0
    2.6397   -2.3958    0.6165 C   0  0  0  0  0  0  0  0  0  0  0  0
   -2.0377    2.9492   -1.3032 C   0  0  0  0  0  0  0  0  0  0  0  0
   -1.9124    1.6360   -0.6908 N   0  0  0  0  0  0  0  0  0  0  0  0
   -1.3710    1.4338    0.5488 C   0  0  0  0  0  0  0  0  0  0  0  0
   -0.9103    2.3262    1.2536 O   0  0  0  0  0  0  0  0  0  0  0  0
   -1.2318    0.0180    0.9692 C   0  0  0  0  0  0  0  0  0  0  0  0
   -2.1077   -0.9511    0.6622 C   0  0  0  0  0  0  0  0  0  0  0  0
   -1.9882   -2.3659    1.0641 C   0  0  0  0  0  0  0  0  0  0  0  0
   -1.0641   -2.8264    2.0156 C   0  0  0  0  0  0  0  0  0  0  0  0
   -1.0012   -4.1815    2.3547 C   0  0  0  0  0  0  0  0  0  0  0  0
   -1.8657   -5.0822    1.7497 C   0  0  0  0  0  0  0  0  0  0  0  0
   -1.8041   -6.3798    2.0737 F   0  0  0  0  0  0  0  0  0  0  0  0
   -2.7956   -4.6535    0.8139 C   0  0  0  0  0  0  0  0  0  0  0  0
   -2.8579   -3.2991    0.4740 C   0  0  0  0  0  0  0  0  0  0  0  0
   -0.7788    4.7568   -3.9921 H   0  0  0  0  0  0  0  0  0  0  0  0
   -2.4057    4.0975   -3.7811 H   0  0  0  0  0  0  0  0  0  0  0  0
   -1.7922    5.3128   -2.6505 H   0  0  0  0  0  0  0  0  0  0  0  0
   -0.1992    1.2696   -2.6988 H   0  0  0  0  0  0  0  0  0  0  0  0
   -1.5128    1.7588   -3.7704 H   0  0  0  0  0  0  0  0  0  0  0  0
    0.1180    2.3928   -4.0237 H   0  0  0  0  0  0  0  0  0  0  0  0
    1.0887    4.1301   -2.4564 H   0  0  0  0  0  0  0  0  0  0  0  0
    0.1073    4.8268   -1.1653 H   0  0  0  0  0  0  0  0  0  0  0  0
    0.5113    3.0027    0.2138 H   0  0  0  0  0  0  0  0  0  0  0  0
    1.8923    1.5158    1.1162 H   0  0  0  0  0  0  0  0  0  0  0  0
    2.9311   -0.3405   -1.1227 H   0  0  0  0  0  0  0  0  0  0  0  0
    3.5279    0.2996    2.5099 H   0  0  0  0  0  0  0  0  0  0  0  0
    3.7822   -1.4854    4.2057 H   0  0  0  0  0  0  0  0  0  0  0  0
    2.5998   -4.4350    1.3348 H   0  0  0  0  0  0  0  0  0  0  0  0
    2.3191   -2.6747   -0.3854 H   0  0  0  0  0  0  0  0  0  0  0  0
   -2.0888    3.7140   -0.5193 H   0  0  0  0  0  0  0  0  0  0  0  0
   -3.0177    2.9317   -1.7953 H   0  0  0  0  0  0  0  0  0  0  0  0
   -2.1103    0.8326   -1.2715 H   0  0  0  0  0  0  0  0  0  0  0  0
   -0.3633   -0.1549    1.5933 H   0  0  0  0  0  0  0  0  0  0  0  0
   -2.9918   -0.7103    0.0769 H   0  0  0  0  0  0  0  0  0  0  0  0
   -0.3774   -2.1485    2.5154 H   0  0  0  0  0  0  0  0  0  0  0  0
   -0.2829   -4.5346    3.0883 H   0  0  0  0  0  0  0  0  0  0  0  0
   -3.4661   -5.3728    0.3546 H   0  0  0  0  0  0  0  0  0  0  0  0
   -3.5950   -2.9840   -0.2620 H   0  0  0  0  0  0  0  0  0  0  0  0
  1  2  1  0
  2  3  1  0
  2  4  1  0
  4  5  1  0
  5  6  1  0
  6  7  2  0
  6  8  1  0
  8  9  2  3
  9 10  1  0
 10 11  2  0
 11 12  1  0
 12 13  2  0
 13 14  1  0
 13 15  1  0
 15 16  2  0
  2 17  1  0
 17 18  1  0
 18 19  1  0
 19 20  2  0
 19 21  1  0
 21 22  2  3
 22 23  1  0
 23 24  2  0
 24 25  1  0
 25 26  2  0
 26 27  1  0
 26 28  1  0
 28 29  2  0
 16 10  1  0
 29 23  1  0
  1 30  1  0
  1 31  1  0
  1 32  1  0
  3 33  1  0
  3 34  1  0
  3 35  1  0
  4 36  1  0
  4 37  1  0
  5 38  1  0
  8 39  1  0
  9 40  1  0
 11 41  1  0
 12 42  1  0
 15 43  1  0
 16 44  1  0
 17 45  1  0
 17 46  1  0
 18 47  1  0
 21 48  1  0
 22 49  1  0
 24 50  1  0
 25 51  1  0
 28 52  1  0
 29 53  1  0
M  END
$$$$
