
     RDKit          3D

 51 55  0  0  0  0  0  0  0  0999 V2000
   -1.3825    1.8293    0.9556 C   0  0  0  0  0  0  0  0  0  0  0  0
   -0.0015    2.0545    1.0134 C   0  0  0  0  0  0  0  0  0  0  0  0
    0.8552    1.1089    0.4279 C   0  0  0  0  0  0  0  0  0  0  0  0
    0.3536   -0.0333   -0.2041 C   0  0  0  0  0  0  0  0  0  0  0  0
   -1.0425   -0.2331   -0.2533 C   0  0  0  0  0  0  0  0  0  0  0  0
   -1.9187    0.6970    0.3334 C   0  0  0  0  0  0  0  0  0  0  0  0
   -3.4242    0.5007    0.2897 C   0  0  0  0  0  0  0  0  0  0  0  0
   -3.9807    0.7021   -1.1350 C   0  0  0  0  0  0  0  0  0  0  0  0
   -5.3103   -0.0190   -1.3768 C   0  0  0  0  0  0  0  0  0  0  0  0
   -6.1304   -0.1492   -0.1009 C   0  0  0  0  0  0  0  0  0  0  0  0
   -5.3913   -0.9478    0.9746 C   0  0  0  0  0  0  0  0  0  0  0  0
   -3.8661   -0.8500    0.8721 C   0  0  0  0  0  0  0  0  0  0  0  0
    1.4673   -0.7672   -0.6922 C   0  0  0  0  0  0  0  0  0  0  0  0
    2.6144   -0.0968   -0.3104 C   0  0  0  0  0  0  0  0  0  0  0  0
    2.2338    1.0658    0.3115 N   0  0  0  0  0  0  0  0  0  0  0  0
    3.1531    2.1143    0.7152 C   0  0  0  0  0  0  0  0  0  0  0  0
    4.2237    1.6432    1.6900 C   0  0  0  0  0  0  0  0  0  0  0  0
    5.3028    0.7896    1.0265 C   0  0  0  0  0  0  0  0  0  0  0  0
    4.8567   -0.5246    0.5887 N   0  0  0  0  0  0  0  0  0  0  0  0
    4.0183   -0.5190   -0.6078 C   0  0  0  0  0  0  0  0  0  0  0  0
    4.0148   -1.9698   -1.1651 C   0  0  0  0  0  0  0  0  0  0  0  0
    2.8641   -2.2221   -2.1538 C   0  0  0  0  0  0  0  0  0  0  0  0
    1.4975   -2.0379   -1.4721 C   0  0  0  0  0  0  0  0  0  0  0  0
   -2.0433    2.5651    1.4104 H   0  0  0  0  0  0  0  0  0  0  0  0
    0.3782    2.9442    1.5039 H   0  0  0  0  0  0  0  0  0  0  0  0
   -1.4297   -1.1153   -0.7546 H   0  0  0  0  0  0  0  0  0  0  0  0
   -3.8783    1.2739    0.9269 H   0  0  0  0  0  0  0  0  0  0  0  0
   -4.1143    1.7787   -1.3050 H   0  0  0  0  0  0  0  0  0  0  0  0
   -3.2695    0.3701   -1.9016 H   0  0  0  0  0  0  0  0  0  0  0  0
   -5.8830    0.5157   -2.1431 H   0  0  0  0  0  0  0  0  0  0  0  0
   -5.1111   -1.0206   -1.7786 H   0  0  0  0  0  0  0  0  0  0  0  0
   -7.0937   -0.6258   -0.3150 H   0  0  0  0  0  0  0  0  0  0  0  0
   -6.3581    0.8533    0.2831 H   0  0  0  0  0  0  0  0  0  0  0  0
   -5.6794   -2.0045    0.9159 H   0  0  0  0  0  0  0  0  0  0  0  0
   -5.7201   -0.5969    1.9604 H   0  0  0  0  0  0  0  0  0  0  0  0
   -3.4258   -1.0121    1.8637 H   0  0  0  0  0  0  0  0  0  0  0  0
   -3.5043   -1.6707    0.2392 H   0  0  0  0  0  0  0  0  0  0  0  0
    2.5787    2.9185    1.1831 H   0  0  0  0  0  0  0  0  0  0  0  0
    3.5951    2.5245   -0.2006 H   0  0  0  0  0  0  0  0  0  0  0  0
    4.7120    2.5280    2.1171 H   0  0  0  0  0  0  0  0  0  0  0  0
    3.7702    1.0989    2.5279 H   0  0  0  0  0  0  0  0  0  0  0  0
    6.0990    0.6293    1.7633 H   0  0  0  0  0  0  0  0  0  0  0  0
    5.7722    1.3341    0.1979 H   0  0  0  0  0  0  0  0  0  0  0  0
    4.3547   -1.0015    1.3378 H   0  0  0  0  0  0  0  0  0  0  0  0
    4.4397    0.1363   -1.3809 H   0  0  0  0  0  0  0  0  0  0  0  0
    3.9207   -2.6974   -0.3461 H   0  0  0  0  0  0  0  0  0  0  0  0
    4.9750   -2.1748   -1.6550 H   0  0  0  0  0  0  0  0  0  0  0  0
    2.9558   -1.5286   -2.9993 H   0  0  0  0  0  0  0  0  0  0  0  0
    2.9355   -3.2375   -2.5596 H   0  0  0  0  0  0  0  0  0  0  0  0
    1.3092   -2.8773   -0.7919 H   0  0  0  0  0  0  0  0  0  0  0  0
    0.7076   -2.0434   -2.2312 H   0  0  0  0  0  0  0  0  0  0  0  0
  1  2  2  0
  2  3  1  0
  3  4  2  0
  4  5  1  0
  5  6  2  0
  6  7  1  0
  7  8  1  0
  8  9  1  0
  9 10  1  0
 10 11  1  0
 11 12  1  0
  4 13  1  0
 13 14  2  0
 14 15  1  0
 15 16  1  0
 16 17  1  0
 17 18  1  0
 18 19  1  0
 19 20  1  0
 20 21  1  0
 21 22  1  0
 22 23  1  0
  6  1  1  0
 12  7  1  0
 23 13  1  0
 15  3  1  0
 20 14  1  0
  1 24  1  0
  2 25  1  0
  5 26  1  0
  7 27  1  0
  8 28  1  0
  8 29  1  0
  9 30  1  0
  9 31  1  0
 10 32  1  0
 10 33  1  0
 11 34  1  0
 11 35  1  0
 12 36  1  0
 12 37  1  0
 16 38  1  0
 16 39  1  0
 17 40  1  0
 17 41  1  0
 18 42  1  0
 18 43  1  0
 19 44  1  0
 20 45  1  0
 21 46  1  0
 21 47  1  0
 22 48  1  0
 22 49  1  0
 23 50  1  0
 23 51  1  0
M  END
$$$$
