
     RDKit          3D

 49 52  0  0  0  0  0  0  0  0999 V2000
   -8.1399    1.9167    1.1936 C   0  0  0  0  0  0  0  0  0  0  0  0
   -7.4402    0.8071    1.7415 O   0  0  0  0  0  0  0  0  0  0  0  0
   -6.5268    0.1901    0.9320 C   0  0  0  0  0  0  0  0  0  0  0  0
   -6.2051    0.5590   -0.3742 C   0  0  0  0  0  0  0  0  0  0  0  0
   -5.2452   -0.1620   -1.0946 C   0  0  0  0  0  0  0  0  0  0  0  0
   -4.5995   -1.2650   -0.5203 C   0  0  0  0  0  0  0  0  0  0  0  0
   -3.5484   -2.0301   -1.2819 C   0  0  0  0  0  0  0  0  0  0  0  0
   -2.2243   -1.5983   -0.8972 N   0  0  0  0  0  0  0  0  0  0  0  0
   -1.4582   -2.3201   -0.0006 C   0  0  0  0  0  0  0  0  0  0  0  0
   -1.8260   -3.4189    0.4103 O   0  0  0  0  0  0  0  0  0  0  0  0
   -0.2174   -1.6679    0.4063 C   0  0  0  0  0  0  0  0  0  0  0  0
    0.4467   -0.5685   -0.1385 C   0  0  0  0  0  0  0  0  0  0  0  0
    1.6235   -0.2752    0.5836 C   0  0  0  0  0  0  0  0  0  0  0  0
    1.8159   -1.1331    1.6173 C   0  0  0  0  0  0  0  0  0  0  0  0
    0.6448   -2.3060    1.7762 S   0  0  0  0  0  0  0  0  0  0  0  0
    3.0457   -0.8379    2.3686 C   0  0  0  0  0  0  0  0  0  0  0  0
    3.7268    0.2056    1.5226 N   0  0  0  0  0  0  0  0  0  0  0  0
    4.8887   -0.3918    0.8393 C   0  0  0  0  0  0  0  0  0  0  0  0
    5.7482    0.6286    0.1193 C   0  0  0  0  0  0  0  0  0  0  0  0
    6.1138    0.4312   -1.2204 C   0  0  0  0  0  0  0  0  0  0  0  0
    6.9212    1.3607   -1.8791 C   0  0  0  0  0  0  0  0  0  0  0  0
    7.3765    2.4925   -1.2054 C   0  0  0  0  0  0  0  0  0  0  0  0
    7.0277    2.6959    0.1281 C   0  0  0  0  0  0  0  0  0  0  0  0
    6.2213    1.7677    0.7883 C   0  0  0  0  0  0  0  0  0  0  0  0
    2.7217    0.7154    0.5189 C   0  0  0  0  0  0  0  0  0  0  0  0
   -4.9219   -1.6256    0.7937 C   0  0  0  0  0  0  0  0  0  0  0  0
   -5.8789   -0.9033    1.5099 C   0  0  0  0  0  0  0  0  0  0  0  0
   -7.4530    2.7320    0.9437 H   0  0  0  0  0  0  0  0  0  0  0  0
   -8.7341    1.6187    0.3234 H   0  0  0  0  0  0  0  0  0  0  0  0
   -8.8310    2.2864    1.9573 H   0  0  0  0  0  0  0  0  0  0  0  0
   -6.6811    1.4027   -0.8623 H   0  0  0  0  0  0  0  0  0  0  0  0
   -5.0091    0.1454   -2.1110 H   0  0  0  0  0  0  0  0  0  0  0  0
   -3.6471   -1.8437   -2.3571 H   0  0  0  0  0  0  0  0  0  0  0  0
   -3.6765   -3.1074   -1.1289 H   0  0  0  0  0  0  0  0  0  0  0  0
   -2.0012   -0.6269   -1.0472 H   0  0  0  0  0  0  0  0  0  0  0  0
    0.1116   -0.0205   -1.0091 H   0  0  0  0  0  0  0  0  0  0  0  0
    2.8047   -0.3938    3.3405 H   0  0  0  0  0  0  0  0  0  0  0  0
    3.6623   -1.7276    2.5352 H   0  0  0  0  0  0  0  0  0  0  0  0
    5.5443   -0.8710    1.5791 H   0  0  0  0  0  0  0  0  0  0  0  0
    4.5695   -1.1810    0.1454 H   0  0  0  0  0  0  0  0  0  0  0  0
    5.7716   -0.4483   -1.7609 H   0  0  0  0  0  0  0  0  0  0  0  0
    7.1974    1.2001   -2.9180 H   0  0  0  0  0  0  0  0  0  0  0  0
    8.0057    3.2149   -1.7186 H   0  0  0  0  0  0  0  0  0  0  0  0
    7.3839    3.5764    0.6562 H   0  0  0  0  0  0  0  0  0  0  0  0
    5.9545    1.9354    1.8300 H   0  0  0  0  0  0  0  0  0  0  0  0
    2.3649    1.6966    0.8504 H   0  0  0  0  0  0  0  0  0  0  0  0
    3.1177    0.8123   -0.4966 H   0  0  0  0  0  0  0  0  0  0  0  0
   -4.4259   -2.4712    1.2684 H   0  0  0  0  0  0  0  0  0  0  0  0
   -6.1199   -1.1961    2.5290 H   0  0  0  0  0  0  0  0  0  0  0  0
  1  2  1  0
  2  3  1  0
  3  4  2  0
  4  5  1  0
  5  6  2  0
  6  7  1  0
  7  8  1  0
  8  9  1  0
  9 10  2  0
  9 11  1  0
 11 12  2  0
 12 13  1  0
 13 14  2  0
 14 15  1  0
 14 16  1  0
 16 17  1  0
 17 18  1  0
 18 19  1  0
 19 20  2  0
 20 21  1  0
 21 22  2  0
 22 23  1  0
 23 24  2  0
 17 25  1  0
  6 26  1  0
 26 27  2  0
 27  3  1  0
 15 11  1  0
 24 19  1  0
 25 13  1  0
  1 28  1  0
  1 29  1  0
  1 30  1  0
  4 31  1  0
  5 32  1  0
  7 33  1  0
  7 34  1  0
  8 35  1  0
 12 36  1  0
 16 37  1  0
 16 38  1  0
 18 39  1  0
 18 40  1  0
 20 41  1  0
 21 42  1  0
 22 43  1  0
 23 44  1  0
 24 45  1  0
 25 46  1  0
 25 47  1  0
 26 48  1  0
 27 49  1  0
M  END
$$$$
