
     RDKit          3D

 55 58  0  0  0  0  0  0  0  0999 V2000
   -4.1685    2.4523   -1.7388 C   0  0  0  0  0  0  0  0  0  0  0  0
   -4.6904    1.9475   -0.4009 C   0  0  0  0  0  0  0  0  0  0  0  0
   -5.0178    0.5183   -0.4683 N   0  0  0  0  0  0  0  0  0  0  0  0
   -6.2714    0.0390   -0.8133 C   0  0  0  0  0  0  0  0  0  0  0  0
   -6.6232   -1.2531   -0.9315 C   0  0  0  0  0  0  0  0  0  0  0  0
   -7.9926   -1.6495   -1.3124 C   0  0  0  0  0  0  0  0  0  0  0  0
   -8.4010   -2.7745   -1.5309 O   0  0  0  0  0  0  0  0  0  0  0  0
   -8.8406   -0.6054   -1.4174 O   0  0  0  0  0  0  0  0  0  0  0  0
   -5.5506   -2.2495   -0.6681 C   0  0  0  0  0  0  0  0  0  0  0  0
   -5.7323   -3.4603   -0.7132 O   0  0  0  0  0  0  0  0  0  0  0  0
   -4.2105   -1.7420   -0.3383 C   0  0  0  0  0  0  0  0  0  0  0  0
   -3.1534   -2.5850   -0.1108 C   0  0  0  0  0  0  0  0  0  0  0  0
   -1.9142   -2.1451    0.1851 N   0  0  0  0  0  0  0  0  0  0  0  0
   -1.7251   -0.8185    0.2594 C   0  0  0  0  0  0  0  0  0  0  0  0
   -0.4618   -0.3439    0.5352 N   0  0  0  0  0  0  0  0  0  0  0  0
   -0.3136    1.0459    0.9697 C   0  0  0  0  0  0  0  0  0  0  0  0
    0.8162    1.2110    2.0053 C   0  0  0  0  0  0  0  0  0  0  0  0
    2.0980    0.6028    1.5878 N   0  0  0  0  0  0  0  0  0  0  0  0
    3.3350    1.0220    2.1264 C   0  0  0  0  0  0  0  0  0  0  0  0
    3.4692    2.0350    3.4571 S   0  0  0  0  0  0  0  0  0  0  0  0
    4.4228    0.5049    1.4117 N   0  0  0  0  0  0  0  0  0  0  0  0
    5.7920    0.5978    1.6649 C   0  0  0  0  0  0  0  0  0  0  0  0
    6.3214    0.8655    2.7353 O   0  0  0  0  0  0  0  0  0  0  0  0
    6.6674    0.2796    0.5037 C   0  0  0  0  0  0  0  0  0  0  0  0
    7.8473    1.0159    0.3440 C   0  0  0  0  0  0  0  0  0  0  0  0
    8.6926    0.7563   -0.7354 C   0  0  0  0  0  0  0  0  0  0  0  0
    8.3676   -0.2452   -1.6499 C   0  0  0  0  0  0  0  0  0  0  0  0
    7.2031   -0.9957   -1.4833 C   0  0  0  0  0  0  0  0  0  0  0  0
    6.3528   -0.7396   -0.4053 C   0  0  0  0  0  0  0  0  0  0  0  0
    1.9649   -0.6395    0.7987 C   0  0  0  0  0  0  0  0  0  0  0  0
    0.5777   -1.2997    0.9012 C   0  0  0  0  0  0  0  0  0  0  0  0
   -2.7162    0.0651    0.0473 N   0  0  0  0  0  0  0  0  0  0  0  0
   -3.9540   -0.3883   -0.2473 C   0  0  0  0  0  0  0  0  0  0  0  0
   -4.9029    2.2889   -2.5345 H   0  0  0  0  0  0  0  0  0  0  0  0
   -3.2439    1.9426   -2.0277 H   0  0  0  0  0  0  0  0  0  0  0  0
   -3.9605    3.5253   -1.6830 H   0  0  0  0  0  0  0  0  0  0  0  0
   -5.5915    2.5168   -0.1383 H   0  0  0  0  0  0  0  0  0  0  0  0
   -3.9700    2.1642    0.3975 H   0  0  0  0  0  0  0  0  0  0  0  0
   -6.9904    0.8357   -0.9932 H   0  0  0  0  0  0  0  0  0  0  0  0
   -9.6877   -1.0341   -1.6669 H   0  0  0  0  0  0  0  0  0  0  0  0
   -3.2635   -3.6650   -0.1615 H   0  0  0  0  0  0  0  0  0  0  0  0
   -1.2303    1.4424    1.4233 H   0  0  0  0  0  0  0  0  0  0  0  0
   -0.0878    1.6580    0.0882 H   0  0  0  0  0  0  0  0  0  0  0  0
    0.9540    2.2789    2.2018 H   0  0  0  0  0  0  0  0  0  0  0  0
    0.5276    0.7283    2.9477 H   0  0  0  0  0  0  0  0  0  0  0  0
    4.1874    0.3229    0.4498 H   0  0  0  0  0  0  0  0  0  0  0  0
    8.1083    1.7925    1.0611 H   0  0  0  0  0  0  0  0  0  0  0  0
    9.6074    1.3314   -0.8582 H   0  0  0  0  0  0  0  0  0  0  0  0
    9.0310   -0.4497   -2.4872 H   0  0  0  0  0  0  0  0  0  0  0  0
    6.9674   -1.7898   -2.1881 H   0  0  0  0  0  0  0  0  0  0  0  0
    5.4739   -1.3636   -0.2725 H   0  0  0  0  0  0  0  0  0  0  0  0
    2.1635   -0.3662   -0.2449 H   0  0  0  0  0  0  0  0  0  0  0  0
    2.7304   -1.3574    1.1133 H   0  0  0  0  0  0  0  0  0  0  0  0
    0.4103   -1.6564    1.9253 H   0  0  0  0  0  0  0  0  0  0  0  0
    0.5769   -2.1697    0.2333 H   0  0  0  0  0  0  0  0  0  0  0  0
  1  2  1  0
  2  3  1  0
  3  4  1  0
  4  5  2  0
  5  6  1  0
  6  7  2  0
  6  8  1  0
  5  9  1  0
  9 10  2  0
  9 11  1  0
 11 12  2  0
 12 13  1  0
 13 14  2  0
 14 15  1  0
 15 16  1  0
 16 17  1  0
 17 18  1  0
 18 19  1  0
 19 20  2  0
 19 21  1  0
 21 22  1  0
 22 23  2  0
 22 24  1  0
 24 25  2  0
 25 26  1  0
 26 27  2  0
 27 28  1  0
 28 29  2  0
 18 30  1  0
 30 31  1  0
 14 32  1  0
 32 33  2  0
 33  3  1  0
 33 11  1  0
 31 15  1  0
 29 24  1  0
  1 34  1  0
  1 35  1  0
  1 36  1  0
  2 37  1  0
  2 38  1  0
  4 39  1  0
  8 40  1  0
 12 41  1  0
 16 42  1  0
 16 43  1  0
 17 44  1  0
 17 45  1  0
 21 46  1  0
 25 47  1  0
 26 48  1  0
 27 49  1  0
 28 50  1  0
 29 51  1  0
 30 52  1  0
 30 53  1  0
 31 54  1  0
 31 55  1  0
M  END
$$$$
