
     RDKit          3D

 49 52  0  0  0  0  0  0  0  0999 V2000
   -7.2361   -3.0650   -1.4386 C   0  0  0  0  0  0  0  0  0  0  0  0
   -6.7946   -2.9647   -0.0905 O   0  0  0  0  0  0  0  0  0  0  0  0
   -6.1431   -1.8145    0.2605 C   0  0  0  0  0  0  0  0  0  0  0  0
   -5.8548   -0.7433   -0.5841 C   0  0  0  0  0  0  0  0  0  0  0  0
   -5.1775    0.3777   -0.0915 C   0  0  0  0  0  0  0  0  0  0  0  0
   -4.7835    0.4455    1.2519 C   0  0  0  0  0  0  0  0  0  0  0  0
   -4.0301    1.6459    1.7632 C   0  0  0  0  0  0  0  0  0  0  0  0
   -2.6256    1.5405    1.4419 N   0  0  0  0  0  0  0  0  0  0  0  0
   -2.0801    2.1875    0.3485 C   0  0  0  0  0  0  0  0  0  0  0  0
   -2.7501    2.9690   -0.3243 O   0  0  0  0  0  0  0  0  0  0  0  0
   -0.6859    1.8543    0.0694 C   0  0  0  0  0  0  0  0  0  0  0  0
    0.2412    1.1299    0.8198 C   0  0  0  0  0  0  0  0  0  0  0  0
    1.4846    1.0511    0.1563 C   0  0  0  0  0  0  0  0  0  0  0  0
    1.4711    1.7053   -1.0348 C   0  0  0  0  0  0  0  0  0  0  0  0
    0.0181    2.4213   -1.4188 S   0  0  0  0  0  0  0  0  0  0  0  0
    2.7711    1.6371   -1.7243 C   0  0  0  0  0  0  0  0  0  0  0  0
    3.6599    1.0990   -0.6507 N   0  0  0  0  0  0  0  0  0  0  0  0
    4.6928    0.2141   -1.1862 C   0  0  0  0  0  0  0  0  0  0  0  0
    5.7148   -0.1987   -0.1483 C   0  0  0  0  0  0  0  0  0  0  0  0
    6.4692    0.7691    0.5322 C   0  0  0  0  0  0  0  0  0  0  0  0
    7.4172    0.3907    1.4838 C   0  0  0  0  0  0  0  0  0  0  0  0
    7.6242   -0.9586    1.7631 C   0  0  0  0  0  0  0  0  0  0  0  0
    6.8841   -1.9301    1.0915 C   0  0  0  0  0  0  0  0  0  0  0  0
    5.9347   -1.5534    0.1395 C   0  0  0  0  0  0  0  0  0  0  0  0
    2.8169    0.4492    0.4016 C   0  0  0  0  0  0  0  0  0  0  0  0
   -5.0683   -0.6363    2.0930 C   0  0  0  0  0  0  0  0  0  0  0  0
   -5.7454   -1.7539    1.5981 C   0  0  0  0  0  0  0  0  0  0  0  0
   -6.3897   -3.0484   -2.1332 H   0  0  0  0  0  0  0  0  0  0  0  0
   -7.9600   -2.2787   -1.6771 H   0  0  0  0  0  0  0  0  0  0  0  0
   -7.7418   -4.0286   -1.5538 H   0  0  0  0  0  0  0  0  0  0  0  0
   -6.1379   -0.7451   -1.6312 H   0  0  0  0  0  0  0  0  0  0  0  0
   -4.9528    1.2032   -0.7665 H   0  0  0  0  0  0  0  0  0  0  0  0
   -4.4617    2.5677    1.3578 H   0  0  0  0  0  0  0  0  0  0  0  0
   -4.1077    1.7069    2.8545 H   0  0  0  0  0  0  0  0  0  0  0  0
   -2.1221    0.7697    1.8508 H   0  0  0  0  0  0  0  0  0  0  0  0
    0.0407    0.6943    1.7894 H   0  0  0  0  0  0  0  0  0  0  0  0
    2.7034    0.9593   -2.5833 H   0  0  0  0  0  0  0  0  0  0  0  0
    3.1285    2.6176   -2.0512 H   0  0  0  0  0  0  0  0  0  0  0  0
    5.2409    0.7288   -1.9866 H   0  0  0  0  0  0  0  0  0  0  0  0
    4.2393   -0.6744   -1.6451 H   0  0  0  0  0  0  0  0  0  0  0  0
    6.3103    1.8256    0.3245 H   0  0  0  0  0  0  0  0  0  0  0  0
    7.9924    1.1500    2.0070 H   0  0  0  0  0  0  0  0  0  0  0  0
    8.3631   -1.2527    2.5038 H   0  0  0  0  0  0  0  0  0  0  0  0
    7.0478   -2.9824    1.3086 H   0  0  0  0  0  0  0  0  0  0  0  0
    5.3682   -2.3257   -0.3756 H   0  0  0  0  0  0  0  0  0  0  0  0
    2.7535   -0.6377    0.2732 H   0  0  0  0  0  0  0  0  0  0  0  0
    3.1970    0.6888    1.3988 H   0  0  0  0  0  0  0  0  0  0  0  0
   -4.7700   -0.6198    3.1385 H   0  0  0  0  0  0  0  0  0  0  0  0
   -5.9660   -2.5872    2.2610 H   0  0  0  0  0  0  0  0  0  0  0  0
  1  2  1  0
  2  3  1  0
  3  4  2  0
  4  5  1  0
  5  6  2  0
  6  7  1  0
  7  8  1  0
  8  9  1  0
  9 10  2  0
  9 11  1  0
 11 12  2  0
 12 13  1  0
 13 14  2  0
 14 15  1  0
 14 16  1  0
 16 17  1  0
 17 18  1  0
 18 19  1  0
 19 20  2  0
 20 21  1  0
 21 22  2  0
 22 23  1  0
 23 24  2  0
 17 25  1  0
  6 26  1  0
 26 27  2  0
 27  3  1  0
 15 11  1  0
 24 19  1  0
 25 13  1  0
  1 28  1  0
  1 29  1  0
  1 30  1  0
  4 31  1  0
  5 32  1  0
  7 33  1  0
  7 34  1  0
  8 35  1  0
 12 36  1  0
 16 37  1  0
 16 38  1  0
 18 39  1  0
 18 40  1  0
 20 41  1  0
 21 42  1  0
 22 43  1  0
 23 44  1  0
 24 45  1  0
 25 46  1  0
 25 47  1  0
 26 48  1  0
 27 49  1  0
M  END
$$$$
