
     RDKit          3D

 42 44  0  0  0  0  0  0  0  0999 V2000
   -2.0750   -1.5222    1.7455 O   0  0  0  0  0  0  0  0  0  0  0  0
   -2.1770   -0.5490    0.9941 C   0  0  0  0  0  0  0  0  0  0  0  0
   -3.5243   -0.1982    0.3154 C   0  0  0  0  0  0  0  0  0  0  0  0
   -3.5966   -0.8061   -1.0774 C   0  0  0  0  0  0  0  0  0  0  0  0
   -4.2161   -2.1556   -0.8061 C   0  0  0  0  0  0  0  0  0  0  0  0
   -5.1718   -1.8530    0.3262 C   0  0  0  0  0  0  0  0  0  0  0  0
   -4.6524   -0.7189    1.0312 O   0  0  0  0  0  0  0  0  0  0  0  0
   -1.0769    0.2521    0.7019 N   0  0  0  0  0  0  0  0  0  0  0  0
   -1.1056    1.4490   -0.1475 C   0  0  0  0  0  0  0  0  0  0  0  0
    0.2880    1.8306   -0.6668 C   0  0  0  0  0  0  0  0  0  0  0  0
    1.2390    2.0599    0.4522 N   0  0  0  0  0  0  0  0  0  0  0  0
    2.8468    2.4022    0.0405 S   0  0  0  0  0  6  0  0  0  0  0  0
    2.8304    3.2734   -1.1159 O   0  0  0  0  0  0  0  0  0  0  0  0
    3.5500    2.7730    1.2499 O   0  0  0  0  0  0  0  0  0  0  0  0
    3.4809    0.8232   -0.4878 C   0  0  0  0  0  0  0  0  0  0  0  0
    4.0911   -0.0251    0.4417 C   0  0  0  0  0  0  0  0  0  0  0  0
    4.6018   -1.2529    0.0208 C   0  0  0  0  0  0  0  0  0  0  0  0
    4.5193   -1.6201   -1.3233 C   0  0  0  0  0  0  0  0  0  0  0  0
    3.9374   -0.7578   -2.2538 C   0  0  0  0  0  0  0  0  0  0  0  0
    3.4239    0.4715   -1.8404 C   0  0  0  0  0  0  0  0  0  0  0  0
    0.9877    1.2544    1.6815 C   0  0  0  0  0  0  0  0  0  0  0  0
    0.1927   -0.0232    1.3841 C   0  0  0  0  0  0  0  0  0  0  0  0
   -3.6362    0.8897    0.2923 H   0  0  0  0  0  0  0  0  0  0  0  0
   -2.6340   -0.8839   -1.5905 H   0  0  0  0  0  0  0  0  0  0  0  0
   -4.2744   -0.2143   -1.7042 H   0  0  0  0  0  0  0  0  0  0  0  0
   -3.4466   -2.8596   -0.4682 H   0  0  0  0  0  0  0  0  0  0  0  0
   -4.7125   -2.5931   -1.6764 H   0  0  0  0  0  0  0  0  0  0  0  0
   -5.2850   -2.6952    1.0148 H   0  0  0  0  0  0  0  0  0  0  0  0
   -6.1617   -1.5814   -0.0553 H   0  0  0  0  0  0  0  0  0  0  0  0
   -1.5186    2.2613    0.4625 H   0  0  0  0  0  0  0  0  0  0  0  0
   -1.7786    1.2913   -0.9939 H   0  0  0  0  0  0  0  0  0  0  0  0
    0.6566    1.0265   -1.3116 H   0  0  0  0  0  0  0  0  0  0  0  0
    0.2035    2.7460   -1.2617 H   0  0  0  0  0  0  0  0  0  0  0  0
    4.1822    0.2642    1.4863 H   0  0  0  0  0  0  0  0  0  0  0  0
    5.0754   -1.9201    0.7374 H   0  0  0  0  0  0  0  0  0  0  0  0
    4.9245   -2.5756   -1.6492 H   0  0  0  0  0  0  0  0  0  0  0  0
    3.8951   -1.0409   -3.3030 H   0  0  0  0  0  0  0  0  0  0  0  0
    2.9907    1.1474   -2.5743 H   0  0  0  0  0  0  0  0  0  0  0  0
    1.9191    0.9892    2.1889 H   0  0  0  0  0  0  0  0  0  0  0  0
    0.4221    1.8897    2.3741 H   0  0  0  0  0  0  0  0  0  0  0  0
    0.7680   -0.6805    0.7212 H   0  0  0  0  0  0  0  0  0  0  0  0
    0.0173   -0.5682    2.3175 H   0  0  0  0  0  0  0  0  0  0  0  0
  1  2  2  0
  2  3  1  0
  3  4  1  0
  4  5  1  0
  5  6  1  0
  6  7  1  0
  2  8  1  0
  8  9  1  0
  9 10  1  0
 10 11  1  0
 11 12  1  0
 12 13  2  0
 12 14  2  0
 12 15  1  0
 15 16  2  0
 16 17  1  0
 17 18  2  0
 18 19  1  0
 19 20  2  0
 11 21  1  0
 21 22  1  0
  7  3  1  0
 22  8  1  0
 20 15  1  0
  3 23  1  0
  4 24  1  0
  4 25  1  0
  5 26  1  0
  5 27  1  0
  6 28  1  0
  6 29  1  0
  9 30  1  0
  9 31  1  0
 10 32  1  0
 10 33  1  0
 16 34  1  0
 17 35  1  0
 18 36  1  0
 19 37  1  0
 20 38  1  0
 21 39  1  0
 21 40  1  0
 22 41  1  0
 22 42  1  0
M  END
$$$$
