
     RDKit          3D

 80 85  0  0  0  0  0  0  0  0999 V2000
    6.7147    0.5700    0.6040 C   0  0  0  0  0  0  0  0  0  0  0  0
    5.6077   -0.4645    0.8499 C   0  0  0  0  0  0  0  0  0  0  0  0
    5.7003   -1.6048   -0.1786 C   0  0  0  0  0  0  0  0  0  0  0  0
    4.8624   -1.3260   -1.4206 C   0  0  0  0  0  0  0  0  0  0  0  0
    3.3467   -1.2164   -1.0985 C   0  0  0  0  0  0  0  0  0  0  0  0
    2.7682   -2.6327   -1.2590 C   0  0  0  0  0  0  0  0  0  0  0  0
    2.6249   -3.4735   -0.3844 O   0  0  0  0  0  0  0  0  0  0  0  0
    2.4814   -2.9683   -2.5341 O   0  0  0  0  0  0  0  0  0  0  0  0
    2.7054   -0.2484   -2.1259 C   0  0  0  0  0  0  0  0  0  0  0  0
    1.2436    0.1197   -1.8248 C   0  0  0  0  0  0  0  0  0  0  0  0
    1.0151    0.7142   -0.4040 C   0  0  0  0  0  0  0  0  0  0  0  0
    1.7400    2.0904   -0.3447 C   0  0  0  0  0  0  0  0  0  0  0  0
    1.6407   -0.3123    0.5650 C   0  0  0  0  0  0  0  0  0  0  0  0
    0.8985   -1.0194    1.4438 C   0  0  0  0  0  0  0  0  0  0  0  0
   -0.5955   -1.0002    1.5395 C   0  0  0  0  0  0  0  0  0  0  0  0
   -1.2483   -0.4067    0.2781 C   0  0  0  0  0  0  0  0  0  0  0  0
   -2.8313   -0.4331    0.2633 C   0  0  0  0  0  0  0  0  0  0  0  0
   -3.3039   -1.4279   -0.8396 C   0  0  0  0  0  0  0  0  0  0  0  0
   -4.8061   -1.6795   -0.7289 C   0  0  0  0  0  0  0  0  0  0  0  0
   -5.4188   -0.6705    0.2470 C   0  0  0  0  0  0  0  0  0  0  0  0
   -6.8185   -0.8652    0.2989 O   0  0  0  0  0  0  0  0  0  0  0  0
   -4.9006   -0.9446    1.5486 O   0  0  0  0  0  0  0  0  0  0  0  0
   -3.4665   -0.9429    1.5869 C   0  0  0  0  0  0  0  0  0  0  0  0
   -5.0711    0.7991   -0.1408 C   0  0  0  0  0  0  0  0  0  0  0  0
   -5.7362    1.7814    0.8600 C   0  0  0  0  0  0  0  0  0  0  0  0
   -5.6543    1.1462   -1.5277 C   0  0  0  0  0  0  0  0  0  0  0  0
   -3.5010    0.9494   -0.0248 C   0  0  0  0  0  0  0  0  0  0  0  0
   -2.8233    1.7633   -1.1325 C   0  0  0  0  0  0  0  0  0  0  0  0
   -1.3176    1.5472   -1.2872 C   0  0  0  0  0  0  0  0  0  0  0  0
   -0.5690    0.9606   -0.0656 C   0  0  0  0  0  0  0  0  0  0  0  0
   -0.6758    1.9421    1.1431 C   0  0  0  0  0  0  0  0  0  0  0  0
    3.1046   -0.7418    0.3757 C   0  0  0  0  0  0  0  0  0  0  0  0
    4.2091    0.2281    0.8757 C   0  0  0  0  0  0  0  0  0  0  0  0
    3.9272    0.7494    2.2928 C   0  0  0  0  0  0  0  0  0  0  0  0
    6.6988    1.3567    1.3651 H   0  0  0  0  0  0  0  0  0  0  0  0
    6.6051    1.0455   -0.3769 H   0  0  0  0  0  0  0  0  0  0  0  0
    7.7020    0.0964    0.6415 H   0  0  0  0  0  0  0  0  0  0  0  0
    5.8080   -0.9130    1.8327 H   0  0  0  0  0  0  0  0  0  0  0  0
    5.3554   -2.5380    0.2847 H   0  0  0  0  0  0  0  0  0  0  0  0
    6.7432   -1.7816   -0.4663 H   0  0  0  0  0  0  0  0  0  0  0  0
    5.2292   -0.3997   -1.8793 H   0  0  0  0  0  0  0  0  0  0  0  0
    5.0459   -2.1172   -2.1578 H   0  0  0  0  0  0  0  0  0  0  0  0
    2.1779   -3.8985   -2.4649 H   0  0  0  0  0  0  0  0  0  0  0  0
    2.7522   -0.6669   -3.1391 H   0  0  0  0  0  0  0  0  0  0  0  0
    3.2986    0.6705   -2.1848 H   0  0  0  0  0  0  0  0  0  0  0  0
    0.6271   -0.7736   -1.9750 H   0  0  0  0  0  0  0  0  0  0  0  0
    0.9344    0.8429   -2.5892 H   0  0  0  0  0  0  0  0  0  0  0  0
    1.1965    2.8512   -0.9137 H   0  0  0  0  0  0  0  0  0  0  0  0
    2.7420    2.0772   -0.7736 H   0  0  0  0  0  0  0  0  0  0  0  0
    1.8503    2.4568    0.6798 H   0  0  0  0  0  0  0  0  0  0  0  0
    1.3775   -1.7587    2.0860 H   0  0  0  0  0  0  0  0  0  0  0  0
   -0.8828   -0.4632    2.4493 H   0  0  0  0  0  0  0  0  0  0  0  0
   -0.9256   -2.0394    1.6559 H   0  0  0  0  0  0  0  0  0  0  0  0
   -0.9527   -1.0867   -0.5335 H   0  0  0  0  0  0  0  0  0  0  0  0
   -3.0639   -1.0381   -1.8364 H   0  0  0  0  0  0  0  0  0  0  0  0
   -2.7806   -2.3880   -0.7481 H   0  0  0  0  0  0  0  0  0  0  0  0
   -5.2862   -1.6502   -1.7136 H   0  0  0  0  0  0  0  0  0  0  0  0
   -4.9716   -2.6976   -0.3517 H   0  0  0  0  0  0  0  0  0  0  0  0
   -6.9254   -1.7221    0.7441 H   0  0  0  0  0  0  0  0  0  0  0  0
   -3.1586   -1.9700    1.8102 H   0  0  0  0  0  0  0  0  0  0  0  0
   -3.1757   -0.3156    2.4363 H   0  0  0  0  0  0  0  0  0  0  0  0
   -5.4692    2.8178    0.6231 H   0  0  0  0  0  0  0  0  0  0  0  0
   -6.8291    1.7067    0.8302 H   0  0  0  0  0  0  0  0  0  0  0  0
   -5.4212    1.5880    1.8916 H   0  0  0  0  0  0  0  0  0  0  0  0
   -5.4859    2.1995   -1.7792 H   0  0  0  0  0  0  0  0  0  0  0  0
   -6.7382    0.9860   -1.5533 H   0  0  0  0  0  0  0  0  0  0  0  0
   -5.2184    0.5379   -2.3261 H   0  0  0  0  0  0  0  0  0  0  0  0
   -3.3493    1.5412    0.8832 H   0  0  0  0  0  0  0  0  0  0  0  0
   -3.0146    2.8281   -0.9450 H   0  0  0  0  0  0  0  0  0  0  0  0
   -3.2621    1.5539   -2.1129 H   0  0  0  0  0  0  0  0  0  0  0  0
   -1.2043    0.8592   -2.1340 H   0  0  0  0  0  0  0  0  0  0  0  0
   -0.8644    2.4907   -1.6115 H   0  0  0  0  0  0  0  0  0  0  0  0
   -1.6175    1.8729    1.6850 H   0  0  0  0  0  0  0  0  0  0  0  0
   -0.5657    2.9832    0.8201 H   0  0  0  0  0  0  0  0  0  0  0  0
    0.0953    1.7484    1.8962 H   0  0  0  0  0  0  0  0  0  0  0  0
    3.2455   -1.6247    1.0186 H   0  0  0  0  0  0  0  0  0  0  0  0
    4.2548    1.0924    0.2078 H   0  0  0  0  0  0  0  0  0  0  0  0
    2.9974    1.3229    2.3368 H   0  0  0  0  0  0  0  0  0  0  0  0
    4.7281    1.4119    2.6360 H   0  0  0  0  0  0  0  0  0  0  0  0
    3.8456   -0.0775    3.0067 H   0  0  0  0  0  0  0  0  0  0  0  0
  1  2  1  0
  2  3  1  0
  3  4  1  0
  4  5  1  0
  5  6  1  0
  6  7  2  0
  6  8  1  0
  5  9  1  0
  9 10  1  0
 10 11  1  0
 11 12  1  0
 11 13  1  0
 13 14  2  0
 14 15  1  0
 15 16  1  0
 16 17  1  0
 17 18  1  0
 18 19  1  0
 19 20  1  0
 20 21  1  0
 20 22  1  0
 22 23  1  0
 20 24  1  0
 24 25  1  0
 24 26  1  0
 24 27  1  0
 27 28  1  0
 28 29  1  0
 29 30  1  0
 30 31  1  0
 13 32  1  0
 32 33  1  0
 33 34  1  0
 33  2  1  0
 32  5  1  0
 30 11  1  0
 30 16  1  0
 23 17  1  0
 27 17  1  0
  1 35  1  0
  1 36  1  0
  1 37  1  0
  2 38  1  0
  3 39  1  0
  3 40  1  0
  4 41  1  0
  4 42  1  0
  8 43  1  0
  9 44  1  0
  9 45  1  0
 10 46  1  0
 10 47  1  0
 12 48  1  0
 12 49  1  0
 12 50  1  0
 14 51  1  0
 15 52  1  0
 15 53  1  0
 16 54  1  0
 18 55  1  0
 18 56  1  0
 19 57  1  0
 19 58  1  0
 21 59  1  0
 23 60  1  0
 23 61  1  0
 25 62  1  0
 25 63  1  0
 25 64  1  0
 26 65  1  0
 26 66  1  0
 26 67  1  0
 27 68  1  0
 28 69  1  0
 28 70  1  0
 29 71  1  0
 29 72  1  0
 31 73  1  0
 31 74  1  0
 31 75  1  0
 32 76  1  0
 33 77  1  0
 34 78  1  0
 34 79  1  0
 34 80  1  0
M  END
$$$$
