
     RDKit          3D

 49 52  0  0  0  0  0  0  0  0999 V2000
    2.6275    1.0302   -2.5236 C   0  0  0  0  0  0  0  0  0  0  0  0
    1.5870    1.2430   -1.4245 C   0  0  0  0  0  0  0  0  0  0  0  0
    2.1302    0.8915   -0.1302 N   0  0  0  0  0  0  0  0  0  0  0  0
    2.9190    1.7331    0.5844 C   0  0  0  0  0  0  0  0  0  0  0  0
    3.0733    2.9168    0.2944 O   0  0  0  0  0  0  0  0  0  0  0  0
    3.5690    1.2038    1.8142 C   0  0  0  0  0  0  0  0  0  0  0  0
    3.8008   -0.0167    2.3217 C   0  0  0  0  0  0  0  0  0  0  0  0
    3.4796   -1.2730    1.7440 C   0  0  0  0  0  0  0  0  0  0  0  0
    3.4377   -2.5168    2.3677 C   0  0  0  0  0  0  0  0  0  0  0  0
    3.0617   -3.4821    1.4032 C   0  0  0  0  0  0  0  0  0  0  0  0
    2.9021   -2.7923    0.2302 C   0  0  0  0  0  0  0  0  0  0  0  0
    3.1659   -1.4782    0.4211 O   0  0  0  0  0  0  0  0  0  0  0  0
    0.3614    0.3955   -1.6437 C   0  0  0  0  0  0  0  0  0  0  0  0
    0.3273   -0.7397   -2.3176 N   0  0  0  0  0  0  0  0  0  0  0  0
   -0.9871   -1.1134   -2.3592 C   0  0  0  0  0  0  0  0  0  0  0  0
   -1.5679   -2.2194   -2.9983 C   0  0  0  0  0  0  0  0  0  0  0  0
   -2.9554   -2.3818   -2.9429 C   0  0  0  0  0  0  0  0  0  0  0  0
   -3.7488   -1.4566   -2.2671 C   0  0  0  0  0  0  0  0  0  0  0  0
   -3.1844   -0.3515   -1.6176 C   0  0  0  0  0  0  0  0  0  0  0  0
   -1.7904   -0.2096   -1.6681 C   0  0  0  0  0  0  0  0  0  0  0  0
   -0.8956    0.7001   -1.1393 N   0  0  0  0  0  0  0  0  0  0  0  0
   -1.1961    1.8380   -0.2682 C   0  0  0  0  0  0  0  0  0  0  0  0
   -2.1534    1.5459    0.8687 C   0  0  0  0  0  0  0  0  0  0  0  0
   -1.8364    0.6195    1.8834 C   0  0  0  0  0  0  0  0  0  0  0  0
   -0.3307   -0.2282    1.9315 Cl  0  0  0  0  0  0  0  0  0  0  0  0
   -2.7272    0.3552    2.9319 C   0  0  0  0  0  0  0  0  0  0  0  0
   -3.9461    1.0189    3.0050 C   0  0  0  0  0  0  0  0  0  0  0  0
   -4.2711    1.9570    2.0328 C   0  0  0  0  0  0  0  0  0  0  0  0
   -3.3853    2.2230    0.9804 C   0  0  0  0  0  0  0  0  0  0  0  0
   -3.8976    3.4152   -0.1653 Cl  0  0  0  0  0  0  0  0  0  0  0  0
    2.2100    1.2598   -3.5100 H   0  0  0  0  0  0  0  0  0  0  0  0
    3.4990    1.6751   -2.3665 H   0  0  0  0  0  0  0  0  0  0  0  0
    2.9880   -0.0051   -2.5429 H   0  0  0  0  0  0  0  0  0  0  0  0
    1.3154    2.3050   -1.4273 H   0  0  0  0  0  0  0  0  0  0  0  0
    2.1515   -0.0987    0.0884 H   0  0  0  0  0  0  0  0  0  0  0  0
    3.9337    2.0399    2.4121 H   0  0  0  0  0  0  0  0  0  0  0  0
    4.2958   -0.0571    3.2899 H   0  0  0  0  0  0  0  0  0  0  0  0
    3.6439   -2.6992    3.4136 H   0  0  0  0  0  0  0  0  0  0  0  0
    2.9205   -4.5434    1.5465 H   0  0  0  0  0  0  0  0  0  0  0  0
    2.6179   -3.0700   -0.7762 H   0  0  0  0  0  0  0  0  0  0  0  0
   -0.9416   -2.9234   -3.5346 H   0  0  0  0  0  0  0  0  0  0  0  0
   -3.4162   -3.2315   -3.4401 H   0  0  0  0  0  0  0  0  0  0  0  0
   -4.8281   -1.5935   -2.2441 H   0  0  0  0  0  0  0  0  0  0  0  0
   -3.8242    0.3568   -1.1069 H   0  0  0  0  0  0  0  0  0  0  0  0
   -1.5444    2.6222   -0.9456 H   0  0  0  0  0  0  0  0  0  0  0  0
   -0.2663    2.2088    0.1733 H   0  0  0  0  0  0  0  0  0  0  0  0
   -2.4682   -0.3690    3.7018 H   0  0  0  0  0  0  0  0  0  0  0  0
   -4.6344    0.8124    3.8207 H   0  0  0  0  0  0  0  0  0  0  0  0
   -5.2211    2.4836    2.0987 H   0  0  0  0  0  0  0  0  0  0  0  0
  1  2  1  0
  2  3  1  0
  3  4  1  0
  4  5  2  0
  4  6  1  0
  6  7  2  3
  7  8  1  0
  8  9  2  0
  9 10  1  0
 10 11  2  0
 11 12  1  0
  2 13  1  0
 13 14  2  0
 14 15  1  0
 15 16  2  0
 16 17  1  0
 17 18  2  0
 18 19  1  0
 19 20  2  0
 20 21  1  0
 21 22  1  0
 22 23  1  0
 23 24  2  0
 24 25  1  0
 24 26  1  0
 26 27  2  0
 27 28  1  0
 28 29  2  0
 29 30  1  0
 12  8  1  0
 21 13  1  0
 29 23  1  0
 20 15  1  0
  1 31  1  0
  1 32  1  0
  1 33  1  0
  2 34  1  0
  3 35  1  0
  6 36  1  0
  7 37  1  0
  9 38  1  0
 10 39  1  0
 11 40  1  0
 16 41  1  0
 17 42  1  0
 18 43  1  0
 19 44  1  0
 22 45  1  0
 22 46  1  0
 26 47  1  0
 27 48  1  0
 28 49  1  0
M  END
$$$$
