
     RDKit          3D

 42 44  0  0  0  0  0  0  0  0999 V2000
   -5.9267    0.6592   -1.4198 C   0  0  0  0  0  0  0  0  0  0  0  0
   -5.4555   -0.7367   -1.1326 C   0  0  0  0  0  0  0  0  0  0  0  0
   -6.3577   -1.8092   -1.1655 C   0  0  0  0  0  0  0  0  0  0  0  0
   -5.9225   -3.1112   -0.9081 C   0  0  0  0  0  0  0  0  0  0  0  0
   -4.5805   -3.3567   -0.6230 C   0  0  0  0  0  0  0  0  0  0  0  0
   -3.6729   -2.2996   -0.5858 C   0  0  0  0  0  0  0  0  0  0  0  0
   -4.1143   -0.9942   -0.8167 C   0  0  0  0  0  0  0  0  0  0  0  0
   -3.2304    0.0524   -0.8061 O   0  0  0  0  0  0  0  0  0  0  0  0
   -2.6703    0.2798    0.4847 C   0  0  0  0  0  0  0  0  0  0  0  0
   -1.1555    0.0556    0.5034 C   0  0  0  0  0  0  0  0  0  0  0  0
   -0.5907   -0.8345   -0.1289 O   0  0  0  0  0  0  0  0  0  0  0  0
   -0.4610    0.9378    1.3119 N   0  0  0  0  0  0  0  0  0  0  0  0
    0.9884    0.8907    1.3977 C   0  0  0  0  0  0  0  0  0  0  0  0
    1.6644    1.4690    0.1544 C   0  0  0  0  0  0  0  0  0  0  0  0
    3.1407    1.3045    0.2267 C   0  0  0  0  0  0  0  0  0  0  0  0
    3.9910    2.0891    0.8559 N   0  0  0  0  0  0  0  0  0  0  0  0
    5.2312    1.5406    0.6336 C   0  0  0  0  0  0  0  0  0  0  0  0
    6.4943    1.9712    1.0649 C   0  0  0  0  0  0  0  0  0  0  0  0
    7.6203    1.2217    0.7000 C   0  0  0  0  0  0  0  0  0  0  0  0
    7.4909    0.0686   -0.0789 C   0  0  0  0  0  0  0  0  0  0  0  0
    6.2379   -0.3777   -0.5169 C   0  0  0  0  0  0  0  0  0  0  0  0
    5.1335    0.3891   -0.1397 C   0  0  0  0  0  0  0  0  0  0  0  0
    3.7912    0.2614   -0.3864 N   0  0  0  0  0  0  0  0  0  0  0  0
   -5.3543    1.0921   -2.2466 H   0  0  0  0  0  0  0  0  0  0  0  0
   -5.8122    1.2871   -0.5298 H   0  0  0  0  0  0  0  0  0  0  0  0
   -6.9832    0.6748   -1.7073 H   0  0  0  0  0  0  0  0  0  0  0  0
   -7.4062   -1.6388   -1.3985 H   0  0  0  0  0  0  0  0  0  0  0  0
   -6.6297   -3.9362   -0.9441 H   0  0  0  0  0  0  0  0  0  0  0  0
   -4.2379   -4.3721   -0.4420 H   0  0  0  0  0  0  0  0  0  0  0  0
   -2.6227   -2.5012   -0.3921 H   0  0  0  0  0  0  0  0  0  0  0  0
   -3.1173   -0.3374    1.2756 H   0  0  0  0  0  0  0  0  0  0  0  0
   -2.8800    1.3259    0.7360 H   0  0  0  0  0  0  0  0  0  0  0  0
   -0.9352    1.7438    1.6997 H   0  0  0  0  0  0  0  0  0  0  0  0
    1.2865   -0.1546    1.5466 H   0  0  0  0  0  0  0  0  0  0  0  0
    1.2796    1.4476    2.2958 H   0  0  0  0  0  0  0  0  0  0  0  0
    1.2824    0.9893   -0.7546 H   0  0  0  0  0  0  0  0  0  0  0  0
    1.4204    2.5347    0.0645 H   0  0  0  0  0  0  0  0  0  0  0  0
    6.5861    2.8673    1.6680 H   0  0  0  0  0  0  0  0  0  0  0  0
    8.6056    1.5454    1.0266 H   0  0  0  0  0  0  0  0  0  0  0  0
    8.3815   -0.4950   -0.3498 H   0  0  0  0  0  0  0  0  0  0  0  0
    6.1384   -1.2724   -1.1214 H   0  0  0  0  0  0  0  0  0  0  0  0
    3.3524   -0.4712   -0.9266 H   0  0  0  0  0  0  0  0  0  0  0  0
  1  2  1  0
  2  3  2  0
  3  4  1  0
  4  5  2  0
  5  6  1  0
  6  7  2  0
  7  8  1  0
  8  9  1  0
  9 10  1  0
 10 11  2  0
 10 12  1  0
 12 13  1  0
 13 14  1  0
 14 15  1  0
 15 16  2  0
 16 17  1  0
 17 18  2  0
 18 19  1  0
 19 20  2  0
 20 21  1  0
 21 22  2  0
 22 23  1  0
  7  2  1  0
 23 15  1  0
 22 17  1  0
  1 24  1  0
  1 25  1  0
  1 26  1  0
  3 27  1  0
  4 28  1  0
  5 29  1  0
  6 30  1  0
  9 31  1  0
  9 32  1  0
 12 33  1  0
 13 34  1  0
 13 35  1  0
 14 36  1  0
 14 37  1  0
 18 38  1  0
 19 39  1  0
 20 40  1  0
 21 41  1  0
 23 42  1  0
M  END
$$$$
