
     RDKit          3D

 47 49  0  0  0  0  0  0  0  0999 V2000
   -9.1543    0.5710   -0.7560 C   0  0  0  0  0  0  0  0  0  0  0  0
   -8.5282   -0.6683   -0.1320 C   0  0  0  0  0  0  0  0  0  0  0  0
   -7.0167   -0.7260   -0.3441 C   0  0  0  0  0  0  0  0  0  0  0  0
   -6.4143    0.3799    0.3271 O   0  0  0  0  0  0  0  0  0  0  0  0
   -5.0566    0.5065    0.2343 C   0  0  0  0  0  0  0  0  0  0  0  0
   -4.5333    1.6359    0.8699 C   0  0  0  0  0  0  0  0  0  0  0  0
   -3.1600    1.8904    0.8550 C   0  0  0  0  0  0  0  0  0  0  0  0
   -2.2930    1.0028    0.2116 C   0  0  0  0  0  0  0  0  0  0  0  0
   -0.8332    1.3021    0.2147 C   0  0  0  0  0  0  0  0  0  0  0  0
   -0.4811    2.4740    0.1602 O   0  0  0  0  0  0  0  0  0  0  0  0
   -0.0151    0.1916    0.3182 N   0  0  0  0  0  0  0  0  0  0  0  0
    1.3946    0.1642    0.3042 C   0  0  0  0  0  0  0  0  0  0  0  0
    2.0143   -1.0731    0.5072 C   0  0  0  0  0  0  0  0  0  0  0  0
    3.4110   -1.1900    0.5023 C   0  0  0  0  0  0  0  0  0  0  0  0
    4.2124   -0.0701    0.2920 C   0  0  0  0  0  0  0  0  0  0  0  0
    5.6198   -0.0932    0.2712 N   0  0  0  0  0  0  0  0  0  0  0  0
    6.4675   -1.1754    0.4417 C   0  0  0  0  0  0  0  0  0  0  0  0
    6.0908   -2.3268    0.6426 O   0  0  0  0  0  0  0  0  0  0  0  0
    7.8938   -0.8512    0.3636 C   0  0  0  0  0  0  0  0  0  0  0  0
    8.9481   -1.7381    0.4984 C   0  0  0  0  0  0  0  0  0  0  0  0
   10.2197   -1.1089    0.3707 C   0  0  0  0  0  0  0  0  0  0  0  0
   10.1015    0.2428    0.1416 C   0  0  0  0  0  0  0  0  0  0  0  0
    8.4681    0.7420    0.0822 S   0  0  0  0  0  0  0  0  0  0  0  0
    3.5922    1.1668    0.0860 C   0  0  0  0  0  0  0  0  0  0  0  0
    2.1958    1.2834    0.0904 C   0  0  0  0  0  0  0  0  0  0  0  0
   -2.8139   -0.1219   -0.4408 C   0  0  0  0  0  0  0  0  0  0  0  0
   -4.1925   -0.3697   -0.4246 C   0  0  0  0  0  0  0  0  0  0  0  0
  -10.2387    0.5612   -0.6070 H   0  0  0  0  0  0  0  0  0  0  0  0
   -8.7611    1.4870   -0.3040 H   0  0  0  0  0  0  0  0  0  0  0  0
   -8.9600    0.6077   -1.8326 H   0  0  0  0  0  0  0  0  0  0  0  0
   -8.9896   -1.5626   -0.5653 H   0  0  0  0  0  0  0  0  0  0  0  0
   -8.7483   -0.6653    0.9419 H   0  0  0  0  0  0  0  0  0  0  0  0
   -6.6406   -1.6656    0.0778 H   0  0  0  0  0  0  0  0  0  0  0  0
   -6.7962   -0.6878   -1.4178 H   0  0  0  0  0  0  0  0  0  0  0  0
   -5.2023    2.3277    1.3769 H   0  0  0  0  0  0  0  0  0  0  0  0
   -2.7701    2.7791    1.3471 H   0  0  0  0  0  0  0  0  0  0  0  0
   -0.4667   -0.6966    0.4922 H   0  0  0  0  0  0  0  0  0  0  0  0
    1.4261   -1.9715    0.6760 H   0  0  0  0  0  0  0  0  0  0  0  0
    3.8352   -2.1752    0.6678 H   0  0  0  0  0  0  0  0  0  0  0  0
    6.0812    0.7940    0.1115 H   0  0  0  0  0  0  0  0  0  0  0  0
    8.8029   -2.7974    0.6819 H   0  0  0  0  0  0  0  0  0  0  0  0
   11.1707   -1.6226    0.4435 H   0  0  0  0  0  0  0  0  0  0  0  0
   10.8972    0.9628    0.0060 H   0  0  0  0  0  0  0  0  0  0  0  0
    4.1801    2.0656   -0.0832 H   0  0  0  0  0  0  0  0  0  0  0  0
    1.7684    2.2666   -0.0804 H   0  0  0  0  0  0  0  0  0  0  0  0
   -2.1666   -0.7985   -0.9924 H   0  0  0  0  0  0  0  0  0  0  0  0
   -4.5592   -1.2494   -0.9436 H   0  0  0  0  0  0  0  0  0  0  0  0
  1  2  1  0
  2  3  1  0
  3  4  1  0
  4  5  1  0
  5  6  2  0
  6  7  1  0
  7  8  2  0
  8  9  1  0
  9 10  2  0
  9 11  1  0
 11 12  1  0
 12 13  2  0
 13 14  1  0
 14 15  2  0
 15 16  1  0
 16 17  1  0
 17 18  2  0
 17 19  1  0
 19 20  2  0
 20 21  1  0
 21 22  2  0
 22 23  1  0
 15 24  1  0
 24 25  2  0
  8 26  1  0
 26 27  2  0
 27  5  1  0
 25 12  1  0
 23 19  1  0
  1 28  1  0
  1 29  1  0
  1 30  1  0
  2 31  1  0
  2 32  1  0
  3 33  1  0
  3 34  1  0
  6 35  1  0
  7 36  1  0
 11 37  1  0
 13 38  1  0
 14 39  1  0
 16 40  1  0
 20 41  1  0
 21 42  1  0
 22 43  1  0
 24 44  1  0
 25 45  1  0
 26 46  1  0
 27 47  1  0
M  END
$$$$
