
     RDKit          3D

 54 56  0  0  0  0  0  0  0  0999 V2000
   -6.7545    1.9217   -2.8464 C   0  0  0  0  0  0  0  0  0  0  0  0
   -7.0340    0.6873   -2.0029 C   0  0  0  0  0  0  0  0  0  0  0  0
   -5.9306    0.3807   -0.9894 C   0  0  0  0  0  0  0  0  0  0  0  0
   -4.6037   -0.0058   -1.6406 C   0  0  0  0  0  0  0  0  0  0  0  0
   -3.6267   -0.4141   -0.6505 N   0  0  0  0  0  0  0  0  0  0  0  0
   -2.8700    0.5070    0.0437 C   0  0  0  0  0  0  0  0  0  0  0  0
   -2.9330    1.7148   -0.1601 O   0  0  0  0  0  0  0  0  0  0  0  0
   -1.9465   -0.1185    1.0885 C   0  0  0  0  0  0  0  0  0  0  0  0
   -1.3082    0.9623    1.9716 C   0  0  0  0  0  0  0  0  0  0  0  0
   -0.3285    0.3668    2.9800 C   0  0  0  0  0  0  0  0  0  0  0  0
    0.7717   -0.4760    2.3144 C   0  0  0  0  0  0  0  0  0  0  0  0
    1.7774    0.4182    1.5586 C   0  0  0  0  0  0  0  0  0  0  0  0
    2.9921   -0.3218    1.2445 N   0  0  0  0  0  0  0  0  0  0  0  0
    4.0949    0.1624    0.5544 C   0  0  0  0  0  0  0  0  0  0  0  0
    4.2164    1.5136    0.3633 N   0  0  0  0  0  0  0  0  0  0  0  0
    5.2399    2.1446   -0.2924 C   0  0  0  0  0  0  0  0  0  0  0  0
    5.1916    3.8182   -0.3882 S   0  0  0  0  0  0  0  0  0  0  0  0
    6.2376    1.3846   -0.8326 N   0  0  0  0  0  0  0  0  0  0  0  0
    6.1649    0.1026   -0.6710 C   0  0  0  0  0  0  0  0  0  0  0  0
    7.2427   -0.7459   -1.2538 C   0  0  0  0  0  0  0  0  0  0  0  0
    7.2246   -2.0769   -1.1077 C   0  0  0  0  0  0  0  0  0  0  0  0
    6.1796   -2.7530   -0.3800 C   0  0  0  0  0  0  0  0  0  0  0  0
    5.1633   -2.0754    0.1726 C   0  0  0  0  0  0  0  0  0  0  0  0
    5.0744   -0.6284    0.0587 C   0  0  0  0  0  0  0  0  0  0  0  0
    0.1280   -1.5493    1.4185 C   0  0  0  0  0  0  0  0  0  0  0  0
   -0.8725   -0.9809    0.4118 C   0  0  0  0  0  0  0  0  0  0  0  0
   -5.8892    1.7743   -3.4991 H   0  0  0  0  0  0  0  0  0  0  0  0
   -6.5674    2.7956   -2.2143 H   0  0  0  0  0  0  0  0  0  0  0  0
   -7.6162    2.1434   -3.4843 H   0  0  0  0  0  0  0  0  0  0  0  0
   -7.1883   -0.1765   -2.6599 H   0  0  0  0  0  0  0  0  0  0  0  0
   -7.9729    0.8429   -1.4581 H   0  0  0  0  0  0  0  0  0  0  0  0
   -6.2680   -0.4442   -0.3488 H   0  0  0  0  0  0  0  0  0  0  0  0
   -5.7869    1.2432   -0.3269 H   0  0  0  0  0  0  0  0  0  0  0  0
   -4.1904    0.8305   -2.2136 H   0  0  0  0  0  0  0  0  0  0  0  0
   -4.7415   -0.8532   -2.3202 H   0  0  0  0  0  0  0  0  0  0  0  0
   -3.6404   -1.3753   -0.3366 H   0  0  0  0  0  0  0  0  0  0  0  0
   -2.5679   -0.7589    1.7295 H   0  0  0  0  0  0  0  0  0  0  0  0
   -0.7917    1.7059    1.3519 H   0  0  0  0  0  0  0  0  0  0  0  0
   -2.0928    1.5077    2.5109 H   0  0  0  0  0  0  0  0  0  0  0  0
    0.1175    1.1703    3.5780 H   0  0  0  0  0  0  0  0  0  0  0  0
   -0.8858   -0.2672    3.6818 H   0  0  0  0  0  0  0  0  0  0  0  0
    1.3202   -0.9927    3.1140 H   0  0  0  0  0  0  0  0  0  0  0  0
    2.0443    1.2701    2.1954 H   0  0  0  0  0  0  0  0  0  0  0  0
    1.3404    0.8183    0.6379 H   0  0  0  0  0  0  0  0  0  0  0  0
    2.8698   -1.3248    1.1715 H   0  0  0  0  0  0  0  0  0  0  0  0
    3.5120    2.1235    0.7487 H   0  0  0  0  0  0  0  0  0  0  0  0
    8.0296   -0.2339   -1.7949 H   0  0  0  0  0  0  0  0  0  0  0  0
    8.0158   -2.6845   -1.5371 H   0  0  0  0  0  0  0  0  0  0  0  0
    6.2447   -3.8333   -0.2856 H   0  0  0  0  0  0  0  0  0  0  0  0
    4.4063   -2.6191    0.7242 H   0  0  0  0  0  0  0  0  0  0  0  0
   -0.3987   -2.2673    2.0610 H   0  0  0  0  0  0  0  0  0  0  0  0
    0.8917   -2.1248    0.8846 H   0  0  0  0  0  0  0  0  0  0  0  0
   -1.3395   -1.8155   -0.1250 H   0  0  0  0  0  0  0  0  0  0  0  0
   -0.3457   -0.3932   -0.3500 H   0  0  0  0  0  0  0  0  0  0  0  0
  1  2  1  0
  2  3  1  0
  3  4  1  0
  4  5  1  0
  5  6  1  0
  6  7  2  0
  6  8  1  0
  8  9  1  0
  9 10  1  0
 10 11  1  0
 11 12  1  0
 12 13  1  0
 13 14  1  0
 14 15  1  0
 15 16  1  0
 16 17  2  0
 16 18  1  0
 18 19  2  0
 19 20  1  0
 20 21  2  0
 21 22  1  0
 22 23  2  0
 23 24  1  0
 11 25  1  0
 25 26  1  0
 26  8  1  0
 24 14  2  0
 24 19  1  0
  1 27  1  0
  1 28  1  0
  1 29  1  0
  2 30  1  0
  2 31  1  0
  3 32  1  0
  3 33  1  0
  4 34  1  0
  4 35  1  0
  5 36  1  0
  8 37  1  0
  9 38  1  0
  9 39  1  0
 10 40  1  0
 10 41  1  0
 11 42  1  0
 12 43  1  0
 12 44  1  0
 13 45  1  0
 15 46  1  0
 20 47  1  0
 21 48  1  0
 22 49  1  0
 23 50  1  0
 25 51  1  0
 25 52  1  0
 26 53  1  0
 26 54  1  0
M  END
$$$$
