
     RDKit          3D

 57 60  0  0  0  0  0  0  0  0999 V2000
    8.1429   -2.1941    0.7264 C   0  0  0  0  0  0  0  0  0  0  0  0
    6.9516   -1.8703    1.4335 O   0  0  0  0  0  0  0  0  0  0  0  0
    5.8747   -1.4782    0.6865 C   0  0  0  0  0  0  0  0  0  0  0  0
    5.8402   -1.3615   -0.6980 C   0  0  0  0  0  0  0  0  0  0  0  0
    4.6635   -0.9518   -1.3306 C   0  0  0  0  0  0  0  0  0  0  0  0
    3.5038   -0.6497   -0.5932 C   0  0  0  0  0  0  0  0  0  0  0  0
    2.3077   -0.2183   -1.3939 C   0  0  0  0  0  0  0  0  0  0  0  0
    2.3705   -0.1580   -2.6189 O   0  0  0  0  0  0  0  0  0  0  0  0
    1.1615    0.0947   -0.7066 N   0  0  0  0  0  0  0  0  0  0  0  0
   -0.0789    0.4244   -1.3727 C   0  0  0  0  0  0  0  0  0  0  0  0
   -0.7848   -0.8537   -1.8840 C   0  0  0  0  0  0  0  0  0  0  0  0
   -2.2989   -0.6560   -2.1894 C   0  0  0  0  0  0  0  0  0  0  0  0
   -2.4930    0.3554   -3.3376 C   0  0  0  0  0  0  0  0  0  0  0  0
   -2.8940   -2.0040   -2.6390 C   0  0  0  0  0  0  0  0  0  0  0  0
   -3.0547   -0.1780   -0.9088 C   0  0  0  0  0  0  0  0  0  0  0  0
   -2.2845    0.8742   -0.1809 C   0  0  0  0  0  0  0  0  0  0  0  0
   -0.9471    1.1520   -0.4038 C   0  0  0  0  0  0  0  0  0  0  0  0
   -0.6796    2.2705    0.3913 C   0  0  0  0  0  0  0  0  0  0  0  0
   -1.7402    2.6579    1.0944 N   0  0  0  0  0  0  0  0  0  0  0  0
   -2.7305    1.7666    0.7872 N   0  0  0  0  0  0  0  0  0  0  0  0
   -3.9871    1.8745    1.4621 C   0  0  0  0  0  0  0  0  0  0  0  0
   -4.2396    3.0206    2.2389 C   0  0  0  0  0  0  0  0  0  0  0  0
   -5.4519    3.1761    2.9161 C   0  0  0  0  0  0  0  0  0  0  0  0
   -6.4250    2.1856    2.8358 C   0  0  0  0  0  0  0  0  0  0  0  0
   -6.1822    1.0383    2.0850 C   0  0  0  0  0  0  0  0  0  0  0  0
   -4.9688    0.8790    1.4041 C   0  0  0  0  0  0  0  0  0  0  0  0
    3.5387   -0.7615    0.8118 C   0  0  0  0  0  0  0  0  0  0  0  0
    2.3925   -0.4705    1.5097 O   0  0  0  0  0  0  0  0  0  0  0  0
    2.4782   -0.3919    2.9294 C   0  0  0  0  0  0  0  0  0  0  0  0
    4.7271   -1.1800    1.4311 C   0  0  0  0  0  0  0  0  0  0  0  0
    8.5275   -1.3250    0.1827 H   0  0  0  0  0  0  0  0  0  0  0  0
    7.9840   -3.0436    0.0541 H   0  0  0  0  0  0  0  0  0  0  0  0
    8.8981   -2.4880    1.4616 H   0  0  0  0  0  0  0  0  0  0  0  0
    6.7031   -1.5802   -1.3182 H   0  0  0  0  0  0  0  0  0  0  0  0
    4.6561   -0.8674   -2.4168 H   0  0  0  0  0  0  0  0  0  0  0  0
    1.1449   -0.0850    0.2923 H   0  0  0  0  0  0  0  0  0  0  0  0
    0.1444    1.0814   -2.2224 H   0  0  0  0  0  0  0  0  0  0  0  0
   -0.6847   -1.6468   -1.1280 H   0  0  0  0  0  0  0  0  0  0  0  0
   -0.2613   -1.2253   -2.7746 H   0  0  0  0  0  0  0  0  0  0  0  0
   -1.9463    0.0401   -4.2334 H   0  0  0  0  0  0  0  0  0  0  0  0
   -3.5514    0.4411   -3.6092 H   0  0  0  0  0  0  0  0  0  0  0  0
   -2.1448    1.3588   -3.0738 H   0  0  0  0  0  0  0  0  0  0  0  0
   -2.4047   -2.3688   -3.5492 H   0  0  0  0  0  0  0  0  0  0  0  0
   -2.7700   -2.7705   -1.8658 H   0  0  0  0  0  0  0  0  0  0  0  0
   -3.9658   -1.9126   -2.8481 H   0  0  0  0  0  0  0  0  0  0  0  0
   -4.0459    0.1905   -1.1957 H   0  0  0  0  0  0  0  0  0  0  0  0
   -3.1847   -1.0322   -0.2325 H   0  0  0  0  0  0  0  0  0  0  0  0
    0.2443    2.8279    0.4817 H   0  0  0  0  0  0  0  0  0  0  0  0
   -3.4991    3.8152    2.3190 H   0  0  0  0  0  0  0  0  0  0  0  0
   -5.6309    4.0716    3.5055 H   0  0  0  0  0  0  0  0  0  0  0  0
   -7.3679    2.3041    3.3631 H   0  0  0  0  0  0  0  0  0  0  0  0
   -6.9371    0.2570    2.0350 H   0  0  0  0  0  0  0  0  0  0  0  0
   -4.8273   -0.0525    0.8740 H   0  0  0  0  0  0  0  0  0  0  0  0
    1.5077   -0.0500    3.3015 H   0  0  0  0  0  0  0  0  0  0  0  0
    2.6723   -1.3775    3.3641 H   0  0  0  0  0  0  0  0  0  0  0  0
    3.2310    0.3387    3.2428 H   0  0  0  0  0  0  0  0  0  0  0  0
    4.7961   -1.2936    2.5087 H   0  0  0  0  0  0  0  0  0  0  0  0
  1  2  1  0
  2  3  1  0
  3  4  2  0
  4  5  1  0
  5  6  2  0
  6  7  1  0
  7  8  2  0
  7  9  1  0
  9 10  1  0
 10 11  1  0
 11 12  1  0
 12 13  1  0
 12 14  1  0
 12 15  1  0
 15 16  1  0
 16 17  2  0
 17 18  1  0
 18 19  2  0
 19 20  1  0
 20 21  1  0
 21 22  2  0
 22 23  1  0
 23 24  2  0
 24 25  1  0
 25 26  2  0
  6 27  1  0
 27 28  1  0
 28 29  1  0
 27 30  2  0
 30  3  1  0
 17 10  1  0
 26 21  1  0
 20 16  1  0
  1 31  1  0
  1 32  1  0
  1 33  1  0
  4 34  1  0
  5 35  1  0
  9 36  1  0
 10 37  1  0
 11 38  1  0
 11 39  1  0
 13 40  1  0
 13 41  1  0
 13 42  1  0
 14 43  1  0
 14 44  1  0
 14 45  1  0
 15 46  1  0
 15 47  1  0
 18 48  1  0
 22 49  1  0
 23 50  1  0
 24 51  1  0
 25 52  1  0
 26 53  1  0
 29 54  1  0
 29 55  1  0
 29 56  1  0
 30 57  1  0
M  END
$$$$
