
     RDKit          3D

 47 49  0  0  0  0  0  0  0  0999 V2000
    7.7431   -0.0140   -1.3115 C   0  0  0  0  0  0  0  0  0  0  0  0
    7.2626   -0.6912   -0.0397 C   0  0  0  0  0  0  0  0  0  0  0  0
    6.1032   -1.4812   -0.2961 O   0  0  0  0  0  0  0  0  0  0  0  0
    4.8716   -0.9145   -0.1301 C   0  0  0  0  0  0  0  0  0  0  0  0
    3.8048   -1.8127   -0.2006 C   0  0  0  0  0  0  0  0  0  0  0  0
    2.4837   -1.3760   -0.0542 C   0  0  0  0  0  0  0  0  0  0  0  0
    2.2123   -0.0235    0.1720 C   0  0  0  0  0  0  0  0  0  0  0  0
    0.8657    0.4389    0.3272 N   0  0  0  0  0  0  0  0  0  0  0  0
    0.4514    1.5419    1.0866 C   0  0  0  0  0  0  0  0  0  0  0  0
    1.2330    2.2130    1.9351 O   0  0  0  0  0  0  0  0  0  0  0  0
   -0.8879    1.7575    0.8450 C   0  0  0  0  0  0  0  0  0  0  0  0
   -1.3465    0.7081    0.0331 C   0  0  0  0  0  0  0  0  0  0  0  0
   -2.6387    0.5494   -0.3675 N   0  0  0  0  0  0  0  0  0  0  0  0
   -3.0111    1.1681   -1.6420 C   0  0  0  0  0  0  0  0  0  0  0  0
   -3.3215   -0.7135   -0.0414 C   0  0  0  0  0  0  0  0  0  0  0  0
   -4.7883   -0.4953    0.2623 C   0  0  0  0  0  0  0  0  0  0  0  0
   -5.7720   -1.2561   -0.3873 C   0  0  0  0  0  0  0  0  0  0  0  0
   -7.1238   -1.0654   -0.0933 C   0  0  0  0  0  0  0  0  0  0  0  0
   -7.5061   -0.1183    0.8559 C   0  0  0  0  0  0  0  0  0  0  0  0
   -6.5381    0.6371    1.5152 C   0  0  0  0  0  0  0  0  0  0  0  0
   -5.1867    0.4470    1.2236 C   0  0  0  0  0  0  0  0  0  0  0  0
   -0.2720   -0.0979   -0.2830 C   0  0  0  0  0  0  0  0  0  0  0  0
   -0.2286   -1.1523   -1.0983 O   0  0  0  0  0  0  0  0  0  0  0  0
    3.2822    0.8824    0.2204 C   0  0  0  0  0  0  0  0  0  0  0  0
    4.6031    0.4376    0.0705 C   0  0  0  0  0  0  0  0  0  0  0  0
    7.9277   -0.7577   -2.0940 H   0  0  0  0  0  0  0  0  0  0  0  0
    8.6680    0.5400   -1.1281 H   0  0  0  0  0  0  0  0  0  0  0  0
    6.9927    0.6787   -1.7041 H   0  0  0  0  0  0  0  0  0  0  0  0
    7.1171    0.0189    0.7822 H   0  0  0  0  0  0  0  0  0  0  0  0
    8.0414   -1.3848    0.2974 H   0  0  0  0  0  0  0  0  0  0  0  0
    4.0025   -2.8694   -0.3678 H   0  0  0  0  0  0  0  0  0  0  0  0
    1.6918   -2.1195   -0.0911 H   0  0  0  0  0  0  0  0  0  0  0  0
    1.9561    1.6249    2.2185 H   0  0  0  0  0  0  0  0  0  0  0  0
   -1.4797    2.5507    1.2796 H   0  0  0  0  0  0  0  0  0  0  0  0
   -2.6516    0.5658   -2.4844 H   0  0  0  0  0  0  0  0  0  0  0  0
   -4.0973    1.2701   -1.7311 H   0  0  0  0  0  0  0  0  0  0  0  0
   -2.5876    2.1760   -1.7304 H   0  0  0  0  0  0  0  0  0  0  0  0
   -2.8729   -1.1863    0.8427 H   0  0  0  0  0  0  0  0  0  0  0  0
   -3.2076   -1.4187   -0.8739 H   0  0  0  0  0  0  0  0  0  0  0  0
   -5.4937   -2.0032   -1.1277 H   0  0  0  0  0  0  0  0  0  0  0  0
   -7.8794   -1.6574   -0.6039 H   0  0  0  0  0  0  0  0  0  0  0  0
   -8.5588    0.0300    1.0838 H   0  0  0  0  0  0  0  0  0  0  0  0
   -6.8337    1.3756    2.2563 H   0  0  0  0  0  0  0  0  0  0  0  0
   -4.4362    1.0429    1.7409 H   0  0  0  0  0  0  0  0  0  0  0  0
   -1.1009   -1.1802   -1.5285 H   0  0  0  0  0  0  0  0  0  0  0  0
    3.1138    1.9537    0.3150 H   0  0  0  0  0  0  0  0  0  0  0  0
    5.3927    1.1811    0.0902 H   0  0  0  0  0  0  0  0  0  0  0  0
  1  2  1  0
  2  3  1  0
  3  4  1  0
  4  5  2  0
  5  6  1  0
  6  7  2  0
  7  8  1  0
  8  9  1  0
  9 10  1  0
  9 11  2  0
 11 12  1  0
 12 13  1  0
 13 14  1  0
 13 15  1  0
 15 16  1  0
 16 17  2  0
 17 18  1  0
 18 19  2  0
 19 20  1  0
 20 21  2  0
 12 22  2  0
 22 23  1  0
  7 24  1  0
 24 25  2  0
 25  4  1  0
 22  8  1  0
 21 16  1  0
  1 26  1  0
  1 27  1  0
  1 28  1  0
  2 29  1  0
  2 30  1  0
  5 31  1  0
  6 32  1  0
 10 33  1  0
 11 34  1  0
 14 35  1  0
 14 36  1  0
 14 37  1  0
 15 38  1  0
 15 39  1  0
 17 40  1  0
 18 41  1  0
 19 42  1  0
 20 43  1  0
 21 44  1  0
 23 45  1  0
 24 46  1  0
 25 47  1  0
M  END
$$$$
