
     RDKit          3D

 51 54  0  0  0  0  0  0  0  0999 V2000
   -5.8206    1.9088   -0.0962 C   0  0  0  0  0  0  0  0  0  0  0  0
   -5.6452    0.4135    0.1770 C   0  0  0  0  0  0  0  0  0  0  0  0
   -6.2861    0.0061    1.5051 C   0  0  0  0  0  0  0  0  0  0  0  0
   -4.2380    0.0157    0.1105 N   0  0  0  0  0  0  0  0  0  0  0  0
   -3.2686    0.4527    0.9786 C   0  0  0  0  0  0  0  0  0  0  0  0
   -2.0627   -0.1276    0.6332 C   0  0  0  0  0  0  0  0  0  0  0  0
   -0.8312    0.1070    1.3651 C   0  0  0  0  0  0  0  0  0  0  0  0
    0.2589   -0.4826    0.9975 N   0  0  0  0  0  0  0  0  0  0  0  0
    1.4150   -0.2306    1.6963 N   0  0  0  0  0  0  0  0  0  0  0  0
    1.7508    0.9806    2.2965 C   0  0  0  0  0  0  0  0  0  0  0  0
    1.0253    1.9675    2.4072 O   0  0  0  0  0  0  0  0  0  0  0  0
    3.1587    0.9589    2.8952 C   0  0  0  0  0  0  0  0  0  0  0  0
    4.1283    0.2677    2.1270 O   0  0  0  0  0  0  0  0  0  0  0  0
    4.4579    0.7762    0.8886 C   0  0  0  0  0  0  0  0  0  0  0  0
    4.3541    2.1346    0.5626 C   0  0  0  0  0  0  0  0  0  0  0  0
    4.7339    2.5778   -0.7002 C   0  0  0  0  0  0  0  0  0  0  0  0
    5.2263    1.6706   -1.6345 C   0  0  0  0  0  0  0  0  0  0  0  0
    5.3349    0.3081   -1.3150 C   0  0  0  0  0  0  0  0  0  0  0  0
    5.8288   -0.6160   -2.2484 C   0  0  0  0  0  0  0  0  0  0  0  0
    5.9195   -1.9613   -1.9143 C   0  0  0  0  0  0  0  0  0  0  0  0
    5.5047   -2.3419   -0.6546 C   0  0  0  0  0  0  0  0  0  0  0  0
    5.0259   -1.4811    0.2711 N   0  0  0  0  0  0  0  0  0  0  0  0
    4.9458   -0.1635   -0.0411 C   0  0  0  0  0  0  0  0  0  0  0  0
   -2.3170   -0.9461   -0.5124 C   0  0  0  0  0  0  0  0  0  0  0  0
   -1.5083   -1.7766   -1.3209 C   0  0  0  0  0  0  0  0  0  0  0  0
   -2.0691   -2.4727   -2.3957 C   0  0  0  0  0  0  0  0  0  0  0  0
   -3.4234   -2.3512   -2.6800 C   0  0  0  0  0  0  0  0  0  0  0  0
   -4.2485   -1.5330   -1.9049 C   0  0  0  0  0  0  0  0  0  0  0  0
   -3.6798   -0.8396   -0.8213 C   0  0  0  0  0  0  0  0  0  0  0  0
   -5.3487    2.5277    0.6744 H   0  0  0  0  0  0  0  0  0  0  0  0
   -6.8836    2.1701   -0.1337 H   0  0  0  0  0  0  0  0  0  0  0  0
   -5.3772    2.1833   -1.0603 H   0  0  0  0  0  0  0  0  0  0  0  0
   -6.1726   -0.1265   -0.6177 H   0  0  0  0  0  0  0  0  0  0  0  0
   -5.8425    0.5413    2.3524 H   0  0  0  0  0  0  0  0  0  0  0  0
   -7.3584    0.2267    1.4974 H   0  0  0  0  0  0  0  0  0  0  0  0
   -6.1624   -1.0678    1.6874 H   0  0  0  0  0  0  0  0  0  0  0  0
   -3.5086    1.1355    1.7826 H   0  0  0  0  0  0  0  0  0  0  0  0
   -0.9087    0.7662    2.2441 H   0  0  0  0  0  0  0  0  0  0  0  0
    2.1964   -0.8325    1.4281 H   0  0  0  0  0  0  0  0  0  0  0  0
    3.0746    0.4315    3.8509 H   0  0  0  0  0  0  0  0  0  0  0  0
    3.4888    1.9713    3.1432 H   0  0  0  0  0  0  0  0  0  0  0  0
    3.9973    2.8745    1.2740 H   0  0  0  0  0  0  0  0  0  0  0  0
    4.6521    3.6317   -0.9518 H   0  0  0  0  0  0  0  0  0  0  0  0
    5.5210    2.0347   -2.6146 H   0  0  0  0  0  0  0  0  0  0  0  0
    6.1452   -0.2930   -3.2378 H   0  0  0  0  0  0  0  0  0  0  0  0
    6.2997   -2.6920   -2.6189 H   0  0  0  0  0  0  0  0  0  0  0  0
    5.5495   -3.3821   -0.3401 H   0  0  0  0  0  0  0  0  0  0  0  0
   -0.4440   -1.8740   -1.1148 H   0  0  0  0  0  0  0  0  0  0  0  0
   -1.4370   -3.1036   -3.0142 H   0  0  0  0  0  0  0  0  0  0  0  0
   -3.8481   -2.8921   -3.5219 H   0  0  0  0  0  0  0  0  0  0  0  0
   -5.3030   -1.4525   -2.1456 H   0  0  0  0  0  0  0  0  0  0  0  0
  1  2  1  0
  2  3  1  0
  2  4  1  0
  4  5  1  0
  5  6  2  0
  6  7  1  0
  7  8  2  3
  8  9  1  0
  9 10  1  0
 10 11  2  0
 10 12  1  0
 12 13  1  0
 13 14  1  0
 14 15  2  0
 15 16  1  0
 16 17  2  0
 17 18  1  0
 18 19  2  0
 19 20  1  0
 20 21  2  0
 21 22  1  0
 22 23  2  0
  6 24  1  0
 24 25  2  0
 25 26  1  0
 26 27  2  0
 27 28  1  0
 28 29  2  0
 29  4  1  0
 23 14  1  0
 29 24  1  0
 23 18  1  0
  1 30  1  0
  1 31  1  0
  1 32  1  0
  2 33  1  0
  3 34  1  0
  3 35  1  0
  3 36  1  0
  5 37  1  0
  7 38  1  0
  9 39  1  0
 12 40  1  0
 12 41  1  0
 15 42  1  0
 16 43  1  0
 17 44  1  0
 19 45  1  0
 20 46  1  0
 21 47  1  0
 25 48  1  0
 26 49  1  0
 27 50  1  0
 28 51  1  0
M  END
$$$$
