
     RDKit          3D

 30 31  0  0  0  0  0  0  0  0999 V2000
   -3.2472    2.8579   -0.3144 C   0  0  0  0  0  0  0  0  0  0  0  0
   -2.3977    1.6471   -0.4644 C   0  0  0  0  0  0  0  0  0  0  0  0
   -1.6797    1.4879   -1.5829 N   0  0  0  0  0  0  0  0  0  0  0  0
   -1.0348    0.3145   -1.4067 N   0  0  0  0  0  0  0  0  0  0  0  0
   -0.1776   -0.1526   -2.4742 C   0  0  0  0  0  0  0  0  0  0  0  0
   -1.3087   -0.2769   -0.1967 C   0  0  0  0  0  0  0  0  0  0  0  0
   -0.6234   -1.8200    0.2496 S   0  0  0  0  0  0  0  0  0  0  0  0
    1.0399   -1.2784    0.6665 C   0  0  0  0  0  0  0  0  0  0  0  0
    1.2369   -0.4415    1.7756 C   0  0  0  0  0  0  0  0  0  0  0  0
    2.5141    0.0197    2.0978 C   0  0  0  0  0  0  0  0  0  0  0  0
    3.6026   -0.3481    1.3116 C   0  0  0  0  0  0  0  0  0  0  0  0
    3.4198   -1.2015    0.2208 C   0  0  0  0  0  0  0  0  0  0  0  0
    2.1535   -1.7226   -0.0807 C   0  0  0  0  0  0  0  0  0  0  0  0
    1.9997   -2.4996   -1.2509 N   0  0  0  0  0  0  0  0  0  0  0  0
   -2.2027    0.5680    0.4396 C   0  0  0  0  0  0  0  0  0  0  0  0
   -2.8047    0.4064    1.7318 N   0  0  0  0  0  4  0  0  0  0  0  0
   -2.2912   -0.4035    2.5158 O   0  0  0  0  0  0  0  0  0  0  0  0
   -3.7895    1.1159    1.9846 O   0  0  0  0  0  1  0  0  0  0  0  0
   -4.3060    2.5809   -0.2750 H   0  0  0  0  0  0  0  0  0  0  0  0
   -2.9865    3.4003    0.6008 H   0  0  0  0  0  0  0  0  0  0  0  0
   -3.1155    3.5478   -1.1563 H   0  0  0  0  0  0  0  0  0  0  0  0
   -0.3531   -1.2164   -2.6409 H   0  0  0  0  0  0  0  0  0  0  0  0
    0.8576    0.0460   -2.1934 H   0  0  0  0  0  0  0  0  0  0  0  0
   -0.4183    0.3914   -3.3916 H   0  0  0  0  0  0  0  0  0  0  0  0
    0.3982   -0.1391    2.3985 H   0  0  0  0  0  0  0  0  0  0  0  0
    2.6560    0.6767    2.9524 H   0  0  0  0  0  0  0  0  0  0  0  0
    4.5953    0.0322    1.5436 H   0  0  0  0  0  0  0  0  0  0  0  0
    4.2803   -1.4598   -0.3931 H   0  0  0  0  0  0  0  0  0  0  0  0
    2.8227   -3.0562   -1.4660 H   0  0  0  0  0  0  0  0  0  0  0  0
    1.1600   -3.0765   -1.2020 H   0  0  0  0  0  0  0  0  0  0  0  0
  1  2  1  0
  2  3  2  0
  3  4  1  0
  4  5  1  0
  4  6  1  0
  6  7  1  0
  7  8  1  0
  8  9  2  0
  9 10  1  0
 10 11  2  0
 11 12  1  0
 12 13  2  0
 13 14  1  0
  6 15  2  0
 15 16  1  0
 16 17  2  0
 16 18  1  0
 15  2  1  0
 13  8  1  0
  1 19  1  0
  1 20  1  0
  1 21  1  0
  5 22  1  0
  5 23  1  0
  5 24  1  0
  9 25  1  0
 10 26  1  0
 11 27  1  0
 12 28  1  0
 14 29  1  0
 14 30  1  0
M  CHG  2  16   1  18  -1
M  END
$$$$
