
     RDKit          3D

 49 52  0  0  0  0  0  0  0  0999 V2000
   -0.9484    2.6121    4.4509 C   0  0  0  0  0  0  0  0  0  0  0  0
   -0.7768    1.5455    3.3814 C   0  0  0  0  0  0  0  0  0  0  0  0
   -0.6271    2.1659    1.9934 C   0  0  0  0  0  0  0  0  0  0  0  0
   -0.4585    1.1031    0.9427 C   0  0  0  0  0  0  0  0  0  0  0  0
    0.7945    0.6988    0.6605 N   0  0  0  0  0  0  0  0  0  0  0  0
    0.9776   -0.2705   -0.2609 C   0  0  0  0  0  0  0  0  0  0  0  0
    2.2859   -0.6856   -0.5251 N   0  0  0  0  0  0  0  0  0  0  0  0
    2.7211   -0.6667   -1.9389 C   0  0  0  0  0  0  0  0  0  0  0  0
    4.0575    0.0911   -2.1327 C   0  0  0  0  0  0  0  0  0  0  0  0
    5.1724   -0.3337   -1.2619 N   0  0  0  0  0  0  0  0  0  0  0  0
    6.0040   -1.3513   -1.8988 C   0  0  0  0  0  0  0  0  0  0  0  0
    4.6811   -0.8105    0.0519 C   0  0  0  0  0  0  0  0  0  0  0  0
    3.3027   -0.2357    0.4456 C   0  0  0  0  0  0  0  0  0  0  0  0
   -0.1256   -0.8476   -0.8690 C   0  0  0  0  0  0  0  0  0  0  0  0
   -0.2477   -2.2084   -1.9852 S   0  0  0  0  0  0  0  0  0  0  0  0
   -2.0180   -2.0820   -2.0388 C   0  0  0  0  0  0  0  0  0  0  0  0
   -2.8968   -3.0403   -3.0916 S   0  0  0  0  0  0  0  0  0  0  0  0
   -2.4408   -1.0623   -1.1788 N   0  0  0  0  0  0  0  0  0  0  0  0
   -3.7904   -0.7031   -0.8888 C   0  0  0  0  0  0  0  0  0  0  0  0
   -4.7639   -1.6859   -0.6562 C   0  0  0  0  0  0  0  0  0  0  0  0
   -6.0904   -1.3374   -0.3805 C   0  0  0  0  0  0  0  0  0  0  0  0
   -6.4658    0.0015   -0.3319 C   0  0  0  0  0  0  0  0  0  0  0  0
   -5.5150    0.9921   -0.5550 C   0  0  0  0  0  0  0  0  0  0  0  0
   -4.1892    0.6421   -0.8295 C   0  0  0  0  0  0  0  0  0  0  0  0
   -1.3765   -0.3703   -0.5238 C   0  0  0  0  0  0  0  0  0  0  0  0
   -1.5664    0.6018    0.3814 N   0  0  0  0  0  0  0  0  0  0  0  0
   -1.8419    3.2159    4.2627 H   0  0  0  0  0  0  0  0  0  0  0  0
   -1.0539    2.1474    5.4362 H   0  0  0  0  0  0  0  0  0  0  0  0
   -0.0817    3.2801    4.4813 H   0  0  0  0  0  0  0  0  0  0  0  0
   -1.6426    0.8722    3.4022 H   0  0  0  0  0  0  0  0  0  0  0  0
    0.1037    0.9358    3.6188 H   0  0  0  0  0  0  0  0  0  0  0  0
    0.2401    2.8366    1.9690 H   0  0  0  0  0  0  0  0  0  0  0  0
   -1.5079    2.7730    1.7521 H   0  0  0  0  0  0  0  0  0  0  0  0
    1.9778   -0.1905   -2.5902 H   0  0  0  0  0  0  0  0  0  0  0  0
    2.8470   -1.7026   -2.2750 H   0  0  0  0  0  0  0  0  0  0  0  0
    3.8746    1.1532   -1.9207 H   0  0  0  0  0  0  0  0  0  0  0  0
    4.3496    0.0566   -3.1898 H   0  0  0  0  0  0  0  0  0  0  0  0
    6.4493   -0.9610   -2.8205 H   0  0  0  0  0  0  0  0  0  0  0  0
    5.4369   -2.2556   -2.1469 H   0  0  0  0  0  0  0  0  0  0  0  0
    6.8362   -1.6327   -1.2438 H   0  0  0  0  0  0  0  0  0  0  0  0
    5.4186   -0.5402    0.8161 H   0  0  0  0  0  0  0  0  0  0  0  0
    4.5962   -1.9061    0.0573 H   0  0  0  0  0  0  0  0  0  0  0  0
    3.0474   -0.6020    1.4478 H   0  0  0  0  0  0  0  0  0  0  0  0
    3.3605    0.8602    0.4865 H   0  0  0  0  0  0  0  0  0  0  0  0
   -4.5053   -2.7413   -0.6445 H   0  0  0  0  0  0  0  0  0  0  0  0
   -6.8270   -2.1158   -0.1977 H   0  0  0  0  0  0  0  0  0  0  0  0
   -7.4965    0.2719   -0.1180 H   0  0  0  0  0  0  0  0  0  0  0  0
   -5.8017    2.0399   -0.5203 H   0  0  0  0  0  0  0  0  0  0  0  0
   -3.4791    1.4423   -1.0230 H   0  0  0  0  0  0  0  0  0  0  0  0
  1  2  1  0
  2  3  1  0
  3  4  1  0
  4  5  2  0
  5  6  1  0
  6  7  1  0
  7  8  1  0
  8  9  1  0
  9 10  1  0
 10 11  1  0
 10 12  1  0
 12 13  1  0
  6 14  2  0
 14 15  1  0
 15 16  1  0
 16 17  2  0
 16 18  1  0
 18 19  1  0
 19 20  2  0
 20 21  1  0
 21 22  2  0
 22 23  1  0
 23 24  2  0
 18 25  1  0
 25 26  2  0
 26  4  1  0
 13  7  1  0
 25 14  1  0
 24 19  1  0
  1 27  1  0
  1 28  1  0
  1 29  1  0
  2 30  1  0
  2 31  1  0
  3 32  1  0
  3 33  1  0
  8 34  1  0
  8 35  1  0
  9 36  1  0
  9 37  1  0
 11 38  1  0
 11 39  1  0
 11 40  1  0
 12 41  1  0
 12 42  1  0
 13 43  1  0
 13 44  1  0
 20 45  1  0
 21 46  1  0
 22 47  1  0
 23 48  1  0
 24 49  1  0
M  END
$$$$
