
     RDKit          3D

 51 53  0  0  0  0  0  0  0  0999 V2000
   -5.2292    2.1484   -0.1345 O   0  0  0  0  0  0  0  0  0  0  0  0
   -4.8027    1.2368   -0.8433 C   0  0  0  0  0  0  0  0  0  0  0  0
   -3.5533    1.4320   -1.7095 C   0  0  0  0  0  0  0  0  0  0  0  0
   -2.5567    2.1953   -1.0300 O   0  0  0  0  0  0  0  0  0  0  0  0
   -1.8497    1.4877   -0.1133 C   0  0  0  0  0  0  0  0  0  0  0  0
   -1.9717    0.2868    0.0911 O   0  0  0  0  0  0  0  0  0  0  0  0
   -0.8943    2.3774    0.6282 C   0  0  0  0  0  0  0  0  0  0  0  0
    0.1784    2.9564   -0.2883 C   0  0  0  0  0  0  0  0  0  0  0  0
    1.2013    1.9766   -0.6757 N   0  0  0  0  0  0  0  0  0  0  0  0
    2.1911    1.6619    0.2471 C   0  0  0  0  0  0  0  0  0  0  0  0
    2.2699    2.1384    1.3719 O   0  0  0  0  0  0  0  0  0  0  0  0
    3.1476    0.6715   -0.3274 C   0  0  0  0  0  0  0  0  0  0  0  0
    4.2334    0.1251    0.2399 C   0  0  0  0  0  0  0  0  0  0  0  0
    4.7501    0.3619    1.5760 C   0  0  0  0  0  0  0  0  0  0  0  0
    5.8282   -0.2334    2.1118 C   0  0  0  0  0  0  0  0  0  0  0  0
    6.6634   -1.2331    1.4386 C   0  0  0  0  0  0  0  0  0  0  0  0
    7.8425   -0.8388    0.7971 C   0  0  0  0  0  0  0  0  0  0  0  0
    8.6137   -1.7810    0.1117 C   0  0  0  0  0  0  0  0  0  0  0  0
    8.2076   -3.1152    0.0581 C   0  0  0  0  0  0  0  0  0  0  0  0
    7.0399   -3.5151    0.7090 C   0  0  0  0  0  0  0  0  0  0  0  0
    6.2689   -2.5796    1.4005 C   0  0  0  0  0  0  0  0  0  0  0  0
    2.6692    0.2769   -1.9416 S   0  0  0  0  0  0  0  0  0  0  0  0
    1.2790    1.3498   -1.9033 C   0  0  0  0  0  0  0  0  0  0  0  0
    0.2687    1.5147   -3.2194 S   0  0  0  0  0  0  0  0  0  0  0  0
   -5.3573   -0.0243   -0.9599 N   0  0  0  0  0  0  0  0  0  0  0  0
   -6.5419   -0.4978   -0.3500 C   0  0  0  0  0  0  0  0  0  0  0  0
   -7.4244    0.2946    0.3834 C   0  0  0  0  0  0  0  0  0  0  0  0
   -8.5678   -0.2813    0.9404 C   0  0  0  0  0  0  0  0  0  0  0  0
   -9.4100    0.4821    1.6506 F   0  0  0  0  0  0  0  0  0  0  0  0
   -8.8576   -1.6337    0.7749 C   0  0  0  0  0  0  0  0  0  0  0  0
   -7.9868   -2.4318    0.0419 C   0  0  0  0  0  0  0  0  0  0  0  0
   -6.8434   -1.8585   -0.5128 C   0  0  0  0  0  0  0  0  0  0  0  0
   -6.0110   -2.6346   -1.2205 F   0  0  0  0  0  0  0  0  0  0  0  0
   -3.8553    1.9996   -2.5950 H   0  0  0  0  0  0  0  0  0  0  0  0
   -3.1426    0.4797   -2.0622 H   0  0  0  0  0  0  0  0  0  0  0  0
   -0.4522    1.8024    1.4493 H   0  0  0  0  0  0  0  0  0  0  0  0
   -1.4824    3.1820    1.0861 H   0  0  0  0  0  0  0  0  0  0  0  0
    0.6881    3.7635    0.2515 H   0  0  0  0  0  0  0  0  0  0  0  0
   -0.2649    3.4128   -1.1777 H   0  0  0  0  0  0  0  0  0  0  0  0
    4.8067   -0.5832   -0.3601 H   0  0  0  0  0  0  0  0  0  0  0  0
    4.2262    1.0822    2.2017 H   0  0  0  0  0  0  0  0  0  0  0  0
    6.1384    0.0215    3.1240 H   0  0  0  0  0  0  0  0  0  0  0  0
    8.1602    0.2062    0.8242 H   0  0  0  0  0  0  0  0  0  0  0  0
    9.5246   -1.4712   -0.3905 H   0  0  0  0  0  0  0  0  0  0  0  0
    8.8031   -3.8431   -0.4853 H   0  0  0  0  0  0  0  0  0  0  0  0
    6.7227   -4.5500    0.6577 H   0  0  0  0  0  0  0  0  0  0  0  0
    5.3561   -2.8965    1.8967 H   0  0  0  0  0  0  0  0  0  0  0  0
   -4.8207   -0.7362   -1.4481 H   0  0  0  0  0  0  0  0  0  0  0  0
   -7.2612    1.3515    0.5431 H   0  0  0  0  0  0  0  0  0  0  0  0
   -9.7557   -2.0499    1.2212 H   0  0  0  0  0  0  0  0  0  0  0  0
   -8.1862   -3.4875   -0.1011 H   0  0  0  0  0  0  0  0  0  0  0  0
  1  2  2  0
  2  3  1  0
  3  4  1  0
  4  5  1  0
  5  6  2  0
  5  7  1  0
  7  8  1  0
  8  9  1  0
  9 10  1  0
 10 11  2  0
 10 12  1  0
 12 13  2  3
 13 14  1  0
 14 15  2  3
 15 16  1  0
 16 17  2  0
 17 18  1  0
 18 19  2  0
 19 20  1  0
 20 21  2  0
 12 22  1  0
 22 23  1  0
 23 24  2  0
  2 25  1  0
 25 26  1  0
 26 27  2  0
 27 28  1  0
 28 29  1  0
 28 30  2  0
 30 31  1  0
 31 32  2  0
 32 33  1  0
 23  9  1  0
 32 26  1  0
 21 16  1  0
  3 34  1  0
  3 35  1  0
  7 36  1  0
  7 37  1  0
  8 38  1  0
  8 39  1  0
 13 40  1  0
 14 41  1  0
 15 42  1  0
 17 43  1  0
 18 44  1  0
 19 45  1  0
 20 46  1  0
 21 47  1  0
 25 48  1  0
 27 49  1  0
 30 50  1  0
 31 51  1  0
M  END
$$$$
