
     RDKit          3D

 37 38  0  0  0  0  0  0  0  0999 V2000
   -4.4933   -1.3427   -1.3159 C   0  0  0  0  0  0  0  0  0  0  0  0
   -4.0987   -0.8934    0.0869 C   0  0  0  0  0  0  0  0  0  0  0  0
   -3.3443   -2.0261    0.7925 C   0  0  0  0  0  0  0  0  0  0  0  0
   -3.3357    0.4565    0.1872 C   0  0  0  0  0  0  0  0  0  0  0  0
   -4.1591    1.6885   -0.2010 C   0  0  0  0  0  0  0  0  0  0  0  0
   -5.3771    1.7751   -0.1978 O   0  0  0  0  0  0  0  0  0  0  0  0
   -3.4098    2.7856   -0.4448 O   0  0  0  0  0  0  0  0  0  0  0  0
   -1.9320    0.4724   -0.2895 N   0  0  0  0  0  0  0  0  0  0  0  0
   -0.9285    0.3686    0.6640 C   0  0  0  0  0  0  0  0  0  0  0  0
   -1.0877    0.2780    1.8747 O   0  0  0  0  0  0  0  0  0  0  0  0
    0.4131    0.3601    0.0260 C   0  0  0  0  0  0  0  0  0  0  0  0
    1.5376    0.2756    0.7511 C   0  0  0  0  0  0  0  0  0  0  0  0
    2.8957    0.2548    0.2413 C   0  0  0  0  0  0  0  0  0  0  0  0
    3.9692    0.1670    1.0422 C   0  0  0  0  0  0  0  0  0  0  0  0
    5.2872    0.1490    0.5063 C   0  0  0  0  0  0  0  0  0  0  0  0
    6.4968    0.0645    1.1876 C   0  0  0  0  0  0  0  0  0  0  0  0
    7.5404    0.0811    0.2320 C   0  0  0  0  0  0  0  0  0  0  0  0
    6.9256    0.1746   -0.9894 C   0  0  0  0  0  0  0  0  0  0  0  0
    5.5803    0.2159   -0.8395 O   0  0  0  0  0  0  0  0  0  0  0  0
    0.2532    0.4615   -1.6743 S   0  0  0  0  0  0  0  0  0  0  0  0
   -1.5054    0.5708   -1.6012 C   0  0  0  0  0  0  0  0  0  0  0  0
   -2.3858    0.8078   -2.9995 S   0  0  0  0  0  0  0  0  0  0  0  0
   -5.0116   -0.5493   -1.8617 H   0  0  0  0  0  0  0  0  0  0  0  0
   -5.1827   -2.1933   -1.2585 H   0  0  0  0  0  0  0  0  0  0  0  0
   -3.6276   -1.6793   -1.8924 H   0  0  0  0  0  0  0  0  0  0  0  0
   -5.0433   -0.7589    0.6333 H   0  0  0  0  0  0  0  0  0  0  0  0
   -3.9498   -2.9388    0.8137 H   0  0  0  0  0  0  0  0  0  0  0  0
   -3.1171   -1.7590    1.8296 H   0  0  0  0  0  0  0  0  0  0  0  0
   -2.4042   -2.2624    0.2833 H   0  0  0  0  0  0  0  0  0  0  0  0
   -3.2696    0.6214    1.2740 H   0  0  0  0  0  0  0  0  0  0  0  0
   -4.0658    3.4875   -0.6448 H   0  0  0  0  0  0  0  0  0  0  0  0
    1.4408    0.2160    1.8360 H   0  0  0  0  0  0  0  0  0  0  0  0
    3.0350    0.3136   -0.8372 H   0  0  0  0  0  0  0  0  0  0  0  0
    3.8600    0.1074    2.1209 H   0  0  0  0  0  0  0  0  0  0  0  0
    6.6059   -0.0016    2.2615 H   0  0  0  0  0  0  0  0  0  0  0  0
    8.6047    0.0311    0.4121 H   0  0  0  0  0  0  0  0  0  0  0  0
    7.2836    0.2204   -2.0084 H   0  0  0  0  0  0  0  0  0  0  0  0
  1  2  1  0
  2  3  1  0
  2  4  1  0
  4  5  1  0
  5  6  2  0
  5  7  1  0
  4  8  1  0
  8  9  1  0
  9 10  2  0
  9 11  1  0
 11 12  2  3
 12 13  1  0
 13 14  2  3
 14 15  1  0
 15 16  2  0
 16 17  1  0
 17 18  2  0
 18 19  1  0
 11 20  1  0
 20 21  1  0
 21 22  2  0
 21  8  1  0
 19 15  1  0
  1 23  1  0
  1 24  1  0
  1 25  1  0
  2 26  1  0
  3 27  1  0
  3 28  1  0
  3 29  1  0
  4 30  1  0
  7 31  1  0
 12 32  1  0
 13 33  1  0
 14 34  1  0
 16 35  1  0
 17 36  1  0
 18 37  1  0
M  END
$$$$
