
     RDKit          3D

 46 47  0  0  0  0  0  0  0  0999 V2000
    6.9998   -0.5819    3.2665 O   0  0  0  0  0  0  0  0  0  0  0  0
    6.1174   -0.6668    2.4300 C   0  0  0  0  0  0  0  0  0  0  0  0
    4.8698   -0.2418    2.7197 O   0  0  0  0  0  0  0  0  0  0  0  0
    6.2795   -1.1529    1.0175 C   0  0  0  0  0  0  0  0  0  0  0  0
    5.1671   -2.1042    0.5943 C   0  0  0  0  0  0  0  0  0  0  0  0
    4.1489   -1.4168   -0.2982 C   0  0  0  0  0  0  0  0  0  0  0  0
    4.0540   -1.7248   -1.4815 O   0  0  0  0  0  0  0  0  0  0  0  0
    3.3988   -0.4695    0.3703 N   0  0  0  0  0  0  0  0  0  0  0  0
    2.3767    0.3482   -0.1508 C   0  0  0  0  0  0  0  0  0  0  0  0
    1.9581    0.3227   -1.4839 C   0  0  0  0  0  0  0  0  0  0  0  0
    0.9334    1.1678   -1.9230 C   0  0  0  0  0  0  0  0  0  0  0  0
    0.3189    2.0374   -1.0205 C   0  0  0  0  0  0  0  0  0  0  0  0
   -0.9897    3.0913   -1.5847 S   0  0  0  0  0  6  0  0  0  0  0  0
   -0.5260    3.7610   -2.7787 O   0  0  0  0  0  0  0  0  0  0  0  0
   -1.5288    3.8192   -0.4578 O   0  0  0  0  0  0  0  0  0  0  0  0
   -2.1465    1.9812   -2.0821 N   0  0  0  0  0  0  0  0  0  0  0  0
   -3.0145    1.3699   -1.0686 C   0  0  0  0  0  0  0  0  0  0  0  0
   -3.5743    0.0537   -1.6111 C   0  0  0  0  0  0  0  0  0  0  0  0
   -4.4536   -0.6397   -0.6018 C   0  0  0  0  0  0  0  0  0  0  0  0
   -3.9117   -1.5839    0.2807 C   0  0  0  0  0  0  0  0  0  0  0  0
   -4.7214   -2.2105    1.2291 C   0  0  0  0  0  0  0  0  0  0  0  0
   -6.0770   -1.8967    1.3067 C   0  0  0  0  0  0  0  0  0  0  0  0
   -6.6247   -0.9571    0.4356 C   0  0  0  0  0  0  0  0  0  0  0  0
   -5.8171   -0.3289   -0.5137 C   0  0  0  0  0  0  0  0  0  0  0  0
    0.7278    2.0801    0.3120 C   0  0  0  0  0  0  0  0  0  0  0  0
    1.7556    1.2356    0.7409 C   0  0  0  0  0  0  0  0  0  0  0  0
    4.9660    0.0764    3.6471 H   0  0  0  0  0  0  0  0  0  0  0  0
    7.2312   -1.6972    0.9854 H   0  0  0  0  0  0  0  0  0  0  0  0
    6.3703   -0.2844    0.3564 H   0  0  0  0  0  0  0  0  0  0  0  0
    5.6001   -2.9248    0.0082 H   0  0  0  0  0  0  0  0  0  0  0  0
    4.6495   -2.5627    1.4448 H   0  0  0  0  0  0  0  0  0  0  0  0
    3.6242   -0.3317    1.3541 H   0  0  0  0  0  0  0  0  0  0  0  0
    2.4125   -0.3419   -2.2123 H   0  0  0  0  0  0  0  0  0  0  0  0
    0.6230    1.1409   -2.9649 H   0  0  0  0  0  0  0  0  0  0  0  0
   -2.5399    2.2085   -2.9944 H   0  0  0  0  0  0  0  0  0  0  0  0
   -2.4524    1.1790   -0.1476 H   0  0  0  0  0  0  0  0  0  0  0  0
   -3.8304    2.0630   -0.8350 H   0  0  0  0  0  0  0  0  0  0  0  0
   -4.1449    0.2347   -2.5314 H   0  0  0  0  0  0  0  0  0  0  0  0
   -2.7524   -0.6131   -1.9034 H   0  0  0  0  0  0  0  0  0  0  0  0
   -2.8552   -1.8406    0.2335 H   0  0  0  0  0  0  0  0  0  0  0  0
   -4.2950   -2.9450    1.9073 H   0  0  0  0  0  0  0  0  0  0  0  0
   -6.7071   -2.3862    2.0449 H   0  0  0  0  0  0  0  0  0  0  0  0
   -7.6822   -0.7137    0.4956 H   0  0  0  0  0  0  0  0  0  0  0  0
   -6.2611    0.4032   -1.1848 H   0  0  0  0  0  0  0  0  0  0  0  0
    0.2594    2.7619    1.0177 H   0  0  0  0  0  0  0  0  0  0  0  0
    2.0639    1.2813    1.7825 H   0  0  0  0  0  0  0  0  0  0  0  0
  1  2  2  0
  2  3  1  0
  2  4  1  0
  4  5  1  0
  5  6  1  0
  6  7  2  0
  6  8  1  0
  8  9  1  0
  9 10  2  0
 10 11  1  0
 11 12  2  0
 12 13  1  0
 13 14  2  0
 13 15  2  0
 13 16  1  0
 16 17  1  0
 17 18  1  0
 18 19  1  0
 19 20  2  0
 20 21  1  0
 21 22  2  0
 22 23  1  0
 23 24  2  0
 12 25  1  0
 25 26  2  0
 26  9  1  0
 24 19  1  0
  3 27  1  0
  4 28  1  0
  4 29  1  0
  5 30  1  0
  5 31  1  0
  8 32  1  0
 10 33  1  0
 11 34  1  0
 16 35  1  0
 17 36  1  0
 17 37  1  0
 18 38  1  0
 18 39  1  0
 20 40  1  0
 21 41  1  0
 22 42  1  0
 23 43  1  0
 24 44  1  0
 25 45  1  0
 26 46  1  0
M  END
$$$$
