
     RDKit          3D

 42 44  0  0  0  0  0  0  0  0999 V2000
   -4.2031    4.0613    0.9685 C   0  0  0  0  0  0  0  0  0  0  0  0
   -4.0900    2.6639    1.2329 O   0  0  0  0  0  0  0  0  0  0  0  0
   -3.5768    1.9365    0.1932 C   0  0  0  0  0  0  0  0  0  0  0  0
   -2.6499    0.9595    0.5582 C   0  0  0  0  0  0  0  0  0  0  0  0
   -2.0678    0.1370   -0.4116 C   0  0  0  0  0  0  0  0  0  0  0  0
   -1.0640   -0.8652   -0.0368 C   0  0  0  0  0  0  0  0  0  0  0  0
    0.2458   -0.5989    0.1346 C   0  0  0  0  0  0  0  0  0  0  0  0
    0.8022    0.6983   -0.0551 C   0  0  0  0  0  0  0  0  0  0  0  0
    1.2507    1.7586   -0.2041 N   0  0  0  0  0  0  0  0  0  0  0  0
    1.1349   -1.7649    0.4232 C   0  0  0  0  0  0  0  0  0  0  0  0
    0.8595   -2.8864    0.0025 O   0  0  0  0  0  0  0  0  0  0  0  0
    2.3540   -1.4900    1.1784 C   0  0  0  0  0  0  0  0  0  0  0  0
    2.5325   -0.5438    2.1769 C   0  0  0  0  0  0  0  0  0  0  0  0
    3.8316   -0.5991    2.6026 N   0  0  0  0  0  0  0  0  0  0  0  0
    4.5069   -1.5947    1.9409 C   0  0  0  0  0  0  0  0  0  0  0  0
    5.8360   -2.0135    2.0630 C   0  0  0  0  0  0  0  0  0  0  0  0
    6.2609   -3.0689    1.2543 C   0  0  0  0  0  0  0  0  0  0  0  0
    5.3855   -3.6871    0.3658 C   0  0  0  0  0  0  0  0  0  0  0  0
    4.0572   -3.2619    0.2638 C   0  0  0  0  0  0  0  0  0  0  0  0
    3.6030   -2.1898    1.0619 C   0  0  0  0  0  0  0  0  0  0  0  0
   -2.4299    0.2749   -1.7591 C   0  0  0  0  0  0  0  0  0  0  0  0
   -3.3685    1.2356   -2.1323 C   0  0  0  0  0  0  0  0  0  0  0  0
   -3.8242    1.4582   -3.4090 O   0  0  0  0  0  0  0  0  0  0  0  0
   -3.1295    0.7924   -4.4590 C   0  0  0  0  0  0  0  0  0  0  0  0
   -3.9441    2.0566   -1.1491 C   0  0  0  0  0  0  0  0  0  0  0  0
   -4.9004    2.9585   -1.5432 O   0  0  0  0  0  0  0  0  0  0  0  0
   -3.3834    4.4427    0.3464 H   0  0  0  0  0  0  0  0  0  0  0  0
   -4.1648    4.5840    1.9291 H   0  0  0  0  0  0  0  0  0  0  0  0
   -5.1755    4.2929    0.5163 H   0  0  0  0  0  0  0  0  0  0  0  0
   -2.3786    0.8585    1.6075 H   0  0  0  0  0  0  0  0  0  0  0  0
   -1.4532   -1.8775    0.0607 H   0  0  0  0  0  0  0  0  0  0  0  0
    1.8554    0.1715    2.6252 H   0  0  0  0  0  0  0  0  0  0  0  0
    4.2382   -0.0109    3.3189 H   0  0  0  0  0  0  0  0  0  0  0  0
    6.5250   -1.5286    2.7485 H   0  0  0  0  0  0  0  0  0  0  0  0
    7.2908   -3.4124    1.3177 H   0  0  0  0  0  0  0  0  0  0  0  0
    5.7367   -4.5054   -0.2581 H   0  0  0  0  0  0  0  0  0  0  0  0
    3.3843   -3.7514   -0.4368 H   0  0  0  0  0  0  0  0  0  0  0  0
   -1.9764   -0.3833   -2.4925 H   0  0  0  0  0  0  0  0  0  0  0  0
   -2.0626    1.0369   -4.4461 H   0  0  0  0  0  0  0  0  0  0  0  0
   -3.5456    1.1444   -5.4105 H   0  0  0  0  0  0  0  0  0  0  0  0
   -3.2929   -0.2880   -4.4056 H   0  0  0  0  0  0  0  0  0  0  0  0
   -5.0098    2.7995   -2.5005 H   0  0  0  0  0  0  0  0  0  0  0  0
  1  2  1  0
  2  3  1  0
  3  4  2  0
  4  5  1  0
  5  6  1  0
  6  7  2  3
  7  8  1  0
  8  9  3  0
  7 10  1  0
 10 11  2  0
 10 12  1  0
 12 13  2  0
 13 14  1  0
 14 15  1  0
 15 16  2  0
 16 17  1  0
 17 18  2  0
 18 19  1  0
 19 20  2  0
  5 21  2  0
 21 22  1  0
 22 23  1  0
 23 24  1  0
 22 25  2  0
 25 26  1  0
 25  3  1  0
 20 12  1  0
 20 15  1  0
  1 27  1  0
  1 28  1  0
  1 29  1  0
  4 30  1  0
  6 31  1  0
 13 32  1  0
 14 33  1  0
 16 34  1  0
 17 35  1  0
 18 36  1  0
 19 37  1  0
 21 38  1  0
 24 39  1  0
 24 40  1  0
 24 41  1  0
 26 42  1  0
M  END
$$$$
