
     RDKit          3D

 30 33  0  0  0  0  0  0  0  0999 V2000
    1.0310   -2.6386    1.1700 O   0  0  0  0  0  0  0  0  0  0  0  0
    1.0296   -1.4868    0.7755 C   0  0  0  0  0  0  0  0  0  0  0  0
    2.1772   -0.5492    0.5516 C   0  0  0  0  0  0  0  0  0  0  0  0
    3.4214   -0.9976    0.7648 C   0  0  0  0  0  0  0  0  0  0  0  0
    4.6325   -0.2712    0.5937 C   0  0  0  0  0  0  0  0  0  0  0  0
    4.9482    1.0795    0.7076 C   0  0  0  0  0  0  0  0  0  0  0  0
    6.3310    1.2356    0.4437 C   0  0  0  0  0  0  0  0  0  0  0  0
    6.8072   -0.0242    0.1972 C   0  0  0  0  0  0  0  0  0  0  0  0
    5.8078   -0.9312    0.2953 O   0  0  0  0  0  0  0  0  0  0  0  0
    1.6473    1.0214   -0.0174 S   0  0  0  0  0  0  0  0  0  0  0  0
    0.0196    0.4908    0.0337 C   0  0  0  0  0  0  0  0  0  0  0  0
   -1.1394    1.0225   -0.2209 N   0  0  0  0  0  0  0  0  0  0  0  0
   -2.0050   -0.0333    0.0405 C   0  0  0  0  0  0  0  0  0  0  0  0
   -3.4534    0.0888   -0.0848 C   0  0  0  0  0  0  0  0  0  0  0  0
   -4.2574   -0.4738    0.9253 C   0  0  0  0  0  0  0  0  0  0  0  0
   -5.6498   -0.3746    0.8795 C   0  0  0  0  0  0  0  0  0  0  0  0
   -6.2626    0.2851   -0.1804 C   0  0  0  0  0  0  0  0  0  0  0  0
   -5.4842    0.8367   -1.1977 C   0  0  0  0  0  0  0  0  0  0  0  0
   -4.0854    0.7386   -1.1573 C   0  0  0  0  0  0  0  0  0  0  0  0
   -3.1482    1.4634   -2.6471 Br  0  0  0  0  0  0  0  0  0  0  0  0
   -1.3977   -1.1567    0.4882 N   0  0  0  0  0  0  0  0  0  0  0  0
   -0.1081   -0.7822    0.4481 N   0  0  0  0  0  0  0  0  0  0  0  0
    3.5573   -2.0368    1.0642 H   0  0  0  0  0  0  0  0  0  0  0  0
    4.2660    1.8765    0.9677 H   0  0  0  0  0  0  0  0  0  0  0  0
    6.9059    2.1508    0.4446 H   0  0  0  0  0  0  0  0  0  0  0  0
    7.7819   -0.4250   -0.0441 H   0  0  0  0  0  0  0  0  0  0  0  0
   -3.7959   -0.9947    1.7634 H   0  0  0  0  0  0  0  0  0  0  0  0
   -6.2518   -0.8138    1.6713 H   0  0  0  0  0  0  0  0  0  0  0  0
   -7.3463    0.3635   -0.2208 H   0  0  0  0  0  0  0  0  0  0  0  0
   -5.9788    1.3364   -2.0278 H   0  0  0  0  0  0  0  0  0  0  0  0
  1  2  2  0
  2  3  1  0
  3  4  2  3
  4  5  1  0
  5  6  2  0
  6  7  1  0
  7  8  2  0
  8  9  1  0
  3 10  1  0
 10 11  1  0
 11 12  2  0
 12 13  1  0
 13 14  1  0
 14 15  2  0
 15 16  1  0
 16 17  2  0
 17 18  1  0
 18 19  2  0
 19 20  1  0
 13 21  2  0
 21 22  1  0
 22  2  1  0
  9  5  1  0
 22 11  1  0
 19 14  1  0
  4 23  1  0
  6 24  1  0
  7 25  1  0
  8 26  1  0
 15 27  1  0
 16 28  1  0
 17 29  1  0
 18 30  1  0
M  END
$$$$
