
     RDKit          3D

 58 61  0  0  0  0  0  0  0  0999 V2000
    0.0194    1.4726   -1.3532 O   0  0  0  0  0  0  0  0  0  0  0  0
   -0.6274    0.4270   -1.3692 C   0  0  0  0  0  0  0  0  0  0  0  0
   -0.3041   -0.7023   -2.3653 C   0  0  0  0  0  0  0  0  0  0  0  0
    1.0419   -1.2778   -2.1962 N   0  0  0  0  0  0  0  0  0  0  0  0
    2.1428   -0.3380   -2.4811 C   0  0  0  0  0  0  0  0  0  0  0  0
    2.9614    0.0927   -1.2483 C   0  0  0  0  0  0  0  0  0  0  0  0
    3.5274   -1.0809   -0.5079 N   0  0  0  0  0  0  0  0  0  0  0  0
    5.1917   -1.3683   -0.7167 S   0  0  0  0  0  6  0  0  0  0  0  0
    5.4504   -1.3234   -2.1432 O   0  0  0  0  0  0  0  0  0  0  0  0
    5.5693   -2.5286    0.0623 O   0  0  0  0  0  0  0  0  0  0  0  0
    5.9530    0.0380    0.0179 C   0  0  0  0  0  0  0  0  0  0  0  0
    6.7599    0.8882   -0.7475 C   0  0  0  0  0  0  0  0  0  0  0  0
    7.3649    1.9910   -0.1417 C   0  0  0  0  0  0  0  0  0  0  0  0
    7.1672    2.2385    1.2193 C   0  0  0  0  0  0  0  0  0  0  0  0
    6.3629    1.3830    1.9759 C   0  0  0  0  0  0  0  0  0  0  0  0
    5.7587    0.2830    1.3712 C   0  0  0  0  0  0  0  0  0  0  0  0
    4.9900   -0.5154    2.1249 F   0  0  0  0  0  0  0  0  0  0  0  0
    2.6945   -2.3189   -0.6376 C   0  0  0  0  0  0  0  0  0  0  0  0
    1.2185   -1.9811   -0.9146 C   0  0  0  0  0  0  0  0  0  0  0  0
   -1.6970    0.1282   -0.5457 N   0  0  0  0  0  0  0  0  0  0  0  0
   -2.2071    0.8751    0.5441 C   0  0  0  0  0  0  0  0  0  0  0  0
   -1.5530    2.0000    1.0556 C   0  0  0  0  0  0  0  0  0  0  0  0
   -2.0592    2.6765    2.1708 C   0  0  0  0  0  0  0  0  0  0  0  0
   -3.2221    2.2349    2.7962 C   0  0  0  0  0  0  0  0  0  0  0  0
   -3.8970    1.1236    2.2953 C   0  0  0  0  0  0  0  0  0  0  0  0
   -3.4105    0.4571    1.1590 C   0  0  0  0  0  0  0  0  0  0  0  0
   -4.1715   -0.6995    0.6079 C   0  0  0  0  0  0  0  0  0  0  0  0
   -3.5483   -1.6547    0.1423 O   0  0  0  0  0  0  0  0  0  0  0  0
   -5.6567   -0.7087    0.5681 C   0  0  0  0  0  0  0  0  0  0  0  0
   -6.3923    0.4641    0.3555 C   0  0  0  0  0  0  0  0  0  0  0  0
   -7.7863    0.4149    0.3110 C   0  0  0  0  0  0  0  0  0  0  0  0
   -8.4456   -0.8035    0.4614 C   0  0  0  0  0  0  0  0  0  0  0  0
   -7.7147   -1.9772    0.6468 C   0  0  0  0  0  0  0  0  0  0  0  0
   -6.3212   -1.9343    0.6925 C   0  0  0  0  0  0  0  0  0  0  0  0
   -1.0452   -1.5074   -2.2911 H   0  0  0  0  0  0  0  0  0  0  0  0
   -0.4168   -0.2929   -3.3771 H   0  0  0  0  0  0  0  0  0  0  0  0
    1.7901    0.5508   -3.0199 H   0  0  0  0  0  0  0  0  0  0  0  0
    2.8199   -0.8467   -3.1806 H   0  0  0  0  0  0  0  0  0  0  0  0
    3.7538    0.7788   -1.5673 H   0  0  0  0  0  0  0  0  0  0  0  0
    2.3412    0.6560   -0.5409 H   0  0  0  0  0  0  0  0  0  0  0  0
    6.9257    0.6970   -1.8060 H   0  0  0  0  0  0  0  0  0  0  0  0
    7.9963    2.6552   -0.7288 H   0  0  0  0  0  0  0  0  0  0  0  0
    7.6451    3.0945    1.6909 H   0  0  0  0  0  0  0  0  0  0  0  0
    6.2089    1.5625    3.0369 H   0  0  0  0  0  0  0  0  0  0  0  0
    2.7642   -2.8776    0.3034 H   0  0  0  0  0  0  0  0  0  0  0  0
    3.0789   -2.9548   -1.4442 H   0  0  0  0  0  0  0  0  0  0  0  0
    0.6422   -2.9107   -0.9417 H   0  0  0  0  0  0  0  0  0  0  0  0
    0.8375   -1.3876   -0.0774 H   0  0  0  0  0  0  0  0  0  0  0  0
   -2.1781   -0.7601   -0.7061 H   0  0  0  0  0  0  0  0  0  0  0  0
   -0.6255    2.3663    0.6241 H   0  0  0  0  0  0  0  0  0  0  0  0
   -1.5268    3.5425    2.5585 H   0  0  0  0  0  0  0  0  0  0  0  0
   -3.5978    2.7527    3.6756 H   0  0  0  0  0  0  0  0  0  0  0  0
   -4.7960    0.7833    2.8052 H   0  0  0  0  0  0  0  0  0  0  0  0
   -5.8975    1.4199    0.2079 H   0  0  0  0  0  0  0  0  0  0  0  0
   -8.3608    1.3249    0.1508 H   0  0  0  0  0  0  0  0  0  0  0  0
   -9.5309   -0.8398    0.4246 H   0  0  0  0  0  0  0  0  0  0  0  0
   -8.2304   -2.9280    0.7493 H   0  0  0  0  0  0  0  0  0  0  0  0
   -5.7576   -2.8542    0.8292 H   0  0  0  0  0  0  0  0  0  0  0  0
  1  2  2  0
  2  3  1  0
  3  4  1  0
  4  5  1  0
  5  6  1  0
  6  7  1  0
  7  8  1  0
  8  9  2  0
  8 10  2  0
  8 11  1  0
 11 12  2  0
 12 13  1  0
 13 14  2  0
 14 15  1  0
 15 16  2  0
 16 17  1  0
  7 18  1  0
 18 19  1  0
  2 20  1  0
 20 21  1  0
 21 22  2  0
 22 23  1  0
 23 24  2  0
 24 25  1  0
 25 26  2  0
 26 27  1  0
 27 28  2  0
 27 29  1  0
 29 30  2  0
 30 31  1  0
 31 32  2  0
 32 33  1  0
 33 34  2  0
 19  4  1  0
 26 21  1  0
 34 29  1  0
 16 11  1  0
  3 35  1  0
  3 36  1  0
  5 37  1  0
  5 38  1  0
  6 39  1  0
  6 40  1  0
 12 41  1  0
 13 42  1  0
 14 43  1  0
 15 44  1  0
 18 45  1  0
 18 46  1  0
 19 47  1  0
 19 48  1  0
 20 49  1  0
 22 50  1  0
 23 51  1  0
 24 52  1  0
 25 53  1  0
 30 54  1  0
 31 55  1  0
 32 56  1  0
 33 57  1  0
 34 58  1  0
M  END
$$$$
