
     RDKit          3D

 40 43  0  0  0  0  0  0  0  0999 V2000
   -2.9160    3.5325   -1.7205 O   0  0  0  0  0  0  0  0  0  0  0  0
   -3.4858    2.4573   -1.6532 C   0  0  0  0  0  0  0  0  0  0  0  0
   -4.8118    2.2071   -1.9255 N   0  0  0  0  0  0  0  0  0  0  0  0
   -4.9785    0.9517   -1.6822 C   0  0  0  0  0  0  0  0  0  0  0  0
   -6.2199    0.1648   -1.8089 C   0  0  0  0  0  0  0  0  0  0  0  0
   -6.1856   -1.1417   -1.4960 C   0  0  0  0  0  0  0  0  0  0  0  0
   -4.9782   -1.8139   -1.0425 C   0  0  0  0  0  0  0  0  0  0  0  0
   -3.8150   -1.1558   -0.9060 C   0  0  0  0  0  0  0  0  0  0  0  0
   -3.7802    0.2425   -1.2170 C   0  0  0  0  0  0  0  0  0  0  0  0
   -2.8465    1.1926   -1.2093 C   0  0  0  0  0  0  0  0  0  0  0  0
   -1.4997    1.0350   -0.8316 C   0  0  0  0  0  0  0  0  0  0  0  0
   -0.2472    1.1603   -2.0147 S   0  0  0  0  0  0  0  0  0  0  0  0
    0.9019    0.7829   -0.8183 C   0  0  0  0  0  0  0  0  0  0  0  0
    2.3225    0.7053   -1.0751 N   0  0  0  0  0  0  0  0  0  0  0  0
    2.8207   -0.8768   -1.3780 S   0  0  0  0  0  6  0  0  0  0  0  0
    4.1862   -0.7956   -1.8585 O   0  0  0  0  0  0  0  0  0  0  0  0
    1.8164   -1.5383   -2.1892 O   0  0  0  0  0  0  0  0  0  0  0  0
    2.8249   -1.6689    0.2459 C   0  0  0  0  0  0  0  0  0  0  0  0
    3.6420   -0.8806    1.2387 C   0  0  0  0  0  0  0  0  0  0  0  0
    5.0415   -0.8404    1.1540 C   0  0  0  0  0  0  0  0  0  0  0  0
    5.7889   -0.1014    2.0726 C   0  0  0  0  0  0  0  0  0  0  0  0
    5.1487    0.5977    3.0927 C   0  0  0  0  0  0  0  0  0  0  0  0
    3.7610    0.5539    3.1987 C   0  0  0  0  0  0  0  0  0  0  0  0
    3.0120   -0.1846    2.2812 C   0  0  0  0  0  0  0  0  0  0  0  0
    0.4557    0.6213    0.3975 N   0  0  0  0  0  0  0  0  0  0  0  0
   -0.9110    0.7595    0.3954 C   0  0  0  0  0  0  0  0  0  0  0  0
   -1.6100    0.6170    1.5372 O   0  0  0  0  0  0  0  0  0  0  0  0
   -7.1134    0.6710   -2.1512 H   0  0  0  0  0  0  0  0  0  0  0  0
   -7.0856   -1.7456   -1.5827 H   0  0  0  0  0  0  0  0  0  0  0  0
   -5.0445   -2.8769   -0.8242 H   0  0  0  0  0  0  0  0  0  0  0  0
   -2.9148   -1.6664   -0.5788 H   0  0  0  0  0  0  0  0  0  0  0  0
    2.8643    1.1146   -0.3134 H   0  0  0  0  0  0  0  0  0  0  0  0
    1.7854   -1.7860    0.5663 H   0  0  0  0  0  0  0  0  0  0  0  0
    3.2477   -2.6707    0.1149 H   0  0  0  0  0  0  0  0  0  0  0  0
    5.5671   -1.3796    0.3664 H   0  0  0  0  0  0  0  0  0  0  0  0
    6.8729   -0.0729    1.9911 H   0  0  0  0  0  0  0  0  0  0  0  0
    5.7318    1.1719    3.8082 H   0  0  0  0  0  0  0  0  0  0  0  0
    3.2594    1.0927    3.9990 H   0  0  0  0  0  0  0  0  0  0  0  0
    1.9284   -0.2078    2.3920 H   0  0  0  0  0  0  0  0  0  0  0  0
   -2.5355    0.8861    1.4249 H   0  0  0  0  0  0  0  0  0  0  0  0
  1  2  2  0
  2  3  1  0
  3  4  2  0
  4  5  1  0
  5  6  2  0
  6  7  1  0
  7  8  2  0
  8  9  1  0
  9 10  2  0
 10 11  1  0
 11 12  1  0
 12 13  1  0
 13 14  1  0
 14 15  1  0
 15 16  2  0
 15 17  2  0
 15 18  1  0
 18 19  1  0
 19 20  2  0
 20 21  1  0
 21 22  2  0
 22 23  1  0
 23 24  2  0
 13 25  2  0
 25 26  1  0
 26 27  1  0
 10  2  1  0
 26 11  2  0
  9  4  1  0
 24 19  1  0
  5 28  1  0
  6 29  1  0
  7 30  1  0
  8 31  1  0
 14 32  1  0
 18 33  1  0
 18 34  1  0
 20 35  1  0
 21 36  1  0
 22 37  1  0
 23 38  1  0
 24 39  1  0
 27 40  1  0
M  END
$$$$
