
     RDKit          3D

 43 45  0  0  0  0  0  0  0  0999 V2000
    7.6649    0.5849   -0.5286 C   0  0  0  0  0  0  0  0  0  0  0  0
    6.1635    0.6104   -0.3859 C   0  0  0  0  0  0  0  0  0  0  0  0
    5.4454   -0.6882   -0.5614 C   0  0  0  0  0  0  0  0  0  0  0  0
    4.1062   -0.6728   -0.4187 C   0  0  0  0  0  0  0  0  0  0  0  0
    3.3197   -1.9379   -0.5787 C   0  0  0  0  0  0  0  0  0  0  0  0
    3.4865    0.5565   -0.1182 N   0  0  0  0  0  0  0  0  0  0  0  0
    2.1848    0.9705    0.0963 C   0  0  0  0  0  0  0  0  0  0  0  0
    0.7781   -0.0378    0.0538 S   0  0  0  0  0  0  0  0  0  0  0  0
   -0.4044    1.0228    0.9393 C   0  0  0  0  0  0  0  0  0  0  0  0
   -1.7613    0.3376    0.9759 C   0  0  0  0  0  0  0  0  0  0  0  0
   -2.0483   -0.3832    1.9362 O   0  0  0  0  0  0  0  0  0  0  0  0
   -2.6559    0.5333   -0.0769 N   0  0  0  0  0  0  0  0  0  0  0  0
   -2.3515    1.2976   -1.2842 C   0  0  0  0  0  0  0  0  0  0  0  0
   -3.9946   -0.0780   -0.0325 C   0  0  0  0  0  0  0  0  0  0  0  0
   -4.8670    0.3858    1.1466 C   0  0  0  0  0  0  0  0  0  0  0  0
   -6.1575   -0.4208    1.0585 C   0  0  0  0  0  0  0  0  0  0  0  0
   -5.6941   -2.0106    0.3822 S   0  0  0  0  0  6  0  0  0  0  0  0
   -6.4064   -2.1941   -0.8673 O   0  0  0  0  0  0  0  0  0  0  0  0
   -5.7237   -3.0030    1.4354 O   0  0  0  0  0  0  0  0  0  0  0  0
   -4.0005   -1.6066    0.0001 C   0  0  0  0  0  0  0  0  0  0  0  0
    2.1443    2.2608    0.3332 N   0  0  0  0  0  0  0  0  0  0  0  0
    3.4262    2.7354    0.2884 N   0  0  0  0  0  0  0  0  0  0  0  0
    4.2372    1.7302    0.0292 C   0  0  0  0  0  0  0  0  0  0  0  0
    5.5945    1.7409   -0.1003 N   0  0  0  0  0  0  0  0  0  0  0  0
    8.0120    1.5242   -0.9690 H   0  0  0  0  0  0  0  0  0  0  0  0
    7.9829   -0.2383   -1.1751 H   0  0  0  0  0  0  0  0  0  0  0  0
    8.1172    0.4633    0.4601 H   0  0  0  0  0  0  0  0  0  0  0  0
    6.0201   -1.5770   -0.7884 H   0  0  0  0  0  0  0  0  0  0  0  0
    2.8004   -2.1961    0.3491 H   0  0  0  0  0  0  0  0  0  0  0  0
    2.5985   -1.8501   -1.3971 H   0  0  0  0  0  0  0  0  0  0  0  0
    3.9674   -2.7881   -0.8246 H   0  0  0  0  0  0  0  0  0  0  0  0
   -0.0662    1.1517    1.9742 H   0  0  0  0  0  0  0  0  0  0  0  0
   -0.4834    2.0242    0.5098 H   0  0  0  0  0  0  0  0  0  0  0  0
   -3.0236    2.1596   -1.3236 H   0  0  0  0  0  0  0  0  0  0  0  0
   -1.3231    1.6512   -1.3324 H   0  0  0  0  0  0  0  0  0  0  0  0
   -2.5281    0.6570   -2.1546 H   0  0  0  0  0  0  0  0  0  0  0  0
   -4.5162    0.2343   -0.9494 H   0  0  0  0  0  0  0  0  0  0  0  0
   -5.0676    1.4619    1.1043 H   0  0  0  0  0  0  0  0  0  0  0  0
   -4.3871    0.1868    2.1106 H   0  0  0  0  0  0  0  0  0  0  0  0
   -6.6237   -0.5623    2.0350 H   0  0  0  0  0  0  0  0  0  0  0  0
   -6.8658    0.0437    0.3674 H   0  0  0  0  0  0  0  0  0  0  0  0
   -3.3744   -2.0346    0.7854 H   0  0  0  0  0  0  0  0  0  0  0  0
   -3.7255   -2.0452   -0.9625 H   0  0  0  0  0  0  0  0  0  0  0  0
  1  2  1  0
  2  3  1  0
  3  4  2  0
  4  5  1  0
  4  6  1  0
  6  7  1  0
  7  8  1  0
  8  9  1  0
  9 10  1  0
 10 11  2  0
 10 12  1  0
 12 13  1  0
 12 14  1  0
 14 15  1  0
 15 16  1  0
 16 17  1  0
 17 18  2  0
 17 19  2  0
 17 20  1  0
  7 21  2  0
 21 22  1  0
 22 23  2  0
 23 24  1  0
 24  2  2  0
 23  6  1  0
 20 14  1  0
  1 25  1  0
  1 26  1  0
  1 27  1  0
  3 28  1  0
  5 29  1  0
  5 30  1  0
  5 31  1  0
  9 32  1  0
  9 33  1  0
 13 34  1  0
 13 35  1  0
 13 36  1  0
 14 37  1  0
 15 38  1  0
 15 39  1  0
 16 40  1  0
 16 41  1  0
 20 42  1  0
 20 43  1  0
M  END
$$$$
