
     RDKit          3D

 57 59  0  0  0  0  0  0  0  0999 V2000
   -1.7375   -4.6727   -1.3889 C   0  0  0  0  0  0  0  0  0  0  0  0
   -0.8841   -3.5695   -0.7898 C   0  0  0  0  0  0  0  0  0  0  0  0
   -1.7256   -2.3739   -0.3533 C   0  0  0  0  0  0  0  0  0  0  0  0
   -0.8394   -1.3977    0.1964 O   0  0  0  0  0  0  0  0  0  0  0  0
   -1.3476   -0.1355    0.3856 C   0  0  0  0  0  0  0  0  0  0  0  0
   -2.7166    0.1451    0.5438 C   0  0  0  0  0  0  0  0  0  0  0  0
   -3.2114    1.4463    0.7659 C   0  0  0  0  0  0  0  0  0  0  0  0
   -4.5707    1.7103    0.9130 N   0  0  0  0  0  0  0  0  0  0  0  0
   -5.5983    0.6876    0.6740 C   0  0  0  0  0  0  0  0  0  0  0  0
   -5.8967   -0.0942    1.9454 C   0  0  0  0  0  0  0  0  0  0  0  0
   -5.0724    3.0393    1.2898 C   0  0  0  0  0  0  0  0  0  0  0  0
   -5.2903    3.9120    0.0619 C   0  0  0  0  0  0  0  0  0  0  0  0
   -2.2408    2.4592    0.8371 C   0  0  0  0  0  0  0  0  0  0  0  0
   -0.8707    2.2019    0.6950 C   0  0  0  0  0  0  0  0  0  0  0  0
   -0.4140    0.9059    0.4631 C   0  0  0  0  0  0  0  0  0  0  0  0
    1.0367    0.6972    0.3249 C   0  0  0  0  0  0  0  0  0  0  0  0
    1.6704    0.2717   -0.7876 C   0  0  0  0  0  0  0  0  0  0  0  0
    0.9610   -0.0150   -1.9957 C   0  0  0  0  0  0  0  0  0  0  0  0
    0.4699   -0.2733   -3.0161 N   0  0  0  0  0  0  0  0  0  0  0  0
    3.0932    0.1345   -0.7260 C   0  0  0  0  0  0  0  0  0  0  0  0
    3.9403    0.4435    0.2419 N   0  0  0  0  0  0  0  0  0  0  0  0
    5.1895    0.1055   -0.2160 C   0  0  0  0  0  0  0  0  0  0  0  0
    6.4389    0.2243    0.4102 C   0  0  0  0  0  0  0  0  0  0  0  0
    7.5900   -0.2060   -0.2736 C   0  0  0  0  0  0  0  0  0  0  0  0
    8.9397   -0.0569    0.3663 C   0  0  0  0  0  0  0  0  0  0  0  0
    7.4779   -0.7211   -1.5741 C   0  0  0  0  0  0  0  0  0  0  0  0
    6.2378   -0.8465   -2.2138 C   0  0  0  0  0  0  0  0  0  0  0  0
    5.1191   -0.4220   -1.4966 C   0  0  0  0  0  0  0  0  0  0  0  0
    3.7818   -0.3959   -1.7999 N   0  0  0  0  0  0  0  0  0  0  0  0
   -2.4710   -5.0389   -0.6636 H   0  0  0  0  0  0  0  0  0  0  0  0
   -2.2763   -4.3157   -2.2724 H   0  0  0  0  0  0  0  0  0  0  0  0
   -1.1093   -5.5161   -1.6921 H   0  0  0  0  0  0  0  0  0  0  0  0
   -0.1322   -3.2438   -1.5185 H   0  0  0  0  0  0  0  0  0  0  0  0
   -0.3230   -3.9572    0.0689 H   0  0  0  0  0  0  0  0  0  0  0  0
   -2.4425   -2.6932    0.4119 H   0  0  0  0  0  0  0  0  0  0  0  0
   -2.2591   -1.9665   -1.2210 H   0  0  0  0  0  0  0  0  0  0  0  0
   -3.4129   -0.6828    0.5216 H   0  0  0  0  0  0  0  0  0  0  0  0
   -6.5265    1.1682    0.3390 H   0  0  0  0  0  0  0  0  0  0  0  0
   -5.3221    0.0147   -0.1456 H   0  0  0  0  0  0  0  0  0  0  0  0
   -6.6753   -0.8398    1.7561 H   0  0  0  0  0  0  0  0  0  0  0  0
   -6.2498    0.5697    2.7414 H   0  0  0  0  0  0  0  0  0  0  0  0
   -5.0109   -0.6164    2.3193 H   0  0  0  0  0  0  0  0  0  0  0  0
   -4.4134    3.5343    2.0118 H   0  0  0  0  0  0  0  0  0  0  0  0
   -6.0312    2.9353    1.8140 H   0  0  0  0  0  0  0  0  0  0  0  0
   -6.0100    3.4534   -0.6243 H   0  0  0  0  0  0  0  0  0  0  0  0
   -5.6818    4.8901    0.3588 H   0  0  0  0  0  0  0  0  0  0  0  0
   -4.3611    4.0731   -0.4928 H   0  0  0  0  0  0  0  0  0  0  0  0
   -2.5221    3.4950    0.9995 H   0  0  0  0  0  0  0  0  0  0  0  0
   -0.1704    3.0318    0.7623 H   0  0  0  0  0  0  0  0  0  0  0  0
    1.6043    0.9261    1.2265 H   0  0  0  0  0  0  0  0  0  0  0  0
    6.4961    0.6430    1.4092 H   0  0  0  0  0  0  0  0  0  0  0  0
    8.8667   -0.1362    1.4561 H   0  0  0  0  0  0  0  0  0  0  0  0
    9.3692    0.9165    0.1103 H   0  0  0  0  0  0  0  0  0  0  0  0
    9.6207   -0.8452    0.0287 H   0  0  0  0  0  0  0  0  0  0  0  0
    8.3734   -1.0360   -2.1083 H   0  0  0  0  0  0  0  0  0  0  0  0
    6.1612   -1.2509   -3.2172 H   0  0  0  0  0  0  0  0  0  0  0  0
    3.3792   -0.7166   -2.6697 H   0  0  0  0  0  0  0  0  0  0  0  0
  1  2  1  0
  2  3  1  0
  3  4  1  0
  4  5  1  0
  5  6  2  0
  6  7  1  0
  7  8  1  0
  8  9  1  0
  9 10  1  0
  8 11  1  0
 11 12  1  0
  7 13  2  0
 13 14  1  0
 14 15  2  0
 15 16  1  0
 16 17  2  3
 17 18  1  0
 18 19  3  0
 17 20  1  0
 20 21  2  0
 21 22  1  0
 22 23  2  0
 23 24  1  0
 24 25  1  0
 24 26  2  0
 26 27  1  0
 27 28  2  0
 28 29  1  0
 15  5  1  0
 29 20  1  0
 28 22  1  0
  1 30  1  0
  1 31  1  0
  1 32  1  0
  2 33  1  0
  2 34  1  0
  3 35  1  0
  3 36  1  0
  6 37  1  0
  9 38  1  0
  9 39  1  0
 10 40  1  0
 10 41  1  0
 10 42  1  0
 11 43  1  0
 11 44  1  0
 12 45  1  0
 12 46  1  0
 12 47  1  0
 13 48  1  0
 14 49  1  0
 16 50  1  0
 23 51  1  0
 25 52  1  0
 25 53  1  0
 25 54  1  0
 26 55  1  0
 27 56  1  0
 29 57  1  0
M  END
$$$$
