
     RDKit          3D

 40 42  0  0  0  0  0  0  0  0999 V2000
    4.8641   -2.7958   -1.8427 C   0  0  0  0  0  0  0  0  0  0  0  0
    3.7957   -1.7518   -1.9517 C   0  0  0  0  0  0  0  0  0  0  0  0
    3.5151   -1.1510   -2.9783 O   0  0  0  0  0  0  0  0  0  0  0  0
    3.1856   -1.5794   -0.7468 O   0  0  0  0  0  0  0  0  0  0  0  0
    2.1599   -0.5734   -0.7502 C   0  0  0  0  0  0  0  0  0  0  0  0
    1.5573   -0.4845    0.6523 C   0  0  0  0  0  0  0  0  0  0  0  0
    0.4800    0.5092    0.7157 N   0  0  0  0  0  0  0  0  0  0  0  0
    0.7755    1.8356    1.0105 C   0  0  0  0  0  0  0  0  0  0  0  0
    1.9821    2.2625    1.2302 N   0  0  0  0  0  0  0  0  0  0  0  0
    2.2477    3.5689    1.5338 C   0  0  0  0  0  0  0  0  0  0  0  0
    3.3208    3.9165    2.0155 O   0  0  0  0  0  0  0  0  0  0  0  0
    1.2939    4.5219    1.3241 N   0  0  0  0  0  0  0  0  0  0  0  0
   -0.0331    4.2439    1.4343 C   0  0  0  0  0  0  0  0  0  0  0  0
   -0.8671    5.0408    1.8291 O   0  0  0  0  0  0  0  0  0  0  0  0
   -0.3649    2.8213    1.0797 C   0  0  0  0  0  0  0  0  0  0  0  0
   -1.5913    2.4840    0.8228 N   0  0  0  0  0  0  0  0  0  0  0  0
   -1.8560    1.1481    0.4680 C   0  0  0  0  0  0  0  0  0  0  0  0
   -3.1860    0.8308    0.1684 C   0  0  0  0  0  0  0  0  0  0  0  0
   -3.5653   -0.4628   -0.2093 C   0  0  0  0  0  0  0  0  0  0  0  0
   -5.0084   -0.7465   -0.5224 C   0  0  0  0  0  0  0  0  0  0  0  0
   -2.5804   -1.4593   -0.2924 C   0  0  0  0  0  0  0  0  0  0  0  0
   -2.9271   -2.8668   -0.6999 C   0  0  0  0  0  0  0  0  0  0  0  0
   -1.2425   -1.1387    0.0129 C   0  0  0  0  0  0  0  0  0  0  0  0
   -0.8505    0.1552    0.3999 C   0  0  0  0  0  0  0  0  0  0  0  0
    5.6128   -2.4849   -1.1098 H   0  0  0  0  0  0  0  0  0  0  0  0
    4.4195   -3.7525   -1.5573 H   0  0  0  0  0  0  0  0  0  0  0  0
    5.3552   -2.9143   -2.8128 H   0  0  0  0  0  0  0  0  0  0  0  0
    1.3891   -0.8446   -1.4810 H   0  0  0  0  0  0  0  0  0  0  0  0
    2.5964    0.3914   -1.0352 H   0  0  0  0  0  0  0  0  0  0  0  0
    2.3558   -0.2282    1.3618 H   0  0  0  0  0  0  0  0  0  0  0  0
    1.2327   -1.4720    1.0012 H   0  0  0  0  0  0  0  0  0  0  0  0
    1.5612    5.4325    1.6689 H   0  0  0  0  0  0  0  0  0  0  0  0
   -3.9313    1.6218    0.2342 H   0  0  0  0  0  0  0  0  0  0  0  0
   -5.6338    0.1409   -0.3776 H   0  0  0  0  0  0  0  0  0  0  0  0
   -5.3945   -1.5304    0.1369 H   0  0  0  0  0  0  0  0  0  0  0  0
   -5.1160   -1.0600   -1.5655 H   0  0  0  0  0  0  0  0  0  0  0  0
   -3.6257   -3.3083    0.0177 H   0  0  0  0  0  0  0  0  0  0  0  0
   -3.3745   -2.8743   -1.6989 H   0  0  0  0  0  0  0  0  0  0  0  0
   -2.0397   -3.5077   -0.7334 H   0  0  0  0  0  0  0  0  0  0  0  0
   -0.5122   -1.9381   -0.0692 H   0  0  0  0  0  0  0  0  0  0  0  0
  1  2  1  0
  2  3  2  0
  2  4  1  0
  4  5  1  0
  5  6  1  0
  6  7  1  0
  7  8  1  0
  8  9  2  0
  9 10  1  0
 10 11  2  0
 10 12  1  0
 12 13  1  0
 13 14  2  0
 13 15  1  0
 15 16  2  0
 16 17  1  0
 17 18  2  0
 18 19  1  0
 19 20  1  0
 19 21  2  0
 21 22  1  0
 21 23  1  0
 23 24  2  0
 24  7  1  0
 15  8  1  0
 24 17  1  0
  1 25  1  0
  1 26  1  0
  1 27  1  0
  5 28  1  0
  5 29  1  0
  6 30  1  0
  6 31  1  0
 12 32  1  0
 18 33  1  0
 20 34  1  0
 20 35  1  0
 20 36  1  0
 22 37  1  0
 22 38  1  0
 22 39  1  0
 23 40  1  0
M  END
$$$$
