
     RDKit          3D

 47 48  0  0  0  0  0  0  0  0999 V2000
    3.9740    0.3570    0.6625 C   0  0  0  0  0  0  0  0  0  0  0  0
    2.5996    0.4991    1.0344 O   0  0  0  0  0  0  0  0  0  0  0  0
    2.0000    1.4504    0.2486 C   0  0  0  0  0  0  0  0  0  0  0  0
    1.8967    2.7443    0.7628 C   0  0  0  0  0  0  0  0  0  0  0  0
    1.2761    3.7442    0.0121 C   0  0  0  0  0  0  0  0  0  0  0  0
    0.7495    3.4508   -1.2466 C   0  0  0  0  0  0  0  0  0  0  0  0
    0.8288    2.1520   -1.7519 C   0  0  0  0  0  0  0  0  0  0  0  0
    1.4345    1.1416   -0.9947 C   0  0  0  0  0  0  0  0  0  0  0  0
    1.4710   -0.2232   -1.5721 C   0  0  0  0  0  0  0  0  0  0  0  0
    1.9997   -0.3416   -2.6758 O   0  0  0  0  0  0  0  0  0  0  0  0
    0.9129   -1.2782   -0.8404 N   0  0  0  0  0  0  0  0  0  0  0  0
    0.1895   -1.0154    0.3457 N   0  0  0  0  0  0  0  0  0  0  0  0
   -1.0741   -0.4671    0.2768 C   0  0  0  0  0  0  0  0  0  0  0  0
   -1.7651   -0.4136   -0.7328 O   0  0  0  0  0  0  0  0  0  0  0  0
   -1.4138    0.0280    1.5272 O   0  0  0  0  0  0  0  0  0  0  0  0
   -2.6295    0.7147    1.5545 C   0  0  0  0  0  0  0  0  0  0  0  0
   -2.7056    2.0165    1.0601 C   0  0  0  0  0  0  0  0  0  0  0  0
   -3.9145    2.7053    1.1448 C   0  0  0  0  0  0  0  0  0  0  0  0
   -5.0258    2.0965    1.7335 C   0  0  0  0  0  0  0  0  0  0  0  0
   -4.9308    0.7988    2.2427 C   0  0  0  0  0  0  0  0  0  0  0  0
   -3.7251    0.1037    2.1604 C   0  0  0  0  0  0  0  0  0  0  0  0
    0.8652   -2.6906   -1.3146 C   0  0  0  0  0  0  0  0  0  0  0  0
    0.2445   -3.6568   -0.2750 C   0  0  0  0  0  0  0  0  0  0  0  0
    0.0318   -2.7956   -2.6058 C   0  0  0  0  0  0  0  0  0  0  0  0
    2.2975   -3.1970   -1.5880 C   0  0  0  0  0  0  0  0  0  0  0  0
    4.4224   -0.3893    1.3252 H   0  0  0  0  0  0  0  0  0  0  0  0
    4.5176    1.2992    0.7938 H   0  0  0  0  0  0  0  0  0  0  0  0
    4.0762   -0.0008   -0.3675 H   0  0  0  0  0  0  0  0  0  0  0  0
    2.3042    2.9764    1.7433 H   0  0  0  0  0  0  0  0  0  0  0  0
    1.2051    4.7549    0.4076 H   0  0  0  0  0  0  0  0  0  0  0  0
    0.2716    4.2316   -1.8339 H   0  0  0  0  0  0  0  0  0  0  0  0
    0.4083    1.9214   -2.7288 H   0  0  0  0  0  0  0  0  0  0  0  0
    0.7474   -0.7841    1.1626 H   0  0  0  0  0  0  0  0  0  0  0  0
   -1.8388    2.4873    0.6068 H   0  0  0  0  0  0  0  0  0  0  0  0
   -3.9928    3.7153    0.7512 H   0  0  0  0  0  0  0  0  0  0  0  0
   -5.9683    2.6349    1.7959 H   0  0  0  0  0  0  0  0  0  0  0  0
   -5.7977    0.3313    2.7026 H   0  0  0  0  0  0  0  0  0  0  0  0
   -3.6448   -0.9025    2.5593 H   0  0  0  0  0  0  0  0  0  0  0  0
    0.7911   -3.6252    0.6747 H   0  0  0  0  0  0  0  0  0  0  0  0
   -0.8042   -3.4132   -0.0702 H   0  0  0  0  0  0  0  0  0  0  0  0
    0.2683   -4.6926   -0.6338 H   0  0  0  0  0  0  0  0  0  0  0  0
   -0.9901   -2.4355   -2.4450 H   0  0  0  0  0  0  0  0  0  0  0  0
   -0.0307   -3.8332   -2.9532 H   0  0  0  0  0  0  0  0  0  0  0  0
    0.4602   -2.2061   -3.4223 H   0  0  0  0  0  0  0  0  0  0  0  0
    2.2980   -4.2575   -1.8653 H   0  0  0  0  0  0  0  0  0  0  0  0
    2.9279   -3.0810   -0.6987 H   0  0  0  0  0  0  0  0  0  0  0  0
    2.7820   -2.6549   -2.4055 H   0  0  0  0  0  0  0  0  0  0  0  0
  1  2  1  0
  2  3  1  0
  3  4  2  0
  4  5  1  0
  5  6  2  0
  6  7  1  0
  7  8  2  0
  8  9  1  0
  9 10  2  0
  9 11  1  0
 11 12  1  0
 12 13  1  0
 13 14  2  0
 13 15  1  0
 15 16  1  0
 16 17  2  0
 17 18  1  0
 18 19  2  0
 19 20  1  0
 20 21  2  0
 11 22  1  0
 22 23  1  0
 22 24  1  0
 22 25  1  0
  8  3  1  0
 21 16  1  0
  1 26  1  0
  1 27  1  0
  1 28  1  0
  4 29  1  0
  5 30  1  0
  6 31  1  0
  7 32  1  0
 12 33  1  0
 17 34  1  0
 18 35  1  0
 19 36  1  0
 20 37  1  0
 21 38  1  0
 23 39  1  0
 23 40  1  0
 23 41  1  0
 24 42  1  0
 24 43  1  0
 24 44  1  0
 25 45  1  0
 25 46  1  0
 25 47  1  0
M  END
$$$$
