
     RDKit          3D

 63 66  0  0  0  0  0  0  0  0999 V2000
    4.5516    4.7431   -1.4719 C   0  0  0  0  0  0  0  0  0  0  0  0
    5.4525    3.6659   -1.2576 O   0  0  0  0  0  0  0  0  0  0  0  0
    4.9313    2.4705   -0.8392 C   0  0  0  0  0  0  0  0  0  0  0  0
    3.5693    2.2189   -0.6606 C   0  0  0  0  0  0  0  0  0  0  0  0
    3.1331    0.9606   -0.2245 C   0  0  0  0  0  0  0  0  0  0  0  0
    4.0449   -0.0686    0.0405 C   0  0  0  0  0  0  0  0  0  0  0  0
    3.5140   -1.2976    0.4819 N   0  0  0  0  0  0  0  0  0  0  0  0
    4.2062   -2.4441    0.8145 C   0  0  0  0  0  0  0  0  0  0  0  0
    5.4197   -2.6133    0.7722 O   0  0  0  0  0  0  0  0  0  0  0  0
    3.3323   -3.5393    1.2647 C   0  0  0  0  0  0  0  0  0  0  0  0
    3.7090   -4.7831    1.6084 C   0  0  0  0  0  0  0  0  0  0  0  0
    2.6670   -5.5998    2.0030 N   0  0  0  0  0  0  0  0  0  0  0  0
    1.5186   -4.8419    1.7963 N   0  0  0  0  0  0  0  0  0  0  0  0
    0.2353   -5.3002    1.9149 C   0  0  0  0  0  0  0  0  0  0  0  0
   -0.1150   -6.4465    2.1671 O   0  0  0  0  0  0  0  0  0  0  0  0
   -0.7513   -4.2236    1.6624 C   0  0  0  0  0  0  0  0  0  0  0  0
   -0.3313   -2.9963    1.2905 C   0  0  0  0  0  0  0  0  0  0  0  0
   -1.3439   -1.8840    1.0573 C   0  0  0  0  0  0  0  0  0  0  0  0
   -1.4048   -1.4538   -0.4246 C   0  0  0  0  0  0  0  0  0  0  0  0
   -1.5760    0.0549   -0.6059 C   0  0  0  0  0  0  0  0  0  0  0  0
   -2.4941    0.6030    0.3848 N   0  0  0  0  0  0  0  0  0  0  0  0
   -3.5635    1.4299    0.0821 C   0  0  0  0  0  0  0  0  0  0  0  0
   -4.3017    1.9059    0.9360 O   0  0  0  0  0  0  0  0  0  0  0  0
   -3.6965    1.6360   -1.2525 O   0  0  0  0  0  0  0  0  0  0  0  0
   -4.7896    2.4317   -1.7803 C   0  0  0  0  0  0  0  0  0  0  0  0
   -4.5668    2.4318   -3.3010 C   0  0  0  0  0  0  0  0  0  0  0  0
   -4.7284    3.8794   -1.2789 C   0  0  0  0  0  0  0  0  0  0  0  0
   -6.1430    1.7736   -1.4875 C   0  0  0  0  0  0  0  0  0  0  0  0
   -2.1932    0.3591    1.7883 C   0  0  0  0  0  0  0  0  0  0  0  0
   -1.0982   -0.6863    1.9878 C   0  0  0  0  0  0  0  0  0  0  0  0
    0.9998   -2.6467    1.1070 N   0  0  0  0  0  0  0  0  0  0  0  0
    1.8590   -3.5737    1.3718 C   0  0  0  0  0  0  0  0  0  0  0  0
    5.4045    0.1776   -0.1396 C   0  0  0  0  0  0  0  0  0  0  0  0
    5.8430    1.4346   -0.5759 C   0  0  0  0  0  0  0  0  0  0  0  0
    7.5472    1.6717   -0.7713 Cl  0  0  0  0  0  0  0  0  0  0  0  0
    4.0284    5.0151   -0.5481 H   0  0  0  0  0  0  0  0  0  0  0  0
    3.8435    4.5118   -2.2753 H   0  0  0  0  0  0  0  0  0  0  0  0
    5.1419    5.6096   -1.7885 H   0  0  0  0  0  0  0  0  0  0  0  0
    2.8169    2.9787   -0.8500 H   0  0  0  0  0  0  0  0  0  0  0  0
    2.0652    0.7997   -0.0940 H   0  0  0  0  0  0  0  0  0  0  0  0
    2.4996   -1.3340    0.5793 H   0  0  0  0  0  0  0  0  0  0  0  0
    4.7169   -5.1815    1.6000 H   0  0  0  0  0  0  0  0  0  0  0  0
    2.6450   -6.5238    1.5660 H   0  0  0  0  0  0  0  0  0  0  0  0
   -1.7929   -4.4867    1.7981 H   0  0  0  0  0  0  0  0  0  0  0  0
   -2.3414   -2.2708    1.3117 H   0  0  0  0  0  0  0  0  0  0  0  0
   -0.5256   -1.7803   -0.9916 H   0  0  0  0  0  0  0  0  0  0  0  0
   -2.2624   -1.9620   -0.8851 H   0  0  0  0  0  0  0  0  0  0  0  0
   -1.9048    0.2622   -1.6280 H   0  0  0  0  0  0  0  0  0  0  0  0
   -0.6144    0.5671   -0.4725 H   0  0  0  0  0  0  0  0  0  0  0  0
   -3.6025    2.8884   -3.5521 H   0  0  0  0  0  0  0  0  0  0  0  0
   -4.5319    1.4076   -3.6925 H   0  0  0  0  0  0  0  0  0  0  0  0
   -5.3573    2.9774   -3.8276 H   0  0  0  0  0  0  0  0  0  0  0  0
   -4.9542    3.9554   -0.2116 H   0  0  0  0  0  0  0  0  0  0  0  0
   -3.7243    4.2935   -1.4193 H   0  0  0  0  0  0  0  0  0  0  0  0
   -5.4448    4.5152   -1.8100 H   0  0  0  0  0  0  0  0  0  0  0  0
   -6.1423    0.7277   -1.8159 H   0  0  0  0  0  0  0  0  0  0  0  0
   -6.9588    2.2978   -1.9942 H   0  0  0  0  0  0  0  0  0  0  0  0
   -6.3743    1.7618   -0.4165 H   0  0  0  0  0  0  0  0  0  0  0  0
   -3.1183    0.0335    2.2804 H   0  0  0  0  0  0  0  0  0  0  0  0
   -1.8978    1.3094    2.2476 H   0  0  0  0  0  0  0  0  0  0  0  0
   -0.1197   -0.2341    1.7779 H   0  0  0  0  0  0  0  0  0  0  0  0
   -1.0804   -1.0007    3.0386 H   0  0  0  0  0  0  0  0  0  0  0  0
    6.1496   -0.5877    0.0551 H   0  0  0  0  0  0  0  0  0  0  0  0
  1  2  1  0
  2  3  1  0
  3  4  2  0
  4  5  1  0
  5  6  2  0
  6  7  1  0
  7  8  1  0
  8  9  2  0
  8 10  1  0
 10 11  2  0
 11 12  1  0
 12 13  1  0
 13 14  1  0
 14 15  2  0
 14 16  1  0
 16 17  2  0
 17 18  1  0
 18 19  1  0
 19 20  1  0
 20 21  1  0
 21 22  1  0
 22 23  2  0
 22 24  1  0
 24 25  1  0
 25 26  1  0
 25 27  1  0
 25 28  1  0
 21 29  1  0
 29 30  1  0
 17 31  1  0
 31 32  2  0
  6 33  1  0
 33 34  2  0
 34 35  1  0
 34  3  1  0
 32 10  1  0
 32 13  1  0
 30 18  1  0
  1 36  1  0
  1 37  1  0
  1 38  1  0
  4 39  1  0
  5 40  1  0
  7 41  1  0
 11 42  1  0
 12 43  1  0
 16 44  1  0
 18 45  1  0
 19 46  1  0
 19 47  1  0
 20 48  1  0
 20 49  1  0
 26 50  1  0
 26 51  1  0
 26 52  1  0
 27 53  1  0
 27 54  1  0
 27 55  1  0
 28 56  1  0
 28 57  1  0
 28 58  1  0
 29 59  1  0
 29 60  1  0
 30 61  1  0
 30 62  1  0
 33 63  1  0
M  END
$$$$
