
     RDKit          3D

 45 47  0  0  0  0  0  0  0  0999 V2000
   -4.7219   -1.4106    3.3725 C   0  0  0  0  0  0  0  0  0  0  0  0
   -3.8012   -1.2223    2.3040 O   0  0  0  0  0  0  0  0  0  0  0  0
   -4.3085   -0.7241    1.1244 C   0  0  0  0  0  0  0  0  0  0  0  0
   -5.6498   -0.3971    0.9045 C   0  0  0  0  0  0  0  0  0  0  0  0
   -6.0539    0.1032   -0.3347 C   0  0  0  0  0  0  0  0  0  0  0  0
   -5.1231    0.2782   -1.3554 C   0  0  0  0  0  0  0  0  0  0  0  0
   -3.7810   -0.0456   -1.1457 C   0  0  0  0  0  0  0  0  0  0  0  0
   -3.3642   -0.5468    0.0887 C   0  0  0  0  0  0  0  0  0  0  0  0
   -2.0272   -0.8973    0.3819 N   0  0  0  0  0  0  0  0  0  0  0  0
   -0.9185   -0.8213   -0.4373 C   0  0  0  0  0  0  0  0  0  0  0  0
   -0.9006   -0.4189   -1.5956 O   0  0  0  0  0  0  0  0  0  0  0  0
    0.3580   -1.2764    0.2759 C   0  0  0  0  0  0  0  0  0  0  0  0
    0.7764   -0.2330    1.3262 C   0  0  0  0  0  0  0  0  0  0  0  0
    1.9760    0.5892    0.8655 C   0  0  0  0  0  0  0  0  0  0  0  0
    3.1161   -0.3168    0.6477 N   0  0  0  0  0  0  0  0  0  0  0  0
    4.6681    0.3545    0.5419 S   0  0  0  0  0  6  0  0  0  0  0  0
    4.7459    1.4524    1.4815 O   0  0  0  0  0  0  0  0  0  0  0  0
    5.6181   -0.7376    0.5539 O   0  0  0  0  0  0  0  0  0  0  0  0
    4.8451    1.1084   -1.0638 C   0  0  0  0  0  0  0  0  0  0  0  0
    3.9935    1.2622   -2.1420 C   0  0  0  0  0  0  0  0  0  0  0  0
    4.6077    1.9523   -3.2282 C   0  0  0  0  0  0  0  0  0  0  0  0
    5.9079    2.3040   -2.9443 C   0  0  0  0  0  0  0  0  0  0  0  0
    6.3802    1.8048   -1.3784 S   0  0  0  0  0  0  0  0  0  0  0  0
    2.8552   -1.5743   -0.0818 C   0  0  0  0  0  0  0  0  0  0  0  0
    1.4791   -1.5702   -0.7321 C   0  0  0  0  0  0  0  0  0  0  0  0
   -5.4889   -2.1457    3.1077 H   0  0  0  0  0  0  0  0  0  0  0  0
   -5.1703   -0.4600    3.6794 H   0  0  0  0  0  0  0  0  0  0  0  0
   -4.1641   -1.8058    4.2269 H   0  0  0  0  0  0  0  0  0  0  0  0
   -6.4059   -0.5183    1.6726 H   0  0  0  0  0  0  0  0  0  0  0  0
   -7.0975    0.3571   -0.5045 H   0  0  0  0  0  0  0  0  0  0  0  0
   -5.4388    0.6675   -2.3204 H   0  0  0  0  0  0  0  0  0  0  0  0
   -3.0866    0.1038   -1.9658 H   0  0  0  0  0  0  0  0  0  0  0  0
   -1.9077   -1.2521    1.3265 H   0  0  0  0  0  0  0  0  0  0  0  0
    0.1169   -2.2132    0.7973 H   0  0  0  0  0  0  0  0  0  0  0  0
   -0.0459    0.4447    1.5823 H   0  0  0  0  0  0  0  0  0  0  0  0
    1.0445   -0.7592    2.2522 H   0  0  0  0  0  0  0  0  0  0  0  0
    2.2144    1.3123    1.6521 H   0  0  0  0  0  0  0  0  0  0  0  0
    1.7400    1.1453   -0.0471 H   0  0  0  0  0  0  0  0  0  0  0  0
    2.9745    0.8996   -2.1567 H   0  0  0  0  0  0  0  0  0  0  0  0
    4.1204    2.1797   -4.1690 H   0  0  0  0  0  0  0  0  0  0  0  0
    6.6067    2.8318   -3.5793 H   0  0  0  0  0  0  0  0  0  0  0  0
    3.6074   -1.7421   -0.8599 H   0  0  0  0  0  0  0  0  0  0  0  0
    2.9309   -2.4030    0.6316 H   0  0  0  0  0  0  0  0  0  0  0  0
    1.2927   -2.5383   -1.2133 H   0  0  0  0  0  0  0  0  0  0  0  0
    1.4797   -0.8306   -1.5417 H   0  0  0  0  0  0  0  0  0  0  0  0
  1  2  1  0
  2  3  1  0
  3  4  2  0
  4  5  1  0
  5  6  2  0
  6  7  1  0
  7  8  2  0
  8  9  1  0
  9 10  1  0
 10 11  2  0
 10 12  1  0
 12 13  1  0
 13 14  1  0
 14 15  1  0
 15 16  1  0
 16 17  2  0
 16 18  2  0
 16 19  1  0
 19 20  2  0
 20 21  1  0
 21 22  2  0
 22 23  1  0
 15 24  1  0
 24 25  1  0
  8  3  1  0
 25 12  1  0
 23 19  1  0
  1 26  1  0
  1 27  1  0
  1 28  1  0
  4 29  1  0
  5 30  1  0
  6 31  1  0
  7 32  1  0
  9 33  1  0
 12 34  1  0
 13 35  1  0
 13 36  1  0
 14 37  1  0
 14 38  1  0
 20 39  1  0
 21 40  1  0
 22 41  1  0
 24 42  1  0
 24 43  1  0
 25 44  1  0
 25 45  1  0
M  END
$$$$
