
     RDKit          3D

 48 49  0  0  0  0  0  0  0  0999 V2000
    1.1183   -0.2517    3.0994 C   0  0  0  0  0  0  0  0  0  0  0  0
    1.7355   -0.0843    1.8293 O   0  0  0  0  0  0  0  0  0  0  0  0
    0.9183   -0.1310    0.7290 C   0  0  0  0  0  0  0  0  0  0  0  0
   -0.3967   -0.6078    0.7391 C   0  0  0  0  0  0  0  0  0  0  0  0
   -1.1750   -0.6095   -0.4321 C   0  0  0  0  0  0  0  0  0  0  0  0
   -2.6033   -1.1076   -0.3952 C   0  0  0  0  0  0  0  0  0  0  0  0
   -3.4624   -0.1185    0.2529 N   0  0  0  0  0  0  0  0  0  0  0  0
   -4.9108   -0.4271    0.2251 C   0  0  0  0  0  0  0  0  0  0  0  0
   -5.2351   -1.8228    0.7825 C   0  0  0  0  0  0  0  0  0  0  0  0
   -5.5659    0.6205    1.1492 C   0  0  0  0  0  0  0  0  0  0  0  0
   -5.4965   -0.2859   -1.2081 C   0  0  0  0  0  0  0  0  0  0  0  0
   -5.0783    0.9322   -1.8269 O   0  0  0  0  0  0  0  0  0  0  0  0
   -0.6271   -0.1065   -1.6192 C   0  0  0  0  0  0  0  0  0  0  0  0
    0.6877    0.3612   -1.6421 C   0  0  0  0  0  0  0  0  0  0  0  0
    1.3744    1.0267   -3.2821 Br  0  0  0  0  0  0  0  0  0  0  0  0
    1.4681    0.3267   -0.4804 C   0  0  0  0  0  0  0  0  0  0  0  0
    2.7501    0.8232   -0.5164 O   0  0  0  0  0  0  0  0  0  0  0  0
    3.7003   -0.2448   -0.5555 C   0  0  0  0  0  0  0  0  0  0  0  0
    5.0552    0.3524   -0.8495 C   0  0  0  0  0  0  0  0  0  0  0  0
    5.5185    0.4546   -2.1694 C   0  0  0  0  0  0  0  0  0  0  0  0
    6.7643    1.0255   -2.4393 C   0  0  0  0  0  0  0  0  0  0  0  0
    7.5478    1.5049   -1.3916 C   0  0  0  0  0  0  0  0  0  0  0  0
    9.0829    2.2080   -1.7247 Cl  0  0  0  0  0  0  0  0  0  0  0  0
    7.0946    1.4238   -0.0767 C   0  0  0  0  0  0  0  0  0  0  0  0
    5.8488    0.8532    0.1932 C   0  0  0  0  0  0  0  0  0  0  0  0
    1.8718   -0.0466    3.8659 H   0  0  0  0  0  0  0  0  0  0  0  0
    0.2964    0.4581    3.2424 H   0  0  0  0  0  0  0  0  0  0  0  0
    0.7793   -1.2837    3.2354 H   0  0  0  0  0  0  0  0  0  0  0  0
   -0.8557   -0.9789    1.6512 H   0  0  0  0  0  0  0  0  0  0  0  0
   -2.9340   -1.3220   -1.4174 H   0  0  0  0  0  0  0  0  0  0  0  0
   -2.6132   -2.0572    0.1523 H   0  0  0  0  0  0  0  0  0  0  0  0
   -3.3370    0.7615   -0.2577 H   0  0  0  0  0  0  0  0  0  0  0  0
   -4.8663   -2.6205    0.1287 H   0  0  0  0  0  0  0  0  0  0  0  0
   -4.7937   -1.9678    1.7753 H   0  0  0  0  0  0  0  0  0  0  0  0
   -6.3181   -1.9621    0.8801 H   0  0  0  0  0  0  0  0  0  0  0  0
   -5.3487    1.6463    0.8301 H   0  0  0  0  0  0  0  0  0  0  0  0
   -5.2106    0.5169    2.1818 H   0  0  0  0  0  0  0  0  0  0  0  0
   -6.6559    0.5049    1.1638 H   0  0  0  0  0  0  0  0  0  0  0  0
   -6.5922   -0.3069   -1.1953 H   0  0  0  0  0  0  0  0  0  0  0  0
   -5.1633   -1.1062   -1.8523 H   0  0  0  0  0  0  0  0  0  0  0  0
   -5.5351    1.6624   -1.3751 H   0  0  0  0  0  0  0  0  0  0  0  0
   -1.2316   -0.0748   -2.5235 H   0  0  0  0  0  0  0  0  0  0  0  0
    3.7395   -0.7744    0.4040 H   0  0  0  0  0  0  0  0  0  0  0  0
    3.4445   -0.9767   -1.3337 H   0  0  0  0  0  0  0  0  0  0  0  0
    4.9061    0.0976   -2.9949 H   0  0  0  0  0  0  0  0  0  0  0  0
    7.1123    1.0989   -3.4659 H   0  0  0  0  0  0  0  0  0  0  0  0
    7.6998    1.8077    0.7397 H   0  0  0  0  0  0  0  0  0  0  0  0
    5.4918    0.8082    1.2203 H   0  0  0  0  0  0  0  0  0  0  0  0
  1  2  1  0
  2  3  1  0
  3  4  2  0
  4  5  1  0
  5  6  1  0
  6  7  1  0
  7  8  1  0
  8  9  1  0
  8 10  1  0
  8 11  1  0
 11 12  1  0
  5 13  2  0
 13 14  1  0
 14 15  1  0
 14 16  2  0
 16 17  1  0
 17 18  1  0
 18 19  1  0
 19 20  2  0
 20 21  1  0
 21 22  2  0
 22 23  1  0
 22 24  1  0
 24 25  2  0
 16  3  1  0
 25 19  1  0
  1 26  1  0
  1 27  1  0
  1 28  1  0
  4 29  1  0
  6 30  1  0
  6 31  1  0
  7 32  1  0
  9 33  1  0
  9 34  1  0
  9 35  1  0
 10 36  1  0
 10 37  1  0
 10 38  1  0
 11 39  1  0
 11 40  1  0
 12 41  1  0
 13 42  1  0
 18 43  1  0
 18 44  1  0
 20 45  1  0
 21 46  1  0
 24 47  1  0
 25 48  1  0
M  END
$$$$
