
     RDKit          3D

 42 44  0  0  0  0  0  0  0  0999 V2000
    1.9236    1.0374    2.7411 C   0  0  0  0  0  0  0  0  0  0  0  0
    2.2244    0.7746    1.3735 O   0  0  0  0  0  0  0  0  0  0  0  0
    1.1598    0.6416    0.5190 C   0  0  0  0  0  0  0  0  0  0  0  0
   -0.1553    0.3592    0.9242 C   0  0  0  0  0  0  0  0  0  0  0  0
   -1.2239    0.2222    0.0142 C   0  0  0  0  0  0  0  0  0  0  0  0
   -2.5100   -0.0347    0.4622 N   0  0  0  0  0  0  0  0  0  0  0  0
   -2.8580   -0.2245    1.8685 C   0  0  0  0  0  0  0  0  0  0  0  0
   -4.3646   -0.4518    1.8408 C   0  0  0  0  0  0  0  0  0  0  0  0
   -4.8100    0.4678    0.7212 C   0  0  0  0  0  0  0  0  0  0  0  0
   -3.6979    0.3214   -0.3197 C   0  0  0  0  0  0  0  0  0  0  0  0
   -0.8772    0.3254   -1.3500 C   0  0  0  0  0  0  0  0  0  0  0  0
   -1.8177    0.1531   -2.3430 O   0  0  0  0  0  0  0  0  0  0  0  0
   -1.7180   -1.1737   -2.8697 C   0  0  0  0  0  0  0  0  0  0  0  0
    0.4268    0.6220   -1.7706 C   0  0  0  0  0  0  0  0  0  0  0  0
    1.4579    0.7768   -0.8418 C   0  0  0  0  0  0  0  0  0  0  0  0
    2.8605    1.0739   -1.3139 C   0  0  0  0  0  0  0  0  0  0  0  0
    3.7897   -0.0615   -1.0630 C   0  0  0  0  0  0  0  0  0  0  0  0
    3.7469   -1.2538   -1.5782 N   0  0  0  0  0  0  0  0  0  0  0  0
    4.8021   -1.9449   -1.0168 C   0  0  0  0  0  0  0  0  0  0  0  0
    5.2369   -3.5249   -1.3081 S   0  0  0  0  0  0  0  0  0  0  0  0
    5.4992   -1.1635   -0.1525 N   0  0  0  0  0  0  0  0  0  0  0  0
    4.9687    0.0726   -0.1326 C   0  0  0  0  0  0  0  0  0  0  0  0
    5.3402    1.0774    0.4256 O   0  0  0  0  0  0  0  0  0  0  0  0
    1.2322    1.8823    2.8479 H   0  0  0  0  0  0  0  0  0  0  0  0
    2.8585    1.3087    3.2409 H   0  0  0  0  0  0  0  0  0  0  0  0
    1.5319    0.1394    3.2346 H   0  0  0  0  0  0  0  0  0  0  0  0
   -0.3598    0.2419    1.9798 H   0  0  0  0  0  0  0  0  0  0  0  0
   -2.6286    0.6770    2.4487 H   0  0  0  0  0  0  0  0  0  0  0  0
   -2.3448   -1.0846    2.3102 H   0  0  0  0  0  0  0  0  0  0  0  0
   -4.8420   -0.2220    2.7977 H   0  0  0  0  0  0  0  0  0  0  0  0
   -4.5871   -1.4938    1.5845 H   0  0  0  0  0  0  0  0  0  0  0  0
   -5.7929    0.2064    0.3220 H   0  0  0  0  0  0  0  0  0  0  0  0
   -4.8525    1.5015    1.0808 H   0  0  0  0  0  0  0  0  0  0  0  0
   -3.5846    1.2633   -0.8695 H   0  0  0  0  0  0  0  0  0  0  0  0
   -3.9460   -0.4878   -1.0155 H   0  0  0  0  0  0  0  0  0  0  0  0
   -1.7351   -1.9270   -2.0776 H   0  0  0  0  0  0  0  0  0  0  0  0
   -2.5847   -1.3447   -3.5135 H   0  0  0  0  0  0  0  0  0  0  0  0
   -0.8186   -1.2805   -3.4837 H   0  0  0  0  0  0  0  0  0  0  0  0
    0.6267    0.7149   -2.8342 H   0  0  0  0  0  0  0  0  0  0  0  0
    3.2252    1.9868   -0.8309 H   0  0  0  0  0  0  0  0  0  0  0  0
    2.8680    1.2718   -2.3924 H   0  0  0  0  0  0  0  0  0  0  0  0
    6.3301   -1.4458    0.3395 H   0  0  0  0  0  0  0  0  0  0  0  0
  1  2  1  0
  2  3  1  0
  3  4  2  0
  4  5  1  0
  5  6  1  0
  6  7  1  0
  7  8  1  0
  8  9  1  0
  9 10  1  0
  5 11  2  0
 11 12  1  0
 12 13  1  0
 11 14  1  0
 14 15  2  0
 15 16  1  0
 16 17  1  0
 17 18  2  0
 18 19  1  0
 19 20  2  0
 19 21  1  0
 21 22  1  0
 22 23  2  0
 15  3  1  0
 22 17  1  0
 10  6  1  0
  1 24  1  0
  1 25  1  0
  1 26  1  0
  4 27  1  0
  7 28  1  0
  7 29  1  0
  8 30  1  0
  8 31  1  0
  9 32  1  0
  9 33  1  0
 10 34  1  0
 10 35  1  0
 13 36  1  0
 13 37  1  0
 13 38  1  0
 14 39  1  0
 16 40  1  0
 16 41  1  0
 21 42  1  0
M  END
$$$$
