
     RDKit          3D

 48 50  0  0  0  0  0  0  0  0999 V2000
    3.7579   -4.1178    0.7512 C   0  0  0  0  0  0  0  0  0  0  0  0
    3.5829   -2.7861    0.2898 O   0  0  0  0  0  0  0  0  0  0  0  0
    2.4243   -2.1359    0.6357 C   0  0  0  0  0  0  0  0  0  0  0  0
    1.4279   -2.6795    1.4551 C   0  0  0  0  0  0  0  0  0  0  0  0
    0.2812   -1.9408    1.7567 C   0  0  0  0  0  0  0  0  0  0  0  0
    0.1307   -0.6536    1.2412 C   0  0  0  0  0  0  0  0  0  0  0  0
   -1.0879    0.1075    1.5807 C   0  0  0  0  0  0  0  0  0  0  0  0
   -1.2734    1.3234    1.1676 N   0  0  0  0  0  0  0  0  0  0  0  0
   -2.4635    1.8931    1.5400 N   0  0  0  0  0  0  0  0  0  0  0  0
   -3.7038    1.3935    1.2602 C   0  0  0  0  0  0  0  0  0  0  0  0
   -3.9809    0.1685    0.8599 N   0  0  0  0  0  0  0  0  0  0  0  0
   -5.3280    0.0344    0.6805 C   0  0  0  0  0  0  0  0  0  0  0  0
   -5.8610   -1.1201    0.2644 O   0  0  0  0  0  0  0  0  0  0  0  0
   -6.1043    1.1381    0.9400 C   0  0  0  0  0  0  0  0  0  0  0  0
   -7.5832    1.2964    0.8415 C   0  0  0  0  0  0  0  0  0  0  0  0
   -8.2667    0.6768    2.0364 C   0  0  0  0  0  0  0  0  0  0  0  0
   -7.7748    0.3303    3.0977 O   0  0  0  0  0  0  0  0  0  0  0  0
   -9.6008    0.5630    1.8477 O   0  0  0  0  0  0  0  0  0  0  0  0
   -5.0841    2.4240    1.4279 S   0  0  0  0  0  0  0  0  0  0  0  0
    1.1178   -0.0983    0.4206 C   0  0  0  0  0  0  0  0  0  0  0  0
    2.2662   -0.8347    0.1117 C   0  0  0  0  0  0  0  0  0  0  0  0
    3.2906   -0.3795   -0.6820 O   0  0  0  0  0  0  0  0  0  0  0  0
    3.1310    0.8891   -1.3119 C   0  0  0  0  0  0  0  0  0  0  0  0
    4.3553    1.1672   -2.1541 C   0  0  0  0  0  0  0  0  0  0  0  0
    5.6292    1.1885   -1.5635 C   0  0  0  0  0  0  0  0  0  0  0  0
    6.7642    1.4572   -2.3315 C   0  0  0  0  0  0  0  0  0  0  0  0
    6.6312    1.7088   -3.6950 C   0  0  0  0  0  0  0  0  0  0  0  0
    8.0288    2.0394   -4.6430 Cl  0  0  0  0  0  0  0  0  0  0  0  0
    5.3738    1.6942   -4.2967 C   0  0  0  0  0  0  0  0  0  0  0  0
    4.2383    1.4250   -3.5281 C   0  0  0  0  0  0  0  0  0  0  0  0
    3.8093   -4.1528    1.8442 H   0  0  0  0  0  0  0  0  0  0  0  0
    2.9700   -4.7757    0.3699 H   0  0  0  0  0  0  0  0  0  0  0  0
    4.7128   -4.4842    0.3623 H   0  0  0  0  0  0  0  0  0  0  0  0
    1.5152   -3.6755    1.8764 H   0  0  0  0  0  0  0  0  0  0  0  0
   -0.4828   -2.3782    2.3948 H   0  0  0  0  0  0  0  0  0  0  0  0
   -1.8271   -0.4082    2.2208 H   0  0  0  0  0  0  0  0  0  0  0  0
   -2.4350    2.9109    1.5729 H   0  0  0  0  0  0  0  0  0  0  0  0
   -5.1121   -1.7319    0.1546 H   0  0  0  0  0  0  0  0  0  0  0  0
   -7.9411    0.7957   -0.0653 H   0  0  0  0  0  0  0  0  0  0  0  0
   -7.8720    2.3516    0.7889 H   0  0  0  0  0  0  0  0  0  0  0  0
   -9.9196    0.1604    2.6831 H   0  0  0  0  0  0  0  0  0  0  0  0
    0.9657    0.9060    0.0399 H   0  0  0  0  0  0  0  0  0  0  0  0
    3.0425    1.6867   -0.5636 H   0  0  0  0  0  0  0  0  0  0  0  0
    2.2364    0.8805   -1.9473 H   0  0  0  0  0  0  0  0  0  0  0  0
    5.7392    0.9821   -0.4997 H   0  0  0  0  0  0  0  0  0  0  0  0
    7.7448    1.4619   -1.8606 H   0  0  0  0  0  0  0  0  0  0  0  0
    5.2712    1.8867   -5.3606 H   0  0  0  0  0  0  0  0  0  0  0  0
    3.2637    1.4118   -4.0112 H   0  0  0  0  0  0  0  0  0  0  0  0
  1  2  1  0
  2  3  1  0
  3  4  2  0
  4  5  1  0
  5  6  2  0
  6  7  1  0
  7  8  2  3
  8  9  1  0
  9 10  1  0
 10 11  2  0
 11 12  1  0
 12 13  1  0
 12 14  2  0
 14 15  1  0
 15 16  1  0
 16 17  2  0
 16 18  1  0
 14 19  1  0
  6 20  1  0
 20 21  2  0
 21 22  1  0
 22 23  1  0
 23 24  1  0
 24 25  2  0
 25 26  1  0
 26 27  2  0
 27 28  1  0
 27 29  1  0
 29 30  2  0
 21  3  1  0
 30 24  1  0
 19 10  1  0
  1 31  1  0
  1 32  1  0
  1 33  1  0
  4 34  1  0
  5 35  1  0
  7 36  1  0
  9 37  1  0
 13 38  1  0
 15 39  1  0
 15 40  1  0
 18 41  1  0
 20 42  1  0
 23 43  1  0
 23 44  1  0
 25 45  1  0
 26 46  1  0
 29 47  1  0
 30 48  1  0
M  END
$$$$
