
     RDKit          3D

 69 72  0  0  0  0  0  0  0  0999 V2000
    7.8138   -1.4532   -0.1414 C   0  0  0  0  0  0  0  0  0  0  0  0
    7.0980   -0.1886    0.2305 C   0  0  0  0  0  0  0  0  0  0  0  0
    7.6910    1.0607   -0.0028 C   0  0  0  0  0  0  0  0  0  0  0  0
    7.0230    2.2422    0.3280 C   0  0  0  0  0  0  0  0  0  0  0  0
    5.7410    2.1893    0.8709 C   0  0  0  0  0  0  0  0  0  0  0  0
    5.1374    0.9469    1.0767 C   0  0  0  0  0  0  0  0  0  0  0  0
    3.7798    0.8808    1.6439 C   0  0  0  0  0  0  0  0  0  0  0  0
    3.6692    0.5343    2.8178 O   0  0  0  0  0  0  0  0  0  0  0  0
    2.6958    1.2027    0.8180 N   0  0  0  0  0  0  0  0  0  0  0  0
    2.7741    1.2143   -0.6450 C   0  0  0  0  0  0  0  0  0  0  0  0
    2.5178   -0.1668   -1.2315 C   0  0  0  0  0  0  0  0  0  0  0  0
    1.0357   -0.4018   -1.4241 C   0  0  0  0  0  0  0  0  0  0  0  0
    0.5879   -0.5531   -2.5614 O   0  0  0  0  0  0  0  0  0  0  0  0
    0.2242   -0.4126   -0.2990 N   0  0  0  0  0  0  0  0  0  0  0  0
   -1.2420   -0.5973   -0.4470 C   0  0  0  0  0  0  0  0  0  0  0  0
   -1.8772    0.4736   -1.3637 C   0  0  0  0  0  0  0  0  0  0  0  0
   -3.2606    0.6144   -1.0239 O   0  0  0  0  0  0  0  0  0  0  0  0
   -3.9317    1.5054   -1.9122 C   0  0  0  0  0  0  0  0  0  0  0  0
   -5.2832    1.8569   -1.3437 C   0  0  0  0  0  0  0  0  0  0  0  0
   -6.4009    1.9466   -2.1818 C   0  0  0  0  0  0  0  0  0  0  0  0
   -7.6469    2.3100   -1.6690 C   0  0  0  0  0  0  0  0  0  0  0  0
   -7.7889    2.5947   -0.3118 C   0  0  0  0  0  0  0  0  0  0  0  0
   -6.6863    2.5151    0.5506 C   0  0  0  0  0  0  0  0  0  0  0  0
   -6.8319    2.8489    2.0136 C   0  0  0  0  0  0  0  0  0  0  0  0
   -6.6357    4.1733    2.2609 F   0  0  0  0  0  0  0  0  0  0  0  0
   -5.9484    2.1858    2.8115 F   0  0  0  0  0  0  0  0  0  0  0  0
   -8.0675    2.5562    2.5091 F   0  0  0  0  0  0  0  0  0  0  0  0
   -5.4365    2.1578    0.0197 C   0  0  0  0  0  0  0  0  0  0  0  0
   -1.6357   -2.0170   -0.9158 C   0  0  0  0  0  0  0  0  0  0  0  0
   -1.2413   -3.0955    0.0702 C   0  0  0  0  0  0  0  0  0  0  0  0
   -1.9846   -3.2921    1.2418 C   0  0  0  0  0  0  0  0  0  0  0  0
   -1.6039   -4.2664    2.1653 C   0  0  0  0  0  0  0  0  0  0  0  0
   -0.4813   -5.0541    1.9241 C   0  0  0  0  0  0  0  0  0  0  0  0
    0.2607   -4.8718    0.7586 C   0  0  0  0  0  0  0  0  0  0  0  0
   -0.1159   -3.8976   -0.1652 C   0  0  0  0  0  0  0  0  0  0  0  0
    0.7585   -0.3370    1.0720 C   0  0  0  0  0  0  0  0  0  0  0  0
    1.3573    1.0412    1.3881 C   0  0  0  0  0  0  0  0  0  0  0  0
    5.8081   -0.2395    0.7728 C   0  0  0  0  0  0  0  0  0  0  0  0
    7.5648   -2.2597    0.5567 H   0  0  0  0  0  0  0  0  0  0  0  0
    7.5325   -1.7572   -1.1533 H   0  0  0  0  0  0  0  0  0  0  0  0
    8.9001   -1.3167   -0.1038 H   0  0  0  0  0  0  0  0  0  0  0  0
    8.6896    1.1207   -0.4324 H   0  0  0  0  0  0  0  0  0  0  0  0
    7.5058    3.2023    0.1671 H   0  0  0  0  0  0  0  0  0  0  0  0
    5.2214    3.1052    1.1361 H   0  0  0  0  0  0  0  0  0  0  0  0
    3.7628    1.5556   -0.9591 H   0  0  0  0  0  0  0  0  0  0  0  0
    2.0528    1.9520   -1.0158 H   0  0  0  0  0  0  0  0  0  0  0  0
    2.9478   -0.9795   -0.6359 H   0  0  0  0  0  0  0  0  0  0  0  0
    2.9815   -0.2193   -2.2249 H   0  0  0  0  0  0  0  0  0  0  0  0
   -1.6877   -0.4432    0.5443 H   0  0  0  0  0  0  0  0  0  0  0  0
   -1.7839    0.2093   -2.4253 H   0  0  0  0  0  0  0  0  0  0  0  0
   -1.3832    1.4413   -1.1967 H   0  0  0  0  0  0  0  0  0  0  0  0
   -3.3569    2.4280   -2.0432 H   0  0  0  0  0  0  0  0  0  0  0  0
   -4.0362    1.0102   -2.8833 H   0  0  0  0  0  0  0  0  0  0  0  0
   -6.3106    1.7303   -3.2444 H   0  0  0  0  0  0  0  0  0  0  0  0
   -8.5076    2.3701   -2.3320 H   0  0  0  0  0  0  0  0  0  0  0  0
   -8.7684    2.8772    0.0737 H   0  0  0  0  0  0  0  0  0  0  0  0
   -4.5700    2.1021    0.6778 H   0  0  0  0  0  0  0  0  0  0  0  0
   -1.1975   -2.2408   -1.8942 H   0  0  0  0  0  0  0  0  0  0  0  0
   -2.7195   -2.0785   -1.0640 H   0  0  0  0  0  0  0  0  0  0  0  0
   -2.8651   -2.6857    1.4427 H   0  0  0  0  0  0  0  0  0  0  0  0
   -2.1840   -4.4091    3.0735 H   0  0  0  0  0  0  0  0  0  0  0  0
   -0.1867   -5.8131    2.6433 H   0  0  0  0  0  0  0  0  0  0  0  0
    1.1328   -5.4911    0.5662 H   0  0  0  0  0  0  0  0  0  0  0  0
    0.4736   -3.7636   -1.0695 H   0  0  0  0  0  0  0  0  0  0  0  0
   -0.0474   -0.5470    1.7838 H   0  0  0  0  0  0  0  0  0  0  0  0
    1.5089   -1.1271    1.1928 H   0  0  0  0  0  0  0  0  0  0  0  0
    0.7238    1.8449    0.9980 H   0  0  0  0  0  0  0  0  0  0  0  0
    1.4074    1.1701    2.4728 H   0  0  0  0  0  0  0  0  0  0  0  0
    5.3259   -1.1943    0.9640 H   0  0  0  0  0  0  0  0  0  0  0  0
  1  2  1  0
  2  3  2  0
  3  4  1  0
  4  5  2  0
  5  6  1  0
  6  7  1  0
  7  8  2  0
  7  9  1  0
  9 10  1  0
 10 11  1  0
 11 12  1  0
 12 13  2  0
 12 14  1  0
 14 15  1  0
 15 16  1  0
 16 17  1  0
 17 18  1  0
 18 19  1  0
 19 20  2  0
 20 21  1  0
 21 22  2  0
 22 23  1  0
 23 24  1  0
 24 25  1  0
 24 26  1  0
 24 27  1  0
 23 28  2  0
 15 29  1  0
 29 30  1  0
 30 31  2  0
 31 32  1  0
 32 33  2  0
 33 34  1  0
 34 35  2  0
 14 36  1  0
 36 37  1  0
  6 38  2  0
 38  2  1  0
 37  9  1  0
 28 19  1  0
 35 30  1  0
  1 39  1  0
  1 40  1  0
  1 41  1  0
  3 42  1  0
  4 43  1  0
  5 44  1  0
 10 45  1  0
 10 46  1  0
 11 47  1  0
 11 48  1  0
 15 49  1  0
 16 50  1  0
 16 51  1  0
 18 52  1  0
 18 53  1  0
 20 54  1  0
 21 55  1  0
 22 56  1  0
 28 57  1  0
 29 58  1  0
 29 59  1  0
 31 60  1  0
 32 61  1  0
 33 62  1  0
 34 63  1  0
 35 64  1  0
 36 65  1  0
 36 66  1  0
 37 67  1  0
 37 68  1  0
 38 69  1  0
M  END
$$$$
