
     RDKit          3D

 56 60  0  0  0  0  0  0  0  0999 V2000
   -0.1761    0.2029   -0.4825 C   0  0  0  0  0  0  0  0  0  0  0  0
   -0.4318   -0.3362    0.7179 C   0  0  0  0  0  0  0  0  0  0  0  0
    0.5427   -0.8754    1.6878 C   0  0  0  0  0  0  0  0  0  0  0  0
    1.8506   -1.1684    1.5895 C   0  0  0  0  0  0  0  0  0  0  0  0
    2.7422   -1.0583    0.4477 C   0  0  0  0  0  0  0  0  0  0  0  0
    2.6311   -1.7715   -0.6806 C   0  0  0  0  0  0  0  0  0  0  0  0
    1.6539   -2.6844   -0.9663 O   0  0  0  0  0  0  0  0  0  0  0  0
    3.5134   -1.6305   -1.6900 N   0  0  0  0  0  0  0  0  0  0  0  0
    4.5472   -0.7394   -1.7235 C   0  0  0  0  0  0  0  0  0  0  0  0
    5.1833   -0.6582   -2.7742 O   0  0  0  0  0  0  0  0  0  0  0  0
    4.7460    0.0151   -0.5640 N   0  0  0  0  0  0  0  0  0  0  0  0
    5.8335    0.9719   -0.5082 C   0  0  0  0  0  0  0  0  0  0  0  0
    5.7341    2.1363    0.2769 C   0  0  0  0  0  0  0  0  0  0  0  0
    6.7745    3.0728    0.3357 C   0  0  0  0  0  0  0  0  0  0  0  0
    7.9374    2.8621   -0.3942 C   0  0  0  0  0  0  0  0  0  0  0  0
    9.2168    4.0080   -0.3233 Cl  0  0  0  0  0  0  0  0  0  0  0  0
    8.0663    1.7238   -1.1800 C   0  0  0  0  0  0  0  0  0  0  0  0
    7.0230    0.7895   -1.2356 C   0  0  0  0  0  0  0  0  0  0  0  0
    3.9585   -0.1832    0.5778 C   0  0  0  0  0  0  0  0  0  0  0  0
    4.2129    0.2658    1.6994 O   0  0  0  0  0  0  0  0  0  0  0  0
   -0.1875   -1.1510    2.9222 C   0  0  0  0  0  0  0  0  0  0  0  0
   -1.4882   -0.8939    2.6847 C   0  0  0  0  0  0  0  0  0  0  0  0
   -2.5949   -1.1081    3.6618 C   0  0  0  0  0  0  0  0  0  0  0  0
   -1.6841   -0.4257    1.3655 N   0  0  0  0  0  0  0  0  0  0  0  0
   -2.9023   -0.2582    0.7594 C   0  0  0  0  0  0  0  0  0  0  0  0
   -3.9583    1.0374    1.1815 S   0  0  0  0  0  0  0  0  0  0  0  0
   -5.1202    0.5638    0.0380 C   0  0  0  0  0  0  0  0  0  0  0  0
   -4.7438   -0.5577   -0.6743 C   0  0  0  0  0  0  0  0  0  0  0  0
   -3.4617   -1.0347   -0.2463 C   0  0  0  0  0  0  0  0  0  0  0  0
   -2.8104   -2.2028   -0.7659 C   0  0  0  0  0  0  0  0  0  0  0  0
   -2.2847   -3.1490   -1.1858 N   0  0  0  0  0  0  0  0  0  0  0  0
   -5.6314   -1.1633   -1.7246 C   0  0  0  0  0  0  0  0  0  0  0  0
   -6.7349   -0.1910   -2.1704 C   0  0  0  0  0  0  0  0  0  0  0  0
   -7.3992    0.5006   -0.9716 C   0  0  0  0  0  0  0  0  0  0  0  0
   -6.3904    1.3323   -0.1647 C   0  0  0  0  0  0  0  0  0  0  0  0
    0.8186    0.3001   -0.8930 H   0  0  0  0  0  0  0  0  0  0  0  0
   -0.9735    0.6161   -1.0915 H   0  0  0  0  0  0  0  0  0  0  0  0
    2.3679   -1.5227    2.4836 H   0  0  0  0  0  0  0  0  0  0  0  0
    0.9964   -2.7017   -0.2476 H   0  0  0  0  0  0  0  0  0  0  0  0
    3.3608   -2.1720   -2.5322 H   0  0  0  0  0  0  0  0  0  0  0  0
    4.8332    2.3586    0.8449 H   0  0  0  0  0  0  0  0  0  0  0  0
    6.6630    3.9603    0.9526 H   0  0  0  0  0  0  0  0  0  0  0  0
    8.9743    1.5470   -1.7510 H   0  0  0  0  0  0  0  0  0  0  0  0
    7.1891   -0.0992   -1.8400 H   0  0  0  0  0  0  0  0  0  0  0  0
    0.2386   -1.5306    3.8375 H   0  0  0  0  0  0  0  0  0  0  0  0
   -3.0603   -0.1568    3.9361 H   0  0  0  0  0  0  0  0  0  0  0  0
   -2.2267   -1.5707    4.5840 H   0  0  0  0  0  0  0  0  0  0  0  0
   -3.3600   -1.7711    3.2460 H   0  0  0  0  0  0  0  0  0  0  0  0
   -5.0420   -1.4649   -2.5978 H   0  0  0  0  0  0  0  0  0  0  0  0
   -6.0920   -2.0685   -1.3099 H   0  0  0  0  0  0  0  0  0  0  0  0
   -6.3058    0.5726   -2.8317 H   0  0  0  0  0  0  0  0  0  0  0  0
   -7.4866   -0.7343   -2.7535 H   0  0  0  0  0  0  0  0  0  0  0  0
   -7.8495   -0.2618   -0.3228 H   0  0  0  0  0  0  0  0  0  0  0  0
   -8.2132    1.1483   -1.3162 H   0  0  0  0  0  0  0  0  0  0  0  0
   -6.8376    1.6168    0.7946 H   0  0  0  0  0  0  0  0  0  0  0  0
   -6.1621    2.2554   -0.7117 H   0  0  0  0  0  0  0  0  0  0  0  0
  1  2  2  0
  2  3  1  0
  3  4  2  3
  4  5  1  0
  5  6  2  0
  6  7  1  0
  6  8  1  0
  8  9  1  0
  9 10  2  0
  9 11  1  0
 11 12  1  0
 12 13  2  0
 13 14  1  0
 14 15  2  0
 15 16  1  0
 15 17  1  0
 17 18  2  0
 11 19  1  0
 19 20  2  0
  3 21  1  0
 21 22  2  0
 22 23  1  0
 22 24  1  0
 24 25  1  0
 25 26  1  0
 26 27  1  0
 27 28  2  0
 28 29  1  0
 29 30  1  0
 30 31  3  0
 28 32  1  0
 32 33  1  0
 33 34  1  0
 34 35  1  0
 24  2  1  0
 29 25  2  0
 19  5  1  0
 35 27  1  0
 18 12  1  0
  1 36  1  0
  1 37  1  0
  4 38  1  0
  7 39  1  0
  8 40  1  0
 13 41  1  0
 14 42  1  0
 17 43  1  0
 18 44  1  0
 21 45  1  0
 23 46  1  0
 23 47  1  0
 23 48  1  0
 32 49  1  0
 32 50  1  0
 33 51  1  0
 33 52  1  0
 34 53  1  0
 34 54  1  0
 35 55  1  0
 35 56  1  0
M  END
$$$$
