
     RDKit          3D

 68 69  0  0  0  0  0  0  0  0999 V2000
    9.6734    1.2851   -0.9679 C   0  0  0  0  0  0  0  0  0  0  0  0
    8.8292    0.6442   -2.0601 C   0  0  0  0  0  0  0  0  0  0  0  0
    7.4039    0.3106   -1.6126 C   0  0  0  0  0  0  0  0  0  0  0  0
    7.3543   -0.7863   -0.5437 C   0  0  0  0  0  0  0  0  0  0  0  0
    5.9332   -1.2609   -0.2341 C   0  0  0  0  0  0  0  0  0  0  0  0
    5.0676   -0.2052    0.4475 C   0  0  0  0  0  0  0  0  0  0  0  0
    3.8160   -0.7989    0.8485 O   0  0  0  0  0  0  0  0  0  0  0  0
    2.8190   -0.7829   -0.0752 C   0  0  0  0  0  0  0  0  0  0  0  0
    2.8729   -0.2510   -1.1756 O   0  0  0  0  0  0  0  0  0  0  0  0
    1.5891   -1.5101    0.4583 C   0  0  0  0  0  0  0  0  0  0  0  0
    0.3407   -0.6318    0.8355 N   0  0  0  0  0  4  0  0  0  0  0  0
   -0.1487    0.1048   -0.4122 C   0  0  0  0  0  0  0  0  0  0  0  0
    0.7365    0.3736    1.9029 C   0  0  0  0  0  0  0  0  0  0  0  0
   -0.7388   -1.6174    1.3626 C   0  0  0  0  0  0  0  0  0  0  0  0
   -2.0925   -1.0049    1.7692 C   0  0  0  0  0  0  0  0  0  0  0  0
   -2.7233   -0.4073    0.6399 O   0  0  0  0  0  0  0  0  0  0  0  0
   -4.1455   -0.5221    0.6292 C   0  0  0  0  0  0  0  0  0  0  0  0
   -4.8650    0.1725    1.8071 C   0  0  0  0  0  0  0  0  0  0  0  0
   -5.8554    1.1276    1.0942 C   0  0  0  0  0  0  0  0  0  0  0  0
   -5.0070    2.3064    0.5712 C   0  0  0  0  0  0  0  0  0  0  0  0
   -4.2388    1.6771   -0.6050 C   0  0  0  0  0  0  0  0  0  0  0  0
   -4.7547    0.2067   -0.6093 C   0  0  0  0  0  0  0  0  0  0  0  0
   -4.4618   -0.5032   -1.9185 C   0  0  0  0  0  0  0  0  0  0  0  0
   -6.2498    0.3660   -0.2002 C   0  0  0  0  0  0  0  0  0  0  0  0
   -7.1144    1.1851   -1.1824 C   0  0  0  0  0  0  0  0  0  0  0  0
   -7.0189   -0.9472    0.0494 C   0  0  0  0  0  0  0  0  0  0  0  0
    9.1853    2.1819   -0.5706 H   0  0  0  0  0  0  0  0  0  0  0  0
   10.6482    1.5796   -1.3688 H   0  0  0  0  0  0  0  0  0  0  0  0
    9.8534    0.5902   -0.1406 H   0  0  0  0  0  0  0  0  0  0  0  0
    8.7712    1.3369   -2.9087 H   0  0  0  0  0  0  0  0  0  0  0  0
    9.3295   -0.2626   -2.4216 H   0  0  0  0  0  0  0  0  0  0  0  0
    6.9191    1.2241   -1.2478 H   0  0  0  0  0  0  0  0  0  0  0  0
    6.8366   -0.0200   -2.4933 H   0  0  0  0  0  0  0  0  0  0  0  0
    7.8305   -0.4380    0.3809 H   0  0  0  0  0  0  0  0  0  0  0  0
    7.9338   -1.6505   -0.8899 H   0  0  0  0  0  0  0  0  0  0  0  0
    5.9898   -2.1430    0.4195 H   0  0  0  0  0  0  0  0  0  0  0  0
    5.4457   -1.6101   -1.1533 H   0  0  0  0  0  0  0  0  0  0  0  0
    4.8970    0.6693   -0.1892 H   0  0  0  0  0  0  0  0  0  0  0  0
    5.5534    0.1477    1.3627 H   0  0  0  0  0  0  0  0  0  0  0  0
    1.2627   -2.2262   -0.3051 H   0  0  0  0  0  0  0  0  0  0  0  0
    1.8579   -2.0813    1.3571 H   0  0  0  0  0  0  0  0  0  0  0  0
    0.6805    0.6691   -0.8397 H   0  0  0  0  0  0  0  0  0  0  0  0
   -0.5244   -0.6334   -1.1233 H   0  0  0  0  0  0  0  0  0  0  0  0
   -0.9183    0.8232   -0.1222 H   0  0  0  0  0  0  0  0  0  0  0  0
    1.5142    1.0269    1.4995 H   0  0  0  0  0  0  0  0  0  0  0  0
    1.1139   -0.1815    2.7676 H   0  0  0  0  0  0  0  0  0  0  0  0
   -0.1369    0.9724    2.1712 H   0  0  0  0  0  0  0  0  0  0  0  0
   -0.8935   -2.3485    0.5610 H   0  0  0  0  0  0  0  0  0  0  0  0
   -0.2972   -2.1252    2.2268 H   0  0  0  0  0  0  0  0  0  0  0  0
   -2.7169   -1.8111    2.1749 H   0  0  0  0  0  0  0  0  0  0  0  0
   -1.9700   -0.2498    2.5511 H   0  0  0  0  0  0  0  0  0  0  0  0
   -4.3912   -1.5912    0.6029 H   0  0  0  0  0  0  0  0  0  0  0  0
   -5.4110   -0.5650    2.4066 H   0  0  0  0  0  0  0  0  0  0  0  0
   -4.1886    0.7093    2.4815 H   0  0  0  0  0  0  0  0  0  0  0  0
   -6.6847    1.4417    1.7325 H   0  0  0  0  0  0  0  0  0  0  0  0
   -5.6367    3.1348    0.2303 H   0  0  0  0  0  0  0  0  0  0  0  0
   -4.3272    2.7049    1.3320 H   0  0  0  0  0  0  0  0  0  0  0  0
   -4.4708    2.1992   -1.5406 H   0  0  0  0  0  0  0  0  0  0  0  0
   -3.1565    1.7549   -0.4643 H   0  0  0  0  0  0  0  0  0  0  0  0
   -3.3836   -0.5434   -2.1114 H   0  0  0  0  0  0  0  0  0  0  0  0
   -4.9295    0.0113   -2.7643 H   0  0  0  0  0  0  0  0  0  0  0  0
   -4.8345   -1.5338   -1.9052 H   0  0  0  0  0  0  0  0  0  0  0  0
   -8.0913    1.4085   -0.7352 H   0  0  0  0  0  0  0  0  0  0  0  0
   -7.2918    0.6192   -2.1063 H   0  0  0  0  0  0  0  0  0  0  0  0
   -6.6800    2.1411   -1.4837 H   0  0  0  0  0  0  0  0  0  0  0  0
   -8.0294   -0.7339    0.4191 H   0  0  0  0  0  0  0  0  0  0  0  0
   -6.5592   -1.6141    0.7829 H   0  0  0  0  0  0  0  0  0  0  0  0
   -7.1209   -1.5146   -0.8833 H   0  0  0  0  0  0  0  0  0  0  0  0
  1  2  1  0
  2  3  1  0
  3  4  1  0
  4  5  1  0
  5  6  1  0
  6  7  1  0
  7  8  1  0
  8  9  2  0
  8 10  1  0
 10 11  1  0
 11 12  1  0
 11 13  1  0
 11 14  1  0
 14 15  1  0
 15 16  1  0
 16 17  1  0
 17 18  1  0
 18 19  1  0
 19 20  1  0
 20 21  1  0
 21 22  1  0
 22 23  1  0
 22 24  1  0
 24 25  1  0
 24 26  1  0
 22 17  1  0
 24 19  1  0
  1 27  1  0
  1 28  1  0
  1 29  1  0
  2 30  1  0
  2 31  1  0
  3 32  1  0
  3 33  1  0
  4 34  1  0
  4 35  1  0
  5 36  1  0
  5 37  1  0
  6 38  1  0
  6 39  1  0
 10 40  1  0
 10 41  1  0
 12 42  1  0
 12 43  1  0
 12 44  1  0
 13 45  1  0
 13 46  1  0
 13 47  1  0
 14 48  1  0
 14 49  1  0
 15 50  1  0
 15 51  1  0
 17 52  1  0
 18 53  1  0
 18 54  1  0
 19 55  1  0
 20 56  1  0
 20 57  1  0
 21 58  1  0
 21 59  1  0
 23 60  1  0
 23 61  1  0
 23 62  1  0
 25 63  1  0
 25 64  1  0
 25 65  1  0
 26 66  1  0
 26 67  1  0
 26 68  1  0
M  CHG  1  11   1
M  END
$$$$
