
     RDKit          3D

 39 41  0  0  0  0  0  0  0  0999 V2000
    0.0204   -0.0926    2.9933 S   0  0  0  0  0  0  0  0  0  0  0  0
    0.0715   -0.4432    1.3471 C   0  0  0  0  0  0  0  0  0  0  0  0
    1.2480   -0.7224    0.6780 N   0  0  0  0  0  0  0  0  0  0  0  0
    2.6065   -0.6851    1.2276 C   0  0  0  0  0  0  0  0  0  0  0  0
    3.2132    0.7235    1.1247 C   0  0  0  0  0  0  0  0  0  0  0  0
    4.5983    0.8124    1.7502 C   0  0  0  0  0  0  0  0  0  0  0  0
    5.5138    0.5412    0.5829 C   0  0  0  0  0  0  0  0  0  0  0  0
    4.7733    1.2089   -0.5526 C   0  0  0  0  0  0  0  0  0  0  0  0
    3.3756    1.0449   -0.2786 O   0  0  0  0  0  0  0  0  0  0  0  0
   -1.0691   -0.5119    0.5272 N   0  0  0  0  0  0  0  0  0  0  0  0
   -1.0442   -1.0869   -0.8282 C   0  0  0  0  0  0  0  0  0  0  0  0
   -2.3582   -1.7524   -1.2326 C   0  0  0  0  0  0  0  0  0  0  0  0
   -3.4853   -0.7702   -1.1076 C   0  0  0  0  0  0  0  0  0  0  0  0
   -4.5655   -0.7792   -1.9972 C   0  0  0  0  0  0  0  0  0  0  0  0
   -5.6036    0.1390   -1.8451 C   0  0  0  0  0  0  0  0  0  0  0  0
   -5.5734    1.0588   -0.7990 C   0  0  0  0  0  0  0  0  0  0  0  0
   -4.5062    1.0594    0.1000 C   0  0  0  0  0  0  0  0  0  0  0  0
   -3.4506    0.1488   -0.0489 C   0  0  0  0  0  0  0  0  0  0  0  0
   -2.3340    0.1110    0.9686 C   0  0  0  0  0  0  0  0  0  0  0  0
    1.2371   -0.4851   -0.3046 H   0  0  0  0  0  0  0  0  0  0  0  0
    3.1836   -1.3922    0.6213 H   0  0  0  0  0  0  0  0  0  0  0  0
    2.6047   -1.0444    2.2604 H   0  0  0  0  0  0  0  0  0  0  0  0
    2.5400    1.4654    1.5667 H   0  0  0  0  0  0  0  0  0  0  0  0
    4.7501    0.1315    2.5925 H   0  0  0  0  0  0  0  0  0  0  0  0
    4.7694    1.8337    2.1126 H   0  0  0  0  0  0  0  0  0  0  0  0
    6.5258    0.9309    0.7198 H   0  0  0  0  0  0  0  0  0  0  0  0
    5.5818   -0.5383    0.4053 H   0  0  0  0  0  0  0  0  0  0  0  0
    5.0118    0.7726   -1.5263 H   0  0  0  0  0  0  0  0  0  0  0  0
    4.9850    2.2830   -0.5881 H   0  0  0  0  0  0  0  0  0  0  0  0
   -0.8001   -0.2666   -1.5152 H   0  0  0  0  0  0  0  0  0  0  0  0
   -0.2485   -1.8354   -0.9045 H   0  0  0  0  0  0  0  0  0  0  0  0
   -2.5665   -2.6139   -0.5869 H   0  0  0  0  0  0  0  0  0  0  0  0
   -2.2740   -2.1141   -2.2638 H   0  0  0  0  0  0  0  0  0  0  0  0
   -4.6036   -1.4979   -2.8120 H   0  0  0  0  0  0  0  0  0  0  0  0
   -6.4395    0.1339   -2.5397 H   0  0  0  0  0  0  0  0  0  0  0  0
   -6.3861    1.7701   -0.6773 H   0  0  0  0  0  0  0  0  0  0  0  0
   -4.5050    1.7710    0.9230 H   0  0  0  0  0  0  0  0  0  0  0  0
   -2.1021    1.1375    1.2783 H   0  0  0  0  0  0  0  0  0  0  0  0
   -2.6947   -0.4456    1.8420 H   0  0  0  0  0  0  0  0  0  0  0  0
  1  2  2  0
  2  3  1  0
  3  4  1  0
  4  5  1  0
  5  6  1  0
  6  7  1  0
  7  8  1  0
  8  9  1  0
  2 10  1  0
 10 11  1  0
 11 12  1  0
 12 13  1  0
 13 14  2  0
 14 15  1  0
 15 16  2  0
 16 17  1  0
 17 18  2  0
 18 19  1  0
  9  5  1  0
 19 10  1  0
 18 13  1  0
  3 20  1  0
  4 21  1  0
  4 22  1  0
  5 23  1  0
  6 24  1  0
  6 25  1  0
  7 26  1  0
  7 27  1  0
  8 28  1  0
  8 29  1  0
 11 30  1  0
 11 31  1  0
 12 32  1  0
 12 33  1  0
 14 34  1  0
 15 35  1  0
 16 36  1  0
 17 37  1  0
 19 38  1  0
 19 39  1  0
M  END
$$$$
