
     RDKit          3D

 54 57  0  0  0  0  0  0  0  0999 V2000
    8.5317   -0.7104    0.8907 C   0  0  0  0  0  0  0  0  0  0  0  0
    7.2037   -0.2265    0.7402 O   0  0  0  0  0  0  0  0  0  0  0  0
    6.1926   -1.1461    0.8160 C   0  0  0  0  0  0  0  0  0  0  0  0
    6.3494   -2.5118    1.0484 C   0  0  0  0  0  0  0  0  0  0  0  0
    5.2288   -3.3403    1.1072 C   0  0  0  0  0  0  0  0  0  0  0  0
    3.9512   -2.8058    0.9324 C   0  0  0  0  0  0  0  0  0  0  0  0
    3.7777   -1.4373    0.6937 C   0  0  0  0  0  0  0  0  0  0  0  0
    2.4513   -0.9781    0.5345 N   0  0  0  0  0  0  0  0  0  0  0  0
    2.0383    0.3039    0.2231 C   0  0  0  0  0  0  0  0  0  0  0  0
    2.7617    1.2528   -0.0605 O   0  0  0  0  0  0  0  0  0  0  0  0
    0.5542    0.4803    0.1640 C   0  0  0  0  0  0  0  0  0  0  0  0
   -0.2717   -0.1674    1.0039 C   0  0  0  0  0  0  0  0  0  0  0  0
   -1.7196   -0.0230    0.9581 C   0  0  0  0  0  0  0  0  0  0  0  0
   -2.5596   -0.8180    1.8985 C   0  0  0  0  0  0  0  0  0  0  0  0
   -2.0190   -1.6011    2.6836 O   0  0  0  0  0  0  0  0  0  0  0  0
   -3.9252   -0.6231    1.8097 N   0  0  0  0  0  0  0  0  0  0  0  0
   -4.7756   -1.3174    2.6638 C   0  0  0  0  0  0  0  0  0  0  0  0
   -6.1050   -1.1701    2.6072 C   0  0  0  0  0  0  0  0  0  0  0  0
   -6.6854   -0.2756    1.6418 C   0  0  0  0  0  0  0  0  0  0  0  0
   -5.9042    0.4105    0.7993 C   0  0  0  0  0  0  0  0  0  0  0  0
   -4.4237    0.2492    0.8607 C   0  0  0  0  0  0  0  0  0  0  0  0
   -3.6936    0.9235    0.0330 N   0  0  0  0  0  0  0  0  0  0  0  0
   -2.3230    0.8005    0.0713 C   0  0  0  0  0  0  0  0  0  0  0  0
   -1.5091    1.5361   -0.8234 N   0  0  0  0  0  0  0  0  0  0  0  0
   -2.1290    2.4577   -1.7974 C   0  0  0  0  0  0  0  0  0  0  0  0
   -2.1769    1.8537   -3.2157 C   0  0  0  0  0  0  0  0  0  0  0  0
   -2.6060    2.9268   -4.2195 C   0  0  0  0  0  0  0  0  0  0  0  0
   -3.1246    0.6561   -3.3069 C   0  0  0  0  0  0  0  0  0  0  0  0
   -0.1078    1.4534   -0.7830 C   0  0  0  0  0  0  0  0  0  0  0  0
    0.6151    2.2134   -1.5581 N   0  0  0  0  0  0  0  0  0  0  0  0
    4.9064   -0.6165    0.6411 C   0  0  0  0  0  0  0  0  0  0  0  0
    8.6825   -1.1463    1.8838 H   0  0  0  0  0  0  0  0  0  0  0  0
    8.7831   -1.4266    0.1015 H   0  0  0  0  0  0  0  0  0  0  0  0
    9.2111    0.1420    0.7951 H   0  0  0  0  0  0  0  0  0  0  0  0
    7.3266   -2.9608    1.1895 H   0  0  0  0  0  0  0  0  0  0  0  0
    5.3514   -4.4049    1.2902 H   0  0  0  0  0  0  0  0  0  0  0  0
    3.0980   -3.4771    0.9848 H   0  0  0  0  0  0  0  0  0  0  0  0
    1.7396   -1.6934    0.6028 H   0  0  0  0  0  0  0  0  0  0  0  0
    0.1164   -0.8268    1.7760 H   0  0  0  0  0  0  0  0  0  0  0  0
   -4.3146   -1.9884    3.3846 H   0  0  0  0  0  0  0  0  0  0  0  0
   -6.7613   -1.7151    3.2782 H   0  0  0  0  0  0  0  0  0  0  0  0
   -7.7654   -0.1716    1.6138 H   0  0  0  0  0  0  0  0  0  0  0  0
   -6.3005    1.0934    0.0582 H   0  0  0  0  0  0  0  0  0  0  0  0
   -1.5664    3.4006   -1.8116 H   0  0  0  0  0  0  0  0  0  0  0  0
   -3.1395    2.7512   -1.4857 H   0  0  0  0  0  0  0  0  0  0  0  0
   -1.1759    1.5104   -3.5035 H   0  0  0  0  0  0  0  0  0  0  0  0
   -1.9112    3.7732   -4.2048 H   0  0  0  0  0  0  0  0  0  0  0  0
   -2.6183    2.5248   -5.2382 H   0  0  0  0  0  0  0  0  0  0  0  0
   -3.6083    3.3057   -3.9923 H   0  0  0  0  0  0  0  0  0  0  0  0
   -3.1784    0.2823   -4.3352 H   0  0  0  0  0  0  0  0  0  0  0  0
   -4.1389    0.9258   -2.9941 H   0  0  0  0  0  0  0  0  0  0  0  0
   -2.7799   -0.1717   -2.6797 H   0  0  0  0  0  0  0  0  0  0  0  0
    1.6227    2.0715   -1.3694 H   0  0  0  0  0  0  0  0  0  0  0  0
    4.8239    0.4522    0.4685 H   0  0  0  0  0  0  0  0  0  0  0  0
  1  2  1  0
  2  3  1  0
  3  4  2  0
  4  5  1  0
  5  6  2  0
  6  7  1  0
  7  8  1  0
  8  9  1  0
  9 10  2  0
  9 11  1  0
 11 12  2  0
 12 13  1  0
 13 14  1  0
 14 15  2  0
 14 16  1  0
 16 17  1  0
 17 18  2  0
 18 19  1  0
 19 20  2  0
 20 21  1  0
 21 22  2  0
 22 23  1  0
 23 24  1  0
 24 25  1  0
 25 26  1  0
 26 27  1  0
 26 28  1  0
 24 29  1  0
 29 30  2  3
  7 31  2  0
 31  3  1  0
 29 11  1  0
 23 13  2  0
 21 16  1  0
  1 32  1  0
  1 33  1  0
  1 34  1  0
  4 35  1  0
  5 36  1  0
  6 37  1  0
  8 38  1  0
 12 39  1  0
 17 40  1  0
 18 41  1  0
 19 42  1  0
 20 43  1  0
 25 44  1  0
 25 45  1  0
 26 46  1  0
 27 47  1  0
 27 48  1  0
 27 49  1  0
 28 50  1  0
 28 51  1  0
 28 52  1  0
 30 53  1  0
 31 54  1  0
M  END
$$$$
