
     RDKit          3D

 42 44  0  0  0  0  0  0  0  0999 V2000
   -2.1866   -1.3221    2.7482 O   0  0  0  0  0  0  0  0  0  0  0  0
   -2.3072   -0.5645    1.7785 C   0  0  0  0  0  0  0  0  0  0  0  0
   -3.5609   -0.6918    0.8809 C   0  0  0  0  0  0  0  0  0  0  0  0
   -3.3048   -1.6492   -0.2742 C   0  0  0  0  0  0  0  0  0  0  0  0
   -4.4068   -1.2831   -1.2342 C   0  0  0  0  0  0  0  0  0  0  0  0
   -4.5086    0.2132   -1.0451 C   0  0  0  0  0  0  0  0  0  0  0  0
   -4.1175    0.4944    0.3073 O   0  0  0  0  0  0  0  0  0  0  0  0
   -1.3037    0.3282    1.4386 N   0  0  0  0  0  0  0  0  0  0  0  0
   -0.0596    0.3443    2.2082 C   0  0  0  0  0  0  0  0  0  0  0  0
    1.1631    0.2893    1.2812 C   0  0  0  0  0  0  0  0  0  0  0  0
    1.1143    1.3070    0.1701 N   0  0  0  0  0  0  0  0  0  0  0  0
    1.4711    0.7012   -1.3891 S   0  0  0  0  0  6  0  0  0  0  0  0
    1.5166    1.8205   -2.3055 O   0  0  0  0  0  0  0  0  0  0  0  0
    0.5900   -0.4224   -1.6316 O   0  0  0  0  0  0  0  0  0  0  0  0
    3.1296    0.1006   -1.1996 C   0  0  0  0  0  0  0  0  0  0  0  0
    3.3977   -1.2672   -1.2985 C   0  0  0  0  0  0  0  0  0  0  0  0
    4.7084   -1.7192   -1.1456 C   0  0  0  0  0  0  0  0  0  0  0  0
    5.7387   -0.8084   -0.9018 C   0  0  0  0  0  0  0  0  0  0  0  0
    5.4653    0.5580   -0.8129 C   0  0  0  0  0  0  0  0  0  0  0  0
    4.1580    1.0184   -0.9642 C   0  0  0  0  0  0  0  0  0  0  0  0
   -0.1167    2.1585    0.2102 C   0  0  0  0  0  0  0  0  0  0  0  0
   -1.3915    1.3148    0.3581 C   0  0  0  0  0  0  0  0  0  0  0  0
   -4.3525   -1.1012    1.5229 H   0  0  0  0  0  0  0  0  0  0  0  0
   -3.3355   -2.6984    0.0346 H   0  0  0  0  0  0  0  0  0  0  0  0
   -2.3269   -1.4684   -0.7351 H   0  0  0  0  0  0  0  0  0  0  0  0
   -5.3425   -1.7627   -0.9234 H   0  0  0  0  0  0  0  0  0  0  0  0
   -4.2038   -1.5711   -2.2689 H   0  0  0  0  0  0  0  0  0  0  0  0
   -5.5203    0.5898   -1.2202 H   0  0  0  0  0  0  0  0  0  0  0  0
   -3.8211    0.7451   -1.7109 H   0  0  0  0  0  0  0  0  0  0  0  0
   -0.0551    1.2665    2.8015 H   0  0  0  0  0  0  0  0  0  0  0  0
   -0.0139   -0.4897    2.9158 H   0  0  0  0  0  0  0  0  0  0  0  0
    2.0754    0.4652    1.8615 H   0  0  0  0  0  0  0  0  0  0  0  0
    1.2288   -0.7236    0.8690 H   0  0  0  0  0  0  0  0  0  0  0  0
    2.6006   -1.9806   -1.4947 H   0  0  0  0  0  0  0  0  0  0  0  0
    4.9297   -2.7813   -1.2211 H   0  0  0  0  0  0  0  0  0  0  0  0
    6.7600   -1.1646   -0.7869 H   0  0  0  0  0  0  0  0  0  0  0  0
    6.2729    1.2630   -0.6306 H   0  0  0  0  0  0  0  0  0  0  0  0
    3.9441    2.0831   -0.9013 H   0  0  0  0  0  0  0  0  0  0  0  0
   -0.0147    2.8446    1.0607 H   0  0  0  0  0  0  0  0  0  0  0  0
   -0.1845    2.7985   -0.6755 H   0  0  0  0  0  0  0  0  0  0  0  0
   -1.5980    0.7820   -0.5736 H   0  0  0  0  0  0  0  0  0  0  0  0
   -2.2316    1.9832    0.5698 H   0  0  0  0  0  0  0  0  0  0  0  0
  1  2  2  0
  2  3  1  0
  3  4  1  0
  4  5  1  0
  5  6  1  0
  6  7  1  0
  2  8  1  0
  8  9  1  0
  9 10  1  0
 10 11  1  0
 11 12  1  0
 12 13  2  0
 12 14  2  0
 12 15  1  0
 15 16  2  0
 16 17  1  0
 17 18  2  0
 18 19  1  0
 19 20  2  0
 11 21  1  0
 21 22  1  0
  7  3  1  0
 22  8  1  0
 20 15  1  0
  3 23  1  0
  4 24  1  0
  4 25  1  0
  5 26  1  0
  5 27  1  0
  6 28  1  0
  6 29  1  0
  9 30  1  0
  9 31  1  0
 10 32  1  0
 10 33  1  0
 16 34  1  0
 17 35  1  0
 18 36  1  0
 19 37  1  0
 20 38  1  0
 21 39  1  0
 21 40  1  0
 22 41  1  0
 22 42  1  0
M  END
$$$$
