
     RDKit          3D

 36 38  0  0  0  0  0  0  0  0999 V2000
    3.9970   -0.3341    2.5062 C   0  0  0  0  0  0  0  0  0  0  0  0
    3.2087   -0.1552    1.2413 C   0  0  0  0  0  0  0  0  0  0  0  0
    2.7491   -1.2718    0.5303 C   0  0  0  0  0  0  0  0  0  0  0  0
    1.9945   -1.1083   -0.6324 C   0  0  0  0  0  0  0  0  0  0  0  0
    1.6717    0.1793   -1.0707 C   0  0  0  0  0  0  0  0  0  0  0  0
    0.7162    0.3875   -2.5594 S   0  0  0  0  0  6  0  0  0  0  0  0
    0.8893   -0.8100   -3.3531 O   0  0  0  0  0  0  0  0  0  0  0  0
    1.0210    1.6965   -3.0951 O   0  0  0  0  0  0  0  0  0  0  0  0
   -0.8749    0.4146   -1.9979 N   0  0  0  0  0  0  0  0  0  0  0  0
   -1.3538    1.6771   -1.3682 C   0  0  0  0  0  0  0  0  0  0  0  0
   -2.4563    1.5645   -0.3201 C   0  0  0  0  0  0  0  0  0  0  0  0
   -3.2308    2.4915   -0.0887 O   0  0  0  0  0  0  0  0  0  0  0  0
   -2.5060    0.3844    0.3783 N   0  0  0  0  0  0  0  0  0  0  0  0
   -3.5872   -0.0021    1.2401 C   0  0  0  0  0  0  0  0  0  0  0  0
   -3.1659   -1.3881    1.6741 C   0  0  0  0  0  0  0  0  0  0  0  0
   -2.3787   -1.8836    0.5704 O   0  0  0  0  0  0  0  0  0  0  0  0
   -1.6832   -0.7436    0.0465 C   0  0  0  0  0  0  0  0  0  0  0  0
   -1.4602   -0.8449   -1.4639 C   0  0  0  0  0  0  0  0  0  0  0  0
    2.1384    1.3008   -0.3809 C   0  0  0  0  0  0  0  0  0  0  0  0
    2.8926    1.1303    0.7812 C   0  0  0  0  0  0  0  0  0  0  0  0
    4.5881   -1.2553    2.4713 H   0  0  0  0  0  0  0  0  0  0  0  0
    4.6971    0.4953    2.6509 H   0  0  0  0  0  0  0  0  0  0  0  0
    3.3199   -0.3801    3.3647 H   0  0  0  0  0  0  0  0  0  0  0  0
    2.9891   -2.2768    0.8727 H   0  0  0  0  0  0  0  0  0  0  0  0
    1.6705   -1.9858   -1.1881 H   0  0  0  0  0  0  0  0  0  0  0  0
   -1.7387    2.3115   -2.1752 H   0  0  0  0  0  0  0  0  0  0  0  0
   -0.5300    2.2062   -0.8808 H   0  0  0  0  0  0  0  0  0  0  0  0
   -3.7215    0.7029    2.0645 H   0  0  0  0  0  0  0  0  0  0  0  0
   -4.5024   -0.0326    0.6389 H   0  0  0  0  0  0  0  0  0  0  0  0
   -4.0099   -2.0554    1.8662 H   0  0  0  0  0  0  0  0  0  0  0  0
   -2.5228   -1.3558    2.5608 H   0  0  0  0  0  0  0  0  0  0  0  0
   -0.7349   -0.6355    0.5844 H   0  0  0  0  0  0  0  0  0  0  0  0
   -0.8451   -1.7203   -1.6934 H   0  0  0  0  0  0  0  0  0  0  0  0
   -2.4146   -1.0168   -1.9779 H   0  0  0  0  0  0  0  0  0  0  0  0
    1.9285    2.3060   -0.7401 H   0  0  0  0  0  0  0  0  0  0  0  0
    3.2452    2.0077    1.3205 H   0  0  0  0  0  0  0  0  0  0  0  0
  1  2  1  0
  2  3  2  0
  3  4  1  0
  4  5  2  0
  5  6  1  0
  6  7  2  0
  6  8  2  0
  6  9  1  0
  9 10  1  0
 10 11  1  0
 11 12  2  0
 11 13  1  0
 13 14  1  0
 14 15  1  0
 15 16  1  0
 16 17  1  0
 17 18  1  0
  5 19  1  0
 19 20  2  0
 20  2  1  0
 18  9  1  0
 17 13  1  0
  1 21  1  0
  1 22  1  0
  1 23  1  0
  3 24  1  0
  4 25  1  0
 10 26  1  0
 10 27  1  0
 14 28  1  0
 14 29  1  0
 15 30  1  0
 15 31  1  0
 17 32  1  0
 18 33  1  0
 18 34  1  0
 19 35  1  0
 20 36  1  0
M  END
$$$$
