
     RDKit          3D

 42 45  0  0  0  0  0  0  0  0999 V2000
    1.9679   -0.1452   -2.1828 O   0  0  0  0  0  0  0  0  0  0  0  0
    0.8579   -0.1416   -1.6669 C   0  0  0  0  0  0  0  0  0  0  0  0
   -0.2560   -0.1977   -2.4510 N   0  0  0  0  0  0  0  0  0  0  0  0
   -1.4688   -0.6917   -2.0814 C   0  0  0  0  0  0  0  0  0  0  0  0
   -2.2831   -0.9866   -2.9542 O   0  0  0  0  0  0  0  0  0  0  0  0
   -1.6971   -0.8412   -0.7296 N   0  0  0  0  0  0  0  0  0  0  0  0
   -3.0076   -1.3337   -0.3034 C   0  0  0  0  0  0  0  0  0  0  0  0
   -3.9622   -0.2340    0.2015 C   0  0  0  0  0  0  0  0  0  0  0  0
   -4.3604    0.8000   -0.8435 C   0  0  0  0  0  0  0  0  0  0  0  0
   -5.5789    0.1788   -1.4774 C   0  0  0  0  0  0  0  0  0  0  0  0
   -6.2424   -0.4801   -0.2894 C   0  0  0  0  0  0  0  0  0  0  0  0
   -5.1943   -0.8700    0.6098 O   0  0  0  0  0  0  0  0  0  0  0  0
   -0.7747   -0.5306    0.2586 C   0  0  0  0  0  0  0  0  0  0  0  0
   -1.0505   -0.5732    1.4568 O   0  0  0  0  0  0  0  0  0  0  0  0
    0.5825   -0.1336   -0.2147 C   0  0  0  0  0  0  0  0  0  0  0  0
    1.4784    0.1922    0.7400 C   0  0  0  0  0  0  0  0  0  0  0  0
    2.8220    0.6587    0.6152 C   0  0  0  0  0  0  0  0  0  0  0  0
    3.2661    1.6355   -0.2472 C   0  0  0  0  0  0  0  0  0  0  0  0
    4.6097    1.8040   -0.0361 N   0  0  0  0  0  0  0  0  0  0  0  0
    5.0378    0.9939    0.9906 C   0  0  0  0  0  0  0  0  0  0  0  0
    6.3098    0.8555    1.5593 C   0  0  0  0  0  0  0  0  0  0  0  0
    6.4551   -0.0568    2.6083 C   0  0  0  0  0  0  0  0  0  0  0  0
    5.3711   -0.8010    3.0671 C   0  0  0  0  0  0  0  0  0  0  0  0
    4.1065   -0.6524    2.4857 C   0  0  0  0  0  0  0  0  0  0  0  0
    3.9308    0.2628    1.4257 C   0  0  0  0  0  0  0  0  0  0  0  0
   -0.0758   -0.2297   -3.4451 H   0  0  0  0  0  0  0  0  0  0  0  0
   -3.4836   -1.9030   -1.1108 H   0  0  0  0  0  0  0  0  0  0  0  0
   -2.8561   -2.0609    0.5056 H   0  0  0  0  0  0  0  0  0  0  0  0
   -3.5298    0.2612    1.0772 H   0  0  0  0  0  0  0  0  0  0  0  0
   -4.6575    1.7276   -0.3376 H   0  0  0  0  0  0  0  0  0  0  0  0
   -3.5770    1.0575   -1.5586 H   0  0  0  0  0  0  0  0  0  0  0  0
   -5.2772   -0.5782   -2.2101 H   0  0  0  0  0  0  0  0  0  0  0  0
   -6.2281    0.9004   -1.9802 H   0  0  0  0  0  0  0  0  0  0  0  0
   -6.8926    0.2230    0.2420 H   0  0  0  0  0  0  0  0  0  0  0  0
   -6.8323   -1.3571   -0.5699 H   0  0  0  0  0  0  0  0  0  0  0  0
    1.1633    0.0963    1.7803 H   0  0  0  0  0  0  0  0  0  0  0  0
    2.7596    2.2145   -1.0074 H   0  0  0  0  0  0  0  0  0  0  0  0
    5.2035    2.4404   -0.5491 H   0  0  0  0  0  0  0  0  0  0  0  0
    7.1569    1.4327    1.2036 H   0  0  0  0  0  0  0  0  0  0  0  0
    7.4304   -0.1876    3.0715 H   0  0  0  0  0  0  0  0  0  0  0  0
    5.5064   -1.5067    3.8831 H   0  0  0  0  0  0  0  0  0  0  0  0
    3.2705   -1.2424    2.8494 H   0  0  0  0  0  0  0  0  0  0  0  0
  1  2  2  0
  2  3  1  0
  3  4  1  0
  4  5  2  0
  4  6  1  0
  6  7  1  0
  7  8  1  0
  8  9  1  0
  9 10  1  0
 10 11  1  0
 11 12  1  0
  6 13  1  0
 13 14  2  0
 13 15  1  0
 15 16  2  3
 16 17  1  0
 17 18  2  0
 18 19  1  0
 19 20  1  0
 20 21  2  0
 21 22  1  0
 22 23  2  0
 23 24  1  0
 24 25  2  0
 15  2  1  0
 25 17  1  0
 12  8  1  0
 25 20  1  0
  3 26  1  0
  7 27  1  0
  7 28  1  0
  8 29  1  0
  9 30  1  0
  9 31  1  0
 10 32  1  0
 10 33  1  0
 11 34  1  0
 11 35  1  0
 16 36  1  0
 18 37  1  0
 19 38  1  0
 21 39  1  0
 22 40  1  0
 23 41  1  0
 24 42  1  0
M  END
$$$$
