
     RDKit          3D

 24 26  0  0  0  0  0  0  0  0999 V2000
   -3.3326    2.2737    0.5033 N   0  0  0  0  0  0  0  0  0  0  0  0
   -2.6337    1.0937    0.3679 C   0  0  0  0  0  0  0  0  0  0  0  0
   -3.3351   -0.0388    0.3421 N   0  0  0  0  0  0  0  0  0  0  0  0
   -2.6304   -1.1741    0.1969 C   0  0  0  0  0  0  0  0  0  0  0  0
   -1.2602   -1.2142    0.0510 C   0  0  0  0  0  0  0  0  0  0  0  0
   -0.6234    0.0143    0.0806 C   0  0  0  0  0  0  0  0  0  0  0  0
   -1.3093    1.1715    0.2324 N   0  0  0  0  0  0  0  0  0  0  0  0
    0.8420    0.1434   -0.0644 C   0  0  0  0  0  0  0  0  0  0  0  0
    1.5039    1.3283    0.3192 C   0  0  0  0  0  0  0  0  0  0  0  0
    2.8830    1.4689    0.1640 C   0  0  0  0  0  0  0  0  0  0  0  0
    3.6547    2.9293    0.6453 Cl  0  0  0  0  0  0  0  0  0  0  0  0
    3.6388    0.4376   -0.3804 C   0  0  0  0  0  0  0  0  0  0  0  0
    3.0095   -0.7441   -0.7690 C   0  0  0  0  0  0  0  0  0  0  0  0
    1.6243   -0.8994   -0.6062 C   0  0  0  0  0  0  0  0  0  0  0  0
    0.9024   -2.4437   -1.1539 S   0  0  0  0  0  0  0  0  0  0  0  0
   -0.5193   -2.5050   -0.0315 C   0  0  0  0  0  0  0  0  0  0  0  0
   -4.2833    2.1444    0.1872 H   0  0  0  0  0  0  0  0  0  0  0  0
   -2.8066    3.0328    0.0942 H   0  0  0  0  0  0  0  0  0  0  0  0
   -3.2291   -2.0811    0.2072 H   0  0  0  0  0  0  0  0  0  0  0  0
    0.9330    2.1534    0.7430 H   0  0  0  0  0  0  0  0  0  0  0  0
    4.7126    0.5462   -0.5080 H   0  0  0  0  0  0  0  0  0  0  0  0
    3.6082   -1.5443   -1.2000 H   0  0  0  0  0  0  0  0  0  0  0  0
   -0.1725   -2.7886    0.9687 H   0  0  0  0  0  0  0  0  0  0  0  0
   -1.1772   -3.3041   -0.3897 H   0  0  0  0  0  0  0  0  0  0  0  0
  1  2  1  0
  2  3  2  0
  3  4  1  0
  4  5  2  0
  5  6  1  0
  6  7  2  0
  6  8  1  0
  8  9  2  0
  9 10  1  0
 10 11  1  0
 10 12  2  0
 12 13  1  0
 13 14  2  0
 14 15  1  0
 15 16  1  0
  7  2  1  0
 14  8  1  0
 16  5  1  0
  1 17  1  0
  1 18  1  0
  4 19  1  0
  9 20  1  0
 12 21  1  0
 13 22  1  0
 16 23  1  0
 16 24  1  0
M  END
$$$$
