
     RDKit          3D

 57 59  0  0  0  0  0  0  0  0999 V2000
    7.0498    0.8146   -0.0384 C   0  0  0  0  0  0  0  0  0  0  0  0
    6.9794   -0.5255    0.6957 C   0  0  0  0  0  0  0  0  0  0  0  0
    7.5840   -1.6389   -0.1613 C   0  0  0  0  0  0  0  0  0  0  0  0
    5.5583   -0.8596    1.1885 C   0  0  0  0  0  0  0  0  0  0  0  0
    4.5320   -1.0349    0.1200 C   0  0  0  0  0  0  0  0  0  0  0  0
    3.6827   -0.0583   -0.4482 C   0  0  0  0  0  0  0  0  0  0  0  0
    2.9315   -0.7523   -1.3650 C   0  0  0  0  0  0  0  0  0  0  0  0
    1.8550   -0.3801   -2.3055 C   0  0  0  0  0  0  0  0  0  0  0  0
    0.5908   -0.4309   -1.6039 N   0  0  0  0  0  0  0  0  0  0  0  0
    0.0876    0.6693   -0.9461 C   0  0  0  0  0  0  0  0  0  0  0  0
    0.6079    1.7787   -1.0014 O   0  0  0  0  0  0  0  0  0  0  0  0
   -1.1779    0.3835   -0.1520 C   0  0  0  0  0  0  0  0  0  0  0  0
   -0.9136   -0.5980    1.0076 C   0  0  0  0  0  0  0  0  0  0  0  0
   -1.3924   -0.0848    2.3653 C   0  0  0  0  0  0  0  0  0  0  0  0
   -2.7806    0.5132    2.2674 C   0  0  0  0  0  0  0  0  0  0  0  0
   -3.6714    0.2251    3.0598 O   0  0  0  0  0  0  0  0  0  0  0  0
   -2.9271    1.4119    1.2232 N   0  0  0  0  0  0  0  0  0  0  0  0
   -4.2137    2.0396    0.9571 C   0  0  0  0  0  0  0  0  0  0  0  0
   -4.9223    1.3800   -0.2037 C   0  0  0  0  0  0  0  0  0  0  0  0
   -5.0194    2.0226   -1.4445 C   0  0  0  0  0  0  0  0  0  0  0  0
   -5.6601    1.3999   -2.5156 C   0  0  0  0  0  0  0  0  0  0  0  0
   -6.2071    0.1261   -2.3601 C   0  0  0  0  0  0  0  0  0  0  0  0
   -6.1150   -0.5428   -1.1311 C   0  0  0  0  0  0  0  0  0  0  0  0
   -6.7152   -1.9149   -0.9470 C   0  0  0  0  0  0  0  0  0  0  0  0
   -6.9510   -2.5613   -2.1241 F   0  0  0  0  0  0  0  0  0  0  0  0
   -5.9162   -2.7493   -0.2244 F   0  0  0  0  0  0  0  0  0  0  0  0
   -7.9101   -1.8788   -0.2960 F   0  0  0  0  0  0  0  0  0  0  0  0
   -5.4760    0.0979   -0.0572 C   0  0  0  0  0  0  0  0  0  0  0  0
   -1.7962    1.6897    0.3461 C   0  0  0  0  0  0  0  0  0  0  0  0
    3.2969   -2.0615   -1.3429 O   0  0  0  0  0  0  0  0  0  0  0  0
    4.2960   -2.2446   -0.4050 N   0  0  0  0  0  0  0  0  0  0  0  0
    6.5203    0.7837   -0.9958 H   0  0  0  0  0  0  0  0  0  0  0  0
    6.6157    1.6154    0.5692 H   0  0  0  0  0  0  0  0  0  0  0  0
    8.0913    1.0827   -0.2466 H   0  0  0  0  0  0  0  0  0  0  0  0
    7.6069   -0.4335    1.5926 H   0  0  0  0  0  0  0  0  0  0  0  0
    7.0696   -1.7379   -1.1225 H   0  0  0  0  0  0  0  0  0  0  0  0
    7.5327   -2.6019    0.3572 H   0  0  0  0  0  0  0  0  0  0  0  0
    8.6386   -1.4303   -0.3716 H   0  0  0  0  0  0  0  0  0  0  0  0
    5.2233   -0.0650    1.8682 H   0  0  0  0  0  0  0  0  0  0  0  0
    5.5992   -1.7720    1.7982 H   0  0  0  0  0  0  0  0  0  0  0  0
    3.6206    0.9966   -0.2235 H   0  0  0  0  0  0  0  0  0  0  0  0
    1.7977   -1.0873   -3.1389 H   0  0  0  0  0  0  0  0  0  0  0  0
    2.0227    0.6217   -2.7137 H   0  0  0  0  0  0  0  0  0  0  0  0
    0.2178   -1.3478   -1.3930 H   0  0  0  0  0  0  0  0  0  0  0  0
   -1.8902   -0.0870   -0.8448 H   0  0  0  0  0  0  0  0  0  0  0  0
   -1.4410   -1.5352    0.7844 H   0  0  0  0  0  0  0  0  0  0  0  0
    0.1484   -0.8595    1.0866 H   0  0  0  0  0  0  0  0  0  0  0  0
   -1.4101   -0.9104    3.0851 H   0  0  0  0  0  0  0  0  0  0  0  0
   -0.7126    0.6800    2.7579 H   0  0  0  0  0  0  0  0  0  0  0  0
   -4.8574    1.9833    1.8428 H   0  0  0  0  0  0  0  0  0  0  0  0
   -4.0409    3.1050    0.7640 H   0  0  0  0  0  0  0  0  0  0  0  0
   -4.5974    3.0155   -1.5852 H   0  0  0  0  0  0  0  0  0  0  0  0
   -5.7353    1.9095   -3.4735 H   0  0  0  0  0  0  0  0  0  0  0  0
   -6.7077   -0.3448   -3.2050 H   0  0  0  0  0  0  0  0  0  0  0  0
   -5.4064   -0.4081    0.9075 H   0  0  0  0  0  0  0  0  0  0  0  0
   -1.0745    2.2812    0.9236 H   0  0  0  0  0  0  0  0  0  0  0  0
   -2.1181    2.3104   -0.4978 H   0  0  0  0  0  0  0  0  0  0  0  0
  1  2  1  0
  2  3  1  0
  2  4  1  0
  4  5  1  0
  5  6  1  0
  6  7  2  0
  7  8  1  0
  8  9  1  0
  9 10  1  0
 10 11  2  0
 10 12  1  0
 12 13  1  0
 13 14  1  0
 14 15  1  0
 15 16  2  0
 15 17  1  0
 17 18  1  0
 18 19  1  0
 19 20  2  0
 20 21  1  0
 21 22  2  0
 22 23  1  0
 23 24  1  0
 24 25  1  0
 24 26  1  0
 24 27  1  0
 23 28  2  0
 17 29  1  0
  7 30  1  0
 30 31  1  0
 31  5  2  0
 29 12  1  0
 28 19  1  0
  1 32  1  0
  1 33  1  0
  1 34  1  0
  2 35  1  0
  3 36  1  0
  3 37  1  0
  3 38  1  0
  4 39  1  0
  4 40  1  0
  6 41  1  0
  8 42  1  0
  8 43  1  0
  9 44  1  0
 12 45  1  0
 13 46  1  0
 13 47  1  0
 14 48  1  0
 14 49  1  0
 18 50  1  0
 18 51  1  0
 20 52  1  0
 21 53  1  0
 22 54  1  0
 28 55  1  0
 29 56  1  0
 29 57  1  0
M  END
$$$$
