
     RDKit          3D

 52 54  0  0  0  0  0  0  0  0999 V2000
   -3.8682    2.7007   -0.8483 C   0  0  0  0  0  0  0  0  0  0  0  0
   -3.6339    1.4006   -1.6388 C   0  0  0  0  0  0  0  0  0  0  0  0
   -4.4478    1.4948   -2.9448 C   0  0  0  0  0  0  0  0  0  0  0  0
   -2.1316    1.2414   -2.0105 C   0  0  0  0  0  0  0  0  0  0  0  0
   -1.3114    0.7904   -0.8363 C   0  0  0  0  0  0  0  0  0  0  0  0
   -1.9304    0.1374    0.2170 C   0  0  0  0  0  0  0  0  0  0  0  0
   -0.8339   -0.1934    1.4761 S   0  0  0  0  0  0  0  0  0  0  0  0
    0.4653    0.4986    0.6413 C   0  0  0  0  0  0  0  0  0  0  0  0
    1.7331    0.5567    1.1988 N   0  0  0  0  0  0  0  0  0  0  0  0
    2.1388    0.1034    2.4421 C   0  0  0  0  0  0  0  0  0  0  0  0
    1.4580   -0.4354    3.3103 O   0  0  0  0  0  0  0  0  0  0  0  0
    3.6302    0.3557    2.6784 C   0  0  0  0  0  0  0  0  0  0  0  0
    4.4342    0.0829    1.5375 O   0  0  0  0  0  0  0  0  0  0  0  0
    4.9080   -1.1931    1.3839 C   0  0  0  0  0  0  0  0  0  0  0  0
    4.3243   -2.3229    1.9657 C   0  0  0  0  0  0  0  0  0  0  0  0
    4.8792   -3.5911    1.7585 C   0  0  0  0  0  0  0  0  0  0  0  0
    6.0101   -3.7374    0.9578 C   0  0  0  0  0  0  0  0  0  0  0  0
    6.6919   -5.3021    0.7162 Cl  0  0  0  0  0  0  0  0  0  0  0  0
    6.5914   -2.6278    0.3521 C   0  0  0  0  0  0  0  0  0  0  0  0
    6.0376   -1.3617    0.5622 C   0  0  0  0  0  0  0  0  0  0  0  0
    6.7998   -0.0124   -0.2019 Cl  0  0  0  0  0  0  0  0  0  0  0  0
    0.1110    0.9556   -0.6221 C   0  0  0  0  0  0  0  0  0  0  0  0
    1.1076    1.5352   -1.5229 C   0  0  0  0  0  0  0  0  0  0  0  0
    0.8394    1.4690   -2.8596 N   0  0  0  0  0  0  0  0  0  0  0  0
    2.1786    1.9930   -1.1317 O   0  0  0  0  0  0  0  0  0  0  0  0
   -3.4059   -0.2276    0.2902 C   0  0  0  0  0  0  0  0  0  0  0  0
   -3.5657   -1.7635    0.3075 C   0  0  0  0  0  0  0  0  0  0  0  0
   -4.0857    0.3486    1.5477 C   0  0  0  0  0  0  0  0  0  0  0  0
   -4.1366    0.2127   -0.9247 N   0  0  0  0  0  0  0  0  0  0  0  0
   -3.2220    2.7804    0.0298 H   0  0  0  0  0  0  0  0  0  0  0  0
   -4.9081    2.7793   -0.5126 H   0  0  0  0  0  0  0  0  0  0  0  0
   -3.6600    3.5784   -1.4703 H   0  0  0  0  0  0  0  0  0  0  0  0
   -5.5160    1.6374   -2.7431 H   0  0  0  0  0  0  0  0  0  0  0  0
   -4.1121    2.3372   -3.5577 H   0  0  0  0  0  0  0  0  0  0  0  0
   -4.3429    0.5872   -3.5495 H   0  0  0  0  0  0  0  0  0  0  0  0
   -2.0231    0.4900   -2.8039 H   0  0  0  0  0  0  0  0  0  0  0  0
   -1.7491    2.1925   -2.3996 H   0  0  0  0  0  0  0  0  0  0  0  0
    2.4497    0.9832    0.6099 H   0  0  0  0  0  0  0  0  0  0  0  0
    3.7437    1.4212    2.9076 H   0  0  0  0  0  0  0  0  0  0  0  0
    3.9772   -0.1965    3.5621 H   0  0  0  0  0  0  0  0  0  0  0  0
    3.4316   -2.2614    2.5833 H   0  0  0  0  0  0  0  0  0  0  0  0
    4.4201   -4.4569    2.2278 H   0  0  0  0  0  0  0  0  0  0  0  0
    7.4712   -2.7457   -0.2753 H   0  0  0  0  0  0  0  0  0  0  0  0
    1.6190    1.6981   -3.4616 H   0  0  0  0  0  0  0  0  0  0  0  0
    0.1843    0.7815   -3.2019 H   0  0  0  0  0  0  0  0  0  0  0  0
   -3.1222   -2.2087    1.2072 H   0  0  0  0  0  0  0  0  0  0  0  0
   -3.0783   -2.2293   -0.5600 H   0  0  0  0  0  0  0  0  0  0  0  0
   -4.6234   -2.0559    0.2949 H   0  0  0  0  0  0  0  0  0  0  0  0
   -3.9474    1.4296    1.6382 H   0  0  0  0  0  0  0  0  0  0  0  0
   -3.6858   -0.1031    2.4617 H   0  0  0  0  0  0  0  0  0  0  0  0
   -5.1639    0.1488    1.5483 H   0  0  0  0  0  0  0  0  0  0  0  0
   -5.1300    0.3046   -0.7217 H   0  0  0  0  0  0  0  0  0  0  0  0
  1  2  1  0
  2  3  1  0
  2  4  1  0
  4  5  1  0
  5  6  2  0
  6  7  1  0
  7  8  1  0
  8  9  1  0
  9 10  1  0
 10 11  2  0
 10 12  1  0
 12 13  1  0
 13 14  1  0
 14 15  2  0
 15 16  1  0
 16 17  2  0
 17 18  1  0
 17 19  1  0
 19 20  2  0
 20 21  1  0
  8 22  2  0
 22 23  1  0
 23 24  1  0
 23 25  2  0
  6 26  1  0
 26 27  1  0
 26 28  1  0
 26 29  1  0
 29  2  1  0
 22  5  1  0
 20 14  1  0
  1 30  1  0
  1 31  1  0
  1 32  1  0
  3 33  1  0
  3 34  1  0
  3 35  1  0
  4 36  1  0
  4 37  1  0
  9 38  1  0
 12 39  1  0
 12 40  1  0
 15 41  1  0
 16 42  1  0
 19 43  1  0
 24 44  1  0
 24 45  1  0
 27 46  1  0
 27 47  1  0
 27 48  1  0
 28 49  1  0
 28 50  1  0
 28 51  1  0
 29 52  1  0
M  END
$$$$
