
     RDKit          3D

 45 48  0  0  0  0  0  0  0  0999 V2000
   -2.9410   -2.4465   -1.7762 C   0  0  0  0  0  0  0  0  0  0  0  0
   -2.7991   -1.2595   -0.8921 C   0  0  0  0  0  0  0  0  0  0  0  0
   -3.7178   -0.8223    0.0536 C   0  0  0  0  0  0  0  0  0  0  0  0
   -4.8977   -1.3446    0.3714 O   0  0  0  0  0  0  0  0  0  0  0  0
   -3.1973    0.2988    0.6403 N   0  0  0  0  0  0  0  0  0  0  0  0
   -1.9759    0.5982    0.0877 C   0  0  0  0  0  0  0  0  0  0  0  0
   -1.1583    1.6780    0.4284 C   0  0  0  0  0  0  0  0  0  0  0  0
    0.0342    1.7993   -0.2869 C   0  0  0  0  0  0  0  0  0  0  0  0
    0.3763    0.8430   -1.2551 C   0  0  0  0  0  0  0  0  0  0  0  0
    1.9071    1.0242   -2.1532 S   0  0  0  0  0  6  0  0  0  0  0  0
    2.2952    2.4174   -2.0709 O   0  0  0  0  0  0  0  0  0  0  0  0
    1.7445    0.3701   -3.4348 O   0  0  0  0  0  0  0  0  0  0  0  0
    3.0043    0.1158   -1.2272 N   0  0  0  0  0  0  0  0  0  0  0  0
    2.8959   -1.3624   -1.2692 C   0  0  0  0  0  0  0  0  0  0  0  0
    2.6724   -1.9397    0.1224 C   0  0  0  0  0  0  0  0  0  0  0  0
    3.8088   -1.5758    1.0766 C   0  0  0  0  0  0  0  0  0  0  0  0
    4.4459   -0.2281    0.7408 C   0  0  0  0  0  0  0  0  0  0  0  0
    3.4541    0.7042    0.0552 C   0  0  0  0  0  0  0  0  0  0  0  0
   -0.4806   -0.2268   -1.5800 C   0  0  0  0  0  0  0  0  0  0  0  0
   -1.6915   -0.3514   -0.8750 C   0  0  0  0  0  0  0  0  0  0  0  0
   -1.6410    2.6446    1.4695 C   0  0  0  0  0  0  0  0  0  0  0  0
   -2.6433    1.9489    2.4168 C   0  0  0  0  0  0  0  0  0  0  0  0
   -3.7457    1.1655    1.6727 C   0  0  0  0  0  0  0  0  0  0  0  0
   -2.1328   -3.1602   -1.5863 H   0  0  0  0  0  0  0  0  0  0  0  0
   -2.8973   -2.1458   -2.8279 H   0  0  0  0  0  0  0  0  0  0  0  0
   -3.8924   -2.9621   -1.6122 H   0  0  0  0  0  0  0  0  0  0  0  0
   -5.3533   -0.7780    1.0130 H   0  0  0  0  0  0  0  0  0  0  0  0
    0.6978    2.6389   -0.0887 H   0  0  0  0  0  0  0  0  0  0  0  0
    3.8236   -1.7575   -1.7002 H   0  0  0  0  0  0  0  0  0  0  0  0
    2.0862   -1.6895   -1.9273 H   0  0  0  0  0  0  0  0  0  0  0  0
    2.5699   -3.0295    0.0706 H   0  0  0  0  0  0  0  0  0  0  0  0
    1.7273   -1.5558    0.5273 H   0  0  0  0  0  0  0  0  0  0  0  0
    3.4199   -1.5621    2.1017 H   0  0  0  0  0  0  0  0  0  0  0  0
    4.5838   -2.3512    1.0517 H   0  0  0  0  0  0  0  0  0  0  0  0
    4.8363    0.2341    1.6544 H   0  0  0  0  0  0  0  0  0  0  0  0
    5.3059   -0.3923    0.0788 H   0  0  0  0  0  0  0  0  0  0  0  0
    3.9507    1.6603   -0.1412 H   0  0  0  0  0  0  0  0  0  0  0  0
    2.6016    0.8860    0.7171 H   0  0  0  0  0  0  0  0  0  0  0  0
   -0.2239   -0.9367   -2.3605 H   0  0  0  0  0  0  0  0  0  0  0  0
   -0.7974    3.0279    2.0541 H   0  0  0  0  0  0  0  0  0  0  0  0
   -2.1248    3.4923    0.9708 H   0  0  0  0  0  0  0  0  0  0  0  0
   -3.0998    2.6894    3.0829 H   0  0  0  0  0  0  0  0  0  0  0  0
   -2.0897    1.2462    3.0547 H   0  0  0  0  0  0  0  0  0  0  0  0
   -4.4385    1.8502    1.1714 H   0  0  0  0  0  0  0  0  0  0  0  0
   -4.3024    0.5444    2.3811 H   0  0  0  0  0  0  0  0  0  0  0  0
  1  2  1  0
  2  3  2  0
  3  4  1  0
  3  5  1  0
  5  6  1  0
  6  7  2  0
  7  8  1  0
  8  9  2  0
  9 10  1  0
 10 11  2  0
 10 12  2  0
 10 13  1  0
 13 14  1  0
 14 15  1  0
 15 16  1  0
 16 17  1  0
 17 18  1  0
  9 19  1  0
 19 20  2  0
  7 21  1  0
 21 22  1  0
 22 23  1  0
 20  2  1  0
 23  5  1  0
 20  6  1  0
 18 13  1  0
  1 24  1  0
  1 25  1  0
  1 26  1  0
  4 27  1  0
  8 28  1  0
 14 29  1  0
 14 30  1  0
 15 31  1  0
 15 32  1  0
 16 33  1  0
 16 34  1  0
 17 35  1  0
 17 36  1  0
 18 37  1  0
 18 38  1  0
 19 39  1  0
 21 40  1  0
 21 41  1  0
 22 42  1  0
 22 43  1  0
 23 44  1  0
 23 45  1  0
M  END
$$$$
