
     RDKit          3D

 50 52  0  0  0  0  0  0  0  0999 V2000
   -3.2476   -0.4842   -4.3439 O   0  0  0  0  0  0  0  0  0  0  0  0
   -3.5602   -0.9614   -3.2564 C   0  0  0  0  0  0  0  0  0  0  0  0
   -3.0335   -2.3127   -2.7704 C   0  0  0  0  0  0  0  0  0  0  0  0
   -1.8148   -2.2066   -2.0328 O   0  0  0  0  0  0  0  0  0  0  0  0
   -1.9423   -1.7356   -0.7698 C   0  0  0  0  0  0  0  0  0  0  0  0
   -2.9901   -1.3958   -0.2407 O   0  0  0  0  0  0  0  0  0  0  0  0
   -0.6188   -1.6717   -0.0921 C   0  0  0  0  0  0  0  0  0  0  0  0
   -0.5829   -1.2592    1.2497 C   0  0  0  0  0  0  0  0  0  0  0  0
    0.6331   -1.1786    1.9331 C   0  0  0  0  0  0  0  0  0  0  0  0
    1.8158   -1.5085    1.2674 C   0  0  0  0  0  0  0  0  0  0  0  0
    3.3755   -1.4186    2.1154 S   0  0  0  0  0  6  0  0  0  0  0  0
    4.0218   -2.7016    1.9429 O   0  0  0  0  0  0  0  0  0  0  0  0
    3.1522   -0.8558    3.4306 O   0  0  0  0  0  0  0  0  0  0  0  0
    4.2274   -0.2554    1.1999 N   0  0  0  0  0  0  0  0  0  0  0  0
    3.6682    1.1270    1.2031 C   0  0  0  0  0  0  0  0  0  0  0  0
    4.5712    2.1003    1.9482 C   0  0  0  0  0  0  0  0  0  0  0  0
    5.9621    2.1716    1.3222 C   0  0  0  0  0  0  0  0  0  0  0  0
    6.3846    0.8452    0.6940 C   0  0  0  0  0  0  0  0  0  0  0  0
    5.7045   -0.3347    1.3758 C   0  0  0  0  0  0  0  0  0  0  0  0
    1.7954   -1.9255   -0.0672 C   0  0  0  0  0  0  0  0  0  0  0  0
    0.5771   -2.0045   -0.7470 C   0  0  0  0  0  0  0  0  0  0  0  0
   -4.3968   -0.3303   -2.3642 N   0  0  0  0  0  0  0  0  0  0  0  0
   -4.8635    1.0098   -2.6278 C   0  0  0  0  0  0  0  0  0  0  0  0
   -5.8186    1.4039   -1.5659 C   0  0  0  0  0  0  0  0  0  0  0  0
   -5.6625    1.8254   -0.2603 C   0  0  0  0  0  0  0  0  0  0  0  0
   -6.9655    2.0476    0.2467 C   0  0  0  0  0  0  0  0  0  0  0  0
   -7.8315    1.7483   -0.7784 C   0  0  0  0  0  0  0  0  0  0  0  0
   -7.1452    1.3573   -1.8826 O   0  0  0  0  0  0  0  0  0  0  0  0
   -2.8362   -2.9318   -3.6522 H   0  0  0  0  0  0  0  0  0  0  0  0
   -3.7990   -2.8386   -2.1867 H   0  0  0  0  0  0  0  0  0  0  0  0
   -1.5043   -1.0036    1.7710 H   0  0  0  0  0  0  0  0  0  0  0  0
    0.6475   -0.8648    2.9750 H   0  0  0  0  0  0  0  0  0  0  0  0
    2.6688    1.1522    1.6484 H   0  0  0  0  0  0  0  0  0  0  0  0
    3.5478    1.4408    0.1592 H   0  0  0  0  0  0  0  0  0  0  0  0
    4.1231    3.1001    1.9623 H   0  0  0  0  0  0  0  0  0  0  0  0
    4.6620    1.7831    2.9949 H   0  0  0  0  0  0  0  0  0  0  0  0
    6.6832    2.4695    2.0929 H   0  0  0  0  0  0  0  0  0  0  0  0
    5.9905    2.9541    0.5544 H   0  0  0  0  0  0  0  0  0  0  0  0
    7.4740    0.7415    0.7476 H   0  0  0  0  0  0  0  0  0  0  0  0
    6.1206    0.8501   -0.3713 H   0  0  0  0  0  0  0  0  0  0  0  0
    6.0633   -1.2618    0.9153 H   0  0  0  0  0  0  0  0  0  0  0  0
    5.9627   -0.3557    2.4414 H   0  0  0  0  0  0  0  0  0  0  0  0
    2.7213   -2.1897   -0.5752 H   0  0  0  0  0  0  0  0  0  0  0  0
    0.5771   -2.3281   -1.7858 H   0  0  0  0  0  0  0  0  0  0  0  0
   -4.3219   -0.6231   -1.3897 H   0  0  0  0  0  0  0  0  0  0  0  0
   -3.9973    1.6802   -2.6372 H   0  0  0  0  0  0  0  0  0  0  0  0
   -5.3259    1.0387   -3.6204 H   0  0  0  0  0  0  0  0  0  0  0  0
   -4.7227    1.9502    0.2595 H   0  0  0  0  0  0  0  0  0  0  0  0
   -7.2416    2.3814    1.2370 H   0  0  0  0  0  0  0  0  0  0  0  0
   -8.9081    1.7598   -0.8785 H   0  0  0  0  0  0  0  0  0  0  0  0
  1  2  2  0
  2  3  1  0
  3  4  1  0
  4  5  1  0
  5  6  2  0
  5  7  1  0
  7  8  2  0
  8  9  1  0
  9 10  2  0
 10 11  1  0
 11 12  2  0
 11 13  2  0
 11 14  1  0
 14 15  1  0
 15 16  1  0
 16 17  1  0
 17 18  1  0
 18 19  1  0
 10 20  1  0
 20 21  2  0
  2 22  1  0
 22 23  1  0
 23 24  1  0
 24 25  2  0
 25 26  1  0
 26 27  2  0
 27 28  1  0
 21  7  1  0
 28 24  1  0
 19 14  1  0
  3 29  1  0
  3 30  1  0
  8 31  1  0
  9 32  1  0
 15 33  1  0
 15 34  1  0
 16 35  1  0
 16 36  1  0
 17 37  1  0
 17 38  1  0
 18 39  1  0
 18 40  1  0
 19 41  1  0
 19 42  1  0
 20 43  1  0
 21 44  1  0
 22 45  1  0
 23 46  1  0
 23 47  1  0
 25 48  1  0
 26 49  1  0
 27 50  1  0
M  END
$$$$
