
     RDKit          3D

 51 53  0  0  0  0  0  0  0  0999 V2000
   -5.6449   -0.9747   -2.1390 C   0  0  0  0  0  0  0  0  0  0  0  0
   -4.6024   -0.0073   -2.1995 O   0  0  0  0  0  0  0  0  0  0  0  0
   -3.6360   -0.0727   -1.2247 C   0  0  0  0  0  0  0  0  0  0  0  0
   -3.7513   -0.7880   -0.0295 C   0  0  0  0  0  0  0  0  0  0  0  0
   -2.7104   -0.7760    0.9232 C   0  0  0  0  0  0  0  0  0  0  0  0
   -1.5251   -0.0532    0.6739 C   0  0  0  0  0  0  0  0  0  0  0  0
   -1.4297    0.6770   -0.5222 C   0  0  0  0  0  0  0  0  0  0  0  0
   -2.4620    0.6510   -1.4694 C   0  0  0  0  0  0  0  0  0  0  0  0
   -2.3817    1.3787   -2.6325 O   0  0  0  0  0  0  0  0  0  0  0  0
   -1.1708    1.1437   -3.3532 C   0  0  0  0  0  0  0  0  0  0  0  0
   -0.4319    0.0258    1.7447 C   0  0  0  0  0  0  0  0  0  0  0  0
    0.9864    0.1302    1.1879 C   0  0  0  0  0  0  0  0  0  0  0  0
    1.5769   -0.9501    0.4938 C   0  0  0  0  0  0  0  0  0  0  0  0
    2.8634   -0.8317   -0.0417 C   0  0  0  0  0  0  0  0  0  0  0  0
    3.5003   -1.8150   -0.7506 O   0  0  0  0  0  0  0  0  0  0  0  0
    3.0378   -3.1457   -0.5415 C   0  0  0  0  0  0  0  0  0  0  0  0
    3.5516    0.3860    0.1020 C   0  0  0  0  0  0  0  0  0  0  0  0
    4.8332    0.5066   -0.3895 O   0  0  0  0  0  0  0  0  0  0  0  0
    4.7954    0.9332   -1.7431 C   0  0  0  0  0  0  0  0  0  0  0  0
    2.9886    1.4723    0.8062 C   0  0  0  0  0  0  0  0  0  0  0  0
    3.7511    2.6081    0.8921 O   0  0  0  0  0  0  0  0  0  0  0  0
    3.2272    3.6867    1.6473 C   0  0  0  0  0  0  0  0  0  0  0  0
    1.7070    1.3336    1.3422 C   0  0  0  0  0  0  0  0  0  0  0  0
   -0.4973   -1.0929    2.7141 N   0  0  0  0  0  0  0  0  0  0  0  0
   -1.8444   -1.1765    3.2746 C   0  0  0  0  0  0  0  0  0  0  0  0
   -2.8662   -1.5750    2.1994 C   0  0  0  0  0  0  0  0  0  0  0  0
   -6.3040   -0.8035   -1.2806 H   0  0  0  0  0  0  0  0  0  0  0  0
   -5.2478   -2.0009   -2.1207 H   0  0  0  0  0  0  0  0  0  0  0  0
   -6.2460   -0.8668   -3.0480 H   0  0  0  0  0  0  0  0  0  0  0  0
   -4.6501   -1.3511    0.2018 H   0  0  0  0  0  0  0  0  0  0  0  0
   -0.5533    1.2875   -0.7141 H   0  0  0  0  0  0  0  0  0  0  0  0
   -0.8547    0.0758   -3.3394 H   0  0  0  0  0  0  0  0  0  0  0  0
   -1.3680    1.4230   -4.4029 H   0  0  0  0  0  0  0  0  0  0  0  0
   -0.3587    1.7925   -2.9647 H   0  0  0  0  0  0  0  0  0  0  0  0
   -0.6390    0.9532    2.3053 H   0  0  0  0  0  0  0  0  0  0  0  0
    0.9963   -1.8625    0.3779 H   0  0  0  0  0  0  0  0  0  0  0  0
    2.0688   -3.3092   -1.0182 H   0  0  0  0  0  0  0  0  0  0  0  0
    2.9997   -3.3983    0.5215 H   0  0  0  0  0  0  0  0  0  0  0  0
    3.7560   -3.8158   -1.0132 H   0  0  0  0  0  0  0  0  0  0  0  0
    5.8066    1.2462   -2.0190 H   0  0  0  0  0  0  0  0  0  0  0  0
    4.5009    0.1109   -2.4022 H   0  0  0  0  0  0  0  0  0  0  0  0
    4.1244    1.7858   -1.8876 H   0  0  0  0  0  0  0  0  0  0  0  0
    3.9681    4.4842    1.6531 H   0  0  0  0  0  0  0  0  0  0  0  0
    2.3262    4.0816    1.1852 H   0  0  0  0  0  0  0  0  0  0  0  0
    3.0440    3.3929    2.6859 H   0  0  0  0  0  0  0  0  0  0  0  0
    1.2308    2.1609    1.8732 H   0  0  0  0  0  0  0  0  0  0  0  0
    0.1691   -0.8972    3.4621 H   0  0  0  0  0  0  0  0  0  0  0  0
   -1.8593   -1.9023    4.0856 H   0  0  0  0  0  0  0  0  0  0  0  0
   -2.1316   -0.2014    3.7150 H   0  0  0  0  0  0  0  0  0  0  0  0
   -2.7675   -2.6505    1.9516 H   0  0  0  0  0  0  0  0  0  0  0  0
   -3.8756   -1.4087    2.6099 H   0  0  0  0  0  0  0  0  0  0  0  0
  1  2  1  0
  2  3  1  0
  3  4  2  0
  4  5  1  0
  5  6  2  0
  6  7  1  0
  7  8  2  0
  8  9  1  0
  9 10  1  0
  6 11  1  0
 11 12  1  0
 12 13  2  0
 13 14  1  0
 14 15  1  0
 15 16  1  0
 14 17  2  0
 17 18  1  0
 18 19  1  0
 17 20  1  0
 20 21  1  0
 21 22  1  0
 20 23  2  0
 11 24  1  0
 24 25  1  0
 25 26  1  0
  8  3  1  0
 23 12  1  0
 26  5  1  0
  1 27  1  0
  1 28  1  0
  1 29  1  0
  4 30  1  0
  7 31  1  0
 10 32  1  0
 10 33  1  0
 10 34  1  0
 11 35  1  0
 13 36  1  0
 16 37  1  0
 16 38  1  0
 16 39  1  0
 19 40  1  0
 19 41  1  0
 19 42  1  0
 22 43  1  0
 22 44  1  0
 22 45  1  0
 23 46  1  0
 24 47  1  0
 25 48  1  0
 25 49  1  0
 26 50  1  0
 26 51  1  0
M  END
$$$$
