
     RDKit          3D

 45 47  0  0  0  0  0  0  0  0999 V2000
    8.7460   -2.2822   -0.8435 N   0  0  0  0  0  0  0  0  0  0  0  0
    7.7457   -1.7122   -0.6980 C   0  0  0  0  0  0  0  0  0  0  0  0
    6.5088   -1.0113   -0.5125 C   0  0  0  0  0  0  0  0  0  0  0  0
    5.5129   -1.0708   -1.4897 C   0  0  0  0  0  0  0  0  0  0  0  0
    4.3095   -0.3859   -1.3004 C   0  0  0  0  0  0  0  0  0  0  0  0
    4.0871    0.3608   -0.1397 C   0  0  0  0  0  0  0  0  0  0  0  0
    2.8673    0.9739   -0.0843 O   0  0  0  0  0  0  0  0  0  0  0  0
    2.5769    1.7388    1.0789 C   0  0  0  0  0  0  0  0  0  0  0  0
    1.1800    2.3498    0.9644 C   0  0  0  0  0  0  0  0  0  0  0  0
    1.0494    3.5645    0.7923 O   0  0  0  0  0  0  0  0  0  0  0  0
    0.0855    1.5083    1.0971 N   0  0  0  0  0  0  0  0  0  0  0  0
    0.1470    0.0534    1.2981 C   0  0  0  0  0  0  0  0  0  0  0  0
   -1.0584   -0.6754    0.6733 C   0  0  0  0  0  0  0  0  0  0  0  0
   -2.3540   -0.1579    1.1769 N   0  0  0  0  0  0  0  0  0  0  0  0
   -3.3908   -0.3585    0.2452 C   0  0  0  0  0  0  0  0  0  0  0  0
   -3.7271   -1.6578   -0.1388 C   0  0  0  0  0  0  0  0  0  0  0  0
   -4.7494   -1.8698   -1.0641 C   0  0  0  0  0  0  0  0  0  0  0  0
   -5.4304   -0.7778   -1.5992 C   0  0  0  0  0  0  0  0  0  0  0  0
   -6.5464   -0.9425   -2.5813 C   0  0  0  0  0  0  0  0  0  0  0  0
   -6.2418   -1.8197   -3.5783 F   0  0  0  0  0  0  0  0  0  0  0  0
   -6.9002    0.2163   -3.2032 F   0  0  0  0  0  0  0  0  0  0  0  0
   -7.6831   -1.4176   -2.0022 F   0  0  0  0  0  0  0  0  0  0  0  0
   -5.0492    0.4770   -1.1585 C   0  0  0  0  0  0  0  0  0  0  0  0
   -4.0579    0.6998   -0.2622 N   0  0  0  0  0  0  0  0  0  0  0  0
   -2.3046    1.2099    1.7448 C   0  0  0  0  0  0  0  0  0  0  0  0
   -1.2642    2.0908    1.0372 C   0  0  0  0  0  0  0  0  0  0  0  0
    5.0838    0.4215    0.8351 C   0  0  0  0  0  0  0  0  0  0  0  0
    6.2913   -0.2631    0.6490 C   0  0  0  0  0  0  0  0  0  0  0  0
    5.6639   -1.6441   -2.4024 H   0  0  0  0  0  0  0  0  0  0  0  0
    3.5391   -0.4314   -2.0675 H   0  0  0  0  0  0  0  0  0  0  0  0
    2.6145    1.1232    1.9856 H   0  0  0  0  0  0  0  0  0  0  0  0
    3.2897    2.5671    1.1760 H   0  0  0  0  0  0  0  0  0  0  0  0
    1.0693   -0.3599    0.8869 H   0  0  0  0  0  0  0  0  0  0  0  0
    0.1677   -0.1132    2.3818 H   0  0  0  0  0  0  0  0  0  0  0  0
   -0.9814   -1.7451    0.9000 H   0  0  0  0  0  0  0  0  0  0  0  0
   -0.9921   -0.5545   -0.4173 H   0  0  0  0  0  0  0  0  0  0  0  0
   -3.2116   -2.5082    0.2955 H   0  0  0  0  0  0  0  0  0  0  0  0
   -5.0118   -2.8847   -1.3559 H   0  0  0  0  0  0  0  0  0  0  0  0
   -5.5387    1.3799   -1.5183 H   0  0  0  0  0  0  0  0  0  0  0  0
   -3.2841    1.7027    1.7662 H   0  0  0  0  0  0  0  0  0  0  0  0
   -2.0144    1.1075    2.7991 H   0  0  0  0  0  0  0  0  0  0  0  0
   -1.2522    3.0876    1.4915 H   0  0  0  0  0  0  0  0  0  0  0  0
   -1.5135    2.2103   -0.0237 H   0  0  0  0  0  0  0  0  0  0  0  0
    4.9606    0.9939    1.7492 H   0  0  0  0  0  0  0  0  0  0  0  0
    7.0610   -0.2040    1.4170 H   0  0  0  0  0  0  0  0  0  0  0  0
  1  2  3  0
  2  3  1  0
  3  4  2  0
  4  5  1  0
  5  6  2  0
  6  7  1  0
  7  8  1  0
  8  9  1  0
  9 10  2  0
  9 11  1  0
 11 12  1  0
 12 13  1  0
 13 14  1  0
 14 15  1  0
 15 16  2  0
 16 17  1  0
 17 18  2  0
 18 19  1  0
 19 20  1  0
 19 21  1  0
 19 22  1  0
 18 23  1  0
 23 24  2  0
 14 25  1  0
 25 26  1  0
  6 27  1  0
 27 28  2  0
 28  3  1  0
 26 11  1  0
 24 15  1  0
  4 29  1  0
  5 30  1  0
  8 31  1  0
  8 32  1  0
 12 33  1  0
 12 34  1  0
 13 35  1  0
 13 36  1  0
 16 37  1  0
 17 38  1  0
 23 39  1  0
 25 40  1  0
 25 41  1  0
 26 42  1  0
 26 43  1  0
 27 44  1  0
 28 45  1  0
M  END
$$$$
