
     RDKit          3D

 38 41  0  0  0  0  0  0  0  0999 V2000
    8.2580    1.5787    0.2896 C   0  0  0  0  0  0  0  0  0  0  0  0
    6.7846    1.7313    0.3723 C   0  0  0  0  0  0  0  0  0  0  0  0
    6.1590    2.8609    0.6275 N   0  0  0  0  0  0  0  0  0  0  0  0
    4.7881    2.7019    0.6271 N   0  0  0  0  0  0  0  0  0  0  0  0
    4.4308    1.4622    0.3743 C   0  0  0  0  0  0  0  0  0  0  0  0
    3.1144    1.0856    0.3199 N   0  0  0  0  0  0  0  0  0  0  0  0
    2.6053   -0.1713    0.0782 C   0  0  0  0  0  0  0  0  0  0  0  0
    3.2901   -1.1741   -0.1115 O   0  0  0  0  0  0  0  0  0  0  0  0
    1.1397   -0.2441    0.0648 C   0  0  0  0  0  0  0  0  0  0  0  0
    0.1714    1.1046    0.4862 S   0  0  0  0  0  0  0  0  0  0  0  0
   -1.2712    0.2437    0.2405 C   0  0  0  0  0  0  0  0  0  0  0  0
   -2.4498    0.8621    0.4294 N   0  0  0  0  0  0  0  0  0  0  0  0
   -3.5405    0.1135    0.1939 C   0  0  0  0  0  0  0  0  0  0  0  0
   -4.8347    0.7971    0.3739 C   0  0  0  0  0  0  0  0  0  0  0  0
   -6.0640    0.5174   -0.2041 C   0  0  0  0  0  0  0  0  0  0  0  0
   -7.0973    1.4032    0.2231 C   0  0  0  0  0  0  0  0  0  0  0  0
   -6.6334    2.3394    1.1163 C   0  0  0  0  0  0  0  0  0  0  0  0
   -4.9687    2.1459    1.4388 S   0  0  0  0  0  0  0  0  0  0  0  0
   -3.4769   -1.2111   -0.2196 C   0  0  0  0  0  0  0  0  0  0  0  0
   -2.2309   -1.8459   -0.4043 C   0  0  0  0  0  0  0  0  0  0  0  0
   -2.1969   -3.2688   -0.8930 C   0  0  0  0  0  0  0  0  0  0  0  0
   -1.8702   -3.3632   -2.2094 F   0  0  0  0  0  0  0  0  0  0  0  0
   -3.3980   -3.9033   -0.7672 F   0  0  0  0  0  0  0  0  0  0  0  0
   -1.3058   -4.0521   -0.2216 F   0  0  0  0  0  0  0  0  0  0  0  0
   -1.0669   -1.0711   -0.1580 C   0  0  0  0  0  0  0  0  0  0  0  0
    0.3459   -1.3383   -0.2435 C   0  0  0  0  0  0  0  0  0  0  0  0
    0.8649   -2.5375   -0.6029 N   0  0  0  0  0  0  0  0  0  0  0  0
    5.7352    0.3989    0.1104 S   0  0  0  0  0  0  0  0  0  0  0  0
    8.5809    0.5653    0.5484 H   0  0  0  0  0  0  0  0  0  0  0  0
    8.6033    1.8034   -0.7245 H   0  0  0  0  0  0  0  0  0  0  0  0
    8.7506    2.2716    0.9795 H   0  0  0  0  0  0  0  0  0  0  0  0
    2.4682    1.8472    0.4805 H   0  0  0  0  0  0  0  0  0  0  0  0
   -6.2255   -0.2834   -0.9158 H   0  0  0  0  0  0  0  0  0  0  0  0
   -8.1261    1.3581   -0.1126 H   0  0  0  0  0  0  0  0  0  0  0  0
   -7.1904    3.1306    1.5988 H   0  0  0  0  0  0  0  0  0  0  0  0
   -4.3927   -1.7703   -0.3988 H   0  0  0  0  0  0  0  0  0  0  0  0
    1.8790   -2.6757   -0.5203 H   0  0  0  0  0  0  0  0  0  0  0  0
    0.3703   -3.4125   -0.4256 H   0  0  0  0  0  0  0  0  0  0  0  0
  1  2  1  0
  2  3  2  0
  3  4  1  0
  4  5  2  0
  5  6  1  0
  6  7  1  0
  7  8  2  0
  7  9  1  0
  9 10  1  0
 10 11  1  0
 11 12  2  0
 12 13  1  0
 13 14  1  0
 14 15  2  0
 15 16  1  0
 16 17  2  0
 17 18  1  0
 13 19  2  0
 19 20  1  0
 20 21  1  0
 21 22  1  0
 21 23  1  0
 21 24  1  0
 20 25  2  0
 25 26  1  0
 26 27  1  0
  5 28  1  0
 28  2  1  0
 26  9  2  0
 25 11  1  0
 18 14  1  0
  1 29  1  0
  1 30  1  0
  1 31  1  0
  6 32  1  0
 15 33  1  0
 16 34  1  0
 17 35  1  0
 19 36  1  0
 27 37  1  0
 27 38  1  0
M  END
$$$$
