
     RDKit          3D

 61 65  0  0  0  0  0  0  0  0999 V2000
    2.3548   -1.7009    0.5395 C   0  0  0  0  0  0  0  0  0  0  0  0
    2.8596   -1.4177   -0.8292 C   0  0  0  0  0  0  0  0  0  0  0  0
    2.1320   -1.1887   -1.9863 C   0  0  0  0  0  0  0  0  0  0  0  0
    0.6455   -1.1184   -2.1916 C   0  0  0  0  0  0  0  0  0  0  0  0
    0.1292    0.3247   -2.1306 C   0  0  0  0  0  0  0  0  0  0  0  0
   -1.1758    0.3742   -1.5344 O   0  0  0  0  0  0  0  0  0  0  0  0
   -1.1907    0.3433   -0.1689 C   0  0  0  0  0  0  0  0  0  0  0  0
   -0.1790    0.2444    0.5159 O   0  0  0  0  0  0  0  0  0  0  0  0
   -2.6158    0.4381    0.3700 C   0  0  0  0  0  0  0  0  0  0  0  0
   -2.6149    0.2571    1.9080 C   0  0  0  0  0  0  0  0  0  0  0  0
   -4.0440    0.3636    2.4649 C   0  0  0  0  0  0  0  0  0  0  0  0
   -4.6226    1.7430    2.1123 C   0  0  0  0  0  0  0  0  0  0  0  0
   -4.6488    1.9303    0.5865 C   0  0  0  0  0  0  0  0  0  0  0  0
   -5.5221    0.8288   -0.0445 C   0  0  0  0  0  0  0  0  0  0  0  0
   -4.9563   -0.5719    0.2953 C   0  0  0  0  0  0  0  0  0  0  0  0
   -5.8300   -1.6625   -0.3326 C   0  0  0  0  0  0  0  0  0  0  0  0
   -4.9204   -0.7327    1.8329 C   0  0  0  0  0  0  0  0  0  0  0  0
   -3.5096   -0.6651   -0.2480 C   0  0  0  0  0  0  0  0  0  0  0  0
   -3.2163    1.8228    0.0354 C   0  0  0  0  0  0  0  0  0  0  0  0
    3.1947   -0.9521   -3.3174 S   0  0  0  0  0  0  0  0  0  0  0  0
    4.5711   -1.1205   -2.3214 C   0  0  0  0  0  0  0  0  0  0  0  0
    4.2323   -1.3375   -1.0597 N   0  0  0  0  0  4  0  0  0  0  0  0
    5.2726   -1.4855   -0.0297 C   0  0  0  0  0  0  0  0  0  0  0  0
    6.0206   -0.1837    0.1464 C   0  0  0  0  0  0  0  0  0  0  0  0
    7.4124   -0.1347   -0.0513 C   0  0  0  0  0  0  0  0  0  0  0  0
    8.1110    1.0643    0.1159 C   0  0  0  0  0  0  0  0  0  0  0  0
    7.4284    2.2227    0.4850 C   0  0  0  0  0  0  0  0  0  0  0  0
    6.0485    2.1857    0.6933 C   0  0  0  0  0  0  0  0  0  0  0  0
    5.3465    0.9895    0.5302 C   0  0  0  0  0  0  0  0  0  0  0  0
    2.5617   -0.8578    1.2055 H   0  0  0  0  0  0  0  0  0  0  0  0
    1.2768   -1.8813    0.5467 H   0  0  0  0  0  0  0  0  0  0  0  0
    2.8209   -2.6041    0.9482 H   0  0  0  0  0  0  0  0  0  0  0  0
    0.1429   -1.7472   -1.4480 H   0  0  0  0  0  0  0  0  0  0  0  0
    0.3729   -1.5563   -3.1604 H   0  0  0  0  0  0  0  0  0  0  0  0
    0.0368    0.7276   -3.1459 H   0  0  0  0  0  0  0  0  0  0  0  0
    0.8080    1.0012   -1.5938 H   0  0  0  0  0  0  0  0  0  0  0  0
   -1.9744    1.0170    2.3803 H   0  0  0  0  0  0  0  0  0  0  0  0
   -2.1886   -0.7180    2.1813 H   0  0  0  0  0  0  0  0  0  0  0  0
   -4.0198    0.2332    3.5546 H   0  0  0  0  0  0  0  0  0  0  0  0
   -5.6373    1.8419    2.5146 H   0  0  0  0  0  0  0  0  0  0  0  0
   -4.0156    2.5322    2.5757 H   0  0  0  0  0  0  0  0  0  0  0  0
   -5.0631    2.9154    0.3463 H   0  0  0  0  0  0  0  0  0  0  0  0
   -6.5544    0.9168    0.3217 H   0  0  0  0  0  0  0  0  0  0  0  0
   -5.5628    0.9698   -1.1334 H   0  0  0  0  0  0  0  0  0  0  0  0
   -6.8613   -1.6118    0.0353 H   0  0  0  0  0  0  0  0  0  0  0  0
   -5.4415   -2.6608   -0.0980 H   0  0  0  0  0  0  0  0  0  0  0  0
   -5.8616   -1.5592   -1.4219 H   0  0  0  0  0  0  0  0  0  0  0  0
   -4.5242   -1.7206    2.1053 H   0  0  0  0  0  0  0  0  0  0  0  0
   -5.9373   -0.6779    2.2421 H   0  0  0  0  0  0  0  0  0  0  0  0
   -3.5249   -0.5735   -1.3430 H   0  0  0  0  0  0  0  0  0  0  0  0
   -3.0816   -1.6550   -0.0310 H   0  0  0  0  0  0  0  0  0  0  0  0
   -3.2292    1.9876   -1.0515 H   0  0  0  0  0  0  0  0  0  0  0  0
   -2.5912    2.6216    0.4595 H   0  0  0  0  0  0  0  0  0  0  0  0
    5.5876   -1.0416   -2.6899 H   0  0  0  0  0  0  0  0  0  0  0  0
    4.8609   -1.7878    0.9364 H   0  0  0  0  0  0  0  0  0  0  0  0
    5.9463   -2.2911   -0.3500 H   0  0  0  0  0  0  0  0  0  0  0  0
    7.9784   -1.0231   -0.3285 H   0  0  0  0  0  0  0  0  0  0  0  0
    9.1897    1.0988   -0.0338 H   0  0  0  0  0  0  0  0  0  0  0  0
    7.9735    3.1557    0.6187 H   0  0  0  0  0  0  0  0  0  0  0  0
    5.5254    3.0915    0.9946 H   0  0  0  0  0  0  0  0  0  0  0  0
    4.2739    0.9960    0.7168 H   0  0  0  0  0  0  0  0  0  0  0  0
  1  2  1  0
  2  3  2  0
  3  4  1  0
  4  5  1  0
  5  6  1  0
  6  7  1  0
  7  8  2  0
  7  9  1  0
  9 10  1  0
 10 11  1  0
 11 12  1  0
 12 13  1  0
 13 14  1  0
 14 15  1  0
 15 16  1  0
 15 17  1  0
 15 18  1  0
 13 19  1  0
  3 20  1  0
 20 21  1  0
 21 22  2  0
 22 23  1  0
 23 24  1  0
 24 25  2  0
 25 26  1  0
 26 27  2  0
 27 28  1  0
 28 29  2  0
 22  2  1  0
 29 24  1  0
 18  9  1  0
 19  9  1  0
 17 11  1  0
  1 30  1  0
  1 31  1  0
  1 32  1  0
  4 33  1  0
  4 34  1  0
  5 35  1  0
  5 36  1  0
 10 37  1  0
 10 38  1  0
 11 39  1  0
 12 40  1  0
 12 41  1  0
 13 42  1  0
 14 43  1  0
 14 44  1  0
 16 45  1  0
 16 46  1  0
 16 47  1  0
 17 48  1  0
 17 49  1  0
 18 50  1  0
 18 51  1  0
 19 52  1  0
 19 53  1  0
 21 54  1  0
 23 55  1  0
 23 56  1  0
 25 57  1  0
 26 58  1  0
 27 59  1  0
 28 60  1  0
 29 61  1  0
M  CHG  1  22   1
M  END
$$$$
