
     RDKit          3D

 55 57  0  0  0  0  0  0  0  0999 V2000
    7.8016   -0.9766   -1.1534 C   0  0  0  0  0  0  0  0  0  0  0  0
    7.4127    0.1283   -0.1873 C   0  0  0  0  0  0  0  0  0  0  0  0
    6.4314   -0.3405    0.7357 O   0  0  0  0  0  0  0  0  0  0  0  0
    5.1084   -0.0968    0.4861 C   0  0  0  0  0  0  0  0  0  0  0  0
    4.5897    0.2728   -0.7554 C   0  0  0  0  0  0  0  0  0  0  0  0
    3.2139    0.4792   -0.9157 C   0  0  0  0  0  0  0  0  0  0  0  0
    2.3283    0.3143    0.1585 C   0  0  0  0  0  0  0  0  0  0  0  0
    0.8686    0.5376   -0.0924 C   0  0  0  0  0  0  0  0  0  0  0  0
    0.5254    0.9850   -1.1864 O   0  0  0  0  0  0  0  0  0  0  0  0
   -0.1386    0.2005    0.9796 C   0  0  0  0  0  0  0  0  0  0  0  0
   -0.3366    1.2927    1.9776 C   0  0  0  0  0  0  0  0  0  0  0  0
    0.5320    1.9699    2.4946 O   0  0  0  0  0  0  0  0  0  0  0  0
   -1.8145    1.3897    2.3268 C   0  0  0  0  0  0  0  0  0  0  0  0
   -2.2788    2.1233    3.1728 O   0  0  0  0  0  0  0  0  0  0  0  0
   -2.4659    0.4957    1.5003 N   0  0  0  0  0  0  0  0  0  0  0  0
   -3.9182    0.5666    1.3423 C   0  0  0  0  0  0  0  0  0  0  0  0
   -4.4213    1.8043    0.5639 C   0  0  0  0  0  0  0  0  0  0  0  0
   -4.0150    1.8394   -0.8553 N   0  0  0  0  0  0  0  0  0  0  0  0
   -4.7579    0.8610   -1.6543 C   0  0  0  0  0  0  0  0  0  0  0  0
   -4.2224    3.1819   -1.4056 C   0  0  0  0  0  0  0  0  0  0  0  0
   -1.5737    0.0566    0.4289 C   0  0  0  0  0  0  0  0  0  0  0  0
   -1.8328   -1.3650   -0.0350 C   0  0  0  0  0  0  0  0  0  0  0  0
   -2.0974   -2.4047    0.8714 C   0  0  0  0  0  0  0  0  0  0  0  0
   -2.3006   -3.7086    0.4168 C   0  0  0  0  0  0  0  0  0  0  0  0
   -2.2347   -3.9914   -0.9458 C   0  0  0  0  0  0  0  0  0  0  0  0
   -1.9647   -2.9718   -1.8557 C   0  0  0  0  0  0  0  0  0  0  0  0
   -1.7620   -1.6673   -1.4037 C   0  0  0  0  0  0  0  0  0  0  0  0
    2.8415   -0.0586    1.4023 C   0  0  0  0  0  0  0  0  0  0  0  0
    4.2183   -0.2671    1.5590 C   0  0  0  0  0  0  0  0  0  0  0  0
    4.7834   -0.7397    3.1262 Cl  0  0  0  0  0  0  0  0  0  0  0  0
    8.1503   -1.8586   -0.6057 H   0  0  0  0  0  0  0  0  0  0  0  0
    8.5987   -0.6418   -1.8234 H   0  0  0  0  0  0  0  0  0  0  0  0
    6.9485   -1.2977   -1.7583 H   0  0  0  0  0  0  0  0  0  0  0  0
    7.1079    1.0455   -0.7035 H   0  0  0  0  0  0  0  0  0  0  0  0
    8.2944    0.3961    0.4061 H   0  0  0  0  0  0  0  0  0  0  0  0
    5.2222    0.3971   -1.6284 H   0  0  0  0  0  0  0  0  0  0  0  0
    2.8384    0.7674   -1.8974 H   0  0  0  0  0  0  0  0  0  0  0  0
    0.1553   -0.7092    1.5149 H   0  0  0  0  0  0  0  0  0  0  0  0
   -4.2802   -0.3669    0.9028 H   0  0  0  0  0  0  0  0  0  0  0  0
   -4.3418    0.6202    2.3532 H   0  0  0  0  0  0  0  0  0  0  0  0
   -5.5146    1.8596    0.6476 H   0  0  0  0  0  0  0  0  0  0  0  0
   -4.0259    2.6936    1.0713 H   0  0  0  0  0  0  0  0  0  0  0  0
   -4.5753   -0.1602   -1.3077 H   0  0  0  0  0  0  0  0  0  0  0  0
   -4.4274    0.8919   -2.6989 H   0  0  0  0  0  0  0  0  0  0  0  0
   -5.8384    1.0438   -1.6311 H   0  0  0  0  0  0  0  0  0  0  0  0
   -3.6188    3.9179   -0.8627 H   0  0  0  0  0  0  0  0  0  0  0  0
   -3.8970    3.2244   -2.4513 H   0  0  0  0  0  0  0  0  0  0  0  0
   -5.2728    3.4910   -1.3568 H   0  0  0  0  0  0  0  0  0  0  0  0
   -1.7333    0.7481   -0.4053 H   0  0  0  0  0  0  0  0  0  0  0  0
   -2.1548   -2.2063    1.9398 H   0  0  0  0  0  0  0  0  0  0  0  0
   -2.5107   -4.5052    1.1263 H   0  0  0  0  0  0  0  0  0  0  0  0
   -2.3926   -5.0072   -1.2989 H   0  0  0  0  0  0  0  0  0  0  0  0
   -1.9096   -3.1920   -2.9189 H   0  0  0  0  0  0  0  0  0  0  0  0
   -1.5466   -0.8832   -2.1293 H   0  0  0  0  0  0  0  0  0  0  0  0
    2.2039   -0.1791    2.2722 H   0  0  0  0  0  0  0  0  0  0  0  0
  1  2  1  0
  2  3  1  0
  3  4  1  0
  4  5  2  0
  5  6  1  0
  6  7  2  0
  7  8  1  0
  8  9  2  0
  8 10  1  0
 10 11  1  0
 11 12  2  0
 11 13  1  0
 13 14  2  0
 13 15  1  0
 15 16  1  0
 16 17  1  0
 17 18  1  0
 18 19  1  0
 18 20  1  0
 15 21  1  0
 21 22  1  0
 22 23  2  0
 23 24  1  0
 24 25  2  0
 25 26  1  0
 26 27  2  0
  7 28  1  0
 28 29  2  0
 29 30  1  0
 29  4  1  0
 21 10  1  0
 27 22  1  0
  1 31  1  0
  1 32  1  0
  1 33  1  0
  2 34  1  0
  2 35  1  0
  5 36  1  0
  6 37  1  0
 10 38  1  0
 16 39  1  0
 16 40  1  0
 17 41  1  0
 17 42  1  0
 19 43  1  0
 19 44  1  0
 19 45  1  0
 20 46  1  0
 20 47  1  0
 20 48  1  0
 21 49  1  0
 23 50  1  0
 24 51  1  0
 25 52  1  0
 26 53  1  0
 27 54  1  0
 28 55  1  0
M  END
$$$$
