
     RDKit          3D

 42 42  0  0  0  0  0  0  0  0999 V2000
   -1.4614   -2.3571    2.4857 C   0  0  0  0  0  0  0  0  0  0  0  0
   -0.2119   -2.2921    1.6207 C   0  0  0  0  0  0  0  0  0  0  0  0
   -0.5025   -2.1615    0.1232 C   0  0  0  0  0  0  0  0  0  0  0  0
   -1.2994   -0.9256   -0.3198 C   0  0  0  0  0  0  0  0  0  0  0  0
   -0.6022    0.4582   -0.3586 C   0  0  0  0  0  0  0  0  0  0  0  0
   -1.5456    1.4776   -0.9990 C   0  0  0  0  0  0  0  0  0  0  0  0
   -1.2225    2.2656   -1.8801 O   0  0  0  0  0  0  0  0  0  0  0  0
   -2.7950    1.4102   -0.4598 O   0  0  0  0  0  0  0  0  0  0  0  0
   -3.7523    2.3661   -0.9400 C   0  0  0  0  0  0  0  0  0  0  0  0
   -3.6314    3.6618   -0.1598 C   0  0  0  0  0  0  0  0  0  0  0  0
    0.7454    0.4462   -1.0864 C   0  0  0  0  0  0  0  0  0  0  0  0
    1.7735    0.3594    0.0235 C   0  0  0  0  0  0  0  0  0  0  0  0
    3.0974    1.0759   -0.2627 C   0  0  0  0  0  0  0  0  0  0  0  0
    3.9855    0.4695   -1.7336 S   0  0  0  0  0  0  0  0  0  0  0  0
    4.1942   -1.1832   -1.2695 C   0  0  0  0  0  0  0  0  0  0  0  0
    5.0139   -1.4947   -0.3359 N   0  0  0  0  0  0  0  0  0  0  0  0
    3.4668   -2.0961   -1.9435 N   0  0  0  0  0  0  0  0  0  0  0  0
    1.1447    0.9753    1.1531 O   0  0  0  0  0  0  0  0  0  0  0  0
   -0.2127    0.9566    1.0080 C   0  0  0  0  0  0  0  0  0  0  0  0
   -0.9758    1.3028    1.8955 O   0  0  0  0  0  0  0  0  0  0  0  0
   -2.1375   -3.1464    2.1423 H   0  0  0  0  0  0  0  0  0  0  0  0
   -2.0043   -1.4079    2.4808 H   0  0  0  0  0  0  0  0  0  0  0  0
   -1.1877   -2.5743    3.5233 H   0  0  0  0  0  0  0  0  0  0  0  0
    0.4293   -1.4806    1.9721 H   0  0  0  0  0  0  0  0  0  0  0  0
    0.3584   -3.2167    1.7743 H   0  0  0  0  0  0  0  0  0  0  0  0
    0.4357   -2.2314   -0.4364 H   0  0  0  0  0  0  0  0  0  0  0  0
   -1.0810   -3.0463   -0.1762 H   0  0  0  0  0  0  0  0  0  0  0  0
   -1.6543   -1.1353   -1.3397 H   0  0  0  0  0  0  0  0  0  0  0  0
   -2.2103   -0.8675    0.2882 H   0  0  0  0  0  0  0  0  0  0  0  0
   -3.6418    2.5330   -2.0177 H   0  0  0  0  0  0  0  0  0  0  0  0
   -4.7448    1.9313   -0.7817 H   0  0  0  0  0  0  0  0  0  0  0  0
   -4.3966    4.3769   -0.4745 H   0  0  0  0  0  0  0  0  0  0  0  0
   -3.7409    3.4759    0.9140 H   0  0  0  0  0  0  0  0  0  0  0  0
   -2.6465    4.1176   -0.3048 H   0  0  0  0  0  0  0  0  0  0  0  0
    0.8403   -0.3720   -1.8081 H   0  0  0  0  0  0  0  0  0  0  0  0
    0.9103    1.3701   -1.6532 H   0  0  0  0  0  0  0  0  0  0  0  0
    1.9756   -0.6796    0.3016 H   0  0  0  0  0  0  0  0  0  0  0  0
    2.9150    2.1484   -0.3993 H   0  0  0  0  0  0  0  0  0  0  0  0
    3.7534    1.0014    0.6125 H   0  0  0  0  0  0  0  0  0  0  0  0
    5.4652   -0.6332   -0.0094 H   0  0  0  0  0  0  0  0  0  0  0  0
    3.2997   -1.8505   -2.9121 H   0  0  0  0  0  0  0  0  0  0  0  0
    3.8540   -3.0279   -1.8337 H   0  0  0  0  0  0  0  0  0  0  0  0
  1  2  1  0
  2  3  1  0
  3  4  1  0
  4  5  1  0
  5  6  1  0
  6  7  2  0
  6  8  1  0
  8  9  1  0
  9 10  1  0
  5 11  1  0
 11 12  1  0
 12 13  1  0
 13 14  1  0
 14 15  1  0
 15 16  2  3
 15 17  1  0
 12 18  1  0
 18 19  1  0
 19 20  2  0
 19  5  1  0
  1 21  1  0
  1 22  1  0
  1 23  1  0
  2 24  1  0
  2 25  1  0
  3 26  1  0
  3 27  1  0
  4 28  1  0
  4 29  1  0
  9 30  1  0
  9 31  1  0
 10 32  1  0
 10 33  1  0
 10 34  1  0
 11 35  1  0
 11 36  1  0
 12 37  1  0
 13 38  1  0
 13 39  1  0
 16 40  1  0
 17 41  1  0
 17 42  1  0
M  END
$$$$
