
     RDKit          3D

 54 58  0  0  0  0  0  0  0  0999 V2000
    5.6767   -2.9449    1.2917 C   0  0  0  0  0  0  0  0  0  0  0  0
    4.2715   -2.5181    0.8982 C   0  0  0  0  0  0  0  0  0  0  0  0
    4.2642   -1.2415    0.0700 C   0  0  0  0  0  0  0  0  0  0  0  0
    5.3086   -0.7332   -0.3378 O   0  0  0  0  0  0  0  0  0  0  0  0
    3.0178   -0.6881   -0.2075 N   0  0  0  0  0  0  0  0  0  0  0  0
    2.9592    0.5893   -0.9113 C   0  0  0  0  0  0  0  0  0  0  0  0
    1.7932    1.4347   -0.4085 C   0  0  0  0  0  0  0  0  0  0  0  0
    0.4120    0.7490   -0.6594 C   0  0  0  0  0  0  0  0  0  0  0  0
    0.6060   -0.7956   -0.6894 C   0  0  0  0  0  0  0  0  0  0  0  0
    1.7445   -1.2766    0.2021 C   0  0  0  0  0  0  0  0  0  0  0  0
   -0.0489    1.0767   -1.9997 O   0  0  0  0  0  0  0  0  0  0  0  0
   -0.5163    2.3488   -2.1843 C   0  0  0  0  0  0  0  0  0  0  0  0
   -0.6155    2.7819   -3.5058 C   0  0  0  0  0  0  0  0  0  0  0  0
   -1.0581    4.0775   -3.7843 C   0  0  0  0  0  0  0  0  0  0  0  0
   -1.4046    4.9349   -2.7392 C   0  0  0  0  0  0  0  0  0  0  0  0
   -1.9474    6.5284   -3.0898 Cl  0  0  0  0  0  0  0  0  0  0  0  0
   -1.3221    4.5069   -1.4167 C   0  0  0  0  0  0  0  0  0  0  0  0
   -0.8860    3.2061   -1.1474 C   0  0  0  0  0  0  0  0  0  0  0  0
   -0.8342    2.7065    0.2400 C   0  0  0  0  0  0  0  0  0  0  0  0
   -0.9860    3.4855    1.1742 O   0  0  0  0  0  0  0  0  0  0  0  0
   -0.6552    1.1987    0.3825 C   0  0  0  0  0  0  0  0  0  0  0  0
   -2.0387    0.5675    0.2462 C   0  0  0  0  0  0  0  0  0  0  0  0
   -2.0026   -0.3598    1.4102 C   0  0  0  0  0  0  0  0  0  0  0  0
   -3.0503   -1.3837    1.6341 C   0  0  0  0  0  0  0  0  0  0  0  0
   -2.9193   -2.2615    2.7192 C   0  0  0  0  0  0  0  0  0  0  0  0
   -3.8881   -3.2406    2.9564 C   0  0  0  0  0  0  0  0  0  0  0  0
   -4.9894   -3.3422    2.1099 C   0  0  0  0  0  0  0  0  0  0  0  0
   -6.1822   -4.5470    2.3976 Cl  0  0  0  0  0  0  0  0  0  0  0  0
   -5.1308   -2.4716    1.0301 C   0  0  0  0  0  0  0  0  0  0  0  0
   -4.1630   -1.4900    0.7911 C   0  0  0  0  0  0  0  0  0  0  0  0
   -0.9872   -0.2054    2.1963 N   0  0  0  0  0  0  0  0  0  0  0  0
   -0.2261    0.8798    1.7084 O   0  0  0  0  0  0  0  0  0  0  0  0
    6.1758   -2.1635    1.8744 H   0  0  0  0  0  0  0  0  0  0  0  0
    5.6421   -3.8550    1.8983 H   0  0  0  0  0  0  0  0  0  0  0  0
    6.2893   -3.1475    0.4070 H   0  0  0  0  0  0  0  0  0  0  0  0
    3.8126   -3.3195    0.3099 H   0  0  0  0  0  0  0  0  0  0  0  0
    3.6828   -2.3585    1.8075 H   0  0  0  0  0  0  0  0  0  0  0  0
    3.8957    1.1407   -0.7754 H   0  0  0  0  0  0  0  0  0  0  0  0
    2.8569    0.3767   -1.9818 H   0  0  0  0  0  0  0  0  0  0  0  0
    1.9431    1.6073    0.6646 H   0  0  0  0  0  0  0  0  0  0  0  0
    1.8503    2.4121   -0.8994 H   0  0  0  0  0  0  0  0  0  0  0  0
    0.8227   -1.1113   -1.7206 H   0  0  0  0  0  0  0  0  0  0  0  0
   -0.3125   -1.3295   -0.4316 H   0  0  0  0  0  0  0  0  0  0  0  0
    1.8077   -2.3670    0.1459 H   0  0  0  0  0  0  0  0  0  0  0  0
    1.5793   -1.0101    1.2504 H   0  0  0  0  0  0  0  0  0  0  0  0
   -0.3352    2.1187   -4.3213 H   0  0  0  0  0  0  0  0  0  0  0  0
   -1.1251    4.4137   -4.8166 H   0  0  0  0  0  0  0  0  0  0  0  0
   -1.6011    5.1737   -0.6035 H   0  0  0  0  0  0  0  0  0  0  0  0
   -2.1854    0.0406   -0.6998 H   0  0  0  0  0  0  0  0  0  0  0  0
   -2.8579    1.2806    0.3919 H   0  0  0  0  0  0  0  0  0  0  0  0
   -2.0654   -2.1879    3.3908 H   0  0  0  0  0  0  0  0  0  0  0  0
   -3.7770   -3.9148    3.8020 H   0  0  0  0  0  0  0  0  0  0  0  0
   -5.9940   -2.5503    0.3733 H   0  0  0  0  0  0  0  0  0  0  0  0
   -4.3062   -0.8214   -0.0528 H   0  0  0  0  0  0  0  0  0  0  0  0
  1  2  1  0
  2  3  1  0
  3  4  2  0
  3  5  1  0
  5  6  1  0
  6  7  1  0
  7  8  1  0
  8  9  1  0
  9 10  1  0
  8 11  1  0
 11 12  1  0
 12 13  2  0
 13 14  1  0
 14 15  2  0
 15 16  1  0
 15 17  1  0
 17 18  2  0
 18 19  1  0
 19 20  2  0
 19 21  1  0
 21 22  1  0
 22 23  1  0
 23 24  1  0
 24 25  2  0
 25 26  1  0
 26 27  2  0
 27 28  1  0
 27 29  1  0
 29 30  2  0
 23 31  2  0
 31 32  1  0
 10  5  1  0
 18 12  1  0
 32 21  1  0
 21  8  1  0
 30 24  1  0
  1 33  1  0
  1 34  1  0
  1 35  1  0
  2 36  1  0
  2 37  1  0
  6 38  1  0
  6 39  1  0
  7 40  1  0
  7 41  1  0
  9 42  1  0
  9 43  1  0
 10 44  1  0
 10 45  1  0
 13 46  1  0
 14 47  1  0
 17 48  1  0
 22 49  1  0
 22 50  1  0
 25 51  1  0
 26 52  1  0
 29 53  1  0
 30 54  1  0
M  END
$$$$
