
     RDKit          3D

 40 42  0  0  0  0  0  0  0  0999 V2000
    2.8038    3.8313    3.3133 C   0  0  0  0  0  0  0  0  0  0  0  0
    2.2829    2.8358    2.2913 C   0  0  0  0  0  0  0  0  0  0  0  0
    0.5124    2.5197    2.5847 S   0  0  0  0  0  0  0  0  0  0  0  0
    0.1587    1.3595    1.2706 C   0  0  0  0  0  0  0  0  0  0  0  0
   -1.1320    0.8953    1.1346 C   0  0  0  0  0  0  0  0  0  0  0  0
   -1.3833   -0.0038    0.1182 C   0  0  0  0  0  0  0  0  0  0  0  0
   -2.6616   -0.5053   -0.0978 N   0  0  0  0  0  0  0  0  0  0  0  0
   -2.8494   -1.3384   -1.2976 C   0  0  0  0  0  0  0  0  0  0  0  0
   -4.3316   -1.7232   -1.4231 C   0  0  0  0  0  0  0  0  0  0  0  0
   -4.8355   -2.4744   -0.3070 O   0  0  0  0  0  0  0  0  0  0  0  0
   -4.0763   -2.2858    0.8946 C   0  0  0  0  0  0  0  0  0  0  0  0
   -3.5096   -0.8640    1.0536 C   0  0  0  0  0  0  0  0  0  0  0  0
   -0.3966   -0.3741   -0.7151 N   0  0  0  0  0  0  0  0  0  0  0  0
    0.8376    0.1232   -0.5137 C   0  0  0  0  0  0  0  0  0  0  0  0
    1.9120   -0.3088   -1.4331 C   0  0  0  0  0  0  0  0  0  0  0  0
    3.2343    0.1601   -1.2934 C   0  0  0  0  0  0  0  0  0  0  0  0
    4.2534   -0.2479   -2.1624 C   0  0  0  0  0  0  0  0  0  0  0  0
    3.9678   -1.1372   -3.1928 C   0  0  0  0  0  0  0  0  0  0  0  0
    5.2172   -1.6409   -4.2619 Cl  0  0  0  0  0  0  0  0  0  0  0  0
    2.6747   -1.6204   -3.3609 C   0  0  0  0  0  0  0  0  0  0  0  0
    1.6598   -1.2087   -2.4887 C   0  0  0  0  0  0  0  0  0  0  0  0
    1.1591    0.9813    0.4646 N   0  0  0  0  0  0  0  0  0  0  0  0
    2.2787    4.7903    3.2452 H   0  0  0  0  0  0  0  0  0  0  0  0
    3.8673    4.0235    3.1368 H   0  0  0  0  0  0  0  0  0  0  0  0
    2.7020    3.4496    4.3349 H   0  0  0  0  0  0  0  0  0  0  0  0
    2.8430    1.8991    2.3764 H   0  0  0  0  0  0  0  0  0  0  0  0
    2.4226    3.2404    1.2836 H   0  0  0  0  0  0  0  0  0  0  0  0
   -1.9191    1.2469    1.7879 H   0  0  0  0  0  0  0  0  0  0  0  0
   -2.5513   -0.7875   -2.1975 H   0  0  0  0  0  0  0  0  0  0  0  0
   -2.2419   -2.2493   -1.2226 H   0  0  0  0  0  0  0  0  0  0  0  0
   -4.9508   -0.8235   -1.5168 H   0  0  0  0  0  0  0  0  0  0  0  0
   -4.4910   -2.3258   -2.3229 H   0  0  0  0  0  0  0  0  0  0  0  0
   -4.7331   -2.5229    1.7377 H   0  0  0  0  0  0  0  0  0  0  0  0
   -3.2649   -3.0235    0.8986 H   0  0  0  0  0  0  0  0  0  0  0  0
   -2.9673   -0.8203    2.0048 H   0  0  0  0  0  0  0  0  0  0  0  0
   -4.3358   -0.1453    1.0987 H   0  0  0  0  0  0  0  0  0  0  0  0
    3.4828    0.8573   -0.4943 H   0  0  0  0  0  0  0  0  0  0  0  0
    5.2617    0.1334   -2.0258 H   0  0  0  0  0  0  0  0  0  0  0  0
    2.4446   -2.3153   -4.1640 H   0  0  0  0  0  0  0  0  0  0  0  0
    0.6547   -1.6004   -2.6401 H   0  0  0  0  0  0  0  0  0  0  0  0
  1  2  1  0
  2  3  1  0
  3  4  1  0
  4  5  2  0
  5  6  1  0
  6  7  1  0
  7  8  1  0
  8  9  1  0
  9 10  1  0
 10 11  1  0
 11 12  1  0
  6 13  2  0
 13 14  1  0
 14 15  1  0
 15 16  2  0
 16 17  1  0
 17 18  2  0
 18 19  1  0
 18 20  1  0
 20 21  2  0
 14 22  2  0
 22  4  1  0
 12  7  1  0
 21 15  1  0
  1 23  1  0
  1 24  1  0
  1 25  1  0
  2 26  1  0
  2 27  1  0
  5 28  1  0
  8 29  1  0
  8 30  1  0
  9 31  1  0
  9 32  1  0
 11 33  1  0
 11 34  1  0
 12 35  1  0
 12 36  1  0
 16 37  1  0
 17 38  1  0
 20 39  1  0
 21 40  1  0
M  END
$$$$
