
     RDKit          3D

 41 42  0  0  0  0  0  0  0  0999 V2000
   -3.8786   -1.0350    1.4520 C   0  0  0  0  0  0  0  0  0  0  0  0
   -3.0442   -0.7498    0.3365 O   0  0  0  0  0  0  0  0  0  0  0  0
   -3.2281   -1.5017   -0.7943 C   0  0  0  0  0  0  0  0  0  0  0  0
   -4.0574   -2.6257   -0.8736 C   0  0  0  0  0  0  0  0  0  0  0  0
   -4.1585   -3.3490   -2.0629 C   0  0  0  0  0  0  0  0  0  0  0  0
   -3.4307   -2.9578   -3.1827 C   0  0  0  0  0  0  0  0  0  0  0  0
   -2.5999   -1.8414   -3.1139 C   0  0  0  0  0  0  0  0  0  0  0  0
   -2.4965   -1.0975   -1.9270 C   0  0  0  0  0  0  0  0  0  0  0  0
   -1.5634    0.0850   -1.8822 C   0  0  0  0  0  0  0  0  0  0  0  0
   -0.2749   -0.3040   -1.3559 N   0  0  0  0  0  0  0  0  0  0  0  0
    0.8119    0.5417   -1.4652 C   0  0  0  0  0  0  0  0  0  0  0  0
    0.7852    1.5799   -2.1209 O   0  0  0  0  0  0  0  0  0  0  0  0
    2.0536    0.0379   -0.7157 C   0  0  0  0  0  0  0  0  0  0  0  0
    3.0483    1.0316   -0.4924 O   0  0  0  0  0  0  0  0  0  0  0  0
    2.7894    1.7414    0.6499 C   0  0  0  0  0  0  0  0  0  0  0  0
    2.3204    3.0472    0.5149 C   0  0  0  0  0  0  0  0  0  0  0  0
    2.0655    3.8116    1.6542 C   0  0  0  0  0  0  0  0  0  0  0  0
    2.2823    3.2723    2.9234 C   0  0  0  0  0  0  0  0  0  0  0  0
    2.7753    1.9728    3.0585 C   0  0  0  0  0  0  0  0  0  0  0  0
    3.0568    1.2213    1.9197 C   0  0  0  0  0  0  0  0  0  0  0  0
    3.5413   -0.0510    2.0750 O   0  0  0  0  0  0  0  0  0  0  0  0
    4.9641   -0.0459    1.9612 C   0  0  0  0  0  0  0  0  0  0  0  0
   -3.6727   -0.2913    2.2283 H   0  0  0  0  0  0  0  0  0  0  0  0
   -3.6451   -2.0213    1.8653 H   0  0  0  0  0  0  0  0  0  0  0  0
   -4.9368   -0.9503    1.1894 H   0  0  0  0  0  0  0  0  0  0  0  0
   -4.6325   -2.9750   -0.0230 H   0  0  0  0  0  0  0  0  0  0  0  0
   -4.8029   -4.2241   -2.1126 H   0  0  0  0  0  0  0  0  0  0  0  0
   -3.5049   -3.5238   -4.1086 H   0  0  0  0  0  0  0  0  0  0  0  0
   -2.0230   -1.5515   -3.9900 H   0  0  0  0  0  0  0  0  0  0  0  0
   -1.9664    0.8896   -1.2560 H   0  0  0  0  0  0  0  0  0  0  0  0
   -1.4318    0.5110   -2.8838 H   0  0  0  0  0  0  0  0  0  0  0  0
   -0.2913   -0.9601   -0.5861 H   0  0  0  0  0  0  0  0  0  0  0  0
    1.7478   -0.4629    0.2118 H   0  0  0  0  0  0  0  0  0  0  0  0
    2.5116   -0.7288   -1.3523 H   0  0  0  0  0  0  0  0  0  0  0  0
    2.1453    3.4612   -0.4738 H   0  0  0  0  0  0  0  0  0  0  0  0
    1.6942    4.8285    1.5478 H   0  0  0  0  0  0  0  0  0  0  0  0
    2.0728    3.8674    3.8083 H   0  0  0  0  0  0  0  0  0  0  0  0
    2.9478    1.5533    4.0446 H   0  0  0  0  0  0  0  0  0  0  0  0
    5.3185    0.5399    1.1032 H   0  0  0  0  0  0  0  0  0  0  0  0
    5.4129    0.3314    2.8856 H   0  0  0  0  0  0  0  0  0  0  0  0
    5.2944   -1.0771    1.8212 H   0  0  0  0  0  0  0  0  0  0  0  0
  1  2  1  0
  2  3  1  0
  3  4  2  0
  4  5  1  0
  5  6  2  0
  6  7  1  0
  7  8  2  0
  8  9  1  0
  9 10  1  0
 10 11  1  0
 11 12  2  0
 11 13  1  0
 13 14  1  0
 14 15  1  0
 15 16  2  0
 16 17  1  0
 17 18  2  0
 18 19  1  0
 19 20  2  0
 20 21  1  0
 21 22  1  0
  8  3  1  0
 20 15  1  0
  1 23  1  0
  1 24  1  0
  1 25  1  0
  4 26  1  0
  5 27  1  0
  6 28  1  0
  7 29  1  0
  9 30  1  0
  9 31  1  0
 10 32  1  0
 13 33  1  0
 13 34  1  0
 16 35  1  0
 17 36  1  0
 18 37  1  0
 19 38  1  0
 22 39  1  0
 22 40  1  0
 22 41  1  0
M  END
$$$$
