
     RDKit          3D

 50 52  0  0  0  0  0  0  0  0999 V2000
    7.8634   -0.4412    0.1440 C   0  0  0  0  0  0  0  0  0  0  0  0
    6.3740   -0.5511   -0.0198 C   0  0  0  0  0  0  0  0  0  0  0  0
    5.7889   -1.7914   -0.3129 C   0  0  0  0  0  0  0  0  0  0  0  0
    4.4083   -1.9144   -0.5003 C   0  0  0  0  0  0  0  0  0  0  0  0
    3.7031   -3.4393   -0.8493 Cl  0  0  0  0  0  0  0  0  0  0  0  0
    3.6425   -0.7540   -0.3949 C   0  0  0  0  0  0  0  0  0  0  0  0
    2.2921   -0.6634   -0.5428 O   0  0  0  0  0  0  0  0  0  0  0  0
    1.9429    0.6493   -0.3659 C   0  0  0  0  0  0  0  0  0  0  0  0
    0.5418    1.0129   -0.4704 C   0  0  0  0  0  0  0  0  0  0  0  0
    0.1194    2.1548   -0.3132 O   0  0  0  0  0  0  0  0  0  0  0  0
   -0.2852   -0.0517   -0.7579 N   0  0  0  0  0  0  0  0  0  0  0  0
   -1.7288    0.0613   -0.8633 C   0  0  0  0  0  0  0  0  0  0  0  0
   -2.5095   -0.3500    0.4317 C   0  0  0  0  0  0  0  0  0  0  0  0
   -2.1001   -1.7904    0.8372 C   0  0  0  0  0  0  0  0  0  0  0  0
   -2.0892    0.5601    1.6137 C   0  0  0  0  0  0  0  0  0  0  0  0
   -4.0007   -0.2912    0.2847 N   0  0  0  0  0  0  0  0  0  0  0  0
   -4.5380    1.0619    0.0021 C   0  0  0  0  0  0  0  0  0  0  0  0
   -6.0762    1.0662   -0.0460 C   0  0  0  0  0  0  0  0  0  0  0  0
   -6.5667    0.1530   -1.0337 O   0  0  0  0  0  0  0  0  0  0  0  0
   -6.1072   -1.1694   -0.7364 C   0  0  0  0  0  0  0  0  0  0  0  0
   -4.5697   -1.2319   -0.7081 C   0  0  0  0  0  0  0  0  0  0  0  0
    3.0752    1.4093   -0.1019 C   0  0  0  0  0  0  0  0  0  0  0  0
    3.1135    2.8732    0.1480 C   0  0  0  0  0  0  0  0  0  0  0  0
    4.1775    0.4988   -0.1198 C   0  0  0  0  0  0  0  0  0  0  0  0
    5.5714    0.6031    0.0652 C   0  0  0  0  0  0  0  0  0  0  0  0
    8.2788   -1.3628    0.5650 H   0  0  0  0  0  0  0  0  0  0  0  0
    8.1218    0.3734    0.8288 H   0  0  0  0  0  0  0  0  0  0  0  0
    8.3326   -0.2511   -0.8261 H   0  0  0  0  0  0  0  0  0  0  0  0
    6.4155   -2.6777   -0.3961 H   0  0  0  0  0  0  0  0  0  0  0  0
    0.1540   -0.9617   -0.8505 H   0  0  0  0  0  0  0  0  0  0  0  0
   -1.9721    1.0901   -1.1485 H   0  0  0  0  0  0  0  0  0  0  0  0
   -2.0090   -0.5866   -1.7003 H   0  0  0  0  0  0  0  0  0  0  0  0
   -2.7171   -2.1600    1.6650 H   0  0  0  0  0  0  0  0  0  0  0  0
   -2.1891   -2.4939    0.0025 H   0  0  0  0  0  0  0  0  0  0  0  0
   -1.0576   -1.8333    1.1741 H   0  0  0  0  0  0  0  0  0  0  0  0
   -2.1648    1.6233    1.3635 H   0  0  0  0  0  0  0  0  0  0  0  0
   -1.0508    0.3782    1.9141 H   0  0  0  0  0  0  0  0  0  0  0  0
   -2.7107    0.3728    2.4977 H   0  0  0  0  0  0  0  0  0  0  0  0
   -4.1637    1.4226   -0.9629 H   0  0  0  0  0  0  0  0  0  0  0  0
   -4.2396    1.7760    0.7746 H   0  0  0  0  0  0  0  0  0  0  0  0
   -6.4342    2.0655   -0.3139 H   0  0  0  0  0  0  0  0  0  0  0  0
   -6.5049    0.8109    0.9308 H   0  0  0  0  0  0  0  0  0  0  0  0
   -6.4889   -1.8348   -1.5175 H   0  0  0  0  0  0  0  0  0  0  0  0
   -6.5360   -1.4983    0.2181 H   0  0  0  0  0  0  0  0  0  0  0  0
   -4.2961   -2.2650   -0.4760 H   0  0  0  0  0  0  0  0  0  0  0  0
   -4.1967   -0.9944   -1.7110 H   0  0  0  0  0  0  0  0  0  0  0  0
    2.5170    3.1267    1.0303 H   0  0  0  0  0  0  0  0  0  0  0  0
    4.1345    3.2259    0.3219 H   0  0  0  0  0  0  0  0  0  0  0  0
    2.7131    3.4194   -0.7122 H   0  0  0  0  0  0  0  0  0  0  0  0
    6.0212    1.5706    0.2741 H   0  0  0  0  0  0  0  0  0  0  0  0
  1  2  1  0
  2  3  2  0
  3  4  1  0
  4  5  1  0
  4  6  2  0
  6  7  1  0
  7  8  1  0
  8  9  1  0
  9 10  2  0
  9 11  1  0
 11 12  1  0
 12 13  1  0
 13 14  1  0
 13 15  1  0
 13 16  1  0
 16 17  1  0
 17 18  1  0
 18 19  1  0
 19 20  1  0
 20 21  1  0
  8 22  2  0
 22 23  1  0
 22 24  1  0
 24 25  2  0
 25  2  1  0
 24  6  1  0
 21 16  1  0
  1 26  1  0
  1 27  1  0
  1 28  1  0
  3 29  1  0
 11 30  1  0
 12 31  1  0
 12 32  1  0
 14 33  1  0
 14 34  1  0
 14 35  1  0
 15 36  1  0
 15 37  1  0
 15 38  1  0
 17 39  1  0
 17 40  1  0
 18 41  1  0
 18 42  1  0
 20 43  1  0
 20 44  1  0
 21 45  1  0
 21 46  1  0
 23 47  1  0
 23 48  1  0
 23 49  1  0
 25 50  1  0
M  END
$$$$
