
     RDKit          3D

 53 56  0  0  0  0  0  0  0  0999 V2000
    2.4710   -4.1654    0.8822 C   0  0  0  0  0  0  0  0  0  0  0  0
    3.2691   -3.7920   -0.2339 O   0  0  0  0  0  0  0  0  0  0  0  0
    3.1033   -2.5220   -0.7119 C   0  0  0  0  0  0  0  0  0  0  0  0
    3.9041   -2.1994   -1.8064 C   0  0  0  0  0  0  0  0  0  0  0  0
    3.8310   -0.9363   -2.4019 C   0  0  0  0  0  0  0  0  0  0  0  0
    2.9532    0.0290   -1.9040 C   0  0  0  0  0  0  0  0  0  0  0  0
    2.7986    1.2863   -2.4231 O   0  0  0  0  0  0  0  0  0  0  0  0
    3.5173    1.6010   -3.6085 C   0  0  0  0  0  0  0  0  0  0  0  0
    2.1548   -0.2774   -0.7878 C   0  0  0  0  0  0  0  0  0  0  0  0
    1.1779    0.7249   -0.2141 C   0  0  0  0  0  0  0  0  0  0  0  0
   -0.1459    0.5584   -0.8303 N   0  0  0  0  0  0  0  0  0  0  0  0
   -1.1191    1.3808   -0.1797 N   0  0  0  0  0  0  0  0  0  0  0  0
   -1.8344    0.9147    0.9296 C   0  0  0  0  0  0  0  0  0  0  0  0
   -1.6400   -0.4864    1.3940 C   0  0  0  0  0  0  0  0  0  0  0  0
   -1.3656   -0.7106    2.7475 C   0  0  0  0  0  0  0  0  0  0  0  0
   -1.1947   -2.0134    3.2144 C   0  0  0  0  0  0  0  0  0  0  0  0
   -1.3156   -3.0935    2.3372 C   0  0  0  0  0  0  0  0  0  0  0  0
   -1.6173   -2.8823    0.9860 C   0  0  0  0  0  0  0  0  0  0  0  0
   -1.7466   -4.0335    0.0332 C   0  0  0  0  0  0  0  0  0  0  0  0
   -1.7815   -1.5706    0.5199 C   0  0  0  0  0  0  0  0  0  0  0  0
   -2.6594    1.6671    1.5938 N   0  0  0  0  0  0  0  0  0  0  0  0
   -2.8721    2.9825    1.1603 C   0  0  0  0  0  0  0  0  0  0  0  0
   -3.7596    3.7869    1.8796 C   0  0  0  0  0  0  0  0  0  0  0  0
   -4.0128    5.1033    1.4830 C   0  0  0  0  0  0  0  0  0  0  0  0
   -3.3784    5.6290    0.3578 C   0  0  0  0  0  0  0  0  0  0  0  0
   -2.4907    4.8378   -0.3703 C   0  0  0  0  0  0  0  0  0  0  0  0
   -2.2448    3.5206    0.0369 C   0  0  0  0  0  0  0  0  0  0  0  0
   -1.3050    2.6634   -0.7044 C   0  0  0  0  0  0  0  0  0  0  0  0
   -0.7388    3.0826   -1.7135 O   0  0  0  0  0  0  0  0  0  0  0  0
    2.2278   -1.5617   -0.2090 C   0  0  0  0  0  0  0  0  0  0  0  0
    2.6889   -3.5380    1.7527 H   0  0  0  0  0  0  0  0  0  0  0  0
    2.7250   -5.1966    1.1442 H   0  0  0  0  0  0  0  0  0  0  0  0
    1.4070   -4.1388    0.6313 H   0  0  0  0  0  0  0  0  0  0  0  0
    4.5913   -2.9418   -2.2054 H   0  0  0  0  0  0  0  0  0  0  0  0
    4.4746   -0.7430   -3.2532 H   0  0  0  0  0  0  0  0  0  0  0  0
    4.5976    1.5866   -3.4287 H   0  0  0  0  0  0  0  0  0  0  0  0
    3.2425    2.6180   -3.9058 H   0  0  0  0  0  0  0  0  0  0  0  0
    3.2422    0.9299   -4.4285 H   0  0  0  0  0  0  0  0  0  0  0  0
    1.5471    1.7491   -0.3472 H   0  0  0  0  0  0  0  0  0  0  0  0
    1.1222    0.5703    0.8712 H   0  0  0  0  0  0  0  0  0  0  0  0
   -0.0611    0.9145   -1.7909 H   0  0  0  0  0  0  0  0  0  0  0  0
   -1.2841    0.1270    3.4358 H   0  0  0  0  0  0  0  0  0  0  0  0
   -0.9753   -2.1878    4.2647 H   0  0  0  0  0  0  0  0  0  0  0  0
   -1.1830   -4.1035    2.7192 H   0  0  0  0  0  0  0  0  0  0  0  0
   -0.9133   -4.0286   -0.6767 H   0  0  0  0  0  0  0  0  0  0  0  0
   -1.7411   -4.9920    0.5619 H   0  0  0  0  0  0  0  0  0  0  0  0
   -2.6890   -3.9657   -0.5188 H   0  0  0  0  0  0  0  0  0  0  0  0
   -2.0230   -1.3962   -0.5265 H   0  0  0  0  0  0  0  0  0  0  0  0
   -4.2588    3.3797    2.7557 H   0  0  0  0  0  0  0  0  0  0  0  0
   -4.7063    5.7159    2.0541 H   0  0  0  0  0  0  0  0  0  0  0  0
   -3.5751    6.6529    0.0486 H   0  0  0  0  0  0  0  0  0  0  0  0
   -1.9923    5.2446   -1.2481 H   0  0  0  0  0  0  0  0  0  0  0  0
    1.5786   -1.7801    0.6339 H   0  0  0  0  0  0  0  0  0  0  0  0
  1  2  1  0
  2  3  1  0
  3  4  2  0
  4  5  1  0
  5  6  2  0
  6  7  1  0
  7  8  1  0
  6  9  1  0
  9 10  1  0
 10 11  1  0
 11 12  1  0
 12 13  1  0
 13 14  1  0
 14 15  2  0
 15 16  1  0
 16 17  2  0
 17 18  1  0
 18 19  1  0
 18 20  2  0
 13 21  2  0
 21 22  1  0
 22 23  2  0
 23 24  1  0
 24 25  2  0
 25 26  1  0
 26 27  2  0
 27 28  1  0
 28 29  2  0
  9 30  2  0
 30  3  1  0
 28 12  1  0
 20 14  1  0
 27 22  1  0
  1 31  1  0
  1 32  1  0
  1 33  1  0
  4 34  1  0
  5 35  1  0
  8 36  1  0
  8 37  1  0
  8 38  1  0
 10 39  1  0
 10 40  1  0
 11 41  1  0
 15 42  1  0
 16 43  1  0
 17 44  1  0
 19 45  1  0
 19 46  1  0
 19 47  1  0
 20 48  1  0
 23 49  1  0
 24 50  1  0
 25 51  1  0
 26 52  1  0
 30 53  1  0
M  END
$$$$
