
     RDKit          3D

 52 55  0  0  0  0  0  0  0  0999 V2000
    3.4439    2.0176    1.5644 O   0  0  0  0  0  0  0  0  0  0  0  0
    3.3562    1.2963    0.5722 C   0  0  0  0  0  0  0  0  0  0  0  0
    2.3583    1.4488   -0.3774 N   0  0  0  0  0  0  0  0  0  0  0  0
    1.2886    2.3083    0.0004 N   0  0  0  0  0  0  0  0  0  0  0  0
    0.0619    1.5881    0.0695 C   0  0  0  0  0  0  0  0  0  0  0  0
   -1.0386    2.2173    0.6088 C   0  0  0  0  0  0  0  0  0  0  0  0
   -2.2229    1.5167    0.6356 C   0  0  0  0  0  0  0  0  0  0  0  0
   -3.3689    2.0523    1.1732 N   0  0  0  0  0  0  0  0  0  0  0  0
   -3.6050    3.4782    1.3728 C   0  0  0  0  0  0  0  0  0  0  0  0
   -5.1278    3.6085    1.3690 C   0  0  0  0  0  0  0  0  0  0  0  0
   -5.6043    2.2351    1.8189 C   0  0  0  0  0  0  0  0  0  0  0  0
   -4.6116    1.2932    1.1436 C   0  0  0  0  0  0  0  0  0  0  0  0
   -2.2751    0.2634    0.1526 N   0  0  0  0  0  0  0  0  0  0  0  0
   -1.1759   -0.2877   -0.3825 C   0  0  0  0  0  0  0  0  0  0  0  0
   -1.2541   -1.5685   -0.8662 N   0  0  0  0  0  0  0  0  0  0  0  0
   -2.5494   -2.1957   -1.0512 C   0  0  0  0  0  0  0  0  0  0  0  0
   -2.1917   -3.5008   -1.7572 C   0  0  0  0  0  0  0  0  0  0  0  0
   -1.0208   -3.0918   -2.6397 C   0  0  0  0  0  0  0  0  0  0  0  0
   -0.2515   -2.0868   -1.7793 C   0  0  0  0  0  0  0  0  0  0  0  0
    0.0002    0.3470   -0.4470 N   0  0  0  0  0  0  0  0  0  0  0  0
    4.3104    0.1724    0.3579 C   0  0  0  0  0  0  0  0  0  0  0  0
    4.5160   -0.4012   -0.9057 C   0  0  0  0  0  0  0  0  0  0  0  0
    5.4275   -1.4522   -1.0617 C   0  0  0  0  0  0  0  0  0  0  0  0
    6.1398   -1.9251    0.0499 C   0  0  0  0  0  0  0  0  0  0  0  0
    7.0961   -3.0283   -0.1138 N   0  0  0  0  0  4  0  0  0  0  0  0
    7.7474   -3.3784    0.8796 O   0  0  0  0  0  0  0  0  0  0  0  0
    7.1922   -3.5440   -1.2364 O   0  0  0  0  0  1  0  0  0  0  0  0
    5.9505   -1.3502    1.3129 C   0  0  0  0  0  0  0  0  0  0  0  0
    5.0381   -0.3005    1.4611 C   0  0  0  0  0  0  0  0  0  0  0  0
    2.0288    0.6283   -0.8886 H   0  0  0  0  0  0  0  0  0  0  0  0
    1.4923    2.7280    0.9156 H   0  0  0  0  0  0  0  0  0  0  0  0
   -0.9593    3.2206    1.0008 H   0  0  0  0  0  0  0  0  0  0  0  0
   -3.1753    4.1013    0.5793 H   0  0  0  0  0  0  0  0  0  0  0  0
   -3.1922    3.7909    2.3394 H   0  0  0  0  0  0  0  0  0  0  0  0
   -5.4795    4.4170    2.0186 H   0  0  0  0  0  0  0  0  0  0  0  0
   -5.4830    3.8099    0.3497 H   0  0  0  0  0  0  0  0  0  0  0  0
   -5.5243    2.1512    2.9095 H   0  0  0  0  0  0  0  0  0  0  0  0
   -6.6383    2.0290    1.5317 H   0  0  0  0  0  0  0  0  0  0  0  0
   -4.9205    1.0939    0.1100 H   0  0  0  0  0  0  0  0  0  0  0  0
   -4.5384    0.3458    1.6891 H   0  0  0  0  0  0  0  0  0  0  0  0
   -3.0616   -2.3884   -0.1020 H   0  0  0  0  0  0  0  0  0  0  0  0
   -3.1950   -1.5854   -1.6950 H   0  0  0  0  0  0  0  0  0  0  0  0
   -1.8645   -4.2509   -1.0265 H   0  0  0  0  0  0  0  0  0  0  0  0
   -3.0281   -3.9153   -2.3263 H   0  0  0  0  0  0  0  0  0  0  0  0
   -1.3942   -2.5967   -3.5448 H   0  0  0  0  0  0  0  0  0  0  0  0
   -0.4023   -3.9397   -2.9470 H   0  0  0  0  0  0  0  0  0  0  0  0
    0.2037   -1.3214   -2.4186 H   0  0  0  0  0  0  0  0  0  0  0  0
    0.5390   -2.5878   -1.2106 H   0  0  0  0  0  0  0  0  0  0  0  0
    3.9950   -0.0291   -1.7852 H   0  0  0  0  0  0  0  0  0  0  0  0
    5.5757   -1.8822   -2.0510 H   0  0  0  0  0  0  0  0  0  0  0  0
    6.4997   -1.7009    2.1849 H   0  0  0  0  0  0  0  0  0  0  0  0
    4.8929    0.1496    2.4428 H   0  0  0  0  0  0  0  0  0  0  0  0
  1  2  2  0
  2  3  1  0
  3  4  1  0
  4  5  1  0
  5  6  2  0
  6  7  1  0
  7  8  1  0
  8  9  1  0
  9 10  1  0
 10 11  1  0
 11 12  1  0
  7 13  2  0
 13 14  1  0
 14 15  1  0
 15 16  1  0
 16 17  1  0
 17 18  1  0
 18 19  1  0
 14 20  2  0
  2 21  1  0
 21 22  2  0
 22 23  1  0
 23 24  2  0
 24 25  1  0
 25 26  2  0
 25 27  1  0
 24 28  1  0
 28 29  2  0
 20  5  1  0
 29 21  1  0
 12  8  1  0
 19 15  1  0
  3 30  1  0
  4 31  1  0
  6 32  1  0
  9 33  1  0
  9 34  1  0
 10 35  1  0
 10 36  1  0
 11 37  1  0
 11 38  1  0
 12 39  1  0
 12 40  1  0
 16 41  1  0
 16 42  1  0
 17 43  1  0
 17 44  1  0
 18 45  1  0
 18 46  1  0
 19 47  1  0
 19 48  1  0
 22 49  1  0
 23 50  1  0
 28 51  1  0
 29 52  1  0
M  CHG  2  25   1  27  -1
M  END
$$$$
