
     RDKit          3D

 45 47  0  0  0  0  0  0  0  0999 V2000
   -5.0679   -1.3059   -2.1887 C   0  0  0  0  0  0  0  0  0  0  0  0
   -4.1239   -0.7395   -1.2861 O   0  0  0  0  0  0  0  0  0  0  0  0
   -4.2222   -1.1205    0.0346 C   0  0  0  0  0  0  0  0  0  0  0  0
   -5.2277   -1.9398    0.5577 C   0  0  0  0  0  0  0  0  0  0  0  0
   -5.2261   -2.2701    1.9136 C   0  0  0  0  0  0  0  0  0  0  0  0
   -4.2273   -1.7802    2.7512 C   0  0  0  0  0  0  0  0  0  0  0  0
   -3.2215   -0.9579    2.2390 C   0  0  0  0  0  0  0  0  0  0  0  0
   -3.2108   -0.6211    0.8846 C   0  0  0  0  0  0  0  0  0  0  0  0
   -2.2158    0.1854    0.2866 N   0  0  0  0  0  0  0  0  0  0  0  0
   -1.1453    0.8189    0.8905 C   0  0  0  0  0  0  0  0  0  0  0  0
   -0.9216    0.8504    2.0947 O   0  0  0  0  0  0  0  0  0  0  0  0
   -0.2205    1.4914   -0.1367 C   0  0  0  0  0  0  0  0  0  0  0  0
    0.8121    2.4310    0.5169 C   0  0  0  0  0  0  0  0  0  0  0  0
    2.2543    1.9365    0.3940 C   0  0  0  0  0  0  0  0  0  0  0  0
    2.3119    0.4972    0.6826 N   0  0  0  0  0  0  0  0  0  0  0  0
    3.7840   -0.1547    1.2235 S   0  0  0  0  0  6  0  0  0  0  0  0
    3.5523   -1.5456    1.5619 O   0  0  0  0  0  0  0  0  0  0  0  0
    4.4018    0.7604    2.1587 O   0  0  0  0  0  0  0  0  0  0  0  0
    4.8913   -0.2449   -0.1797 C   0  0  0  0  0  0  0  0  0  0  0  0
    5.2850   -1.3130   -0.9663 C   0  0  0  0  0  0  0  0  0  0  0  0
    6.1910   -0.9253   -1.9955 C   0  0  0  0  0  0  0  0  0  0  0  0
    6.4634    0.4244   -1.9598 C   0  0  0  0  0  0  0  0  0  0  0  0
    5.6229    1.2144   -0.6970 S   0  0  0  0  0  0  0  0  0  0  0  0
    1.4917   -0.3729   -0.1847 C   0  0  0  0  0  0  0  0  0  0  0  0
    0.4717    0.4264   -0.9949 C   0  0  0  0  0  0  0  0  0  0  0  0
   -4.9980   -2.3990   -2.1981 H   0  0  0  0  0  0  0  0  0  0  0  0
   -6.0853   -0.9737   -1.9558 H   0  0  0  0  0  0  0  0  0  0  0  0
   -4.8233   -0.9492   -3.1947 H   0  0  0  0  0  0  0  0  0  0  0  0
   -6.0252   -2.3410   -0.0595 H   0  0  0  0  0  0  0  0  0  0  0  0
   -6.0062   -2.9103    2.3187 H   0  0  0  0  0  0  0  0  0  0  0  0
   -4.2233   -2.0403    3.8073 H   0  0  0  0  0  0  0  0  0  0  0  0
   -2.4565   -0.6032    2.9226 H   0  0  0  0  0  0  0  0  0  0  0  0
   -2.3566    0.3154   -0.7107 H   0  0  0  0  0  0  0  0  0  0  0  0
   -0.8689    2.1010   -0.7813 H   0  0  0  0  0  0  0  0  0  0  0  0
    0.7539    3.4171    0.0368 H   0  0  0  0  0  0  0  0  0  0  0  0
    0.5819    2.6107    1.5735 H   0  0  0  0  0  0  0  0  0  0  0  0
    2.6312    2.1312   -0.6167 H   0  0  0  0  0  0  0  0  0  0  0  0
    2.8734    2.5093    1.0908 H   0  0  0  0  0  0  0  0  0  0  0  0
    4.9340   -2.3259   -0.7947 H   0  0  0  0  0  0  0  0  0  0  0  0
    6.6263   -1.6032   -2.7214 H   0  0  0  0  0  0  0  0  0  0  0  0
    7.1179    0.9868   -2.6131 H   0  0  0  0  0  0  0  0  0  0  0  0
    2.1225   -0.9389   -0.8803 H   0  0  0  0  0  0  0  0  0  0  0  0
    0.9681   -1.0944    0.4535 H   0  0  0  0  0  0  0  0  0  0  0  0
   -0.2478   -0.2670   -1.4443 H   0  0  0  0  0  0  0  0  0  0  0  0
    0.9792    0.9203   -1.8335 H   0  0  0  0  0  0  0  0  0  0  0  0
  1  2  1  0
  2  3  1  0
  3  4  2  0
  4  5  1  0
  5  6  2  0
  6  7  1  0
  7  8  2  0
  8  9  1  0
  9 10  1  0
 10 11  2  0
 10 12  1  0
 12 13  1  0
 13 14  1  0
 14 15  1  0
 15 16  1  0
 16 17  2  0
 16 18  2  0
 16 19  1  0
 19 20  2  0
 20 21  1  0
 21 22  2  0
 22 23  1  0
 15 24  1  0
 24 25  1  0
  8  3  1  0
 25 12  1  0
 23 19  1  0
  1 26  1  0
  1 27  1  0
  1 28  1  0
  4 29  1  0
  5 30  1  0
  6 31  1  0
  7 32  1  0
  9 33  1  0
 12 34  1  0
 13 35  1  0
 13 36  1  0
 14 37  1  0
 14 38  1  0
 20 39  1  0
 21 40  1  0
 22 41  1  0
 24 42  1  0
 24 43  1  0
 25 44  1  0
 25 45  1  0
M  END
$$$$
