
     RDKit          3D

 42 45  0  0  0  0  0  0  0  0999 V2000
   -3.7102   -0.3981    2.1757 O   0  0  0  0  0  0  0  0  0  0  0  0
   -3.9204   -0.0111    1.0230 C   0  0  0  0  0  0  0  0  0  0  0  0
   -2.7928    0.1309    0.0856 C   0  0  0  0  0  0  0  0  0  0  0  0
   -1.4174    0.0031    0.4289 C   0  0  0  0  0  0  0  0  0  0  0  0
   -0.7339    0.1914   -0.7466 C   0  0  0  0  0  0  0  0  0  0  0  0
    0.6924    0.2075   -1.1463 C   0  0  0  0  0  0  0  0  0  0  0  0
    1.4572   -0.2112   -0.0161 O   0  0  0  0  0  0  0  0  0  0  0  0
    2.8134   -0.2785   -0.1742 C   0  0  0  0  0  0  0  0  0  0  0  0
    3.5081   -0.7258    0.9528 C   0  0  0  0  0  0  0  0  0  0  0  0
    4.9019   -0.8470    0.9402 C   0  0  0  0  0  0  0  0  0  0  0  0
    5.6166   -0.5150   -0.2160 C   0  0  0  0  0  0  0  0  0  0  0  0
    7.0300   -0.6277   -0.2656 N   0  0  0  0  0  0  0  0  0  0  0  0
    7.9012   -1.0454    0.7126 C   0  0  0  0  0  0  0  0  0  0  0  0
    9.1395   -1.0114    0.2749 N   0  0  0  0  0  0  0  0  0  0  0  0
    8.9909   -0.5588   -1.0000 C   0  0  0  0  0  0  0  0  0  0  0  0
    7.7376   -0.3099   -1.3800 N   0  0  0  0  0  0  0  0  0  0  0  0
    4.9207   -0.0645   -1.3476 C   0  0  0  0  0  0  0  0  0  0  0  0
    3.5255    0.0530   -1.3256 C   0  0  0  0  0  0  0  0  0  0  0  0
   -1.6317    0.4145   -1.7421 O   0  0  0  0  0  0  0  0  0  0  0  0
   -2.9125    0.3705   -1.2320 N   0  0  0  0  0  0  0  0  0  0  0  0
   -5.2135    0.2916    0.6149 N   0  0  0  0  0  0  0  0  0  0  0  0
   -5.6518    0.8793   -0.6438 C   0  0  0  0  0  0  0  0  0  0  0  0
   -7.1061    1.2666   -0.4002 C   0  0  0  0  0  0  0  0  0  0  0  0
   -7.5639    0.2512    0.6369 C   0  0  0  0  0  0  0  0  0  0  0  0
   -6.3338    0.0942    1.5169 C   0  0  0  0  0  0  0  0  0  0  0  0
   -1.0000   -0.1998    1.4051 H   0  0  0  0  0  0  0  0  0  0  0  0
    0.8414   -0.4851   -1.9828 H   0  0  0  0  0  0  0  0  0  0  0  0
    0.9703    1.2268   -1.4385 H   0  0  0  0  0  0  0  0  0  0  0  0
    2.9548   -0.9880    1.8532 H   0  0  0  0  0  0  0  0  0  0  0  0
    5.3851   -1.2029    1.8454 H   0  0  0  0  0  0  0  0  0  0  0  0
    7.5937   -1.3561    1.6995 H   0  0  0  0  0  0  0  0  0  0  0  0
    9.8233   -0.4051   -1.6753 H   0  0  0  0  0  0  0  0  0  0  0  0
    5.4519    0.2013   -2.2610 H   0  0  0  0  0  0  0  0  0  0  0  0
    3.0358    0.4064   -2.2270 H   0  0  0  0  0  0  0  0  0  0  0  0
   -5.5772    0.1149   -1.4243 H   0  0  0  0  0  0  0  0  0  0  0  0
   -5.0449    1.7492   -0.9076 H   0  0  0  0  0  0  0  0  0  0  0  0
   -7.1593    2.2775    0.0225 H   0  0  0  0  0  0  0  0  0  0  0  0
   -7.7057    1.2460   -1.3146 H   0  0  0  0  0  0  0  0  0  0  0  0
   -7.7993   -0.7001    0.1445 H   0  0  0  0  0  0  0  0  0  0  0  0
   -8.4450    0.5768    1.1964 H   0  0  0  0  0  0  0  0  0  0  0  0
   -6.2897    0.8743    2.2852 H   0  0  0  0  0  0  0  0  0  0  0  0
   -6.2822   -0.8856    2.0018 H   0  0  0  0  0  0  0  0  0  0  0  0
  1  2  2  0
  2  3  1  0
  3  4  1  0
  4  5  2  0
  5  6  1  0
  6  7  1  0
  7  8  1  0
  8  9  2  0
  9 10  1  0
 10 11  2  0
 11 12  1  0
 12 13  1  0
 13 14  2  0
 14 15  1  0
 15 16  2  0
 11 17  1  0
 17 18  2  0
  5 19  1  0
 19 20  1  0
  2 21  1  0
 21 22  1  0
 22 23  1  0
 23 24  1  0
 24 25  1  0
 20  3  2  0
 25 21  1  0
 18  8  1  0
 16 12  1  0
  4 26  1  0
  6 27  1  0
  6 28  1  0
  9 29  1  0
 10 30  1  0
 13 31  1  0
 15 32  1  0
 17 33  1  0
 18 34  1  0
 22 35  1  0
 22 36  1  0
 23 37  1  0
 23 38  1  0
 24 39  1  0
 24 40  1  0
 25 41  1  0
 25 42  1  0
M  END
$$$$
