
     RDKit          3D

 46 49  0  0  0  0  0  0  0  0999 V2000
   -0.2406   -1.8607    1.7871 O   0  0  0  0  0  0  0  0  0  0  0  0
    0.2838   -1.3428    0.8053 C   0  0  0  0  0  0  0  0  0  0  0  0
    1.7421   -1.5916    0.4515 C   0  0  0  0  0  0  0  0  0  0  0  0
    2.6194   -0.0035    0.2552 S   0  0  0  0  0  0  0  0  0  0  0  0
    4.2517   -0.5711   -0.2047 C   0  0  0  0  0  0  0  0  0  0  0  0
    4.3801   -1.9182   -0.3530 N   0  0  0  0  0  0  0  0  0  0  0  0
    5.5972   -2.4180   -0.6612 C   0  0  0  0  0  0  0  0  0  0  0  0
    6.7236   -1.6377   -0.8313 C   0  0  0  0  0  0  0  0  0  0  0  0
    6.5907   -0.2620   -0.6817 C   0  0  0  0  0  0  0  0  0  0  0  0
    5.3386    0.2897   -0.3689 C   0  0  0  0  0  0  0  0  0  0  0  0
    5.2175    1.7558   -0.2519 C   0  0  0  0  0  0  0  0  0  0  0  0
    4.3156    2.4624   -0.6546 O   0  0  0  0  0  0  0  0  0  0  0  0
    6.2867    2.2782    0.3825 O   0  0  0  0  0  0  0  0  0  0  0  0
   -0.3893   -0.5518   -0.1083 N   0  0  0  0  0  0  0  0  0  0  0  0
   -1.7756   -0.0981    0.0384 C   0  0  0  0  0  0  0  0  0  0  0  0
   -1.9423    0.8196    1.2738 C   0  0  0  0  0  0  0  0  0  0  0  0
   -3.3895    1.3342    1.3724 C   0  0  0  0  0  0  0  0  0  0  0  0
   -3.7317    2.1365    0.1064 C   0  0  0  0  0  0  0  0  0  0  0  0
   -3.5954    1.2426   -1.1370 C   0  0  0  0  0  0  0  0  0  0  0  0
   -4.5557    0.0491   -1.0138 C   0  0  0  0  0  0  0  0  0  0  0  0
   -4.2188   -0.7651    0.2452 C   0  0  0  0  0  0  0  0  0  0  0  0
   -4.3483    0.1363    1.4856 C   0  0  0  0  0  0  0  0  0  0  0  0
   -2.7721   -1.2816    0.1454 C   0  0  0  0  0  0  0  0  0  0  0  0
   -2.1524    0.7219   -1.2259 C   0  0  0  0  0  0  0  0  0  0  0  0
    1.7721   -2.1724   -0.4763 H   0  0  0  0  0  0  0  0  0  0  0  0
    2.2028   -2.1692    1.2595 H   0  0  0  0  0  0  0  0  0  0  0  0
    5.6410   -3.4992   -0.7674 H   0  0  0  0  0  0  0  0  0  0  0  0
    7.6804   -2.0874   -1.0742 H   0  0  0  0  0  0  0  0  0  0  0  0
    7.4590    0.3784   -0.8121 H   0  0  0  0  0  0  0  0  0  0  0  0
    6.0889    3.2378    0.4310 H   0  0  0  0  0  0  0  0  0  0  0  0
    0.2165    0.0247   -0.6836 H   0  0  0  0  0  0  0  0  0  0  0  0
   -1.2477    1.6682    1.2108 H   0  0  0  0  0  0  0  0  0  0  0  0
   -1.6855    0.2826    2.1957 H   0  0  0  0  0  0  0  0  0  0  0  0
   -3.4932    1.9754    2.2551 H   0  0  0  0  0  0  0  0  0  0  0  0
   -4.7540    2.5274    0.1760 H   0  0  0  0  0  0  0  0  0  0  0  0
   -3.0646    3.0031    0.0202 H   0  0  0  0  0  0  0  0  0  0  0  0
   -3.8359    1.8208   -2.0359 H   0  0  0  0  0  0  0  0  0  0  0  0
   -4.4799   -0.5886   -1.9040 H   0  0  0  0  0  0  0  0  0  0  0  0
   -5.5922    0.4045   -0.9646 H   0  0  0  0  0  0  0  0  0  0  0  0
   -4.9081   -1.6129    0.3317 H   0  0  0  0  0  0  0  0  0  0  0  0
   -4.1249   -0.4395    2.3921 H   0  0  0  0  0  0  0  0  0  0  0  0
   -5.3814    0.4923    1.5818 H   0  0  0  0  0  0  0  0  0  0  0  0
   -2.6694   -1.9411   -0.7270 H   0  0  0  0  0  0  0  0  0  0  0  0
   -2.5604   -1.8996    1.0248 H   0  0  0  0  0  0  0  0  0  0  0  0
   -1.4629    1.5682   -1.3459 H   0  0  0  0  0  0  0  0  0  0  0  0
   -2.0357    0.1022   -2.1259 H   0  0  0  0  0  0  0  0  0  0  0  0
  1  2  2  0
  2  3  1  0
  3  4  1  0
  4  5  1  0
  5  6  2  0
  6  7  1  0
  7  8  2  0
  8  9  1  0
  9 10  2  0
 10 11  1  0
 11 12  2  0
 11 13  1  0
  2 14  1  0
 14 15  1  0
 15 16  1  0
 16 17  1  0
 17 18  1  0
 18 19  1  0
 19 20  1  0
 20 21  1  0
 21 22  1  0
 21 23  1  0
 19 24  1  0
 10  5  1  0
 23 15  1  0
 24 15  1  0
 22 17  1  0
  3 25  1  0
  3 26  1  0
  7 27  1  0
  8 28  1  0
  9 29  1  0
 13 30  1  0
 14 31  1  0
 16 32  1  0
 16 33  1  0
 17 34  1  0
 18 35  1  0
 18 36  1  0
 19 37  1  0
 20 38  1  0
 20 39  1  0
 21 40  1  0
 22 41  1  0
 22 42  1  0
 23 43  1  0
 23 44  1  0
 24 45  1  0
 24 46  1  0
M  END
$$$$
