
     RDKit          3D

 52 55  0  0  0  0  0  0  0  0999 V2000
    8.7596    0.8951   -0.8152 C   0  0  0  0  0  0  0  0  0  0  0  0
    8.3738    0.5562    0.6141 C   0  0  0  0  0  0  0  0  0  0  0  0
    7.5205   -0.5860    0.6497 O   0  0  0  0  0  0  0  0  0  0  0  0
    6.1686   -0.4019    0.5901 C   0  0  0  0  0  0  0  0  0  0  0  0
    5.4151   -1.5587    0.7967 C   0  0  0  0  0  0  0  0  0  0  0  0
    4.0161   -1.5247    0.7605 C   0  0  0  0  0  0  0  0  0  0  0  0
    3.3487   -0.3261    0.5171 C   0  0  0  0  0  0  0  0  0  0  0  0
    1.9463   -0.2069    0.4474 N   0  0  0  0  0  0  0  0  0  0  0  0
    1.0052   -1.1392    0.8228 C   0  0  0  0  0  0  0  0  0  0  0  0
    1.2488   -2.1840    1.4212 O   0  0  0  0  0  0  0  0  0  0  0  0
   -0.3038   -0.7930    0.4846 N   0  0  0  0  0  0  0  0  0  0  0  0
   -1.3794   -1.6011    1.0506 C   0  0  0  0  0  0  0  0  0  0  0  0
   -2.7126   -0.8694    1.0233 C   0  0  0  0  0  0  0  0  0  0  0  0
   -3.1171   -0.5361   -0.4179 C   0  0  0  0  0  0  0  0  0  0  0  0
   -4.1771    0.4613   -0.4444 N   0  0  0  0  0  0  0  0  0  0  0  0
   -4.0241    1.8459   -0.2032 C   0  0  0  0  0  0  0  0  0  0  0  0
   -2.9899    2.4675   -0.0256 O   0  0  0  0  0  0  0  0  0  0  0  0
   -5.3116    2.3994   -0.1981 N   0  0  0  0  0  0  0  0  0  0  0  0
   -6.2415    1.3856   -0.3833 C   0  0  0  0  0  0  0  0  0  0  0  0
   -7.6148    1.4689   -0.4134 C   0  0  0  0  0  0  0  0  0  0  0  0
   -8.3140    0.2725   -0.5933 C   0  0  0  0  0  0  0  0  0  0  0  0
   -7.6295   -0.9532   -0.7318 C   0  0  0  0  0  0  0  0  0  0  0  0
   -6.2303   -1.0095   -0.6962 C   0  0  0  0  0  0  0  0  0  0  0  0
   -5.5537    0.1796   -0.5243 C   0  0  0  0  0  0  0  0  0  0  0  0
   -1.9108   -0.1515   -1.2953 C   0  0  0  0  0  0  0  0  0  0  0  0
   -0.6801    0.2421   -0.4833 C   0  0  0  0  0  0  0  0  0  0  0  0
    4.1050    0.8306    0.2943 C   0  0  0  0  0  0  0  0  0  0  0  0
    5.5056    0.7948    0.3318 C   0  0  0  0  0  0  0  0  0  0  0  0
    9.4692    1.7271   -0.8370 H   0  0  0  0  0  0  0  0  0  0  0  0
    9.2183    0.0289   -1.3035 H   0  0  0  0  0  0  0  0  0  0  0  0
    7.8845    1.1679   -1.4125 H   0  0  0  0  0  0  0  0  0  0  0  0
    9.2829    0.2801    1.1605 H   0  0  0  0  0  0  0  0  0  0  0  0
    7.9525    1.4148    1.1486 H   0  0  0  0  0  0  0  0  0  0  0  0
    5.9190   -2.5029    0.9899 H   0  0  0  0  0  0  0  0  0  0  0  0
    3.4789   -2.4546    0.9188 H   0  0  0  0  0  0  0  0  0  0  0  0
    1.5895    0.7238    0.3003 H   0  0  0  0  0  0  0  0  0  0  0  0
   -1.4355   -2.5308    0.4714 H   0  0  0  0  0  0  0  0  0  0  0  0
   -1.1252   -1.8716    2.0820 H   0  0  0  0  0  0  0  0  0  0  0  0
   -3.4901   -1.4829    1.4940 H   0  0  0  0  0  0  0  0  0  0  0  0
   -2.6353    0.0465    1.6236 H   0  0  0  0  0  0  0  0  0  0  0  0
   -3.5269   -1.4480   -0.8699 H   0  0  0  0  0  0  0  0  0  0  0  0
   -5.4985    3.3753   -0.0380 H   0  0  0  0  0  0  0  0  0  0  0  0
   -8.1352    2.4120   -0.2999 H   0  0  0  0  0  0  0  0  0  0  0  0
   -9.4018    0.2833   -0.6241 H   0  0  0  0  0  0  0  0  0  0  0  0
   -8.2004   -1.8699   -0.8679 H   0  0  0  0  0  0  0  0  0  0  0  0
   -5.7197   -1.9582   -0.8025 H   0  0  0  0  0  0  0  0  0  0  0  0
   -1.6406   -1.0281   -1.9005 H   0  0  0  0  0  0  0  0  0  0  0  0
   -2.1645    0.6401   -2.0098 H   0  0  0  0  0  0  0  0  0  0  0  0
   -0.8502    1.1622    0.0834 H   0  0  0  0  0  0  0  0  0  0  0  0
    0.1479    0.4279   -1.1751 H   0  0  0  0  0  0  0  0  0  0  0  0
    3.6173    1.7799    0.0883 H   0  0  0  0  0  0  0  0  0  0  0  0
    6.0408    1.7188    0.1447 H   0  0  0  0  0  0  0  0  0  0  0  0
  1  2  1  0
  2  3  1  0
  3  4  1  0
  4  5  2  0
  5  6  1  0
  6  7  2  0
  7  8  1  0
  8  9  1  0
  9 10  2  0
  9 11  1  0
 11 12  1  0
 12 13  1  0
 13 14  1  0
 14 15  1  0
 15 16  1  0
 16 17  2  0
 16 18  1  0
 18 19  1  0
 19 20  2  0
 20 21  1  0
 21 22  2  0
 22 23  1  0
 23 24  2  0
 14 25  1  0
 25 26  1  0
  7 27  1  0
 27 28  2  0
 28  4  1  0
 26 11  1  0
 24 15  1  0
 24 19  1  0
  1 29  1  0
  1 30  1  0
  1 31  1  0
  2 32  1  0
  2 33  1  0
  5 34  1  0
  6 35  1  0
  8 36  1  0
 12 37  1  0
 12 38  1  0
 13 39  1  0
 13 40  1  0
 14 41  1  0
 18 42  1  0
 20 43  1  0
 21 44  1  0
 22 45  1  0
 23 46  1  0
 25 47  1  0
 25 48  1  0
 26 49  1  0
 26 50  1  0
 27 51  1  0
 28 52  1  0
M  END
$$$$
