
     RDKit          3D

 40 43  0  0  0  0  0  0  0  0999 V2000
   -3.6356    3.3109   -0.4917 O   0  0  0  0  0  0  0  0  0  0  0  0
   -4.0476    2.1655   -0.5652 C   0  0  0  0  0  0  0  0  0  0  0  0
   -5.3461    1.7768   -0.8089 N   0  0  0  0  0  0  0  0  0  0  0  0
   -5.3126    0.4880   -0.8327 C   0  0  0  0  0  0  0  0  0  0  0  0
   -6.4411   -0.4353   -1.0602 C   0  0  0  0  0  0  0  0  0  0  0  0
   -6.2025   -1.7576   -1.0435 C   0  0  0  0  0  0  0  0  0  0  0  0
   -4.8809   -2.3170   -0.8102 C   0  0  0  0  0  0  0  0  0  0  0  0
   -3.8122   -1.5314   -0.5967 C   0  0  0  0  0  0  0  0  0  0  0  0
   -3.9914   -0.1090   -0.6032 C   0  0  0  0  0  0  0  0  0  0  0  0
   -3.2029    0.9504   -0.4227 C   0  0  0  0  0  0  0  0  0  0  0  0
   -1.8168    0.9356   -0.1697 C   0  0  0  0  0  0  0  0  0  0  0  0
   -1.1577    1.6854    1.2375 S   0  0  0  0  0  0  0  0  0  0  0  0
    0.4010    1.1899    0.7588 C   0  0  0  0  0  0  0  0  0  0  0  0
    1.5996    1.5240    1.4954 N   0  0  0  0  0  0  0  0  0  0  0  0
    2.0007    0.3602    2.6449 S   0  0  0  0  0  6  0  0  0  0  0  0
    0.7862   -0.1302    3.2665 O   0  0  0  0  0  0  0  0  0  0  0  0
    3.0464    0.9340    3.4682 O   0  0  0  0  0  0  0  0  0  0  0  0
    2.7037   -0.9949    1.6807 C   0  0  0  0  0  0  0  0  0  0  0  0
    3.8185   -0.5120    0.7868 C   0  0  0  0  0  0  0  0  0  0  0  0
    5.0559   -0.1231    1.3205 C   0  0  0  0  0  0  0  0  0  0  0  0
    6.0787    0.3324    0.4873 C   0  0  0  0  0  0  0  0  0  0  0  0
    5.8823    0.3946   -0.8897 C   0  0  0  0  0  0  0  0  0  0  0  0
    4.6651   -0.0048   -1.4356 C   0  0  0  0  0  0  0  0  0  0  0  0
    3.6412   -0.4604   -0.6037 C   0  0  0  0  0  0  0  0  0  0  0  0
    0.4967    0.5478   -0.3775 N   0  0  0  0  0  0  0  0  0  0  0  0
   -0.7654    0.3967   -0.8915 C   0  0  0  0  0  0  0  0  0  0  0  0
   -0.9589   -0.2393   -2.0560 O   0  0  0  0  0  0  0  0  0  0  0  0
   -7.4213   -0.0098   -1.2318 H   0  0  0  0  0  0  0  0  0  0  0  0
   -7.0161   -2.4596   -1.2075 H   0  0  0  0  0  0  0  0  0  0  0  0
   -4.7832   -3.3993   -0.8127 H   0  0  0  0  0  0  0  0  0  0  0  0
   -2.8285   -1.9533   -0.4223 H   0  0  0  0  0  0  0  0  0  0  0  0
    2.3882    1.7258    0.8812 H   0  0  0  0  0  0  0  0  0  0  0  0
    3.0794   -1.7379    2.3920 H   0  0  0  0  0  0  0  0  0  0  0  0
    1.8907   -1.4570    1.1123 H   0  0  0  0  0  0  0  0  0  0  0  0
    5.2364   -0.1625    2.3945 H   0  0  0  0  0  0  0  0  0  0  0  0
    7.0302    0.6390    0.9156 H   0  0  0  0  0  0  0  0  0  0  0  0
    6.6804    0.7494   -1.5368 H   0  0  0  0  0  0  0  0  0  0  0  0
    4.5156    0.0363   -2.5117 H   0  0  0  0  0  0  0  0  0  0  0  0
    2.7026   -0.7749   -1.0551 H   0  0  0  0  0  0  0  0  0  0  0  0
   -0.0785   -0.4596   -2.4058 H   0  0  0  0  0  0  0  0  0  0  0  0
  1  2  2  0
  2  3  1  0
  3  4  2  0
  4  5  1  0
  5  6  2  0
  6  7  1  0
  7  8  2  0
  8  9  1  0
  9 10  2  0
 10 11  1  0
 11 12  1  0
 12 13  1  0
 13 14  1  0
 14 15  1  0
 15 16  2  0
 15 17  2  0
 15 18  1  0
 18 19  1  0
 19 20  2  0
 20 21  1  0
 21 22  2  0
 22 23  1  0
 23 24  2  0
 13 25  2  0
 25 26  1  0
 26 27  1  0
 10  2  1  0
 26 11  2  0
  9  4  1  0
 24 19  1  0
  5 28  1  0
  6 29  1  0
  7 30  1  0
  8 31  1  0
 14 32  1  0
 18 33  1  0
 18 34  1  0
 20 35  1  0
 21 36  1  0
 22 37  1  0
 23 38  1  0
 24 39  1  0
 27 40  1  0
M  END
$$$$
