
     RDKit          3D

 43 46  0  0  0  0  0  0  0  0999 V2000
    0.9135   -0.1657    3.8469 C   0  0  0  0  0  0  0  0  0  0  0  0
    2.2841   -0.2957    3.4941 O   0  0  0  0  0  0  0  0  0  0  0  0
    2.4794   -0.5624    2.1546 C   0  0  0  0  0  0  0  0  0  0  0  0
    1.4339   -0.6176    1.3353 N   0  0  0  0  0  0  0  0  0  0  0  0
    1.7177   -0.8673    0.0681 C   0  0  0  0  0  0  0  0  0  0  0  0
    0.7230   -0.9575   -0.8850 N   0  0  0  0  0  0  0  0  0  0  0  0
   -0.5316   -0.2106   -0.7919 C   0  0  0  0  0  0  0  0  0  0  0  0
   -1.4666   -0.7769    0.3032 C   0  0  0  0  0  0  0  0  0  0  0  0
   -2.8077   -0.0204    0.3098 C   0  0  0  0  0  0  0  0  0  0  0  0
   -2.5440    1.4752    0.5578 C   0  0  0  0  0  0  0  0  0  0  0  0
   -1.6521    2.0504   -0.5564 C   0  0  0  0  0  0  0  0  0  0  0  0
   -2.3488    1.8598   -1.9127 C   0  0  0  0  0  0  0  0  0  0  0  0
   -2.6023    0.3657   -2.1666 C   0  0  0  0  0  0  0  0  0  0  0  0
   -3.4973   -0.1955   -1.0517 C   0  0  0  0  0  0  0  0  0  0  0  0
   -1.2593   -0.3815   -2.1580 C   0  0  0  0  0  0  0  0  0  0  0  0
   -0.3060    1.3032   -0.5658 C   0  0  0  0  0  0  0  0  0  0  0  0
    2.9463   -1.0536   -0.3912 N   0  0  0  0  0  0  0  0  0  0  0  0
    3.9111   -0.9791    0.5229 C   0  0  0  0  0  0  0  0  0  0  0  0
    5.2261   -1.1555    0.1444 O   0  0  0  0  0  0  0  0  0  0  0  0
    5.3761   -1.5096   -1.2234 C   0  0  0  0  0  0  0  0  0  0  0  0
    3.7442   -0.7291    1.8099 N   0  0  0  0  0  0  0  0  0  0  0  0
    0.4483    0.6828    3.3327 H   0  0  0  0  0  0  0  0  0  0  0  0
    0.3626   -1.0928    3.6533 H   0  0  0  0  0  0  0  0  0  0  0  0
    0.8629    0.0310    4.9222 H   0  0  0  0  0  0  0  0  0  0  0  0
    1.1878   -0.9086   -1.7859 H   0  0  0  0  0  0  0  0  0  0  0  0
   -1.6413   -1.8481    0.1373 H   0  0  0  0  0  0  0  0  0  0  0  0
   -1.0187   -0.6909    1.2982 H   0  0  0  0  0  0  0  0  0  0  0  0
   -3.4510   -0.4185    1.1025 H   0  0  0  0  0  0  0  0  0  0  0  0
   -2.0614    1.6139    1.5332 H   0  0  0  0  0  0  0  0  0  0  0  0
   -3.4951    2.0206    0.5929 H   0  0  0  0  0  0  0  0  0  0  0  0
   -1.4793    3.1175   -0.3775 H   0  0  0  0  0  0  0  0  0  0  0  0
   -3.2983    2.4089   -1.9269 H   0  0  0  0  0  0  0  0  0  0  0  0
   -1.7279    2.2767   -2.7151 H   0  0  0  0  0  0  0  0  0  0  0  0
   -3.0937    0.2337   -3.1370 H   0  0  0  0  0  0  0  0  0  0  0  0
   -3.7030   -1.2574   -1.2341 H   0  0  0  0  0  0  0  0  0  0  0  0
   -4.4651    0.3209   -1.0514 H   0  0  0  0  0  0  0  0  0  0  0  0
   -1.4269   -1.4470   -2.3663 H   0  0  0  0  0  0  0  0  0  0  0  0
   -0.6264   -0.0068   -2.9739 H   0  0  0  0  0  0  0  0  0  0  0  0
    0.3438    1.7128   -1.3503 H   0  0  0  0  0  0  0  0  0  0  0  0
    0.2051    1.4901    0.3858 H   0  0  0  0  0  0  0  0  0  0  0  0
    5.0273   -0.7069   -1.8824 H   0  0  0  0  0  0  0  0  0  0  0  0
    6.4437   -1.6551   -1.4155 H   0  0  0  0  0  0  0  0  0  0  0  0
    4.8670   -2.4531   -1.4496 H   0  0  0  0  0  0  0  0  0  0  0  0
  1  2  1  0
  2  3  1  0
  3  4  2  0
  4  5  1  0
  5  6  1  0
  6  7  1  0
  7  8  1  0
  8  9  1  0
  9 10  1  0
 10 11  1  0
 11 12  1  0
 12 13  1  0
 13 14  1  0
 13 15  1  0
 11 16  1  0
  5 17  2  0
 17 18  1  0
 18 19  1  0
 19 20  1  0
 18 21  2  0
 21  3  1  0
 15  7  1  0
 16  7  1  0
 14  9  1  0
  1 22  1  0
  1 23  1  0
  1 24  1  0
  6 25  1  0
  8 26  1  0
  8 27  1  0
  9 28  1  0
 10 29  1  0
 10 30  1  0
 11 31  1  0
 12 32  1  0
 12 33  1  0
 13 34  1  0
 14 35  1  0
 14 36  1  0
 15 37  1  0
 15 38  1  0
 16 39  1  0
 16 40  1  0
 20 41  1  0
 20 42  1  0
 20 43  1  0
M  END
$$$$
