
     RDKit          3D

 42 44  0  0  0  0  0  0  0  0999 V2000
   -4.8122    1.4509   -0.2718 C   0  0  0  0  0  0  0  0  0  0  0  0
   -4.2305    0.0673   -0.1577 C   0  0  0  0  0  0  0  0  0  0  0  0
   -4.5126   -0.7072    0.9786 C   0  0  0  0  0  0  0  0  0  0  0  0
   -4.0053   -1.9998    1.0980 C   0  0  0  0  0  0  0  0  0  0  0  0
   -3.2199   -2.5324    0.0804 C   0  0  0  0  0  0  0  0  0  0  0  0
   -2.9372   -1.7745   -1.0596 C   0  0  0  0  0  0  0  0  0  0  0  0
   -3.4384   -0.4741   -1.1882 C   0  0  0  0  0  0  0  0  0  0  0  0
   -3.2134    0.3565   -2.2561 O   0  0  0  0  0  0  0  0  0  0  0  0
   -2.3717   -0.1007   -3.3064 C   0  0  0  0  0  0  0  0  0  0  0  0
   -0.8830   -0.1472   -2.9495 C   0  0  0  0  0  0  0  0  0  0  0  0
   -0.1169   -0.9718   -3.4379 O   0  0  0  0  0  0  0  0  0  0  0  0
   -0.4938    0.8277   -2.0542 N   0  0  0  0  0  0  0  0  0  0  0  0
    0.8498    0.8798   -1.5060 C   0  0  0  0  0  0  0  0  0  0  0  0
    1.0785   -0.1890   -0.4350 C   0  0  0  0  0  0  0  0  0  0  0  0
    2.3555    0.0421    0.2989 C   0  0  0  0  0  0  0  0  0  0  0  0
    3.5284    0.3278   -0.2279 N   0  0  0  0  0  0  0  0  0  0  0  0
    4.3905    0.4653    0.8319 C   0  0  0  0  0  0  0  0  0  0  0  0
    5.7603    0.7648    0.8423 C   0  0  0  0  0  0  0  0  0  0  0  0
    6.4181    0.8538    2.0762 C   0  0  0  0  0  0  0  0  0  0  0  0
    5.7253    0.6556    3.2728 C   0  0  0  0  0  0  0  0  0  0  0  0
    4.3573    0.3488    3.2832 C   0  0  0  0  0  0  0  0  0  0  0  0
    3.7288    0.2633    2.0375 C   0  0  0  0  0  0  0  0  0  0  0  0
    2.4370   -0.0135    1.6703 N   0  0  0  0  0  0  0  0  0  0  0  0
   -4.0440    2.1700   -0.5751 H   0  0  0  0  0  0  0  0  0  0  0  0
   -5.2133    1.7974    0.6878 H   0  0  0  0  0  0  0  0  0  0  0  0
   -5.6248    1.4553   -1.0049 H   0  0  0  0  0  0  0  0  0  0  0  0
   -5.1319   -0.3039    1.7765 H   0  0  0  0  0  0  0  0  0  0  0  0
   -4.2294   -2.5933    1.9807 H   0  0  0  0  0  0  0  0  0  0  0  0
   -2.8297   -3.5446    0.1693 H   0  0  0  0  0  0  0  0  0  0  0  0
   -2.3213   -2.2362   -1.8253 H   0  0  0  0  0  0  0  0  0  0  0  0
   -2.4735    0.6114   -4.1327 H   0  0  0  0  0  0  0  0  0  0  0  0
   -2.7042   -1.0725   -3.6871 H   0  0  0  0  0  0  0  0  0  0  0  0
   -1.2329    1.3448   -1.5890 H   0  0  0  0  0  0  0  0  0  0  0  0
    0.9777    1.8856   -1.0875 H   0  0  0  0  0  0  0  0  0  0  0  0
    1.5674    0.7608   -2.3245 H   0  0  0  0  0  0  0  0  0  0  0  0
    0.2367   -0.1866    0.2703 H   0  0  0  0  0  0  0  0  0  0  0  0
    1.1006   -1.1851   -0.8927 H   0  0  0  0  0  0  0  0  0  0  0  0
    6.2907    0.9180   -0.0910 H   0  0  0  0  0  0  0  0  0  0  0  0
    7.4799    1.0824    2.0997 H   0  0  0  0  0  0  0  0  0  0  0  0
    6.2599    0.7368    4.2171 H   0  0  0  0  0  0  0  0  0  0  0  0
    3.8213    0.1881    4.2134 H   0  0  0  0  0  0  0  0  0  0  0  0
    1.6759   -0.2220    2.3001 H   0  0  0  0  0  0  0  0  0  0  0  0
  1  2  1  0
  2  3  2  0
  3  4  1  0
  4  5  2  0
  5  6  1  0
  6  7  2  0
  7  8  1  0
  8  9  1  0
  9 10  1  0
 10 11  2  0
 10 12  1  0
 12 13  1  0
 13 14  1  0
 14 15  1  0
 15 16  2  0
 16 17  1  0
 17 18  2  0
 18 19  1  0
 19 20  2  0
 20 21  1  0
 21 22  2  0
 22 23  1  0
  7  2  1  0
 23 15  1  0
 22 17  1  0
  1 24  1  0
  1 25  1  0
  1 26  1  0
  3 27  1  0
  4 28  1  0
  5 29  1  0
  6 30  1  0
  9 31  1  0
  9 32  1  0
 12 33  1  0
 13 34  1  0
 13 35  1  0
 14 36  1  0
 14 37  1  0
 18 38  1  0
 19 39  1  0
 20 40  1  0
 21 41  1  0
 23 42  1  0
M  END
$$$$
