
     RDKit          3D

 38 40  0  0  0  0  0  0  0  0999 V2000
   -2.8942    2.7229   -1.0254 C   0  0  0  0  0  0  0  0  0  0  0  0
   -3.5189    1.4363   -0.5997 C   0  0  0  0  0  0  0  0  0  0  0  0
   -4.8713    1.1595   -0.5382 C   0  0  0  0  0  0  0  0  0  0  0  0
   -5.0254   -0.1167    0.0254 C   0  0  0  0  0  0  0  0  0  0  0  0
   -3.7655   -0.6224    0.2827 C   0  0  0  0  0  0  0  0  0  0  0  0
   -3.4417   -1.9881    0.7875 C   0  0  0  0  0  0  0  0  0  0  0  0
   -2.8232    0.3335   -0.1011 N   0  0  0  0  0  0  0  0  0  0  0  0
   -1.4114    0.2059   -0.0006 C   0  0  0  0  0  0  0  0  0  0  0  0
   -0.8089   -0.3411    1.1264 C   0  0  0  0  0  0  0  0  0  0  0  0
    0.5835   -0.4390    1.1742 C   0  0  0  0  0  0  0  0  0  0  0  0
    1.3584   -0.0030    0.0971 C   0  0  0  0  0  0  0  0  0  0  0  0
    2.7624   -0.0912    0.1701 N   0  0  0  0  0  0  0  0  0  0  0  0
    3.4406    0.6120   -0.9427 C   0  0  0  0  0  0  0  0  0  0  0  0
    4.9630    0.5355   -0.7494 C   0  0  0  0  0  0  0  0  0  0  0  0
    5.4143   -0.8272   -0.6645 O   0  0  0  0  0  0  0  0  0  0  0  0
    4.7781   -1.4888    0.4399 C   0  0  0  0  0  0  0  0  0  0  0  0
    3.2458   -1.4832    0.3025 C   0  0  0  0  0  0  0  0  0  0  0  0
    0.7724    0.5411   -0.9912 N   0  0  0  0  0  0  0  0  0  0  0  0
   -0.5810    0.6287   -1.0252 C   0  0  0  0  0  0  0  0  0  0  0  0
   -3.6234    3.5387   -0.9642 H   0  0  0  0  0  0  0  0  0  0  0  0
   -2.0529    2.9994   -0.3829 H   0  0  0  0  0  0  0  0  0  0  0  0
   -2.5566    2.6650   -2.0642 H   0  0  0  0  0  0  0  0  0  0  0  0
   -5.6647    1.8288   -0.8472 H   0  0  0  0  0  0  0  0  0  0  0  0
   -5.9596   -0.6331    0.2083 H   0  0  0  0  0  0  0  0  0  0  0  0
   -2.5837   -2.4223    0.2657 H   0  0  0  0  0  0  0  0  0  0  0  0
   -3.2428   -1.9673    1.8629 H   0  0  0  0  0  0  0  0  0  0  0  0
   -4.2885   -2.6646    0.6256 H   0  0  0  0  0  0  0  0  0  0  0  0
   -1.3852   -0.6428    1.9946 H   0  0  0  0  0  0  0  0  0  0  0  0
    1.0587   -0.8221    2.0710 H   0  0  0  0  0  0  0  0  0  0  0  0
    3.1452    1.6677   -0.9730 H   0  0  0  0  0  0  0  0  0  0  0  0
    3.1840    0.1396   -1.9004 H   0  0  0  0  0  0  0  0  0  0  0  0
    5.2734    1.0696    0.1566 H   0  0  0  0  0  0  0  0  0  0  0  0
    5.4699    0.9991   -1.6015 H   0  0  0  0  0  0  0  0  0  0  0  0
    5.0900   -1.0026    1.3722 H   0  0  0  0  0  0  0  0  0  0  0  0
    5.1441   -2.5201    0.4631 H   0  0  0  0  0  0  0  0  0  0  0  0
    2.9604   -2.0568   -0.5891 H   0  0  0  0  0  0  0  0  0  0  0  0
    2.8225   -1.9786    1.1830 H   0  0  0  0  0  0  0  0  0  0  0  0
   -0.9677    1.0275   -1.9574 H   0  0  0  0  0  0  0  0  0  0  0  0
  1  2  1  0
  2  3  2  0
  3  4  1  0
  4  5  2  0
  5  6  1  0
  5  7  1  0
  7  8  1  0
  8  9  2  0
  9 10  1  0
 10 11  2  0
 11 12  1  0
 12 13  1  0
 13 14  1  0
 14 15  1  0
 15 16  1  0
 16 17  1  0
 11 18  1  0
 18 19  2  0
  7  2  1  0
 19  8  1  0
 17 12  1  0
  1 20  1  0
  1 21  1  0
  1 22  1  0
  3 23  1  0
  4 24  1  0
  6 25  1  0
  6 26  1  0
  6 27  1  0
  9 28  1  0
 10 29  1  0
 13 30  1  0
 13 31  1  0
 14 32  1  0
 14 33  1  0
 16 34  1  0
 16 35  1  0
 17 36  1  0
 17 37  1  0
 19 38  1  0
M  END
$$$$
