
     RDKit          3D

 48 51  0  0  0  0  0  0  0  0999 V2000
    3.8825    0.2304   -3.4634 C   0  0  0  0  0  0  0  0  0  0  0  0
    2.9714    0.6561   -2.3527 C   0  0  0  0  0  0  0  0  0  0  0  0
    1.6983    1.1569   -2.6257 C   0  0  0  0  0  0  0  0  0  0  0  0
    0.8443    1.5198   -1.5779 C   0  0  0  0  0  0  0  0  0  0  0  0
    1.2166    1.3837   -0.2467 C   0  0  0  0  0  0  0  0  0  0  0  0
    0.3525    1.7314    0.7229 N   0  0  0  0  0  0  0  0  0  0  0  0
    0.7228    1.5528    2.0150 C   0  0  0  0  0  0  0  0  0  0  0  0
   -0.5264    1.9956    3.2108 S   0  0  0  0  0  0  0  0  0  0  0  0
   -1.6685    0.5697    3.1086 C   0  0  0  0  0  0  0  0  0  0  0  0
   -1.2425   -0.5307    2.1462 C   0  0  0  0  0  0  0  0  0  0  0  0
   -0.3031   -1.2665    2.4731 O   0  0  0  0  0  0  0  0  0  0  0  0
   -1.9633   -0.6775    0.9704 N   0  0  0  0  0  0  0  0  0  0  0  0
   -1.6057   -1.5548   -0.0803 C   0  0  0  0  0  0  0  0  0  0  0  0
   -0.4321   -2.2643   -0.2661 C   0  0  0  0  0  0  0  0  0  0  0  0
   -0.3014   -3.0533   -1.4143 C   0  0  0  0  0  0  0  0  0  0  0  0
   -1.3397   -3.1280   -2.3539 C   0  0  0  0  0  0  0  0  0  0  0  0
   -2.5204   -2.4112   -2.1601 C   0  0  0  0  0  0  0  0  0  0  0  0
   -2.6344   -1.6270   -1.0220 C   0  0  0  0  0  0  0  0  0  0  0  0
   -3.8208   -0.8315   -0.5821 C   0  0  0  0  0  0  0  0  0  0  0  0
   -3.2223    0.0106    0.5689 C   0  0  0  0  0  0  0  0  0  0  0  0
   -2.9769    1.4463    0.0923 C   0  0  0  0  0  0  0  0  0  0  0  0
    1.9762    1.0688    2.3962 C   0  0  0  0  0  0  0  0  0  0  0  0
    2.3786    0.8817    3.8306 C   0  0  0  0  0  0  0  0  0  0  0  0
    2.8657    0.7214    1.3739 C   0  0  0  0  0  0  0  0  0  0  0  0
    2.4960    0.8674    0.0304 C   0  0  0  0  0  0  0  0  0  0  0  0
    3.3622    0.5057   -1.0181 C   0  0  0  0  0  0  0  0  0  0  0  0
    3.7936   -0.8473   -3.6272 H   0  0  0  0  0  0  0  0  0  0  0  0
    3.6371    0.7497   -4.3958 H   0  0  0  0  0  0  0  0  0  0  0  0
    4.9232    0.4695   -3.2236 H   0  0  0  0  0  0  0  0  0  0  0  0
    1.3561    1.2713   -3.6523 H   0  0  0  0  0  0  0  0  0  0  0  0
   -0.1418    1.9138   -1.8109 H   0  0  0  0  0  0  0  0  0  0  0  0
   -2.6763    0.9446    2.9145 H   0  0  0  0  0  0  0  0  0  0  0  0
   -1.7115    0.1168    4.1087 H   0  0  0  0  0  0  0  0  0  0  0  0
    0.3899   -2.2071    0.4394 H   0  0  0  0  0  0  0  0  0  0  0  0
    0.6177   -3.6107   -1.5786 H   0  0  0  0  0  0  0  0  0  0  0  0
   -1.2257   -3.7557   -3.2360 H   0  0  0  0  0  0  0  0  0  0  0  0
   -3.3297   -2.4775   -2.8813 H   0  0  0  0  0  0  0  0  0  0  0  0
   -4.5901   -1.5119   -0.1986 H   0  0  0  0  0  0  0  0  0  0  0  0
   -4.2414   -0.2228   -1.3892 H   0  0  0  0  0  0  0  0  0  0  0  0
   -3.9164    0.0256    1.4178 H   0  0  0  0  0  0  0  0  0  0  0  0
   -2.2811    1.4715   -0.7540 H   0  0  0  0  0  0  0  0  0  0  0  0
   -3.9176    1.9079   -0.2303 H   0  0  0  0  0  0  0  0  0  0  0  0
   -2.5582    2.0753    0.8816 H   0  0  0  0  0  0  0  0  0  0  0  0
    1.7222    0.1570    4.3226 H   0  0  0  0  0  0  0  0  0  0  0  0
    3.4041    0.5015    3.9128 H   0  0  0  0  0  0  0  0  0  0  0  0
    2.3448    1.8349    4.3674 H   0  0  0  0  0  0  0  0  0  0  0  0
    3.8459    0.3203    1.6270 H   0  0  0  0  0  0  0  0  0  0  0  0
    4.3453    0.0975   -0.7898 H   0  0  0  0  0  0  0  0  0  0  0  0
  1  2  1  0
  2  3  2  0
  3  4  1  0
  4  5  2  0
  5  6  1  0
  6  7  2  0
  7  8  1  0
  8  9  1  0
  9 10  1  0
 10 11  2  0
 10 12  1  0
 12 13  1  0
 13 14  2  0
 14 15  1  0
 15 16  2  0
 16 17  1  0
 17 18  2  0
 18 19  1  0
 19 20  1  0
 20 21  1  0
  7 22  1  0
 22 23  1  0
 22 24  2  0
 24 25  1  0
 25 26  2  0
 26  2  1  0
 25  5  1  0
 20 12  1  0
 18 13  1  0
  1 27  1  0
  1 28  1  0
  1 29  1  0
  3 30  1  0
  4 31  1  0
  9 32  1  0
  9 33  1  0
 14 34  1  0
 15 35  1  0
 16 36  1  0
 17 37  1  0
 19 38  1  0
 19 39  1  0
 20 40  1  0
 21 41  1  0
 21 42  1  0
 21 43  1  0
 23 44  1  0
 23 45  1  0
 23 46  1  0
 24 47  1  0
 26 48  1  0
M  END
$$$$
