
     RDKit          3D

 38 39  0  0  0  0  0  0  0  0999 V2000
    6.7075    0.9566   -0.3882 C   0  0  0  0  0  0  0  0  0  0  0  0
    5.2251    0.7623   -0.2773 C   0  0  0  0  0  0  0  0  0  0  0  0
    4.6571   -0.4990   -0.4698 C   0  0  0  0  0  0  0  0  0  0  0  0
    3.2755   -0.6893   -0.3352 C   0  0  0  0  0  0  0  0  0  0  0  0
    2.4271    0.3676    0.0049 C   0  0  0  0  0  0  0  0  0  0  0  0
    1.0409    0.2450    0.1519 N   0  0  0  0  0  0  0  0  0  0  0  0
    0.1431   -0.8147    0.0454 C   0  0  0  0  0  0  0  0  0  0  0  0
    0.5375   -2.0374   -0.2567 N   0  0  0  0  0  0  0  0  0  0  0  0
   -0.4480   -2.9161   -0.3104 C   0  0  0  0  0  0  0  0  0  0  0  0
    0.0006   -4.5185   -0.7030 Cl  0  0  0  0  0  0  0  0  0  0  0  0
   -1.7396   -2.7097   -0.1101 N   0  0  0  0  0  0  0  0  0  0  0  0
   -2.0323   -1.4588    0.1843 C   0  0  0  0  0  0  0  0  0  0  0  0
   -3.3703   -1.2128    0.4172 N   0  0  0  0  0  0  0  0  0  0  0  0
   -4.0057    0.0732    0.1132 C   0  0  0  0  0  0  0  0  0  0  0  0
   -3.5437    1.1726    1.0807 C   0  0  0  0  0  0  0  0  0  0  0  0
   -5.5220   -0.1279    0.3208 C   0  0  0  0  0  0  0  0  0  0  0  0
   -3.7711    0.4869   -1.3468 C   0  0  0  0  0  0  0  0  0  0  0  0
   -1.1296   -0.4904    0.2682 N   0  0  0  0  0  0  0  0  0  0  0  0
    3.0127    1.6275    0.2093 C   0  0  0  0  0  0  0  0  0  0  0  0
    4.3919    1.8245    0.0766 C   0  0  0  0  0  0  0  0  0  0  0  0
    7.1375    0.2697   -1.1248 H   0  0  0  0  0  0  0  0  0  0  0  0
    6.9447    1.9741   -0.7164 H   0  0  0  0  0  0  0  0  0  0  0  0
    7.1820    0.7780    0.5816 H   0  0  0  0  0  0  0  0  0  0  0  0
    5.2828   -1.3506   -0.7281 H   0  0  0  0  0  0  0  0  0  0  0  0
    2.8880   -1.6893   -0.5022 H   0  0  0  0  0  0  0  0  0  0  0  0
    0.5379    1.0829    0.4069 H   0  0  0  0  0  0  0  0  0  0  0  0
   -3.8740   -2.0296    0.0839 H   0  0  0  0  0  0  0  0  0  0  0  0
   -2.5063    1.4734    0.9078 H   0  0  0  0  0  0  0  0  0  0  0  0
   -3.6226    0.8419    2.1227 H   0  0  0  0  0  0  0  0  0  0  0  0
   -4.1547    2.0759    0.9686 H   0  0  0  0  0  0  0  0  0  0  0  0
   -5.9146   -0.9049   -0.3460 H   0  0  0  0  0  0  0  0  0  0  0  0
   -5.7424   -0.4399    1.3486 H   0  0  0  0  0  0  0  0  0  0  0  0
   -6.0791    0.7946    0.1223 H   0  0  0  0  0  0  0  0  0  0  0  0
   -4.3458    1.3857   -1.5980 H   0  0  0  0  0  0  0  0  0  0  0  0
   -4.0736   -0.3090   -2.0372 H   0  0  0  0  0  0  0  0  0  0  0  0
   -2.7181    0.7109   -1.5466 H   0  0  0  0  0  0  0  0  0  0  0  0
    2.3951    2.4803    0.4809 H   0  0  0  0  0  0  0  0  0  0  0  0
    4.8067    2.8144    0.2516 H   0  0  0  0  0  0  0  0  0  0  0  0
  1  2  1  0
  2  3  2  0
  3  4  1  0
  4  5  2  0
  5  6  1  0
  6  7  1  0
  7  8  2  0
  8  9  1  0
  9 10  1  0
  9 11  2  0
 11 12  1  0
 12 13  1  0
 13 14  1  0
 14 15  1  0
 14 16  1  0
 14 17  1  0
 12 18  2  0
  5 19  1  0
 19 20  2  0
 20  2  1  0
 18  7  1  0
  1 21  1  0
  1 22  1  0
  1 23  1  0
  3 24  1  0
  4 25  1  0
  6 26  1  0
 13 27  1  0
 15 28  1  0
 15 29  1  0
 15 30  1  0
 16 31  1  0
 16 32  1  0
 16 33  1  0
 17 34  1  0
 17 35  1  0
 17 36  1  0
 19 37  1  0
 20 38  1  0
M  END
$$$$
