
     RDKit          3D

 62 65  0  0  0  0  0  0  0  0999 V2000
    9.9659   -2.1038    0.7891 C   0  0  0  0  0  0  0  0  0  0  0  0
    9.5473   -1.5504   -0.5600 C   0  0  0  0  0  0  0  0  0  0  0  0
    8.1971   -1.0692   -0.4994 O   0  0  0  0  0  0  0  0  0  0  0  0
    7.2227   -1.9897   -0.7278 C   0  0  0  0  0  0  0  0  0  0  0  0
    7.4416   -3.1701   -0.9725 O   0  0  0  0  0  0  0  0  0  0  0  0
    5.9513   -1.4448   -0.6532 N   0  0  0  0  0  0  0  0  0  0  0  0
    4.8149   -2.3597   -0.6332 C   0  0  0  0  0  0  0  0  0  0  0  0
    3.5314   -1.7165   -1.1733 C   0  0  0  0  0  0  0  0  0  0  0  0
    3.2751   -0.3959   -0.5845 N   0  0  0  0  0  0  0  0  0  0  0  0
    2.0014    0.1666   -0.4662 C   0  0  0  0  0  0  0  0  0  0  0  0
    1.8474    1.3723   -0.2636 O   0  0  0  0  0  0  0  0  0  0  0  0
    0.8074   -0.7934   -0.5746 C   0  0  0  0  0  0  0  0  0  0  0  0
   -0.4144   -0.1196   -0.2973 O   0  0  0  0  0  0  0  0  0  0  0  0
   -1.5449   -0.8837   -0.1835 C   0  0  0  0  0  0  0  0  0  0  0  0
   -1.6508   -2.2116   -0.6110 C   0  0  0  0  0  0  0  0  0  0  0  0
   -2.8435   -2.9180   -0.4403 C   0  0  0  0  0  0  0  0  0  0  0  0
   -3.9388   -2.3022    0.1589 C   0  0  0  0  0  0  0  0  0  0  0  0
   -3.8505   -0.9697    0.5758 C   0  0  0  0  0  0  0  0  0  0  0  0
   -2.6580   -0.2476    0.3931 C   0  0  0  0  0  0  0  0  0  0  0  0
   -2.5835    1.1685    0.9008 C   0  0  0  0  0  0  0  0  0  0  0  0
   -3.9478    1.8378    0.8014 C   0  0  0  0  0  0  0  0  0  0  0  0
   -4.9992    1.0369    1.4162 N   0  0  0  0  0  0  0  0  0  0  0  0
   -6.1769    1.7135    1.9522 C   0  0  0  0  0  0  0  0  0  0  0  0
   -6.8927    2.5734    0.9414 C   0  0  0  0  0  0  0  0  0  0  0  0
   -6.7394    3.9691    0.9463 C   0  0  0  0  0  0  0  0  0  0  0  0
   -7.3976    4.7586   -0.0004 C   0  0  0  0  0  0  0  0  0  0  0  0
   -8.2159    4.1655   -0.9616 C   0  0  0  0  0  0  0  0  0  0  0  0
   -8.3755    2.7819   -0.9757 C   0  0  0  0  0  0  0  0  0  0  0  0
   -7.7164    1.9993   -0.0308 C   0  0  0  0  0  0  0  0  0  0  0  0
   -7.8913    0.6715   -0.0692 F   0  0  0  0  0  0  0  0  0  0  0  0
   -5.0288   -0.3443    1.2448 C   0  0  0  0  0  0  0  0  0  0  0  0
   -5.9477   -1.0599    1.6318 O   0  0  0  0  0  0  0  0  0  0  0  0
    4.4211    0.5204   -0.6150 C   0  0  0  0  0  0  0  0  0  0  0  0
    5.7073   -0.1197   -0.0790 C   0  0  0  0  0  0  0  0  0  0  0  0
    9.8358   -1.3482    1.5708 H   0  0  0  0  0  0  0  0  0  0  0  0
   11.0133   -2.4176    0.7723 H   0  0  0  0  0  0  0  0  0  0  0  0
    9.3484   -2.9623    1.0704 H   0  0  0  0  0  0  0  0  0  0  0  0
    9.6723   -2.2929   -1.3562 H   0  0  0  0  0  0  0  0  0  0  0  0
   10.1797   -0.6946   -0.8179 H   0  0  0  0  0  0  0  0  0  0  0  0
    4.6685   -2.6597    0.4122 H   0  0  0  0  0  0  0  0  0  0  0  0
    5.0395   -3.2661   -1.2061 H   0  0  0  0  0  0  0  0  0  0  0  0
    3.6160   -1.5647   -2.2571 H   0  0  0  0  0  0  0  0  0  0  0  0
    2.6916   -2.3951   -1.0040 H   0  0  0  0  0  0  0  0  0  0  0  0
    0.9590   -1.5966    0.1562 H   0  0  0  0  0  0  0  0  0  0  0  0
    0.7858   -1.1786   -1.6003 H   0  0  0  0  0  0  0  0  0  0  0  0
   -0.8240   -2.7287   -1.0860 H   0  0  0  0  0  0  0  0  0  0  0  0
   -2.9181   -3.9513   -0.7703 H   0  0  0  0  0  0  0  0  0  0  0  0
   -4.8626   -2.8598    0.3022 H   0  0  0  0  0  0  0  0  0  0  0  0
   -2.2486    1.1426    1.9447 H   0  0  0  0  0  0  0  0  0  0  0  0
   -1.8647    1.7648    0.3287 H   0  0  0  0  0  0  0  0  0  0  0  0
   -4.2233    1.9946   -0.2487 H   0  0  0  0  0  0  0  0  0  0  0  0
   -3.9026    2.8131    1.2985 H   0  0  0  0  0  0  0  0  0  0  0  0
   -5.8336    2.3290    2.7927 H   0  0  0  0  0  0  0  0  0  0  0  0
   -6.8852    0.9937    2.3781 H   0  0  0  0  0  0  0  0  0  0  0  0
   -6.1054    4.4510    1.6882 H   0  0  0  0  0  0  0  0  0  0  0  0
   -7.2721    5.8386    0.0129 H   0  0  0  0  0  0  0  0  0  0  0  0
   -8.7287    4.7804   -1.6966 H   0  0  0  0  0  0  0  0  0  0  0  0
   -9.0099    2.3038   -1.7153 H   0  0  0  0  0  0  0  0  0  0  0  0
    4.2058    1.4298   -0.0443 H   0  0  0  0  0  0  0  0  0  0  0  0
    4.5602    0.8144   -1.6629 H   0  0  0  0  0  0  0  0  0  0  0  0
    6.5510    0.5515   -0.2692 H   0  0  0  0  0  0  0  0  0  0  0  0
    5.6335   -0.2566    1.0076 H   0  0  0  0  0  0  0  0  0  0  0  0
  1  2  1  0
  2  3  1  0
  3  4  1  0
  4  5  2  0
  4  6  1  0
  6  7  1  0
  7  8  1  0
  8  9  1  0
  9 10  1  0
 10 11  2  0
 10 12  1  0
 12 13  1  0
 13 14  1  0
 14 15  2  0
 15 16  1  0
 16 17  2  0
 17 18  1  0
 18 19  2  0
 19 20  1  0
 20 21  1  0
 21 22  1  0
 22 23  1  0
 23 24  1  0
 24 25  2  0
 25 26  1  0
 26 27  2  0
 27 28  1  0
 28 29  2  0
 29 30  1  0
 22 31  1  0
 31 32  2  0
  9 33  1  0
 33 34  1  0
 34  6  1  0
 19 14  1  0
 29 24  1  0
 31 18  1  0
  1 35  1  0
  1 36  1  0
  1 37  1  0
  2 38  1  0
  2 39  1  0
  7 40  1  0
  7 41  1  0
  8 42  1  0
  8 43  1  0
 12 44  1  0
 12 45  1  0
 15 46  1  0
 16 47  1  0
 17 48  1  0
 20 49  1  0
 20 50  1  0
 21 51  1  0
 21 52  1  0
 23 53  1  0
 23 54  1  0
 25 55  1  0
 26 56  1  0
 27 57  1  0
 28 58  1  0
 33 59  1  0
 33 60  1  0
 34 61  1  0
 34 62  1  0
M  END
$$$$
