
     RDKit          3D

 53 56  0  0  0  0  0  0  0  0999 V2000
    7.8440    1.4514    1.0303 C   0  0  0  0  0  0  0  0  0  0  0  0
    6.9919    2.5053    0.3371 C   0  0  0  0  0  0  0  0  0  0  0  0
    5.5000    2.1847    0.4047 C   0  0  0  0  0  0  0  0  0  0  0  0
    5.2560    0.9668   -0.2972 O   0  0  0  0  0  0  0  0  0  0  0  0
    3.9739    0.4932   -0.2933 C   0  0  0  0  0  0  0  0  0  0  0  0
    3.8062   -0.7489   -0.9036 C   0  0  0  0  0  0  0  0  0  0  0  0
    2.5433   -1.3504   -0.9666 C   0  0  0  0  0  0  0  0  0  0  0  0
    1.4054   -0.7273   -0.4234 C   0  0  0  0  0  0  0  0  0  0  0  0
    0.0710   -1.3607   -0.4839 C   0  0  0  0  0  0  0  0  0  0  0  0
   -0.9604   -0.6942    0.0604 N   0  0  0  0  0  0  0  0  0  0  0  0
   -2.1785   -1.2623    0.0043 C   0  0  0  0  0  0  0  0  0  0  0  0
   -3.2732   -0.5447    0.5327 N   0  0  0  0  0  0  0  0  0  0  0  0
   -4.1640    0.0043   -0.5197 C   0  0  0  0  0  0  0  0  0  0  0  0
   -4.2286    1.5487   -0.4825 C   0  0  0  0  0  0  0  0  0  0  0  0
   -4.6823    2.0863    0.8194 N   0  0  0  0  0  0  0  0  0  0  0  0
   -4.3587    3.5059    0.9287 C   0  0  0  0  0  0  0  0  0  0  0  0
   -4.1255    1.3042    1.9479 C   0  0  0  0  0  0  0  0  0  0  0  0
   -2.9058    0.4277    1.5830 C   0  0  0  0  0  0  0  0  0  0  0  0
   -2.3736   -2.5343   -0.5703 C   0  0  0  0  0  0  0  0  0  0  0  0
   -3.6075   -3.2351   -0.6111 C   0  0  0  0  0  0  0  0  0  0  0  0
   -3.7036   -4.4899   -1.2080 C   0  0  0  0  0  0  0  0  0  0  0  0
   -2.5698   -5.0655   -1.7631 C   0  0  0  0  0  0  0  0  0  0  0  0
   -1.3504   -4.3851   -1.7068 C   0  0  0  0  0  0  0  0  0  0  0  0
   -1.2311   -3.1334   -1.1137 C   0  0  0  0  0  0  0  0  0  0  0  0
   -0.0271   -2.5585   -1.0827 N   0  0  0  0  0  0  0  0  0  0  0  0
    1.5988    0.5292    0.1824 C   0  0  0  0  0  0  0  0  0  0  0  0
    2.8628    1.1340    0.2480 C   0  0  0  0  0  0  0  0  0  0  0  0
    8.9005    1.7344    0.9898 H   0  0  0  0  0  0  0  0  0  0  0  0
    7.7391    0.4743    0.5489 H   0  0  0  0  0  0  0  0  0  0  0  0
    7.5604    1.3488    2.0825 H   0  0  0  0  0  0  0  0  0  0  0  0
    7.3061    2.5727   -0.7108 H   0  0  0  0  0  0  0  0  0  0  0  0
    7.1736    3.4797    0.8036 H   0  0  0  0  0  0  0  0  0  0  0  0
    4.9455    3.0030   -0.0694 H   0  0  0  0  0  0  0  0  0  0  0  0
    5.1949    2.0899    1.4537 H   0  0  0  0  0  0  0  0  0  0  0  0
    4.6651   -1.2594   -1.3329 H   0  0  0  0  0  0  0  0  0  0  0  0
    2.4555   -2.3230   -1.4485 H   0  0  0  0  0  0  0  0  0  0  0  0
   -3.8625   -0.3073   -1.5279 H   0  0  0  0  0  0  0  0  0  0  0  0
   -5.1707   -0.3980   -0.3518 H   0  0  0  0  0  0  0  0  0  0  0  0
   -3.2331    1.9394   -0.7355 H   0  0  0  0  0  0  0  0  0  0  0  0
   -4.9173    1.8916   -1.2639 H   0  0  0  0  0  0  0  0  0  0  0  0
   -4.8046    4.0669    0.0998 H   0  0  0  0  0  0  0  0  0  0  0  0
   -4.7775    3.9243    1.8506 H   0  0  0  0  0  0  0  0  0  0  0  0
   -3.2778    3.6875    0.9273 H   0  0  0  0  0  0  0  0  0  0  0  0
   -3.8685    1.9509    2.7955 H   0  0  0  0  0  0  0  0  0  0  0  0
   -4.9277    0.6454    2.3052 H   0  0  0  0  0  0  0  0  0  0  0  0
   -2.5746   -0.1147    2.4768 H   0  0  0  0  0  0  0  0  0  0  0  0
   -2.0891    1.0907    1.2684 H   0  0  0  0  0  0  0  0  0  0  0  0
   -4.4946   -2.7996   -0.1562 H   0  0  0  0  0  0  0  0  0  0  0  0
   -4.6554   -5.0142   -1.2309 H   0  0  0  0  0  0  0  0  0  0  0  0
   -2.6240   -6.0451   -2.2311 H   0  0  0  0  0  0  0  0  0  0  0  0
   -0.4638   -4.8502   -2.1332 H   0  0  0  0  0  0  0  0  0  0  0  0
    0.7501    1.0564    0.6165 H   0  0  0  0  0  0  0  0  0  0  0  0
    2.9368    2.1045    0.7269 H   0  0  0  0  0  0  0  0  0  0  0  0
  1  2  1  0
  2  3  1  0
  3  4  1  0
  4  5  1  0
  5  6  2  0
  6  7  1  0
  7  8  2  0
  8  9  1  0
  9 10  2  0
 10 11  1  0
 11 12  1  0
 12 13  1  0
 13 14  1  0
 14 15  1  0
 15 16  1  0
 15 17  1  0
 17 18  1  0
 11 19  2  0
 19 20  1  0
 20 21  2  0
 21 22  1  0
 22 23  2  0
 23 24  1  0
 24 25  2  0
  8 26  1  0
 26 27  2  0
 27  5  1  0
 25  9  1  0
 18 12  1  0
 24 19  1  0
  1 28  1  0
  1 29  1  0
  1 30  1  0
  2 31  1  0
  2 32  1  0
  3 33  1  0
  3 34  1  0
  6 35  1  0
  7 36  1  0
 13 37  1  0
 13 38  1  0
 14 39  1  0
 14 40  1  0
 16 41  1  0
 16 42  1  0
 16 43  1  0
 17 44  1  0
 17 45  1  0
 18 46  1  0
 18 47  1  0
 20 48  1  0
 21 49  1  0
 22 50  1  0
 23 51  1  0
 26 52  1  0
 27 53  1  0
M  END
$$$$
