
     RDKit          3D

 43 45  0  0  0  0  0  0  0  0999 V2000
   -6.8340    1.2791   -0.2793 C   0  0  0  0  0  0  0  0  0  0  0  0
   -6.2206   -0.1221   -0.3392 C   0  0  0  0  0  0  0  0  0  0  0  0
   -6.8291   -1.0305    0.7319 C   0  0  0  0  0  0  0  0  0  0  0  0
   -4.7054   -0.0745   -0.2346 C   0  0  0  0  0  0  0  0  0  0  0  0
   -3.9187   -0.5616   -1.2895 C   0  0  0  0  0  0  0  0  0  0  0  0
   -2.5223   -0.5308   -1.2170 C   0  0  0  0  0  0  0  0  0  0  0  0
   -1.8929   -0.0015   -0.0851 C   0  0  0  0  0  0  0  0  0  0  0  0
   -0.4122    0.0545    0.0419 C   0  0  0  0  0  0  0  0  0  0  0  0
    0.1196   -0.0164    1.1469 O   0  0  0  0  0  0  0  0  0  0  0  0
    0.2990    0.2333   -1.1383 N   0  0  0  0  0  0  0  0  0  0  0  0
    1.6740    0.2691   -1.3373 C   0  0  0  0  0  0  0  0  0  0  0  0
    2.1594    0.5315   -2.9126 S   0  0  0  0  0  0  0  0  0  0  0  0
    2.4185    0.0824   -0.1967 N   0  0  0  0  0  0  0  0  0  0  0  0
    3.8038    0.0073    0.0721 C   0  0  0  0  0  0  0  0  0  0  0  0
    4.1485   -0.1350    1.4473 C   0  0  0  0  0  0  0  0  0  0  0  0
    5.4778   -0.2264    1.8825 C   0  0  0  0  0  0  0  0  0  0  0  0
    6.4411   -0.1747    0.9102 C   0  0  0  0  0  0  0  0  0  0  0  0
    7.8249   -0.2398    1.0194 N   0  0  0  0  0  0  0  0  0  0  0  0
    8.3822   -0.1464   -0.2643 C   0  0  0  0  0  0  0  0  0  0  0  0
    9.5668   -0.1687   -0.5454 O   0  0  0  0  0  0  0  0  0  0  0  0
    7.3095   -0.0232   -1.1588 N   0  0  0  0  0  0  0  0  0  0  0  0
    6.1198   -0.0400   -0.4366 C   0  0  0  0  0  0  0  0  0  0  0  0
    4.8198    0.0515   -0.8871 C   0  0  0  0  0  0  0  0  0  0  0  0
   -2.6679    0.4684    0.9798 C   0  0  0  0  0  0  0  0  0  0  0  0
   -4.0625    0.4367    0.9026 C   0  0  0  0  0  0  0  0  0  0  0  0
   -7.9162    1.2324   -0.4422 H   0  0  0  0  0  0  0  0  0  0  0  0
   -6.4062    1.9270   -1.0525 H   0  0  0  0  0  0  0  0  0  0  0  0
   -6.6647    1.7599    0.6903 H   0  0  0  0  0  0  0  0  0  0  0  0
   -6.4896   -0.5487   -1.3148 H   0  0  0  0  0  0  0  0  0  0  0  0
   -6.6561   -0.6452    1.7426 H   0  0  0  0  0  0  0  0  0  0  0  0
   -7.9118   -1.1197    0.5911 H   0  0  0  0  0  0  0  0  0  0  0  0
   -6.4004   -2.0376    0.6807 H   0  0  0  0  0  0  0  0  0  0  0  0
   -4.3908   -0.9808   -2.1766 H   0  0  0  0  0  0  0  0  0  0  0  0
   -1.9528   -0.9523   -2.0406 H   0  0  0  0  0  0  0  0  0  0  0  0
   -0.2220    0.3984   -1.9887 H   0  0  0  0  0  0  0  0  0  0  0  0
    1.8321    0.0039    0.6374 H   0  0  0  0  0  0  0  0  0  0  0  0
    3.3623   -0.1736    2.2011 H   0  0  0  0  0  0  0  0  0  0  0  0
    5.7208   -0.3326    2.9322 H   0  0  0  0  0  0  0  0  0  0  0  0
    8.3693   -0.3379    1.8601 H   0  0  0  0  0  0  0  0  0  0  0  0
    7.4156    0.0633   -2.1563 H   0  0  0  0  0  0  0  0  0  0  0  0
    4.6438    0.1441   -1.9461 H   0  0  0  0  0  0  0  0  0  0  0  0
   -2.1905    0.8646    1.8742 H   0  0  0  0  0  0  0  0  0  0  0  0
   -4.6421    0.8125    1.7435 H   0  0  0  0  0  0  0  0  0  0  0  0
  1  2  1  0
  2  3  1  0
  2  4  1  0
  4  5  2  0
  5  6  1  0
  6  7  2  0
  7  8  1  0
  8  9  2  0
  8 10  1  0
 10 11  1  0
 11 12  2  0
 11 13  1  0
 13 14  1  0
 14 15  2  0
 15 16  1  0
 16 17  2  0
 17 18  1  0
 18 19  1  0
 19 20  2  0
 19 21  1  0
 21 22  1  0
 22 23  2  0
  7 24  1  0
 24 25  2  0
 25  4  1  0
 23 14  1  0
 22 17  1  0
  1 26  1  0
  1 27  1  0
  1 28  1  0
  2 29  1  0
  3 30  1  0
  3 31  1  0
  3 32  1  0
  5 33  1  0
  6 34  1  0
 10 35  1  0
 13 36  1  0
 15 37  1  0
 16 38  1  0
 18 39  1  0
 21 40  1  0
 23 41  1  0
 24 42  1  0
 25 43  1  0
M  END
$$$$
