
     RDKit          3D

 45 48  0  0  0  0  0  0  0  0999 V2000
    4.4100   -1.6177   -0.1145 O   0  0  0  0  0  0  0  0  0  0  0  0
    3.7769   -0.6356    0.2538 C   0  0  0  0  0  0  0  0  0  0  0  0
    2.4686   -0.3280   -0.0708 N   0  0  0  0  0  0  0  0  0  0  0  0
    1.5951   -1.0156   -0.9576 C   0  0  0  0  0  0  0  0  0  0  0  0
    2.0265   -2.1110   -1.7202 C   0  0  0  0  0  0  0  0  0  0  0  0
    1.1568   -2.7780   -2.5883 C   0  0  0  0  0  0  0  0  0  0  0  0
   -0.1612   -2.3606   -2.7120 C   0  0  0  0  0  0  0  0  0  0  0  0
   -0.6098   -1.2697   -1.9687 C   0  0  0  0  0  0  0  0  0  0  0  0
    0.2504   -0.5814   -1.0869 C   0  0  0  0  0  0  0  0  0  0  0  0
   -0.2599    0.5654   -0.3360 C   0  0  0  0  0  0  0  0  0  0  0  0
    0.3777    1.4350    0.4252 N   0  0  0  0  0  0  0  0  0  0  0  0
   -0.5732    2.3201    0.8899 N   0  0  0  0  0  0  0  0  0  0  0  0
   -1.7288    1.9256    0.3960 C   0  0  0  0  0  0  0  0  0  0  0  0
   -3.2343    2.7343    0.6868 S   0  0  0  0  0  0  0  0  0  0  0  0
   -4.3051    1.3285    1.0966 C   0  0  0  0  0  0  0  0  0  0  0  0
   -4.6695    0.4503   -0.0796 C   0  0  0  0  0  0  0  0  0  0  0  0
   -4.3204   -0.9105   -0.0790 C   0  0  0  0  0  0  0  0  0  0  0  0
   -4.6548   -1.7317   -1.1590 C   0  0  0  0  0  0  0  0  0  0  0  0
   -5.3465   -1.2001   -2.2443 C   0  0  0  0  0  0  0  0  0  0  0  0
   -5.7485   -2.2095   -3.5787 Cl  0  0  0  0  0  0  0  0  0  0  0  0
   -5.7138    0.1437   -2.2554 C   0  0  0  0  0  0  0  0  0  0  0  0
   -5.3817    0.9653   -1.1747 C   0  0  0  0  0  0  0  0  0  0  0  0
   -1.6039    0.8137   -0.3919 O   0  0  0  0  0  0  0  0  0  0  0  0
    4.4396    0.3234    1.1890 C   0  0  0  0  0  0  0  0  0  0  0  0
    4.1406    1.6931    1.1908 C   0  0  0  0  0  0  0  0  0  0  0  0
    4.7880    2.5490    2.0865 C   0  0  0  0  0  0  0  0  0  0  0  0
    5.7390    2.0449    2.9746 C   0  0  0  0  0  0  0  0  0  0  0  0
    6.0531    0.6861    2.9660 C   0  0  0  0  0  0  0  0  0  0  0  0
    5.4100   -0.1719    2.0714 C   0  0  0  0  0  0  0  0  0  0  0  0
    2.0539    0.4546    0.4285 H   0  0  0  0  0  0  0  0  0  0  0  0
    3.0487   -2.4739   -1.6685 H   0  0  0  0  0  0  0  0  0  0  0  0
    1.5192   -3.6242   -3.1689 H   0  0  0  0  0  0  0  0  0  0  0  0
   -0.8368   -2.8770   -3.3902 H   0  0  0  0  0  0  0  0  0  0  0  0
   -1.6447   -0.9552   -2.0947 H   0  0  0  0  0  0  0  0  0  0  0  0
   -5.2324    1.7229    1.5298 H   0  0  0  0  0  0  0  0  0  0  0  0
   -3.8259    0.7400    1.8889 H   0  0  0  0  0  0  0  0  0  0  0  0
   -3.7782   -1.3430    0.7599 H   0  0  0  0  0  0  0  0  0  0  0  0
   -4.3738   -2.7814   -1.1447 H   0  0  0  0  0  0  0  0  0  0  0  0
   -6.2601    0.5594   -3.0984 H   0  0  0  0  0  0  0  0  0  0  0  0
   -5.6804    2.0127   -1.1964 H   0  0  0  0  0  0  0  0  0  0  0  0
    3.4272    2.1182    0.4890 H   0  0  0  0  0  0  0  0  0  0  0  0
    4.5553    3.6114    2.0868 H   0  0  0  0  0  0  0  0  0  0  0  0
    6.2418    2.7136    3.6698 H   0  0  0  0  0  0  0  0  0  0  0  0
    6.8001    0.2949    3.6527 H   0  0  0  0  0  0  0  0  0  0  0  0
    5.6652   -1.2299    2.0634 H   0  0  0  0  0  0  0  0  0  0  0  0
  1  2  2  0
  2  3  1  0
  3  4  1  0
  4  5  2  0
  5  6  1  0
  6  7  2  0
  7  8  1  0
  8  9  2  0
  9 10  1  0
 10 11  2  0
 11 12  1  0
 12 13  2  0
 13 14  1  0
 14 15  1  0
 15 16  1  0
 16 17  2  0
 17 18  1  0
 18 19  2  0
 19 20  1  0
 19 21  1  0
 21 22  2  0
 13 23  1  0
  2 24  1  0
 24 25  2  0
 25 26  1  0
 26 27  2  0
 27 28  1  0
 28 29  2  0
  9  4  1  0
 23 10  1  0
 29 24  1  0
 22 16  1  0
  3 30  1  0
  5 31  1  0
  6 32  1  0
  7 33  1  0
  8 34  1  0
 15 35  1  0
 15 36  1  0
 17 37  1  0
 18 38  1  0
 21 39  1  0
 22 40  1  0
 25 41  1  0
 26 42  1  0
 27 43  1  0
 28 44  1  0
 29 45  1  0
M  END
$$$$
