
     RDKit          3D

 30 32  0  0  0  0  0  0  0  0999 V2000
    2.9468    1.7988   -1.4484 O   0  0  0  0  0  0  0  0  0  0  0  0
    2.1772    1.3961   -0.5804 C   0  0  0  0  0  0  0  0  0  0  0  0
    1.0199    2.2717   -0.1195 C   0  0  0  0  0  0  0  0  0  0  0  0
   -0.2537    1.5560   -0.0631 N   0  0  0  0  0  0  0  0  0  0  0  0
   -1.0634    1.2078   -1.1646 C   0  0  0  0  0  0  0  0  0  0  0  0
   -0.8470    1.4971   -2.3235 O   0  0  0  0  0  0  0  0  0  0  0  0
   -2.2189    0.4282   -0.6798 C   0  0  0  0  0  0  0  0  0  0  0  0
   -3.2428   -0.0913   -1.4552 C   0  0  0  0  0  0  0  0  0  0  0  0
   -4.2558   -0.8085   -0.8091 C   0  0  0  0  0  0  0  0  0  0  0  0
   -4.2321   -0.9944    0.5867 C   0  0  0  0  0  0  0  0  0  0  0  0
   -3.1954   -0.4680    1.3607 C   0  0  0  0  0  0  0  0  0  0  0  0
   -2.2076    0.2348    0.6966 C   0  0  0  0  0  0  0  0  0  0  0  0
   -0.8145    0.9885    1.4061 S   0  0  0  0  0  6  0  0  0  0  0  0
   -1.2261    2.1022    2.2219 O   0  0  0  0  0  0  0  0  0  0  0  0
    0.1133   -0.0299    1.8481 O   0  0  0  0  0  0  0  0  0  0  0  0
    2.2809    0.2045    0.1127 N   0  0  0  0  0  0  0  0  0  0  0  0
    3.2466   -0.7576   -0.1083 C   0  0  0  0  0  0  0  0  0  0  0  0
    3.3342   -1.9549    0.6445 C   0  0  0  0  0  0  0  0  0  0  0  0
    4.4081   -2.6184    0.1140 C   0  0  0  0  0  0  0  0  0  0  0  0
    4.9363   -1.8815   -0.8909 O   0  0  0  0  0  0  0  0  0  0  0  0
    4.2096   -0.7156   -1.0331 N   0  0  0  0  0  0  0  0  0  0  0  0
    0.9203    3.1162   -0.8112 H   0  0  0  0  0  0  0  0  0  0  0  0
    1.2786    2.6947    0.8576 H   0  0  0  0  0  0  0  0  0  0  0  0
   -3.2592    0.0543   -2.5323 H   0  0  0  0  0  0  0  0  0  0  0  0
   -5.0750   -1.2274   -1.3922 H   0  0  0  0  0  0  0  0  0  0  0  0
   -5.0345   -1.5546    1.0650 H   0  0  0  0  0  0  0  0  0  0  0  0
   -3.1720   -0.6051    2.4375 H   0  0  0  0  0  0  0  0  0  0  0  0
    1.6212   -0.0022    0.8576 H   0  0  0  0  0  0  0  0  0  0  0  0
    2.7056   -2.2833    1.4578 H   0  0  0  0  0  0  0  0  0  0  0  0
    4.8994   -3.5582    0.3162 H   0  0  0  0  0  0  0  0  0  0  0  0
  1  2  2  0
  2  3  1  0
  3  4  1  0
  4  5  1  0
  5  6  2  0
  5  7  1  0
  7  8  2  0
  8  9  1  0
  9 10  2  0
 10 11  1  0
 11 12  2  0
 12 13  1  0
 13 14  2  0
 13 15  2  0
  2 16  1  0
 16 17  1  0
 17 18  1  0
 18 19  2  0
 19 20  1  0
 20 21  1  0
 13  4  1  0
 21 17  2  0
 12  7  1  0
  3 22  1  0
  3 23  1  0
  8 24  1  0
  9 25  1  0
 10 26  1  0
 11 27  1  0
 16 28  1  0
 18 29  1  0
 19 30  1  0
M  END
$$$$
