
     RDKit          3D

 34 35  0  0  0  0  0  0  0  0999 V2000
   -1.3424    1.4049    2.1637 O   0  0  0  0  0  0  0  0  0  0  0  0
   -0.8115    0.3169    1.9543 C   0  0  0  0  0  0  0  0  0  0  0  0
    0.5119   -0.0661    2.6220 C   0  0  0  0  0  0  0  0  0  0  0  0
    1.6543    0.4423    1.9290 O   0  0  0  0  0  0  0  0  0  0  0  0
    1.9419   -0.1980    0.7724 C   0  0  0  0  0  0  0  0  0  0  0  0
    1.3168   -1.1470    0.3232 O   0  0  0  0  0  0  0  0  0  0  0  0
    3.1099    0.4062    0.0979 C   0  0  0  0  0  0  0  0  0  0  0  0
    3.5241   -0.0959   -1.1400 C   0  0  0  0  0  0  0  0  0  0  0  0
    4.6269    0.4713   -1.7779 C   0  0  0  0  0  0  0  0  0  0  0  0
    5.2735    1.5212   -1.1477 C   0  0  0  0  0  0  0  0  0  0  0  0
    6.6383    2.2719   -1.8618 Cl  0  0  0  0  0  0  0  0  0  0  0  0
    4.9056    2.0333    0.0452 N   0  0  0  0  0  0  0  0  0  0  0  0
    3.8276    1.4653    0.6416 C   0  0  0  0  0  0  0  0  0  0  0  0
   -1.2795   -0.6433    1.0617 N   0  0  0  0  0  0  0  0  0  0  0  0
   -2.5198   -0.5006    0.3819 C   0  0  0  0  0  0  0  0  0  0  0  0
   -3.7207   -0.2301    1.0774 C   0  0  0  0  0  0  0  0  0  0  0  0
   -3.8333   -0.2595    2.8087 Cl  0  0  0  0  0  0  0  0  0  0  0  0
   -4.9258   -0.0639    0.3860 C   0  0  0  0  0  0  0  0  0  0  0  0
   -4.9638   -0.1910   -0.9974 C   0  0  0  0  0  0  0  0  0  0  0  0
   -3.7992   -0.5080   -1.6913 C   0  0  0  0  0  0  0  0  0  0  0  0
   -2.5713   -0.6779   -1.0177 C   0  0  0  0  0  0  0  0  0  0  0  0
   -1.3419   -1.0015   -1.8261 C   0  0  0  0  0  0  0  0  0  0  0  0
   -0.7383   -2.1488   -1.4099 F   0  0  0  0  0  0  0  0  0  0  0  0
   -1.5881   -1.1807   -3.1552 F   0  0  0  0  0  0  0  0  0  0  0  0
   -0.3923   -0.0275   -1.7580 F   0  0  0  0  0  0  0  0  0  0  0  0
    0.5845   -1.1532    2.7499 H   0  0  0  0  0  0  0  0  0  0  0  0
    0.5138    0.3642    3.6295 H   0  0  0  0  0  0  0  0  0  0  0  0
    2.9928   -0.9213   -1.6096 H   0  0  0  0  0  0  0  0  0  0  0  0
    4.9663    0.1005   -2.7387 H   0  0  0  0  0  0  0  0  0  0  0  0
    3.5630    1.9109    1.5973 H   0  0  0  0  0  0  0  0  0  0  0  0
   -0.5244   -1.1555    0.5966 H   0  0  0  0  0  0  0  0  0  0  0  0
   -5.8452    0.1428    0.9294 H   0  0  0  0  0  0  0  0  0  0  0  0
   -5.9027   -0.0629   -1.5313 H   0  0  0  0  0  0  0  0  0  0  0  0
   -3.8511   -0.6190   -2.7749 H   0  0  0  0  0  0  0  0  0  0  0  0
  1  2  2  0
  2  3  1  0
  3  4  1  0
  4  5  1  0
  5  6  2  0
  5  7  1  0
  7  8  2  0
  8  9  1  0
  9 10  2  0
 10 11  1  0
 10 12  1  0
 12 13  2  0
  2 14  1  0
 14 15  1  0
 15 16  2  0
 16 17  1  0
 16 18  1  0
 18 19  2  0
 19 20  1  0
 20 21  2  0
 21 22  1  0
 22 23  1  0
 22 24  1  0
 22 25  1  0
 13  7  1  0
 21 15  1  0
  3 26  1  0
  3 27  1  0
  8 28  1  0
  9 29  1  0
 13 30  1  0
 14 31  1  0
 18 32  1  0
 19 33  1  0
 20 34  1  0
M  END
$$$$
