
     RDKit          3D

 48 50  0  0  0  0  0  0  0  0999 V2000
    4.2663    1.1207   -2.6190 C   0  0  0  0  0  0  0  0  0  0  0  0
    4.2220    0.1169   -1.5244 C   0  0  0  0  0  0  0  0  0  0  0  0
    5.2656   -0.2146   -0.6660 C   0  0  0  0  0  0  0  0  0  0  0  0
    6.6148    0.2867   -0.5863 C   0  0  0  0  0  0  0  0  0  0  0  0
    7.1338    1.1451   -1.2865 O   0  0  0  0  0  0  0  0  0  0  0  0
    7.3280   -0.3042    0.3987 O   0  0  0  0  0  0  0  0  0  0  0  0
    4.8537   -1.1821    0.2112 O   0  0  0  0  0  0  0  0  0  0  0  0
    3.5604   -1.4744   -0.0765 C   0  0  0  0  0  0  0  0  0  0  0  0
    2.7836   -2.4186    0.5937 C   0  0  0  0  0  0  0  0  0  0  0  0
    1.4670   -2.5767    0.1503 C   0  0  0  0  0  0  0  0  0  0  0  0
    0.9792   -1.8054   -0.9108 C   0  0  0  0  0  0  0  0  0  0  0  0
   -0.6966   -2.0234   -1.4610 S   0  0  0  0  0  6  0  0  0  0  0  0
   -1.2668   -3.1665   -0.7850 O   0  0  0  0  0  0  0  0  0  0  0  0
   -0.7001   -1.9073   -2.9023 O   0  0  0  0  0  0  0  0  0  0  0  0
   -1.4299   -0.6407   -0.8747 N   0  0  0  0  0  0  0  0  0  0  0  0
   -1.7926   -0.5176    0.5447 C   0  0  0  0  0  0  0  0  0  0  0  0
   -1.3199    0.8575    1.0449 C   0  0  0  0  0  0  0  0  0  0  0  0
   -2.1172    2.0755    0.5729 C   0  0  0  0  0  0  0  0  0  0  0  0
   -3.2439    2.5187    1.5156 C   0  0  0  0  0  0  0  0  0  0  0  0
   -4.5983    1.8656    1.2496 C   0  0  0  0  0  0  0  0  0  0  0  0
   -4.9042    0.6104    2.0678 C   0  0  0  0  0  0  0  0  0  0  0  0
   -3.8520   -0.4965    2.0728 C   0  0  0  0  0  0  0  0  0  0  0  0
   -3.2869   -0.8260    0.6923 C   0  0  0  0  0  0  0  0  0  0  0  0
    1.7874   -0.8680   -1.5781 C   0  0  0  0  0  0  0  0  0  0  0  0
    3.1142   -0.7001   -1.1397 C   0  0  0  0  0  0  0  0  0  0  0  0
    5.0332    0.8530   -3.3531 H   0  0  0  0  0  0  0  0  0  0  0  0
    3.3088    1.1871   -3.1443 H   0  0  0  0  0  0  0  0  0  0  0  0
    4.4983    2.1130   -2.2191 H   0  0  0  0  0  0  0  0  0  0  0  0
    8.2056    0.1219    0.3356 H   0  0  0  0  0  0  0  0  0  0  0  0
    3.1891   -3.0001    1.4135 H   0  0  0  0  0  0  0  0  0  0  0  0
    0.8276   -3.3082    0.6417 H   0  0  0  0  0  0  0  0  0  0  0  0
   -1.9037   -0.0738   -1.5754 H   0  0  0  0  0  0  0  0  0  0  0  0
   -1.2316   -1.2613    1.1249 H   0  0  0  0  0  0  0  0  0  0  0  0
   -0.2819    0.9920    0.7081 H   0  0  0  0  0  0  0  0  0  0  0  0
   -1.2624    0.8573    2.1398 H   0  0  0  0  0  0  0  0  0  0  0  0
   -1.4064    2.9123    0.5298 H   0  0  0  0  0  0  0  0  0  0  0  0
   -2.4838    1.9466   -0.4512 H   0  0  0  0  0  0  0  0  0  0  0  0
   -3.3791    3.5963    1.3491 H   0  0  0  0  0  0  0  0  0  0  0  0
   -2.9520    2.4139    2.5667 H   0  0  0  0  0  0  0  0  0  0  0  0
   -5.3788    2.5975    1.4981 H   0  0  0  0  0  0  0  0  0  0  0  0
   -4.7242    1.6681    0.1790 H   0  0  0  0  0  0  0  0  0  0  0  0
   -5.8492    0.1926    1.6968 H   0  0  0  0  0  0  0  0  0  0  0  0
   -5.0962    0.9022    3.1083 H   0  0  0  0  0  0  0  0  0  0  0  0
   -4.3282   -1.3987    2.4791 H   0  0  0  0  0  0  0  0  0  0  0  0
   -3.0602   -0.2505    2.7875 H   0  0  0  0  0  0  0  0  0  0  0  0
   -3.4242   -1.9018    0.5166 H   0  0  0  0  0  0  0  0  0  0  0  0
   -3.8644   -0.3456   -0.1053 H   0  0  0  0  0  0  0  0  0  0  0  0
    1.3963   -0.2891   -2.4101 H   0  0  0  0  0  0  0  0  0  0  0  0
  1  2  1  0
  2  3  2  0
  3  4  1  0
  4  5  2  0
  4  6  1  0
  3  7  1  0
  7  8  1  0
  8  9  2  0
  9 10  1  0
 10 11  2  0
 11 12  1  0
 12 13  2  0
 12 14  2  0
 12 15  1  0
 15 16  1  0
 16 17  1  0
 17 18  1  0
 18 19  1  0
 19 20  1  0
 20 21  1  0
 21 22  1  0
 22 23  1  0
 11 24  1  0
 24 25  2  0
 25  2  1  0
 25  8  1  0
 23 16  1  0
  1 26  1  0
  1 27  1  0
  1 28  1  0
  6 29  1  0
  9 30  1  0
 10 31  1  0
 15 32  1  0
 16 33  1  0
 17 34  1  0
 17 35  1  0
 18 36  1  0
 18 37  1  0
 19 38  1  0
 19 39  1  0
 20 40  1  0
 20 41  1  0
 21 42  1  0
 21 43  1  0
 22 44  1  0
 22 45  1  0
 23 46  1  0
 23 47  1  0
 24 48  1  0
M  END
$$$$
