
     RDKit          3D

 54 57  0  0  0  0  0  0  0  0999 V2000
   -3.3382    6.0489   -0.7528 C   0  0  0  0  0  0  0  0  0  0  0  0
   -2.8173    5.1260    0.1945 O   0  0  0  0  0  0  0  0  0  0  0  0
   -2.1372    4.0484   -0.3008 C   0  0  0  0  0  0  0  0  0  0  0  0
   -1.8651    3.7957   -1.6442 C   0  0  0  0  0  0  0  0  0  0  0  0
   -1.1509    2.6499   -2.0156 C   0  0  0  0  0  0  0  0  0  0  0  0
   -0.7013    1.7341   -1.0509 C   0  0  0  0  0  0  0  0  0  0  0  0
    0.1010    0.5167   -1.4876 C   0  0  0  0  0  0  0  0  0  0  0  0
    1.6022    0.7725   -1.3346 C   0  0  0  0  0  0  0  0  0  0  0  0
    1.9201   -0.1549   -0.1941 C   0  0  0  0  0  0  0  0  0  0  0  0
    3.2475   -0.1573    0.4641 C   0  0  0  0  0  0  0  0  0  0  0  0
    4.2809    0.6771    0.0290 C   0  0  0  0  0  0  0  0  0  0  0  0
    5.5163    0.6501    0.6787 C   0  0  0  0  0  0  0  0  0  0  0  0
    5.7260   -0.2063    1.7624 C   0  0  0  0  0  0  0  0  0  0  0  0
    4.7010   -1.0444    2.2019 C   0  0  0  0  0  0  0  0  0  0  0  0
    4.7760   -1.9260    3.2443 O   0  0  0  0  0  0  0  0  0  0  0  0
    6.0038   -1.9796    3.9585 C   0  0  0  0  0  0  0  0  0  0  0  0
    3.4657   -1.0161    1.5485 C   0  0  0  0  0  0  0  0  0  0  0  0
    0.9588   -0.9607    0.1418 N   0  0  0  0  0  0  0  0  0  0  0  0
   -0.1151   -0.6633   -0.6476 N   0  0  0  0  0  0  0  0  0  0  0  0
   -1.2727   -1.4370   -0.5955 C   0  0  0  0  0  0  0  0  0  0  0  0
   -1.3752   -2.5144    0.3056 C   0  0  0  0  0  0  0  0  0  0  0  0
   -2.5217   -3.3111    0.3844 C   0  0  0  0  0  0  0  0  0  0  0  0
   -3.5954   -3.0437   -0.4604 C   0  0  0  0  0  0  0  0  0  0  0  0
   -5.0392   -4.0647   -0.3741 S   0  0  0  0  0  6  0  0  0  0  0  0
   -4.5229   -5.4453   -1.1936 N   0  0  0  0  0  0  0  0  0  0  0  0
   -6.0663   -3.4883   -1.2124 O   0  0  0  0  0  0  0  0  0  0  0  0
   -5.2688   -4.4224    1.0054 O   0  0  0  0  0  0  0  0  0  0  0  0
   -3.5385   -1.9799   -1.3578 C   0  0  0  0  0  0  0  0  0  0  0  0
   -2.3832   -1.1902   -1.4203 C   0  0  0  0  0  0  0  0  0  0  0  0
   -0.9752    2.0030    0.2976 C   0  0  0  0  0  0  0  0  0  0  0  0
   -1.6881    3.1468    0.6648 C   0  0  0  0  0  0  0  0  0  0  0  0
   -2.5325    6.5305   -1.3169 H   0  0  0  0  0  0  0  0  0  0  0  0
   -3.8711    6.8294   -0.2015 H   0  0  0  0  0  0  0  0  0  0  0  0
   -4.0561    5.5647   -1.4234 H   0  0  0  0  0  0  0  0  0  0  0  0
   -2.1914    4.4701   -2.4286 H   0  0  0  0  0  0  0  0  0  0  0  0
   -0.9495    2.4803   -3.0713 H   0  0  0  0  0  0  0  0  0  0  0  0
   -0.1223    0.2813   -2.5360 H   0  0  0  0  0  0  0  0  0  0  0  0
    2.1510    0.4387   -2.2223 H   0  0  0  0  0  0  0  0  0  0  0  0
    1.8580    1.8107   -1.1056 H   0  0  0  0  0  0  0  0  0  0  0  0
    4.1524    1.3542   -0.8088 H   0  0  0  0  0  0  0  0  0  0  0  0
    6.3204    1.3002    0.3416 H   0  0  0  0  0  0  0  0  0  0  0  0
    6.7000   -0.1957    2.2407 H   0  0  0  0  0  0  0  0  0  0  0  0
    5.8950   -2.7218    4.7551 H   0  0  0  0  0  0  0  0  0  0  0  0
    6.2297   -1.0168    4.4280 H   0  0  0  0  0  0  0  0  0  0  0  0
    6.8237   -2.3050    3.3098 H   0  0  0  0  0  0  0  0  0  0  0  0
    2.6696   -1.6730    1.8963 H   0  0  0  0  0  0  0  0  0  0  0  0
   -0.5436   -2.7342    0.9730 H   0  0  0  0  0  0  0  0  0  0  0  0
   -2.5650   -4.1237    1.1064 H   0  0  0  0  0  0  0  0  0  0  0  0
   -5.0759   -5.5448   -2.0458 H   0  0  0  0  0  0  0  0  0  0  0  0
   -3.5222   -5.4429   -1.3874 H   0  0  0  0  0  0  0  0  0  0  0  0
   -4.3801   -1.7492   -2.0065 H   0  0  0  0  0  0  0  0  0  0  0  0
   -2.3765   -0.3662   -2.1275 H   0  0  0  0  0  0  0  0  0  0  0  0
   -0.6433    1.3171    1.0759 H   0  0  0  0  0  0  0  0  0  0  0  0
   -1.8969    3.3328    1.7156 H   0  0  0  0  0  0  0  0  0  0  0  0
  1  2  1  0
  2  3  1  0
  3  4  2  0
  4  5  1  0
  5  6  2  0
  6  7  1  0
  7  8  1  0
  8  9  1  0
  9 10  1  0
 10 11  2  0
 11 12  1  0
 12 13  2  0
 13 14  1  0
 14 15  1  0
 15 16  1  0
 14 17  2  0
  9 18  2  0
 18 19  1  0
 19 20  1  0
 20 21  2  0
 21 22  1  0
 22 23  2  0
 23 24  1  0
 24 25  1  0
 24 26  2  0
 24 27  2  0
 23 28  1  0
 28 29  2  0
  6 30  1  0
 30 31  2  0
 31  3  1  0
 19  7  1  0
 29 20  1  0
 17 10  1  0
  1 32  1  0
  1 33  1  0
  1 34  1  0
  4 35  1  0
  5 36  1  0
  7 37  1  0
  8 38  1  0
  8 39  1  0
 11 40  1  0
 12 41  1  0
 13 42  1  0
 16 43  1  0
 16 44  1  0
 16 45  1  0
 17 46  1  0
 21 47  1  0
 22 48  1  0
 25 49  1  0
 25 50  1  0
 28 51  1  0
 29 52  1  0
 30 53  1  0
 31 54  1  0
M  END
$$$$
