
     RDKit          3D

 61 64  0  0  0  0  0  0  0  0999 V2000
    7.9017   -1.8809   -0.7778 C   0  0  0  0  0  0  0  0  0  0  0  0
    6.9981   -1.0825    0.1239 C   0  0  0  0  0  0  0  0  0  0  0  0
    7.5525   -0.4804    1.2608 C   0  0  0  0  0  0  0  0  0  0  0  0
    6.7568    0.2604    2.1248 C   0  0  0  0  0  0  0  0  0  0  0  0
    5.3979    0.4185    1.8568 C   0  0  0  0  0  0  0  0  0  0  0  0
    4.7975   -0.1661    0.7297 C   0  0  0  0  0  0  0  0  0  0  0  0
    3.4411    0.0407    0.4384 N   0  0  0  0  0  0  0  0  0  0  0  0
    2.4838    0.1373    1.5515 C   0  0  0  0  0  0  0  0  0  0  0  0
    1.0467    0.2148    1.0021 C   0  0  0  0  0  0  0  0  0  0  0  0
    0.8548    1.3568    0.0919 N   0  0  0  0  0  0  0  0  0  0  0  0
   -0.3464    2.0323   -0.0806 C   0  0  0  0  0  0  0  0  0  0  0  0
   -0.4294    3.1455   -0.5928 O   0  0  0  0  0  0  0  0  0  0  0  0
   -1.6010    1.3895    0.3724 C   0  0  0  0  0  0  0  0  0  0  0  0
   -1.9571    0.1136   -0.0774 C   0  0  0  0  0  0  0  0  0  0  0  0
   -3.1640   -0.4538    0.3357 C   0  0  0  0  0  0  0  0  0  0  0  0
   -4.0121    0.2557    1.1888 C   0  0  0  0  0  0  0  0  0  0  0  0
   -5.2745   -0.3141    1.5405 N   0  0  0  0  0  0  0  0  0  0  0  0
   -6.5812    0.1184    0.5388 S   0  0  0  0  0  6  0  0  0  0  0  0
   -6.6299    1.5603    0.4410 O   0  0  0  0  0  0  0  0  0  0  0  0
   -7.7244   -0.6361    1.0027 O   0  0  0  0  0  0  0  0  0  0  0  0
   -6.2881   -0.4498   -1.0391 C   0  0  0  0  0  0  0  0  0  0  0  0
   -6.4023   -1.7810   -1.4933 C   0  0  0  0  0  0  0  0  0  0  0  0
   -6.8301   -2.9924   -0.7549 C   0  0  0  0  0  0  0  0  0  0  0  0
   -6.0464   -1.8749   -2.7821 N   0  0  0  0  0  0  0  0  0  0  0  0
   -5.7022   -0.5944   -3.1761 O   0  0  0  0  0  0  0  0  0  0  0  0
   -5.8423    0.2609   -2.1264 C   0  0  0  0  0  0  0  0  0  0  0  0
   -5.4927    1.6712   -2.3806 C   0  0  0  0  0  0  0  0  0  0  0  0
   -3.6723    1.5412    1.6140 C   0  0  0  0  0  0  0  0  0  0  0  0
   -2.4662    2.1116    1.2015 C   0  0  0  0  0  0  0  0  0  0  0  0
    2.0787    1.9698   -0.4358 C   0  0  0  0  0  0  0  0  0  0  0  0
    3.1974    0.9476   -0.7112 C   0  0  0  0  0  0  0  0  0  0  0  0
    5.6081   -0.9563   -0.1281 C   0  0  0  0  0  0  0  0  0  0  0  0
    4.9976   -1.6563   -1.3198 C   0  0  0  0  0  0  0  0  0  0  0  0
    7.7132   -2.9512   -0.6494 H   0  0  0  0  0  0  0  0  0  0  0  0
    7.7465   -1.6024   -1.8251 H   0  0  0  0  0  0  0  0  0  0  0  0
    8.9577   -1.6953   -0.5526 H   0  0  0  0  0  0  0  0  0  0  0  0
    8.6130   -0.5850    1.4791 H   0  0  0  0  0  0  0  0  0  0  0  0
    7.1954    0.7290    3.0014 H   0  0  0  0  0  0  0  0  0  0  0  0
    4.8218    1.0376    2.5365 H   0  0  0  0  0  0  0  0  0  0  0  0
    2.6737    1.0308    2.1583 H   0  0  0  0  0  0  0  0  0  0  0  0
    2.5713   -0.7435    2.1984 H   0  0  0  0  0  0  0  0  0  0  0  0
    0.3382    0.2813    1.8338 H   0  0  0  0  0  0  0  0  0  0  0  0
    0.8245   -0.6917    0.4277 H   0  0  0  0  0  0  0  0  0  0  0  0
   -1.3126   -0.4293   -0.7646 H   0  0  0  0  0  0  0  0  0  0  0  0
   -3.4368   -1.4454   -0.0174 H   0  0  0  0  0  0  0  0  0  0  0  0
   -5.5529   -0.1078    2.5017 H   0  0  0  0  0  0  0  0  0  0  0  0
   -7.9089   -2.9673   -0.5723 H   0  0  0  0  0  0  0  0  0  0  0  0
   -6.3138   -3.0631    0.2076 H   0  0  0  0  0  0  0  0  0  0  0  0
   -6.6057   -3.9047   -1.3178 H   0  0  0  0  0  0  0  0  0  0  0  0
   -5.0657    1.8008   -3.3801 H   0  0  0  0  0  0  0  0  0  0  0  0
   -6.3817    2.3051   -2.3102 H   0  0  0  0  0  0  0  0  0  0  0  0
   -4.7541    2.0244   -1.6551 H   0  0  0  0  0  0  0  0  0  0  0  0
   -4.3470    2.1199    2.2400 H   0  0  0  0  0  0  0  0  0  0  0  0
   -2.2072    3.1221    1.5110 H   0  0  0  0  0  0  0  0  0  0  0  0
    2.4147    2.7008    0.3101 H   0  0  0  0  0  0  0  0  0  0  0  0
    1.8497    2.5236   -1.3531 H   0  0  0  0  0  0  0  0  0  0  0  0
    2.8979    0.3298   -1.5662 H   0  0  0  0  0  0  0  0  0  0  0  0
    4.1042    1.4935   -1.0012 H   0  0  0  0  0  0  0  0  0  0  0  0
    5.4928   -2.6112   -1.5216 H   0  0  0  0  0  0  0  0  0  0  0  0
    3.9458   -1.9063   -1.1485 H   0  0  0  0  0  0  0  0  0  0  0  0
    5.0760   -1.0214   -2.2074 H   0  0  0  0  0  0  0  0  0  0  0  0
  1  2  1  0
  2  3  2  0
  3  4  1  0
  4  5  2  0
  5  6  1  0
  6  7  1  0
  7  8  1  0
  8  9  1  0
  9 10  1  0
 10 11  1  0
 11 12  2  0
 11 13  1  0
 13 14  2  0
 14 15  1  0
 15 16  2  0
 16 17  1  0
 17 18  1  0
 18 19  2  0
 18 20  2  0
 18 21  1  0
 21 22  1  0
 22 23  1  0
 22 24  2  0
 24 25  1  0
 25 26  1  0
 26 27  1  0
 16 28  1  0
 28 29  2  0
 10 30  1  0
 30 31  1  0
  6 32  2  0
 32 33  1  0
 32  2  1  0
 31  7  1  0
 29 13  1  0
 26 21  2  0
  1 34  1  0
  1 35  1  0
  1 36  1  0
  3 37  1  0
  4 38  1  0
  5 39  1  0
  8 40  1  0
  8 41  1  0
  9 42  1  0
  9 43  1  0
 14 44  1  0
 15 45  1  0
 17 46  1  0
 23 47  1  0
 23 48  1  0
 23 49  1  0
 27 50  1  0
 27 51  1  0
 27 52  1  0
 28 53  1  0
 29 54  1  0
 30 55  1  0
 30 56  1  0
 31 57  1  0
 31 58  1  0
 33 59  1  0
 33 60  1  0
 33 61  1  0
M  END
$$$$
