
     RDKit          3D

 62 65  0  0  0  0  0  0  0  0999 V2000
    1.0756   -1.0218   -3.8525 C   0  0  0  0  0  0  0  0  0  0  0  0
    1.0320   -0.1614   -2.7223 O   0  0  0  0  0  0  0  0  0  0  0  0
    2.1119   -0.1738   -1.8720 C   0  0  0  0  0  0  0  0  0  0  0  0
    3.2751   -0.9245   -2.0721 C   0  0  0  0  0  0  0  0  0  0  0  0
    4.3115   -0.8649   -1.1402 C   0  0  0  0  0  0  0  0  0  0  0  0
    4.1794   -0.0544   -0.0096 C   0  0  0  0  0  0  0  0  0  0  0  0
    5.5072   -0.0196    1.1680 S   0  0  0  0  0  6  0  0  0  0  0  0
    6.7327    0.1902    0.4256 O   0  0  0  0  0  0  0  0  0  0  0  0
    5.1389    0.8278    2.2818 O   0  0  0  0  0  0  0  0  0  0  0  0
    5.5152   -1.6241    1.7470 N   0  0  0  0  0  0  0  0  0  0  0  0
    4.2976   -2.0507    2.5162 C   0  0  0  0  0  0  0  0  0  0  0  0
    4.6115   -2.2272    4.0041 C   0  0  0  0  0  0  0  0  0  0  0  0
    5.6050   -3.2345    4.2462 O   0  0  0  0  0  0  0  0  0  0  0  0
    6.6073   -3.3001    3.2207 C   0  0  0  0  0  0  0  0  0  0  0  0
    6.7864   -1.9866    2.4539 C   0  0  0  0  0  0  0  0  0  0  0  0
    3.0324    0.7165    0.1961 C   0  0  0  0  0  0  0  0  0  0  0  0
    1.9919    0.6587   -0.7338 C   0  0  0  0  0  0  0  0  0  0  0  0
    0.7911    1.3920   -0.6067 N   0  0  0  0  0  0  0  0  0  0  0  0
    0.4356    2.2962    0.3726 C   0  0  0  0  0  0  0  0  0  0  0  0
    1.1408    2.6598    1.3106 O   0  0  0  0  0  0  0  0  0  0  0  0
   -0.9696    2.8753    0.1797 C   0  0  0  0  0  0  0  0  0  0  0  0
   -2.0232    1.9561    0.4691 O   0  0  0  0  0  0  0  0  0  0  0  0
   -2.3614    1.1265   -0.5512 C   0  0  0  0  0  0  0  0  0  0  0  0
   -1.8003    1.0936   -1.6405 O   0  0  0  0  0  0  0  0  0  0  0  0
   -3.5233    0.2493   -0.1647 C   0  0  0  0  0  0  0  0  0  0  0  0
   -4.8472    1.0168   -0.2109 C   0  0  0  0  0  0  0  0  0  0  0  0
   -6.0229    0.1620    0.3168 C   0  0  0  0  0  0  0  0  0  0  0  0
   -7.0296    0.1872   -0.8476 C   0  0  0  0  0  0  0  0  0  0  0  0
   -7.6156    1.6037   -0.9781 C   0  0  0  0  0  0  0  0  0  0  0  0
   -6.4418    2.4095   -1.5537 C   0  0  0  0  0  0  0  0  0  0  0  0
   -5.3162    1.3612   -1.6500 C   0  0  0  0  0  0  0  0  0  0  0  0
   -6.1042    0.1148   -2.0602 C   0  0  0  0  0  0  0  0  0  0  0  0
    1.8770   -0.7327   -4.5390 H   0  0  0  0  0  0  0  0  0  0  0  0
    0.1264   -0.9162   -4.3865 H   0  0  0  0  0  0  0  0  0  0  0  0
    1.1710   -2.0690   -3.5486 H   0  0  0  0  0  0  0  0  0  0  0  0
    3.4116   -1.5579   -2.9433 H   0  0  0  0  0  0  0  0  0  0  0  0
    5.2189   -1.4463   -1.2969 H   0  0  0  0  0  0  0  0  0  0  0  0
    3.9712   -3.0051    2.0855 H   0  0  0  0  0  0  0  0  0  0  0  0
    3.4714   -1.3443    2.3945 H   0  0  0  0  0  0  0  0  0  0  0  0
    4.9637   -1.2886    4.4452 H   0  0  0  0  0  0  0  0  0  0  0  0
    3.7086   -2.5235    4.5469 H   0  0  0  0  0  0  0  0  0  0  0  0
    6.3277   -4.1098    2.5365 H   0  0  0  0  0  0  0  0  0  0  0  0
    7.5482   -3.5899    3.6996 H   0  0  0  0  0  0  0  0  0  0  0  0
    7.5824   -2.1057    1.7127 H   0  0  0  0  0  0  0  0  0  0  0  0
    7.0659   -1.1888    3.1513 H   0  0  0  0  0  0  0  0  0  0  0  0
    2.9703    1.3459    1.0778 H   0  0  0  0  0  0  0  0  0  0  0  0
    0.1133    1.2131   -1.3543 H   0  0  0  0  0  0  0  0  0  0  0  0
   -1.0805    3.7171    0.8717 H   0  0  0  0  0  0  0  0  0  0  0  0
   -1.0647    3.2957   -0.8294 H   0  0  0  0  0  0  0  0  0  0  0  0
   -3.3319   -0.1397    0.8432 H   0  0  0  0  0  0  0  0  0  0  0  0
   -3.5290   -0.6207   -0.8309 H   0  0  0  0  0  0  0  0  0  0  0  0
   -4.7497    1.9315    0.3881 H   0  0  0  0  0  0  0  0  0  0  0  0
   -6.4468    0.5815    1.2349 H   0  0  0  0  0  0  0  0  0  0  0  0
   -5.7116   -0.8672    0.5294 H   0  0  0  0  0  0  0  0  0  0  0  0
   -7.7885   -0.5957   -0.7845 H   0  0  0  0  0  0  0  0  0  0  0  0
   -8.4590    1.6150   -1.6780 H   0  0  0  0  0  0  0  0  0  0  0  0
   -7.9632    2.0043   -0.0202 H   0  0  0  0  0  0  0  0  0  0  0  0
   -6.1748    3.2613   -0.9205 H   0  0  0  0  0  0  0  0  0  0  0  0
   -6.7002    2.7947   -2.5468 H   0  0  0  0  0  0  0  0  0  0  0  0
   -4.5173    1.6547   -2.3341 H   0  0  0  0  0  0  0  0  0  0  0  0
   -5.5011   -0.7974   -2.0915 H   0  0  0  0  0  0  0  0  0  0  0  0
   -6.6327    0.2303   -3.0130 H   0  0  0  0  0  0  0  0  0  0  0  0
  1  2  1  0
  2  3  1  0
  3  4  2  0
  4  5  1  0
  5  6  2  0
  6  7  1  0
  7  8  2  0
  7  9  2  0
  7 10  1  0
 10 11  1  0
 11 12  1  0
 12 13  1  0
 13 14  1  0
 14 15  1  0
  6 16  1  0
 16 17  2  0
 17 18  1  0
 18 19  1  0
 19 20  2  0
 19 21  1  0
 21 22  1  0
 22 23  1  0
 23 24  2  0
 23 25  1  0
 25 26  1  0
 26 27  1  0
 27 28  1  0
 28 29  1  0
 29 30  1  0
 30 31  1  0
 31 32  1  0
 17  3  1  0
 31 26  1  0
 15 10  1  0
 32 28  1  0
  1 33  1  0
  1 34  1  0
  1 35  1  0
  4 36  1  0
  5 37  1  0
 11 38  1  0
 11 39  1  0
 12 40  1  0
 12 41  1  0
 14 42  1  0
 14 43  1  0
 15 44  1  0
 15 45  1  0
 16 46  1  0
 18 47  1  0
 21 48  1  0
 21 49  1  0
 25 50  1  0
 25 51  1  0
 26 52  1  0
 27 53  1  0
 27 54  1  0
 28 55  1  0
 29 56  1  0
 29 57  1  0
 30 58  1  0
 30 59  1  0
 31 60  1  0
 32 61  1  0
 32 62  1  0
M  END
$$$$
