
     RDKit          3D

 34 36  0  0  0  0  0  0  0  0999 V2000
    0.0548    0.8123    1.8768 O   0  0  0  0  0  0  0  0  0  0  0  0
   -0.3779   -0.1040    1.1835 C   0  0  0  0  0  0  0  0  0  0  0  0
   -1.8094   -0.5930    1.3612 C   0  0  0  0  0  0  0  0  0  0  0  0
   -2.7870    0.1209    0.4539 C   0  0  0  0  0  0  0  0  0  0  0  0
   -3.1665    1.4318    0.7963 C   0  0  0  0  0  0  0  0  0  0  0  0
   -4.0799    2.1480    0.0172 C   0  0  0  0  0  0  0  0  0  0  0  0
   -4.6365    1.5730   -1.1230 C   0  0  0  0  0  0  0  0  0  0  0  0
   -4.2734    0.2806   -1.4946 C   0  0  0  0  0  0  0  0  0  0  0  0
   -3.3492   -0.4324   -0.7137 C   0  0  0  0  0  0  0  0  0  0  0  0
   -2.9883   -1.7689   -1.1756 N   0  0  0  0  0  4  0  0  0  0  0  0
   -1.7813   -2.0576   -1.1998 O   0  0  0  0  0  0  0  0  0  0  0  0
   -3.9078   -2.5211   -1.5218 O   0  0  0  0  0  1  0  0  0  0  0  0
    0.3055   -0.7802    0.1897 N   0  0  0  0  0  0  0  0  0  0  0  0
    1.6399   -0.5887   -0.2233 C   0  0  0  0  0  0  0  0  0  0  0  0
    2.0841   -1.3734   -1.3123 C   0  0  0  0  0  0  0  0  0  0  0  0
    3.3908   -1.2637   -1.8008 C   0  0  0  0  0  0  0  0  0  0  0  0
    4.2283   -0.3652   -1.1816 C   0  0  0  0  0  0  0  0  0  0  0  0
    3.8055    0.4002   -0.1215 C   0  0  0  0  0  0  0  0  0  0  0  0
    2.5216    0.3127    0.3810 C   0  0  0  0  0  0  0  0  0  0  0  0
    4.7859    1.2207    0.3458 O   0  0  0  0  0  0  0  0  0  0  0  0
    5.8704    0.8833   -0.5424 C   0  0  0  0  0  0  0  0  0  0  0  0
    5.5235   -0.1239   -1.5155 O   0  0  0  0  0  0  0  0  0  0  0  0
   -2.0949   -0.4142    2.4068 H   0  0  0  0  0  0  0  0  0  0  0  0
   -1.8560   -1.6816    1.2548 H   0  0  0  0  0  0  0  0  0  0  0  0
   -2.7448    1.9106    1.6813 H   0  0  0  0  0  0  0  0  0  0  0  0
   -4.3560    3.1608    0.3047 H   0  0  0  0  0  0  0  0  0  0  0  0
   -5.3484    2.1353   -1.7231 H   0  0  0  0  0  0  0  0  0  0  0  0
   -4.7076   -0.1585   -2.3910 H   0  0  0  0  0  0  0  0  0  0  0  0
   -0.2280   -1.4644   -0.3463 H   0  0  0  0  0  0  0  0  0  0  0  0
    1.4100   -2.0799   -1.7926 H   0  0  0  0  0  0  0  0  0  0  0  0
    3.7325   -1.8641   -2.6360 H   0  0  0  0  0  0  0  0  0  0  0  0
    2.2430    0.9375    1.2200 H   0  0  0  0  0  0  0  0  0  0  0  0
    6.7128    0.5171    0.0558 H   0  0  0  0  0  0  0  0  0  0  0  0
    6.1842    1.7897   -1.0730 H   0  0  0  0  0  0  0  0  0  0  0  0
  1  2  2  0
  2  3  1  0
  3  4  1  0
  4  5  2  0
  5  6  1  0
  6  7  2  0
  7  8  1  0
  8  9  2  0
  9 10  1  0
 10 11  2  0
 10 12  1  0
  2 13  1  0
 13 14  1  0
 14 15  2  0
 15 16  1  0
 16 17  2  0
 17 18  1  0
 18 19  2  0
 18 20  1  0
 20 21  1  0
 21 22  1  0
  9  4  1  0
 19 14  1  0
 22 17  1  0
  3 23  1  0
  3 24  1  0
  5 25  1  0
  6 26  1  0
  7 27  1  0
  8 28  1  0
 13 29  1  0
 15 30  1  0
 16 31  1  0
 19 32  1  0
 21 33  1  0
 21 34  1  0
M  CHG  2  10   1  12  -1
M  END
$$$$
