
     RDKit          3D

 51 54  0  0  0  0  0  0  0  0999 V2000
   -2.4647   -0.6647    3.3390 C   0  0  0  0  0  0  0  0  0  0  0  0
   -2.4367   -0.4186    1.9402 O   0  0  0  0  0  0  0  0  0  0  0  0
   -3.6289   -0.4200    1.2650 C   0  0  0  0  0  0  0  0  0  0  0  0
   -4.8705   -0.6600    1.8679 C   0  0  0  0  0  0  0  0  0  0  0  0
   -6.0455   -0.6386    1.1139 C   0  0  0  0  0  0  0  0  0  0  0  0
   -5.9924   -0.3770   -0.2494 C   0  0  0  0  0  0  0  0  0  0  0  0
   -4.7630   -0.1375   -0.8609 C   0  0  0  0  0  0  0  0  0  0  0  0
   -3.5656   -0.1556   -0.1197 C   0  0  0  0  0  0  0  0  0  0  0  0
   -2.2602    0.1099   -0.8614 C   0  0  0  0  0  0  0  0  0  0  0  0
   -1.3077   -1.0916   -0.8534 C   0  0  0  0  0  0  0  0  0  0  0  0
   -0.0549   -0.8165   -1.6989 C   0  0  0  0  0  0  0  0  0  0  0  0
    0.3605    0.5872   -1.7003 N   0  0  0  0  0  0  0  0  0  0  0  0
    1.7349    0.8220   -2.1581 C   0  0  0  0  0  0  0  0  0  0  0  0
    2.8046    0.3249   -1.2222 C   0  0  0  0  0  0  0  0  0  0  0  0
    3.4490   -0.9079   -1.2571 C   0  0  0  0  0  0  0  0  0  0  0  0
    3.3075   -2.0749   -2.1671 C   0  0  0  0  0  0  0  0  0  0  0  0
    4.3484   -0.9423   -0.2211 N   0  0  0  0  0  0  0  0  0  0  0  0
    4.3677    0.2556    0.4477 C   0  0  0  0  0  0  0  0  0  0  0  0
    5.1517    0.6666    1.5330 C   0  0  0  0  0  0  0  0  0  0  0  0
    4.9743    1.9693    2.0056 C   0  0  0  0  0  0  0  0  0  0  0  0
    4.0524    2.8251    1.4108 C   0  0  0  0  0  0  0  0  0  0  0  0
    3.2768    2.3947    0.3278 C   0  0  0  0  0  0  0  0  0  0  0  0
    3.4247    1.0794   -0.1639 C   0  0  0  0  0  0  0  0  0  0  0  0
   -0.0206    1.2976   -0.4870 C   0  0  0  0  0  0  0  0  0  0  0  0
   -1.5485    1.3963   -0.3970 C   0  0  0  0  0  0  0  0  0  0  0  0
   -1.4349   -0.6192    3.7062 H   0  0  0  0  0  0  0  0  0  0  0  0
   -3.0387    0.1054    3.8646 H   0  0  0  0  0  0  0  0  0  0  0  0
   -2.8504   -1.6661    3.5562 H   0  0  0  0  0  0  0  0  0  0  0  0
   -4.9596   -0.8672    2.9288 H   0  0  0  0  0  0  0  0  0  0  0  0
   -7.0022   -0.8259    1.5944 H   0  0  0  0  0  0  0  0  0  0  0  0
   -6.9054   -0.3587   -0.8385 H   0  0  0  0  0  0  0  0  0  0  0  0
   -4.7435    0.0653   -1.9299 H   0  0  0  0  0  0  0  0  0  0  0  0
   -2.5165    0.2743   -1.9193 H   0  0  0  0  0  0  0  0  0  0  0  0
   -0.9902   -1.3277    0.1690 H   0  0  0  0  0  0  0  0  0  0  0  0
   -1.8137   -1.9879   -1.2330 H   0  0  0  0  0  0  0  0  0  0  0  0
   -0.2522   -1.1153   -2.7354 H   0  0  0  0  0  0  0  0  0  0  0  0
    0.7257   -1.4811   -1.3196 H   0  0  0  0  0  0  0  0  0  0  0  0
    1.8756    1.8970   -2.3295 H   0  0  0  0  0  0  0  0  0  0  0  0
    1.8671    0.3656   -3.1470 H   0  0  0  0  0  0  0  0  0  0  0  0
    2.8335   -2.9109   -1.6428 H   0  0  0  0  0  0  0  0  0  0  0  0
    2.6993   -1.8334   -3.0432 H   0  0  0  0  0  0  0  0  0  0  0  0
    4.2883   -2.4052   -2.5248 H   0  0  0  0  0  0  0  0  0  0  0  0
    4.9451   -1.7260    0.0025 H   0  0  0  0  0  0  0  0  0  0  0  0
    5.8771    0.0032    1.9921 H   0  0  0  0  0  0  0  0  0  0  0  0
    5.5689    2.3196    2.8459 H   0  0  0  0  0  0  0  0  0  0  0  0
    3.9323    3.8378    1.7871 H   0  0  0  0  0  0  0  0  0  0  0  0
    2.5685    3.0777   -0.1301 H   0  0  0  0  0  0  0  0  0  0  0  0
    0.3664    2.3226   -0.4944 H   0  0  0  0  0  0  0  0  0  0  0  0
    0.3801    0.8039    0.4072 H   0  0  0  0  0  0  0  0  0  0  0  0
   -1.8164    1.6792    0.6272 H   0  0  0  0  0  0  0  0  0  0  0  0
   -1.8977    2.2259   -1.0272 H   0  0  0  0  0  0  0  0  0  0  0  0
  1  2  1  0
  2  3  1  0
  3  4  2  0
  4  5  1  0
  5  6  2  0
  6  7  1  0
  7  8  2  0
  8  9  1  0
  9 10  1  0
 10 11  1  0
 11 12  1  0
 12 13  1  0
 13 14  1  0
 14 15  2  0
 15 16  1  0
 15 17  1  0
 17 18  1  0
 18 19  2  0
 19 20  1  0
 20 21  2  0
 21 22  1  0
 22 23  2  0
 12 24  1  0
 24 25  1  0
  8  3  1  0
 25  9  1  0
 23 14  1  0
 23 18  1  0
  1 26  1  0
  1 27  1  0
  1 28  1  0
  4 29  1  0
  5 30  1  0
  6 31  1  0
  7 32  1  0
  9 33  1  0
 10 34  1  0
 10 35  1  0
 11 36  1  0
 11 37  1  0
 13 38  1  0
 13 39  1  0
 16 40  1  0
 16 41  1  0
 16 42  1  0
 17 43  1  0
 19 44  1  0
 20 45  1  0
 21 46  1  0
 22 47  1  0
 24 48  1  0
 24 49  1  0
 25 50  1  0
 25 51  1  0
M  END
$$$$
