
     RDKit          3D

 43 46  0  0  0  0  0  0  0  0999 V2000
    2.0079    2.1654    2.6741 C   0  0  0  0  0  0  0  0  0  0  0  0
    3.1192    1.2955    2.5066 O   0  0  0  0  0  0  0  0  0  0  0  0
    2.8152    0.1532    1.7951 C   0  0  0  0  0  0  0  0  0  0  0  0
    1.5913   -0.0085    1.3016 N   0  0  0  0  0  0  0  0  0  0  0  0
    1.3950   -1.1274    0.6247 C   0  0  0  0  0  0  0  0  0  0  0  0
    0.1672   -1.4211    0.0659 N   0  0  0  0  0  0  0  0  0  0  0  0
   -0.7578   -0.3873   -0.3990 C   0  0  0  0  0  0  0  0  0  0  0  0
   -1.8897   -1.1156   -1.1821 C   0  0  0  0  0  0  0  0  0  0  0  0
   -2.9269   -0.1140   -1.7142 C   0  0  0  0  0  0  0  0  0  0  0  0
   -3.5476    0.6436   -0.5310 C   0  0  0  0  0  0  0  0  0  0  0  0
   -2.4509    1.3867    0.2467 C   0  0  0  0  0  0  0  0  0  0  0  0
   -1.7443    2.3793   -0.6934 C   0  0  0  0  0  0  0  0  0  0  0  0
   -1.1227    1.6320   -1.8863 C   0  0  0  0  0  0  0  0  0  0  0  0
   -2.2284    0.8855   -2.6490 C   0  0  0  0  0  0  0  0  0  0  0  0
   -0.0882    0.6172   -1.3665 C   0  0  0  0  0  0  0  0  0  0  0  0
   -1.4225    0.3700    0.7753 C   0  0  0  0  0  0  0  0  0  0  0  0
    2.3289   -2.0465    0.4293 N   0  0  0  0  0  0  0  0  0  0  0  0
    3.5131   -1.7767    0.9740 C   0  0  0  0  0  0  0  0  0  0  0  0
    4.5537   -2.6703    0.8243 O   0  0  0  0  0  0  0  0  0  0  0  0
    4.1767   -3.8678    0.1590 C   0  0  0  0  0  0  0  0  0  0  0  0
    3.8227   -0.6915    1.6619 N   0  0  0  0  0  0  0  0  0  0  0  0
    2.3446    3.0288    3.2562 H   0  0  0  0  0  0  0  0  0  0  0  0
    1.2031    1.6797    3.2371 H   0  0  0  0  0  0  0  0  0  0  0  0
    1.6441    2.5375    1.7099 H   0  0  0  0  0  0  0  0  0  0  0  0
    0.3271   -2.1815   -0.5871 H   0  0  0  0  0  0  0  0  0  0  0  0
   -1.4651   -1.6835   -2.0210 H   0  0  0  0  0  0  0  0  0  0  0  0
   -2.3843   -1.8519   -0.5342 H   0  0  0  0  0  0  0  0  0  0  0  0
   -3.7104   -0.6482   -2.2631 H   0  0  0  0  0  0  0  0  0  0  0  0
   -4.2988    1.3559   -0.8938 H   0  0  0  0  0  0  0  0  0  0  0  0
   -4.0682   -0.0578    0.1325 H   0  0  0  0  0  0  0  0  0  0  0  0
   -2.8983    1.9288    1.0873 H   0  0  0  0  0  0  0  0  0  0  0  0
   -2.4620    3.1263   -1.0544 H   0  0  0  0  0  0  0  0  0  0  0  0
   -0.9657    2.9245   -0.1458 H   0  0  0  0  0  0  0  0  0  0  0  0
   -0.6320    2.3476   -2.5555 H   0  0  0  0  0  0  0  0  0  0  0  0
   -2.9588    1.6011   -3.0460 H   0  0  0  0  0  0  0  0  0  0  0  0
   -1.7995    0.3578   -3.5097 H   0  0  0  0  0  0  0  0  0  0  0  0
    0.7218    1.1651   -0.8710 H   0  0  0  0  0  0  0  0  0  0  0  0
    0.3707    0.0851   -2.2102 H   0  0  0  0  0  0  0  0  0  0  0  0
   -1.9120   -0.3386    1.4563 H   0  0  0  0  0  0  0  0  0  0  0  0
   -0.6833    0.9096    1.3757 H   0  0  0  0  0  0  0  0  0  0  0  0
    5.0564   -4.5175    0.1169 H   0  0  0  0  0  0  0  0  0  0  0  0
    3.8628   -3.6680   -0.8715 H   0  0  0  0  0  0  0  0  0  0  0  0
    3.3958   -4.4025    0.7112 H   0  0  0  0  0  0  0  0  0  0  0  0
  1  2  1  0
  2  3  1  0
  3  4  2  0
  4  5  1  0
  5  6  1  0
  6  7  1  0
  7  8  1  0
  8  9  1  0
  9 10  1  0
 10 11  1  0
 11 12  1  0
 12 13  1  0
 13 14  1  0
 13 15  1  0
 11 16  1  0
  5 17  2  0
 17 18  1  0
 18 19  1  0
 19 20  1  0
 18 21  2  0
 21  3  1  0
 15  7  1  0
 16  7  1  0
 14  9  1  0
  1 22  1  0
  1 23  1  0
  1 24  1  0
  6 25  1  0
  8 26  1  0
  8 27  1  0
  9 28  1  0
 10 29  1  0
 10 30  1  0
 11 31  1  0
 12 32  1  0
 12 33  1  0
 13 34  1  0
 14 35  1  0
 14 36  1  0
 15 37  1  0
 15 38  1  0
 16 39  1  0
 16 40  1  0
 20 41  1  0
 20 42  1  0
 20 43  1  0
M  END
$$$$
