
     RDKit          3D

 56 58  0  0  0  0  0  0  0  0999 V2000
   -9.1798    0.2090   -1.5322 C   0  0  0  0  0  0  0  0  0  0  0  0
   -8.3759   -0.0901   -0.4009 O   0  0  0  0  0  0  0  0  0  0  0  0
   -7.0336    0.1890   -0.4807 C   0  0  0  0  0  0  0  0  0  0  0  0
   -6.4010    0.7115   -1.6137 C   0  0  0  0  0  0  0  0  0  0  0  0
   -5.0264    0.9627   -1.6063 C   0  0  0  0  0  0  0  0  0  0  0  0
   -4.2650    0.6988   -0.4650 C   0  0  0  0  0  0  0  0  0  0  0  0
   -2.7775    0.9492   -0.4551 C   0  0  0  0  0  0  0  0  0  0  0  0
   -1.9853   -0.3290   -0.7417 C   0  0  0  0  0  0  0  0  0  0  0  0
   -0.5529   -0.0989   -0.7400 N   0  0  0  0  0  0  0  0  0  0  0  0
    0.1488    0.0088    0.4354 C   0  0  0  0  0  0  0  0  0  0  0  0
   -0.3640   -0.0676    1.5451 O   0  0  0  0  0  0  0  0  0  0  0  0
    1.5948    0.3303    0.2772 C   0  0  0  0  0  0  0  0  0  0  0  0
    2.3428   -0.1565   -0.7305 C   0  0  0  0  0  0  0  0  0  0  0  0
    3.8118    0.1041   -0.8931 C   0  0  0  0  0  0  0  0  0  0  0  0
    4.4015    0.7968    0.2750 N   0  0  0  0  0  0  0  0  0  0  0  0
    5.2476   -0.1732    1.3886 S   0  0  0  0  0  6  0  0  0  0  0  0
    4.4285   -1.3269    1.6890 O   0  0  0  0  0  0  0  0  0  0  0  0
    5.7700    0.6778    2.4355 O   0  0  0  0  0  0  0  0  0  0  0  0
    6.6444   -0.7178    0.4298 C   0  0  0  0  0  0  0  0  0  0  0  0
    6.8247   -2.0791    0.1600 C   0  0  0  0  0  0  0  0  0  0  0  0
    7.9261   -2.4844   -0.5948 C   0  0  0  0  0  0  0  0  0  0  0  0
    8.8289   -1.5326   -1.0623 C   0  0  0  0  0  0  0  0  0  0  0  0
    9.8829   -1.9271   -1.7880 F   0  0  0  0  0  0  0  0  0  0  0  0
    8.6563   -0.1784   -0.7880 C   0  0  0  0  0  0  0  0  0  0  0  0
    7.5584    0.2365   -0.0345 C   0  0  0  0  0  0  0  0  0  0  0  0
    3.5028    1.8207    0.8694 C   0  0  0  0  0  0  0  0  0  0  0  0
    2.1900    1.2050    1.3436 C   0  0  0  0  0  0  0  0  0  0  0  0
   -4.8970    0.1708    0.6714 C   0  0  0  0  0  0  0  0  0  0  0  0
   -6.2736   -0.0860    0.6736 C   0  0  0  0  0  0  0  0  0  0  0  0
   -6.9647   -0.6012    1.7429 O   0  0  0  0  0  0  0  0  0  0  0  0
   -6.2301   -0.8908    2.9237 C   0  0  0  0  0  0  0  0  0  0  0  0
   -9.1579    1.2795   -1.7619 H   0  0  0  0  0  0  0  0  0  0  0  0
   -8.8797   -0.3888   -2.3990 H   0  0  0  0  0  0  0  0  0  0  0  0
  -10.2130   -0.0566   -1.2882 H   0  0  0  0  0  0  0  0  0  0  0  0
   -6.9505    0.9338   -2.5220 H   0  0  0  0  0  0  0  0  0  0  0  0
   -4.5582    1.3681   -2.5005 H   0  0  0  0  0  0  0  0  0  0  0  0
   -2.5237    1.7183   -1.1961 H   0  0  0  0  0  0  0  0  0  0  0  0
   -2.4908    1.3744    0.5151 H   0  0  0  0  0  0  0  0  0  0  0  0
   -2.2440   -0.7318   -1.7274 H   0  0  0  0  0  0  0  0  0  0  0  0
   -2.2132   -1.1005    0.0033 H   0  0  0  0  0  0  0  0  0  0  0  0
   -0.1051    0.1420   -1.6123 H   0  0  0  0  0  0  0  0  0  0  0  0
    1.9087   -0.8266   -1.4674 H   0  0  0  0  0  0  0  0  0  0  0  0
    4.3222   -0.8433   -1.0913 H   0  0  0  0  0  0  0  0  0  0  0  0
    3.9711    0.7306   -1.7783 H   0  0  0  0  0  0  0  0  0  0  0  0
    6.1225   -2.8214    0.5337 H   0  0  0  0  0  0  0  0  0  0  0  0
    8.0905   -3.5344   -0.8176 H   0  0  0  0  0  0  0  0  0  0  0  0
    9.3803    0.5410   -1.1584 H   0  0  0  0  0  0  0  0  0  0  0  0
    7.4192    1.2912    0.1931 H   0  0  0  0  0  0  0  0  0  0  0  0
    4.0009    2.3481    1.6895 H   0  0  0  0  0  0  0  0  0  0  0  0
    3.3083    2.5838    0.1037 H   0  0  0  0  0  0  0  0  0  0  0  0
    1.4989    2.0152    1.6046 H   0  0  0  0  0  0  0  0  0  0  0  0
    2.3530    0.6091    2.2493 H   0  0  0  0  0  0  0  0  0  0  0  0
   -4.2869   -0.0324    1.5471 H   0  0  0  0  0  0  0  0  0  0  0  0
   -5.4722   -1.6593    2.7393 H   0  0  0  0  0  0  0  0  0  0  0  0
   -5.7827    0.0162    3.3436 H   0  0  0  0  0  0  0  0  0  0  0  0
   -6.9312   -1.2878    3.6643 H   0  0  0  0  0  0  0  0  0  0  0  0
  1  2  1  0
  2  3  1  0
  3  4  2  0
  4  5  1  0
  5  6  2  0
  6  7  1  0
  7  8  1  0
  8  9  1  0
  9 10  1  0
 10 11  2  0
 10 12  1  0
 12 13  2  0
 13 14  1  0
 14 15  1  0
 15 16  1  0
 16 17  2  0
 16 18  2  0
 16 19  1  0
 19 20  2  0
 20 21  1  0
 21 22  2  0
 22 23  1  0
 22 24  1  0
 24 25  2  0
 15 26  1  0
 26 27  1  0
  6 28  1  0
 28 29  2  0
 29 30  1  0
 30 31  1  0
 29  3  1  0
 27 12  1  0
 25 19  1  0
  1 32  1  0
  1 33  1  0
  1 34  1  0
  4 35  1  0
  5 36  1  0
  7 37  1  0
  7 38  1  0
  8 39  1  0
  8 40  1  0
  9 41  1  0
 13 42  1  0
 14 43  1  0
 14 44  1  0
 20 45  1  0
 21 46  1  0
 24 47  1  0
 25 48  1  0
 26 49  1  0
 26 50  1  0
 27 51  1  0
 27 52  1  0
 28 53  1  0
 31 54  1  0
 31 55  1  0
 31 56  1  0
M  END
$$$$
