
     RDKit          3D

 48 50  0  0  0  0  0  0  0  0999 V2000
    5.7806   -3.4961    0.1392 C   0  0  0  0  0  0  0  0  0  0  0  0
    4.5981   -3.3491   -0.8073 C   0  0  0  0  0  0  0  0  0  0  0  0
    3.4152   -2.6043   -0.1984 C   0  0  0  0  0  0  0  0  0  0  0  0
    3.7259   -0.8639    0.0402 S   0  0  0  0  0  6  0  0  0  0  0  0
    4.5646   -0.6763    1.2085 O   0  0  0  0  0  0  0  0  0  0  0  0
    4.0362   -0.2589   -1.2415 O   0  0  0  0  0  0  0  0  0  0  0  0
    2.1319   -0.2332    0.4921 C   0  0  0  0  0  0  0  0  0  0  0  0
    1.0314   -0.9413    0.6159 N   0  0  0  0  0  0  0  0  0  0  0  0
   -0.0131   -0.0854    0.9888 C   0  0  0  0  0  0  0  0  0  0  0  0
   -1.6175   -0.7418    1.2320 S   0  0  0  0  0  6  0  0  0  0  0  0
   -2.4401    0.3498    1.7226 O   0  0  0  0  0  0  0  0  0  0  0  0
   -1.4105   -1.9508    2.0070 O   0  0  0  0  0  0  0  0  0  0  0  0
   -2.1593   -1.1776   -0.3950 C   0  0  0  0  0  0  0  0  0  0  0  0
   -2.7180   -0.1970   -1.2199 C   0  0  0  0  0  0  0  0  0  0  0  0
   -3.1648   -0.5464   -2.4957 C   0  0  0  0  0  0  0  0  0  0  0  0
   -3.0528   -1.8675   -2.9517 C   0  0  0  0  0  0  0  0  0  0  0  0
   -3.5686   -2.2448   -4.3101 C   0  0  0  0  0  0  0  0  0  0  0  0
   -2.5148   -2.8445   -2.1025 C   0  0  0  0  0  0  0  0  0  0  0  0
   -2.0676   -2.5036   -0.8248 C   0  0  0  0  0  0  0  0  0  0  0  0
    0.3124    1.2652    1.1049 C   0  0  0  0  0  0  0  0  0  0  0  0
   -0.5102    2.3171    1.3930 N   0  0  0  0  0  0  0  0  0  0  0  0
   -0.0093    3.5782    1.9354 C   0  0  0  0  0  0  0  0  0  0  0  0
   -1.0877    4.5805    2.1693 C   0  0  0  0  0  0  0  0  0  0  0  0
   -1.7653    5.4518    1.3409 C   0  0  0  0  0  0  0  0  0  0  0  0
   -2.6968    6.1368    2.1577 C   0  0  0  0  0  0  0  0  0  0  0  0
   -2.5325    5.6374    3.4286 C   0  0  0  0  0  0  0  0  0  0  0  0
   -1.5582    4.6914    3.4460 O   0  0  0  0  0  0  0  0  0  0  0  0
    2.0014    1.4384    0.7711 S   0  0  0  0  0  0  0  0  0  0  0  0
    5.4735   -3.9270    1.0969 H   0  0  0  0  0  0  0  0  0  0  0  0
    6.2629   -2.5336    0.3328 H   0  0  0  0  0  0  0  0  0  0  0  0
    6.5328   -4.1575   -0.3023 H   0  0  0  0  0  0  0  0  0  0  0  0
    4.2614   -4.3542   -1.0917 H   0  0  0  0  0  0  0  0  0  0  0  0
    4.9296   -2.8539   -1.7272 H   0  0  0  0  0  0  0  0  0  0  0  0
    3.1271   -3.0351    0.7666 H   0  0  0  0  0  0  0  0  0  0  0  0
    2.5653   -2.6777   -0.8869 H   0  0  0  0  0  0  0  0  0  0  0  0
   -2.8180    0.8318   -0.8798 H   0  0  0  0  0  0  0  0  0  0  0  0
   -3.6085    0.2174   -3.1337 H   0  0  0  0  0  0  0  0  0  0  0  0
   -3.4471   -1.4177   -5.0168 H   0  0  0  0  0  0  0  0  0  0  0  0
   -4.6296   -2.5057   -4.2475 H   0  0  0  0  0  0  0  0  0  0  0  0
   -3.0173   -3.1010   -4.7138 H   0  0  0  0  0  0  0  0  0  0  0  0
   -2.4472   -3.8796   -2.4313 H   0  0  0  0  0  0  0  0  0  0  0  0
   -1.6578   -3.2747   -0.1763 H   0  0  0  0  0  0  0  0  0  0  0  0
   -1.4453    2.0921    1.7605 H   0  0  0  0  0  0  0  0  0  0  0  0
    0.7163    4.0244    1.2438 H   0  0  0  0  0  0  0  0  0  0  0  0
    0.5107    3.3864    2.8835 H   0  0  0  0  0  0  0  0  0  0  0  0
   -1.6076    5.5685    0.2769 H   0  0  0  0  0  0  0  0  0  0  0  0
   -3.4056    6.8960    1.8576 H   0  0  0  0  0  0  0  0  0  0  0  0
   -3.0062    5.8371    4.3799 H   0  0  0  0  0  0  0  0  0  0  0  0
  1  2  1  0
  2  3  1  0
  3  4  1  0
  4  5  2  0
  4  6  2  0
  4  7  1  0
  7  8  2  0
  8  9  1  0
  9 10  1  0
 10 11  2  0
 10 12  2  0
 10 13  1  0
 13 14  2  0
 14 15  1  0
 15 16  2  0
 16 17  1  0
 16 18  1  0
 18 19  2  0
  9 20  2  0
 20 21  1  0
 21 22  1  0
 22 23  1  0
 23 24  2  0
 24 25  1  0
 25 26  2  0
 26 27  1  0
 20 28  1  0
 28  7  1  0
 19 13  1  0
 27 23  1  0
  1 29  1  0
  1 30  1  0
  1 31  1  0
  2 32  1  0
  2 33  1  0
  3 34  1  0
  3 35  1  0
 14 36  1  0
 15 37  1  0
 17 38  1  0
 17 39  1  0
 17 40  1  0
 18 41  1  0
 19 42  1  0
 21 43  1  0
 22 44  1  0
 22 45  1  0
 24 46  1  0
 25 47  1  0
 26 48  1  0
M  END
$$$$
