
     RDKit          3D

 57 61  0  0  0  0  0  0  0  0999 V2000
    7.6722    1.0238   -2.6535 C   0  0  0  0  0  0  0  0  0  0  0  0
    7.2042   -0.3190   -2.6665 O   0  0  0  0  0  0  0  0  0  0  0  0
    6.3482   -0.6832   -1.6639 C   0  0  0  0  0  0  0  0  0  0  0  0
    5.8922    0.1388   -0.6342 C   0  0  0  0  0  0  0  0  0  0  0  0
    5.0125   -0.3649    0.3302 C   0  0  0  0  0  0  0  0  0  0  0  0
    4.5805   -1.6974    0.2818 C   0  0  0  0  0  0  0  0  0  0  0  0
    3.6077   -2.2194    1.3069 C   0  0  0  0  0  0  0  0  0  0  0  0
    2.2512   -1.8716    0.9428 N   0  0  0  0  0  0  0  0  0  0  0  0
    1.6191   -0.7809    1.4917 C   0  0  0  0  0  0  0  0  0  0  0  0
    2.1194   -0.0880    2.3738 O   0  0  0  0  0  0  0  0  0  0  0  0
    0.2963   -0.4156    0.9031 C   0  0  0  0  0  0  0  0  0  0  0  0
   -0.5000   -1.3231    0.3125 C   0  0  0  0  0  0  0  0  0  0  0  0
   -1.7783   -0.9817   -0.2941 C   0  0  0  0  0  0  0  0  0  0  0  0
   -2.5604   -2.0452   -0.9865 C   0  0  0  0  0  0  0  0  0  0  0  0
   -2.1109   -3.1925   -1.0453 O   0  0  0  0  0  0  0  0  0  0  0  0
   -3.7660   -1.6529   -1.5377 N   0  0  0  0  0  0  0  0  0  0  0  0
   -4.5602   -2.5903   -2.1898 C   0  0  0  0  0  0  0  0  0  0  0  0
   -5.7293   -2.2557   -2.7494 C   0  0  0  0  0  0  0  0  0  0  0  0
   -6.1892   -0.8943   -2.6865 C   0  0  0  0  0  0  0  0  0  0  0  0
   -5.4557    0.0401   -2.0704 C   0  0  0  0  0  0  0  0  0  0  0  0
   -4.1550   -0.3303   -1.4432 C   0  0  0  0  0  0  0  0  0  0  0  0
   -3.4684    0.5943   -0.8531 N   0  0  0  0  0  0  0  0  0  0  0  0
   -2.2680    0.2783   -0.2561 C   0  0  0  0  0  0  0  0  0  0  0  0
   -1.5110    1.2732    0.4086 N   0  0  0  0  0  0  0  0  0  0  0  0
   -2.0664    2.6285    0.5686 C   0  0  0  0  0  0  0  0  0  0  0  0
   -2.9581    2.7328    1.7821 C   0  0  0  0  0  0  0  0  0  0  0  0
   -4.3473    2.5984    1.6894 C   0  0  0  0  0  0  0  0  0  0  0  0
   -5.1328    2.6980    2.8339 C   0  0  0  0  0  0  0  0  0  0  0  0
   -4.5011    2.9302    4.0432 C   0  0  0  0  0  0  0  0  0  0  0  0
   -3.1657    3.0640    4.1773 N   0  0  0  0  0  0  0  0  0  0  0  0
   -2.4251    2.9570    3.0476 C   0  0  0  0  0  0  0  0  0  0  0  0
   -0.2660    0.9862    0.9884 C   0  0  0  0  0  0  0  0  0  0  0  0
    0.4039    1.9273    1.5953 N   0  0  0  0  0  0  0  0  0  0  0  0
    5.0355   -2.5158   -0.7586 C   0  0  0  0  0  0  0  0  0  0  0  0
    5.9147   -2.0099   -1.7195 C   0  0  0  0  0  0  0  0  0  0  0  0
    8.3394    1.1532   -3.5111 H   0  0  0  0  0  0  0  0  0  0  0  0
    6.8442    1.7316   -2.7664 H   0  0  0  0  0  0  0  0  0  0  0  0
    8.2506    1.2319   -1.7474 H   0  0  0  0  0  0  0  0  0  0  0  0
    6.1967    1.1767   -0.5502 H   0  0  0  0  0  0  0  0  0  0  0  0
    4.6594    0.2934    1.1235 H   0  0  0  0  0  0  0  0  0  0  0  0
    3.8582   -1.8357    2.3022 H   0  0  0  0  0  0  0  0  0  0  0  0
    3.6589   -3.3127    1.3588 H   0  0  0  0  0  0  0  0  0  0  0  0
    1.9102   -2.2628    0.0766 H   0  0  0  0  0  0  0  0  0  0  0  0
   -0.2191   -2.3713    0.2647 H   0  0  0  0  0  0  0  0  0  0  0  0
   -4.1914   -3.6125   -2.2269 H   0  0  0  0  0  0  0  0  0  0  0  0
   -6.3428   -2.9939   -3.2561 H   0  0  0  0  0  0  0  0  0  0  0  0
   -7.1387   -0.6457   -3.1499 H   0  0  0  0  0  0  0  0  0  0  0  0
   -5.7658    1.0753   -2.0033 H   0  0  0  0  0  0  0  0  0  0  0  0
   -2.6296    2.9223   -0.3274 H   0  0  0  0  0  0  0  0  0  0  0  0
   -1.2758    3.3876    0.6310 H   0  0  0  0  0  0  0  0  0  0  0  0
   -4.8189    2.4126    0.7282 H   0  0  0  0  0  0  0  0  0  0  0  0
   -6.2105    2.5956    2.7839 H   0  0  0  0  0  0  0  0  0  0  0  0
   -5.0688    3.0165    4.9648 H   0  0  0  0  0  0  0  0  0  0  0  0
   -1.3529    3.0637    3.1973 H   0  0  0  0  0  0  0  0  0  0  0  0
    1.2744    1.5419    2.0047 H   0  0  0  0  0  0  0  0  0  0  0  0
    4.7137   -3.5519   -0.8308 H   0  0  0  0  0  0  0  0  0  0  0  0
    6.2658   -2.6552   -2.5213 H   0  0  0  0  0  0  0  0  0  0  0  0
  1  2  1  0
  2  3  1  0
  3  4  2  0
  4  5  1  0
  5  6  2  0
  6  7  1  0
  7  8  1  0
  8  9  1  0
  9 10  2  0
  9 11  1  0
 11 12  2  0
 12 13  1  0
 13 14  1  0
 14 15  2  0
 14 16  1  0
 16 17  1  0
 17 18  2  0
 18 19  1  0
 19 20  2  0
 20 21  1  0
 21 22  2  0
 22 23  1  0
 23 24  1  0
 24 25  1  0
 25 26  1  0
 26 27  2  0
 27 28  1  0
 28 29  2  0
 29 30  1  0
 30 31  2  0
 24 32  1  0
 32 33  2  3
  6 34  1  0
 34 35  2  0
 35  3  1  0
 32 11  1  0
 23 13  2  0
 31 26  1  0
 21 16  1  0
  1 36  1  0
  1 37  1  0
  1 38  1  0
  4 39  1  0
  5 40  1  0
  7 41  1  0
  7 42  1  0
  8 43  1  0
 12 44  1  0
 17 45  1  0
 18 46  1  0
 19 47  1  0
 20 48  1  0
 25 49  1  0
 25 50  1  0
 27 51  1  0
 28 52  1  0
 29 53  1  0
 31 54  1  0
 33 55  1  0
 34 56  1  0
 35 57  1  0
M  END
$$$$
