
     RDKit          3D

 41 42  0  0  0  0  0  0  0  0999 V2000
   -1.0625   -0.6633   -3.1974 C   0  0  0  0  0  0  0  0  0  0  0  0
   -1.7083   -1.8597   -2.7615 O   0  0  0  0  0  0  0  0  0  0  0  0
   -2.3392   -1.6611   -1.5624 C   0  0  0  0  0  0  0  0  0  0  0  0
   -3.5299   -0.9293   -1.5270 C   0  0  0  0  0  0  0  0  0  0  0  0
   -4.2117   -0.7647   -0.3223 C   0  0  0  0  0  0  0  0  0  0  0  0
   -3.7084   -1.3390    0.8423 C   0  0  0  0  0  0  0  0  0  0  0  0
   -2.5283   -2.0855    0.8019 C   0  0  0  0  0  0  0  0  0  0  0  0
   -1.8265   -2.2608   -0.4046 C   0  0  0  0  0  0  0  0  0  0  0  0
   -0.5519   -3.0676   -0.4243 C   0  0  0  0  0  0  0  0  0  0  0  0
    0.5072   -2.3974    0.3050 N   0  0  0  0  0  0  0  0  0  0  0  0
    1.5069   -1.6935   -0.3384 C   0  0  0  0  0  0  0  0  0  0  0  0
    1.6336   -1.6632   -1.5597 O   0  0  0  0  0  0  0  0  0  0  0  0
    2.4634   -0.9707    0.6229 C   0  0  0  0  0  0  0  0  0  0  0  0
    3.0706    0.1990    0.0845 O   0  0  0  0  0  0  0  0  0  0  0  0
    2.2215    1.2752    0.1564 C   0  0  0  0  0  0  0  0  0  0  0  0
    1.6293    1.6990   -1.0345 C   0  0  0  0  0  0  0  0  0  0  0  0
    0.7837    2.8055   -1.0338 C   0  0  0  0  0  0  0  0  0  0  0  0
    0.5448    3.4928    0.1544 C   0  0  0  0  0  0  0  0  0  0  0  0
    1.1635    3.0868    1.3436 C   0  0  0  0  0  0  0  0  0  0  0  0
    2.0243    1.9849    1.3503 C   0  0  0  0  0  0  0  0  0  0  0  0
    2.6796    1.5215    2.4618 O   0  0  0  0  0  0  0  0  0  0  0  0
    2.8834    2.4639    3.5090 C   0  0  0  0  0  0  0  0  0  0  0  0
   -0.2916   -0.9384   -3.9250 H   0  0  0  0  0  0  0  0  0  0  0  0
   -1.7834   -0.0074   -3.6955 H   0  0  0  0  0  0  0  0  0  0  0  0
   -0.5792   -0.1301   -2.3712 H   0  0  0  0  0  0  0  0  0  0  0  0
   -3.9342   -0.5006   -2.4398 H   0  0  0  0  0  0  0  0  0  0  0  0
   -5.1356   -0.1936   -0.2941 H   0  0  0  0  0  0  0  0  0  0  0  0
   -4.2387   -1.2120    1.7822 H   0  0  0  0  0  0  0  0  0  0  0  0
   -2.1608   -2.5383    1.7196 H   0  0  0  0  0  0  0  0  0  0  0  0
   -0.2210   -3.2983   -1.4418 H   0  0  0  0  0  0  0  0  0  0  0  0
   -0.7303   -4.0265    0.0762 H   0  0  0  0  0  0  0  0  0  0  0  0
    0.3633   -2.2433    1.2926 H   0  0  0  0  0  0  0  0  0  0  0  0
    1.9619   -0.7706    1.5774 H   0  0  0  0  0  0  0  0  0  0  0  0
    3.2730   -1.6773    0.8402 H   0  0  0  0  0  0  0  0  0  0  0  0
    1.8279    1.1595   -1.9573 H   0  0  0  0  0  0  0  0  0  0  0  0
    0.3132    3.1295   -1.9575 H   0  0  0  0  0  0  0  0  0  0  0  0
   -0.1209    4.3526    0.1579 H   0  0  0  0  0  0  0  0  0  0  0  0
    0.9480    3.6463    2.2479 H   0  0  0  0  0  0  0  0  0  0  0  0
    3.5952    2.0273    4.2175 H   0  0  0  0  0  0  0  0  0  0  0  0
    3.3172    3.3970    3.1327 H   0  0  0  0  0  0  0  0  0  0  0  0
    1.9506    2.6512    4.0495 H   0  0  0  0  0  0  0  0  0  0  0  0
  1  2  1  0
  2  3  1  0
  3  4  2  0
  4  5  1  0
  5  6  2  0
  6  7  1  0
  7  8  2  0
  8  9  1  0
  9 10  1  0
 10 11  1  0
 11 12  2  0
 11 13  1  0
 13 14  1  0
 14 15  1  0
 15 16  2  0
 16 17  1  0
 17 18  2  0
 18 19  1  0
 19 20  2  0
 20 21  1  0
 21 22  1  0
  8  3  1  0
 20 15  1  0
  1 23  1  0
  1 24  1  0
  1 25  1  0
  4 26  1  0
  5 27  1  0
  6 28  1  0
  7 29  1  0
  9 30  1  0
  9 31  1  0
 10 32  1  0
 13 33  1  0
 13 34  1  0
 16 35  1  0
 17 36  1  0
 18 37  1  0
 19 38  1  0
 22 39  1  0
 22 40  1  0
 22 41  1  0
M  END
$$$$
