
     RDKit          3D

 37 40  0  0  0  0  0  0  0  0999 V2000
    0.5566   -0.6154   -0.7907 O   0  0  0  0  0  0  0  0  0  0  0  0
    1.6394   -0.2944   -0.3497 C   0  0  0  0  0  0  0  0  0  0  0  0
    2.7604   -1.0677   -0.3741 O   0  0  0  0  0  0  0  0  0  0  0  0
    3.7539   -0.3124    0.1473 C   0  0  0  0  0  0  0  0  0  0  0  0
    5.0375   -0.9382    0.1977 C   0  0  0  0  0  0  0  0  0  0  0  0
    6.2587   -0.4793    0.6563 C   0  0  0  0  0  0  0  0  0  0  0  0
    7.1894   -1.5282    0.4613 C   0  0  0  0  0  0  0  0  0  0  0  0
    6.4839   -2.5634   -0.1036 C   0  0  0  0  0  0  0  0  0  0  0  0
    5.1816   -2.2175   -0.2677 O   0  0  0  0  0  0  0  0  0  0  0  0
    3.4672    0.8847    0.5429 N   0  0  0  0  0  0  0  0  0  0  0  0
    2.1170    0.9781    0.2850 C   0  0  0  0  0  0  0  0  0  0  0  0
    1.4321    2.0905    0.5826 C   0  0  0  0  0  0  0  0  0  0  0  0
    0.0379    2.2863    0.4131 C   0  0  0  0  0  0  0  0  0  0  0  0
   -0.6493    3.4887    0.2963 C   0  0  0  0  0  0  0  0  0  0  0  0
   -2.0291    3.1941    0.1752 C   0  0  0  0  0  0  0  0  0  0  0  0
   -2.1389    1.8227    0.2334 C   0  0  0  0  0  0  0  0  0  0  0  0
   -3.2494    0.8761    0.1699 C   0  0  0  0  0  0  0  0  0  0  0  0
   -4.5762    1.3263    0.2205 C   0  0  0  0  0  0  0  0  0  0  0  0
   -5.6429    0.4263    0.1540 C   0  0  0  0  0  0  0  0  0  0  0  0
   -5.3981   -0.9407    0.0366 C   0  0  0  0  0  0  0  0  0  0  0  0
   -4.0832   -1.4230   -0.0103 C   0  0  0  0  0  0  0  0  0  0  0  0
   -3.8018   -2.8973   -0.1586 C   0  0  0  0  0  0  0  0  0  0  0  0
   -2.7468   -3.3206    0.5914 F   0  0  0  0  0  0  0  0  0  0  0  0
   -3.5194   -3.2487   -1.4431 F   0  0  0  0  0  0  0  0  0  0  0  0
   -4.8539   -3.6814    0.2155 F   0  0  0  0  0  0  0  0  0  0  0  0
   -3.0204   -0.5044    0.0496 C   0  0  0  0  0  0  0  0  0  0  0  0
   -0.8978    1.2843    0.3967 O   0  0  0  0  0  0  0  0  0  0  0  0
    6.4458    0.4983    1.0802 H   0  0  0  0  0  0  0  0  0  0  0  0
    8.2433   -1.5307    0.7023 H   0  0  0  0  0  0  0  0  0  0  0  0
    6.7473   -3.5600   -0.4310 H   0  0  0  0  0  0  0  0  0  0  0  0
    1.9897    2.9251    1.0000 H   0  0  0  0  0  0  0  0  0  0  0  0
   -0.1974    4.4714    0.2916 H   0  0  0  0  0  0  0  0  0  0  0  0
   -2.8382    3.8997    0.0552 H   0  0  0  0  0  0  0  0  0  0  0  0
   -4.7980    2.3864    0.3151 H   0  0  0  0  0  0  0  0  0  0  0  0
   -6.6655    0.7940    0.1931 H   0  0  0  0  0  0  0  0  0  0  0  0
   -6.2386   -1.6312   -0.0181 H   0  0  0  0  0  0  0  0  0  0  0  0
   -1.9967   -0.8787   -0.0062 H   0  0  0  0  0  0  0  0  0  0  0  0
  1  2  2  0
  2  3  1  0
  3  4  1  0
  4  5  1  0
  5  6  2  0
  6  7  1  0
  7  8  2  0
  8  9  1  0
  4 10  2  0
 10 11  1  0
 11 12  2  3
 12 13  1  0
 13 14  2  0
 14 15  1  0
 15 16  2  0
 16 17  1  0
 17 18  2  0
 18 19  1  0
 19 20  2  0
 20 21  1  0
 21 22  1  0
 22 23  1  0
 22 24  1  0
 22 25  1  0
 21 26  2  0
 16 27  1  0
 11  2  1  0
 27 13  1  0
  9  5  1  0
 26 17  1  0
  6 28  1  0
  7 29  1  0
  8 30  1  0
 12 31  1  0
 14 32  1  0
 15 33  1  0
 18 34  1  0
 19 35  1  0
 20 36  1  0
 26 37  1  0
M  END
$$$$
