
     RDKit          3D

 54 57  0  0  0  0  0  0  0  0999 V2000
   -7.9866    0.3753    2.6641 C   0  0  0  0  0  0  0  0  0  0  0  0
   -7.3050    0.5592    1.4298 O   0  0  0  0  0  0  0  0  0  0  0  0
   -5.9745    0.2477    1.4089 C   0  0  0  0  0  0  0  0  0  0  0  0
   -5.2284   -0.2442    2.4750 C   0  0  0  0  0  0  0  0  0  0  0  0
   -3.8650   -0.5217    2.3099 C   0  0  0  0  0  0  0  0  0  0  0  0
   -3.2243   -0.3193    1.0739 C   0  0  0  0  0  0  0  0  0  0  0  0
   -1.8294   -0.6189    0.9656 N   0  0  0  0  0  0  0  0  0  0  0  0
   -1.1261   -0.8907    2.1054 N   0  0  0  0  0  0  0  0  0  0  0  0
    0.1379   -1.0408    1.7192 C   0  0  0  0  0  0  0  0  0  0  0  0
    0.2908   -0.9097    0.3354 C   0  0  0  0  0  0  0  0  0  0  0  0
   -0.9910   -0.6938   -0.1409 C   0  0  0  0  0  0  0  0  0  0  0  0
   -1.3441   -0.6027   -1.5894 C   0  0  0  0  0  0  0  0  0  0  0  0
   -0.1926   -1.1471   -2.4938 C   0  0  0  0  0  0  0  0  0  0  0  0
   -0.4065   -0.6306   -3.9292 C   0  0  0  0  0  0  0  0  0  0  0  0
   -0.2251   -2.6888   -2.5339 C   0  0  0  0  0  0  0  0  0  0  0  0
    1.1880   -0.6421   -1.9798 C   0  0  0  0  0  0  0  0  0  0  0  0
    1.4991   -1.0585   -0.5230 C   0  0  0  0  0  0  0  0  0  0  0  0
    2.5561   -0.2430    0.0297 N   0  0  0  0  0  0  0  0  0  0  0  0
    3.8856   -0.4653   -0.2537 C   0  0  0  0  0  0  0  0  0  0  0  0
    4.2983   -1.4116   -0.9129 O   0  0  0  0  0  0  0  0  0  0  0  0
    4.8130    0.5557    0.3072 C   0  0  0  0  0  0  0  0  0  0  0  0
    6.1800    0.4324    0.1223 C   0  0  0  0  0  0  0  0  0  0  0  0
    7.0605    1.3390    0.6201 N   0  0  0  0  0  0  0  0  0  0  0  0
    6.5202    2.3716    1.3151 C   0  0  0  0  0  0  0  0  0  0  0  0
    7.4500    3.3976    1.8824 C   0  0  0  0  0  0  0  0  0  0  0  0
    5.1425    2.4883    1.4895 C   0  0  0  0  0  0  0  0  0  0  0  0
    4.2538    1.5930    0.9953 N   0  0  0  0  0  0  0  0  0  0  0  0
   -3.9776    0.1896    0.0139 C   0  0  0  0  0  0  0  0  0  0  0  0
   -5.3417    0.4636    0.1843 C   0  0  0  0  0  0  0  0  0  0  0  0
   -7.5734    1.0247    3.4426 H   0  0  0  0  0  0  0  0  0  0  0  0
   -7.9696   -0.6743    2.9737 H   0  0  0  0  0  0  0  0  0  0  0  0
   -9.0332    0.6588    2.5141 H   0  0  0  0  0  0  0  0  0  0  0  0
   -5.6683   -0.4257    3.4498 H   0  0  0  0  0  0  0  0  0  0  0  0
   -3.3138   -0.9091    3.1657 H   0  0  0  0  0  0  0  0  0  0  0  0
    0.8940   -1.2529    2.4647 H   0  0  0  0  0  0  0  0  0  0  0  0
   -1.5184    0.4535   -1.8303 H   0  0  0  0  0  0  0  0  0  0  0  0
   -2.2605   -1.1643   -1.8037 H   0  0  0  0  0  0  0  0  0  0  0  0
   -1.3781   -0.9496   -4.3231 H   0  0  0  0  0  0  0  0  0  0  0  0
   -0.3745    0.4639   -3.9674 H   0  0  0  0  0  0  0  0  0  0  0  0
    0.3688   -1.0087   -4.6051 H   0  0  0  0  0  0  0  0  0  0  0  0
   -1.1653   -3.0502   -2.9653 H   0  0  0  0  0  0  0  0  0  0  0  0
    0.5939   -3.0815   -3.1472 H   0  0  0  0  0  0  0  0  0  0  0  0
   -0.1342   -3.1336   -1.5385 H   0  0  0  0  0  0  0  0  0  0  0  0
    1.2044    0.4558   -2.0519 H   0  0  0  0  0  0  0  0  0  0  0  0
    1.9933   -0.9950   -2.6377 H   0  0  0  0  0  0  0  0  0  0  0  0
    1.8249   -2.1060   -0.5082 H   0  0  0  0  0  0  0  0  0  0  0  0
    2.3317    0.6327    0.4956 H   0  0  0  0  0  0  0  0  0  0  0  0
    6.6111   -0.3966   -0.4291 H   0  0  0  0  0  0  0  0  0  0  0  0
    7.3011    4.3586    1.3821 H   0  0  0  0  0  0  0  0  0  0  0  0
    8.4928    3.0962    1.7442 H   0  0  0  0  0  0  0  0  0  0  0  0
    7.2731    3.5190    2.9549 H   0  0  0  0  0  0  0  0  0  0  0  0
    4.7112    3.3161    2.0433 H   0  0  0  0  0  0  0  0  0  0  0  0
   -3.5529    0.4229   -0.9523 H   0  0  0  0  0  0  0  0  0  0  0  0
   -5.9162    0.8609   -0.6498 H   0  0  0  0  0  0  0  0  0  0  0  0
  1  2  1  0
  2  3  1  0
  3  4  2  0
  4  5  1  0
  5  6  2  0
  6  7  1  0
  7  8  1  0
  8  9  2  0
  9 10  1  0
 10 11  2  0
 11 12  1  0
 12 13  1  0
 13 14  1  0
 13 15  1  0
 13 16  1  0
 16 17  1  0
 17 18  1  0
 18 19  1  0
 19 20  2  0
 19 21  1  0
 21 22  2  0
 22 23  1  0
 23 24  2  0
 24 25  1  0
 24 26  1  0
 26 27  2  0
  6 28  1  0
 28 29  2  0
 29  3  1  0
 11  7  1  0
 27 21  1  0
 17 10  1  0
  1 30  1  0
  1 31  1  0
  1 32  1  0
  4 33  1  0
  5 34  1  0
  9 35  1  0
 12 36  1  0
 12 37  1  0
 14 38  1  0
 14 39  1  0
 14 40  1  0
 15 41  1  0
 15 42  1  0
 15 43  1  0
 16 44  1  0
 16 45  1  0
 17 46  1  0
 18 47  1  0
 22 48  1  0
 25 49  1  0
 25 50  1  0
 25 51  1  0
 26 52  1  0
 28 53  1  0
 29 54  1  0
M  END
$$$$
