
     RDKit          3D

 30 32  0  0  0  0  0  0  0  0999 V2000
    5.4217   -2.0874    1.1725 O   0  0  0  0  0  0  0  0  0  0  0  0
    4.2262   -1.8337    1.3788 N   0  0  0  0  0  4  0  0  0  0  0  0
    3.5880   -2.2154    2.3694 O   0  0  0  0  0  1  0  0  0  0  0  0
    3.5201   -1.0214    0.3800 C   0  0  0  0  0  0  0  0  0  0  0  0
    4.2273   -0.4955   -0.7087 C   0  0  0  0  0  0  0  0  0  0  0  0
    3.5540    0.2743   -1.6568 C   0  0  0  0  0  0  0  0  0  0  0  0
    2.1845    0.5206   -1.5189 C   0  0  0  0  0  0  0  0  0  0  0  0
    1.4750    0.0027   -0.4255 C   0  0  0  0  0  0  0  0  0  0  0  0
    0.0056    0.2352   -0.2626 C   0  0  0  0  0  0  0  0  0  0  0  0
   -0.6685   -0.5537    0.5308 N   0  0  0  0  0  0  0  0  0  0  0  0
   -2.0664   -0.4240    0.6261 C   0  0  0  0  0  0  0  0  0  0  0  0
   -2.7094   -0.9335    1.7556 C   0  0  0  0  0  0  0  0  0  0  0  0
   -4.1012   -0.8832    1.8631 C   0  0  0  0  0  0  0  0  0  0  0  0
   -4.8622   -0.3312    0.8330 C   0  0  0  0  0  0  0  0  0  0  0  0
   -4.2336    0.1742   -0.3054 C   0  0  0  0  0  0  0  0  0  0  0  0
   -2.8408    0.1292   -0.4062 C   0  0  0  0  0  0  0  0  0  0  0  0
   -2.0043    0.7934   -1.8302 S   0  0  0  0  0  0  0  0  0  0  0  0
   -0.6172    1.4018   -0.9953 C   0  0  0  0  0  0  0  0  0  0  0  0
   -0.1231    2.5981   -0.9443 N   0  0  0  0  0  0  0  0  0  0  0  0
   -0.8738    3.4997   -1.7120 O   0  0  0  0  0  0  0  0  0  0  0  0
    2.1477   -0.7797    0.5252 C   0  0  0  0  0  0  0  0  0  0  0  0
    5.2936   -0.6766   -0.8323 H   0  0  0  0  0  0  0  0  0  0  0  0
    4.0952    0.6829   -2.5083 H   0  0  0  0  0  0  0  0  0  0  0  0
    1.6921    1.1155   -2.2855 H   0  0  0  0  0  0  0  0  0  0  0  0
   -2.1199   -1.3803    2.5520 H   0  0  0  0  0  0  0  0  0  0  0  0
   -4.5902   -1.2827    2.7483 H   0  0  0  0  0  0  0  0  0  0  0  0
   -5.9458   -0.2962    0.9164 H   0  0  0  0  0  0  0  0  0  0  0  0
   -4.8330    0.6048   -1.1035 H   0  0  0  0  0  0  0  0  0  0  0  0
   -0.4411    4.3545   -1.5267 H   0  0  0  0  0  0  0  0  0  0  0  0
    1.5997   -1.1924    1.3712 H   0  0  0  0  0  0  0  0  0  0  0  0
  1  2  2  0
  2  3  1  0
  2  4  1  0
  4  5  2  0
  5  6  1  0
  6  7  2  0
  7  8  1  0
  8  9  1  0
  9 10  2  0
 10 11  1  0
 11 12  2  0
 12 13  1  0
 13 14  2  0
 14 15  1  0
 15 16  2  0
 16 17  1  0
 17 18  1  0
 18 19  2  3
 19 20  1  0
  8 21  2  0
 21  4  1  0
 18  9  1  0
 16 11  1  0
  5 22  1  0
  6 23  1  0
  7 24  1  0
 12 25  1  0
 13 26  1  0
 14 27  1  0
 15 28  1  0
 20 29  1  0
 21 30  1  0
M  CHG  2   2   1   3  -1
M  END
$$$$
