
     RDKit          3D

 63 66  0  0  0  0  0  0  0  0999 V2000
    8.3905    3.3917    1.0463 C   0  0  0  0  0  0  0  0  0  0  0  0
    8.1585    2.8737   -0.2649 O   0  0  0  0  0  0  0  0  0  0  0  0
    7.2101    1.8852   -0.2235 C   0  0  0  0  0  0  0  0  0  0  0  0
    5.8709    2.2512   -0.3435 C   0  0  0  0  0  0  0  0  0  0  0  0
    4.8818    1.2656   -0.3508 C   0  0  0  0  0  0  0  0  0  0  0  0
    5.2213   -0.0915   -0.2544 C   0  0  0  0  0  0  0  0  0  0  0  0
    4.1565   -1.0144   -0.2879 N   0  0  0  0  0  0  0  0  0  0  0  0
    4.2263   -2.3903   -0.2117 C   0  0  0  0  0  0  0  0  0  0  0  0
    5.2345   -3.0707   -0.0611 O   0  0  0  0  0  0  0  0  0  0  0  0
    2.9121   -3.0426   -0.3299 C   0  0  0  0  0  0  0  0  0  0  0  0
    2.6508   -4.3606   -0.2942 C   0  0  0  0  0  0  0  0  0  0  0  0
    1.3158   -4.6756   -0.4566 N   0  0  0  0  0  0  0  0  0  0  0  0
    0.6583   -3.4492   -0.4846 N   0  0  0  0  0  0  0  0  0  0  0  0
   -0.6964   -3.2741   -0.5583 C   0  0  0  0  0  0  0  0  0  0  0  0
   -1.5498   -4.1523   -0.5478 O   0  0  0  0  0  0  0  0  0  0  0  0
   -1.0568   -1.8371   -0.6324 C   0  0  0  0  0  0  0  0  0  0  0  0
   -0.0948   -0.8892   -0.5994 C   0  0  0  0  0  0  0  0  0  0  0  0
   -0.4016    0.6116   -0.6762 C   0  0  0  0  0  0  0  0  0  0  0  0
   -1.5654    1.0009   -1.6183 C   0  0  0  0  0  0  0  0  0  0  0  0
   -2.7652    1.6109   -0.8929 C   0  0  0  0  0  0  0  0  0  0  0  0
   -3.0353    0.9176    0.3590 N   0  0  0  0  0  0  0  0  0  0  0  0
   -4.3014    0.5274    0.7663 C   0  0  0  0  0  0  0  0  0  0  0  0
   -4.5259    0.0284    1.8607 O   0  0  0  0  0  0  0  0  0  0  0  0
   -5.2407    0.7516   -0.1846 O   0  0  0  0  0  0  0  0  0  0  0  0
   -6.6291    0.3883    0.0298 C   0  0  0  0  0  0  0  0  0  0  0  0
   -6.7854   -1.1276    0.1949 C   0  0  0  0  0  0  0  0  0  0  0  0
   -7.2374    1.1617    1.2056 C   0  0  0  0  0  0  0  0  0  0  0  0
   -7.3449    0.8164   -1.2614 C   0  0  0  0  0  0  0  0  0  0  0  0
   -1.9494    0.8281    1.3263 C   0  0  0  0  0  0  0  0  0  0  0  0
   -0.5938    1.2011    0.7314 C   0  0  0  0  0  0  0  0  0  0  0  0
    1.2621   -1.1708   -0.4971 N   0  0  0  0  0  0  0  0  0  0  0  0
    1.5765   -2.4221   -0.4506 C   0  0  0  0  0  0  0  0  0  0  0  0
    6.5670   -0.4501   -0.1454 C   0  0  0  0  0  0  0  0  0  0  0  0
    7.5606    0.5358   -0.1395 C   0  0  0  0  0  0  0  0  0  0  0  0
    9.2123    0.0448   -0.0281 Cl  0  0  0  0  0  0  0  0  0  0  0  0
    8.7604    2.6144    1.7241 H   0  0  0  0  0  0  0  0  0  0  0  0
    9.1581    4.1666    0.9681 H   0  0  0  0  0  0  0  0  0  0  0  0
    7.4854    3.8543    1.4557 H   0  0  0  0  0  0  0  0  0  0  0  0
    5.5982    3.2994   -0.4373 H   0  0  0  0  0  0  0  0  0  0  0  0
    3.8417    1.5733   -0.4409 H   0  0  0  0  0  0  0  0  0  0  0  0
    3.2248   -0.6120   -0.3910 H   0  0  0  0  0  0  0  0  0  0  0  0
    3.3687   -5.1601   -0.1577 H   0  0  0  0  0  0  0  0  0  0  0  0
    0.9372   -5.3395    0.2220 H   0  0  0  0  0  0  0  0  0  0  0  0
   -2.1157   -1.6224   -0.6977 H   0  0  0  0  0  0  0  0  0  0  0  0
    0.4965    1.0833   -1.1030 H   0  0  0  0  0  0  0  0  0  0  0  0
   -1.2062    1.7366   -2.3492 H   0  0  0  0  0  0  0  0  0  0  0  0
   -1.8975    0.1462   -2.2181 H   0  0  0  0  0  0  0  0  0  0  0  0
   -2.5688    2.6611   -0.6443 H   0  0  0  0  0  0  0  0  0  0  0  0
   -3.6306    1.6044   -1.5620 H   0  0  0  0  0  0  0  0  0  0  0  0
   -6.3434   -1.4847    1.1317 H   0  0  0  0  0  0  0  0  0  0  0  0
   -7.8414   -1.4217    0.1956 H   0  0  0  0  0  0  0  0  0  0  0  0
   -6.2752   -1.6605   -0.6181 H   0  0  0  0  0  0  0  0  0  0  0  0
   -6.8216    0.8406    2.1662 H   0  0  0  0  0  0  0  0  0  0  0  0
   -7.0311    2.2352    1.1168 H   0  0  0  0  0  0  0  0  0  0  0  0
   -8.3227    1.0197    1.2559 H   0  0  0  0  0  0  0  0  0  0  0  0
   -8.4154    0.5876   -1.2283 H   0  0  0  0  0  0  0  0  0  0  0  0
   -6.9101    0.3141   -2.1343 H   0  0  0  0  0  0  0  0  0  0  0  0
   -7.2253    1.8925   -1.4341 H   0  0  0  0  0  0  0  0  0  0  0  0
   -1.9299   -0.1927    1.7269 H   0  0  0  0  0  0  0  0  0  0  0  0
   -2.1822    1.4940    2.1661 H   0  0  0  0  0  0  0  0  0  0  0  0
    0.2074    0.8894    1.4122 H   0  0  0  0  0  0  0  0  0  0  0  0
   -0.5254    2.2951    0.6622 H   0  0  0  0  0  0  0  0  0  0  0  0
    6.8718   -1.4882   -0.0707 H   0  0  0  0  0  0  0  0  0  0  0  0
  1  2  1  0
  2  3  1  0
  3  4  2  0
  4  5  1  0
  5  6  2  0
  6  7  1  0
  7  8  1  0
  8  9  2  0
  8 10  1  0
 10 11  2  0
 11 12  1  0
 12 13  1  0
 13 14  1  0
 14 15  2  0
 14 16  1  0
 16 17  2  0
 17 18  1  0
 18 19  1  0
 19 20  1  0
 20 21  1  0
 21 22  1  0
 22 23  2  0
 22 24  1  0
 24 25  1  0
 25 26  1  0
 25 27  1  0
 25 28  1  0
 21 29  1  0
 29 30  1  0
 17 31  1  0
 31 32  2  0
  6 33  1  0
 33 34  2  0
 34 35  1  0
 34  3  1  0
 32 10  1  0
 32 13  1  0
 30 18  1  0
  1 36  1  0
  1 37  1  0
  1 38  1  0
  4 39  1  0
  5 40  1  0
  7 41  1  0
 11 42  1  0
 12 43  1  0
 16 44  1  0
 18 45  1  0
 19 46  1  0
 19 47  1  0
 20 48  1  0
 20 49  1  0
 26 50  1  0
 26 51  1  0
 26 52  1  0
 27 53  1  0
 27 54  1  0
 27 55  1  0
 28 56  1  0
 28 57  1  0
 28 58  1  0
 29 59  1  0
 29 60  1  0
 30 61  1  0
 30 62  1  0
 33 63  1  0
M  END
$$$$
