
     RDKit          3D

 47 49  0  0  0  0  0  0  0  0999 V2000
    6.2379    1.1037    1.4086 C   0  0  0  0  0  0  0  0  0  0  0  0
    6.1989    0.2177    0.1657 C   0  0  0  0  0  0  0  0  0  0  0  0
    7.1849    0.7146   -0.8858 C   0  0  0  0  0  0  0  0  0  0  0  0
    4.8578    0.1744   -0.3883 N   0  0  0  0  0  0  0  0  0  0  0  0
    3.8780   -0.6543    0.1147 C   0  0  0  0  0  0  0  0  0  0  0  0
    4.0279   -1.5176    0.9665 O   0  0  0  0  0  0  0  0  0  0  0  0
    2.4848   -0.3998   -0.4923 C   0  0  0  0  0  0  0  0  0  0  0  0
    2.2995    0.5318   -1.2672 O   0  0  0  0  0  0  0  0  0  0  0  0
    1.5237   -1.2914   -0.0663 N   0  0  0  0  0  0  0  0  0  0  0  0
    0.1775   -0.9862   -0.3255 N   0  0  0  0  0  0  0  0  0  0  0  0
   -0.7224   -1.1616    0.7096 C   0  0  0  0  0  0  0  0  0  0  0  0
   -0.4019   -1.7322    1.7519 O   0  0  0  0  0  0  0  0  0  0  0  0
   -2.1263   -0.5922    0.4580 C   0  0  0  0  0  0  0  0  0  0  0  0
   -3.0526   -0.9238    1.6568 C   0  0  0  0  0  0  0  0  0  0  0  0
   -4.4650   -0.3613    1.4284 C   0  0  0  0  0  0  0  0  0  0  0  0
   -4.3789    1.1645    1.2652 C   0  0  0  0  0  0  0  0  0  0  0  0
   -3.4832    1.5150    0.0664 C   0  0  0  0  0  0  0  0  0  0  0  0
   -4.0747    0.8887   -1.2081 C   0  0  0  0  0  0  0  0  0  0  0  0
   -4.1612   -0.6396   -1.0556 C   0  0  0  0  0  0  0  0  0  0  0  0
   -5.0529   -0.9785    0.1495 C   0  0  0  0  0  0  0  0  0  0  0  0
   -2.7495   -1.2049   -0.8195 C   0  0  0  0  0  0  0  0  0  0  0  0
   -2.0721    0.9468    0.3008 C   0  0  0  0  0  0  0  0  0  0  0  0
    5.9382    2.1308    1.1724 H   0  0  0  0  0  0  0  0  0  0  0  0
    5.5540    0.7306    2.1786 H   0  0  0  0  0  0  0  0  0  0  0  0
    7.2450    1.1310    1.8374 H   0  0  0  0  0  0  0  0  0  0  0  0
    6.4771   -0.8020    0.4578 H   0  0  0  0  0  0  0  0  0  0  0  0
    8.2066    0.7216   -0.4924 H   0  0  0  0  0  0  0  0  0  0  0  0
    7.1664    0.0680   -1.7700 H   0  0  0  0  0  0  0  0  0  0  0  0
    6.9381    1.7301   -1.2152 H   0  0  0  0  0  0  0  0  0  0  0  0
    4.5364    0.9239   -0.9965 H   0  0  0  0  0  0  0  0  0  0  0  0
    1.7186   -1.8723    0.7545 H   0  0  0  0  0  0  0  0  0  0  0  0
    0.0160   -0.3008   -1.0611 H   0  0  0  0  0  0  0  0  0  0  0  0
   -2.6376   -0.5082    2.5847 H   0  0  0  0  0  0  0  0  0  0  0  0
   -3.1081   -2.0106    1.8040 H   0  0  0  0  0  0  0  0  0  0  0  0
   -5.1036   -0.6061    2.2844 H   0  0  0  0  0  0  0  0  0  0  0  0
   -5.3823    1.5827    1.1182 H   0  0  0  0  0  0  0  0  0  0  0  0
   -3.9759    1.6175    2.1793 H   0  0  0  0  0  0  0  0  0  0  0  0
   -3.4283    2.6034   -0.0477 H   0  0  0  0  0  0  0  0  0  0  0  0
   -3.4525    1.1442   -2.0747 H   0  0  0  0  0  0  0  0  0  0  0  0
   -5.0724    1.3024   -1.3997 H   0  0  0  0  0  0  0  0  0  0  0  0
   -4.5870   -1.0783   -1.9649 H   0  0  0  0  0  0  0  0  0  0  0  0
   -5.1344   -2.0667    0.2613 H   0  0  0  0  0  0  0  0  0  0  0  0
   -6.0684   -0.5986   -0.0171 H   0  0  0  0  0  0  0  0  0  0  0  0
   -2.1272   -0.9941   -1.6983 H   0  0  0  0  0  0  0  0  0  0  0  0
   -2.7933   -2.2983   -0.7307 H   0  0  0  0  0  0  0  0  0  0  0  0
   -1.4269    1.2344   -0.5383 H   0  0  0  0  0  0  0  0  0  0  0  0
   -1.6288    1.4017    1.1964 H   0  0  0  0  0  0  0  0  0  0  0  0
  1  2  1  0
  2  3  1  0
  2  4  1  0
  4  5  1  0
  5  6  2  0
  5  7  1  0
  7  8  2  0
  7  9  1  0
  9 10  1  0
 10 11  1  0
 11 12  2  0
 11 13  1  0
 13 14  1  0
 14 15  1  0
 15 16  1  0
 16 17  1  0
 17 18  1  0
 18 19  1  0
 19 20  1  0
 19 21  1  0
 17 22  1  0
 21 13  1  0
 22 13  1  0
 20 15  1  0
  1 23  1  0
  1 24  1  0
  1 25  1  0
  2 26  1  0
  3 27  1  0
  3 28  1  0
  3 29  1  0
  4 30  1  0
  9 31  1  0
 10 32  1  0
 14 33  1  0
 14 34  1  0
 15 35  1  0
 16 36  1  0
 16 37  1  0
 17 38  1  0
 18 39  1  0
 18 40  1  0
 19 41  1  0
 20 42  1  0
 20 43  1  0
 21 44  1  0
 21 45  1  0
 22 46  1  0
 22 47  1  0
M  END
$$$$
