
     RDKit          3D

 40 42  0  0  0  0  0  0  0  0999 V2000
   -0.7093    0.7041   -2.1186 C   0  0  0  0  0  0  0  0  0  0  0  0
   -0.8012   -0.8186   -2.0050 C   0  0  0  0  0  0  0  0  0  0  0  0
   -1.3851   -1.3961   -3.2952 C   0  0  0  0  0  0  0  0  0  0  0  0
   -1.6486   -1.2764   -0.8025 C   0  0  0  0  0  0  0  0  0  0  0  0
   -1.0792   -0.9490    0.4901 N   0  0  0  0  0  0  0  0  0  0  0  0
   -0.0879   -1.6344    1.1447 C   0  0  0  0  0  0  0  0  0  0  0  0
    0.7059   -3.0417    0.5358 S   0  0  0  0  0  0  0  0  0  0  0  0
    2.4168   -2.6806    1.0485 C   0  0  0  0  0  0  0  0  0  0  0  0
    2.9766   -1.5074    0.2523 C   0  0  0  0  0  0  0  0  0  0  0  0
    3.0627   -1.6082   -0.9764 O   0  0  0  0  0  0  0  0  0  0  0  0
    3.4009   -0.3117    0.9804 C   0  0  0  0  0  0  0  0  0  0  0  0
    3.2448    0.0438    2.3107 C   0  0  0  0  0  0  0  0  0  0  0  0
    3.8045    1.3266    2.6092 C   0  0  0  0  0  0  0  0  0  0  0  0
    4.3688    1.8898    1.4966 C   0  0  0  0  0  0  0  0  0  0  0  0
    5.1528    3.4166    1.4057 Cl  0  0  0  0  0  0  0  0  0  0  0  0
    4.2343    0.9289    0.1168 S   0  0  0  0  0  0  0  0  0  0  0  0
    0.1846   -1.0581    2.2893 N   0  0  0  0  0  0  0  0  0  0  0  0
   -0.6347    0.0341    2.4032 N   0  0  0  0  0  0  0  0  0  0  0  0
   -1.4044    0.0939    1.3300 C   0  0  0  0  0  0  0  0  0  0  0  0
   -2.3830    1.1198    1.1277 C   0  0  0  0  0  0  0  0  0  0  0  0
   -2.6582    2.1995    1.9545 C   0  0  0  0  0  0  0  0  0  0  0  0
   -3.6912    2.9510    1.3458 C   0  0  0  0  0  0  0  0  0  0  0  0
   -3.9999    2.2904    0.1827 C   0  0  0  0  0  0  0  0  0  0  0  0
   -3.2225    1.1881    0.0433 O   0  0  0  0  0  0  0  0  0  0  0  0
   -0.1273    0.9908   -3.0021 H   0  0  0  0  0  0  0  0  0  0  0  0
   -1.7023    1.1568   -2.2117 H   0  0  0  0  0  0  0  0  0  0  0  0
   -0.2110    1.1386   -1.2465 H   0  0  0  0  0  0  0  0  0  0  0  0
    0.2203   -1.2038   -1.9004 H   0  0  0  0  0  0  0  0  0  0  0  0
   -1.4235   -2.4887   -3.2531 H   0  0  0  0  0  0  0  0  0  0  0  0
   -0.7711   -1.1193   -4.1589 H   0  0  0  0  0  0  0  0  0  0  0  0
   -2.4008   -1.0277   -3.4732 H   0  0  0  0  0  0  0  0  0  0  0  0
   -2.6639   -0.8779   -0.8591 H   0  0  0  0  0  0  0  0  0  0  0  0
   -1.7739   -2.3663   -0.8244 H   0  0  0  0  0  0  0  0  0  0  0  0
    2.4726   -2.5370    2.1283 H   0  0  0  0  0  0  0  0  0  0  0  0
    3.0355   -3.5552    0.8180 H   0  0  0  0  0  0  0  0  0  0  0  0
    2.7290   -0.5566    3.0522 H   0  0  0  0  0  0  0  0  0  0  0  0
    3.7797    1.7984    3.5836 H   0  0  0  0  0  0  0  0  0  0  0  0
   -2.1523    2.4153    2.8875 H   0  0  0  0  0  0  0  0  0  0  0  0
   -4.1504    3.8602    1.7081 H   0  0  0  0  0  0  0  0  0  0  0  0
   -4.7081    2.4680   -0.6159 H   0  0  0  0  0  0  0  0  0  0  0  0
  1  2  1  0
  2  3  1  0
  2  4  1  0
  4  5  1  0
  5  6  1  0
  6  7  1  0
  7  8  1  0
  8  9  1  0
  9 10  2  0
  9 11  1  0
 11 12  2  0
 12 13  1  0
 13 14  2  0
 14 15  1  0
 14 16  1  0
  6 17  2  0
 17 18  1  0
 18 19  2  0
 19 20  1  0
 20 21  2  0
 21 22  1  0
 22 23  2  0
 23 24  1  0
 19  5  1  0
 24 20  1  0
 16 11  1  0
  1 25  1  0
  1 26  1  0
  1 27  1  0
  2 28  1  0
  3 29  1  0
  3 30  1  0
  3 31  1  0
  4 32  1  0
  4 33  1  0
  8 34  1  0
  8 35  1  0
 12 36  1  0
 13 37  1  0
 21 38  1  0
 22 39  1  0
 23 40  1  0
M  END
$$$$
