
     RDKit          3D

 40 40  0  0  0  0  0  0  0  0999 V2000
   -3.8071    1.8382    1.0328 C   0  0  0  0  0  0  0  0  0  0  0  0
   -3.9796    0.8217   -0.1063 C   0  0  0  0  0  0  0  0  0  0  0  0
   -5.0891   -0.1807    0.2479 C   0  0  0  0  0  0  0  0  0  0  0  0
   -4.3942    1.5794   -1.3796 C   0  0  0  0  0  0  0  0  0  0  0  0
   -2.7172    0.1285   -0.3775 N   0  0  0  0  0  0  0  0  0  0  0  0
   -2.0316   -0.6648    0.5159 C   0  0  0  0  0  0  0  0  0  0  0  0
   -2.3628   -0.9426    1.6587 O   0  0  0  0  0  0  0  0  0  0  0  0
   -0.7102   -1.2182   -0.0523 C   0  0  0  0  0  0  0  0  0  0  0  0
   -0.3317   -0.9004   -1.1736 O   0  0  0  0  0  0  0  0  0  0  0  0
   -0.0436   -2.0546    0.8173 N   0  0  0  0  0  0  0  0  0  0  0  0
    1.2882   -2.3952    0.5279 N   0  0  0  0  0  0  0  0  0  0  0  0
    2.1826   -2.3929    1.5838 C   0  0  0  0  0  0  0  0  0  0  0  0
    1.8355   -2.3433    2.7625 O   0  0  0  0  0  0  0  0  0  0  0  0
    3.6426   -2.5084    1.1528 C   0  0  0  0  0  0  0  0  0  0  0  0
    3.9371   -1.8508   -0.0729 O   0  0  0  0  0  0  0  0  0  0  0  0
    4.0527   -0.4873   -0.0586 C   0  0  0  0  0  0  0  0  0  0  0  0
    4.3469    0.0807   -1.3015 C   0  0  0  0  0  0  0  0  0  0  0  0
    4.4820    1.4629   -1.4393 C   0  0  0  0  0  0  0  0  0  0  0  0
    4.3224    2.2890   -0.3302 C   0  0  0  0  0  0  0  0  0  0  0  0
    4.0285    1.7307    0.9122 C   0  0  0  0  0  0  0  0  0  0  0  0
    3.8932    0.3453    1.0502 C   0  0  0  0  0  0  0  0  0  0  0  0
   -3.5496    1.3510    1.9793 H   0  0  0  0  0  0  0  0  0  0  0  0
   -4.7291    2.4076    1.1976 H   0  0  0  0  0  0  0  0  0  0  0  0
   -3.0061    2.5516    0.8051 H   0  0  0  0  0  0  0  0  0  0  0  0
   -4.8812   -0.7042    1.1869 H   0  0  0  0  0  0  0  0  0  0  0  0
   -6.0554    0.3232    0.3626 H   0  0  0  0  0  0  0  0  0  0  0  0
   -5.1962   -0.9422   -0.5337 H   0  0  0  0  0  0  0  0  0  0  0  0
   -5.3376    2.1180   -1.2365 H   0  0  0  0  0  0  0  0  0  0  0  0
   -3.6306    2.3104   -1.6699 H   0  0  0  0  0  0  0  0  0  0  0  0
   -4.5232    0.8925   -2.2239 H   0  0  0  0  0  0  0  0  0  0  0  0
   -2.2547    0.2696   -1.2736 H   0  0  0  0  0  0  0  0  0  0  0  0
   -0.3374   -2.0892    1.7972 H   0  0  0  0  0  0  0  0  0  0  0  0
    1.6314   -2.1100   -0.3928 H   0  0  0  0  0  0  0  0  0  0  0  0
    3.8424   -3.5756    1.0020 H   0  0  0  0  0  0  0  0  0  0  0  0
    4.3084   -2.1763    1.9574 H   0  0  0  0  0  0  0  0  0  0  0  0
    4.4720   -0.5580   -2.1728 H   0  0  0  0  0  0  0  0  0  0  0  0
    4.7107    1.8920   -2.4111 H   0  0  0  0  0  0  0  0  0  0  0  0
    4.4264    3.3660   -0.4332 H   0  0  0  0  0  0  0  0  0  0  0  0
    3.9032    2.3747    1.7797 H   0  0  0  0  0  0  0  0  0  0  0  0
    3.6620   -0.0384    2.0388 H   0  0  0  0  0  0  0  0  0  0  0  0
  1  2  1  0
  2  3  1  0
  2  4  1  0
  2  5  1  0
  5  6  1  0
  6  7  2  0
  6  8  1  0
  8  9  2  0
  8 10  1  0
 10 11  1  0
 11 12  1  0
 12 13  2  0
 12 14  1  0
 14 15  1  0
 15 16  1  0
 16 17  2  0
 17 18  1  0
 18 19  2  0
 19 20  1  0
 20 21  2  0
 21 16  1  0
  1 22  1  0
  1 23  1  0
  1 24  1  0
  3 25  1  0
  3 26  1  0
  3 27  1  0
  4 28  1  0
  4 29  1  0
  4 30  1  0
  5 31  1  0
 10 32  1  0
 11 33  1  0
 14 34  1  0
 14 35  1  0
 17 36  1  0
 18 37  1  0
 19 38  1  0
 20 39  1  0
 21 40  1  0
M  END
$$$$
