
     RDKit          3D

 45 47  0  0  0  0  0  0  0  0999 V2000
   -8.1424    0.5210   -0.4530 N   0  0  0  0  0  0  0  0  0  0  0  0
   -7.3538    1.1895    0.8758 S   0  0  0  0  0  6  0  0  0  0  0  0
   -7.7414    0.4442    2.0497 O   0  0  0  0  0  0  0  0  0  0  0  0
   -7.5425    2.6193    0.7638 O   0  0  0  0  0  0  0  0  0  0  0  0
   -5.6601    0.8163    0.5057 C   0  0  0  0  0  0  0  0  0  0  0  0
   -4.8547    1.7708   -0.1151 C   0  0  0  0  0  0  0  0  0  0  0  0
   -3.5209    1.4634   -0.3991 C   0  0  0  0  0  0  0  0  0  0  0  0
   -2.9910    0.2055   -0.0796 C   0  0  0  0  0  0  0  0  0  0  0  0
   -1.6313   -0.0175   -0.3808 N   0  0  0  0  0  0  0  0  0  0  0  0
   -0.9276   -1.1972   -0.5977 C   0  0  0  0  0  0  0  0  0  0  0  0
   -1.6229   -2.6548   -1.0655 S   0  0  0  0  0  0  0  0  0  0  0  0
    0.4685   -0.9911   -0.4783 N   0  0  0  0  0  0  0  0  0  0  0  0
    1.4372   -2.0355   -0.8799 C   0  0  0  0  0  0  0  0  0  0  0  0
    2.8324   -1.4625   -1.1915 C   0  0  0  0  0  0  0  0  0  0  0  0
    3.3286   -0.6471   -0.0642 N   0  0  0  0  0  0  0  0  0  0  0  0
    4.6697   -0.2260   -0.1042 C   0  0  0  0  0  0  0  0  0  0  0  0
    5.2887    0.2031    1.0829 C   0  0  0  0  0  0  0  0  0  0  0  0
    6.6188    0.6342    1.1070 C   0  0  0  0  0  0  0  0  0  0  0  0
    7.3657    0.6417   -0.0648 C   0  0  0  0  0  0  0  0  0  0  0  0
    6.7828    0.2099   -1.2527 C   0  0  0  0  0  0  0  0  0  0  0  0
    5.4516   -0.2246   -1.2685 C   0  0  0  0  0  0  0  0  0  0  0  0
    2.3931    0.4418    0.2984 C   0  0  0  0  0  0  0  0  0  0  0  0
    0.9914   -0.1211    0.5985 C   0  0  0  0  0  0  0  0  0  0  0  0
   -3.7996   -0.7212    0.5839 C   0  0  0  0  0  0  0  0  0  0  0  0
   -5.1351   -0.4228    0.8737 C   0  0  0  0  0  0  0  0  0  0  0  0
   -7.5380   -0.0607   -1.0340 H   0  0  0  0  0  0  0  0  0  0  0  0
   -8.5878    1.2704   -0.9870 H   0  0  0  0  0  0  0  0  0  0  0  0
   -5.2490    2.7502   -0.3773 H   0  0  0  0  0  0  0  0  0  0  0  0
   -2.9059    2.2176   -0.8845 H   0  0  0  0  0  0  0  0  0  0  0  0
   -1.1263    0.7915   -0.7175 H   0  0  0  0  0  0  0  0  0  0  0  0
    1.0788   -2.5592   -1.7716 H   0  0  0  0  0  0  0  0  0  0  0  0
    1.4987   -2.7597   -0.0583 H   0  0  0  0  0  0  0  0  0  0  0  0
    2.7656   -0.8492   -2.0993 H   0  0  0  0  0  0  0  0  0  0  0  0
    3.5111   -2.3017   -1.3862 H   0  0  0  0  0  0  0  0  0  0  0  0
    4.7359    0.1776    2.0185 H   0  0  0  0  0  0  0  0  0  0  0  0
    7.0681    0.9545    2.0435 H   0  0  0  0  0  0  0  0  0  0  0  0
    8.3995    0.9754   -0.0516 H   0  0  0  0  0  0  0  0  0  0  0  0
    7.3619    0.2096   -2.1728 H   0  0  0  0  0  0  0  0  0  0  0  0
    5.0418   -0.5453   -2.2204 H   0  0  0  0  0  0  0  0  0  0  0  0
    2.3277    1.1577   -0.5314 H   0  0  0  0  0  0  0  0  0  0  0  0
    2.7293    0.9909    1.1856 H   0  0  0  0  0  0  0  0  0  0  0  0
    1.0256   -0.7387    1.5054 H   0  0  0  0  0  0  0  0  0  0  0  0
    0.3130    0.7098    0.8116 H   0  0  0  0  0  0  0  0  0  0  0  0
   -3.4066   -1.6748    0.9237 H   0  0  0  0  0  0  0  0  0  0  0  0
   -5.7484   -1.1552    1.3946 H   0  0  0  0  0  0  0  0  0  0  0  0
  1  2  1  0
  2  3  2  0
  2  4  2  0
  2  5  1  0
  5  6  2  0
  6  7  1  0
  7  8  2  0
  8  9  1  0
  9 10  1  0
 10 11  2  0
 10 12  1  0
 12 13  1  0
 13 14  1  0
 14 15  1  0
 15 16  1  0
 16 17  2  0
 17 18  1  0
 18 19  2  0
 19 20  1  0
 20 21  2  0
 15 22  1  0
 22 23  1  0
  8 24  1  0
 24 25  2  0
 25  5  1  0
 23 12  1  0
 21 16  1  0
  1 26  1  0
  1 27  1  0
  6 28  1  0
  7 29  1  0
  9 30  1  0
 13 31  1  0
 13 32  1  0
 14 33  1  0
 14 34  1  0
 17 35  1  0
 18 36  1  0
 19 37  1  0
 20 38  1  0
 21 39  1  0
 22 40  1  0
 22 41  1  0
 23 42  1  0
 23 43  1  0
 24 44  1  0
 25 45  1  0
M  END
$$$$
