
     RDKit          3D

 44 46  0  0  0  0  0  0  0  0999 V2000
    4.0856    1.2757   -1.6690 C   0  0  0  0  0  0  0  0  0  0  0  0
    4.7377    0.4400   -0.5603 C   0  0  0  0  0  0  0  0  0  0  0  0
    6.0468    1.1338   -0.1401 C   0  0  0  0  0  0  0  0  0  0  0  0
    5.0710   -0.9651   -1.0797 C   0  0  0  0  0  0  0  0  0  0  0  0
    3.8090    0.3121    0.6675 C   0  0  0  0  0  0  0  0  0  0  0  0
    4.2194    0.5521    1.8082 O   0  0  0  0  0  0  0  0  0  0  0  0
    2.3796   -0.1563    0.4588 C   0  0  0  0  0  0  0  0  0  0  0  0
    1.2515    1.2678    0.5583 S   0  0  0  0  0  0  0  0  0  0  0  0
   -0.3345    0.4392    0.4302 C   0  0  0  0  0  0  0  0  0  0  0  0
   -0.2813   -0.8587    0.0274 N   0  0  0  0  0  0  0  0  0  0  0  0
   -1.4534   -1.4991   -0.0782 C   0  0  0  0  0  0  0  0  0  0  0  0
   -2.6900   -0.9300    0.1795 C   0  0  0  0  0  0  0  0  0  0  0  0
   -2.7543    0.4002    0.5720 C   0  0  0  0  0  0  0  0  0  0  0  0
   -4.0527    1.0266    0.8181 C   0  0  0  0  0  0  0  0  0  0  0  0
   -4.8728    1.6956   -0.0680 C   0  0  0  0  0  0  0  0  0  0  0  0
   -6.0637    2.1710    0.5553 C   0  0  0  0  0  0  0  0  0  0  0  0
   -6.1114    1.8461    1.8927 C   0  0  0  0  0  0  0  0  0  0  0  0
   -4.7289    0.9711    2.3911 S   0  0  0  0  0  0  0  0  0  0  0  0
   -1.5418    1.1086    0.7012 C   0  0  0  0  0  0  0  0  0  0  0  0
   -1.5492    2.4904    1.0860 C   0  0  0  0  0  0  0  0  0  0  0  0
   -1.5756    3.6127    1.3829 N   0  0  0  0  0  0  0  0  0  0  0  0
   -3.7886   -1.9126   -0.0818 C   0  0  0  0  0  0  0  0  0  0  0  0
   -3.0159   -3.2403   -0.0716 C   0  0  0  0  0  0  0  0  0  0  0  0
   -1.5947   -2.9196   -0.5472 C   0  0  0  0  0  0  0  0  0  0  0  0
    4.7764    1.4293   -2.5060 H   0  0  0  0  0  0  0  0  0  0  0  0
    3.7882    2.2623   -1.2963 H   0  0  0  0  0  0  0  0  0  0  0  0
    3.1910    0.7924   -2.0750 H   0  0  0  0  0  0  0  0  0  0  0  0
    5.8515    2.1326    0.2674 H   0  0  0  0  0  0  0  0  0  0  0  0
    6.5727    0.5612    0.6328 H   0  0  0  0  0  0  0  0  0  0  0  0
    6.7291    1.2462   -0.9903 H   0  0  0  0  0  0  0  0  0  0  0  0
    5.7984   -0.9230   -1.8981 H   0  0  0  0  0  0  0  0  0  0  0  0
    4.1820   -1.4814   -1.4570 H   0  0  0  0  0  0  0  0  0  0  0  0
    5.4943   -1.5890   -0.2840 H   0  0  0  0  0  0  0  0  0  0  0  0
    2.1511   -0.8824    1.2466 H   0  0  0  0  0  0  0  0  0  0  0  0
    2.2812   -0.6623   -0.5042 H   0  0  0  0  0  0  0  0  0  0  0  0
   -4.6316    1.8465   -1.1136 H   0  0  0  0  0  0  0  0  0  0  0  0
   -6.8430    2.7284    0.0499 H   0  0  0  0  0  0  0  0  0  0  0  0
   -6.8899    2.0833    2.6050 H   0  0  0  0  0  0  0  0  0  0  0  0
   -4.5620   -1.9066    0.6909 H   0  0  0  0  0  0  0  0  0  0  0  0
   -4.2367   -1.7248   -1.0631 H   0  0  0  0  0  0  0  0  0  0  0  0
   -2.9732   -3.6233    0.9576 H   0  0  0  0  0  0  0  0  0  0  0  0
   -3.4986   -4.0098   -0.6820 H   0  0  0  0  0  0  0  0  0  0  0  0
   -1.5211   -2.9592   -1.6386 H   0  0  0  0  0  0  0  0  0  0  0  0
   -0.8517   -3.5818   -0.0953 H   0  0  0  0  0  0  0  0  0  0  0  0
  1  2  1  0
  2  3  1  0
  2  4  1  0
  2  5  1  0
  5  6  2  0
  5  7  1  0
  7  8  1  0
  8  9  1  0
  9 10  2  0
 10 11  1  0
 11 12  2  0
 12 13  1  0
 13 14  1  0
 14 15  2  0
 15 16  1  0
 16 17  2  0
 17 18  1  0
 13 19  2  0
 19 20  1  0
 20 21  3  0
 12 22  1  0
 22 23  1  0
 23 24  1  0
 19  9  1  0
 24 11  1  0
 18 14  1  0
  1 25  1  0
  1 26  1  0
  1 27  1  0
  3 28  1  0
  3 29  1  0
  3 30  1  0
  4 31  1  0
  4 32  1  0
  4 33  1  0
  7 34  1  0
  7 35  1  0
 15 36  1  0
 16 37  1  0
 17 38  1  0
 22 39  1  0
 22 40  1  0
 23 41  1  0
 23 42  1  0
 24 43  1  0
 24 44  1  0
M  END
$$$$
