
     RDKit          3D

 45 47  0  0  0  0  0  0  0  0999 V2000
    1.9241   -1.4873   -1.1074 O   0  0  0  0  0  0  0  0  0  0  0  0
    1.8972   -0.8278   -0.0679 C   0  0  0  0  0  0  0  0  0  0  0  0
    3.0469    0.0729    0.3818 C   0  0  0  0  0  0  0  0  0  0  0  0
    4.6296   -0.3264   -0.4349 S   0  0  0  0  0  0  0  0  0  0  0  0
    4.5823    0.8552   -1.7703 C   0  0  0  0  0  0  0  0  0  0  0  0
    5.3806    2.0028   -1.7018 C   0  0  0  0  0  0  0  0  0  0  0  0
    5.3632    2.9399   -2.7407 C   0  0  0  0  0  0  0  0  0  0  0  0
    4.5514    2.7240   -3.8535 C   0  0  0  0  0  0  0  0  0  0  0  0
    4.5320    3.9862   -5.2623 Br  0  0  0  0  0  0  0  0  0  0  0  0
    3.7599    1.5790   -3.9371 C   0  0  0  0  0  0  0  0  0  0  0  0
    3.7798    0.6433   -2.8961 C   0  0  0  0  0  0  0  0  0  0  0  0
    0.7781   -0.8577    0.7624 N   0  0  0  0  0  0  0  0  0  0  0  0
    0.5780    0.0024    1.9353 C   0  0  0  0  0  0  0  0  0  0  0  0
   -0.9089    0.2066    2.2636 C   0  0  0  0  0  0  0  0  0  0  0  0
   -1.5964   -1.0921    2.4903 N   0  0  0  0  0  0  0  0  0  0  0  0
   -3.2606   -1.0372    2.8084 S   0  0  0  0  0  6  0  0  0  0  0  0
   -3.6914   -2.3685    3.1809 O   0  0  0  0  0  0  0  0  0  0  0  0
   -3.5079    0.1004    3.6704 O   0  0  0  0  0  0  0  0  0  0  0  0
   -3.9716   -0.6664    1.2160 C   0  0  0  0  0  0  0  0  0  0  0  0
   -4.2215    0.6640    0.8611 C   0  0  0  0  0  0  0  0  0  0  0  0
   -4.8003    0.9493   -0.3760 C   0  0  0  0  0  0  0  0  0  0  0  0
   -5.1418   -0.0896   -1.2433 C   0  0  0  0  0  0  0  0  0  0  0  0
   -4.9173   -1.4179   -0.8734 C   0  0  0  0  0  0  0  0  0  0  0  0
   -4.3407   -1.7113    0.3626 C   0  0  0  0  0  0  0  0  0  0  0  0
   -1.0712   -2.2436    1.7010 C   0  0  0  0  0  0  0  0  0  0  0  0
   -0.3109   -1.7891    0.4483 C   0  0  0  0  0  0  0  0  0  0  0  0
    3.2135   -0.0766    1.4551 H   0  0  0  0  0  0  0  0  0  0  0  0
    2.7757    1.1202    0.2105 H   0  0  0  0  0  0  0  0  0  0  0  0
    6.0263    2.1737   -0.8424 H   0  0  0  0  0  0  0  0  0  0  0  0
    5.9924    3.8239   -2.6754 H   0  0  0  0  0  0  0  0  0  0  0  0
    3.1336    1.3988   -4.8076 H   0  0  0  0  0  0  0  0  0  0  0  0
    3.1751   -0.2587   -2.9803 H   0  0  0  0  0  0  0  0  0  0  0  0
    1.0506    0.9751    1.7653 H   0  0  0  0  0  0  0  0  0  0  0  0
    1.0899   -0.4820    2.7758 H   0  0  0  0  0  0  0  0  0  0  0  0
   -0.9883    0.8211    3.1665 H   0  0  0  0  0  0  0  0  0  0  0  0
   -1.3851    0.7406    1.4338 H   0  0  0  0  0  0  0  0  0  0  0  0
   -3.9781    1.4777    1.5407 H   0  0  0  0  0  0  0  0  0  0  0  0
   -4.9956    1.9804   -0.6624 H   0  0  0  0  0  0  0  0  0  0  0  0
   -5.6022    0.1352   -2.2032 H   0  0  0  0  0  0  0  0  0  0  0  0
   -5.2055   -2.2235   -1.5447 H   0  0  0  0  0  0  0  0  0  0  0  0
   -4.1971   -2.7494    0.6552 H   0  0  0  0  0  0  0  0  0  0  0  0
   -0.3961   -2.8052    2.3597 H   0  0  0  0  0  0  0  0  0  0  0  0
   -1.8686   -2.9321    1.4083 H   0  0  0  0  0  0  0  0  0  0  0  0
   -0.9875   -1.2653   -0.2385 H   0  0  0  0  0  0  0  0  0  0  0  0
    0.0845   -2.6646   -0.0792 H   0  0  0  0  0  0  0  0  0  0  0  0
  1  2  2  0
  2  3  1  0
  3  4  1  0
  4  5  1  0
  5  6  2  0
  6  7  1  0
  7  8  2  0
  8  9  1  0
  8 10  1  0
 10 11  2  0
  2 12  1  0
 12 13  1  0
 13 14  1  0
 14 15  1  0
 15 16  1  0
 16 17  2  0
 16 18  2  0
 16 19  1  0
 19 20  2  0
 20 21  1  0
 21 22  2  0
 22 23  1  0
 23 24  2  0
 15 25  1  0
 25 26  1  0
 11  5  1  0
 26 12  1  0
 24 19  1  0
  3 27  1  0
  3 28  1  0
  6 29  1  0
  7 30  1  0
 10 31  1  0
 11 32  1  0
 13 33  1  0
 13 34  1  0
 14 35  1  0
 14 36  1  0
 20 37  1  0
 21 38  1  0
 22 39  1  0
 23 40  1  0
 24 41  1  0
 25 42  1  0
 25 43  1  0
 26 44  1  0
 26 45  1  0
M  END
$$$$
