
     RDKit          3D

 45 47  0  0  0  0  0  0  0  0999 V2000
    2.2018    1.8128    0.6868 O   0  0  0  0  0  0  0  0  0  0  0  0
    1.9907    0.7272    0.1518 C   0  0  0  0  0  0  0  0  0  0  0  0
    2.9211    0.0996   -0.6550 N   0  0  0  0  0  0  0  0  0  0  0  0
    4.2127    0.6579   -0.6835 N   0  0  0  0  0  0  0  0  0  0  0  0
    5.2957   -0.2066   -0.6881 C   0  0  0  0  0  0  0  0  0  0  0  0
    5.1288   -1.4124   -0.8878 O   0  0  0  0  0  0  0  0  0  0  0  0
    6.5998    0.3891   -0.4363 C   0  0  0  0  0  0  0  0  0  0  0  0
    7.8154   -0.2711   -0.4013 C   0  0  0  0  0  0  0  0  0  0  0  0
    8.9080    0.6010   -0.1266 C   0  0  0  0  0  0  0  0  0  0  0  0
    8.4947    1.9028    0.0410 C   0  0  0  0  0  0  0  0  0  0  0  0
    6.8022    2.0649   -0.1330 S   0  0  0  0  0  0  0  0  0  0  0  0
    0.7070    0.0066    0.3741 C   0  0  0  0  0  0  0  0  0  0  0  0
   -0.0351    0.3155    1.5237 C   0  0  0  0  0  0  0  0  0  0  0  0
   -1.2498   -0.3267    1.7742 C   0  0  0  0  0  0  0  0  0  0  0  0
   -1.7373   -1.2612    0.8563 C   0  0  0  0  0  0  0  0  0  0  0  0
   -3.2770   -2.1017    1.1858 S   0  0  0  0  0  6  0  0  0  0  0  0
   -3.2497   -3.3496    0.4522 O   0  0  0  0  0  0  0  0  0  0  0  0
   -3.4780   -2.0790    2.6191 O   0  0  0  0  0  0  0  0  0  0  0  0
   -4.4283   -1.0855    0.4671 N   0  0  0  0  0  0  0  0  0  0  0  0
   -4.7667    0.1704    1.1748 C   0  0  0  0  0  0  0  0  0  0  0  0
   -5.8502    0.9250    0.4135 C   0  0  0  0  0  0  0  0  0  0  0  0
   -5.3812    1.3202   -0.9859 C   0  0  0  0  0  0  0  0  0  0  0  0
   -4.3278    0.3638   -1.5424 C   0  0  0  0  0  0  0  0  0  0  0  0
   -4.5109   -1.0521   -1.0120 C   0  0  0  0  0  0  0  0  0  0  0  0
   -0.9991   -1.5871   -0.2863 C   0  0  0  0  0  0  0  0  0  0  0  0
    0.2182   -0.9449   -0.5330 C   0  0  0  0  0  0  0  0  0  0  0  0
    2.8893   -0.9069   -0.8161 H   0  0  0  0  0  0  0  0  0  0  0  0
    4.3049    1.5953   -0.2922 H   0  0  0  0  0  0  0  0  0  0  0  0
    7.9094   -1.3388   -0.5672 H   0  0  0  0  0  0  0  0  0  0  0  0
    9.9428    0.2881   -0.0549 H   0  0  0  0  0  0  0  0  0  0  0  0
    9.1056    2.7688    0.2582 H   0  0  0  0  0  0  0  0  0  0  0  0
    0.3382    1.0524    2.2337 H   0  0  0  0  0  0  0  0  0  0  0  0
   -1.8043   -0.0945    2.6813 H   0  0  0  0  0  0  0  0  0  0  0  0
   -3.8804    0.8038    1.2802 H   0  0  0  0  0  0  0  0  0  0  0  0
   -5.1438   -0.0681    2.1747 H   0  0  0  0  0  0  0  0  0  0  0  0
   -6.7416    0.2900    0.3278 H   0  0  0  0  0  0  0  0  0  0  0  0
   -6.1542    1.8199    0.9679 H   0  0  0  0  0  0  0  0  0  0  0  0
   -6.2490    1.3548   -1.6552 H   0  0  0  0  0  0  0  0  0  0  0  0
   -4.9646    2.3344   -0.9693 H   0  0  0  0  0  0  0  0  0  0  0  0
   -3.3304    0.7281   -1.2647 H   0  0  0  0  0  0  0  0  0  0  0  0
   -4.3680    0.3684   -2.6374 H   0  0  0  0  0  0  0  0  0  0  0  0
   -3.7625   -1.7042   -1.4714 H   0  0  0  0  0  0  0  0  0  0  0  0
   -5.4910   -1.4457   -1.3067 H   0  0  0  0  0  0  0  0  0  0  0  0
   -1.3637   -2.3362   -0.9869 H   0  0  0  0  0  0  0  0  0  0  0  0
    0.7584   -1.1885   -1.4443 H   0  0  0  0  0  0  0  0  0  0  0  0
  1  2  2  0
  2  3  1  0
  3  4  1  0
  4  5  1  0
  5  6  2  0
  5  7  1  0
  7  8  2  0
  8  9  1  0
  9 10  2  0
 10 11  1  0
  2 12  1  0
 12 13  2  0
 13 14  1  0
 14 15  2  0
 15 16  1  0
 16 17  2  0
 16 18  2  0
 16 19  1  0
 19 20  1  0
 20 21  1  0
 21 22  1  0
 22 23  1  0
 23 24  1  0
 15 25  1  0
 25 26  2  0
 11  7  1  0
 26 12  1  0
 24 19  1  0
  3 27  1  0
  4 28  1  0
  8 29  1  0
  9 30  1  0
 10 31  1  0
 13 32  1  0
 14 33  1  0
 20 34  1  0
 20 35  1  0
 21 36  1  0
 21 37  1  0
 22 38  1  0
 22 39  1  0
 23 40  1  0
 23 41  1  0
 24 42  1  0
 24 43  1  0
 25 44  1  0
 26 45  1  0
M  END
$$$$
