
     RDKit          3D

 40 42  0  0  0  0  0  0  0  0999 V2000
    1.7678   -2.5653    1.1617 C   0  0  0  0  0  0  0  0  0  0  0  0
    2.2343   -1.2968    0.5156 C   0  0  0  0  0  0  0  0  0  0  0  0
    2.5190   -0.2756    1.1263 O   0  0  0  0  0  0  0  0  0  0  0  0
    2.2847   -1.4567   -0.8379 O   0  0  0  0  0  0  0  0  0  0  0  0
    2.6863   -0.2959   -1.5876 C   0  0  0  0  0  0  0  0  0  0  0  0
    1.4730    0.4628   -2.1445 C   0  0  0  0  0  0  0  0  0  0  0  0
    0.6140    0.9957   -1.0753 N   0  0  0  0  0  0  0  0  0  0  0  0
    1.0501    2.1058   -0.3555 C   0  0  0  0  0  0  0  0  0  0  0  0
    2.0890    2.8071   -0.7000 N   0  0  0  0  0  0  0  0  0  0  0  0
    2.5044    3.8864    0.0283 C   0  0  0  0  0  0  0  0  0  0  0  0
    3.2730    4.7230   -0.4353 O   0  0  0  0  0  0  0  0  0  0  0  0
    2.0423    4.0648    1.2992 N   0  0  0  0  0  0  0  0  0  0  0  0
    0.7848    3.6895    1.6571 C   0  0  0  0  0  0  0  0  0  0  0  0
    0.1080    4.2794    2.4830 O   0  0  0  0  0  0  0  0  0  0  0  0
    0.2749    2.5132    0.8721 C   0  0  0  0  0  0  0  0  0  0  0  0
   -0.7904    1.8835    1.2628 N   0  0  0  0  0  0  0  0  0  0  0  0
   -1.2074    0.7608    0.5254 C   0  0  0  0  0  0  0  0  0  0  0  0
   -2.3415    0.0913    1.0018 C   0  0  0  0  0  0  0  0  0  0  0  0
   -2.8359   -1.0567    0.3732 C   0  0  0  0  0  0  0  0  0  0  0  0
   -4.0559   -1.7359    0.9304 C   0  0  0  0  0  0  0  0  0  0  0  0
   -2.1683   -1.5452   -0.7594 C   0  0  0  0  0  0  0  0  0  0  0  0
   -2.6496   -2.7781   -1.4773 C   0  0  0  0  0  0  0  0  0  0  0  0
   -1.0296   -0.8666   -1.2401 C   0  0  0  0  0  0  0  0  0  0  0  0
   -0.5235    0.2903   -0.6208 C   0  0  0  0  0  0  0  0  0  0  0  0
    1.7181   -2.4226    2.2450 H   0  0  0  0  0  0  0  0  0  0  0  0
    0.7693   -2.8217    0.7995 H   0  0  0  0  0  0  0  0  0  0  0  0
    2.4739   -3.3714    0.9479 H   0  0  0  0  0  0  0  0  0  0  0  0
    3.2883   -0.6615   -2.4269 H   0  0  0  0  0  0  0  0  0  0  0  0
    3.3435    0.3559   -1.0010 H   0  0  0  0  0  0  0  0  0  0  0  0
    1.8368    1.2941   -2.7624 H   0  0  0  0  0  0  0  0  0  0  0  0
    0.9251   -0.1720   -2.8450 H   0  0  0  0  0  0  0  0  0  0  0  0
    2.3527    4.9294    1.7169 H   0  0  0  0  0  0  0  0  0  0  0  0
   -2.8360    0.4860    1.8880 H   0  0  0  0  0  0  0  0  0  0  0  0
   -4.8454   -1.7830    0.1737 H   0  0  0  0  0  0  0  0  0  0  0  0
   -3.8075   -2.7486    1.2633 H   0  0  0  0  0  0  0  0  0  0  0  0
   -4.4602   -1.1941    1.7921 H   0  0  0  0  0  0  0  0  0  0  0  0
   -3.6542   -2.6144   -1.8799 H   0  0  0  0  0  0  0  0  0  0  0  0
   -2.6632   -3.6345   -0.7957 H   0  0  0  0  0  0  0  0  0  0  0  0
   -1.9956   -3.0385   -2.3162 H   0  0  0  0  0  0  0  0  0  0  0  0
   -0.5494   -1.2837   -2.1188 H   0  0  0  0  0  0  0  0  0  0  0  0
  1  2  1  0
  2  3  2  0
  2  4  1  0
  4  5  1  0
  5  6  1  0
  6  7  1  0
  7  8  1  0
  8  9  2  0
  9 10  1  0
 10 11  2  0
 10 12  1  0
 12 13  1  0
 13 14  2  0
 13 15  1  0
 15 16  2  0
 16 17  1  0
 17 18  2  0
 18 19  1  0
 19 20  1  0
 19 21  2  0
 21 22  1  0
 21 23  1  0
 23 24  2  0
 24  7  1  0
 15  8  1  0
 24 17  1  0
  1 25  1  0
  1 26  1  0
  1 27  1  0
  5 28  1  0
  5 29  1  0
  6 30  1  0
  6 31  1  0
 12 32  1  0
 18 33  1  0
 20 34  1  0
 20 35  1  0
 20 36  1  0
 22 37  1  0
 22 38  1  0
 22 39  1  0
 23 40  1  0
M  END
$$$$
