
     RDKit          3D

 49 50  0  0  0  0  0  0  0  0999 V2000
   -5.5891   -3.0884   -0.1533 C   0  0  0  0  0  0  0  0  0  0  0  0
   -6.1100   -1.8271    0.2507 O   0  0  0  0  0  0  0  0  0  0  0  0
   -5.3215   -0.7202    0.0782 C   0  0  0  0  0  0  0  0  0  0  0  0
   -3.9751   -0.7796   -0.3178 C   0  0  0  0  0  0  0  0  0  0  0  0
   -3.2179    0.3877   -0.5098 C   0  0  0  0  0  0  0  0  0  0  0  0
   -1.8163    0.3537   -0.9529 C   0  0  0  0  0  0  0  0  0  0  0  0
   -0.9211   -0.5511   -0.5261 C   0  0  0  0  0  0  0  0  0  0  0  0
    0.4921   -0.5865   -0.9521 C   0  0  0  0  0  0  0  0  0  0  0  0
    1.2711   -1.4379   -0.5453 O   0  0  0  0  0  0  0  0  0  0  0  0
    0.7938    0.4126   -1.8109 O   0  0  0  0  0  0  0  0  0  0  0  0
    2.1455    0.4345   -2.2699 C   0  0  0  0  0  0  0  0  0  0  0  0
    3.1285    0.9941   -1.2387 C   0  0  0  0  0  0  0  0  0  0  0  0
    3.4850    2.1685   -1.2434 O   0  0  0  0  0  0  0  0  0  0  0  0
    3.5789    0.0657   -0.3235 N   0  0  0  0  0  0  0  0  0  0  0  0
    4.3903    0.4504    0.8166 C   0  0  0  0  0  0  0  0  0  0  0  0
    5.8038    0.9236    0.4667 C   0  0  0  0  0  0  0  0  0  0  0  0
    6.6043   -0.0716   -0.3597 C   0  0  0  0  0  0  0  0  0  0  0  0
    8.0188    0.3316   -0.0268 C   0  0  0  0  0  0  0  0  0  0  0  0
    7.9110    0.6762    1.4434 C   0  0  0  0  0  0  0  0  0  0  0  0
    6.5666    1.1217    1.6765 O   0  0  0  0  0  0  0  0  0  0  0  0
   -3.8336    1.6284   -0.3335 C   0  0  0  0  0  0  0  0  0  0  0  0
   -5.1677    1.6998    0.0659 C   0  0  0  0  0  0  0  0  0  0  0  0
   -5.9102    0.5366    0.2961 C   0  0  0  0  0  0  0  0  0  0  0  0
   -7.2036    0.7879    0.6758 O   0  0  0  0  0  0  0  0  0  0  0  0
   -7.8181   -0.1671    1.5453 C   0  0  0  0  0  0  0  0  0  0  0  0
   -8.9177    0.4753    2.2867 C   0  0  0  0  0  0  0  0  0  0  0  0
   -9.7887    0.9604    2.8834 N   0  0  0  0  0  0  0  0  0  0  0  0
   -6.3812   -3.8323   -0.0239 H   0  0  0  0  0  0  0  0  0  0  0  0
   -5.3083   -3.0826   -1.2117 H   0  0  0  0  0  0  0  0  0  0  0  0
   -4.7480   -3.3860    0.4813 H   0  0  0  0  0  0  0  0  0  0  0  0
   -3.4973   -1.7369   -0.4995 H   0  0  0  0  0  0  0  0  0  0  0  0
   -1.5269    1.1414   -1.6460 H   0  0  0  0  0  0  0  0  0  0  0  0
   -1.1809   -1.3252    0.1876 H   0  0  0  0  0  0  0  0  0  0  0  0
    2.4657   -0.5615   -2.6006 H   0  0  0  0  0  0  0  0  0  0  0  0
    2.1833    1.0808   -3.1532 H   0  0  0  0  0  0  0  0  0  0  0  0
    3.0178   -0.7820   -0.2284 H   0  0  0  0  0  0  0  0  0  0  0  0
    3.8625    1.2370    1.3693 H   0  0  0  0  0  0  0  0  0  0  0  0
    4.4405   -0.4168    1.4852 H   0  0  0  0  0  0  0  0  0  0  0  0
    5.7687    1.8906   -0.0490 H   0  0  0  0  0  0  0  0  0  0  0  0
    6.4244   -1.0987   -0.0196 H   0  0  0  0  0  0  0  0  0  0  0  0
    6.3804   -0.0165   -1.4287 H   0  0  0  0  0  0  0  0  0  0  0  0
    8.2962    1.2241   -0.6005 H   0  0  0  0  0  0  0  0  0  0  0  0
    8.7586   -0.4472   -0.2296 H   0  0  0  0  0  0  0  0  0  0  0  0
    8.6153    1.4574    1.7434 H   0  0  0  0  0  0  0  0  0  0  0  0
    8.0814   -0.2059    2.0698 H   0  0  0  0  0  0  0  0  0  0  0  0
   -3.2825    2.5528   -0.4950 H   0  0  0  0  0  0  0  0  0  0  0  0
   -5.6329    2.6736    0.2065 H   0  0  0  0  0  0  0  0  0  0  0  0
   -7.0968   -0.5625    2.2714 H   0  0  0  0  0  0  0  0  0  0  0  0
   -8.2390   -0.9830    0.9481 H   0  0  0  0  0  0  0  0  0  0  0  0
  1  2  1  0
  2  3  1  0
  3  4  2  0
  4  5  1  0
  5  6  1  0
  6  7  2  3
  7  8  1  0
  8  9  2  0
  8 10  1  0
 10 11  1  0
 11 12  1  0
 12 13  2  0
 12 14  1  0
 14 15  1  0
 15 16  1  0
 16 17  1  0
 17 18  1  0
 18 19  1  0
 19 20  1  0
  5 21  2  0
 21 22  1  0
 22 23  2  0
 23 24  1  0
 24 25  1  0
 25 26  1  0
 26 27  3  0
 23  3  1  0
 20 16  1  0
  1 28  1  0
  1 29  1  0
  1 30  1  0
  4 31  1  0
  6 32  1  0
  7 33  1  0
 11 34  1  0
 11 35  1  0
 14 36  1  0
 15 37  1  0
 15 38  1  0
 16 39  1  0
 17 40  1  0
 17 41  1  0
 18 42  1  0
 18 43  1  0
 19 44  1  0
 19 45  1  0
 21 46  1  0
 22 47  1  0
 25 48  1  0
 25 49  1  0
M  END
$$$$
