
     RDKit          3D

 47 50  0  0  0  0  0  0  0  0999 V2000
   -0.7163   -0.1192   -3.6448 C   0  0  0  0  0  0  0  0  0  0  0  0
   -0.5178    0.5829   -2.2880 C   0  0  0  0  0  0  0  0  0  0  0  0
   -0.6983    2.0990   -2.5069 C   0  0  0  0  0  0  0  0  0  0  0  0
   -1.5885    0.0459   -1.2856 C   0  0  0  0  0  0  0  0  0  0  0  0
   -1.2128    0.3481    0.1280 C   0  0  0  0  0  0  0  0  0  0  0  0
    0.0534    0.7372    0.5298 C   0  0  0  0  0  0  0  0  0  0  0  0
   -0.0816    1.0337    1.8897 C   0  0  0  0  0  0  0  0  0  0  0  0
   -1.3177    0.8223    2.3336 N   0  0  0  0  0  0  0  0  0  0  0  0
   -2.0160    0.3433    1.2619 N   0  0  0  0  0  0  0  0  0  0  0  0
   -3.3742   -0.0648    1.4547 C   0  0  0  0  0  0  0  0  0  0  0  0
   -4.0086    0.2565    2.6722 C   0  0  0  0  0  0  0  0  0  0  0  0
   -5.3333   -0.1185    2.9110 C   0  0  0  0  0  0  0  0  0  0  0  0
   -6.0274   -0.8242    1.9403 C   0  0  0  0  0  0  0  0  0  0  0  0
   -7.2963   -1.1882    2.1650 F   0  0  0  0  0  0  0  0  0  0  0  0
   -5.4188   -1.1666    0.7398 C   0  0  0  0  0  0  0  0  0  0  0  0
   -4.0916   -0.7921    0.4958 C   0  0  0  0  0  0  0  0  0  0  0  0
    1.2240    0.8822   -0.3800 C   0  0  0  0  0  0  0  0  0  0  0  0
    2.3586    0.2257    0.2278 N   0  0  0  0  0  0  0  0  0  0  0  0
    3.6564    0.5092   -0.1364 C   0  0  0  0  0  0  0  0  0  0  0  0
    3.9721    1.4033   -0.9117 O   0  0  0  0  0  0  0  0  0  0  0  0
    4.6777   -0.3784    0.4856 C   0  0  0  0  0  0  0  0  0  0  0  0
    6.0254   -0.1760    0.2313 C   0  0  0  0  0  0  0  0  0  0  0  0
    6.9884   -0.9637    0.7759 N   0  0  0  0  0  0  0  0  0  0  0  0
    6.5395   -1.9549    1.5812 C   0  0  0  0  0  0  0  0  0  0  0  0
    5.1904   -2.1574    1.8336 C   0  0  0  0  0  0  0  0  0  0  0  0
    4.2218   -1.3804    1.2946 N   0  0  0  0  0  0  0  0  0  0  0  0
    0.9166    0.2717   -1.7679 C   0  0  0  0  0  0  0  0  0  0  0  0
    0.0037    0.2436   -4.3870 H   0  0  0  0  0  0  0  0  0  0  0  0
   -1.7230    0.0600   -4.0389 H   0  0  0  0  0  0  0  0  0  0  0  0
   -0.5823   -1.2030   -3.5548 H   0  0  0  0  0  0  0  0  0  0  0  0
   -1.6790    2.3175   -2.9451 H   0  0  0  0  0  0  0  0  0  0  0  0
   -0.6272    2.6672   -1.5744 H   0  0  0  0  0  0  0  0  0  0  0  0
    0.0638    2.4888   -3.1911 H   0  0  0  0  0  0  0  0  0  0  0  0
   -2.5619    0.4833   -1.5340 H   0  0  0  0  0  0  0  0  0  0  0  0
   -1.6612   -1.0438   -1.3918 H   0  0  0  0  0  0  0  0  0  0  0  0
    0.6671    1.4081    2.5768 H   0  0  0  0  0  0  0  0  0  0  0  0
   -3.4821    0.8120    3.4475 H   0  0  0  0  0  0  0  0  0  0  0  0
   -5.8202    0.1364    3.8467 H   0  0  0  0  0  0  0  0  0  0  0  0
   -5.9781   -1.7334    0.0016 H   0  0  0  0  0  0  0  0  0  0  0  0
   -3.6555   -1.1218   -0.4373 H   0  0  0  0  0  0  0  0  0  0  0  0
    1.4603    1.9470   -0.4977 H   0  0  0  0  0  0  0  0  0  0  0  0
    2.2193   -0.6109    0.7895 H   0  0  0  0  0  0  0  0  0  0  0  0
    6.3731    0.6226   -0.4154 H   0  0  0  0  0  0  0  0  0  0  0  0
    7.3005   -2.5889    2.0230 H   0  0  0  0  0  0  0  0  0  0  0  0
    4.8534   -2.9584    2.4828 H   0  0  0  0  0  0  0  0  0  0  0  0
    1.0362   -0.8207   -1.7148 H   0  0  0  0  0  0  0  0  0  0  0  0
    1.6680    0.6176   -2.4900 H   0  0  0  0  0  0  0  0  0  0  0  0
  1  2  1  0
  2  3  1  0
  2  4  1  0
  4  5  1  0
  5  6  2  0
  6  7  1  0
  7  8  2  0
  8  9  1  0
  9 10  1  0
 10 11  2  0
 11 12  1  0
 12 13  2  0
 13 14  1  0
 13 15  1  0
 15 16  2  0
  6 17  1  0
 17 18  1  0
 18 19  1  0
 19 20  2  0
 19 21  1  0
 21 22  2  0
 22 23  1  0
 23 24  2  0
 24 25  1  0
 25 26  2  0
 17 27  1  0
 27  2  1  0
  9  5  1  0
 16 10  1  0
 26 21  1  0
  1 28  1  0
  1 29  1  0
  1 30  1  0
  3 31  1  0
  3 32  1  0
  3 33  1  0
  4 34  1  0
  4 35  1  0
  7 36  1  0
 11 37  1  0
 12 38  1  0
 15 39  1  0
 16 40  1  0
 17 41  1  0
 18 42  1  0
 22 43  1  0
 24 44  1  0
 25 45  1  0
 27 46  1  0
 27 47  1  0
M  END
$$$$
