
     RDKit          3D

 61 65  0  0  0  0  0  0  0  0999 V2000
    3.8484    1.0004    0.7828 C   0  0  0  0  0  0  0  0  0  0  0  0
    3.6112   -0.4033    1.2060 C   0  0  0  0  0  0  0  0  0  0  0  0
    2.3970   -1.0307    1.4256 C   0  0  0  0  0  0  0  0  0  0  0  0
    0.9982   -0.4984    1.3068 C   0  0  0  0  0  0  0  0  0  0  0  0
    0.4813   -0.5630   -0.1316 C   0  0  0  0  0  0  0  0  0  0  0  0
   -0.8476   -0.0283   -0.2155 O   0  0  0  0  0  0  0  0  0  0  0  0
   -1.8476   -0.8999    0.1096 C   0  0  0  0  0  0  0  0  0  0  0  0
   -1.6487   -2.0419    0.5023 O   0  0  0  0  0  0  0  0  0  0  0  0
   -3.2195   -0.2496   -0.0469 C   0  0  0  0  0  0  0  0  0  0  0  0
   -3.3926    0.3331   -1.4678 C   0  0  0  0  0  0  0  0  0  0  0  0
   -4.7771    0.9856   -1.6139 C   0  0  0  0  0  0  0  0  0  0  0  0
   -5.8651   -0.0707   -1.3692 C   0  0  0  0  0  0  0  0  0  0  0  0
   -5.7214   -0.6535    0.0447 C   0  0  0  0  0  0  0  0  0  0  0  0
   -5.8640    0.4754    1.0786 C   0  0  0  0  0  0  0  0  0  0  0  0
   -4.7746    1.5497    0.8578 C   0  0  0  0  0  0  0  0  0  0  0  0
   -4.9240    2.6744    1.8863 C   0  0  0  0  0  0  0  0  0  0  0  0
   -4.9180    2.1124   -0.5758 C   0  0  0  0  0  0  0  0  0  0  0  0
   -3.3849    0.8832    0.9913 C   0  0  0  0  0  0  0  0  0  0  0  0
   -4.3337   -1.2979    0.1880 C   0  0  0  0  0  0  0  0  0  0  0  0
    2.6537   -2.6609    1.9050 S   0  0  0  0  0  0  0  0  0  0  0  0
    4.3475   -2.4870    1.8019 C   0  0  0  0  0  0  0  0  0  0  0  0
    4.6854   -1.2695    1.4105 N   0  0  0  0  0  4  0  0  0  0  0  0
    6.1035   -0.9130    1.2515 C   0  0  0  0  0  0  0  0  0  0  0  0
    6.4536   -0.7324   -0.2057 C   0  0  0  0  0  0  0  0  0  0  0  0
    6.1801   -1.7329   -1.1529 C   0  0  0  0  0  0  0  0  0  0  0  0
    6.5149   -1.5474   -2.4952 C   0  0  0  0  0  0  0  0  0  0  0  0
    7.1351   -0.3706   -2.9056 C   0  0  0  0  0  0  0  0  0  0  0  0
    7.4303    0.6215   -1.9746 C   0  0  0  0  0  0  0  0  0  0  0  0
    7.0978    0.4417   -0.6314 C   0  0  0  0  0  0  0  0  0  0  0  0
    2.9515    1.6125    0.9216 H   0  0  0  0  0  0  0  0  0  0  0  0
    4.6431    1.4707    1.3683 H   0  0  0  0  0  0  0  0  0  0  0  0
    4.1091    1.0421   -0.2787 H   0  0  0  0  0  0  0  0  0  0  0  0
    0.9618    0.5402    1.6595 H   0  0  0  0  0  0  0  0  0  0  0  0
    0.3214   -1.0425    1.9774 H   0  0  0  0  0  0  0  0  0  0  0  0
    1.1103    0.0520   -0.7853 H   0  0  0  0  0  0  0  0  0  0  0  0
    0.5182   -1.5815   -0.5383 H   0  0  0  0  0  0  0  0  0  0  0  0
   -3.2684   -0.4577   -2.2191 H   0  0  0  0  0  0  0  0  0  0  0  0
   -2.6177    1.0809   -1.6794 H   0  0  0  0  0  0  0  0  0  0  0  0
   -4.8847    1.3983   -2.6233 H   0  0  0  0  0  0  0  0  0  0  0  0
   -5.7840   -0.8711   -2.1150 H   0  0  0  0  0  0  0  0  0  0  0  0
   -6.8585    0.3780   -1.4909 H   0  0  0  0  0  0  0  0  0  0  0  0
   -6.4979   -1.4080    0.2133 H   0  0  0  0  0  0  0  0  0  0  0  0
   -5.7874    0.0597    2.0916 H   0  0  0  0  0  0  0  0  0  0  0  0
   -6.8620    0.9250    0.9974 H   0  0  0  0  0  0  0  0  0  0  0  0
   -5.9029    3.1594    1.8024 H   0  0  0  0  0  0  0  0  0  0  0  0
   -4.8277    2.2909    2.9079 H   0  0  0  0  0  0  0  0  0  0  0  0
   -4.1571    3.4439    1.7446 H   0  0  0  0  0  0  0  0  0  0  0  0
   -4.1556    2.8805   -0.7593 H   0  0  0  0  0  0  0  0  0  0  0  0
   -5.8930    2.6022   -0.6948 H   0  0  0  0  0  0  0  0  0  0  0  0
   -2.5978    1.6380    0.8590 H   0  0  0  0  0  0  0  0  0  0  0  0
   -3.2511    0.4825    2.0054 H   0  0  0  0  0  0  0  0  0  0  0  0
   -4.2339   -2.1254   -0.5270 H   0  0  0  0  0  0  0  0  0  0  0  0
   -4.2357   -1.7420    1.1875 H   0  0  0  0  0  0  0  0  0  0  0  0
    5.0417   -3.2892    2.0229 H   0  0  0  0  0  0  0  0  0  0  0  0
    6.7427   -1.6980    1.6743 H   0  0  0  0  0  0  0  0  0  0  0  0
    6.2990   -0.0053    1.8337 H   0  0  0  0  0  0  0  0  0  0  0  0
    5.7123   -2.6734   -0.8708 H   0  0  0  0  0  0  0  0  0  0  0  0
    6.3015   -2.3251   -3.2266 H   0  0  0  0  0  0  0  0  0  0  0  0
    7.3999   -0.2308   -3.9520 H   0  0  0  0  0  0  0  0  0  0  0  0
    7.9284    1.5332   -2.2992 H   0  0  0  0  0  0  0  0  0  0  0  0
    7.3549    1.2332    0.0713 H   0  0  0  0  0  0  0  0  0  0  0  0
  1  2  1  0
  2  3  2  0
  3  4  1  0
  4  5  1  0
  5  6  1  0
  6  7  1  0
  7  8  2  0
  7  9  1  0
  9 10  1  0
 10 11  1  0
 11 12  1  0
 12 13  1  0
 13 14  1  0
 14 15  1  0
 15 16  1  0
 15 17  1  0
 15 18  1  0
 13 19  1  0
  3 20  1  0
 20 21  1  0
 21 22  2  0
 22 23  1  0
 23 24  1  0
 24 25  2  0
 25 26  1  0
 26 27  2  0
 27 28  1  0
 28 29  2  0
 22  2  1  0
 29 24  1  0
 18  9  1  0
 19  9  1  0
 17 11  1  0
  1 30  1  0
  1 31  1  0
  1 32  1  0
  4 33  1  0
  4 34  1  0
  5 35  1  0
  5 36  1  0
 10 37  1  0
 10 38  1  0
 11 39  1  0
 12 40  1  0
 12 41  1  0
 13 42  1  0
 14 43  1  0
 14 44  1  0
 16 45  1  0
 16 46  1  0
 16 47  1  0
 17 48  1  0
 17 49  1  0
 18 50  1  0
 18 51  1  0
 19 52  1  0
 19 53  1  0
 21 54  1  0
 23 55  1  0
 23 56  1  0
 25 57  1  0
 26 58  1  0
 27 59  1  0
 28 60  1  0
 29 61  1  0
M  CHG  1  22   1
M  END
$$$$
