
     RDKit          3D

 38 40  0  0  0  0  0  0  0  0999 V2000
    2.6791    2.5721    0.6304 N   0  0  0  0  0  0  0  0  0  0  0  0
    2.8289    1.2939    0.8308 C   0  0  0  0  0  0  0  0  0  0  0  0
    1.9314    0.5592    1.5845 N   0  0  0  0  0  0  0  0  0  0  0  0
    0.6335    1.0942    1.5626 O   0  0  0  0  0  0  0  0  0  0  0  0
   -0.3232    0.1302    1.7481 C   0  0  0  0  0  0  0  0  0  0  0  0
   -0.0912   -1.0720    1.8419 O   0  0  0  0  0  0  0  0  0  0  0  0
   -1.6919    0.7566    1.8154 C   0  0  0  0  0  0  0  0  0  0  0  0
   -2.4173    0.7470    0.4882 C   0  0  0  0  0  0  0  0  0  0  0  0
   -2.3423    1.9077   -0.3041 C   0  0  0  0  0  0  0  0  0  0  0  0
   -3.0025    1.9792   -1.5258 C   0  0  0  0  0  0  0  0  0  0  0  0
   -3.7467    0.8912   -1.9762 C   0  0  0  0  0  0  0  0  0  0  0  0
   -3.8280   -0.2882   -1.2225 C   0  0  0  0  0  0  0  0  0  0  0  0
   -4.5789   -1.3763   -1.7016 C   0  0  0  0  0  0  0  0  0  0  0  0
   -4.6639   -2.5640   -0.9800 C   0  0  0  0  0  0  0  0  0  0  0  0
   -3.9937   -2.6802    0.2302 C   0  0  0  0  0  0  0  0  0  0  0  0
   -3.2489   -1.6048    0.7240 C   0  0  0  0  0  0  0  0  0  0  0  0
   -3.1505   -0.3818    0.0214 C   0  0  0  0  0  0  0  0  0  0  0  0
    3.9850    0.5080    0.2583 C   0  0  0  0  0  0  0  0  0  0  0  0
    5.1678    1.1140   -0.1515 C   0  0  0  0  0  0  0  0  0  0  0  0
    6.1788    0.2988   -0.6547 C   0  0  0  0  0  0  0  0  0  0  0  0
    5.9768   -1.0773   -0.7287 C   0  0  0  0  0  0  0  0  0  0  0  0
    4.7674   -1.5930   -0.2881 C   0  0  0  0  0  0  0  0  0  0  0  0
    3.7676   -0.8362    0.2098 N   0  0  0  0  0  0  0  0  0  0  0  0
    3.4028    2.9610    0.0258 H   0  0  0  0  0  0  0  0  0  0  0  0
    1.9585   -0.4493    1.3775 H   0  0  0  0  0  0  0  0  0  0  0  0
   -1.5958    1.7846    2.1918 H   0  0  0  0  0  0  0  0  0  0  0  0
   -2.2745    0.2477    2.5917 H   0  0  0  0  0  0  0  0  0  0  0  0
   -1.7662    2.7693    0.0319 H   0  0  0  0  0  0  0  0  0  0  0  0
   -2.9401    2.8824   -2.1275 H   0  0  0  0  0  0  0  0  0  0  0  0
   -4.2609    0.9694   -2.9323 H   0  0  0  0  0  0  0  0  0  0  0  0
   -5.1057   -1.3063   -2.6513 H   0  0  0  0  0  0  0  0  0  0  0  0
   -5.2478   -3.3981   -1.3645 H   0  0  0  0  0  0  0  0  0  0  0  0
   -4.0431   -3.6093    0.7923 H   0  0  0  0  0  0  0  0  0  0  0  0
   -2.7322   -1.7492    1.6698 H   0  0  0  0  0  0  0  0  0  0  0  0
    5.3296    2.1811   -0.0597 H   0  0  0  0  0  0  0  0  0  0  0  0
    7.1232    0.7332   -0.9776 H   0  0  0  0  0  0  0  0  0  0  0  0
    6.7481   -1.7336   -1.1161 H   0  0  0  0  0  0  0  0  0  0  0  0
    4.5668   -2.6612   -0.3252 H   0  0  0  0  0  0  0  0  0  0  0  0
  1  2  2  3
  2  3  1  0
  3  4  1  0
  4  5  1  0
  5  6  2  0
  5  7  1  0
  7  8  1  0
  8  9  2  0
  9 10  1  0
 10 11  2  0
 11 12  1  0
 12 13  2  0
 13 14  1  0
 14 15  2  0
 15 16  1  0
 16 17  2  0
  2 18  1  0
 18 19  2  0
 19 20  1  0
 20 21  2  0
 21 22  1  0
 22 23  2  0
 17  8  1  0
 23 18  1  0
 17 12  1  0
  1 24  1  0
  3 25  1  0
  7 26  1  0
  7 27  1  0
  9 28  1  0
 10 29  1  0
 11 30  1  0
 13 31  1  0
 14 32  1  0
 15 33  1  0
 16 34  1  0
 19 35  1  0
 20 36  1  0
 21 37  1  0
 22 38  1  0
M  END
$$$$
