
     RDKit          3D

 45 46  0  0  0  0  0  0  0  0999 V2000
    5.3555   -3.1530    1.4212 C   0  0  0  0  0  0  0  0  0  0  0  0
    4.1863   -2.9124    0.5130 C   0  0  0  0  0  0  0  0  0  0  0  0
    3.9449   -3.7625   -0.5702 C   0  0  0  0  0  0  0  0  0  0  0  0
    2.8326   -3.5607   -1.3857 C   0  0  0  0  0  0  0  0  0  0  0  0
    1.9521   -2.5076   -1.1276 C   0  0  0  0  0  0  0  0  0  0  0  0
    2.1835   -1.6397   -0.0600 C   0  0  0  0  0  0  0  0  0  0  0  0
    1.3079   -0.5864    0.2877 N   0  0  0  0  0  0  0  0  0  0  0  0
    0.4104    0.1213   -0.4995 C   0  0  0  0  0  0  0  0  0  0  0  0
    0.6737    0.4368   -2.1357 S   0  0  0  0  0  0  0  0  0  0  0  0
   -0.6886    0.6272    0.2326 N   0  0  0  0  0  0  0  0  0  0  0  0
   -1.6333    1.6079   -0.3508 C   0  0  0  0  0  0  0  0  0  0  0  0
   -1.1173    3.0556   -0.2029 C   0  0  0  0  0  0  0  0  0  0  0  0
   -2.1095    4.0835   -0.5781 N   0  0  0  0  0  0  0  0  0  0  0  0
   -2.3912    4.0575   -2.0168 C   0  0  0  0  0  0  0  0  0  0  0  0
   -1.6152    5.4114   -0.2014 C   0  0  0  0  0  0  0  0  0  0  0  0
   -1.0760    0.1086    1.5568 C   0  0  0  0  0  0  0  0  0  0  0  0
   -2.0675   -1.0116    1.4105 C   0  0  0  0  0  0  0  0  0  0  0  0
   -3.4485   -0.9460    1.4429 C   0  0  0  0  0  0  0  0  0  0  0  0
   -4.0604   -2.2220    1.2779 C   0  0  0  0  0  0  0  0  0  0  0  0
   -3.1285   -3.2244    1.1360 C   0  0  0  0  0  0  0  0  0  0  0  0
   -1.5291   -2.6284    1.2078 S   0  0  0  0  0  0  0  0  0  0  0  0
    3.2874   -1.8670    0.7730 C   0  0  0  0  0  0  0  0  0  0  0  0
    5.0624   -3.8169    2.2403 H   0  0  0  0  0  0  0  0  0  0  0  0
    5.7230   -2.2112    1.8421 H   0  0  0  0  0  0  0  0  0  0  0  0
    6.1873   -3.6104    0.8752 H   0  0  0  0  0  0  0  0  0  0  0  0
    4.6160   -4.5918   -0.7814 H   0  0  0  0  0  0  0  0  0  0  0  0
    2.6402   -4.2313   -2.2193 H   0  0  0  0  0  0  0  0  0  0  0  0
    1.0714   -2.4094   -1.7546 H   0  0  0  0  0  0  0  0  0  0  0  0
    1.5213   -0.1346    1.1654 H   0  0  0  0  0  0  0  0  0  0  0  0
   -1.8200    1.3586   -1.3986 H   0  0  0  0  0  0  0  0  0  0  0  0
   -2.5999    1.5180    0.1574 H   0  0  0  0  0  0  0  0  0  0  0  0
   -0.1865    3.1898   -0.7681 H   0  0  0  0  0  0  0  0  0  0  0  0
   -0.8547    3.1961    0.8545 H   0  0  0  0  0  0  0  0  0  0  0  0
   -3.0992    4.8509   -2.2831 H   0  0  0  0  0  0  0  0  0  0  0  0
   -1.4852    4.1912   -2.6189 H   0  0  0  0  0  0  0  0  0  0  0  0
   -2.8694    3.1177   -2.3095 H   0  0  0  0  0  0  0  0  0  0  0  0
   -0.6790    5.6653   -0.7119 H   0  0  0  0  0  0  0  0  0  0  0  0
   -2.3584    6.1808   -0.4392 H   0  0  0  0  0  0  0  0  0  0  0  0
   -1.4458    5.4670    0.8797 H   0  0  0  0  0  0  0  0  0  0  0  0
   -1.5121    0.9330    2.1343 H   0  0  0  0  0  0  0  0  0  0  0  0
   -0.2107   -0.2319    2.1314 H   0  0  0  0  0  0  0  0  0  0  0  0
   -3.9993   -0.0218    1.5723 H   0  0  0  0  0  0  0  0  0  0  0  0
   -5.1293   -2.3955    1.2632 H   0  0  0  0  0  0  0  0  0  0  0  0
   -3.3078   -4.2814    0.9950 H   0  0  0  0  0  0  0  0  0  0  0  0
    3.4666   -1.2203    1.6283 H   0  0  0  0  0  0  0  0  0  0  0  0
  1  2  1  0
  2  3  2  0
  3  4  1  0
  4  5  2  0
  5  6  1  0
  6  7  1  0
  7  8  1  0
  8  9  2  0
  8 10  1  0
 10 11  1  0
 11 12  1  0
 12 13  1  0
 13 14  1  0
 13 15  1  0
 10 16  1  0
 16 17  1  0
 17 18  2  0
 18 19  1  0
 19 20  2  0
 20 21  1  0
  6 22  2  0
 22  2  1  0
 21 17  1  0
  1 23  1  0
  1 24  1  0
  1 25  1  0
  3 26  1  0
  4 27  1  0
  5 28  1  0
  7 29  1  0
 11 30  1  0
 11 31  1  0
 12 32  1  0
 12 33  1  0
 14 34  1  0
 14 35  1  0
 14 36  1  0
 15 37  1  0
 15 38  1  0
 15 39  1  0
 16 40  1  0
 16 41  1  0
 18 42  1  0
 19 43  1  0
 20 44  1  0
 22 45  1  0
M  END
$$$$
