
     RDKit          3D

 42 42  0  0  0  0  0  0  0  0999 V2000
   -2.3577   -3.7083    2.4534 C   0  0  0  0  0  0  0  0  0  0  0  0
   -1.0106   -3.6302    1.7520 C   0  0  0  0  0  0  0  0  0  0  0  0
   -0.8693   -2.4172    0.8270 C   0  0  0  0  0  0  0  0  0  0  0  0
   -0.8749   -1.0790    1.5825 C   0  0  0  0  0  0  0  0  0  0  0  0
   -0.6695    0.1809    0.7060 C   0  0  0  0  0  0  0  0  0  0  0  0
   -1.9318    0.5242   -0.0706 C   0  0  0  0  0  0  0  0  0  0  0  0
   -2.7801   -0.2906   -0.4088 O   0  0  0  0  0  0  0  0  0  0  0  0
   -1.9710    1.8433   -0.4070 O   0  0  0  0  0  0  0  0  0  0  0  0
   -3.1256    2.2797   -1.1406 C   0  0  0  0  0  0  0  0  0  0  0  0
   -2.9126    2.0668   -2.6266 C   0  0  0  0  0  0  0  0  0  0  0  0
    0.5395    0.0726   -0.2181 C   0  0  0  0  0  0  0  0  0  0  0  0
    1.1047    1.4816   -0.2338 C   0  0  0  0  0  0  0  0  0  0  0  0
    2.6124    1.5593   -0.4795 C   0  0  0  0  0  0  0  0  0  0  0  0
    3.0628    0.9737   -2.1419 S   0  0  0  0  0  0  0  0  0  0  0  0
    4.7792    1.1419   -1.9947 C   0  0  0  0  0  0  0  0  0  0  0  0
    5.3340    2.2531   -2.3091 N   0  0  0  0  0  0  0  0  0  0  0  0
    5.4680    0.0663   -1.5665 N   0  0  0  0  0  0  0  0  0  0  0  0
    0.8173    1.9877    1.0759 O   0  0  0  0  0  0  0  0  0  0  0  0
   -0.2594    1.3275    1.5980 C   0  0  0  0  0  0  0  0  0  0  0  0
   -0.7920    1.6421    2.6505 O   0  0  0  0  0  0  0  0  0  0  0  0
   -2.4403   -4.6540    3.0005 H   0  0  0  0  0  0  0  0  0  0  0  0
   -2.4828   -2.8973    3.1764 H   0  0  0  0  0  0  0  0  0  0  0  0
   -3.1809   -3.6608    1.7331 H   0  0  0  0  0  0  0  0  0  0  0  0
   -0.8805   -4.5389    1.1508 H   0  0  0  0  0  0  0  0  0  0  0  0
   -0.2084   -3.6273    2.4990 H   0  0  0  0  0  0  0  0  0  0  0  0
    0.0719   -2.5310    0.2777 H   0  0  0  0  0  0  0  0  0  0  0  0
   -1.6705   -2.4438    0.0814 H   0  0  0  0  0  0  0  0  0  0  0  0
   -1.8212   -0.9737    2.1281 H   0  0  0  0  0  0  0  0  0  0  0  0
   -0.0896   -1.1185    2.3503 H   0  0  0  0  0  0  0  0  0  0  0  0
   -4.0354    1.7799   -0.7846 H   0  0  0  0  0  0  0  0  0  0  0  0
   -3.2470    3.3481   -0.9363 H   0  0  0  0  0  0  0  0  0  0  0  0
   -2.7917    1.0043   -2.8593 H   0  0  0  0  0  0  0  0  0  0  0  0
   -1.9991    2.5696   -2.9604 H   0  0  0  0  0  0  0  0  0  0  0  0
   -3.7595    2.4548   -3.1994 H   0  0  0  0  0  0  0  0  0  0  0  0
    1.2851   -0.6104    0.2075 H   0  0  0  0  0  0  0  0  0  0  0  0
    0.2908   -0.2817   -1.2239 H   0  0  0  0  0  0  0  0  0  0  0  0
    0.5788    2.1190   -0.9556 H   0  0  0  0  0  0  0  0  0  0  0  0
    3.1497    0.9770    0.2784 H   0  0  0  0  0  0  0  0  0  0  0  0
    2.9453    2.5969   -0.3621 H   0  0  0  0  0  0  0  0  0  0  0  0
    4.5943    2.8921   -2.6194 H   0  0  0  0  0  0  0  0  0  0  0  0
    5.0691   -0.8237   -1.8360 H   0  0  0  0  0  0  0  0  0  0  0  0
    6.4585    0.1441   -1.7714 H   0  0  0  0  0  0  0  0  0  0  0  0
  1  2  1  0
  2  3  1  0
  3  4  1  0
  4  5  1  0
  5  6  1  0
  6  7  2  0
  6  8  1  0
  8  9  1  0
  9 10  1  0
  5 11  1  0
 11 12  1  0
 12 13  1  0
 13 14  1  0
 14 15  1  0
 15 16  2  3
 15 17  1  0
 12 18  1  0
 18 19  1  0
 19 20  2  0
 19  5  1  0
  1 21  1  0
  1 22  1  0
  1 23  1  0
  2 24  1  0
  2 25  1  0
  3 26  1  0
  3 27  1  0
  4 28  1  0
  4 29  1  0
  9 30  1  0
  9 31  1  0
 10 32  1  0
 10 33  1  0
 10 34  1  0
 11 35  1  0
 11 36  1  0
 12 37  1  0
 13 38  1  0
 13 39  1  0
 16 40  1  0
 17 41  1  0
 17 42  1  0
M  END
$$$$
