
     RDKit          3D

 41 43  0  0  0  0  0  0  0  0999 V2000
   -3.8852   -1.7273   -1.5999 O   0  0  0  0  0  0  0  0  0  0  0  0
   -4.3898   -0.8934   -0.8632 C   0  0  0  0  0  0  0  0  0  0  0  0
   -3.7366   -0.0466    0.0140 O   0  0  0  0  0  0  0  0  0  0  0  0
   -2.3413   -0.1658    0.0608 C   0  0  0  0  0  0  0  0  0  0  0  0
   -1.7264   -1.3571    0.4485 C   0  0  0  0  0  0  0  0  0  0  0  0
   -0.3337   -1.4142    0.5298 C   0  0  0  0  0  0  0  0  0  0  0  0
    0.4258   -0.2744    0.2417 C   0  0  0  0  0  0  0  0  0  0  0  0
    1.8969   -0.3567    0.3346 C   0  0  0  0  0  0  0  0  0  0  0  0
    2.6504    0.6723    0.1145 N   0  0  0  0  0  0  0  0  0  0  0  0
    3.9860    0.4467    0.2350 N   0  0  0  0  0  0  0  0  0  0  0  0
    4.9041    1.4624    0.0292 C   0  0  0  0  0  0  0  0  0  0  0  0
    4.6490    2.6262   -0.2626 O   0  0  0  0  0  0  0  0  0  0  0  0
    6.3198    1.0058    0.2009 C   0  0  0  0  0  0  0  0  0  0  0  0
    7.3642    1.9056    0.0257 C   0  0  0  0  0  0  0  0  0  0  0  0
    8.6651    1.4417    0.1937 C   0  0  0  0  0  0  0  0  0  0  0  0
    8.8759    0.1071    0.5277 C   0  0  0  0  0  0  0  0  0  0  0  0
    7.7732   -0.7199    0.6828 C   0  0  0  0  0  0  0  0  0  0  0  0
    6.4954   -0.3092    0.5290 N   0  0  0  0  0  0  0  0  0  0  0  0
   -0.2015    0.9226   -0.1237 C   0  0  0  0  0  0  0  0  0  0  0  0
   -1.5930    0.9791   -0.2089 C   0  0  0  0  0  0  0  0  0  0  0  0
   -5.8587   -0.6490   -0.7986 C   0  0  0  0  0  0  0  0  0  0  0  0
   -6.4350    0.2869    0.0733 C   0  0  0  0  0  0  0  0  0  0  0  0
   -7.8215    0.4720    0.0907 C   0  0  0  0  0  0  0  0  0  0  0  0
   -8.6328   -0.2764   -0.7611 C   0  0  0  0  0  0  0  0  0  0  0  0
  -10.5055   -0.0235   -0.7342 Br  0  0  0  0  0  0  0  0  0  0  0  0
   -8.0731   -1.2093   -1.6315 C   0  0  0  0  0  0  0  0  0  0  0  0
   -6.6879   -1.3952   -1.6498 C   0  0  0  0  0  0  0  0  0  0  0  0
   -2.3201   -2.2380    0.6754 H   0  0  0  0  0  0  0  0  0  0  0  0
    0.1439   -2.3467    0.8175 H   0  0  0  0  0  0  0  0  0  0  0  0
    2.3226   -1.3403    0.6039 H   0  0  0  0  0  0  0  0  0  0  0  0
    4.3495   -0.4747    0.4707 H   0  0  0  0  0  0  0  0  0  0  0  0
    7.1681    2.9409   -0.2352 H   0  0  0  0  0  0  0  0  0  0  0  0
    9.5071    2.1165    0.0645 H   0  0  0  0  0  0  0  0  0  0  0  0
    9.8801   -0.2805    0.6642 H   0  0  0  0  0  0  0  0  0  0  0  0
    7.8974   -1.7678    0.9432 H   0  0  0  0  0  0  0  0  0  0  0  0
    0.3894    1.8104   -0.3416 H   0  0  0  0  0  0  0  0  0  0  0  0
   -2.0829    1.9076   -0.4867 H   0  0  0  0  0  0  0  0  0  0  0  0
   -5.8234    0.8820    0.7475 H   0  0  0  0  0  0  0  0  0  0  0  0
   -8.2564    1.2007    0.7707 H   0  0  0  0  0  0  0  0  0  0  0  0
   -8.7013   -1.7950   -2.2982 H   0  0  0  0  0  0  0  0  0  0  0  0
   -6.2578   -2.1257   -2.3337 H   0  0  0  0  0  0  0  0  0  0  0  0
  1  2  2  0
  2  3  1  0
  3  4  1  0
  4  5  2  0
  5  6  1  0
  6  7  2  0
  7  8  1  0
  8  9  2  3
  9 10  1  0
 10 11  1  0
 11 12  2  0
 11 13  1  0
 13 14  2  0
 14 15  1  0
 15 16  2  0
 16 17  1  0
 17 18  2  0
  7 19  1  0
 19 20  2  0
  2 21  1  0
 21 22  2  0
 22 23  1  0
 23 24  2  0
 24 25  1  0
 24 26  1  0
 26 27  2  0
 20  4  1  0
 27 21  1  0
 18 13  1  0
  5 28  1  0
  6 29  1  0
  8 30  1  0
 10 31  1  0
 14 32  1  0
 15 33  1  0
 16 34  1  0
 17 35  1  0
 19 36  1  0
 20 37  1  0
 22 38  1  0
 23 39  1  0
 26 40  1  0
 27 41  1  0
M  END
$$$$
