
     RDKit          3D

 45 48  0  0  0  0  0  0  0  0999 V2000
    1.0808   -2.1307    1.3265 O   0  0  0  0  0  0  0  0  0  0  0  0
   -0.0758   -2.0197    0.9297 C   0  0  0  0  0  0  0  0  0  0  0  0
   -0.7490   -0.8323    0.9413 N   0  0  0  0  0  0  0  0  0  0  0  0
   -0.4577    0.0480    0.0505 C   0  0  0  0  0  0  0  0  0  0  0  0
    0.4507   -0.1005   -0.9517 N   0  0  0  0  0  0  0  0  0  0  0  0
    1.6986    0.0336   -0.6484 C   0  0  0  0  0  0  0  0  0  0  0  0
    2.3068    0.2305    0.5794 N   0  0  0  0  0  0  0  0  0  0  0  0
    3.6655    0.1311    0.3325 C   0  0  0  0  0  0  0  0  0  0  0  0
    4.7392    0.1844    1.1905 C   0  0  0  0  0  0  0  0  0  0  0  0
    6.0197    0.1066    0.6307 C   0  0  0  0  0  0  0  0  0  0  0  0
    6.1935   -0.0123   -0.7624 C   0  0  0  0  0  0  0  0  0  0  0  0
    5.0892   -0.0551   -1.6168 C   0  0  0  0  0  0  0  0  0  0  0  0
    3.8427    0.0227   -1.0355 C   0  0  0  0  0  0  0  0  0  0  0  0
    2.6276   -0.0271   -1.7010 O   0  0  0  0  0  0  0  0  0  0  0  0
   -1.1122    1.2490   -0.0337 N   0  0  0  0  0  0  0  0  0  0  0  0
   -2.1216    1.7278    0.7827 C   0  0  0  0  0  0  0  0  0  0  0  0
   -2.4936    1.2334    1.8395 O   0  0  0  0  0  0  0  0  0  0  0  0
   -2.7415    3.0049    0.3300 C   0  0  0  0  0  0  0  0  0  0  0  0
   -3.1811    3.9129    1.3016 C   0  0  0  0  0  0  0  0  0  0  0  0
   -3.7648    5.1215    0.9190 C   0  0  0  0  0  0  0  0  0  0  0  0
   -3.9210    5.4223   -0.4336 C   0  0  0  0  0  0  0  0  0  0  0  0
   -3.5029    4.5135   -1.4059 C   0  0  0  0  0  0  0  0  0  0  0  0
   -2.9173    3.3027   -1.0285 C   0  0  0  0  0  0  0  0  0  0  0  0
   -0.8292   -3.2157    0.4512 C   0  0  0  0  0  0  0  0  0  0  0  0
   -2.2060   -3.1537    0.1969 C   0  0  0  0  0  0  0  0  0  0  0  0
   -2.8862   -4.2873   -0.2531 C   0  0  0  0  0  0  0  0  0  0  0  0
   -2.1968   -5.4839   -0.4495 C   0  0  0  0  0  0  0  0  0  0  0  0
   -0.8273   -5.5527   -0.1943 C   0  0  0  0  0  0  0  0  0  0  0  0
   -0.1435   -4.4221    0.2567 C   0  0  0  0  0  0  0  0  0  0  0  0
    1.9570   -0.3701    1.3275 H   0  0  0  0  0  0  0  0  0  0  0  0
    4.6037    0.2872    2.2612 H   0  0  0  0  0  0  0  0  0  0  0  0
    6.8931    0.1416    1.2786 H   0  0  0  0  0  0  0  0  0  0  0  0
    7.1983   -0.0718   -1.1748 H   0  0  0  0  0  0  0  0  0  0  0  0
    5.2056   -0.1506   -2.6897 H   0  0  0  0  0  0  0  0  0  0  0  0
   -0.8037    1.8081   -0.8124 H   0  0  0  0  0  0  0  0  0  0  0  0
   -3.0682    3.6798    2.3590 H   0  0  0  0  0  0  0  0  0  0  0  0
   -4.1017    5.8248    1.6767 H   0  0  0  0  0  0  0  0  0  0  0  0
   -4.3803    6.3626   -0.7300 H   0  0  0  0  0  0  0  0  0  0  0  0
   -3.6448    4.7452   -2.4591 H   0  0  0  0  0  0  0  0  0  0  0  0
   -2.6352    2.5963   -1.8043 H   0  0  0  0  0  0  0  0  0  0  0  0
   -2.7594   -2.2309    0.3576 H   0  0  0  0  0  0  0  0  0  0  0  0
   -3.9551   -4.2370   -0.4457 H   0  0  0  0  0  0  0  0  0  0  0  0
   -2.7289   -6.3656   -0.7985 H   0  0  0  0  0  0  0  0  0  0  0  0
   -0.2918   -6.4868   -0.3448 H   0  0  0  0  0  0  0  0  0  0  0  0
    0.9246   -4.4846    0.4543 H   0  0  0  0  0  0  0  0  0  0  0  0
  1  2  2  0
  2  3  1  0
  3  4  2  3
  4  5  1  0
  5  6  2  3
  6  7  1  0
  7  8  1  0
  8  9  2  0
  9 10  1  0
 10 11  2  0
 11 12  1  0
 12 13  2  0
 13 14  1  0
  4 15  1  0
 15 16  1  0
 16 17  2  0
 16 18  1  0
 18 19  2  0
 19 20  1  0
 20 21  2  0
 21 22  1  0
 22 23  2  0
  2 24  1  0
 24 25  2  0
 25 26  1  0
 26 27  2  0
 27 28  1  0
 28 29  2  0
 14  6  1  0
 23 18  1  0
 29 24  1  0
 13  8  1  0
  7 30  1  0
  9 31  1  0
 10 32  1  0
 11 33  1  0
 12 34  1  0
 15 35  1  0
 19 36  1  0
 20 37  1  0
 21 38  1  0
 22 39  1  0
 23 40  1  0
 25 41  1  0
 26 42  1  0
 27 43  1  0
 28 44  1  0
 29 45  1  0
M  END
$$$$
