
     RDKit          3D

 64 68  0  0  0  0  0  0  0  0999 V2000
   -5.0955   -0.1074   -3.4069 C   0  0  0  0  0  0  0  0  0  0  0  0
   -4.0681   -1.2188   -3.6919 C   0  0  0  0  0  0  0  0  0  0  0  0
   -4.7581   -2.3161   -4.5161 C   0  0  0  0  0  0  0  0  0  0  0  0
   -2.9106   -0.6192   -4.5029 C   0  0  0  0  0  0  0  0  0  0  0  0
   -3.6246   -1.8310   -2.3423 C   0  0  0  0  0  0  0  0  0  0  0  0
   -4.4313   -2.0399   -1.4324 O   0  0  0  0  0  0  0  0  0  0  0  0
   -2.2445   -2.3588   -2.1746 C   0  0  0  0  0  0  0  0  0  0  0  0
   -2.0927   -3.6591   -2.7468 C   0  0  0  0  0  0  0  0  0  0  0  0
   -1.9925   -4.6856   -3.2749 N   0  0  0  0  0  0  0  0  0  0  0  0
   -1.2312   -1.7243   -1.5393 C   0  0  0  0  0  0  0  0  0  0  0  0
    0.3525   -2.5011   -1.4488 S   0  0  0  0  0  0  0  0  0  0  0  0
    1.0250   -1.2169   -0.5180 C   0  0  0  0  0  0  0  0  0  0  0  0
    2.2063   -1.3483    0.1097 C   0  0  0  0  0  0  0  0  0  0  0  0
    2.8302   -0.4375    1.0117 C   0  0  0  0  0  0  0  0  0  0  0  0
    3.2661    0.8288    0.7047 C   0  0  0  0  0  0  0  0  0  0  0  0
    3.8159    1.3521    1.8535 N   0  0  0  0  0  0  0  0  0  0  0  0
    4.3285    2.6638    2.0624 C   0  0  0  0  0  0  0  0  0  0  0  0
    4.2929    3.6280    1.0433 C   0  0  0  0  0  0  0  0  0  0  0  0
    4.7964    4.9117    1.2769 C   0  0  0  0  0  0  0  0  0  0  0  0
    5.3245    5.2456    2.5248 C   0  0  0  0  0  0  0  0  0  0  0  0
    5.3618    4.2925    3.5425 C   0  0  0  0  0  0  0  0  0  0  0  0
    4.8702    3.0044    3.3149 C   0  0  0  0  0  0  0  0  0  0  0  0
    3.8485    0.4283    2.8488 N   0  0  0  0  0  0  0  0  0  0  0  0
    3.2012   -0.6437    2.3693 C   0  0  0  0  0  0  0  0  0  0  0  0
    2.9758   -1.8115    3.2149 C   0  0  0  0  0  0  0  0  0  0  0  0
    3.9657   -2.2793    4.0836 C   0  0  0  0  0  0  0  0  0  0  0  0
    3.7223   -3.4058    4.8679 C   0  0  0  0  0  0  0  0  0  0  0  0
    2.4888   -4.0293    4.7624 C   0  0  0  0  0  0  0  0  0  0  0  0
    1.5015   -3.6028    3.9483 N   0  0  0  0  0  0  0  0  0  0  0  0
    1.7664   -2.5006    3.2024 C   0  0  0  0  0  0  0  0  0  0  0  0
    0.0789   -0.0723   -0.4323 C   0  0  0  0  0  0  0  0  0  0  0  0
    0.3583    1.0070    0.0816 O   0  0  0  0  0  0  0  0  0  0  0  0
   -1.1715   -0.4479   -0.9720 N   0  0  0  0  0  0  0  0  0  0  0  0
   -2.2362    0.4734   -0.7603 C   0  0  0  0  0  0  0  0  0  0  0  0
   -2.1393    1.7805   -1.2666 C   0  0  0  0  0  0  0  0  0  0  0  0
   -3.1491    2.7119   -1.0158 C   0  0  0  0  0  0  0  0  0  0  0  0
   -4.2427    2.3440   -0.2439 C   0  0  0  0  0  0  0  0  0  0  0  0
   -5.2158    3.2348   -0.0143 F   0  0  0  0  0  0  0  0  0  0  0  0
   -4.3370    1.0670    0.2973 C   0  0  0  0  0  0  0  0  0  0  0  0
   -3.3258    0.1350    0.0492 C   0  0  0  0  0  0  0  0  0  0  0  0
   -5.9464   -0.4753   -2.8224 H   0  0  0  0  0  0  0  0  0  0  0  0
   -4.6416    0.7078   -2.8383 H   0  0  0  0  0  0  0  0  0  0  0  0
   -5.4906    0.3236   -4.3356 H   0  0  0  0  0  0  0  0  0  0  0  0
   -5.5594   -2.7986   -3.9435 H   0  0  0  0  0  0  0  0  0  0  0  0
   -4.0530   -3.1015   -4.8142 H   0  0  0  0  0  0  0  0  0  0  0  0
   -5.2009   -1.9086   -5.4329 H   0  0  0  0  0  0  0  0  0  0  0  0
   -3.2788   -0.1451   -5.4219 H   0  0  0  0  0  0  0  0  0  0  0  0
   -2.3698    0.1412   -3.9286 H   0  0  0  0  0  0  0  0  0  0  0  0
   -2.1834   -1.3820   -4.8079 H   0  0  0  0  0  0  0  0  0  0  0  0
    2.7396   -2.2930   -0.0119 H   0  0  0  0  0  0  0  0  0  0  0  0
    3.2014    1.3964   -0.2108 H   0  0  0  0  0  0  0  0  0  0  0  0
    3.8750    3.4227    0.0623 H   0  0  0  0  0  0  0  0  0  0  0  0
    4.7688    5.6574    0.4861 H   0  0  0  0  0  0  0  0  0  0  0  0
    5.7100    6.2462    2.7037 H   0  0  0  0  0  0  0  0  0  0  0  0
    5.7698    4.5509    4.5165 H   0  0  0  0  0  0  0  0  0  0  0  0
    4.9157    2.2744    4.1234 H   0  0  0  0  0  0  0  0  0  0  0  0
    4.9237   -1.7684    4.1478 H   0  0  0  0  0  0  0  0  0  0  0  0
    4.4767   -3.7866    5.5469 H   0  0  0  0  0  0  0  0  0  0  0  0
    2.2500   -4.9072    5.3563 H   0  0  0  0  0  0  0  0  0  0  0  0
    0.9321   -2.1745    2.5883 H   0  0  0  0  0  0  0  0  0  0  0  0
   -1.2774    2.0892   -1.8525 H   0  0  0  0  0  0  0  0  0  0  0  0
   -3.0832    3.7224   -1.4098 H   0  0  0  0  0  0  0  0  0  0  0  0
   -5.1919    0.8029    0.9123 H   0  0  0  0  0  0  0  0  0  0  0  0
   -3.3970   -0.8456    0.5169 H   0  0  0  0  0  0  0  0  0  0  0  0
  1  2  1  0
  2  3  1  0
  2  4  1  0
  2  5  1  0
  5  6  2  0
  5  7  1  0
  7  8  1  0
  8  9  3  0
  7 10  2  3
 10 11  1  0
 11 12  1  0
 12 13  2  3
 13 14  1  0
 14 15  2  0
 15 16  1  0
 16 17  1  0
 17 18  2  0
 18 19  1  0
 19 20  2  0
 20 21  1  0
 21 22  2  0
 16 23  1  0
 23 24  2  0
 24 25  1  0
 25 26  2  0
 26 27  1  0
 27 28  2  0
 28 29  1  0
 29 30  2  0
 12 31  1  0
 31 32  2  0
 31 33  1  0
 33 34  1  0
 34 35  2  0
 35 36  1  0
 36 37  2  0
 37 38  1  0
 37 39  1  0
 39 40  2  0
 33 10  1  0
 40 34  1  0
 24 14  1  0
 30 25  1  0
 22 17  1  0
  1 41  1  0
  1 42  1  0
  1 43  1  0
  3 44  1  0
  3 45  1  0
  3 46  1  0
  4 47  1  0
  4 48  1  0
  4 49  1  0
 13 50  1  0
 15 51  1  0
 18 52  1  0
 19 53  1  0
 20 54  1  0
 21 55  1  0
 22 56  1  0
 26 57  1  0
 27 58  1  0
 28 59  1  0
 30 60  1  0
 35 61  1  0
 36 62  1  0
 39 63  1  0
 40 64  1  0
M  END
$$$$
