
     RDKit          3D

102110  0  0  0  0  0  0  0  0999 V2000
    2.6375    1.2877   -0.5439 O   0  0  0  0  0  0  0  0  0  0  0  0
    2.8860    1.3885    0.6532 C   0  0  0  0  0  0  0  0  0  0  0  0
    1.8842    1.9183    1.6713 C   0  0  0  0  0  0  0  0  0  0  0  0
    0.4174    1.5581    1.3878 C   0  0  0  0  0  0  0  0  0  0  0  0
   -0.1335    2.1898    0.1095 C   0  0  0  0  0  0  0  0  0  0  0  0
   -1.6424    1.9546    0.0732 C   0  0  0  0  0  0  0  0  0  0  0  0
   -2.4345    2.7911   -0.9358 C   0  0  0  0  0  0  0  0  0  0  0  0
   -3.5639    3.1745   -0.5973 O   0  0  0  0  0  0  0  0  0  0  0  0
   -1.9647    3.0815   -2.1978 N   0  0  0  0  0  0  0  0  0  0  0  0
   -0.8491    2.4236   -2.8953 C   0  0  0  0  0  0  0  0  0  0  0  0
   -1.0829    2.3843   -4.4117 C   0  0  0  0  0  0  0  0  0  0  0  0
   -1.2458    3.6871   -4.9921 O   0  0  0  0  0  0  0  0  0  0  0  0
   -1.8795    4.6346   -4.1231 C   0  0  0  0  0  0  0  0  0  0  0  0
   -2.7491    3.9937   -3.0395 C   0  0  0  0  0  0  0  0  0  0  0  0
   -2.0404    0.4449    0.1824 C   0  0  0  0  0  0  0  0  0  0  0  0
   -3.2623    0.2578    1.1534 C   0  0  0  0  0  0  0  0  0  0  0  0
   -2.9924    0.5115    2.6453 C   0  0  0  0  0  0  0  0  0  0  0  0
   -4.2314    0.2325    3.5046 C   0  0  0  0  0  0  0  0  0  0  0  0
   -3.9763    0.4571    4.9942 C   0  0  0  0  0  0  0  0  0  0  0  0
   -5.3734    0.5405    5.6003 C   0  0  0  0  0  0  0  0  0  0  0  0
   -6.2913    1.0234    4.4768 C   0  0  0  0  0  0  0  0  0  0  0  0
   -5.4103    1.1684    3.2389 C   0  0  0  0  0  0  0  0  0  0  0  0
   -2.4606   -0.1553   -1.1640 C   0  0  0  0  0  0  0  0  0  0  0  0
   -3.5225    0.2716   -1.9284 N   0  0  0  0  0  0  0  0  0  0  0  0
   -3.6205   -0.4853   -3.0745 C   0  0  0  0  0  0  0  0  0  0  0  0
   -4.5065   -0.3725   -4.1518 C   0  0  0  0  0  0  0  0  0  0  0  0
   -4.3902   -1.3071   -5.1852 C   0  0  0  0  0  0  0  0  0  0  0  0
   -3.4286   -2.3156   -5.1378 C   0  0  0  0  0  0  0  0  0  0  0  0
   -2.5530   -2.4177   -4.0504 C   0  0  0  0  0  0  0  0  0  0  0  0
   -2.6462   -1.4817   -3.0026 C   0  0  0  0  0  0  0  0  0  0  0  0
   -1.9555   -1.2897   -1.7780 C   0  0  0  0  0  0  0  0  0  0  0  0
   -0.8910   -2.1085   -1.1395 C   0  0  0  0  0  0  0  0  0  0  0  0
   -0.9381   -1.8631    0.3763 C   0  0  0  0  0  0  0  0  0  0  0  0
   -0.8854   -0.4154    0.6655 N   0  0  0  0  0  0  0  0  0  0  0  0
    0.2360    0.0528    1.3358 C   0  0  0  0  0  0  0  0  0  0  0  0
    1.0373   -0.6939    1.9021 O   0  0  0  0  0  0  0  0  0  0  0  0
    4.1258    1.1202    1.1926 N   0  0  0  0  0  0  0  0  0  0  0  0
    5.2267    0.6135    0.3960 C   0  0  0  0  0  0  0  0  0  0  0  0
    5.4193   -0.9171    0.4745 C   0  0  0  0  0  0  0  0  0  0  0  0
    6.6459   -1.3058   -0.3968 C   0  0  0  0  0  0  0  0  0  0  0  0
    6.8989   -2.8209   -0.3483 C   0  0  0  0  0  0  0  0  0  0  0  0
    7.1608   -3.2428    1.1067 C   0  0  0  0  0  0  0  0  0  0  0  0
    5.9447   -2.8965    1.9814 C   0  0  0  0  0  0  0  0  0  0  0  0
    4.7050   -3.6300    1.4414 C   0  0  0  0  0  0  0  0  0  0  0  0
    4.4339   -3.2095   -0.0129 C   0  0  0  0  0  0  0  0  0  0  0  0
    5.6568   -3.5554   -0.8776 C   0  0  0  0  0  0  0  0  0  0  0  0
    4.1861   -1.6904   -0.0593 C   0  0  0  0  0  0  0  0  0  0  0  0
    5.6960   -1.3781    1.9305 C   0  0  0  0  0  0  0  0  0  0  0  0
    2.1547    1.5441    2.6674 H   0  0  0  0  0  0  0  0  0  0  0  0
    1.9986    3.0088    1.6983 H   0  0  0  0  0  0  0  0  0  0  0  0
   -0.1638    1.9120    2.2503 H   0  0  0  0  0  0  0  0  0  0  0  0
    0.3411    1.7322   -0.7576 H   0  0  0  0  0  0  0  0  0  0  0  0
    0.0880    3.2633    0.0796 H   0  0  0  0  0  0  0  0  0  0  0  0
   -1.9672    2.4286    1.0125 H   0  0  0  0  0  0  0  0  0  0  0  0
   -0.7081    1.4083   -2.5268 H   0  0  0  0  0  0  0  0  0  0  0  0
    0.0461    3.0173   -2.6792 H   0  0  0  0  0  0  0  0  0  0  0  0
   -0.2379    1.9036   -4.9143 H   0  0  0  0  0  0  0  0  0  0  0  0
   -1.9788    1.7992   -4.6471 H   0  0  0  0  0  0  0  0  0  0  0  0
   -1.0868    5.2363   -3.6626 H   0  0  0  0  0  0  0  0  0  0  0  0
   -2.4801    5.3046   -4.7477 H   0  0  0  0  0  0  0  0  0  0  0  0
   -3.5500    3.3985   -3.4937 H   0  0  0  0  0  0  0  0  0  0  0  0
   -3.2121    4.7694   -2.4198 H   0  0  0  0  0  0  0  0  0  0  0  0
   -4.0798    0.9105    0.8207 H   0  0  0  0  0  0  0  0  0  0  0  0
   -3.6498   -0.7675    1.0574 H   0  0  0  0  0  0  0  0  0  0  0  0
   -2.6640    1.5437    2.8076 H   0  0  0  0  0  0  0  0  0  0  0  0
   -2.1837   -0.1419    2.9913 H   0  0  0  0  0  0  0  0  0  0  0  0
   -4.5571   -0.8061    3.3526 H   0  0  0  0  0  0  0  0  0  0  0  0
   -3.4434    1.4017    5.1631 H   0  0  0  0  0  0  0  0  0  0  0  0
   -3.3846   -0.3487    5.4407 H   0  0  0  0  0  0  0  0  0  0  0  0
   -5.6980   -0.4517    5.9423 H   0  0  0  0  0  0  0  0  0  0  0  0
   -5.3969    1.2112    6.4660 H   0  0  0  0  0  0  0  0  0  0  0  0
   -6.7851    1.9685    4.7283 H   0  0  0  0  0  0  0  0  0  0  0  0
   -7.0775    0.2801    4.2970 H   0  0  0  0  0  0  0  0  0  0  0  0
   -5.0719    2.2081    3.1418 H   0  0  0  0  0  0  0  0  0  0  0  0
   -5.9566    0.9087    2.3262 H   0  0  0  0  0  0  0  0  0  0  0  0
   -4.1382    1.0458   -1.7055 H   0  0  0  0  0  0  0  0  0  0  0  0
   -5.2610    0.4071   -4.1881 H   0  0  0  0  0  0  0  0  0  0  0  0
   -5.0643   -1.2491   -6.0375 H   0  0  0  0  0  0  0  0  0  0  0  0
   -3.3621   -3.0370   -5.9488 H   0  0  0  0  0  0  0  0  0  0  0  0
   -1.8091   -3.2092   -4.0185 H   0  0  0  0  0  0  0  0  0  0  0  0
   -1.0342   -3.1731   -1.3491 H   0  0  0  0  0  0  0  0  0  0  0  0
    0.0847   -1.8089   -1.5399 H   0  0  0  0  0  0  0  0  0  0  0  0
   -1.8635   -2.2583    0.8119 H   0  0  0  0  0  0  0  0  0  0  0  0
   -0.1086   -2.3994    0.8475 H   0  0  0  0  0  0  0  0  0  0  0  0
    4.2147    1.0804    2.1992 H   0  0  0  0  0  0  0  0  0  0  0  0
    5.0845    0.9223   -0.6464 H   0  0  0  0  0  0  0  0  0  0  0  0
    6.1264    1.1216    0.7650 H   0  0  0  0  0  0  0  0  0  0  0  0
    7.5416   -0.7745   -0.0481 H   0  0  0  0  0  0  0  0  0  0  0  0
    6.4812   -0.9956   -1.4370 H   0  0  0  0  0  0  0  0  0  0  0  0
    7.7686   -3.0714   -0.9672 H   0  0  0  0  0  0  0  0  0  0  0  0
    7.3622   -4.3204    1.1547 H   0  0  0  0  0  0  0  0  0  0  0  0
    8.0540   -2.7340    1.4906 H   0  0  0  0  0  0  0  0  0  0  0  0
    6.1337   -3.2058    3.0167 H   0  0  0  0  0  0  0  0  0  0  0  0
    3.8322   -3.4001    2.0656 H   0  0  0  0  0  0  0  0  0  0  0  0
    4.8563   -4.7154    1.4952 H   0  0  0  0  0  0  0  0  0  0  0  0
    3.5523   -3.7395   -0.3919 H   0  0  0  0  0  0  0  0  0  0  0  0
    5.8298   -4.6382   -0.8645 H   0  0  0  0  0  0  0  0  0  0  0  0
    5.4702   -3.2755   -1.9218 H   0  0  0  0  0  0  0  0  0  0  0  0
    3.3004   -1.4601    0.5425 H   0  0  0  0  0  0  0  0  0  0  0  0
    3.9609   -1.3817   -1.0874 H   0  0  0  0  0  0  0  0  0  0  0  0
    4.8471   -1.1333    2.5814 H   0  0  0  0  0  0  0  0  0  0  0  0
    6.5681   -0.8488    2.3375 H   0  0  0  0  0  0  0  0  0  0  0  0
  1  2  2  0
  2  3  1  0
  3  4  1  0
  4  5  1  0
  5  6  1  0
  6  7  1  0
  7  8  2  0
  7  9  1  0
  9 10  1  0
 10 11  1  0
 11 12  1  0
 12 13  1  0
 13 14  1  0
  6 15  1  0
 15 16  1  0
 16 17  1  0
 17 18  1  0
 18 19  1  0
 19 20  1  0
 20 21  1  0
 21 22  1  0
 15 23  1  0
 23 24  1  0
 24 25  1  0
 25 26  2  0
 26 27  1  0
 27 28  2  0
 28 29  1  0
 29 30  2  0
 30 31  1  0
 31 32  1  0
 32 33  1  0
 33 34  1  0
 34 35  1  0
 35 36  2  0
  2 37  1  0
 37 38  1  0
 38 39  1  0
 39 40  1  0
 40 41  1  0
 41 42  1  0
 42 43  1  0
 43 44  1  0
 44 45  1  0
 45 46  1  0
 45 47  1  0
 43 48  1  0
 35  4  1  0
 47 39  1  0
 14  9  1  0
 34 15  1  0
 48 39  1  0
 22 18  1  0
 31 23  2  0
 46 41  1  0
 30 25  1  0
  3 49  1  0
  3 50  1  0
  4 51  1  0
  5 52  1  0
  5 53  1  0
  6 54  1  0
 10 55  1  0
 10 56  1  0
 11 57  1  0
 11 58  1  0
 13 59  1  0
 13 60  1  0
 14 61  1  0
 14 62  1  0
 16 63  1  0
 16 64  1  0
 17 65  1  0
 17 66  1  0
 18 67  1  0
 19 68  1  0
 19 69  1  0
 20 70  1  0
 20 71  1  0
 21 72  1  0
 21 73  1  0
 22 74  1  0
 22 75  1  0
 24 76  1  0
 26 77  1  0
 27 78  1  0
 28 79  1  0
 29 80  1  0
 32 81  1  0
 32 82  1  0
 33 83  1  0
 33 84  1  0
 37 85  1  0
 38 86  1  0
 38 87  1  0
 40 88  1  0
 40 89  1  0
 41 90  1  0
 42 91  1  0
 42 92  1  0
 43 93  1  0
 44 94  1  0
 44 95  1  0
 45 96  1  0
 46 97  1  0
 46 98  1  0
 47 99  1  0
 47100  1  0
 48101  1  0
 48102  1  0
M  END
$$$$
