
     RDKit          3D

 36 37  0  0  0  0  0  0  0  0999 V2000
   -3.7476    1.3234    2.1555 C   0  0  0  0  0  0  0  0  0  0  0  0
   -3.3992    1.0182    0.7799 N   0  0  0  0  0  0  0  0  0  0  0  0
   -4.4204    1.0010   -0.1607 C   0  0  0  0  0  0  0  0  0  0  0  0
   -5.5984    1.2237    0.1109 O   0  0  0  0  0  0  0  0  0  0  0  0
   -4.0278    0.6804   -1.5505 C   0  0  0  0  0  0  0  0  0  0  0  0
   -4.9988    0.6899   -2.5847 C   0  0  0  0  0  0  0  0  0  0  0  0
   -5.7395    0.6803   -3.4781 N   0  0  0  0  0  0  0  0  0  0  0  0
   -2.7501    0.3749   -1.7971 C   0  0  0  0  0  0  0  0  0  0  0  0
   -1.7914    0.3534   -0.8084 N   0  0  0  0  0  0  0  0  0  0  0  0
   -0.4156   -0.0361   -1.1437 C   0  0  0  0  0  0  0  0  0  0  0  0
   -0.1297   -1.5169   -0.8212 C   0  0  0  0  0  0  0  0  0  0  0  0
    1.2091   -1.9461   -1.2557 N   0  0  0  0  0  0  0  0  0  0  0  0
    2.2483   -1.3870   -0.5028 C   0  0  0  0  0  0  0  0  0  0  0  0
    2.9626   -0.4568   -1.1768 N   0  0  0  0  0  0  0  0  0  0  0  0
    3.9789    0.1578   -0.5250 C   0  0  0  0  0  0  0  0  0  0  0  0
    4.3369   -0.1114    0.7867 C   0  0  0  0  0  0  0  0  0  0  0  0
    5.4631    0.6391    1.4251 C   0  0  0  0  0  0  0  0  0  0  0  0
    5.0919    1.8862    1.8218 F   0  0  0  0  0  0  0  0  0  0  0  0
    5.9609    0.0244    2.5325 F   0  0  0  0  0  0  0  0  0  0  0  0
    6.5218    0.8127    0.5872 F   0  0  0  0  0  0  0  0  0  0  0  0
    3.5946   -1.0784    1.4693 C   0  0  0  0  0  0  0  0  0  0  0  0
    2.5445   -1.7322    0.8227 C   0  0  0  0  0  0  0  0  0  0  0  0
    1.7174   -2.9806    1.6803 Cl  0  0  0  0  0  0  0  0  0  0  0  0
   -2.0830    0.6425    0.5247 C   0  0  0  0  0  0  0  0  0  0  0  0
   -1.2304    0.5554    1.4080 O   0  0  0  0  0  0  0  0  0  0  0  0
   -4.6452    1.9457    2.2125 H   0  0  0  0  0  0  0  0  0  0  0  0
   -2.9257    1.8467    2.6537 H   0  0  0  0  0  0  0  0  0  0  0  0
   -3.9339    0.3804    2.6793 H   0  0  0  0  0  0  0  0  0  0  0  0
   -2.4191    0.1246   -2.8035 H   0  0  0  0  0  0  0  0  0  0  0  0
   -0.2283    0.1672   -2.2056 H   0  0  0  0  0  0  0  0  0  0  0  0
    0.2679    0.6104   -0.5797 H   0  0  0  0  0  0  0  0  0  0  0  0
   -0.8558   -2.1366   -1.3615 H   0  0  0  0  0  0  0  0  0  0  0  0
   -0.3028   -1.7212    0.2398 H   0  0  0  0  0  0  0  0  0  0  0  0
    1.3905   -1.6026   -2.1999 H   0  0  0  0  0  0  0  0  0  0  0  0
    4.5135    0.8993   -1.1167 H   0  0  0  0  0  0  0  0  0  0  0  0
    3.8408   -1.3318    2.4989 H   0  0  0  0  0  0  0  0  0  0  0  0
  1  2  1  0
  2  3  1  0
  3  4  2  0
  3  5  1  0
  5  6  1  0
  6  7  3  0
  5  8  2  0
  8  9  1  0
  9 10  1  0
 10 11  1  0
 11 12  1  0
 12 13  1  0
 13 14  2  0
 14 15  1  0
 15 16  2  0
 16 17  1  0
 17 18  1  0
 17 19  1  0
 17 20  1  0
 16 21  1  0
 21 22  2  0
 22 23  1  0
  9 24  1  0
 24 25  2  0
 24  2  1  0
 22 13  1  0
  1 26  1  0
  1 27  1  0
  1 28  1  0
  8 29  1  0
 10 30  1  0
 10 31  1  0
 11 32  1  0
 11 33  1  0
 12 34  1  0
 15 35  1  0
 21 36  1  0
M  END
$$$$
