
     RDKit          3D

 44 47  0  0  0  0  0  0  0  0999 V2000
    6.5138   -0.4139    0.6837 C   0  0  0  0  0  0  0  0  0  0  0  0
    5.5973   -0.2880   -0.5224 C   0  0  0  0  0  0  0  0  0  0  0  0
    4.1522   -0.2836   -0.1233 C   0  0  0  0  0  0  0  0  0  0  0  0
    3.3178   -1.3667    0.0795 C   0  0  0  0  0  0  0  0  0  0  0  0
    1.9994   -0.9616    0.4422 C   0  0  0  0  0  0  0  0  0  0  0  0
    0.8376   -1.7752    0.7260 C   0  0  0  0  0  0  0  0  0  0  0  0
    0.9034   -3.0025    0.6955 O   0  0  0  0  0  0  0  0  0  0  0  0
   -0.3253   -1.0499    1.0189 N   0  0  0  0  0  0  0  0  0  0  0  0
   -1.5321   -1.8495    1.2572 C   0  0  0  0  0  0  0  0  0  0  0  0
   -2.4114   -1.9683    0.0256 C   0  0  0  0  0  0  0  0  0  0  0  0
   -1.9592   -2.6415   -1.1202 C   0  0  0  0  0  0  0  0  0  0  0  0
   -2.7739   -2.7529   -2.2499 C   0  0  0  0  0  0  0  0  0  0  0  0
   -4.0513   -2.1977   -2.2486 C   0  0  0  0  0  0  0  0  0  0  0  0
   -4.5183   -1.5363   -1.1153 C   0  0  0  0  0  0  0  0  0  0  0  0
   -3.7063   -1.4272    0.0168 C   0  0  0  0  0  0  0  0  0  0  0  0
   -0.2973    0.3482    1.0639 C   0  0  0  0  0  0  0  0  0  0  0  0
   -1.7755    1.1974    1.4877 S   0  0  0  0  0  0  0  0  0  0  0  0
   -1.4892    2.8023    0.6856 C   0  0  0  0  0  0  0  0  0  0  0  0
   -1.4835    2.7163   -0.8283 C   0  0  0  0  0  0  0  0  0  0  0  0
   -1.8983    4.1134   -1.2154 C   0  0  0  0  0  0  0  0  0  0  0  0
   -2.8396    4.5109   -0.2195 O   0  0  0  0  0  0  0  0  0  0  0  0
   -2.6338    3.7612    0.9157 C   0  0  0  0  0  0  0  0  0  0  0  0
   -3.2722    3.9166    1.9463 O   0  0  0  0  0  0  0  0  0  0  0  0
    0.7469    1.0829    0.8301 N   0  0  0  0  0  0  0  0  0  0  0  0
    1.8696    0.4025    0.5120 C   0  0  0  0  0  0  0  0  0  0  0  0
    3.3273    1.2004    0.1352 S   0  0  0  0  0  0  0  0  0  0  0  0
    6.3038   -1.3263    1.2519 H   0  0  0  0  0  0  0  0  0  0  0  0
    7.5600   -0.4450    0.3625 H   0  0  0  0  0  0  0  0  0  0  0  0
    6.3942    0.4358    1.3640 H   0  0  0  0  0  0  0  0  0  0  0  0
    5.8493    0.6246   -1.0735 H   0  0  0  0  0  0  0  0  0  0  0  0
    5.7804   -1.1246   -1.2039 H   0  0  0  0  0  0  0  0  0  0  0  0
    3.6306   -2.4004   -0.0296 H   0  0  0  0  0  0  0  0  0  0  0  0
   -1.2656   -2.8641    1.5823 H   0  0  0  0  0  0  0  0  0  0  0  0
   -2.0946   -1.4240    2.0966 H   0  0  0  0  0  0  0  0  0  0  0  0
   -0.9729   -3.1007   -1.1420 H   0  0  0  0  0  0  0  0  0  0  0  0
   -2.4139   -3.2836   -3.1280 H   0  0  0  0  0  0  0  0  0  0  0  0
   -4.6869   -2.2895   -3.1267 H   0  0  0  0  0  0  0  0  0  0  0  0
   -5.5194   -1.1125   -1.1081 H   0  0  0  0  0  0  0  0  0  0  0  0
   -4.0998   -0.9165    0.8940 H   0  0  0  0  0  0  0  0  0  0  0  0
   -0.5840    3.2877    1.0718 H   0  0  0  0  0  0  0  0  0  0  0  0
   -0.5158    2.4398   -1.2557 H   0  0  0  0  0  0  0  0  0  0  0  0
   -2.2358    2.0044   -1.1948 H   0  0  0  0  0  0  0  0  0  0  0  0
   -2.3697    4.1416   -2.2017 H   0  0  0  0  0  0  0  0  0  0  0  0
   -1.0582    4.8161   -1.2029 H   0  0  0  0  0  0  0  0  0  0  0  0
  1  2  1  0
  2  3  1  0
  3  4  2  0
  4  5  1  0
  5  6  1  0
  6  7  2  0
  6  8  1  0
  8  9  1  0
  9 10  1  0
 10 11  2  0
 11 12  1  0
 12 13  2  0
 13 14  1  0
 14 15  2  0
  8 16  1  0
 16 17  1  0
 17 18  1  0
 18 19  1  0
 19 20  1  0
 20 21  1  0
 21 22  1  0
 22 23  2  0
 16 24  2  0
 24 25  1  0
 25 26  1  0
 26  3  1  0
 25  5  2  0
 15 10  1  0
 22 18  1  0
  1 27  1  0
  1 28  1  0
  1 29  1  0
  2 30  1  0
  2 31  1  0
  4 32  1  0
  9 33  1  0
  9 34  1  0
 11 35  1  0
 12 36  1  0
 13 37  1  0
 14 38  1  0
 15 39  1  0
 18 40  1  0
 19 41  1  0
 19 42  1  0
 20 43  1  0
 20 44  1  0
M  END
$$$$
