
     RDKit          3D

 53 56  0  0  0  0  0  0  0  0999 V2000
   -0.0913    1.7802    1.1065 O   0  0  0  0  0  0  0  0  0  0  0  0
    0.5907    0.9368    0.5243 C   0  0  0  0  0  0  0  0  0  0  0  0
   -0.0291   -0.3278   -0.0452 C   0  0  0  0  0  0  0  0  0  0  0  0
   -1.5488   -0.2977    0.0774 C   0  0  0  0  0  0  0  0  0  0  0  0
   -2.2436   -1.8347   -0.6157 S   0  0  0  0  0  0  0  0  0  0  0  0
   -3.9531   -1.6056   -0.2023 C   0  0  0  0  0  0  0  0  0  0  0  0
   -4.6740   -2.7105    0.0099 N   0  0  0  0  0  0  0  0  0  0  0  0
   -5.9761   -2.5499    0.3123 C   0  0  0  0  0  0  0  0  0  0  0  0
   -6.7360   -3.7763    0.5440 C   0  0  0  0  0  0  0  0  0  0  0  0
   -8.0560   -4.0559    0.8532 C   0  0  0  0  0  0  0  0  0  0  0  0
   -8.1665   -5.4660    0.9471 C   0  0  0  0  0  0  0  0  0  0  0  0
   -6.9121   -5.9640    0.6916 C   0  0  0  0  0  0  0  0  0  0  0  0
   -6.0419   -4.9527    0.4475 O   0  0  0  0  0  0  0  0  0  0  0  0
   -6.5666   -1.3070    0.3993 C   0  0  0  0  0  0  0  0  0  0  0  0
   -5.7543   -0.2142    0.1520 C   0  0  0  0  0  0  0  0  0  0  0  0
   -6.3496    1.1806    0.2503 C   0  0  0  0  0  0  0  0  0  0  0  0
   -5.6044    2.1516   -0.3450 F   0  0  0  0  0  0  0  0  0  0  0  0
   -7.5856    1.2572   -0.3267 F   0  0  0  0  0  0  0  0  0  0  0  0
   -6.5284    1.5764    1.5430 F   0  0  0  0  0  0  0  0  0  0  0  0
   -4.4393   -0.3579   -0.1453 N   0  0  0  0  0  0  0  0  0  0  0  0
    1.9593    1.0840    0.3597 N   0  0  0  0  0  0  0  0  0  0  0  0
    2.8310    0.1082   -0.3054 C   0  0  0  0  0  0  0  0  0  0  0  0
    4.3274    0.3094    0.0035 C   0  0  0  0  0  0  0  0  0  0  0  0
    4.7553    1.6841   -0.2944 N   0  0  0  0  0  0  0  0  0  0  0  0
    6.0863    1.9955   -0.5360 C   0  0  0  0  0  0  0  0  0  0  0  0
    6.4584    3.2120   -1.1342 C   0  0  0  0  0  0  0  0  0  0  0  0
    7.7964    3.5377   -1.3896 C   0  0  0  0  0  0  0  0  0  0  0  0
    8.8066    2.6462   -1.0521 C   0  0  0  0  0  0  0  0  0  0  0  0
    8.4743    1.4322   -0.4641 C   0  0  0  0  0  0  0  0  0  0  0  0
    7.1327    1.1150   -0.2144 C   0  0  0  0  0  0  0  0  0  0  0  0
    3.7674    2.7598   -0.0810 C   0  0  0  0  0  0  0  0  0  0  0  0
    2.6090    2.3110    0.8289 C   0  0  0  0  0  0  0  0  0  0  0  0
    0.2595   -0.4125   -1.0992 H   0  0  0  0  0  0  0  0  0  0  0  0
    0.3720   -1.1825    0.5117 H   0  0  0  0  0  0  0  0  0  0  0  0
   -1.9526    0.5643   -0.4648 H   0  0  0  0  0  0  0  0  0  0  0  0
   -1.8436   -0.2114    1.1292 H   0  0  0  0  0  0  0  0  0  0  0  0
   -8.8500   -3.3364    0.9943 H   0  0  0  0  0  0  0  0  0  0  0  0
   -9.0495   -6.0474    1.1724 H   0  0  0  0  0  0  0  0  0  0  0  0
   -6.4928   -6.9598    0.6464 H   0  0  0  0  0  0  0  0  0  0  0  0
   -7.6143   -1.1820    0.6453 H   0  0  0  0  0  0  0  0  0  0  0  0
    2.6578    0.2173   -1.3830 H   0  0  0  0  0  0  0  0  0  0  0  0
    2.5335   -0.9053   -0.0204 H   0  0  0  0  0  0  0  0  0  0  0  0
    4.5176    0.0934    1.0622 H   0  0  0  0  0  0  0  0  0  0  0  0
    4.8860   -0.4156   -0.6008 H   0  0  0  0  0  0  0  0  0  0  0  0
    5.7013    3.9291   -1.4400 H   0  0  0  0  0  0  0  0  0  0  0  0
    8.0410    4.4872   -1.8582 H   0  0  0  0  0  0  0  0  0  0  0  0
    9.8456    2.8948   -1.2480 H   0  0  0  0  0  0  0  0  0  0  0  0
    9.2555    0.7269   -0.1930 H   0  0  0  0  0  0  0  0  0  0  0  0
    6.9287    0.1619    0.2645 H   0  0  0  0  0  0  0  0  0  0  0  0
    3.3669    3.0646   -1.0553 H   0  0  0  0  0  0  0  0  0  0  0  0
    4.2322    3.6354    0.3880 H   0  0  0  0  0  0  0  0  0  0  0  0
    1.8793    3.1226    0.9187 H   0  0  0  0  0  0  0  0  0  0  0  0
    2.9877    2.0976    1.8362 H   0  0  0  0  0  0  0  0  0  0  0  0
  1  2  2  0
  2  3  1  0
  3  4  1  0
  4  5  1  0
  5  6  1  0
  6  7  2  0
  7  8  1  0
  8  9  1  0
  9 10  2  0
 10 11  1  0
 11 12  2  0
 12 13  1  0
  8 14  2  0
 14 15  1  0
 15 16  1  0
 16 17  1  0
 16 18  1  0
 16 19  1  0
 15 20  2  0
  2 21  1  0
 21 22  1  0
 22 23  1  0
 23 24  1  0
 24 25  1  0
 25 26  2  0
 26 27  1  0
 27 28  2  0
 28 29  1  0
 29 30  2  0
 24 31  1  0
 31 32  1  0
 20  6  1  0
 32 21  1  0
 13  9  1  0
 30 25  1  0
  3 33  1  0
  3 34  1  0
  4 35  1  0
  4 36  1  0
 10 37  1  0
 11 38  1  0
 12 39  1  0
 14 40  1  0
 22 41  1  0
 22 42  1  0
 23 43  1  0
 23 44  1  0
 26 45  1  0
 27 46  1  0
 28 47  1  0
 29 48  1  0
 30 49  1  0
 31 50  1  0
 31 51  1  0
 32 52  1  0
 32 53  1  0
M  END
$$$$
