
     RDKit          3D

 37 38  0  0  0  0  0  0  0  0999 V2000
    5.3969    1.8102   -0.0618 C   0  0  0  0  0  0  0  0  0  0  0  0
    4.0301    1.4736   -0.2590 O   0  0  0  0  0  0  0  0  0  0  0  0
    3.6290    0.2138    0.1069 C   0  0  0  0  0  0  0  0  0  0  0  0
    4.4874   -0.7928    0.5592 C   0  0  0  0  0  0  0  0  0  0  0  0
    3.9822   -2.0449    0.9147 C   0  0  0  0  0  0  0  0  0  0  0  0
    2.6136   -2.2974    0.8320 C   0  0  0  0  0  0  0  0  0  0  0  0
    1.7309   -1.3006    0.3893 C   0  0  0  0  0  0  0  0  0  0  0  0
    0.2883   -1.6589    0.3469 C   0  0  0  0  0  0  0  0  0  0  0  0
   -0.0944   -2.8189    0.2721 O   0  0  0  0  0  0  0  0  0  0  0  0
   -0.4681   -0.5328    0.4511 O   0  0  0  0  0  0  0  0  0  0  0  0
   -1.8396   -0.8425    0.4117 N   0  0  0  0  0  0  0  0  0  0  0  0
   -2.5491    0.2418    0.2969 C   0  0  0  0  0  0  0  0  0  0  0  0
   -1.9886    1.4977    0.2004 N   0  0  0  0  0  0  0  0  0  0  0  0
   -4.0394    0.1062    0.2729 C   0  0  0  0  0  0  0  0  0  0  0  0
   -4.6342   -1.0843    0.6913 C   0  0  0  0  0  0  0  0  0  0  0  0
   -6.0139   -1.1687    0.6599 C   0  0  0  0  0  0  0  0  0  0  0  0
   -6.8177   -0.1652    0.2457 N   0  0  0  0  0  0  0  0  0  0  0  0
   -6.2145    0.9692   -0.1682 C   0  0  0  0  0  0  0  0  0  0  0  0
   -4.8433    1.1549   -0.1741 C   0  0  0  0  0  0  0  0  0  0  0  0
    2.2490   -0.0537   -0.0020 C   0  0  0  0  0  0  0  0  0  0  0  0
    1.4169    0.9495   -0.4465 O   0  0  0  0  0  0  0  0  0  0  0  0
    1.3484    0.9346   -1.8750 C   0  0  0  0  0  0  0  0  0  0  0  0
    5.6807    1.7167    0.9917 H   0  0  0  0  0  0  0  0  0  0  0  0
    5.5277    2.8579   -0.3493 H   0  0  0  0  0  0  0  0  0  0  0  0
    6.0465    1.2059   -0.7032 H   0  0  0  0  0  0  0  0  0  0  0  0
    5.5581   -0.6372    0.6447 H   0  0  0  0  0  0  0  0  0  0  0  0
    4.6560   -2.8251    1.2623 H   0  0  0  0  0  0  0  0  0  0  0  0
    2.2334   -3.2767    1.1208 H   0  0  0  0  0  0  0  0  0  0  0  0
   -2.4428    2.2136    0.7560 H   0  0  0  0  0  0  0  0  0  0  0  0
   -0.9868    1.4714    0.3860 H   0  0  0  0  0  0  0  0  0  0  0  0
   -4.0421   -1.9267    1.0336 H   0  0  0  0  0  0  0  0  0  0  0  0
   -6.5254   -2.0731    0.9770 H   0  0  0  0  0  0  0  0  0  0  0  0
   -6.8871    1.7505   -0.5111 H   0  0  0  0  0  0  0  0  0  0  0  0
   -4.4256    2.0849   -0.5397 H   0  0  0  0  0  0  0  0  0  0  0  0
    0.9714   -0.0257   -2.2437 H   0  0  0  0  0  0  0  0  0  0  0  0
    2.3209    1.1586   -2.3256 H   0  0  0  0  0  0  0  0  0  0  0  0
    0.6452    1.7143   -2.1823 H   0  0  0  0  0  0  0  0  0  0  0  0
  1  2  1  0
  2  3  1  0
  3  4  2  0
  4  5  1  0
  5  6  2  0
  6  7  1  0
  7  8  1  0
  8  9  2  0
  8 10  1  0
 10 11  1  0
 11 12  2  3
 12 13  1  0
 12 14  1  0
 14 15  2  0
 15 16  1  0
 16 17  2  0
 17 18  1  0
 18 19  2  0
  7 20  2  0
 20 21  1  0
 21 22  1  0
 20  3  1  0
 19 14  1  0
  1 23  1  0
  1 24  1  0
  1 25  1  0
  4 26  1  0
  5 27  1  0
  6 28  1  0
 13 29  1  0
 13 30  1  0
 15 31  1  0
 16 32  1  0
 18 33  1  0
 19 34  1  0
 22 35  1  0
 22 36  1  0
 22 37  1  0
M  END
$$$$
