
     RDKit          3D

 40 43  0  0  0  0  0  0  0  0999 V2000
    2.0226   -2.8188   -0.6158 O   0  0  0  0  0  0  0  0  0  0  0  0
    2.1993   -1.8122    0.4061 S   0  0  0  0  0  6  0  0  0  0  0  0
    2.5401   -2.1539    1.7701 O   0  0  0  0  0  0  0  0  0  0  0  0
    3.3802   -0.6348   -0.1210 C   0  0  0  0  0  0  0  0  0  0  0  0
    3.3172    0.7088    0.3183 C   0  0  0  0  0  0  0  0  0  0  0  0
    4.2588    1.6915   -0.0787 C   0  0  0  0  0  0  0  0  0  0  0  0
    5.3387    1.4106   -0.9351 C   0  0  0  0  0  0  0  0  0  0  0  0
    5.4234    0.0720   -1.3653 C   0  0  0  0  0  0  0  0  0  0  0  0
    6.3323   -0.4944   -2.1662 N   0  0  0  0  0  0  0  0  0  0  0  0
    5.9696   -1.8254   -2.2643 O   0  0  0  0  0  0  0  0  0  0  0  0
    4.8317   -2.1020   -1.5315 N   0  0  0  0  0  0  0  0  0  0  0  0
    4.4579   -0.9485   -0.9634 C   0  0  0  0  0  0  0  0  0  0  0  0
    0.7408   -0.9119    0.4472 N   0  0  0  0  0  0  0  0  0  0  0  0
    0.2098   -0.5250   -0.9097 C   0  0  0  0  0  0  0  0  0  0  0  0
   -1.0051    0.4111   -0.7549 C   0  0  0  0  0  0  0  0  0  0  0  0
   -2.0674   -0.2501    0.0356 N   0  0  0  0  0  0  0  0  0  0  0  0
   -3.3289    0.3797    0.0829 C   0  0  0  0  0  0  0  0  0  0  0  0
   -4.4424   -0.3778    0.4944 C   0  0  0  0  0  0  0  0  0  0  0  0
   -5.7293    0.1703    0.5565 C   0  0  0  0  0  0  0  0  0  0  0  0
   -5.9405    1.4978    0.1995 C   0  0  0  0  0  0  0  0  0  0  0  0
   -4.8649    2.2704   -0.2248 C   0  0  0  0  0  0  0  0  0  0  0  0
   -3.5842    1.7154   -0.2852 C   0  0  0  0  0  0  0  0  0  0  0  0
   -2.5916    2.5233   -0.6916 F   0  0  0  0  0  0  0  0  0  0  0  0
   -1.5834   -0.7001    1.3662 C   0  0  0  0  0  0  0  0  0  0  0  0
   -0.3454   -1.6091    1.2216 C   0  0  0  0  0  0  0  0  0  0  0  0
    2.5191    1.0073    1.0006 H   0  0  0  0  0  0  0  0  0  0  0  0
    4.1450    2.7077    0.3022 H   0  0  0  0  0  0  0  0  0  0  0  0
    6.0597    2.1608   -1.2351 H   0  0  0  0  0  0  0  0  0  0  0  0
    0.9830   -0.0014   -1.4800 H   0  0  0  0  0  0  0  0  0  0  0  0
   -0.0857   -1.4245   -1.4627 H   0  0  0  0  0  0  0  0  0  0  0  0
   -1.3732    0.6592   -1.7575 H   0  0  0  0  0  0  0  0  0  0  0  0
   -0.6757    1.3310   -0.2554 H   0  0  0  0  0  0  0  0  0  0  0  0
   -4.3172   -1.4287    0.7464 H   0  0  0  0  0  0  0  0  0  0  0  0
   -6.5649   -0.4482    0.8749 H   0  0  0  0  0  0  0  0  0  0  0  0
   -6.9385    1.9254    0.2445 H   0  0  0  0  0  0  0  0  0  0  0  0
   -5.0087    3.3073   -0.5119 H   0  0  0  0  0  0  0  0  0  0  0  0
   -1.3254    0.1773    1.9741 H   0  0  0  0  0  0  0  0  0  0  0  0
   -2.3501   -1.2661    1.9069 H   0  0  0  0  0  0  0  0  0  0  0  0
   -0.6224   -2.5380    0.7085 H   0  0  0  0  0  0  0  0  0  0  0  0
    0.0154   -1.8560    2.2254 H   0  0  0  0  0  0  0  0  0  0  0  0
  1  2  2  0
  2  3  2  0
  2  4  1  0
  4  5  2  0
  5  6  1  0
  6  7  2  0
  7  8  1  0
  8  9  2  0
  9 10  1  0
 10 11  1  0
 11 12  2  0
  2 13  1  0
 13 14  1  0
 14 15  1  0
 15 16  1  0
 16 17  1  0
 17 18  2  0
 18 19  1  0
 19 20  2  0
 20 21  1  0
 21 22  2  0
 22 23  1  0
 16 24  1  0
 24 25  1  0
 12  4  1  0
 25 13  1  0
 12  8  1  0
 22 17  1  0
  5 26  1  0
  6 27  1  0
  7 28  1  0
 14 29  1  0
 14 30  1  0
 15 31  1  0
 15 32  1  0
 18 33  1  0
 19 34  1  0
 20 35  1  0
 21 36  1  0
 24 37  1  0
 24 38  1  0
 25 39  1  0
 25 40  1  0
M  END
$$$$
