
     RDKit          3D

 48 49  0  0  0  0  0  0  0  0999 V2000
   -4.8740   -2.1350   -3.0191 C   0  0  0  0  0  0  0  0  0  0  0  0
   -3.9507   -1.5459   -1.9947 C   0  0  0  0  0  0  0  0  0  0  0  0
   -3.9241   -0.1647   -1.7729 C   0  0  0  0  0  0  0  0  0  0  0  0
   -3.0418    0.3875   -0.8409 C   0  0  0  0  0  0  0  0  0  0  0  0
   -2.1637   -0.4329   -0.1211 C   0  0  0  0  0  0  0  0  0  0  0  0
   -1.1949    0.1604    0.8788 C   0  0  0  0  0  0  0  0  0  0  0  0
    0.0282    0.8259    0.2174 C   0  0  0  0  0  0  0  0  0  0  0  0
    0.8338   -0.0637   -0.6274 N   0  0  0  0  0  0  0  0  0  0  0  0
    1.3576   -1.2503   -0.1558 C   0  0  0  0  0  0  0  0  0  0  0  0
    1.1123   -1.7225    0.9475 O   0  0  0  0  0  0  0  0  0  0  0  0
    2.3005   -1.9488   -1.0709 C   0  0  0  0  0  0  0  0  0  0  0  0
    3.3180   -2.7326   -0.5146 C   0  0  0  0  0  0  0  0  0  0  0  0
    4.2165   -3.4051   -1.3444 C   0  0  0  0  0  0  0  0  0  0  0  0
    4.0947   -3.3045   -2.7303 C   0  0  0  0  0  0  0  0  0  0  0  0
    3.0720   -2.5379   -3.2899 C   0  0  0  0  0  0  0  0  0  0  0  0
    2.1717   -1.8620   -2.4634 C   0  0  0  0  0  0  0  0  0  0  0  0
    0.9634    1.5658    1.2096 C   0  0  0  0  0  0  0  0  0  0  0  0
    2.1880    1.5851    1.0778 O   0  0  0  0  0  0  0  0  0  0  0  0
    0.3307    2.3104    2.1881 N   0  0  0  0  0  0  0  0  0  0  0  0
    1.1121    3.2118    3.0380 C   0  0  0  0  0  0  0  0  0  0  0  0
    0.4166    3.4109    4.3757 C   0  0  0  0  0  0  0  0  0  0  0  0
    1.2466    4.5546    2.3214 C   0  0  0  0  0  0  0  0  0  0  0  0
    0.5176    4.9735    1.4327 O   0  0  0  0  0  0  0  0  0  0  0  0
    2.2550    5.3127    2.7957 O   0  0  0  0  0  0  0  0  0  0  0  0
   -2.1821   -1.8131   -0.3545 C   0  0  0  0  0  0  0  0  0  0  0  0
   -3.0635   -2.3639   -1.2871 C   0  0  0  0  0  0  0  0  0  0  0  0
   -4.3815   -2.1607   -3.9960 H   0  0  0  0  0  0  0  0  0  0  0  0
   -5.7933   -1.5455   -3.1015 H   0  0  0  0  0  0  0  0  0  0  0  0
   -5.1658   -3.1536   -2.7424 H   0  0  0  0  0  0  0  0  0  0  0  0
   -4.5934    0.4914   -2.3247 H   0  0  0  0  0  0  0  0  0  0  0  0
   -3.0472    1.4632   -0.6836 H   0  0  0  0  0  0  0  0  0  0  0  0
   -0.8952   -0.5982    1.6103 H   0  0  0  0  0  0  0  0  0  0  0  0
   -1.7563    0.8957    1.4690 H   0  0  0  0  0  0  0  0  0  0  0  0
   -0.3304    1.6055   -0.4686 H   0  0  0  0  0  0  0  0  0  0  0  0
    1.3773    0.3982   -1.3446 H   0  0  0  0  0  0  0  0  0  0  0  0
    3.4135   -2.8146    0.5663 H   0  0  0  0  0  0  0  0  0  0  0  0
    5.0088   -4.0084   -0.9085 H   0  0  0  0  0  0  0  0  0  0  0  0
    4.7937   -3.8316   -3.3752 H   0  0  0  0  0  0  0  0  0  0  0  0
    2.9709   -2.4746   -4.3706 H   0  0  0  0  0  0  0  0  0  0  0  0
    1.3613   -1.2959   -2.9147 H   0  0  0  0  0  0  0  0  0  0  0  0
   -0.6080    2.6259    1.9767 H   0  0  0  0  0  0  0  0  0  0  0  0
    2.1121    2.7892    3.1843 H   0  0  0  0  0  0  0  0  0  0  0  0
   -0.5766    3.8563    4.2463 H   0  0  0  0  0  0  0  0  0  0  0  0
    0.2877    2.4544    4.8933 H   0  0  0  0  0  0  0  0  0  0  0  0
    0.9955    4.0763    5.0248 H   0  0  0  0  0  0  0  0  0  0  0  0
    2.2381    6.1185    2.2382 H   0  0  0  0  0  0  0  0  0  0  0  0
   -1.5008   -2.4688    0.1858 H   0  0  0  0  0  0  0  0  0  0  0  0
   -3.0510   -3.4384   -1.4554 H   0  0  0  0  0  0  0  0  0  0  0  0
  1  2  1  0
  2  3  2  0
  3  4  1  0
  4  5  2  0
  5  6  1  0
  6  7  1  0
  7  8  1  0
  8  9  1  0
  9 10  2  0
  9 11  1  0
 11 12  2  0
 12 13  1  0
 13 14  2  0
 14 15  1  0
 15 16  2  0
  7 17  1  0
 17 18  2  0
 17 19  1  0
 19 20  1  0
 20 21  1  0
 20 22  1  0
 22 23  2  0
 22 24  1  0
  5 25  1  0
 25 26  2  0
 26  2  1  0
 16 11  1  0
  1 27  1  0
  1 28  1  0
  1 29  1  0
  3 30  1  0
  4 31  1  0
  6 32  1  0
  6 33  1  0
  7 34  1  0
  8 35  1  0
 12 36  1  0
 13 37  1  0
 14 38  1  0
 15 39  1  0
 16 40  1  0
 19 41  1  0
 20 42  1  0
 21 43  1  0
 21 44  1  0
 21 45  1  0
 24 46  1  0
 25 47  1  0
 26 48  1  0
M  END
$$$$
