
     RDKit          3D

 46 48  0  0  0  0  0  0  0  0999 V2000
    6.0117    1.0431   -2.1058 C   0  0  0  0  0  0  0  0  0  0  0  0
    4.7830    0.4921   -2.5639 O   0  0  0  0  0  0  0  0  0  0  0  0
    3.8592    0.1618   -1.6119 C   0  0  0  0  0  0  0  0  0  0  0  0
    2.6548   -0.3301   -2.1118 C   0  0  0  0  0  0  0  0  0  0  0  0
    1.6237   -0.7091   -1.2477 C   0  0  0  0  0  0  0  0  0  0  0  0
    1.7697   -0.5990    0.1458 C   0  0  0  0  0  0  0  0  0  0  0  0
    0.6417   -1.0640    1.0635 C   0  0  0  0  0  0  0  0  0  0  0  0
    0.8413   -0.9134    2.5782 C   0  0  0  0  0  0  0  0  0  0  0  0
   -0.6866   -0.5301    0.6621 N   0  0  0  0  0  0  0  0  0  0  0  0
   -1.7810   -1.3424    0.3242 C   0  0  0  0  0  0  0  0  0  0  0  0
   -1.6687   -2.8311    0.2618 C   0  0  0  0  0  0  0  0  0  0  0  0
   -2.8514   -0.4959    0.0974 C   0  0  0  0  0  0  0  0  0  0  0  0
   -4.1819   -0.8315   -0.2352 C   0  0  0  0  0  0  0  0  0  0  0  0
   -4.8310   -2.1589   -0.4073 C   0  0  0  0  0  0  0  0  0  0  0  0
   -4.9582    0.2850   -0.4103 N   0  0  0  0  0  0  0  0  0  0  0  0
   -4.4765    1.6598   -0.2706 N   0  0  0  0  0  0  0  0  0  0  0  0
   -3.1902    1.9964    0.0560 C   0  0  0  0  0  0  0  0  0  0  0  0
   -2.8481    3.4400    0.1667 C   0  0  0  0  0  0  0  0  0  0  0  0
   -2.3841    0.8542    0.2455 C   0  0  0  0  0  0  0  0  0  0  0  0
   -1.0478    0.8183    0.6026 C   0  0  0  0  0  0  0  0  0  0  0  0
   -0.1110    1.9500    0.8714 C   0  0  0  0  0  0  0  0  0  0  0  0
    2.9944   -0.1182    0.6360 C   0  0  0  0  0  0  0  0  0  0  0  0
    4.0251    0.2657   -0.2336 C   0  0  0  0  0  0  0  0  0  0  0  0
    5.8456    1.9874   -1.5765 H   0  0  0  0  0  0  0  0  0  0  0  0
    6.6294    1.2573   -2.9834 H   0  0  0  0  0  0  0  0  0  0  0  0
    6.5596    0.3308   -1.4808 H   0  0  0  0  0  0  0  0  0  0  0  0
    2.5122   -0.4132   -3.1870 H   0  0  0  0  0  0  0  0  0  0  0  0
    0.6919   -1.0740   -1.6811 H   0  0  0  0  0  0  0  0  0  0  0  0
    0.6069   -2.1466    0.9006 H   0  0  0  0  0  0  0  0  0  0  0  0
    1.7168   -1.4795    2.9127 H   0  0  0  0  0  0  0  0  0  0  0  0
   -0.0276   -1.3003    3.1247 H   0  0  0  0  0  0  0  0  0  0  0  0
    0.9814    0.1256    2.8862 H   0  0  0  0  0  0  0  0  0  0  0  0
   -0.8241   -3.1306   -0.3698 H   0  0  0  0  0  0  0  0  0  0  0  0
   -2.5457   -3.3103   -0.1727 H   0  0  0  0  0  0  0  0  0  0  0  0
   -1.5275   -3.2442    1.2672 H   0  0  0  0  0  0  0  0  0  0  0  0
   -5.9088   -2.0459   -0.5580 H   0  0  0  0  0  0  0  0  0  0  0  0
   -4.4247   -2.6719   -1.2840 H   0  0  0  0  0  0  0  0  0  0  0  0
   -4.6850   -2.7754    0.4852 H   0  0  0  0  0  0  0  0  0  0  0  0
   -2.6099    3.6960    1.2026 H   0  0  0  0  0  0  0  0  0  0  0  0
   -1.9986    3.6850   -0.4769 H   0  0  0  0  0  0  0  0  0  0  0  0
   -3.6916    4.0640   -0.1462 H   0  0  0  0  0  0  0  0  0  0  0  0
    0.8433    1.6476    1.3046 H   0  0  0  0  0  0  0  0  0  0  0  0
   -0.5555    2.6513    1.5868 H   0  0  0  0  0  0  0  0  0  0  0  0
    0.1042    2.4883   -0.0602 H   0  0  0  0  0  0  0  0  0  0  0  0
    3.1735   -0.0216    1.7046 H   0  0  0  0  0  0  0  0  0  0  0  0
    4.9462    0.6372    0.2028 H   0  0  0  0  0  0  0  0  0  0  0  0
  1  2  1  0
  2  3  1  0
  3  4  2  0
  4  5  1  0
  5  6  2  0
  6  7  1  0
  7  8  1  0
  7  9  1  0
  9 10  1  0
 10 11  1  0
 10 12  2  0
 12 13  1  0
 13 14  1  0
 13 15  2  0
 15 16  1  0
 16 17  2  0
 17 18  1  0
 17 19  1  0
 19 20  2  0
 20 21  1  0
  6 22  1  0
 22 23  2  0
 23  3  1  0
 20  9  1  0
 19 12  1  0
  1 24  1  0
  1 25  1  0
  1 26  1  0
  4 27  1  0
  5 28  1  0
  7 29  1  0
  8 30  1  0
  8 31  1  0
  8 32  1  0
 11 33  1  0
 11 34  1  0
 11 35  1  0
 14 36  1  0
 14 37  1  0
 14 38  1  0
 18 39  1  0
 18 40  1  0
 18 41  1  0
 21 42  1  0
 21 43  1  0
 21 44  1  0
 22 45  1  0
 23 46  1  0
M  END
$$$$
