
     RDKit          3D

 53 55  0  0  0  0  0  0  0  0999 V2000
    5.9810   -2.9574    3.2850 C   0  0  0  0  0  0  0  0  0  0  0  0
    5.2373   -3.6745    2.3082 O   0  0  0  0  0  0  0  0  0  0  0  0
    4.5380   -2.9355    1.3941 C   0  0  0  0  0  0  0  0  0  0  0  0
    3.8061   -3.6884    0.4765 C   0  0  0  0  0  0  0  0  0  0  0  0
    3.0458   -3.0622   -0.5131 C   0  0  0  0  0  0  0  0  0  0  0  0
    3.0049   -1.6642   -0.6019 C   0  0  0  0  0  0  0  0  0  0  0  0
    2.2445   -1.0169   -1.5901 C   0  0  0  0  0  0  0  0  0  0  0  0
    2.1984    0.3844   -1.6726 C   0  0  0  0  0  0  0  0  0  0  0  0
    1.3635    1.0827   -2.7362 C   0  0  0  0  0  0  0  0  0  0  0  0
    2.0202    0.9362   -4.1107 C   0  0  0  0  0  0  0  0  0  0  0  0
   -0.1010    0.6054   -2.7535 C   0  0  0  0  0  0  0  0  0  0  0  0
   -0.6345    0.1965   -3.7807 O   0  0  0  0  0  0  0  0  0  0  0  0
   -0.7215    0.7414   -1.5181 N   0  0  0  0  0  0  0  0  0  0  0  0
   -2.0486    0.4109   -1.1765 C   0  0  0  0  0  0  0  0  0  0  0  0
   -2.9857   -0.1022   -2.0773 C   0  0  0  0  0  0  0  0  0  0  0  0
   -4.2806   -0.4283   -1.6564 C   0  0  0  0  0  0  0  0  0  0  0  0
   -4.6581   -0.2308   -0.3314 C   0  0  0  0  0  0  0  0  0  0  0  0
   -3.7358    0.3122    0.5638 C   0  0  0  0  0  0  0  0  0  0  0  0
   -4.1984    0.5561    2.2656 S   0  0  0  0  0  6  0  0  0  0  0  0
   -2.9764    0.6016    3.0415 O   0  0  0  0  0  0  0  0  0  0  0  0
   -5.2427   -0.3982    2.5719 O   0  0  0  0  0  0  0  0  0  0  0  0
   -4.8796    2.1156    2.2608 N   0  0  0  0  0  0  0  0  0  0  0  0
   -6.1810    2.2761    1.5903 C   0  0  0  0  0  0  0  0  0  0  0  0
   -3.9632    3.2441    2.0280 C   0  0  0  0  0  0  0  0  0  0  0  0
   -2.4307    0.6127    0.1542 C   0  0  0  0  0  0  0  0  0  0  0  0
    2.9420    1.1382   -0.7571 C   0  0  0  0  0  0  0  0  0  0  0  0
    3.7031    0.5057    0.2290 C   0  0  0  0  0  0  0  0  0  0  0  0
    3.7438   -0.8941    0.3225 C   0  0  0  0  0  0  0  0  0  0  0  0
    4.5054   -1.5419    1.3139 C   0  0  0  0  0  0  0  0  0  0  0  0
    5.3247   -2.3388    3.9059 H   0  0  0  0  0  0  0  0  0  0  0  0
    6.4658   -3.6885    3.9392 H   0  0  0  0  0  0  0  0  0  0  0  0
    6.7677   -2.3556    2.8181 H   0  0  0  0  0  0  0  0  0  0  0  0
    3.8265   -4.7742    0.5324 H   0  0  0  0  0  0  0  0  0  0  0  0
    2.4853   -3.6784   -1.2125 H   0  0  0  0  0  0  0  0  0  0  0  0
    1.6785   -1.6161   -2.3034 H   0  0  0  0  0  0  0  0  0  0  0  0
    1.3190    2.1570   -2.5084 H   0  0  0  0  0  0  0  0  0  0  0  0
    1.4626    1.4970   -4.8689 H   0  0  0  0  0  0  0  0  0  0  0  0
    3.0476    1.3168   -4.0995 H   0  0  0  0  0  0  0  0  0  0  0  0
    2.0537   -0.1100   -4.4357 H   0  0  0  0  0  0  0  0  0  0  0  0
   -0.1302    1.0490   -0.7537 H   0  0  0  0  0  0  0  0  0  0  0  0
   -2.7378   -0.2785   -3.1198 H   0  0  0  0  0  0  0  0  0  0  0  0
   -4.9876   -0.8471   -2.3693 H   0  0  0  0  0  0  0  0  0  0  0  0
   -5.6595   -0.5042   -0.0067 H   0  0  0  0  0  0  0  0  0  0  0  0
   -6.6542    3.2045    1.9269 H   0  0  0  0  0  0  0  0  0  0  0  0
   -6.0617    2.3236    0.5044 H   0  0  0  0  0  0  0  0  0  0  0  0
   -6.8643    1.4624    1.8476 H   0  0  0  0  0  0  0  0  0  0  0  0
   -4.4436    4.1780    2.3382 H   0  0  0  0  0  0  0  0  0  0  0  0
   -3.7003    3.3257    0.9696 H   0  0  0  0  0  0  0  0  0  0  0  0
   -3.0520    3.1444    2.6239 H   0  0  0  0  0  0  0  0  0  0  0  0
   -1.7183    0.9981    0.8802 H   0  0  0  0  0  0  0  0  0  0  0  0
    2.9435    2.2253   -0.8033 H   0  0  0  0  0  0  0  0  0  0  0  0
    4.2712    1.1181    0.9265 H   0  0  0  0  0  0  0  0  0  0  0  0
    5.0675   -0.9332    2.0146 H   0  0  0  0  0  0  0  0  0  0  0  0
  1  2  1  0
  2  3  1  0
  3  4  2  0
  4  5  1  0
  5  6  2  0
  6  7  1  0
  7  8  2  0
  8  9  1  0
  9 10  1  0
  9 11  1  0
 11 12  2  0
 11 13  1  0
 13 14  1  0
 14 15  2  0
 15 16  1  0
 16 17  2  0
 17 18  1  0
 18 19  1  0
 19 20  2  0
 19 21  2  0
 19 22  1  0
 22 23  1  0
 22 24  1  0
 18 25  2  0
  8 26  1  0
 26 27  2  0
 27 28  1  0
 28 29  2  0
 29  3  1  0
 28  6  1  0
 25 14  1  0
  1 30  1  0
  1 31  1  0
  1 32  1  0
  4 33  1  0
  5 34  1  0
  7 35  1  0
  9 36  1  0
 10 37  1  0
 10 38  1  0
 10 39  1  0
 13 40  1  0
 15 41  1  0
 16 42  1  0
 17 43  1  0
 23 44  1  0
 23 45  1  0
 23 46  1  0
 24 47  1  0
 24 48  1  0
 24 49  1  0
 25 50  1  0
 26 51  1  0
 27 52  1  0
 29 53  1  0
M  END
$$$$
