
     RDKit          3D

 54 57  0  0  0  0  0  0  0  0999 V2000
   -5.3791   -4.8881   -1.0482 C   0  0  0  0  0  0  0  0  0  0  0  0
   -4.4251   -4.0896   -1.7366 O   0  0  0  0  0  0  0  0  0  0  0  0
   -4.1541   -2.8577   -1.2085 C   0  0  0  0  0  0  0  0  0  0  0  0
   -4.7317   -2.3097   -0.0636 C   0  0  0  0  0  0  0  0  0  0  0  0
   -4.3605   -1.0302    0.3685 C   0  0  0  0  0  0  0  0  0  0  0  0
   -3.4098   -0.2821   -0.3387 C   0  0  0  0  0  0  0  0  0  0  0  0
   -3.0093    1.0536    0.1214 C   0  0  0  0  0  0  0  0  0  0  0  0
   -4.1881    2.2945    0.1364 S   0  0  0  0  0  0  0  0  0  0  0  0
   -3.0782    3.4705    0.7133 C   0  0  0  0  0  0  0  0  0  0  0  0
   -3.3521    4.8255    0.9883 C   0  0  0  0  0  0  0  0  0  0  0  0
   -2.3247    5.6436    1.4616 C   0  0  0  0  0  0  0  0  0  0  0  0
   -1.0523    5.1298    1.6606 C   0  0  0  0  0  0  0  0  0  0  0  0
   -0.7856    3.7855    1.3850 C   0  0  0  0  0  0  0  0  0  0  0  0
   -1.8057    2.9265    0.8966 C   0  0  0  0  0  0  0  0  0  0  0  0
   -1.7741    1.5229    0.5433 C   0  0  0  0  0  0  0  0  0  0  0  0
   -0.6016    0.6559    0.6107 C   0  0  0  0  0  0  0  0  0  0  0  0
   -0.5322   -0.3763    1.5492 C   0  0  0  0  0  0  0  0  0  0  0  0
    0.5986   -1.1948    1.6030 C   0  0  0  0  0  0  0  0  0  0  0  0
    1.6700   -0.9954    0.7277 C   0  0  0  0  0  0  0  0  0  0  0  0
    2.7077   -1.8678    0.8994 O   0  0  0  0  0  0  0  0  0  0  0  0
    3.8199   -1.8019    0.0005 C   0  0  0  0  0  0  0  0  0  0  0  0
    4.8630   -0.7866    0.4990 C   0  0  0  0  0  0  0  0  0  0  0  0
    6.0958   -0.7462   -0.3114 N   0  0  0  0  0  0  0  0  0  0  0  0
    5.8613   -0.1528   -1.6294 C   0  0  0  0  0  0  0  0  0  0  0  0
    7.1312    0.0149    0.3941 C   0  0  0  0  0  0  0  0  0  0  0  0
    1.6028    0.0401   -0.2044 C   0  0  0  0  0  0  0  0  0  0  0  0
    0.4719    0.8632   -0.2622 C   0  0  0  0  0  0  0  0  0  0  0  0
   -2.8338   -0.8384   -1.4859 C   0  0  0  0  0  0  0  0  0  0  0  0
   -3.2051   -2.1157   -1.9148 C   0  0  0  0  0  0  0  0  0  0  0  0
   -5.0404   -5.1211   -0.0333 H   0  0  0  0  0  0  0  0  0  0  0  0
   -6.3624   -4.4065   -1.0369 H   0  0  0  0  0  0  0  0  0  0  0  0
   -5.4779   -5.8331   -1.5910 H   0  0  0  0  0  0  0  0  0  0  0  0
   -5.4719   -2.8480    0.5184 H   0  0  0  0  0  0  0  0  0  0  0  0
   -4.8176   -0.6241    1.2684 H   0  0  0  0  0  0  0  0  0  0  0  0
   -4.3494    5.2290    0.8366 H   0  0  0  0  0  0  0  0  0  0  0  0
   -2.5274    6.6899    1.6779 H   0  0  0  0  0  0  0  0  0  0  0  0
   -0.2581    5.7713    2.0344 H   0  0  0  0  0  0  0  0  0  0  0  0
    0.2158    3.3958    1.5529 H   0  0  0  0  0  0  0  0  0  0  0  0
   -1.3521   -0.5530    2.2409 H   0  0  0  0  0  0  0  0  0  0  0  0
    0.6433   -1.9991    2.3336 H   0  0  0  0  0  0  0  0  0  0  0  0
    4.2743   -2.8003    0.0056 H   0  0  0  0  0  0  0  0  0  0  0  0
    3.4924   -1.6299   -1.0299 H   0  0  0  0  0  0  0  0  0  0  0  0
    4.4183    0.2131    0.5821 H   0  0  0  0  0  0  0  0  0  0  0  0
    5.1146   -1.0771    1.5284 H   0  0  0  0  0  0  0  0  0  0  0  0
    5.1681   -0.7594   -2.2200 H   0  0  0  0  0  0  0  0  0  0  0  0
    6.7938   -0.1136   -2.2042 H   0  0  0  0  0  0  0  0  0  0  0  0
    5.4596    0.8645   -1.5592 H   0  0  0  0  0  0  0  0  0  0  0  0
    7.3619   -0.4505    1.3590 H   0  0  0  0  0  0  0  0  0  0  0  0
    8.0648    0.0191   -0.1796 H   0  0  0  0  0  0  0  0  0  0  0  0
    6.8307    1.0536    0.5736 H   0  0  0  0  0  0  0  0  0  0  0  0
    2.4090    0.2418   -0.9007 H   0  0  0  0  0  0  0  0  0  0  0  0
    0.4331    1.6642   -0.9975 H   0  0  0  0  0  0  0  0  0  0  0  0
   -2.0927   -0.2833   -2.0558 H   0  0  0  0  0  0  0  0  0  0  0  0
   -2.7485   -2.5362   -2.8075 H   0  0  0  0  0  0  0  0  0  0  0  0
  1  2  1  0
  2  3  1  0
  3  4  2  0
  4  5  1  0
  5  6  2  0
  6  7  1  0
  7  8  1  0
  8  9  1  0
  9 10  2  0
 10 11  1  0
 11 12  2  0
 12 13  1  0
 13 14  2  0
 14 15  1  0
 15 16  1  0
 16 17  2  0
 17 18  1  0
 18 19  2  0
 19 20  1  0
 20 21  1  0
 21 22  1  0
 22 23  1  0
 23 24  1  0
 23 25  1  0
 19 26  1  0
 26 27  2  0
  6 28  1  0
 28 29  2  0
 29  3  1  0
 15  7  2  0
 27 16  1  0
 14  9  1  0
  1 30  1  0
  1 31  1  0
  1 32  1  0
  4 33  1  0
  5 34  1  0
 10 35  1  0
 11 36  1  0
 12 37  1  0
 13 38  1  0
 17 39  1  0
 18 40  1  0
 21 41  1  0
 21 42  1  0
 22 43  1  0
 22 44  1  0
 24 45  1  0
 24 46  1  0
 24 47  1  0
 25 48  1  0
 25 49  1  0
 25 50  1  0
 26 51  1  0
 27 52  1  0
 28 53  1  0
 29 54  1  0
M  END
$$$$
