
     RDKit          3D

 44 46  0  0  0  0  0  0  0  0999 V2000
    5.9525    2.4553    0.1171 C   0  0  0  0  0  0  0  0  0  0  0  0
    6.3767    1.1072   -0.0367 O   0  0  0  0  0  0  0  0  0  0  0  0
    5.5477    0.3523   -0.9194 C   0  0  0  0  0  0  0  0  0  0  0  0
    4.2762   -0.1209   -0.2231 C   0  0  0  0  0  0  0  0  0  0  0  0
    3.4530   -1.0270   -1.1400 C   0  0  0  0  0  0  0  0  0  0  0  0
    2.1962   -1.4496   -0.5030 N   0  0  0  0  0  0  0  0  0  0  0  0
    2.1066   -2.6300    0.2340 C   0  0  0  0  0  0  0  0  0  0  0  0
    3.3265   -3.7502    0.5050 S   0  0  0  0  0  0  0  0  0  0  0  0
    0.8930   -2.9156    0.7989 N   0  0  0  0  0  0  0  0  0  0  0  0
   -0.2302   -2.1024    0.6859 C   0  0  0  0  0  0  0  0  0  0  0  0
   -1.4266   -2.4740    1.2844 C   0  0  0  0  0  0  0  0  0  0  0  0
   -2.5484   -1.6425    1.1628 C   0  0  0  0  0  0  0  0  0  0  0  0
   -2.5113   -0.4305    0.4501 C   0  0  0  0  0  0  0  0  0  0  0  0
   -3.6240    0.3823    0.3410 N   0  0  0  0  0  0  0  0  0  0  0  0
   -3.5269    1.7974   -0.0590 C   0  0  0  0  0  0  0  0  0  0  0  0
   -4.7367    2.5815    0.4777 C   0  0  0  0  0  0  0  0  0  0  0  0
   -6.0046    2.0909    0.0202 O   0  0  0  0  0  0  0  0  0  0  0  0
   -5.9919    0.6916   -0.2917 C   0  0  0  0  0  0  0  0  0  0  0  0
   -4.9915   -0.1271    0.5422 C   0  0  0  0  0  0  0  0  0  0  0  0
   -1.2827   -0.0888   -0.1369 C   0  0  0  0  0  0  0  0  0  0  0  0
   -0.1558   -0.9169   -0.0206 C   0  0  0  0  0  0  0  0  0  0  0  0
    1.1285   -0.5463   -0.6414 C   0  0  0  0  0  0  0  0  0  0  0  0
    1.2128    0.5274   -1.2361 O   0  0  0  0  0  0  0  0  0  0  0  0
    4.9750    2.5065    0.6034 H   0  0  0  0  0  0  0  0  0  0  0  0
    5.9205    2.9625   -0.8520 H   0  0  0  0  0  0  0  0  0  0  0  0
    6.6781    2.9701    0.7529 H   0  0  0  0  0  0  0  0  0  0  0  0
    6.1351   -0.5182   -1.2316 H   0  0  0  0  0  0  0  0  0  0  0  0
    5.3229    0.9325   -1.8222 H   0  0  0  0  0  0  0  0  0  0  0  0
    4.5388   -0.6429    0.7049 H   0  0  0  0  0  0  0  0  0  0  0  0
    3.6756    0.7411    0.0887 H   0  0  0  0  0  0  0  0  0  0  0  0
    4.0414   -1.8995   -1.4399 H   0  0  0  0  0  0  0  0  0  0  0  0
    3.2178   -0.4916   -2.0684 H   0  0  0  0  0  0  0  0  0  0  0  0
    0.8351   -3.7793    1.3274 H   0  0  0  0  0  0  0  0  0  0  0  0
   -1.5094   -3.3965    1.8518 H   0  0  0  0  0  0  0  0  0  0  0  0
   -3.4596   -1.9558    1.6665 H   0  0  0  0  0  0  0  0  0  0  0  0
   -3.4980    1.8576   -1.1532 H   0  0  0  0  0  0  0  0  0  0  0  0
   -2.6206    2.2617    0.3462 H   0  0  0  0  0  0  0  0  0  0  0  0
   -4.7493    2.5523    1.5737 H   0  0  0  0  0  0  0  0  0  0  0  0
   -4.6651    3.6328    0.1811 H   0  0  0  0  0  0  0  0  0  0  0  0
   -5.7651    0.5927   -1.3599 H   0  0  0  0  0  0  0  0  0  0  0  0
   -7.0073    0.3121   -0.1387 H   0  0  0  0  0  0  0  0  0  0  0  0
   -5.2432   -0.0524    1.6064 H   0  0  0  0  0  0  0  0  0  0  0  0
   -5.0764   -1.1746    0.2313 H   0  0  0  0  0  0  0  0  0  0  0  0
   -1.1854    0.8246   -0.7183 H   0  0  0  0  0  0  0  0  0  0  0  0
  1  2  1  0
  2  3  1  0
  3  4  1  0
  4  5  1  0
  5  6  1  0
  6  7  1  0
  7  8  2  0
  7  9  1  0
  9 10  1  0
 10 11  2  0
 11 12  1  0
 12 13  2  0
 13 14  1  0
 14 15  1  0
 15 16  1  0
 16 17  1  0
 17 18  1  0
 18 19  1  0
 13 20  1  0
 20 21  2  0
 21 22  1  0
 22 23  2  0
 22  6  1  0
 21 10  1  0
 19 14  1  0
  1 24  1  0
  1 25  1  0
  1 26  1  0
  3 27  1  0
  3 28  1  0
  4 29  1  0
  4 30  1  0
  5 31  1  0
  5 32  1  0
  9 33  1  0
 11 34  1  0
 12 35  1  0
 15 36  1  0
 15 37  1  0
 16 38  1  0
 16 39  1  0
 18 40  1  0
 18 41  1  0
 19 42  1  0
 19 43  1  0
 20 44  1  0
M  END
$$$$
