
     RDKit          3D

 36 38  0  0  0  0  0  0  0  0999 V2000
    2.2902   -1.9329   -2.1324 C   0  0  0  0  0  0  0  0  0  0  0  0
    2.6028   -1.8991   -0.6378 C   0  0  0  0  0  0  0  0  0  0  0  0
    3.6672   -0.9898   -0.3962 O   0  0  0  0  0  0  0  0  0  0  0  0
    3.2554    0.2999   -0.1949 C   0  0  0  0  0  0  0  0  0  0  0  0
    4.2316    1.2775   -0.4036 C   0  0  0  0  0  0  0  0  0  0  0  0
    3.9216    2.6228   -0.2281 C   0  0  0  0  0  0  0  0  0  0  0  0
    2.6361    2.9874    0.1600 C   0  0  0  0  0  0  0  0  0  0  0  0
    1.6640    2.0070    0.3886 C   0  0  0  0  0  0  0  0  0  0  0  0
    1.9637    0.6472    0.2266 C   0  0  0  0  0  0  0  0  0  0  0  0
    1.0222   -0.3825    0.5001 N   0  0  0  0  0  0  0  0  0  0  0  0
   -0.2699   -0.1105    1.1198 C   0  0  0  0  0  0  0  0  0  0  0  0
   -1.3460    0.1688    0.0712 C   0  0  0  0  0  0  0  0  0  0  0  0
   -1.0872    0.5942   -1.0548 O   0  0  0  0  0  0  0  0  0  0  0  0
   -2.7782   -0.0387    0.4447 C   0  0  0  0  0  0  0  0  0  0  0  0
   -3.7347   -0.0641   -0.5839 C   0  0  0  0  0  0  0  0  0  0  0  0
   -5.0870   -0.2479   -0.2880 C   0  0  0  0  0  0  0  0  0  0  0  0
   -5.4822   -0.4015    1.0344 C   0  0  0  0  0  0  0  0  0  0  0  0
   -6.7783   -0.5761    1.3212 F   0  0  0  0  0  0  0  0  0  0  0  0
   -4.5508   -0.3722    2.0664 C   0  0  0  0  0  0  0  0  0  0  0  0
   -3.1953   -0.1883    1.7753 C   0  0  0  0  0  0  0  0  0  0  0  0
    1.3102   -1.6958    0.1559 C   0  0  0  0  0  0  0  0  0  0  0  0
    0.5522   -2.6369    0.4014 O   0  0  0  0  0  0  0  0  0  0  0  0
    1.5422   -2.6980   -2.3641 H   0  0  0  0  0  0  0  0  0  0  0  0
    1.9024   -0.9693   -2.4813 H   0  0  0  0  0  0  0  0  0  0  0  0
    3.1973   -2.1402   -2.7099 H   0  0  0  0  0  0  0  0  0  0  0  0
    2.9859   -2.8838   -0.3429 H   0  0  0  0  0  0  0  0  0  0  0  0
    5.2318    0.9861   -0.7134 H   0  0  0  0  0  0  0  0  0  0  0  0
    4.6779    3.3838   -0.4020 H   0  0  0  0  0  0  0  0  0  0  0  0
    2.3843    4.0382    0.2826 H   0  0  0  0  0  0  0  0  0  0  0  0
    0.6718    2.3450    0.6684 H   0  0  0  0  0  0  0  0  0  0  0  0
   -0.5597   -0.9929    1.7007 H   0  0  0  0  0  0  0  0  0  0  0  0
   -0.1999    0.7277    1.8193 H   0  0  0  0  0  0  0  0  0  0  0  0
   -3.4289    0.0562   -1.6223 H   0  0  0  0  0  0  0  0  0  0  0  0
   -5.8295   -0.2716   -1.0798 H   0  0  0  0  0  0  0  0  0  0  0  0
   -4.8877   -0.4912    3.0921 H   0  0  0  0  0  0  0  0  0  0  0  0
   -2.4955   -0.1583    2.6051 H   0  0  0  0  0  0  0  0  0  0  0  0
  1  2  1  0
  2  3  1  0
  3  4  1  0
  4  5  2  0
  5  6  1  0
  6  7  2  0
  7  8  1  0
  8  9  2  0
  9 10  1  0
 10 11  1  0
 11 12  1  0
 12 13  2  0
 12 14  1  0
 14 15  2  0
 15 16  1  0
 16 17  2  0
 17 18  1  0
 17 19  1  0
 19 20  2  0
 10 21  1  0
 21 22  2  0
 21  2  1  0
  9  4  1  0
 20 14  1  0
  1 23  1  0
  1 24  1  0
  1 25  1  0
  2 26  1  0
  5 27  1  0
  6 28  1  0
  7 29  1  0
  8 30  1  0
 11 31  1  0
 11 32  1  0
 15 33  1  0
 16 34  1  0
 19 35  1  0
 20 36  1  0
M  END
$$$$
