
     RDKit          3D

 46 48  0  0  0  0  0  0  0  0999 V2000
   -0.7430   -2.3403   -0.0431 O   0  0  0  0  0  0  0  0  0  0  0  0
   -0.4590   -1.1490   -0.0640 C   0  0  0  0  0  0  0  0  0  0  0  0
    0.9614   -0.6473    0.1413 C   0  0  0  0  0  0  0  0  0  0  0  0
    1.9415   -1.8016    0.3689 C   0  0  0  0  0  0  0  0  0  0  0  0
    3.3435   -1.4074    0.5891 N   0  0  0  0  0  0  0  0  0  0  0  0
    3.5816   -0.8480    1.9151 C   0  0  0  0  0  0  0  0  0  0  0  0
    5.0302   -0.4501    2.2096 C   0  0  0  0  0  0  0  0  0  0  0  0
    5.3670    0.9665    1.7534 C   0  0  0  0  0  0  0  0  0  0  0  0
    5.4387    1.1534    0.2448 C   0  0  0  0  0  0  0  0  0  0  0  0
    4.1794    0.7408   -0.5122 C   0  0  0  0  0  0  0  0  0  0  0  0
    3.9772   -0.7755   -0.5631 C   0  0  0  0  0  0  0  0  0  0  0  0
   -1.3388   -0.0961   -0.2688 N   0  0  0  0  0  0  0  0  0  0  0  0
   -2.7296   -0.1665   -0.4942 C   0  0  0  0  0  0  0  0  0  0  0  0
   -3.4552   -1.3597   -0.5424 C   0  0  0  0  0  0  0  0  0  0  0  0
   -4.8351   -1.3447   -0.7785 C   0  0  0  0  0  0  0  0  0  0  0  0
   -5.4969   -0.1368   -0.9706 C   0  0  0  0  0  0  0  0  0  0  0  0
   -4.7855    1.0619   -0.8969 C   0  0  0  0  0  0  0  0  0  0  0  0
   -3.4077    1.0467   -0.6750 C   0  0  0  0  0  0  0  0  0  0  0  0
   -5.3717    2.2943   -1.0412 O   0  0  0  0  0  0  0  0  0  0  0  0
   -6.7971    2.2097   -0.9210 C   0  0  0  0  0  0  0  0  0  0  0  0
   -7.3369    1.0430   -1.7317 C   0  0  0  0  0  0  0  0  0  0  0  0
   -6.8433   -0.1995   -1.2189 O   0  0  0  0  0  0  0  0  0  0  0  0
    0.9560    0.0294    1.0028 H   0  0  0  0  0  0  0  0  0  0  0  0
    1.2446   -0.0743   -0.7488 H   0  0  0  0  0  0  0  0  0  0  0  0
    1.9036   -2.4851   -0.4901 H   0  0  0  0  0  0  0  0  0  0  0  0
    1.6037   -2.4089    1.2193 H   0  0  0  0  0  0  0  0  0  0  0  0
    2.9276    0.0104    2.1087 H   0  0  0  0  0  0  0  0  0  0  0  0
    3.3067   -1.6151    2.6507 H   0  0  0  0  0  0  0  0  0  0  0  0
    5.1727   -0.4875    3.2975 H   0  0  0  0  0  0  0  0  0  0  0  0
    5.7348   -1.1759    1.7859 H   0  0  0  0  0  0  0  0  0  0  0  0
    4.6372    1.6702    2.1729 H   0  0  0  0  0  0  0  0  0  0  0  0
    6.3389    1.2465    2.1785 H   0  0  0  0  0  0  0  0  0  0  0  0
    6.3030    0.6050   -0.1503 H   0  0  0  0  0  0  0  0  0  0  0  0
    5.6331    2.2141    0.0425 H   0  0  0  0  0  0  0  0  0  0  0  0
    4.2868    1.0960   -1.5454 H   0  0  0  0  0  0  0  0  0  0  0  0
    3.2972    1.2495   -0.1073 H   0  0  0  0  0  0  0  0  0  0  0  0
    3.4167   -1.0160   -1.4763 H   0  0  0  0  0  0  0  0  0  0  0  0
    4.9516   -1.2582   -0.7130 H   0  0  0  0  0  0  0  0  0  0  0  0
   -0.9414    0.8352   -0.2578 H   0  0  0  0  0  0  0  0  0  0  0  0
   -2.9788   -2.3254   -0.4045 H   0  0  0  0  0  0  0  0  0  0  0  0
   -5.3856   -2.2807   -0.8220 H   0  0  0  0  0  0  0  0  0  0  0  0
   -2.8791    1.9948   -0.6359 H   0  0  0  0  0  0  0  0  0  0  0  0
   -7.2168    3.1517   -1.2875 H   0  0  0  0  0  0  0  0  0  0  0  0
   -7.0517    2.1123    0.1417 H   0  0  0  0  0  0  0  0  0  0  0  0
   -7.0521    1.1222   -2.7883 H   0  0  0  0  0  0  0  0  0  0  0  0
   -8.4295    1.0152   -1.6740 H   0  0  0  0  0  0  0  0  0  0  0  0
  1  2  2  0
  2  3  1  0
  3  4  1  0
  4  5  1  0
  5  6  1  0
  6  7  1  0
  7  8  1  0
  8  9  1  0
  9 10  1  0
 10 11  1  0
  2 12  1  0
 12 13  1  0
 13 14  2  0
 14 15  1  0
 15 16  2  0
 16 17  1  0
 17 18  2  0
 17 19  1  0
 19 20  1  0
 20 21  1  0
 21 22  1  0
 11  5  1  0
 18 13  1  0
 22 16  1  0
  3 23  1  0
  3 24  1  0
  4 25  1  0
  4 26  1  0
  6 27  1  0
  6 28  1  0
  7 29  1  0
  7 30  1  0
  8 31  1  0
  8 32  1  0
  9 33  1  0
  9 34  1  0
 10 35  1  0
 10 36  1  0
 11 37  1  0
 11 38  1  0
 12 39  1  0
 14 40  1  0
 15 41  1  0
 18 42  1  0
 20 43  1  0
 20 44  1  0
 21 45  1  0
 21 46  1  0
M  END
$$$$
