
     RDKit          3D

 43 45  0  0  0  0  0  0  0  0999 V2000
    4.0807   -0.6788   -0.8423 C   0  0  0  0  0  0  0  0  0  0  0  0
    4.1874   -0.6809    0.6799 C   0  0  0  0  0  0  0  0  0  0  0  0
    4.2808    0.7295    1.2523 C   0  0  0  0  0  0  0  0  0  0  0  0
    2.8739   -1.6823    1.4908 S   0  0  0  0  0  0  0  0  0  0  0  0
    1.3879   -1.0686    0.7211 C   0  0  0  0  0  0  0  0  0  0  0  0
    0.5246   -1.9648    0.1312 C   0  0  0  0  0  0  0  0  0  0  0  0
   -0.6291   -1.4583   -0.4322 C   0  0  0  0  0  0  0  0  0  0  0  0
   -1.5358   -2.3226   -1.0670 N   0  0  0  0  0  0  0  0  0  0  0  0
   -2.0785   -3.4040   -0.2118 C   0  0  0  0  0  0  0  0  0  0  0  0
   -3.2422   -2.8893    0.6533 C   0  0  0  0  0  0  0  0  0  0  0  0
   -4.2843   -2.3257   -0.1598 O   0  0  0  0  0  0  0  0  0  0  0  0
   -3.7753   -1.2190   -0.9260 C   0  0  0  0  0  0  0  0  0  0  0  0
   -2.6121   -1.6534   -1.8351 C   0  0  0  0  0  0  0  0  0  0  0  0
   -0.8702   -0.1381   -0.4153 N   0  0  0  0  0  0  0  0  0  0  0  0
    0.0143    0.6685    0.2023 C   0  0  0  0  0  0  0  0  0  0  0  0
   -0.2847    2.1150    0.2396 C   0  0  0  0  0  0  0  0  0  0  0  0
   -1.3621    2.6628   -0.4845 C   0  0  0  0  0  0  0  0  0  0  0  0
   -1.6474    4.0318   -0.4507 C   0  0  0  0  0  0  0  0  0  0  0  0
   -0.8597    4.8887    0.3114 C   0  0  0  0  0  0  0  0  0  0  0  0
    0.2108    4.3782    1.0388 C   0  0  0  0  0  0  0  0  0  0  0  0
    0.4927    3.0086    1.0021 C   0  0  0  0  0  0  0  0  0  0  0  0
    1.1442    0.2453    0.7875 N   0  0  0  0  0  0  0  0  0  0  0  0
    4.9664   -0.2049   -1.2806 H   0  0  0  0  0  0  0  0  0  0  0  0
    4.0264   -1.6978   -1.2404 H   0  0  0  0  0  0  0  0  0  0  0  0
    3.2096   -0.1195   -1.1980 H   0  0  0  0  0  0  0  0  0  0  0  0
    5.1212   -1.1940    0.9396 H   0  0  0  0  0  0  0  0  0  0  0  0
    3.4368    1.3578    0.9577 H   0  0  0  0  0  0  0  0  0  0  0  0
    5.1871    1.2236    0.8836 H   0  0  0  0  0  0  0  0  0  0  0  0
    4.3407    0.7162    2.3459 H   0  0  0  0  0  0  0  0  0  0  0  0
    0.7594   -3.0197    0.0847 H   0  0  0  0  0  0  0  0  0  0  0  0
   -1.3147   -3.8717    0.4181 H   0  0  0  0  0  0  0  0  0  0  0  0
   -2.4566   -4.1886   -0.8793 H   0  0  0  0  0  0  0  0  0  0  0  0
   -2.9051   -2.1376    1.3767 H   0  0  0  0  0  0  0  0  0  0  0  0
   -3.6787   -3.7208    1.2157 H   0  0  0  0  0  0  0  0  0  0  0  0
   -3.4861   -0.4181   -0.2371 H   0  0  0  0  0  0  0  0  0  0  0  0
   -4.5986   -0.8408   -1.5404 H   0  0  0  0  0  0  0  0  0  0  0  0
   -2.2331   -0.8110   -2.4263 H   0  0  0  0  0  0  0  0  0  0  0  0
   -2.9939   -2.3869   -2.5569 H   0  0  0  0  0  0  0  0  0  0  0  0
   -1.9937    2.0159   -1.0910 H   0  0  0  0  0  0  0  0  0  0  0  0
   -2.4852    4.4247   -1.0208 H   0  0  0  0  0  0  0  0  0  0  0  0
   -1.0801    5.9525    0.3394 H   0  0  0  0  0  0  0  0  0  0  0  0
    0.8289    5.0418    1.6380 H   0  0  0  0  0  0  0  0  0  0  0  0
    1.3333    2.6363    1.5859 H   0  0  0  0  0  0  0  0  0  0  0  0
  1  2  1  0
  2  3  1  0
  2  4  1  0
  4  5  1  0
  5  6  2  0
  6  7  1  0
  7  8  1  0
  8  9  1  0
  9 10  1  0
 10 11  1  0
 11 12  1  0
 12 13  1  0
  7 14  2  0
 14 15  1  0
 15 16  1  0
 16 17  2  0
 17 18  1  0
 18 19  2  0
 19 20  1  0
 20 21  2  0
 15 22  2  0
 22  5  1  0
 13  8  1  0
 21 16  1  0
  1 23  1  0
  1 24  1  0
  1 25  1  0
  2 26  1  0
  3 27  1  0
  3 28  1  0
  3 29  1  0
  6 30  1  0
  9 31  1  0
  9 32  1  0
 10 33  1  0
 10 34  1  0
 12 35  1  0
 12 36  1  0
 13 37  1  0
 13 38  1  0
 17 39  1  0
 18 40  1  0
 19 41  1  0
 20 42  1  0
 21 43  1  0
M  END
$$$$
