
     RDKit          3D

 37 39  0  0  0  0  0  0  0  0999 V2000
    4.9187   -1.9730    1.5260 C   0  0  0  0  0  0  0  0  0  0  0  0
    3.5871   -1.3899    1.1615 C   0  0  0  0  0  0  0  0  0  0  0  0
    2.4500   -2.1908    1.1094 C   0  0  0  0  0  0  0  0  0  0  0  0
    1.2100   -1.6498    0.7432 C   0  0  0  0  0  0  0  0  0  0  0  0
    1.0637   -0.2992    0.3932 C   0  0  0  0  0  0  0  0  0  0  0  0
    2.2249    0.5053    0.4349 C   0  0  0  0  0  0  0  0  0  0  0  0
    3.4665   -0.0437    0.8173 C   0  0  0  0  0  0  0  0  0  0  0  0
    2.1921    1.9768    0.1210 C   0  0  0  0  0  0  0  0  0  0  0  0
    0.9856    2.3232   -0.7220 C   0  0  0  0  0  0  0  0  0  0  0  0
   -0.2567    1.7448   -0.0719 C   0  0  0  0  0  0  0  0  0  0  0  0
   -0.2160    0.2815    0.0372 N   0  0  0  0  0  0  0  0  0  0  0  0
   -1.3848   -0.4924   -0.1227 C   0  0  0  0  0  0  0  0  0  0  0  0
   -1.3924   -1.7108   -0.3240 O   0  0  0  0  0  0  0  0  0  0  0  0
   -2.7428    0.2575   -0.0793 C   0  0  0  0  0  0  0  0  0  0  0  0
   -3.2147    0.5982   -1.4935 C   0  0  0  0  0  0  0  0  0  0  0  0
   -4.6504    0.1304   -1.5251 C   0  0  0  0  0  0  0  0  0  0  0  0
   -4.6401   -1.0028   -0.5315 C   0  0  0  0  0  0  0  0  0  0  0  0
   -3.7734   -0.5575    0.5142 O   0  0  0  0  0  0  0  0  0  0  0  0
    4.8017   -2.8150    2.2164 H   0  0  0  0  0  0  0  0  0  0  0  0
    5.4332   -2.3230    0.6258 H   0  0  0  0  0  0  0  0  0  0  0  0
    5.5471   -1.2286    2.0263 H   0  0  0  0  0  0  0  0  0  0  0  0
    2.5068   -3.2475    1.3622 H   0  0  0  0  0  0  0  0  0  0  0  0
    0.3688   -2.3343    0.7668 H   0  0  0  0  0  0  0  0  0  0  0  0
    4.3487    0.5941    0.8455 H   0  0  0  0  0  0  0  0  0  0  0  0
    3.0991    2.2733   -0.4191 H   0  0  0  0  0  0  0  0  0  0  0  0
    2.1672    2.5351    1.0649 H   0  0  0  0  0  0  0  0  0  0  0  0
    1.1004    1.9131   -1.7337 H   0  0  0  0  0  0  0  0  0  0  0  0
    0.8954    3.4108   -0.8184 H   0  0  0  0  0  0  0  0  0  0  0  0
   -1.1083    2.0573   -0.6786 H   0  0  0  0  0  0  0  0  0  0  0  0
   -0.4047    2.1490    0.9372 H   0  0  0  0  0  0  0  0  0  0  0  0
   -2.6726    1.1444    0.5561 H   0  0  0  0  0  0  0  0  0  0  0  0
   -3.1337    1.6675   -1.7124 H   0  0  0  0  0  0  0  0  0  0  0  0
   -2.6247    0.0702   -2.2522 H   0  0  0  0  0  0  0  0  0  0  0  0
   -5.3028    0.9352   -1.1662 H   0  0  0  0  0  0  0  0  0  0  0  0
   -4.9900   -0.1709   -2.5193 H   0  0  0  0  0  0  0  0  0  0  0  0
   -4.2271   -1.9204   -0.9648 H   0  0  0  0  0  0  0  0  0  0  0  0
   -5.6317   -1.2179   -0.1245 H   0  0  0  0  0  0  0  0  0  0  0  0
  1  2  1  0
  2  3  2  0
  3  4  1  0
  4  5  2  0
  5  6  1  0
  6  7  2  0
  6  8  1  0
  8  9  1  0
  9 10  1  0
 10 11  1  0
 11 12  1  0
 12 13  2  0
 12 14  1  0
 14 15  1  0
 15 16  1  0
 16 17  1  0
 17 18  1  0
  7  2  1  0
 18 14  1  0
 11  5  1  0
  1 19  1  0
  1 20  1  0
  1 21  1  0
  3 22  1  0
  4 23  1  0
  7 24  1  0
  8 25  1  0
  8 26  1  0
  9 27  1  0
  9 28  1  0
 10 29  1  0
 10 30  1  0
 14 31  1  0
 15 32  1  0
 15 33  1  0
 16 34  1  0
 16 35  1  0
 17 36  1  0
 17 37  1  0
M  END
$$$$
