
     RDKit          3D

 41 42  0  0  0  0  0  0  0  0999 V2000
   -4.8084    1.0534    2.6803 C   0  0  0  0  0  0  0  0  0  0  0  0
   -4.3352    1.1927    1.3484 O   0  0  0  0  0  0  0  0  0  0  0  0
   -3.5606    0.1801    0.8389 C   0  0  0  0  0  0  0  0  0  0  0  0
   -3.1189   -0.9227    1.5766 C   0  0  0  0  0  0  0  0  0  0  0  0
   -2.3237   -1.9027    0.9780 C   0  0  0  0  0  0  0  0  0  0  0  0
   -1.9622   -1.7979   -0.3691 C   0  0  0  0  0  0  0  0  0  0  0  0
   -1.0539   -2.8337   -0.9947 C   0  0  0  0  0  0  0  0  0  0  0  0
    0.4122   -2.6431   -0.6696 C   0  0  0  0  0  0  0  0  0  0  0  0
    1.1745   -3.5809   -0.4558 O   0  0  0  0  0  0  0  0  0  0  0  0
    0.7290   -1.3082   -0.7045 O   0  0  0  0  0  0  0  0  0  0  0  0
    2.0975   -1.1139   -0.4498 N   0  0  0  0  0  0  0  0  0  0  0  0
    2.3667    0.1515   -0.3066 C   0  0  0  0  0  0  0  0  0  0  0  0
    1.4055    1.1385   -0.3696 N   0  0  0  0  0  0  0  0  0  0  0  0
    3.7889    0.5423   -0.0416 C   0  0  0  0  0  0  0  0  0  0  0  0
    4.6891   -0.4032    0.4651 C   0  0  0  0  0  0  0  0  0  0  0  0
    6.0141   -0.0440    0.7206 C   0  0  0  0  0  0  0  0  0  0  0  0
    6.4463    1.2571    0.4659 C   0  0  0  0  0  0  0  0  0  0  0  0
    5.5573    2.2003   -0.0491 C   0  0  0  0  0  0  0  0  0  0  0  0
    4.2304    1.8454   -0.3042 C   0  0  0  0  0  0  0  0  0  0  0  0
   -2.4043   -0.6916   -1.1116 C   0  0  0  0  0  0  0  0  0  0  0  0
   -3.1993    0.2975   -0.5185 C   0  0  0  0  0  0  0  0  0  0  0  0
   -3.6537    1.4184   -1.1682 O   0  0  0  0  0  0  0  0  0  0  0  0
   -3.4508    1.4941   -2.5721 C   0  0  0  0  0  0  0  0  0  0  0  0
   -3.9795    1.0643    3.3961 H   0  0  0  0  0  0  0  0  0  0  0  0
   -5.4177    0.1509    2.7922 H   0  0  0  0  0  0  0  0  0  0  0  0
   -5.4467    1.9146    2.9003 H   0  0  0  0  0  0  0  0  0  0  0  0
   -3.3692   -1.0454    2.6254 H   0  0  0  0  0  0  0  0  0  0  0  0
   -1.9831   -2.7459    1.5775 H   0  0  0  0  0  0  0  0  0  0  0  0
   -1.3598   -3.8254   -0.6402 H   0  0  0  0  0  0  0  0  0  0  0  0
   -1.1642   -2.8378   -2.0853 H   0  0  0  0  0  0  0  0  0  0  0  0
    0.4670    0.7570   -0.2952 H   0  0  0  0  0  0  0  0  0  0  0  0
    1.5394    1.9075    0.2776 H   0  0  0  0  0  0  0  0  0  0  0  0
    4.3640   -1.4221    0.6644 H   0  0  0  0  0  0  0  0  0  0  0  0
    6.7084   -0.7828    1.1131 H   0  0  0  0  0  0  0  0  0  0  0  0
    7.4797    1.5326    0.6605 H   0  0  0  0  0  0  0  0  0  0  0  0
    5.8997    3.2099   -0.2616 H   0  0  0  0  0  0  0  0  0  0  0  0
    3.5594    2.5847   -0.7314 H   0  0  0  0  0  0  0  0  0  0  0  0
   -2.1019   -0.6135   -2.1516 H   0  0  0  0  0  0  0  0  0  0  0  0
   -3.9408    2.4038   -2.9321 H   0  0  0  0  0  0  0  0  0  0  0  0
   -2.3857    1.5744   -2.8115 H   0  0  0  0  0  0  0  0  0  0  0  0
   -3.9094    0.6438   -3.0868 H   0  0  0  0  0  0  0  0  0  0  0  0
  1  2  1  0
  2  3  1  0
  3  4  2  0
  4  5  1  0
  5  6  2  0
  6  7  1  0
  7  8  1  0
  8  9  2  0
  8 10  1  0
 10 11  1  0
 11 12  2  3
 12 13  1  0
 12 14  1  0
 14 15  2  0
 15 16  1  0
 16 17  2  0
 17 18  1  0
 18 19  2  0
  6 20  1  0
 20 21  2  0
 21 22  1  0
 22 23  1  0
 21  3  1  0
 19 14  1  0
  1 24  1  0
  1 25  1  0
  1 26  1  0
  4 27  1  0
  5 28  1  0
  7 29  1  0
  7 30  1  0
 13 31  1  0
 13 32  1  0
 15 33  1  0
 16 34  1  0
 17 35  1  0
 18 36  1  0
 19 37  1  0
 20 38  1  0
 23 39  1  0
 23 40  1  0
 23 41  1  0
M  END
$$$$
