
     RDKit          3D

 39 41  0  0  0  0  0  0  0  0999 V2000
   -0.1493    4.3902   -1.3675 C   0  0  0  0  0  0  0  0  0  0  0  0
    0.7334    3.6818   -2.3810 C   0  0  0  0  0  0  0  0  0  0  0  0
   -0.1062    2.2408   -3.1214 S   0  0  0  0  0  0  0  0  0  0  0  0
   -0.0222    1.0531   -1.7867 C   0  0  0  0  0  0  0  0  0  0  0  0
   -0.8393   -0.0566   -1.8421 C   0  0  0  0  0  0  0  0  0  0  0  0
   -0.7503   -0.9681   -0.8105 C   0  0  0  0  0  0  0  0  0  0  0  0
   -1.5134   -2.1134   -0.7874 N   0  0  0  0  0  0  0  0  0  0  0  0
   -1.4298   -3.0033    0.3666 C   0  0  0  0  0  0  0  0  0  0  0  0
   -2.4762   -4.0680    0.0537 C   0  0  0  0  0  0  0  0  0  0  0  0
   -3.5677   -3.2663   -0.6371 C   0  0  0  0  0  0  0  0  0  0  0  0
   -2.7936   -2.2467   -1.4742 C   0  0  0  0  0  0  0  0  0  0  0  0
    0.1259   -0.7721    0.1887 N   0  0  0  0  0  0  0  0  0  0  0  0
    0.8744    0.3419    0.1734 C   0  0  0  0  0  0  0  0  0  0  0  0
    1.8488    0.5290    1.2524 C   0  0  0  0  0  0  0  0  0  0  0  0
    3.1911    0.8175    0.9227 C   0  0  0  0  0  0  0  0  0  0  0  0
    4.1678    0.9897    1.9070 C   0  0  0  0  0  0  0  0  0  0  0  0
    3.8239    0.8820    3.2494 C   0  0  0  0  0  0  0  0  0  0  0  0
    2.5039    0.6098    3.6043 C   0  0  0  0  0  0  0  0  0  0  0  0
    1.5221    0.4367    2.6176 C   0  0  0  0  0  0  0  0  0  0  0  0
   -0.0954    0.1645    3.1768 Cl  0  0  0  0  0  0  0  0  0  0  0  0
    0.8509    1.2686   -0.7948 N   0  0  0  0  0  0  0  0  0  0  0  0
   -1.0904    4.7212   -1.8196 H   0  0  0  0  0  0  0  0  0  0  0  0
    0.3647    5.2794   -0.9874 H   0  0  0  0  0  0  0  0  0  0  0  0
   -0.3834    3.7543   -0.5080 H   0  0  0  0  0  0  0  0  0  0  0  0
    0.9596    4.3757   -3.1978 H   0  0  0  0  0  0  0  0  0  0  0  0
    1.6918    3.3922   -1.9392 H   0  0  0  0  0  0  0  0  0  0  0  0
   -1.5117   -0.2071   -2.6751 H   0  0  0  0  0  0  0  0  0  0  0  0
   -0.4365   -3.4504    0.4772 H   0  0  0  0  0  0  0  0  0  0  0  0
   -1.6969   -2.4740    1.2897 H   0  0  0  0  0  0  0  0  0  0  0  0
   -2.0647   -4.8132   -0.6372 H   0  0  0  0  0  0  0  0  0  0  0  0
   -2.8302   -4.5854    0.9498 H   0  0  0  0  0  0  0  0  0  0  0  0
   -4.2325   -3.8869   -1.2448 H   0  0  0  0  0  0  0  0  0  0  0  0
   -4.1779   -2.7468    0.1121 H   0  0  0  0  0  0  0  0  0  0  0  0
   -3.3549   -1.3072   -1.5283 H   0  0  0  0  0  0  0  0  0  0  0  0
   -2.6294   -2.6244   -2.4898 H   0  0  0  0  0  0  0  0  0  0  0  0
    3.4802    0.9012   -0.1246 H   0  0  0  0  0  0  0  0  0  0  0  0
    5.1944    1.2048    1.6210 H   0  0  0  0  0  0  0  0  0  0  0  0
    4.5792    1.0153    4.0199 H   0  0  0  0  0  0  0  0  0  0  0  0
    2.2396    0.5401    4.6568 H   0  0  0  0  0  0  0  0  0  0  0  0
  1  2  1  0
  2  3  1  0
  3  4  1  0
  4  5  2  0
  5  6  1  0
  6  7  1  0
  7  8  1  0
  8  9  1  0
  9 10  1  0
 10 11  1  0
  6 12  2  0
 12 13  1  0
 13 14  1  0
 14 15  2  0
 15 16  1  0
 16 17  2  0
 17 18  1  0
 18 19  2  0
 19 20  1  0
 13 21  2  0
 21  4  1  0
 11  7  1  0
 19 14  1  0
  1 22  1  0
  1 23  1  0
  1 24  1  0
  2 25  1  0
  2 26  1  0
  5 27  1  0
  8 28  1  0
  8 29  1  0
  9 30  1  0
  9 31  1  0
 10 32  1  0
 10 33  1  0
 11 34  1  0
 11 35  1  0
 15 36  1  0
 16 37  1  0
 17 38  1  0
 18 39  1  0
M  END
$$$$
