
     RDKit          3D

 57 60  0  0  0  0  0  0  0  0999 V2000
   -3.5813    3.4021   -1.9496 C   0  0  0  0  0  0  0  0  0  0  0  0
   -4.0109    2.4614   -0.9579 O   0  0  0  0  0  0  0  0  0  0  0  0
   -2.9460    1.8779   -0.3341 C   0  0  0  0  0  0  0  0  0  0  0  0
   -2.2421    2.6352    0.6128 C   0  0  0  0  0  0  0  0  0  0  0  0
   -1.1759    2.0725    1.3131 C   0  0  0  0  0  0  0  0  0  0  0  0
   -0.8076    0.7520    1.0530 C   0  0  0  0  0  0  0  0  0  0  0  0
    0.3078    0.1559    1.8099 C   0  0  0  0  0  0  0  0  0  0  0  0
    0.1174   -0.0703    3.0026 O   0  0  0  0  0  0  0  0  0  0  0  0
    1.5024   -0.1076    1.1359 N   0  0  0  0  0  0  0  0  0  0  0  0
    2.6393   -0.5145    1.9721 C   0  0  0  0  0  0  0  0  0  0  0  0
    3.7596   -1.2111    1.1807 C   0  0  0  0  0  0  0  0  0  0  0  0
    4.1519   -0.3841    0.0207 N   0  0  0  0  0  0  0  0  0  0  0  0
    5.3407   -0.7097   -0.6485 C   0  0  0  0  0  0  0  0  0  0  0  0
    5.9669    0.2681   -1.4406 C   0  0  0  0  0  0  0  0  0  0  0  0
    7.1711    0.0161   -2.1046 C   0  0  0  0  0  0  0  0  0  0  0  0
    7.7826   -1.2262   -1.9816 C   0  0  0  0  0  0  0  0  0  0  0  0
    7.1845   -2.2126   -1.2040 C   0  0  0  0  0  0  0  0  0  0  0  0
    5.9765   -1.9548   -0.5441 C   0  0  0  0  0  0  0  0  0  0  0  0
    3.0124   -0.1192   -0.8852 C   0  0  0  0  0  0  0  0  0  0  0  0
    1.8717    0.5772   -0.1159 C   0  0  0  0  0  0  0  0  0  0  0  0
   -1.5209   -0.0249    0.1374 C   0  0  0  0  0  0  0  0  0  0  0  0
   -2.6184    0.5328   -0.5367 C   0  0  0  0  0  0  0  0  0  0  0  0
   -3.5112   -0.5105   -1.6739 S   0  0  0  0  0  6  0  0  0  0  0  0
   -2.6311   -1.6216   -1.9866 O   0  0  0  0  0  0  0  0  0  0  0  0
   -4.0453    0.3049   -2.7433 O   0  0  0  0  0  0  0  0  0  0  0  0
   -4.7936   -1.1284   -0.7592 N   0  0  0  0  0  0  0  0  0  0  0  0
   -4.4979   -1.9833    0.4064 C   0  0  0  0  0  0  0  0  0  0  0  0
   -4.9761   -1.1636    1.5921 C   0  0  0  0  0  0  0  0  0  0  0  0
   -6.2152   -0.4610    1.0617 C   0  0  0  0  0  0  0  0  0  0  0  0
   -5.9335   -0.2445   -0.4280 C   0  0  0  0  0  0  0  0  0  0  0  0
   -3.1833    4.3073   -1.4788 H   0  0  0  0  0  0  0  0  0  0  0  0
   -4.4553    3.6858   -2.5421 H   0  0  0  0  0  0  0  0  0  0  0  0
   -2.8397    2.9646   -2.6256 H   0  0  0  0  0  0  0  0  0  0  0  0
   -2.5395    3.6604    0.8225 H   0  0  0  0  0  0  0  0  0  0  0  0
   -0.6417    2.6538    2.0614 H   0  0  0  0  0  0  0  0  0  0  0  0
    3.0288    0.3968    2.4454 H   0  0  0  0  0  0  0  0  0  0  0  0
    2.2927   -1.1789    2.7720 H   0  0  0  0  0  0  0  0  0  0  0  0
    4.6116   -1.3620    1.8566 H   0  0  0  0  0  0  0  0  0  0  0  0
    3.4057   -2.1945    0.8419 H   0  0  0  0  0  0  0  0  0  0  0  0
    5.5303    1.2605   -1.5153 H   0  0  0  0  0  0  0  0  0  0  0  0
    7.6383    0.7992   -2.6946 H   0  0  0  0  0  0  0  0  0  0  0  0
    8.7257   -1.4225   -2.4848 H   0  0  0  0  0  0  0  0  0  0  0  0
    7.6629   -3.1854   -1.0979 H   0  0  0  0  0  0  0  0  0  0  0  0
    5.5410   -2.7584    0.0402 H   0  0  0  0  0  0  0  0  0  0  0  0
    3.2955    0.5237   -1.7272 H   0  0  0  0  0  0  0  0  0  0  0  0
    2.6485   -1.0684   -1.2994 H   0  0  0  0  0  0  0  0  0  0  0  0
    1.0048    0.6728   -0.7741 H   0  0  0  0  0  0  0  0  0  0  0  0
    2.1817    1.5928    0.1642 H   0  0  0  0  0  0  0  0  0  0  0  0
   -1.2300   -1.0609   -0.0278 H   0  0  0  0  0  0  0  0  0  0  0  0
   -3.4429   -2.2573    0.4980 H   0  0  0  0  0  0  0  0  0  0  0  0
   -5.0763   -2.9101    0.3082 H   0  0  0  0  0  0  0  0  0  0  0  0
   -4.2192   -0.4199    1.8730 H   0  0  0  0  0  0  0  0  0  0  0  0
   -5.1841   -1.7831    2.4702 H   0  0  0  0  0  0  0  0  0  0  0  0
   -6.3901    0.4932    1.5807 H   0  0  0  0  0  0  0  0  0  0  0  0
   -7.1125   -1.0855    1.1991 H   0  0  0  0  0  0  0  0  0  0  0  0
   -5.7326    0.8082   -0.6383 H   0  0  0  0  0  0  0  0  0  0  0  0
   -6.7977   -0.5404   -1.0315 H   0  0  0  0  0  0  0  0  0  0  0  0
  1  2  1  0
  2  3  1  0
  3  4  2  0
  4  5  1  0
  5  6  2  0
  6  7  1  0
  7  8  2  0
  7  9  1  0
  9 10  1  0
 10 11  1  0
 11 12  1  0
 12 13  1  0
 13 14  2  0
 14 15  1  0
 15 16  2  0
 16 17  1  0
 17 18  2  0
 12 19  1  0
 19 20  1  0
  6 21  1  0
 21 22  2  0
 22 23  1  0
 23 24  2  0
 23 25  2  0
 23 26  1  0
 26 27  1  0
 27 28  1  0
 28 29  1  0
 29 30  1  0
 22  3  1  0
 30 26  1  0
 20  9  1  0
 18 13  1  0
  1 31  1  0
  1 32  1  0
  1 33  1  0
  4 34  1  0
  5 35  1  0
 10 36  1  0
 10 37  1  0
 11 38  1  0
 11 39  1  0
 14 40  1  0
 15 41  1  0
 16 42  1  0
 17 43  1  0
 18 44  1  0
 19 45  1  0
 19 46  1  0
 20 47  1  0
 20 48  1  0
 21 49  1  0
 27 50  1  0
 27 51  1  0
 28 52  1  0
 28 53  1  0
 29 54  1  0
 29 55  1  0
 30 56  1  0
 30 57  1  0
M  END
$$$$
