
     RDKit          3D

 31 34  0  0  0  0  0  0  0  0999 V2000
    4.3621   -1.9545    0.7581 O   0  0  0  0  0  0  0  0  0  0  0  0
    3.2191   -1.6970    1.0976 C   0  0  0  0  0  0  0  0  0  0  0  0
    2.6139   -2.4831    2.0154 O   0  0  0  0  0  0  0  0  0  0  0  0
    2.3735   -0.4883    0.7048 C   0  0  0  0  0  0  0  0  0  0  0  0
    3.0019    0.2451   -0.8587 S   0  0  0  0  0  0  0  0  0  0  0  0
    1.7340    1.3116   -1.2410 C   0  0  0  0  0  0  0  0  0  0  0  0
    1.9255    2.2192   -2.2369 N   0  0  0  0  0  0  0  0  0  0  0  0
    0.8930    3.0835   -2.4822 C   0  0  0  0  0  0  0  0  0  0  0  0
    0.8513    3.9702   -3.3151 O   0  0  0  0  0  0  0  0  0  0  0  0
   -0.4015    2.6949   -1.3439 S   0  0  0  0  0  0  0  0  0  0  0  0
    0.5358    1.3833   -0.6464 C   0  0  0  0  0  0  0  0  0  0  0  0
    0.0514    0.5230    0.4939 C   0  0  0  0  0  0  0  0  0  0  0  0
   -1.4093    0.1526    0.4302 C   0  0  0  0  0  0  0  0  0  0  0  0
   -2.4107    0.9766    0.9645 C   0  0  0  0  0  0  0  0  0  0  0  0
   -3.7530    0.6029    0.8623 C   0  0  0  0  0  0  0  0  0  0  0  0
   -5.0929    1.7259    1.5811 Br  0  0  0  0  0  0  0  0  0  0  0  0
   -4.1142   -0.5881    0.2331 C   0  0  0  0  0  0  0  0  0  0  0  0
   -3.1242   -1.4155   -0.2942 C   0  0  0  0  0  0  0  0  0  0  0  0
   -1.7875   -1.0388   -0.1805 C   0  0  0  0  0  0  0  0  0  0  0  0
   -0.8314   -1.9099   -0.7207 O   0  0  0  0  0  0  0  0  0  0  0  0
    0.5089   -1.8215   -0.3737 C   0  0  0  0  0  0  0  0  0  0  0  0
    1.3236   -2.6084   -0.8438 O   0  0  0  0  0  0  0  0  0  0  0  0
    0.8604   -0.7771    0.6733 C   0  0  0  0  0  0  0  0  0  0  0  0
    3.2623   -3.2098    2.1498 H   0  0  0  0  0  0  0  0  0  0  0  0
    2.5655    0.2565    1.4887 H   0  0  0  0  0  0  0  0  0  0  0  0
    2.7813    2.2678   -2.7704 H   0  0  0  0  0  0  0  0  0  0  0  0
    0.1952    1.1129    1.4119 H   0  0  0  0  0  0  0  0  0  0  0  0
   -2.1478    1.9153    1.4481 H   0  0  0  0  0  0  0  0  0  0  0  0
   -5.1586   -0.8774    0.1479 H   0  0  0  0  0  0  0  0  0  0  0  0
   -3.3937   -2.3459   -0.7869 H   0  0  0  0  0  0  0  0  0  0  0  0
    0.5662   -1.2258    1.6337 H   0  0  0  0  0  0  0  0  0  0  0  0
  1  2  2  0
  2  3  1  0
  2  4  1  0
  4  5  1  0
  5  6  1  0
  6  7  1  0
  7  8  1  0
  8  9  2  0
  8 10  1  0
 10 11  1  0
 11 12  1  0
 12 13  1  0
 13 14  2  0
 14 15  1  0
 15 16  1  0
 15 17  2  0
 17 18  1  0
 18 19  2  0
 19 20  1  0
 20 21  1  0
 21 22  2  0
 21 23  1  0
 23  4  1  0
 11  6  2  0
 23 12  1  0
 19 13  1  0
  3 24  1  0
  4 25  1  0
  7 26  1  0
 12 27  1  0
 14 28  1  0
 17 29  1  0
 18 30  1  0
 23 31  1  0
M  END
$$$$
