
     RDKit          3D

 72 76  0  0  0  0  0  0  0  0999 V2000
    0.3258   -6.5082    1.5744 C   0  0  0  0  0  0  0  0  0  0  0  0
    0.0458   -5.0665    1.8800 C   0  0  0  0  0  0  0  0  0  0  0  0
   -0.1849   -4.6553    3.1984 C   0  0  0  0  0  0  0  0  0  0  0  0
   -0.4278   -3.3099    3.4971 C   0  0  0  0  0  0  0  0  0  0  0  0
   -0.6715   -2.8731    4.9124 C   0  0  0  0  0  0  0  0  0  0  0  0
   -0.4018   -2.3651    2.4628 C   0  0  0  0  0  0  0  0  0  0  0  0
   -0.1468   -2.7540    1.1427 C   0  0  0  0  0  0  0  0  0  0  0  0
   -0.1329   -1.7782    0.1068 N   0  0  0  0  0  0  0  0  0  0  0  0
    0.6864   -0.6409    0.1435 C   0  0  0  0  0  0  0  0  0  0  0  0
    0.4767    0.3169   -0.6081 O   0  0  0  0  0  0  0  0  0  0  0  0
    1.8695   -0.6753    1.0887 C   0  0  0  0  0  0  0  0  0  0  0  0
    2.6883    0.5088    0.9455 N   0  0  0  0  0  0  0  0  0  0  0  0
    3.8144    0.5112    0.2116 N   0  0  0  0  0  0  0  0  0  0  0  0
    4.3536    1.7023    0.4286 N   0  0  0  0  0  0  0  0  0  0  0  0
    3.5418    2.3532    1.3317 C   0  0  0  0  0  0  0  0  0  0  0  0
    3.8152    3.6983    1.8206 C   0  0  0  0  0  0  0  0  0  0  0  0
    4.9615    4.3894    1.4009 C   0  0  0  0  0  0  0  0  0  0  0  0
    5.2259    5.6794    1.8696 C   0  0  0  0  0  0  0  0  0  0  0  0
    4.3468    6.2921    2.7608 C   0  0  0  0  0  0  0  0  0  0  0  0
    3.2033    5.6181    3.1850 C   0  0  0  0  0  0  0  0  0  0  0  0
    2.9389    4.3282    2.7179 C   0  0  0  0  0  0  0  0  0  0  0  0
    2.4960    1.5988    1.7179 N   0  0  0  0  0  0  0  0  0  0  0  0
   -0.9158   -2.0723   -1.1313 C   0  0  0  0  0  0  0  0  0  0  0  0
   -2.1963   -1.2077   -1.2869 C   0  0  0  0  0  0  0  0  0  0  0  0
   -3.2324   -1.6859   -1.7595 O   0  0  0  0  0  0  0  0  0  0  0  0
   -2.1015    0.1312   -0.9782 N   0  0  0  0  0  0  0  0  0  0  0  0
   -3.1583    1.0825   -1.2850 C   0  0  0  0  0  0  0  0  0  0  0  0
   -3.0419    2.3172   -0.3766 C   0  0  0  0  0  0  0  0  0  0  0  0
   -3.6343    3.5898   -0.9881 C   0  0  0  0  0  0  0  0  0  0  0  0
   -4.7602    3.2851   -1.9651 C   0  0  0  0  0  0  0  0  0  0  0  0
   -4.2850    2.4134   -3.1281 C   0  0  0  0  0  0  0  0  0  0  0  0
   -3.1288    1.4806   -2.7633 C   0  0  0  0  0  0  0  0  0  0  0  0
   -0.0405   -2.1273   -2.3886 C   0  0  0  0  0  0  0  0  0  0  0  0
   -0.5698   -1.9438   -3.6665 C   0  0  0  0  0  0  0  0  0  0  0  0
    0.2744   -2.0313   -4.7717 C   0  0  0  0  0  0  0  0  0  0  0  0
    1.6217   -2.3082   -4.5852 C   0  0  0  0  0  0  0  0  0  0  0  0
    2.0724   -2.5037   -3.2944 C   0  0  0  0  0  0  0  0  0  0  0  0
    1.2766   -2.4399   -2.2050 N   0  0  0  0  0  0  0  0  0  0  0  0
    0.0704   -4.1079    0.8588 C   0  0  0  0  0  0  0  0  0  0  0  0
    1.3947   -6.7127    1.6835 H   0  0  0  0  0  0  0  0  0  0  0  0
   -0.2324   -7.1665    2.2484 H   0  0  0  0  0  0  0  0  0  0  0  0
    0.0204   -6.7573    0.5526 H   0  0  0  0  0  0  0  0  0  0  0  0
   -0.1837   -5.3937    3.9992 H   0  0  0  0  0  0  0  0  0  0  0  0
   -1.4653   -2.1192    4.9517 H   0  0  0  0  0  0  0  0  0  0  0  0
    0.2452   -2.4500    5.3352 H   0  0  0  0  0  0  0  0  0  0  0  0
   -0.9881   -3.7143    5.5388 H   0  0  0  0  0  0  0  0  0  0  0  0
   -0.6195   -1.3244    2.6953 H   0  0  0  0  0  0  0  0  0  0  0  0
    2.4956   -1.5442    0.8670 H   0  0  0  0  0  0  0  0  0  0  0  0
    1.5563   -0.7033    2.1317 H   0  0  0  0  0  0  0  0  0  0  0  0
    5.6595    3.9289    0.7043 H   0  0  0  0  0  0  0  0  0  0  0  0
    6.1182    6.2042    1.5373 H   0  0  0  0  0  0  0  0  0  0  0  0
    4.5529    7.2956    3.1245 H   0  0  0  0  0  0  0  0  0  0  0  0
    2.5146    6.0943    3.8784 H   0  0  0  0  0  0  0  0  0  0  0  0
    2.0405    3.8167    3.0588 H   0  0  0  0  0  0  0  0  0  0  0  0
   -1.3220   -3.0885   -1.0310 H   0  0  0  0  0  0  0  0  0  0  0  0
   -1.1505    0.5052   -0.9217 H   0  0  0  0  0  0  0  0  0  0  0  0
   -4.1158    0.5860   -1.0807 H   0  0  0  0  0  0  0  0  0  0  0  0
   -3.5440    2.0967    0.5744 H   0  0  0  0  0  0  0  0  0  0  0  0
   -1.9940    2.5178   -0.1174 H   0  0  0  0  0  0  0  0  0  0  0  0
   -3.9924    4.2492   -0.1892 H   0  0  0  0  0  0  0  0  0  0  0  0
   -2.8426    4.1398   -1.5138 H   0  0  0  0  0  0  0  0  0  0  0  0
   -5.5694    2.7699   -1.4330 H   0  0  0  0  0  0  0  0  0  0  0  0
   -5.1875    4.2154   -2.3553 H   0  0  0  0  0  0  0  0  0  0  0  0
   -3.9711    3.0491   -3.9655 H   0  0  0  0  0  0  0  0  0  0  0  0
   -5.1354    1.8251   -3.4937 H   0  0  0  0  0  0  0  0  0  0  0  0
   -2.1762    1.9806   -2.9849 H   0  0  0  0  0  0  0  0  0  0  0  0
   -3.1603    0.5972   -3.4118 H   0  0  0  0  0  0  0  0  0  0  0  0
   -1.6237   -1.7359   -3.8250 H   0  0  0  0  0  0  0  0  0  0  0  0
   -0.1206   -1.8816   -5.7726 H   0  0  0  0  0  0  0  0  0  0  0  0
    2.3032   -2.3718   -5.4253 H   0  0  0  0  0  0  0  0  0  0  0  0
    3.1169   -2.7238   -3.0934 H   0  0  0  0  0  0  0  0  0  0  0  0
    0.3015   -4.4263   -0.1562 H   0  0  0  0  0  0  0  0  0  0  0  0
  1  2  1  0
  2  3  2  0
  3  4  1  0
  4  5  1  0
  4  6  2  0
  6  7  1  0
  7  8  1  0
  8  9  1  0
  9 10  2  0
  9 11  1  0
 11 12  1  0
 12 13  1  0
 13 14  2  0
 14 15  1  0
 15 16  1  0
 16 17  2  0
 17 18  1  0
 18 19  2  0
 19 20  1  0
 20 21  2  0
 15 22  2  0
  8 23  1  0
 23 24  1  0
 24 25  2  0
 24 26  1  0
 26 27  1  0
 27 28  1  0
 28 29  1  0
 29 30  1  0
 30 31  1  0
 31 32  1  0
 23 33  1  0
 33 34  2  0
 34 35  1  0
 35 36  2  0
 36 37  1  0
 37 38  2  0
  7 39  2  0
 39  2  1  0
 22 12  1  0
 32 27  1  0
 38 33  1  0
 21 16  1  0
  1 40  1  0
  1 41  1  0
  1 42  1  0
  3 43  1  0
  5 44  1  0
  5 45  1  0
  5 46  1  0
  6 47  1  0
 11 48  1  0
 11 49  1  0
 17 50  1  0
 18 51  1  0
 19 52  1  0
 20 53  1  0
 21 54  1  0
 23 55  1  0
 26 56  1  0
 27 57  1  0
 28 58  1  0
 28 59  1  0
 29 60  1  0
 29 61  1  0
 30 62  1  0
 30 63  1  0
 31 64  1  0
 31 65  1  0
 32 66  1  0
 32 67  1  0
 34 68  1  0
 35 69  1  0
 36 70  1  0
 37 71  1  0
 39 72  1  0
M  END
$$$$
