
     RDKit          3D

 45 47  0  0  0  0  0  0  0  0999 V2000
    1.9966   -3.5226    2.0736 C   0  0  0  0  0  0  0  0  0  0  0  0
    2.9453   -3.0304    1.0171 C   0  0  0  0  0  0  0  0  0  0  0  0
    4.0331   -3.8451    0.6455 C   0  0  0  0  0  0  0  0  0  0  0  0
    4.9422   -3.4410   -0.3280 C   0  0  0  0  0  0  0  0  0  0  0  0
    4.8004   -2.2097   -0.9682 C   0  0  0  0  0  0  0  0  0  0  0  0
    3.7200   -1.3937   -0.5994 C   0  0  0  0  0  0  0  0  0  0  0  0
    3.2796    0.1517   -1.2100 S   0  0  0  0  0  0  0  0  0  0  0  0
    1.9624    0.2237   -0.1212 C   0  0  0  0  0  0  0  0  0  0  0  0
    1.0559    1.2918   -0.1308 N   0  0  0  0  0  0  0  0  0  0  0  0
   -0.1852    1.1465    0.6546 C   0  0  0  0  0  0  0  0  0  0  0  0
   -1.2059    0.2103   -0.0013 C   0  0  0  0  0  0  0  0  0  0  0  0
   -2.4960    0.1580    0.8266 C   0  0  0  0  0  0  0  0  0  0  0  0
   -3.4859   -0.7881    0.2864 N   0  0  0  0  0  0  0  0  0  0  0  0
   -4.5542   -1.0106    1.2655 C   0  0  0  0  0  0  0  0  0  0  0  0
   -4.0666   -0.3257   -0.9758 C   0  0  0  0  0  0  0  0  0  0  0  0
    1.4710    2.5597   -0.5820 C   0  0  0  0  0  0  0  0  0  0  0  0
    2.6474    2.9154   -0.6274 O   0  0  0  0  0  0  0  0  0  0  0  0
    0.4109    3.4738   -0.9972 C   0  0  0  0  0  0  0  0  0  0  0  0
   -0.6444    3.2573   -1.8673 C   0  0  0  0  0  0  0  0  0  0  0  0
   -1.4648    4.4153   -2.0219 C   0  0  0  0  0  0  0  0  0  0  0  0
   -0.9832    5.4622   -1.2801 C   0  0  0  0  0  0  0  0  0  0  0  0
   -1.6577    7.0374   -1.1757 Cl  0  0  0  0  0  0  0  0  0  0  0  0
    0.4228    5.0903   -0.4180 S   0  0  0  0  0  0  0  0  0  0  0  0
    1.7921   -0.8508    0.6161 N   0  0  0  0  0  0  0  0  0  0  0  0
    2.7982   -1.7753    0.3757 C   0  0  0  0  0  0  0  0  0  0  0  0
    1.5487   -4.4724    1.7639 H   0  0  0  0  0  0  0  0  0  0  0  0
    2.5302   -3.6700    3.0180 H   0  0  0  0  0  0  0  0  0  0  0  0
    1.1852   -2.8102    2.2512 H   0  0  0  0  0  0  0  0  0  0  0  0
    4.1692   -4.8127    1.1262 H   0  0  0  0  0  0  0  0  0  0  0  0
    5.7722   -4.0920   -0.5945 H   0  0  0  0  0  0  0  0  0  0  0  0
    5.5065   -1.8929   -1.7297 H   0  0  0  0  0  0  0  0  0  0  0  0
    0.0880    0.7715    1.6499 H   0  0  0  0  0  0  0  0  0  0  0  0
   -0.6392    2.1263    0.8351 H   0  0  0  0  0  0  0  0  0  0  0  0
   -1.4125    0.5560   -1.0177 H   0  0  0  0  0  0  0  0  0  0  0  0
   -0.7895   -0.7997   -0.0940 H   0  0  0  0  0  0  0  0  0  0  0  0
   -2.9290    1.1631    0.9152 H   0  0  0  0  0  0  0  0  0  0  0  0
   -2.2186   -0.1579    1.8410 H   0  0  0  0  0  0  0  0  0  0  0  0
   -5.0963   -0.0877    1.5017 H   0  0  0  0  0  0  0  0  0  0  0  0
   -5.2732   -1.7484    0.8918 H   0  0  0  0  0  0  0  0  0  0  0  0
   -4.1460   -1.4203    2.1963 H   0  0  0  0  0  0  0  0  0  0  0  0
   -4.8195   -1.0365   -1.3358 H   0  0  0  0  0  0  0  0  0  0  0  0
   -3.3103   -0.2660   -1.7643 H   0  0  0  0  0  0  0  0  0  0  0  0
   -4.5436    0.6560   -0.8756 H   0  0  0  0  0  0  0  0  0  0  0  0
   -0.8121    2.3199   -2.3842 H   0  0  0  0  0  0  0  0  0  0  0  0
   -2.3442    4.4736   -2.6511 H   0  0  0  0  0  0  0  0  0  0  0  0
  1  2  1  0
  2  3  2  0
  3  4  1  0
  4  5  2  0
  5  6  1  0
  6  7  1  0
  7  8  1  0
  8  9  1  0
  9 10  1  0
 10 11  1  0
 11 12  1  0
 12 13  1  0
 13 14  1  0
 13 15  1  0
  9 16  1  0
 16 17  2  0
 16 18  1  0
 18 19  2  0
 19 20  1  0
 20 21  2  0
 21 22  1  0
 21 23  1  0
  8 24  2  0
 24 25  1  0
 25  2  1  0
 25  6  2  0
 23 18  1  0
  1 26  1  0
  1 27  1  0
  1 28  1  0
  3 29  1  0
  4 30  1  0
  5 31  1  0
 10 32  1  0
 10 33  1  0
 11 34  1  0
 11 35  1  0
 12 36  1  0
 12 37  1  0
 14 38  1  0
 14 39  1  0
 14 40  1  0
 15 41  1  0
 15 42  1  0
 15 43  1  0
 19 44  1  0
 20 45  1  0
M  END
$$$$
