
     RDKit          3D

 55 58  0  0  0  0  0  0  0  0999 V2000
   -6.6152   -2.0902   -1.9052 C   0  0  0  0  0  0  0  0  0  0  0  0
   -6.4226   -0.8562   -1.2277 O   0  0  0  0  0  0  0  0  0  0  0  0
   -5.1444   -0.5315   -0.8478 C   0  0  0  0  0  0  0  0  0  0  0  0
   -4.0082   -1.2716   -1.1820 C   0  0  0  0  0  0  0  0  0  0  0  0
   -2.7403   -0.8625   -0.7492 C   0  0  0  0  0  0  0  0  0  0  0  0
   -2.5692    0.2927    0.0314 C   0  0  0  0  0  0  0  0  0  0  0  0
   -1.2393    0.7377    0.5056 C   0  0  0  0  0  0  0  0  0  0  0  0
   -0.1881   -0.1304    0.7435 C   0  0  0  0  0  0  0  0  0  0  0  0
    1.0225    0.4044    1.1842 C   0  0  0  0  0  0  0  0  0  0  0  0
    2.1298   -0.5406    1.4093 C   0  0  0  0  0  0  0  0  0  0  0  0
    2.3379   -0.9065    2.5624 O   0  0  0  0  0  0  0  0  0  0  0  0
    2.8572   -0.9864    0.2991 N   0  0  0  0  0  0  0  0  0  0  0  0
    2.8629   -0.2707   -0.9811 C   0  0  0  0  0  0  0  0  0  0  0  0
    3.1743   -1.2008   -2.1489 C   0  0  0  0  0  0  0  0  0  0  0  0
    4.4489   -2.0014   -1.8996 C   0  0  0  0  0  0  0  0  0  0  0  0
    4.3470   -2.7701   -0.5767 C   0  0  0  0  0  0  0  0  0  0  0  0
    5.6263   -3.5250   -0.2783 C   0  0  0  0  0  0  0  0  0  0  0  0
    6.6790   -2.6878   -0.1520 F   0  0  0  0  0  0  0  0  0  0  0  0
    5.9133   -4.3977   -1.2702 F   0  0  0  0  0  0  0  0  0  0  0  0
    5.5220   -4.2334    0.8664 F   0  0  0  0  0  0  0  0  0  0  0  0
    4.0319   -1.8190    0.5752 C   0  0  0  0  0  0  0  0  0  0  0  0
    1.1819    1.7817    1.4209 C   0  0  0  0  0  0  0  0  0  0  0  0
    2.3721    2.3874    1.8947 C   0  0  0  0  0  0  0  0  0  0  0  0
    2.4423    3.7648    2.0907 C   0  0  0  0  0  0  0  0  0  0  0  0
    1.3309    4.5500    1.8173 C   0  0  0  0  0  0  0  0  0  0  0  0
    0.1563    3.9513    1.3534 C   0  0  0  0  0  0  0  0  0  0  0  0
    0.0591    2.5805    1.1520 C   0  0  0  0  0  0  0  0  0  0  0  0
   -1.1047    2.0745    0.7047 N   0  0  0  0  0  0  0  0  0  0  0  0
   -3.7263    1.0339    0.3475 C   0  0  0  0  0  0  0  0  0  0  0  0
   -5.0020    0.6383   -0.0801 C   0  0  0  0  0  0  0  0  0  0  0  0
   -6.1615    1.3188    0.2034 O   0  0  0  0  0  0  0  0  0  0  0  0
   -6.0540    2.5184    0.9564 C   0  0  0  0  0  0  0  0  0  0  0  0
   -6.2748   -2.9353   -1.2970 H   0  0  0  0  0  0  0  0  0  0  0  0
   -7.6891   -2.2151   -2.0739 H   0  0  0  0  0  0  0  0  0  0  0  0
   -6.1239   -2.0826   -2.8842 H   0  0  0  0  0  0  0  0  0  0  0  0
   -4.0708   -2.1703   -1.7863 H   0  0  0  0  0  0  0  0  0  0  0  0
   -1.8846   -1.4622   -1.0525 H   0  0  0  0  0  0  0  0  0  0  0  0
   -0.2897   -1.2021    0.6139 H   0  0  0  0  0  0  0  0  0  0  0  0
    1.9041    0.2204   -1.1652 H   0  0  0  0  0  0  0  0  0  0  0  0
    3.6217    0.5183   -0.9058 H   0  0  0  0  0  0  0  0  0  0  0  0
    2.3363   -1.8947   -2.2937 H   0  0  0  0  0  0  0  0  0  0  0  0
    3.2742   -0.6181   -3.0714 H   0  0  0  0  0  0  0  0  0  0  0  0
    4.6100   -2.6983   -2.7308 H   0  0  0  0  0  0  0  0  0  0  0  0
    5.3098   -1.3207   -1.8790 H   0  0  0  0  0  0  0  0  0  0  0  0
    3.5279   -3.4967   -0.6646 H   0  0  0  0  0  0  0  0  0  0  0  0
    3.8692   -2.3951    1.4935 H   0  0  0  0  0  0  0  0  0  0  0  0
    4.8685   -1.1349    0.7678 H   0  0  0  0  0  0  0  0  0  0  0  0
    3.2473    1.7829    2.1276 H   0  0  0  0  0  0  0  0  0  0  0  0
    3.3578    4.2191    2.4615 H   0  0  0  0  0  0  0  0  0  0  0  0
    1.3685    5.6261    1.9681 H   0  0  0  0  0  0  0  0  0  0  0  0
   -0.7113    4.5741    1.1455 H   0  0  0  0  0  0  0  0  0  0  0  0
   -3.6022    1.9327    0.9459 H   0  0  0  0  0  0  0  0  0  0  0  0
   -5.6559    2.3219    1.9573 H   0  0  0  0  0  0  0  0  0  0  0  0
   -7.0611    2.9295    1.0759 H   0  0  0  0  0  0  0  0  0  0  0  0
   -5.4517    3.2649    0.4279 H   0  0  0  0  0  0  0  0  0  0  0  0
  1  2  1  0
  2  3  1  0
  3  4  2  0
  4  5  1  0
  5  6  2  0
  6  7  1  0
  7  8  2  0
  8  9  1  0
  9 10  1  0
 10 11  2  0
 10 12  1  0
 12 13  1  0
 13 14  1  0
 14 15  1  0
 15 16  1  0
 16 17  1  0
 17 18  1  0
 17 19  1  0
 17 20  1  0
 16 21  1  0
  9 22  2  0
 22 23  1  0
 23 24  2  0
 24 25  1  0
 25 26  2  0
 26 27  1  0
 27 28  2  0
  6 29  1  0
 29 30  2  0
 30 31  1  0
 31 32  1  0
 30  3  1  0
 28  7  1  0
 21 12  1  0
 27 22  1  0
  1 33  1  0
  1 34  1  0
  1 35  1  0
  4 36  1  0
  5 37  1  0
  8 38  1  0
 13 39  1  0
 13 40  1  0
 14 41  1  0
 14 42  1  0
 15 43  1  0
 15 44  1  0
 16 45  1  0
 21 46  1  0
 21 47  1  0
 23 48  1  0
 24 49  1  0
 25 50  1  0
 26 51  1  0
 29 52  1  0
 32 53  1  0
 32 54  1  0
 32 55  1  0
M  END
$$$$
