
     RDKit          3D

 72 76  0  0  0  0  0  0  0  0999 V2000
    9.8129   -0.6861   -0.3105 C   0  0  0  0  0  0  0  0  0  0  0  0
    8.8884   -1.7277   -0.0198 O   0  0  0  0  0  0  0  0  0  0  0  0
    7.5654   -1.4556   -0.2317 C   0  0  0  0  0  0  0  0  0  0  0  0
    7.0456   -0.2780   -0.7735 C   0  0  0  0  0  0  0  0  0  0  0  0
    5.6626   -0.1308   -0.9374 C   0  0  0  0  0  0  0  0  0  0  0  0
    4.7902   -1.1575   -0.5553 C   0  0  0  0  0  0  0  0  0  0  0  0
    3.3478   -0.9921   -0.7186 C   0  0  0  0  0  0  0  0  0  0  0  0
    2.8397   -0.9308   -1.9528 N   0  0  0  0  0  0  0  0  0  0  0  0
    1.1939   -0.8199   -1.8599 S   0  0  0  0  0  0  0  0  0  0  0  0
    1.1048   -0.7176   -0.1577 C   0  0  0  0  0  0  0  0  0  0  0  0
   -0.1601   -0.6098    0.5370 C   0  0  0  0  0  0  0  0  0  0  0  0
   -0.4612   -1.4517    1.3911 O   0  0  0  0  0  0  0  0  0  0  0  0
   -1.0871    0.3958    0.1867 N   0  0  0  0  0  0  0  0  0  0  0  0
   -0.7569    1.5448   -0.5984 C   0  0  0  0  0  0  0  0  0  0  0  0
   -1.6068    1.9893   -1.6210 C   0  0  0  0  0  0  0  0  0  0  0  0
   -1.2779    3.1154   -2.3796 C   0  0  0  0  0  0  0  0  0  0  0  0
   -0.1034    3.8048   -2.1127 C   0  0  0  0  0  0  0  0  0  0  0  0
    0.2146    4.8806   -2.8427 F   0  0  0  0  0  0  0  0  0  0  0  0
    0.7484    3.3912   -1.0979 C   0  0  0  0  0  0  0  0  0  0  0  0
    0.4210    2.2664   -0.3380 C   0  0  0  0  0  0  0  0  0  0  0  0
   -2.4742    0.2602    0.7213 C   0  0  0  0  0  0  0  0  0  0  0  0
   -3.3348   -0.6086   -0.2376 C   0  0  0  0  0  0  0  0  0  0  0  0
   -4.4357   -0.2935   -0.6823 O   0  0  0  0  0  0  0  0  0  0  0  0
   -2.7706   -1.8523   -0.5085 N   0  0  0  0  0  0  0  0  0  0  0  0
   -3.4813   -2.8695   -1.2679 C   0  0  0  0  0  0  0  0  0  0  0  0
   -4.3673   -3.7263   -0.3650 C   0  0  0  0  0  0  0  0  0  0  0  0
   -3.4151   -4.7472    0.2565 C   0  0  0  0  0  0  0  0  0  0  0  0
   -2.2237   -4.8539   -0.6965 C   0  0  0  0  0  0  0  0  0  0  0  0
   -2.5136   -3.8949   -1.8494 C   0  0  0  0  0  0  0  0  0  0  0  0
   -3.0531    1.5651    1.2747 C   0  0  0  0  0  0  0  0  0  0  0  0
   -4.0424    2.3260    0.6363 C   0  0  0  0  0  0  0  0  0  0  0  0
   -4.4934    3.5358    1.1824 C   0  0  0  0  0  0  0  0  0  0  0  0
   -3.9652    4.0114    2.3803 C   0  0  0  0  0  0  0  0  0  0  0  0
   -4.3151    5.1715    3.0140 O   0  0  0  0  0  0  0  0  0  0  0  0
   -5.3020    5.9762    2.3794 C   0  0  0  0  0  0  0  0  0  0  0  0
   -2.9832    3.2641    3.0280 C   0  0  0  0  0  0  0  0  0  0  0  0
   -2.5286    2.0607    2.4834 C   0  0  0  0  0  0  0  0  0  0  0  0
    2.3758   -0.8989    0.3522 C   0  0  0  0  0  0  0  0  0  0  0  0
    2.6547   -0.9496    1.6823 N   0  0  0  0  0  0  0  0  0  0  0  0
    5.3119   -2.3409   -0.0207 C   0  0  0  0  0  0  0  0  0  0  0  0
    6.6935   -2.4853    0.1377 C   0  0  0  0  0  0  0  0  0  0  0  0
    9.8061   -0.4374   -1.3772 H   0  0  0  0  0  0  0  0  0  0  0  0
    9.6140    0.1987    0.3029 H   0  0  0  0  0  0  0  0  0  0  0  0
   10.8140   -1.0489   -0.0582 H   0  0  0  0  0  0  0  0  0  0  0  0
    7.6847    0.5424   -1.0869 H   0  0  0  0  0  0  0  0  0  0  0  0
    5.2691    0.7883   -1.3697 H   0  0  0  0  0  0  0  0  0  0  0  0
   -2.5183    1.4558   -1.8725 H   0  0  0  0  0  0  0  0  0  0  0  0
   -1.9258    3.4487   -3.1855 H   0  0  0  0  0  0  0  0  0  0  0  0
    1.6616    3.9419   -0.9026 H   0  0  0  0  0  0  0  0  0  0  0  0
    1.0882    1.9828    0.4719 H   0  0  0  0  0  0  0  0  0  0  0  0
   -2.4300   -0.3787    1.6171 H   0  0  0  0  0  0  0  0  0  0  0  0
   -2.0518   -2.1749    0.1371 H   0  0  0  0  0  0  0  0  0  0  0  0
   -4.0661   -2.3773   -2.0527 H   0  0  0  0  0  0  0  0  0  0  0  0
   -4.8996   -3.1517    0.3996 H   0  0  0  0  0  0  0  0  0  0  0  0
   -5.1143   -4.2532   -0.9722 H   0  0  0  0  0  0  0  0  0  0  0  0
   -3.0730   -4.4059    1.2406 H   0  0  0  0  0  0  0  0  0  0  0  0
   -3.9080   -5.7140    0.4016 H   0  0  0  0  0  0  0  0  0  0  0  0
   -2.0813   -5.8779   -1.0575 H   0  0  0  0  0  0  0  0  0  0  0  0
   -1.3040   -4.5597   -0.1762 H   0  0  0  0  0  0  0  0  0  0  0  0
   -1.5960   -3.4496   -2.2485 H   0  0  0  0  0  0  0  0  0  0  0  0
   -3.0040   -4.4450   -2.6618 H   0  0  0  0  0  0  0  0  0  0  0  0
   -4.4810    2.0078   -0.3068 H   0  0  0  0  0  0  0  0  0  0  0  0
   -5.2586    4.0812    0.6382 H   0  0  0  0  0  0  0  0  0  0  0  0
   -6.2575    5.4456    2.3093 H   0  0  0  0  0  0  0  0  0  0  0  0
   -4.9637    6.3117    1.3931 H   0  0  0  0  0  0  0  0  0  0  0  0
   -5.4609    6.8626    3.0003 H   0  0  0  0  0  0  0  0  0  0  0  0
   -2.5656    3.6239    3.9661 H   0  0  0  0  0  0  0  0  0  0  0  0
   -1.7517    1.5107    3.0121 H   0  0  0  0  0  0  0  0  0  0  0  0
    3.5799   -1.2275    2.0052 H   0  0  0  0  0  0  0  0  0  0  0  0
    1.9265   -1.2117    2.3469 H   0  0  0  0  0  0  0  0  0  0  0  0
    4.6525   -3.1596    0.2610 H   0  0  0  0  0  0  0  0  0  0  0  0
    7.0965   -3.4096    0.5486 H   0  0  0  0  0  0  0  0  0  0  0  0
  1  2  1  0
  2  3  1  0
  3  4  2  0
  4  5  1  0
  5  6  2  0
  6  7  1  0
  7  8  2  0
  8  9  1  0
  9 10  1  0
 10 11  1  0
 11 12  2  0
 11 13  1  0
 13 14  1  0
 14 15  2  0
 15 16  1  0
 16 17  2  0
 17 18  1  0
 17 19  1  0
 19 20  2  0
 13 21  1  0
 21 22  1  0
 22 23  2  0
 22 24  1  0
 24 25  1  0
 25 26  1  0
 26 27  1  0
 27 28  1  0
 28 29  1  0
 21 30  1  0
 30 31  2  0
 31 32  1  0
 32 33  2  0
 33 34  1  0
 34 35  1  0
 33 36  1  0
 36 37  2  0
 10 38  2  0
 38 39  1  0
  6 40  1  0
 40 41  2  0
 41  3  1  0
 38  7  1  0
 20 14  1  0
 29 25  1  0
 37 30  1  0
  1 42  1  0
  1 43  1  0
  1 44  1  0
  4 45  1  0
  5 46  1  0
 15 47  1  0
 16 48  1  0
 19 49  1  0
 20 50  1  0
 21 51  1  0
 24 52  1  0
 25 53  1  0
 26 54  1  0
 26 55  1  0
 27 56  1  0
 27 57  1  0
 28 58  1  0
 28 59  1  0
 29 60  1  0
 29 61  1  0
 31 62  1  0
 32 63  1  0
 35 64  1  0
 35 65  1  0
 35 66  1  0
 36 67  1  0
 37 68  1  0
 39 69  1  0
 39 70  1  0
 40 71  1  0
 41 72  1  0
M  END
$$$$
