
     RDKit          3D

 92 93  0  0  0  0  0  0  0  0999 V2000
   11.3917   -2.5453   -1.5007 C   0  0  0  0  0  0  0  0  0  0  0  0
   11.2011   -1.8719   -0.1491 C   0  0  0  0  0  0  0  0  0  0  0  0
    9.8046   -1.2746    0.0392 C   0  0  0  0  0  0  0  0  0  0  0  0
    9.5354   -0.0693   -0.8709 C   0  0  0  0  0  0  0  0  0  0  0  0
    8.2001    0.6143   -0.5537 C   0  0  0  0  0  0  0  0  0  0  0  0
    6.9892   -0.1861   -1.0463 C   0  0  0  0  0  0  0  0  0  0  0  0
    5.6548    0.4962   -0.7225 C   0  0  0  0  0  0  0  0  0  0  0  0
    5.2990    0.3977    0.7655 C   0  0  0  0  0  0  0  0  0  0  0  0
    3.9137    0.9610    1.1019 C   0  0  0  0  0  0  0  0  0  0  0  0
    3.7918    2.4685    0.8445 C   0  0  0  0  0  0  0  0  0  0  0  0
    2.5557    3.1076    1.4879 C   0  0  0  0  0  0  0  0  0  0  0  0
    1.2831    3.1073    0.6317 C   0  0  0  0  0  0  0  0  0  0  0  0
    0.7088    1.7206    0.3537 C   0  0  0  0  0  0  0  0  0  0  0  0
   -0.7007    1.8088   -0.2412 C   0  0  0  0  0  0  0  0  0  0  0  0
   -1.2687    0.4535   -0.6873 C   0  0  0  0  0  0  0  0  0  0  0  0
   -1.3737   -0.6404    0.3835 C   0  0  0  0  0  0  0  0  0  0  0  0
   -2.7036   -0.6793    1.1752 N   0  0  0  0  0  4  0  0  0  0  0  0
   -2.5105   -1.7130    2.2993 C   0  0  0  0  0  0  0  0  0  0  0  0
   -3.0302    0.6635    1.8046 C   0  0  0  0  0  0  0  0  0  0  0  0
   -3.8505   -1.1594    0.2406 C   0  0  0  0  0  0  0  0  0  0  0  0
   -5.2373   -1.2614    0.9182 C   0  0  0  0  0  0  0  0  0  0  0  0
   -6.2253   -1.9428    0.0817 N   0  0  0  0  0  0  0  0  0  0  0  0
   -6.8192   -1.2906   -1.0907 C   0  0  0  0  0  0  0  0  0  0  0  0
   -7.1081    0.1798   -0.8671 C   0  0  0  0  0  0  0  0  0  0  0  0
   -7.9585    0.5908    0.1702 C   0  0  0  0  0  0  0  0  0  0  0  0
   -8.1878    1.9484    0.3989 C   0  0  0  0  0  0  0  0  0  0  0  0
   -7.6070    2.9143   -0.4245 C   0  0  0  0  0  0  0  0  0  0  0  0
   -7.8897    4.2086   -0.0909 O   0  0  0  0  0  0  0  0  0  0  0  0
   -7.8030    5.1556   -1.1514 C   0  0  0  0  0  0  0  0  0  0  0  0
   -6.7818    2.5143   -1.4764 C   0  0  0  0  0  0  0  0  0  0  0  0
   -6.5337    1.1552   -1.6953 C   0  0  0  0  0  0  0  0  0  0  0  0
   -6.0223   -3.3179   -0.0709 C   0  0  0  0  0  0  0  0  0  0  0  0
   -5.1864   -3.9425    0.7826 N   0  0  0  0  0  0  0  0  0  0  0  0
   -5.0024   -5.2690    0.6166 C   0  0  0  0  0  0  0  0  0  0  0  0
   -5.5919   -5.9991   -0.3789 C   0  0  0  0  0  0  0  0  0  0  0  0
   -6.4095   -5.2828   -1.2111 C   0  0  0  0  0  0  0  0  0  0  0  0
   -6.6260   -3.9590   -1.0795 N   0  0  0  0  0  0  0  0  0  0  0  0
   12.3728   -3.0274   -1.5428 H   0  0  0  0  0  0  0  0  0  0  0  0
   10.6299   -3.3123   -1.6686 H   0  0  0  0  0  0  0  0  0  0  0  0
   11.3452   -1.8223   -2.3223 H   0  0  0  0  0  0  0  0  0  0  0  0
   11.9624   -1.0939   -0.0140 H   0  0  0  0  0  0  0  0  0  0  0  0
   11.3683   -2.6154    0.6402 H   0  0  0  0  0  0  0  0  0  0  0  0
    9.0539   -2.0537   -0.1267 H   0  0  0  0  0  0  0  0  0  0  0  0
    9.7075   -0.9572    1.0871 H   0  0  0  0  0  0  0  0  0  0  0  0
    9.5517   -0.3743   -1.9250 H   0  0  0  0  0  0  0  0  0  0  0  0
   10.3404    0.6626   -0.7330 H   0  0  0  0  0  0  0  0  0  0  0  0
    8.1883    1.5974   -1.0387 H   0  0  0  0  0  0  0  0  0  0  0  0
    8.1345    0.7919    0.5239 H   0  0  0  0  0  0  0  0  0  0  0  0
    6.9945   -1.1941   -0.6192 H   0  0  0  0  0  0  0  0  0  0  0  0
    7.0620   -0.3023   -2.1346 H   0  0  0  0  0  0  0  0  0  0  0  0
    4.8619    0.0127   -1.3087 H   0  0  0  0  0  0  0  0  0  0  0  0
    5.6932    1.5474   -1.0374 H   0  0  0  0  0  0  0  0  0  0  0  0
    5.3197   -0.6581    1.0661 H   0  0  0  0  0  0  0  0  0  0  0  0
    6.0501    0.9157    1.3720 H   0  0  0  0  0  0  0  0  0  0  0  0
    3.7192    0.7597    2.1638 H   0  0  0  0  0  0  0  0  0  0  0  0
    3.1624    0.4066    0.5339 H   0  0  0  0  0  0  0  0  0  0  0  0
    3.8034    2.6803   -0.2314 H   0  0  0  0  0  0  0  0  0  0  0  0
    4.6780    2.9592    1.2727 H   0  0  0  0  0  0  0  0  0  0  0  0
    2.3495    2.6523    2.4634 H   0  0  0  0  0  0  0  0  0  0  0  0
    2.7966    4.1580    1.6919 H   0  0  0  0  0  0  0  0  0  0  0  0
    1.4766    3.6237   -0.3164 H   0  0  0  0  0  0  0  0  0  0  0  0
    0.5299    3.7033    1.1635 H   0  0  0  0  0  0  0  0  0  0  0  0
    1.3542    1.1913   -0.3507 H   0  0  0  0  0  0  0  0  0  0  0  0
    0.6896    1.1541    1.2896 H   0  0  0  0  0  0  0  0  0  0  0  0
   -1.3711    2.3001    0.4682 H   0  0  0  0  0  0  0  0  0  0  0  0
   -0.6672    2.4595   -1.1239 H   0  0  0  0  0  0  0  0  0  0  0  0
   -2.2250    0.6242   -1.1870 H   0  0  0  0  0  0  0  0  0  0  0  0
   -0.5964    0.0726   -1.4676 H   0  0  0  0  0  0  0  0  0  0  0  0
   -1.2879   -1.6225   -0.0990 H   0  0  0  0  0  0  0  0  0  0  0  0
   -0.5659   -0.5685    1.1163 H   0  0  0  0  0  0  0  0  0  0  0  0
   -2.3544   -2.6957    1.8435 H   0  0  0  0  0  0  0  0  0  0  0  0
   -1.6362   -1.4168    2.8876 H   0  0  0  0  0  0  0  0  0  0  0  0
   -3.3918   -1.7138    2.9446 H   0  0  0  0  0  0  0  0  0  0  0  0
   -3.8456    0.5309    2.5215 H   0  0  0  0  0  0  0  0  0  0  0  0
   -2.1406    1.0225    2.3292 H   0  0  0  0  0  0  0  0  0  0  0  0
   -3.3386    1.3561    1.0171 H   0  0  0  0  0  0  0  0  0  0  0  0
   -3.5255   -2.1200   -0.1740 H   0  0  0  0  0  0  0  0  0  0  0  0
   -3.9149   -0.4471   -0.5870 H   0  0  0  0  0  0  0  0  0  0  0  0
   -5.1836   -1.7659    1.8879 H   0  0  0  0  0  0  0  0  0  0  0  0
   -5.5798   -0.2540    1.1698 H   0  0  0  0  0  0  0  0  0  0  0  0
   -7.7739   -1.7626   -1.3589 H   0  0  0  0  0  0  0  0  0  0  0  0
   -6.1451   -1.3998   -1.9515 H   0  0  0  0  0  0  0  0  0  0  0  0
   -8.4332   -0.1470    0.8160 H   0  0  0  0  0  0  0  0  0  0  0  0
   -8.8369    2.2567    1.2154 H   0  0  0  0  0  0  0  0  0  0  0  0
   -8.2518    6.0912   -0.8022 H   0  0  0  0  0  0  0  0  0  0  0  0
   -6.7604    5.3636   -1.4060 H   0  0  0  0  0  0  0  0  0  0  0  0
   -8.3612    4.8240   -2.0324 H   0  0  0  0  0  0  0  0  0  0  0  0
   -6.3135    3.2380   -2.1366 H   0  0  0  0  0  0  0  0  0  0  0  0
   -5.8946    0.8670   -2.5278 H   0  0  0  0  0  0  0  0  0  0  0  0
   -4.3412   -5.7413    1.3395 H   0  0  0  0  0  0  0  0  0  0  0  0
   -5.4290   -7.0601   -0.4988 H   0  0  0  0  0  0  0  0  0  0  0  0
   -6.9314   -5.7582   -2.0373 H   0  0  0  0  0  0  0  0  0  0  0  0
  1  2  1  0
  2  3  1  0
  3  4  1  0
  4  5  1  0
  5  6  1  0
  6  7  1  0
  7  8  1  0
  8  9  1  0
  9 10  1  0
 10 11  1  0
 11 12  1  0
 12 13  1  0
 13 14  1  0
 14 15  1  0
 15 16  1  0
 16 17  1  0
 17 18  1  0
 17 19  1  0
 17 20  1  0
 20 21  1  0
 21 22  1  0
 22 23  1  0
 23 24  1  0
 24 25  2  0
 25 26  1  0
 26 27  2  0
 27 28  1  0
 28 29  1  0
 27 30  1  0
 30 31  2  0
 22 32  1  0
 32 33  2  0
 33 34  1  0
 34 35  2  0
 35 36  1  0
 36 37  2  0
 31 24  1  0
 37 32  1  0
  1 38  1  0
  1 39  1  0
  1 40  1  0
  2 41  1  0
  2 42  1  0
  3 43  1  0
  3 44  1  0
  4 45  1  0
  4 46  1  0
  5 47  1  0
  5 48  1  0
  6 49  1  0
  6 50  1  0
  7 51  1  0
  7 52  1  0
  8 53  1  0
  8 54  1  0
  9 55  1  0
  9 56  1  0
 10 57  1  0
 10 58  1  0
 11 59  1  0
 11 60  1  0
 12 61  1  0
 12 62  1  0
 13 63  1  0
 13 64  1  0
 14 65  1  0
 14 66  1  0
 15 67  1  0
 15 68  1  0
 16 69  1  0
 16 70  1  0
 18 71  1  0
 18 72  1  0
 18 73  1  0
 19 74  1  0
 19 75  1  0
 19 76  1  0
 20 77  1  0
 20 78  1  0
 21 79  1  0
 21 80  1  0
 23 81  1  0
 23 82  1  0
 25 83  1  0
 26 84  1  0
 29 85  1  0
 29 86  1  0
 29 87  1  0
 30 88  1  0
 31 89  1  0
 34 90  1  0
 35 91  1  0
 36 92  1  0
M  CHG  1  17   1
M  END
$$$$
