
     RDKit          3D

 53 56  0  0  0  0  0  0  0  0999 V2000
   -0.6843    1.4952   -4.8698 C   0  0  0  0  0  0  0  0  0  0  0  0
   -0.9627    0.8180   -3.6514 O   0  0  0  0  0  0  0  0  0  0  0  0
    0.0113   -0.0119   -3.1689 C   0  0  0  0  0  0  0  0  0  0  0  0
    1.2318   -0.2885   -3.7801 C   0  0  0  0  0  0  0  0  0  0  0  0
    2.1456   -1.1573   -3.1708 C   0  0  0  0  0  0  0  0  0  0  0  0
    1.8497   -1.7531   -1.9422 C   0  0  0  0  0  0  0  0  0  0  0  0
    2.6909   -2.6132   -1.2855 O   0  0  0  0  0  0  0  0  0  0  0  0
    4.0819   -2.4110   -1.5176 C   0  0  0  0  0  0  0  0  0  0  0  0
    0.6138   -1.4994   -1.3278 C   0  0  0  0  0  0  0  0  0  0  0  0
    0.2574   -2.1106    0.0082 C   0  0  0  0  0  0  0  0  0  0  0  0
    0.9782   -1.5288    1.1580 N   0  0  0  0  0  0  0  0  0  0  0  0
    0.7441   -0.1162    1.2917 N   0  0  0  0  0  0  0  0  0  0  0  0
   -0.4303    0.3905    1.8596 C   0  0  0  0  0  0  0  0  0  0  0  0
   -1.4223   -0.5392    2.4653 C   0  0  0  0  0  0  0  0  0  0  0  0
   -1.0396   -1.5018    3.4035 C   0  0  0  0  0  0  0  0  0  0  0  0
   -1.9984   -2.3476    3.9608 C   0  0  0  0  0  0  0  0  0  0  0  0
   -3.3399   -2.2213    3.5955 C   0  0  0  0  0  0  0  0  0  0  0  0
   -3.7404   -1.2393    2.6802 C   0  0  0  0  0  0  0  0  0  0  0  0
   -5.1831   -1.1234    2.2849 C   0  0  0  0  0  0  0  0  0  0  0  0
   -2.7726   -0.3989    2.1156 C   0  0  0  0  0  0  0  0  0  0  0  0
   -0.7049    1.6612    1.8764 N   0  0  0  0  0  0  0  0  0  0  0  0
    0.2234    2.5598    1.3345 C   0  0  0  0  0  0  0  0  0  0  0  0
   -0.0955    3.9201    1.3149 C   0  0  0  0  0  0  0  0  0  0  0  0
    0.8065    4.8580    0.8035 C   0  0  0  0  0  0  0  0  0  0  0  0
    2.0410    4.4422    0.3061 C   0  0  0  0  0  0  0  0  0  0  0  0
    2.3727    3.0881    0.3195 C   0  0  0  0  0  0  0  0  0  0  0  0
    1.4608    2.1580    0.8335 C   0  0  0  0  0  0  0  0  0  0  0  0
    1.7762    0.7211    0.8525 C   0  0  0  0  0  0  0  0  0  0  0  0
    2.8911    0.3231    0.5129 O   0  0  0  0  0  0  0  0  0  0  0  0
   -0.2916   -0.6207   -1.9494 C   0  0  0  0  0  0  0  0  0  0  0  0
    0.1884    2.1487   -4.7685 H   0  0  0  0  0  0  0  0  0  0  0  0
   -1.5460    2.1268   -5.1065 H   0  0  0  0  0  0  0  0  0  0  0  0
   -0.5548    0.7863   -5.6941 H   0  0  0  0  0  0  0  0  0  0  0  0
    1.5073    0.1518   -4.7326 H   0  0  0  0  0  0  0  0  0  0  0  0
    3.0815   -1.3578   -3.6834 H   0  0  0  0  0  0  0  0  0  0  0  0
    4.6298   -2.9625   -0.7481 H   0  0  0  0  0  0  0  0  0  0  0  0
    4.3605   -1.3548   -1.4348 H   0  0  0  0  0  0  0  0  0  0  0  0
    4.3739   -2.8193   -2.4899 H   0  0  0  0  0  0  0  0  0  0  0  0
   -0.8251   -2.0512    0.1695 H   0  0  0  0  0  0  0  0  0  0  0  0
    0.4732   -3.1861   -0.0258 H   0  0  0  0  0  0  0  0  0  0  0  0
    1.9810   -1.6266    0.9476 H   0  0  0  0  0  0  0  0  0  0  0  0
    0.0002   -1.5982    3.7043 H   0  0  0  0  0  0  0  0  0  0  0  0
   -1.6999   -3.1039    4.6829 H   0  0  0  0  0  0  0  0  0  0  0  0
   -4.0755   -2.8914    4.0362 H   0  0  0  0  0  0  0  0  0  0  0  0
   -5.4498   -1.9342    1.5993 H   0  0  0  0  0  0  0  0  0  0  0  0
   -5.8272   -1.1739    3.1689 H   0  0  0  0  0  0  0  0  0  0  0  0
   -5.3847   -0.1687    1.7872 H   0  0  0  0  0  0  0  0  0  0  0  0
   -3.0634    0.3687    1.4009 H   0  0  0  0  0  0  0  0  0  0  0  0
   -1.0550    4.2482    1.7073 H   0  0  0  0  0  0  0  0  0  0  0  0
    0.5438    5.9134    0.7989 H   0  0  0  0  0  0  0  0  0  0  0  0
    2.7436    5.1713   -0.0899 H   0  0  0  0  0  0  0  0  0  0  0  0
    3.3337    2.7583   -0.0674 H   0  0  0  0  0  0  0  0  0  0  0  0
   -1.2462   -0.3978   -1.4754 H   0  0  0  0  0  0  0  0  0  0  0  0
  1  2  1  0
  2  3  1  0
  3  4  2  0
  4  5  1  0
  5  6  2  0
  6  7  1  0
  7  8  1  0
  6  9  1  0
  9 10  1  0
 10 11  1  0
 11 12  1  0
 12 13  1  0
 13 14  1  0
 14 15  2  0
 15 16  1  0
 16 17  2  0
 17 18  1  0
 18 19  1  0
 18 20  2  0
 13 21  2  0
 21 22  1  0
 22 23  2  0
 23 24  1  0
 24 25  2  0
 25 26  1  0
 26 27  2  0
 27 28  1  0
 28 29  2  0
  9 30  2  0
 30  3  1  0
 28 12  1  0
 20 14  1  0
 27 22  1  0
  1 31  1  0
  1 32  1  0
  1 33  1  0
  4 34  1  0
  5 35  1  0
  8 36  1  0
  8 37  1  0
  8 38  1  0
 10 39  1  0
 10 40  1  0
 11 41  1  0
 15 42  1  0
 16 43  1  0
 17 44  1  0
 19 45  1  0
 19 46  1  0
 19 47  1  0
 20 48  1  0
 23 49  1  0
 24 50  1  0
 25 51  1  0
 26 52  1  0
 30 53  1  0
M  END
$$$$
