
     RDKit          3D

 38 39  0  0  0  0  0  0  0  0999 V2000
   -1.7681    0.8179   -1.6865 O   0  0  0  0  0  0  0  0  0  0  0  0
   -0.6735    0.7085   -1.1579 C   0  0  0  0  0  0  0  0  0  0  0  0
    0.5391    1.0026   -1.7313 N   0  0  0  0  0  0  0  0  0  0  0  0
    0.6299    1.6869   -3.0048 C   0  0  0  0  0  0  0  0  0  0  0  0
    2.0236    1.5410   -3.6080 C   0  0  0  0  0  0  0  0  0  0  0  0
    2.9884    2.1107   -2.7235 O   0  0  0  0  0  0  0  0  0  0  0  0
   -0.5668    0.2347    0.2893 C   0  0  0  0  0  0  0  0  0  0  0  0
   -1.5494   -0.8474    0.6896 C   0  0  0  0  0  0  0  0  0  0  0  0
   -1.2830   -2.1595   -0.0117 C   0  0  0  0  0  0  0  0  0  0  0  0
   -1.9656   -2.4853   -1.1934 C   0  0  0  0  0  0  0  0  0  0  0  0
   -1.7049   -3.6861   -1.8572 C   0  0  0  0  0  0  0  0  0  0  0  0
   -0.7581   -4.5681   -1.3428 C   0  0  0  0  0  0  0  0  0  0  0  0
   -0.4021   -6.1925   -2.2414 Br  0  0  0  0  0  0  0  0  0  0  0  0
   -0.0703   -4.2598   -0.1718 C   0  0  0  0  0  0  0  0  0  0  0  0
   -0.3315   -3.0579    0.4906 C   0  0  0  0  0  0  0  0  0  0  0  0
    0.3349    0.8279    1.0195 N   0  0  0  0  0  0  0  0  0  0  0  0
    0.4831    0.4379    2.3250 C   0  0  0  0  0  0  0  0  0  0  0  0
    0.7064   -0.7176    2.6634 O   0  0  0  0  0  0  0  0  0  0  0  0
    0.3711    1.5742    3.2291 C   0  0  0  0  0  0  0  0  0  0  0  0
    0.1900    2.9181    2.9451 C   0  0  0  0  0  0  0  0  0  0  0  0
    0.1232    3.7244    4.1188 C   0  0  0  0  0  0  0  0  0  0  0  0
    0.2549    2.9745    5.2649 C   0  0  0  0  0  0  0  0  0  0  0  0
    0.4580    1.3122    4.9238 S   0  0  0  0  0  0  0  0  0  0  0  0
    1.3249    1.1097   -1.0937 H   0  0  0  0  0  0  0  0  0  0  0  0
   -0.1303    1.2888   -3.6847 H   0  0  0  0  0  0  0  0  0  0  0  0
    0.4050    2.7414   -2.8109 H   0  0  0  0  0  0  0  0  0  0  0  0
    2.2752    0.4860   -3.7570 H   0  0  0  0  0  0  0  0  0  0  0  0
    2.0800    2.0639   -4.5674 H   0  0  0  0  0  0  0  0  0  0  0  0
    3.8599    1.9843   -3.1380 H   0  0  0  0  0  0  0  0  0  0  0  0
   -2.5603   -0.4961    0.4464 H   0  0  0  0  0  0  0  0  0  0  0  0
   -1.5636   -1.0053    1.7716 H   0  0  0  0  0  0  0  0  0  0  0  0
   -2.7041   -1.8019   -1.6110 H   0  0  0  0  0  0  0  0  0  0  0  0
   -2.2435   -3.9201   -2.7716 H   0  0  0  0  0  0  0  0  0  0  0  0
    0.6696   -4.9439    0.2351 H   0  0  0  0  0  0  0  0  0  0  0  0
    0.2144   -2.8337    1.4053 H   0  0  0  0  0  0  0  0  0  0  0  0
    0.1127    3.3091    1.9369 H   0  0  0  0  0  0  0  0  0  0  0  0
   -0.0126    4.7993    4.1210 H   0  0  0  0  0  0  0  0  0  0  0  0
    0.2436    3.3214    6.2893 H   0  0  0  0  0  0  0  0  0  0  0  0
  1  2  2  0
  2  3  1  0
  3  4  1  0
  4  5  1  0
  5  6  1  0
  2  7  1  0
  7  8  1  0
  8  9  1  0
  9 10  2  0
 10 11  1  0
 11 12  2  0
 12 13  1  0
 12 14  1  0
 14 15  2  0
  7 16  2  3
 16 17  1  0
 17 18  2  0
 17 19  1  0
 19 20  2  0
 20 21  1  0
 21 22  2  0
 22 23  1  0
 15  9  1  0
 23 19  1  0
  3 24  1  0
  4 25  1  0
  4 26  1  0
  5 27  1  0
  5 28  1  0
  6 29  1  0
  8 30  1  0
  8 31  1  0
 10 32  1  0
 11 33  1  0
 14 34  1  0
 15 35  1  0
 20 36  1  0
 21 37  1  0
 22 38  1  0
M  END
$$$$
