
     RDKit          3D

 53 56  0  0  0  0  0  0  0  0999 V2000
    6.2070    2.1562   -3.7623 C   0  0  0  0  0  0  0  0  0  0  0  0
    5.3550    1.1981   -3.1468 O   0  0  0  0  0  0  0  0  0  0  0  0
    5.0525    1.3928   -1.8264 C   0  0  0  0  0  0  0  0  0  0  0  0
    5.4990    2.4485   -1.0293 C   0  0  0  0  0  0  0  0  0  0  0  0
    5.1122    2.5281    0.3132 C   0  0  0  0  0  0  0  0  0  0  0  0
    4.2691    1.5579    0.8568 C   0  0  0  0  0  0  0  0  0  0  0  0
    3.9408    1.6264    2.1877 O   0  0  0  0  0  0  0  0  0  0  0  0
    2.9626    2.6427    2.4067 C   0  0  0  0  0  0  0  0  0  0  0  0
    3.8333    0.4811    0.0753 C   0  0  0  0  0  0  0  0  0  0  0  0
    2.9797   -0.5538    0.6242 C   0  0  0  0  0  0  0  0  0  0  0  0
    3.4010   -1.8570    0.7970 C   0  0  0  0  0  0  0  0  0  0  0  0
    2.1227   -2.7833    1.4600 S   0  0  0  0  0  0  0  0  0  0  0  0
    1.1261   -1.4015    1.4573 C   0  0  0  0  0  0  0  0  0  0  0  0
   -0.1725   -1.4154    1.8912 N   0  0  0  0  0  0  0  0  0  0  0  0
   -0.9006   -2.4948    2.3467 C   0  0  0  0  0  0  0  0  0  0  0  0
   -0.4824   -3.6381    2.5187 O   0  0  0  0  0  0  0  0  0  0  0  0
   -2.3279   -2.1336    2.7181 C   0  0  0  0  0  0  0  0  0  0  0  0
   -3.0922   -1.6434    1.5816 N   0  0  0  0  0  0  0  0  0  0  0  0
   -3.0842   -0.3424    1.1309 C   0  0  0  0  0  0  0  0  0  0  0  0
   -2.3066    0.5694    1.7063 O   0  0  0  0  0  0  0  0  0  0  0  0
   -3.9441   -0.2656    0.0567 C   0  0  0  0  0  0  0  0  0  0  0  0
   -4.4741   -1.5741   -0.1579 C   0  0  0  0  0  0  0  0  0  0  0  0
   -3.9345   -2.4014    0.8042 C   0  0  0  0  0  0  0  0  0  0  0  0
   -4.1032   -3.6941    1.0481 O   0  0  0  0  0  0  0  0  0  0  0  0
   -5.4487   -1.8861   -1.2440 C   0  0  0  0  0  0  0  0  0  0  0  0
   -5.4752   -0.7795   -2.3099 C   0  0  0  0  0  0  0  0  0  0  0  0
   -5.5193    0.6204   -1.6780 C   0  0  0  0  0  0  0  0  0  0  0  0
   -4.2814    0.8999   -0.8128 C   0  0  0  0  0  0  0  0  0  0  0  0
    1.6734   -0.2966    1.0037 N   0  0  0  0  0  0  0  0  0  0  0  0
    4.2228    0.4143   -1.2701 C   0  0  0  0  0  0  0  0  0  0  0  0
    5.7576    3.1547   -3.7477 H   0  0  0  0  0  0  0  0  0  0  0  0
    7.1974    2.1597   -3.2963 H   0  0  0  0  0  0  0  0  0  0  0  0
    6.3325    1.8662   -4.8095 H   0  0  0  0  0  0  0  0  0  0  0  0
    6.1533    3.2218   -1.4168 H   0  0  0  0  0  0  0  0  0  0  0  0
    5.4802    3.3406    0.9352 H   0  0  0  0  0  0  0  0  0  0  0  0
    3.4582    3.6109    2.5461 H   0  0  0  0  0  0  0  0  0  0  0  0
    2.4228    2.3984    3.3276 H   0  0  0  0  0  0  0  0  0  0  0  0
    2.2295    2.7077    1.5910 H   0  0  0  0  0  0  0  0  0  0  0  0
    4.3651   -2.2945    0.5814 H   0  0  0  0  0  0  0  0  0  0  0  0
   -0.6389   -0.5186    1.7916 H   0  0  0  0  0  0  0  0  0  0  0  0
   -2.3268   -1.3631    3.4966 H   0  0  0  0  0  0  0  0  0  0  0  0
   -2.8356   -3.0129    3.1277 H   0  0  0  0  0  0  0  0  0  0  0  0
   -2.4835    1.4168    1.2552 H   0  0  0  0  0  0  0  0  0  0  0  0
   -4.7237   -4.0382    0.3826 H   0  0  0  0  0  0  0  0  0  0  0  0
   -6.4471   -1.9878   -0.8012 H   0  0  0  0  0  0  0  0  0  0  0  0
   -5.2013   -2.8424   -1.7190 H   0  0  0  0  0  0  0  0  0  0  0  0
   -4.5833   -0.8577   -2.9449 H   0  0  0  0  0  0  0  0  0  0  0  0
   -6.3444   -0.9237   -2.9615 H   0  0  0  0  0  0  0  0  0  0  0  0
   -5.5947    1.3823   -2.4609 H   0  0  0  0  0  0  0  0  0  0  0  0
   -6.4230    0.7044   -1.0616 H   0  0  0  0  0  0  0  0  0  0  0  0
   -3.4233    1.1113   -1.4615 H   0  0  0  0  0  0  0  0  0  0  0  0
   -4.4584    1.7930   -0.2027 H   0  0  0  0  0  0  0  0  0  0  0  0
    3.8768   -0.4041   -1.8981 H   0  0  0  0  0  0  0  0  0  0  0  0
  1  2  1  0
  2  3  1  0
  3  4  2  0
  4  5  1  0
  5  6  2  0
  6  7  1  0
  7  8  1  0
  6  9  1  0
  9 10  1  0
 10 11  2  0
 11 12  1  0
 12 13  1  0
 13 14  1  0
 14 15  1  0
 15 16  2  0
 15 17  1  0
 17 18  1  0
 18 19  1  0
 19 20  1  0
 19 21  2  0
 21 22  1  0
 22 23  2  0
 23 24  1  0
 22 25  1  0
 25 26  1  0
 26 27  1  0
 27 28  1  0
 13 29  2  0
  9 30  2  0
 30  3  1  0
 29 10  1  0
 23 18  1  0
 28 21  1  0
  1 31  1  0
  1 32  1  0
  1 33  1  0
  4 34  1  0
  5 35  1  0
  8 36  1  0
  8 37  1  0
  8 38  1  0
 11 39  1  0
 14 40  1  0
 17 41  1  0
 17 42  1  0
 20 43  1  0
 24 44  1  0
 25 45  1  0
 25 46  1  0
 26 47  1  0
 26 48  1  0
 27 49  1  0
 27 50  1  0
 28 51  1  0
 28 52  1  0
 30 53  1  0
M  END
$$$$
