
     RDKit          3D

 53 55  0  0  0  0  0  0  0  0999 V2000
    7.3119   -2.6139    1.7101 C   0  0  0  0  0  0  0  0  0  0  0  0
    7.2125   -1.8719    0.5016 O   0  0  0  0  0  0  0  0  0  0  0  0
    5.9650   -1.7414   -0.0469 C   0  0  0  0  0  0  0  0  0  0  0  0
    5.9238   -0.9865   -1.2208 C   0  0  0  0  0  0  0  0  0  0  0  0
    4.7139   -0.7687   -1.8859 C   0  0  0  0  0  0  0  0  0  0  0  0
    3.5179   -1.3012   -1.3819 C   0  0  0  0  0  0  0  0  0  0  0  0
    2.2899   -1.0815   -2.0303 C   0  0  0  0  0  0  0  0  0  0  0  0
    1.0880   -1.5985   -1.5132 C   0  0  0  0  0  0  0  0  0  0  0  0
   -0.2300   -1.2876   -2.2120 C   0  0  0  0  0  0  0  0  0  0  0  0
   -0.9178   -2.5720   -2.6903 C   0  0  0  0  0  0  0  0  0  0  0  0
   -1.1784   -0.4218   -1.3591 C   0  0  0  0  0  0  0  0  0  0  0  0
   -2.3752   -0.6857   -1.2553 O   0  0  0  0  0  0  0  0  0  0  0  0
   -0.5505    0.6816   -0.7925 N   0  0  0  0  0  0  0  0  0  0  0  0
   -1.1541    1.7282   -0.0681 C   0  0  0  0  0  0  0  0  0  0  0  0
   -0.3006    2.5893    0.6389 C   0  0  0  0  0  0  0  0  0  0  0  0
   -0.8150    3.6484    1.3922 C   0  0  0  0  0  0  0  0  0  0  0  0
   -2.1901    3.8677    1.4352 C   0  0  0  0  0  0  0  0  0  0  0  0
   -3.0385    3.0265    0.7110 C   0  0  0  0  0  0  0  0  0  0  0  0
   -4.7909    3.3171    0.7511 S   0  0  0  0  0  6  0  0  0  0  0  0
   -5.1063    3.9871    1.9959 O   0  0  0  0  0  0  0  0  0  0  0  0
   -5.1465    3.8932   -0.5293 O   0  0  0  0  0  0  0  0  0  0  0  0
   -5.4647    1.7515    0.8525 N   0  0  0  0  0  0  0  0  0  0  0  0
   -5.2015    1.0241    2.1149 C   0  0  0  0  0  0  0  0  0  0  0  0
   -6.8958    1.7000    0.4810 C   0  0  0  0  0  0  0  0  0  0  0  0
   -2.5303    1.9591   -0.0394 C   0  0  0  0  0  0  0  0  0  0  0  0
    1.1316   -2.3593   -0.3374 C   0  0  0  0  0  0  0  0  0  0  0  0
    2.3484   -2.5921    0.3118 C   0  0  0  0  0  0  0  0  0  0  0  0
    3.5498   -2.0658   -0.1932 C   0  0  0  0  0  0  0  0  0  0  0  0
    4.7793   -2.2816    0.4619 C   0  0  0  0  0  0  0  0  0  0  0  0
    8.3612   -2.6045    2.0218 H   0  0  0  0  0  0  0  0  0  0  0  0
    7.0176   -3.6577    1.5583 H   0  0  0  0  0  0  0  0  0  0  0  0
    6.7241   -2.1502    2.5070 H   0  0  0  0  0  0  0  0  0  0  0  0
    6.8424   -0.5601   -1.6212 H   0  0  0  0  0  0  0  0  0  0  0  0
    4.7169   -0.1766   -2.7983 H   0  0  0  0  0  0  0  0  0  0  0  0
    2.2724   -0.4943   -2.9492 H   0  0  0  0  0  0  0  0  0  0  0  0
   -0.0218   -0.6894   -3.1117 H   0  0  0  0  0  0  0  0  0  0  0  0
   -1.8022   -2.3377   -3.2954 H   0  0  0  0  0  0  0  0  0  0  0  0
   -0.2412   -3.1740   -3.3074 H   0  0  0  0  0  0  0  0  0  0  0  0
   -1.2553   -3.1928   -1.8508 H   0  0  0  0  0  0  0  0  0  0  0  0
    0.4635    0.6754   -0.7975 H   0  0  0  0  0  0  0  0  0  0  0  0
    0.7776    2.4383    0.6256 H   0  0  0  0  0  0  0  0  0  0  0  0
   -0.1414    4.3027    1.9418 H   0  0  0  0  0  0  0  0  0  0  0  0
   -2.5916    4.6938    2.0176 H   0  0  0  0  0  0  0  0  0  0  0  0
   -4.1651    1.1387    2.4402 H   0  0  0  0  0  0  0  0  0  0  0  0
   -5.8676    1.3679    2.9120 H   0  0  0  0  0  0  0  0  0  0  0  0
   -5.3677   -0.0448    1.9535 H   0  0  0  0  0  0  0  0  0  0  0  0
   -7.5043    2.2970    1.1726 H   0  0  0  0  0  0  0  0  0  0  0  0
   -7.0392    2.0611   -0.5440 H   0  0  0  0  0  0  0  0  0  0  0  0
   -7.2518    0.6615    0.5106 H   0  0  0  0  0  0  0  0  0  0  0  0
   -3.2233    1.3394   -0.6021 H   0  0  0  0  0  0  0  0  0  0  0  0
    0.2197   -2.7771    0.0911 H   0  0  0  0  0  0  0  0  0  0  0  0
    2.3483   -3.1871    1.2248 H   0  0  0  0  0  0  0  0  0  0  0  0
    4.7828   -2.8736    1.3745 H   0  0  0  0  0  0  0  0  0  0  0  0
  1  2  1  0
  2  3  1  0
  3  4  2  0
  4  5  1  0
  5  6  2  0
  6  7  1  0
  7  8  2  0
  8  9  1  0
  9 10  1  0
  9 11  1  0
 11 12  2  0
 11 13  1  0
 13 14  1  0
 14 15  2  0
 15 16  1  0
 16 17  2  0
 17 18  1  0
 18 19  1  0
 19 20  2  0
 19 21  2  0
 19 22  1  0
 22 23  1  0
 22 24  1  0
 18 25  2  0
  8 26  1  0
 26 27  2  0
 27 28  1  0
 28 29  2  0
 29  3  1  0
 28  6  1  0
 25 14  1  0
  1 30  1  0
  1 31  1  0
  1 32  1  0
  4 33  1  0
  5 34  1  0
  7 35  1  0
  9 36  1  0
 10 37  1  0
 10 38  1  0
 10 39  1  0
 13 40  1  0
 15 41  1  0
 16 42  1  0
 17 43  1  0
 23 44  1  0
 23 45  1  0
 23 46  1  0
 24 47  1  0
 24 48  1  0
 24 49  1  0
 25 50  1  0
 26 51  1  0
 27 52  1  0
 29 53  1  0
M  END
$$$$
