
     RDKit          3D

 54 57  0  0  0  0  0  0  0  0999 V2000
   -1.9303    5.3333   -1.0394 C   0  0  0  0  0  0  0  0  0  0  0  0
   -2.1897    3.9079   -1.1541 N   0  0  0  0  0  0  0  0  0  0  0  0
   -1.2500    3.0417   -0.6099 C   0  0  0  0  0  0  0  0  0  0  0  0
   -0.1976    3.4384   -0.1203 O   0  0  0  0  0  0  0  0  0  0  0  0
   -1.5483    1.6063   -0.6841 C   0  0  0  0  0  0  0  0  0  0  0  0
   -0.8153    0.5921   -0.0861 C   0  0  0  0  0  0  0  0  0  0  0  0
    0.6131    0.7963    0.9584 S   0  0  0  0  0  0  0  0  0  0  0  0
    1.8811    0.9564   -0.3426 C   0  0  0  0  0  0  0  0  0  0  0  0
    3.3043    0.8903    0.1942 C   0  0  0  0  0  0  0  0  0  0  0  0
    4.2442    0.6008   -0.5454 O   0  0  0  0  0  0  0  0  0  0  0  0
    3.4785    1.2162    1.5165 N   0  0  0  0  0  0  0  0  0  0  0  0
    4.7499    1.1035    2.2103 C   0  0  0  0  0  0  0  0  0  0  0  0
    4.9264   -0.2295    2.9559 C   0  0  0  0  0  0  0  0  0  0  0  0
    5.0301   -1.4688    2.0736 C   0  0  0  0  0  0  0  0  0  0  0  0
    3.6693   -2.1084    2.1934 C   0  0  0  0  0  0  0  0  0  0  0  0
    3.2711   -1.7414    3.6033 C   0  0  0  0  0  0  0  0  0  0  0  0
    3.8049   -0.4329    3.8456 O   0  0  0  0  0  0  0  0  0  0  0  0
   -1.1479   -0.7128   -0.2116 N   0  0  0  0  0  0  0  0  0  0  0  0
   -2.2417   -1.0101   -0.9221 C   0  0  0  0  0  0  0  0  0  0  0  0
   -2.5947   -2.4259   -1.0660 C   0  0  0  0  0  0  0  0  0  0  0  0
   -1.5766   -3.3624   -1.3525 C   0  0  0  0  0  0  0  0  0  0  0  0
   -1.8562   -4.7212   -1.5197 C   0  0  0  0  0  0  0  0  0  0  0  0
   -3.1627   -5.1814   -1.3962 C   0  0  0  0  0  0  0  0  0  0  0  0
   -4.1843   -4.2846   -1.0932 C   0  0  0  0  0  0  0  0  0  0  0  0
   -3.9072   -2.9193   -0.9290 C   0  0  0  0  0  0  0  0  0  0  0  0
   -5.2485   -1.9093   -0.4954 Cl  0  0  0  0  0  0  0  0  0  0  0  0
   -2.9837   -0.0963   -1.5557 N   0  0  0  0  0  0  0  0  0  0  0  0
   -2.6402    1.2020   -1.4184 C   0  0  0  0  0  0  0  0  0  0  0  0
   -3.4472    2.1530   -2.0795 N   0  0  0  0  0  0  0  0  0  0  0  0
   -4.5617    1.6531   -2.8751 C   0  0  0  0  0  0  0  0  0  0  0  0
   -3.2402    3.5134   -1.9699 C   0  0  0  0  0  0  0  0  0  0  0  0
   -3.9378    4.3328   -2.5699 O   0  0  0  0  0  0  0  0  0  0  0  0
   -2.8594    5.9093   -1.0955 H   0  0  0  0  0  0  0  0  0  0  0  0
   -1.4338    5.5613   -0.0905 H   0  0  0  0  0  0  0  0  0  0  0  0
   -1.2750    5.6321   -1.8655 H   0  0  0  0  0  0  0  0  0  0  0  0
    1.7587    0.1332   -1.0559 H   0  0  0  0  0  0  0  0  0  0  0  0
    1.7647    1.9074   -0.8722 H   0  0  0  0  0  0  0  0  0  0  0  0
    2.6462    1.2751    2.0961 H   0  0  0  0  0  0  0  0  0  0  0  0
    5.5742    1.2680    1.5088 H   0  0  0  0  0  0  0  0  0  0  0  0
    4.7509    1.9191    2.9421 H   0  0  0  0  0  0  0  0  0  0  0  0
    5.8291   -0.1498    3.5754 H   0  0  0  0  0  0  0  0  0  0  0  0
    5.7793   -2.1488    2.4971 H   0  0  0  0  0  0  0  0  0  0  0  0
    5.3309   -1.2645    1.0441 H   0  0  0  0  0  0  0  0  0  0  0  0
    2.9762   -1.6577    1.4769 H   0  0  0  0  0  0  0  0  0  0  0  0
    3.6762   -3.1878    2.0215 H   0  0  0  0  0  0  0  0  0  0  0  0
    2.1865   -1.7305    3.7454 H   0  0  0  0  0  0  0  0  0  0  0  0
    3.7147   -2.4281    4.3327 H   0  0  0  0  0  0  0  0  0  0  0  0
   -0.5423   -3.0264   -1.4482 H   0  0  0  0  0  0  0  0  0  0  0  0
   -1.0503   -5.4162   -1.7446 H   0  0  0  0  0  0  0  0  0  0  0  0
   -3.3851   -6.2385   -1.5206 H   0  0  0  0  0  0  0  0  0  0  0  0
   -5.1996   -4.6559   -0.9740 H   0  0  0  0  0  0  0  0  0  0  0  0
   -5.2853    1.1640   -2.2141 H   0  0  0  0  0  0  0  0  0  0  0  0
   -5.0766    2.4592   -3.4056 H   0  0  0  0  0  0  0  0  0  0  0  0
   -4.1912    0.9420   -3.6206 H   0  0  0  0  0  0  0  0  0  0  0  0
  1  2  1  0
  2  3  1  0
  3  4  2  0
  3  5  1  0
  5  6  2  0
  6  7  1  0
  7  8  1  0
  8  9  1  0
  9 10  2  0
  9 11  1  0
 11 12  1  0
 12 13  1  0
 13 14  1  0
 14 15  1  0
 15 16  1  0
 16 17  1  0
  6 18  1  0
 18 19  2  0
 19 20  1  0
 20 21  2  0
 21 22  1  0
 22 23  2  0
 23 24  1  0
 24 25  2  0
 25 26  1  0
 19 27  1  0
 27 28  2  0
 28 29  1  0
 29 30  1  0
 29 31  1  0
 31 32  2  0
 31  2  1  0
 28  5  1  0
 17 13  1  0
 25 20  1  0
  1 33  1  0
  1 34  1  0
  1 35  1  0
  8 36  1  0
  8 37  1  0
 11 38  1  0
 12 39  1  0
 12 40  1  0
 13 41  1  0
 14 42  1  0
 14 43  1  0
 15 44  1  0
 15 45  1  0
 16 46  1  0
 16 47  1  0
 21 48  1  0
 22 49  1  0
 23 50  1  0
 24 51  1  0
 30 52  1  0
 30 53  1  0
 30 54  1  0
M  END
$$$$
