
     RDKit          3D

 49 52  0  0  0  0  0  0  0  0999 V2000
    6.7734    0.2808   -3.5322 C   0  0  0  0  0  0  0  0  0  0  0  0
    5.6164   -0.0509   -2.6372 C   0  0  0  0  0  0  0  0  0  0  0  0
    5.3217    0.7568   -1.5322 C   0  0  0  0  0  0  0  0  0  0  0  0
    4.2636    0.4322   -0.6792 C   0  0  0  0  0  0  0  0  0  0  0  0
    3.4919   -0.7083   -0.9167 C   0  0  0  0  0  0  0  0  0  0  0  0
    2.3850   -1.0360   -0.0171 C   0  0  0  0  0  0  0  0  0  0  0  0
    1.0946   -0.8808   -0.3473 C   0  0  0  0  0  0  0  0  0  0  0  0
    0.5296   -0.3522   -1.6501 C   0  0  0  0  0  0  0  0  0  0  0  0
   -0.9992   -0.3162   -1.4597 C   0  0  0  0  0  0  0  0  0  0  0  0
   -1.1927   -0.8664   -0.0869 C   0  0  0  0  0  0  0  0  0  0  0  0
   -0.0344   -1.1697    0.4931 C   0  0  0  0  0  0  0  0  0  0  0  0
    0.1273   -1.6393    1.7871 O   0  0  0  0  0  0  0  0  0  0  0  0
   -1.0057   -1.8889    2.4855 C   0  0  0  0  0  0  0  0  0  0  0  0
   -0.9017   -2.0328    3.7666 N   0  0  0  0  0  0  0  0  0  0  0  0
   -2.3341   -2.0454    1.7777 C   0  0  0  0  0  0  0  0  0  0  0  0
   -2.4413   -3.4426    1.3214 C   0  0  0  0  0  0  0  0  0  0  0  0
   -2.5449   -4.5306    0.9290 N   0  0  0  0  0  0  0  0  0  0  0  0
   -2.5047   -1.0801    0.5853 C   0  0  0  0  0  0  0  0  0  0  0  0
   -3.1634    0.2305    0.9980 C   0  0  0  0  0  0  0  0  0  0  0  0
   -2.5326    1.1431    1.8574 C   0  0  0  0  0  0  0  0  0  0  0  0
   -3.1667    2.3328    2.2261 C   0  0  0  0  0  0  0  0  0  0  0  0
   -4.4481    2.6316    1.7546 C   0  0  0  0  0  0  0  0  0  0  0  0
   -5.1168    3.9224    2.1238 C   0  0  0  0  0  0  0  0  0  0  0  0
   -5.0766    1.7332    0.8870 C   0  0  0  0  0  0  0  0  0  0  0  0
   -4.4435    0.5440    0.5160 C   0  0  0  0  0  0  0  0  0  0  0  0
    3.7951   -1.5276   -2.0082 C   0  0  0  0  0  0  0  0  0  0  0  0
    4.8535   -1.2031   -2.8606 C   0  0  0  0  0  0  0  0  0  0  0  0
    6.9088    1.3648   -3.6078 H   0  0  0  0  0  0  0  0  0  0  0  0
    6.6052   -0.0963   -4.5468 H   0  0  0  0  0  0  0  0  0  0  0  0
    7.6917   -0.1651   -3.1378 H   0  0  0  0  0  0  0  0  0  0  0  0
    5.9142    1.6460   -1.3283 H   0  0  0  0  0  0  0  0  0  0  0  0
    4.0459    1.0770    0.1689 H   0  0  0  0  0  0  0  0  0  0  0  0
    2.6756   -1.4061    0.9628 H   0  0  0  0  0  0  0  0  0  0  0  0
    0.7851   -1.0135   -2.4860 H   0  0  0  0  0  0  0  0  0  0  0  0
    0.9087    0.6523   -1.8705 H   0  0  0  0  0  0  0  0  0  0  0  0
   -1.3771    0.7085   -1.5372 H   0  0  0  0  0  0  0  0  0  0  0  0
   -1.5011   -0.9337   -2.2117 H   0  0  0  0  0  0  0  0  0  0  0  0
    0.0901   -1.9099    4.0079 H   0  0  0  0  0  0  0  0  0  0  0  0
   -3.1317   -1.8730    2.5133 H   0  0  0  0  0  0  0  0  0  0  0  0
   -3.1652   -1.5591   -0.1527 H   0  0  0  0  0  0  0  0  0  0  0  0
   -1.5352    0.9516    2.2471 H   0  0  0  0  0  0  0  0  0  0  0  0
   -2.6504    3.0255    2.8875 H   0  0  0  0  0  0  0  0  0  0  0  0
   -6.1973    3.7811    2.2334 H   0  0  0  0  0  0  0  0  0  0  0  0
   -4.9327    4.6736    1.3498 H   0  0  0  0  0  0  0  0  0  0  0  0
   -4.7411    4.3021    3.0794 H   0  0  0  0  0  0  0  0  0  0  0  0
   -6.0659    1.9545    0.4921 H   0  0  0  0  0  0  0  0  0  0  0  0
   -4.9653   -0.1334   -0.1572 H   0  0  0  0  0  0  0  0  0  0  0  0
    3.2134   -2.4264   -2.1991 H   0  0  0  0  0  0  0  0  0  0  0  0
    5.0785   -1.8572   -3.7001 H   0  0  0  0  0  0  0  0  0  0  0  0
  1  2  1  0
  2  3  2  0
  3  4  1  0
  4  5  2  0
  5  6  1  0
  6  7  2  3
  7  8  1  0
  8  9  1  0
  9 10  1  0
 10 11  2  0
 11 12  1  0
 12 13  1  0
 13 14  2  3
 13 15  1  0
 15 16  1  0
 16 17  3  0
 15 18  1  0
 18 19  1  0
 19 20  2  0
 20 21  1  0
 21 22  2  0
 22 23  1  0
 22 24  1  0
 24 25  2  0
  5 26  1  0
 26 27  2  0
 27  2  1  0
 11  7  1  0
 25 19  1  0
 18 10  1  0
  1 28  1  0
  1 29  1  0
  1 30  1  0
  3 31  1  0
  4 32  1  0
  6 33  1  0
  8 34  1  0
  8 35  1  0
  9 36  1  0
  9 37  1  0
 14 38  1  0
 15 39  1  0
 18 40  1  0
 20 41  1  0
 21 42  1  0
 23 43  1  0
 23 44  1  0
 23 45  1  0
 24 46  1  0
 25 47  1  0
 26 48  1  0
 27 49  1  0
M  END
$$$$
