
     RDKit          3D

 55 58  0  0  0  0  0  0  0  0999 V2000
   -8.5498   -1.7886    1.3302 C   0  0  0  0  0  0  0  0  0  0  0  0
   -7.5359   -1.8711    0.1949 C   0  0  0  0  0  0  0  0  0  0  0  0
   -8.1596   -1.4160   -1.1185 C   0  0  0  0  0  0  0  0  0  0  0  0
   -6.4341   -0.9854    0.4692 O   0  0  0  0  0  0  0  0  0  0  0  0
   -5.4560   -1.4777    1.2694 C   0  0  0  0  0  0  0  0  0  0  0  0
   -5.4273   -2.5942    1.7624 O   0  0  0  0  0  0  0  0  0  0  0  0
   -4.3969   -0.4547    1.4887 C   0  0  0  0  0  0  0  0  0  0  0  0
   -4.4437    0.8150    0.8993 C   0  0  0  0  0  0  0  0  0  0  0  0
   -3.4263    1.7422    1.1442 C   0  0  0  0  0  0  0  0  0  0  0  0
   -2.3538    1.4185    1.9862 C   0  0  0  0  0  0  0  0  0  0  0  0
   -1.2518    2.4161    2.2356 C   0  0  0  0  0  0  0  0  0  0  0  0
   -0.1275    2.1050    1.4052 O   0  0  0  0  0  0  0  0  0  0  0  0
   -0.0583    2.7785    0.2332 C   0  0  0  0  0  0  0  0  0  0  0  0
   -0.8409    3.6294   -0.1589 O   0  0  0  0  0  0  0  0  0  0  0  0
    1.1317    2.3411   -0.5475 C   0  0  0  0  0  0  0  0  0  0  0  0
    1.3549    2.9328   -1.7970 C   0  0  0  0  0  0  0  0  0  0  0  0
    2.4560    2.5573   -2.5658 C   0  0  0  0  0  0  0  0  0  0  0  0
    3.3423    1.5886   -2.0896 C   0  0  0  0  0  0  0  0  0  0  0  0
    3.1404    0.9824   -0.8400 C   0  0  0  0  0  0  0  0  0  0  0  0
    4.0530   -0.0271   -0.3174 C   0  0  0  0  0  0  0  0  0  0  0  0
    4.0258   -0.6786    0.8276 N   0  0  0  0  0  0  0  0  0  0  0  0
    5.1235   -1.5147    0.8290 N   0  0  0  0  0  0  0  0  0  0  0  0
    5.7471   -1.3183   -0.3157 C   0  0  0  0  0  0  0  0  0  0  0  0
    6.9623   -1.9304   -0.8377 C   0  0  0  0  0  0  0  0  0  0  0  0
    7.6474   -2.8802   -0.0637 C   0  0  0  0  0  0  0  0  0  0  0  0
    8.8164   -3.4816   -0.5371 C   0  0  0  0  0  0  0  0  0  0  0  0
    9.3155   -3.1413   -1.7920 C   0  0  0  0  0  0  0  0  0  0  0  0
    8.6477   -2.2010   -2.5740 C   0  0  0  0  0  0  0  0  0  0  0  0
    7.4783   -1.5991   -2.1002 C   0  0  0  0  0  0  0  0  0  0  0  0
    5.1213   -0.3822   -1.0998 O   0  0  0  0  0  0  0  0  0  0  0  0
    2.0260    1.3681   -0.0761 C   0  0  0  0  0  0  0  0  0  0  0  0
   -2.3013    0.1418    2.5614 C   0  0  0  0  0  0  0  0  0  0  0  0
   -3.3173   -0.7865    2.3178 C   0  0  0  0  0  0  0  0  0  0  0  0
   -9.4261   -2.4116    1.1255 H   0  0  0  0  0  0  0  0  0  0  0  0
   -8.8809   -0.7555    1.4844 H   0  0  0  0  0  0  0  0  0  0  0  0
   -8.1057   -2.1192    2.2749 H   0  0  0  0  0  0  0  0  0  0  0  0
   -7.1802   -2.9012    0.0727 H   0  0  0  0  0  0  0  0  0  0  0  0
   -9.0116   -2.0450   -1.3943 H   0  0  0  0  0  0  0  0  0  0  0  0
   -8.4968   -0.3755   -1.0544 H   0  0  0  0  0  0  0  0  0  0  0  0
   -7.4197   -1.4565   -1.9251 H   0  0  0  0  0  0  0  0  0  0  0  0
   -5.2636    1.0986    0.2437 H   0  0  0  0  0  0  0  0  0  0  0  0
   -3.4717    2.7207    0.6672 H   0  0  0  0  0  0  0  0  0  0  0  0
   -1.6001    3.4477    2.1019 H   0  0  0  0  0  0  0  0  0  0  0  0
   -0.9209    2.3441    3.2783 H   0  0  0  0  0  0  0  0  0  0  0  0
    0.6699    3.6892   -2.1768 H   0  0  0  0  0  0  0  0  0  0  0  0
    2.6237    3.0198   -3.5361 H   0  0  0  0  0  0  0  0  0  0  0  0
    4.1949    1.3134   -2.7080 H   0  0  0  0  0  0  0  0  0  0  0  0
    7.2718   -3.1586    0.9203 H   0  0  0  0  0  0  0  0  0  0  0  0
    9.3353   -4.2150    0.0757 H   0  0  0  0  0  0  0  0  0  0  0  0
   10.2251   -3.6092   -2.1605 H   0  0  0  0  0  0  0  0  0  0  0  0
    9.0368   -1.9353   -3.5540 H   0  0  0  0  0  0  0  0  0  0  0  0
    6.9763   -0.8681   -2.7304 H   0  0  0  0  0  0  0  0  0  0  0  0
    1.8622    0.8997    0.8938 H   0  0  0  0  0  0  0  0  0  0  0  0
   -1.4664   -0.1391    3.2009 H   0  0  0  0  0  0  0  0  0  0  0  0
   -3.2613   -1.7721    2.7769 H   0  0  0  0  0  0  0  0  0  0  0  0
  1  2  1  0
  2  3  1  0
  2  4  1  0
  4  5  1  0
  5  6  2  0
  5  7  1  0
  7  8  2  0
  8  9  1  0
  9 10  2  0
 10 11  1  0
 11 12  1  0
 12 13  1  0
 13 14  2  0
 13 15  1  0
 15 16  2  0
 16 17  1  0
 17 18  2  0
 18 19  1  0
 19 20  1  0
 20 21  2  0
 21 22  1  0
 22 23  2  0
 23 24  1  0
 24 25  2  0
 25 26  1  0
 26 27  2  0
 27 28  1  0
 28 29  2  0
 23 30  1  0
 19 31  2  0
 10 32  1  0
 32 33  2  0
 33  7  1  0
 31 15  1  0
 30 20  1  0
 29 24  1  0
  1 34  1  0
  1 35  1  0
  1 36  1  0
  2 37  1  0
  3 38  1  0
  3 39  1  0
  3 40  1  0
  8 41  1  0
  9 42  1  0
 11 43  1  0
 11 44  1  0
 16 45  1  0
 17 46  1  0
 18 47  1  0
 25 48  1  0
 26 49  1  0
 27 50  1  0
 28 51  1  0
 29 52  1  0
 31 53  1  0
 32 54  1  0
 33 55  1  0
M  END
$$$$
