
     RDKit          3D

 51 54  0  0  0  0  0  0  0  0999 V2000
    0.3853    0.8634    1.9946 O   0  0  0  0  0  0  0  0  0  0  0  0
   -0.2857    0.3737    1.0834 C   0  0  0  0  0  0  0  0  0  0  0  0
    0.3692   -0.4930    0.0904 C   0  0  0  0  0  0  0  0  0  0  0  0
    1.7595   -0.5138   -0.2032 C   0  0  0  0  0  0  0  0  0  0  0  0
    1.9143   -1.5065   -1.1391 C   0  0  0  0  0  0  0  0  0  0  0  0
    3.0589   -2.0918   -1.8747 C   0  0  0  0  0  0  0  0  0  0  0  0
    4.0188   -1.0658   -2.1393 O   0  0  0  0  0  0  0  0  0  0  0  0
    5.1224   -0.9792   -1.3384 C   0  0  0  0  0  0  0  0  0  0  0  0
    5.2585   -1.5251   -0.0627 C   0  0  0  0  0  0  0  0  0  0  0  0
    6.4379   -1.3302    0.6614 C   0  0  0  0  0  0  0  0  0  0  0  0
    7.4840   -0.5853    0.1167 C   0  0  0  0  0  0  0  0  0  0  0  0
    7.3576   -0.0157   -1.1573 C   0  0  0  0  0  0  0  0  0  0  0  0
    8.4849    0.7785   -1.7649 C   0  0  0  0  0  0  0  0  0  0  0  0
    9.3059    0.0083   -2.5299 F   0  0  0  0  0  0  0  0  0  0  0  0
    9.2867    1.3697   -0.8356 F   0  0  0  0  0  0  0  0  0  0  0  0
    8.0531    1.7851   -2.5750 F   0  0  0  0  0  0  0  0  0  0  0  0
    6.1688   -0.2230   -1.8747 C   0  0  0  0  0  0  0  0  0  0  0  0
    0.6979   -2.0595   -1.3926 O   0  0  0  0  0  0  0  0  0  0  0  0
   -0.2659   -1.4402   -0.6230 N   0  0  0  0  0  0  0  0  0  0  0  0
   -1.6613    0.6322    0.9908 N   0  0  0  0  0  0  0  0  0  0  0  0
   -2.3043    1.3038    2.1157 C   0  0  0  0  0  0  0  0  0  0  0  0
   -3.7898    0.9772    2.1859 C   0  0  0  0  0  0  0  0  0  0  0  0
   -4.5180    1.4592    0.9206 C   0  0  0  0  0  0  0  0  0  0  0  0
   -5.8625    0.7682    0.7758 C   0  0  0  0  0  0  0  0  0  0  0  0
   -5.9791   -0.5610    0.3578 C   0  0  0  0  0  0  0  0  0  0  0  0
   -7.2423   -1.1290    0.2657 C   0  0  0  0  0  0  0  0  0  0  0  0
   -8.3843   -0.4761    0.5605 N   0  0  0  0  0  0  0  0  0  0  0  0
   -8.2558    0.8025    0.9690 C   0  0  0  0  0  0  0  0  0  0  0  0
   -7.0382    1.4569    1.0923 C   0  0  0  0  0  0  0  0  0  0  0  0
   -3.6334    1.3675   -0.3394 C   0  0  0  0  0  0  0  0  0  0  0  0
   -2.4758    0.3787   -0.2000 C   0  0  0  0  0  0  0  0  0  0  0  0
    2.5273    0.1153    0.2228 H   0  0  0  0  0  0  0  0  0  0  0  0
    3.4817   -2.9614   -1.3615 H   0  0  0  0  0  0  0  0  0  0  0  0
    2.7152   -2.4498   -2.8516 H   0  0  0  0  0  0  0  0  0  0  0  0
    4.4619   -2.0896    0.4110 H   0  0  0  0  0  0  0  0  0  0  0  0
    6.5369   -1.7514    1.6604 H   0  0  0  0  0  0  0  0  0  0  0  0
    8.3962   -0.4433    0.6945 H   0  0  0  0  0  0  0  0  0  0  0  0
    6.0529    0.2126   -2.8667 H   0  0  0  0  0  0  0  0  0  0  0  0
   -1.8170    1.0053    3.0508 H   0  0  0  0  0  0  0  0  0  0  0  0
   -2.1474    2.3822    1.9923 H   0  0  0  0  0  0  0  0  0  0  0  0
   -4.2367    1.4467    3.0712 H   0  0  0  0  0  0  0  0  0  0  0  0
   -3.9074   -0.1069    2.3171 H   0  0  0  0  0  0  0  0  0  0  0  0
   -4.7218    2.5321    1.0544 H   0  0  0  0  0  0  0  0  0  0  0  0
   -5.1119   -1.1614    0.1122 H   0  0  0  0  0  0  0  0  0  0  0  0
   -7.3693   -2.1595   -0.0543 H   0  0  0  0  0  0  0  0  0  0  0  0
   -9.1875    1.3071    1.2070 H   0  0  0  0  0  0  0  0  0  0  0  0
   -7.0176    2.4860    1.4341 H   0  0  0  0  0  0  0  0  0  0  0  0
   -3.1955    2.3604   -0.5142 H   0  0  0  0  0  0  0  0  0  0  0  0
   -4.2219    1.1369   -1.2356 H   0  0  0  0  0  0  0  0  0  0  0  0
   -2.8526   -0.6463   -0.1268 H   0  0  0  0  0  0  0  0  0  0  0  0
   -1.8529    0.4552   -1.0967 H   0  0  0  0  0  0  0  0  0  0  0  0
  1  2  2  0
  2  3  1  0
  3  4  1  0
  4  5  2  0
  5  6  1  0
  6  7  1  0
  7  8  1  0
  8  9  2  0
  9 10  1  0
 10 11  2  0
 11 12  1  0
 12 13  1  0
 13 14  1  0
 13 15  1  0
 13 16  1  0
 12 17  2  0
  5 18  1  0
 18 19  1  0
  2 20  1  0
 20 21  1  0
 21 22  1  0
 22 23  1  0
 23 24  1  0
 24 25  2  0
 25 26  1  0
 26 27  2  0
 27 28  1  0
 28 29  2  0
 23 30  1  0
 30 31  1  0
 19  3  2  0
 31 20  1  0
 17  8  1  0
 29 24  1  0
  4 32  1  0
  6 33  1  0
  6 34  1  0
  9 35  1  0
 10 36  1  0
 11 37  1  0
 17 38  1  0
 21 39  1  0
 21 40  1  0
 22 41  1  0
 22 42  1  0
 23 43  1  0
 25 44  1  0
 26 45  1  0
 28 46  1  0
 29 47  1  0
 30 48  1  0
 30 49  1  0
 31 50  1  0
 31 51  1  0
M  END
$$$$
