
     RDKit          3D

 50 52  0  0  0  0  0  0  0  0999 V2000
   -4.5840   -1.5941   -3.1869 C   0  0  0  0  0  0  0  0  0  0  0  0
   -4.7706   -1.6545   -1.7789 O   0  0  0  0  0  0  0  0  0  0  0  0
   -3.8967   -0.9480   -0.9943 C   0  0  0  0  0  0  0  0  0  0  0  0
   -2.8439   -0.1710   -1.4734 C   0  0  0  0  0  0  0  0  0  0  0  0
   -2.0027    0.4895   -0.5710 C   0  0  0  0  0  0  0  0  0  0  0  0
   -0.8912    1.3015   -1.1131 C   0  0  0  0  0  0  0  0  0  0  0  0
   -1.1683    2.1752   -1.9301 O   0  0  0  0  0  0  0  0  0  0  0  0
    0.4028    1.0345   -0.6812 N   0  0  0  0  0  0  0  0  0  0  0  0
    1.4888    1.8826   -1.1832 C   0  0  0  0  0  0  0  0  0  0  0  0
    2.7210    1.9024   -0.2593 C   0  0  0  0  0  0  0  0  0  0  0  0
    3.1556    0.5504    0.1613 N   0  0  0  0  0  0  0  0  0  0  0  0
    4.5293    0.2811    0.0682 C   0  0  0  0  0  0  0  0  0  0  0  0
    5.1968    0.0238    1.2792 C   0  0  0  0  0  0  0  0  0  0  0  0
    6.5623   -0.2606    1.3067 C   0  0  0  0  0  0  0  0  0  0  0  0
    7.3427   -0.5682    2.8087 Cl  0  0  0  0  0  0  0  0  0  0  0  0
    7.2976   -0.2981    0.1270 C   0  0  0  0  0  0  0  0  0  0  0  0
    6.6586   -0.0517   -1.0880 C   0  0  0  0  0  0  0  0  0  0  0  0
    5.2866    0.2332   -1.1224 C   0  0  0  0  0  0  0  0  0  0  0  0
    4.5895    0.5018   -2.6833 Cl  0  0  0  0  0  0  0  0  0  0  0  0
    2.2850   -0.5696   -0.2398 C   0  0  0  0  0  0  0  0  0  0  0  0
    0.8089   -0.2044    0.0054 C   0  0  0  0  0  0  0  0  0  0  0  0
   -2.2220    0.4251    0.8104 C   0  0  0  0  0  0  0  0  0  0  0  0
   -3.2709   -0.3468    1.3067 C   0  0  0  0  0  0  0  0  0  0  0  0
   -3.5673   -0.5042    2.6354 O   0  0  0  0  0  0  0  0  0  0  0  0
   -2.7936    0.2302    3.5748 C   0  0  0  0  0  0  0  0  0  0  0  0
   -4.1041   -1.0249    0.3962 C   0  0  0  0  0  0  0  0  0  0  0  0
   -5.1095   -1.8340    0.8808 O   0  0  0  0  0  0  0  0  0  0  0  0
   -6.3154   -1.0820    1.0103 C   0  0  0  0  0  0  0  0  0  0  0  0
   -4.7074   -0.5714   -3.5580 H   0  0  0  0  0  0  0  0  0  0  0  0
   -3.6113   -2.0061   -3.4751 H   0  0  0  0  0  0  0  0  0  0  0  0
   -5.3576   -2.2119   -3.6532 H   0  0  0  0  0  0  0  0  0  0  0  0
   -2.6468   -0.0602   -2.5341 H   0  0  0  0  0  0  0  0  0  0  0  0
    1.1222    2.9055   -1.3270 H   0  0  0  0  0  0  0  0  0  0  0  0
    1.7585    1.4948   -2.1726 H   0  0  0  0  0  0  0  0  0  0  0  0
    3.5257    2.4755   -0.7350 H   0  0  0  0  0  0  0  0  0  0  0  0
    2.4564    2.4459    0.6565 H   0  0  0  0  0  0  0  0  0  0  0  0
    4.6337    0.0517    2.2098 H   0  0  0  0  0  0  0  0  0  0  0  0
    8.3614   -0.5191    0.1450 H   0  0  0  0  0  0  0  0  0  0  0  0
    7.2351   -0.0852   -2.0097 H   0  0  0  0  0  0  0  0  0  0  0  0
    2.5291   -1.4634    0.3467 H   0  0  0  0  0  0  0  0  0  0  0  0
    2.4235   -0.8174   -1.2984 H   0  0  0  0  0  0  0  0  0  0  0  0
    0.1685   -1.0327   -0.3149 H   0  0  0  0  0  0  0  0  0  0  0  0
    0.6493   -0.0388    1.0776 H   0  0  0  0  0  0  0  0  0  0  0  0
   -1.5666    0.9877    1.4658 H   0  0  0  0  0  0  0  0  0  0  0  0
   -2.8920    1.3088    3.4104 H   0  0  0  0  0  0  0  0  0  0  0  0
   -3.1818    0.0094    4.5737 H   0  0  0  0  0  0  0  0  0  0  0  0
   -1.7439   -0.0807    3.5496 H   0  0  0  0  0  0  0  0  0  0  0  0
   -7.0961   -1.7613    1.3653 H   0  0  0  0  0  0  0  0  0  0  0  0
   -6.6387   -0.6713    0.0473 H   0  0  0  0  0  0  0  0  0  0  0  0
   -6.2066   -0.2791    1.7471 H   0  0  0  0  0  0  0  0  0  0  0  0
  1  2  1  0
  2  3  1  0
  3  4  2  0
  4  5  1  0
  5  6  1  0
  6  7  2  0
  6  8  1  0
  8  9  1  0
  9 10  1  0
 10 11  1  0
 11 12  1  0
 12 13  2  0
 13 14  1  0
 14 15  1  0
 14 16  2  0
 16 17  1  0
 17 18  2  0
 18 19  1  0
 11 20  1  0
 20 21  1  0
  5 22  2  0
 22 23  1  0
 23 24  1  0
 24 25  1  0
 23 26  2  0
 26 27  1  0
 27 28  1  0
 26  3  1  0
 21  8  1  0
 18 12  1  0
  1 29  1  0
  1 30  1  0
  1 31  1  0
  4 32  1  0
  9 33  1  0
  9 34  1  0
 10 35  1  0
 10 36  1  0
 13 37  1  0
 16 38  1  0
 17 39  1  0
 20 40  1  0
 20 41  1  0
 21 42  1  0
 21 43  1  0
 22 44  1  0
 25 45  1  0
 25 46  1  0
 25 47  1  0
 28 48  1  0
 28 49  1  0
 28 50  1  0
M  END
$$$$
