
     RDKit          3D

 48 51  0  0  0  0  0  0  0  0999 V2000
    2.5655    2.4723   -1.5415 O   0  0  0  0  0  0  0  0  0  0  0  0
    3.0450    1.5648   -0.8747 C   0  0  0  0  0  0  0  0  0  0  0  0
    2.4110    0.8666    0.1516 N   0  0  0  0  0  0  0  0  0  0  0  0
    1.3570    1.2617    0.9854 C   0  0  0  0  0  0  0  0  0  0  0  0
    0.7086    2.8072    1.0223 S   0  0  0  0  0  0  0  0  0  0  0  0
    0.9478    0.2031    1.8292 N   0  0  0  0  0  0  0  0  0  0  0  0
    0.0422    0.4125    2.9765 C   0  0  0  0  0  0  0  0  0  0  0  0
   -1.4139    0.0494    2.6163 C   0  0  0  0  0  0  0  0  0  0  0  0
   -1.5047   -1.3384    2.1205 N   0  0  0  0  0  0  0  0  0  0  0  0
   -2.8819   -1.7912    1.8849 C   0  0  0  0  0  0  0  0  0  0  0  0
   -3.6545   -1.1051    0.7774 C   0  0  0  0  0  0  0  0  0  0  0  0
   -4.4191    0.0547    1.0480 C   0  0  0  0  0  0  0  0  0  0  0  0
   -5.1339    0.7030    0.0353 C   0  0  0  0  0  0  0  0  0  0  0  0
   -5.0710    0.1720   -1.2335 C   0  0  0  0  0  0  0  0  0  0  0  0
   -4.3379   -0.9570   -1.5088 C   0  0  0  0  0  0  0  0  0  0  0  0
   -3.6251   -1.6185   -0.5311 C   0  0  0  0  0  0  0  0  0  0  0  0
   -4.4091   -1.3164   -2.8186 O   0  0  0  0  0  0  0  0  0  0  0  0
   -5.2579   -0.2715   -3.3389 C   0  0  0  0  0  0  0  0  0  0  0  0
   -5.6972    0.6660   -2.3346 O   0  0  0  0  0  0  0  0  0  0  0  0
   -0.6050   -1.5421    0.9709 C   0  0  0  0  0  0  0  0  0  0  0  0
    0.8572   -1.1805    1.3231 C   0  0  0  0  0  0  0  0  0  0  0  0
    4.4108    1.0846   -1.2221 C   0  0  0  0  0  0  0  0  0  0  0  0
    5.3628    2.0346   -1.6165 C   0  0  0  0  0  0  0  0  0  0  0  0
    6.6585    1.6340   -1.9522 C   0  0  0  0  0  0  0  0  0  0  0  0
    6.9981    0.2832   -1.9044 C   0  0  0  0  0  0  0  0  0  0  0  0
    8.5919   -0.2133   -2.3181 Cl  0  0  0  0  0  0  0  0  0  0  0  0
    6.0515   -0.6717   -1.5313 C   0  0  0  0  0  0  0  0  0  0  0  0
    4.7539   -0.2743   -1.1934 C   0  0  0  0  0  0  0  0  0  0  0  0
    2.9675    0.1555    0.5993 H   0  0  0  0  0  0  0  0  0  0  0  0
    0.3971   -0.2401    3.7846 H   0  0  0  0  0  0  0  0  0  0  0  0
    0.1029    1.4363    3.3549 H   0  0  0  0  0  0  0  0  0  0  0  0
   -2.0286    0.1632    3.5168 H   0  0  0  0  0  0  0  0  0  0  0  0
   -1.7825    0.7563    1.8645 H   0  0  0  0  0  0  0  0  0  0  0  0
   -3.4524   -1.7035    2.8195 H   0  0  0  0  0  0  0  0  0  0  0  0
   -2.8675   -2.8713    1.6850 H   0  0  0  0  0  0  0  0  0  0  0  0
   -4.4544    0.4592    2.0578 H   0  0  0  0  0  0  0  0  0  0  0  0
   -5.7153    1.5949    0.2391 H   0  0  0  0  0  0  0  0  0  0  0  0
   -3.0576   -2.5089   -0.7785 H   0  0  0  0  0  0  0  0  0  0  0  0
   -6.1404   -0.7334   -3.7964 H   0  0  0  0  0  0  0  0  0  0  0  0
   -4.7067    0.2754   -4.1127 H   0  0  0  0  0  0  0  0  0  0  0  0
   -0.6315   -2.5925    0.6585 H   0  0  0  0  0  0  0  0  0  0  0  0
   -0.9166   -0.9275    0.1176 H   0  0  0  0  0  0  0  0  0  0  0  0
    1.4761   -1.3321    0.4349 H   0  0  0  0  0  0  0  0  0  0  0  0
    1.2350   -1.8438    2.1104 H   0  0  0  0  0  0  0  0  0  0  0  0
    5.0949    3.0894   -1.6630 H   0  0  0  0  0  0  0  0  0  0  0  0
    7.3912    2.3783   -2.2536 H   0  0  0  0  0  0  0  0  0  0  0  0
    6.3164   -1.7262   -1.5143 H   0  0  0  0  0  0  0  0  0  0  0  0
    4.0218   -1.0378   -0.9464 H   0  0  0  0  0  0  0  0  0  0  0  0
  1  2  2  0
  2  3  1  0
  3  4  1  0
  4  5  2  0
  4  6  1  0
  6  7  1  0
  7  8  1  0
  8  9  1  0
  9 10  1  0
 10 11  1  0
 11 12  2  0
 12 13  1  0
 13 14  2  0
 14 15  1  0
 15 16  2  0
 15 17  1  0
 17 18  1  0
 18 19  1  0
  9 20  1  0
 20 21  1  0
  2 22  1  0
 22 23  2  0
 23 24  1  0
 24 25  2  0
 25 26  1  0
 25 27  1  0
 27 28  2  0
 21  6  1  0
 28 22  1  0
 16 11  1  0
 19 14  1  0
  3 29  1  0
  7 30  1  0
  7 31  1  0
  8 32  1  0
  8 33  1  0
 10 34  1  0
 10 35  1  0
 12 36  1  0
 13 37  1  0
 16 38  1  0
 18 39  1  0
 18 40  1  0
 20 41  1  0
 20 42  1  0
 21 43  1  0
 21 44  1  0
 23 45  1  0
 24 46  1  0
 27 47  1  0
 28 48  1  0
M  END
$$$$
