
     RDKit          3D

 67 72  0  0  0  0  0  0  0  0999 V2000
    1.3779    2.5800   -0.6132 O   0  0  0  0  0  0  0  0  0  0  0  0
    1.7596    1.4722   -1.0050 C   0  0  0  0  0  0  0  0  0  0  0  0
    1.3724    0.9612   -2.4006 C   0  0  0  0  0  0  0  0  0  0  0  0
    0.7914    2.0835   -3.2863 C   0  0  0  0  0  0  0  0  0  0  0  0
   -0.7315    2.0490   -3.4095 C   0  0  0  0  0  0  0  0  0  0  0  0
   -1.4224    1.5117   -2.1586 C   0  0  0  0  0  0  0  0  0  0  0  0
   -0.9144    0.1842   -1.8344 N   0  0  0  0  0  0  0  0  0  0  0  0
   -1.6613   -0.6904   -1.0586 C   0  0  0  0  0  0  0  0  0  0  0  0
   -1.2671   -2.0020   -0.9856 N   0  0  0  0  0  0  0  0  0  0  0  0
   -1.9922   -2.8793   -0.2625 C   0  0  0  0  0  0  0  0  0  0  0  0
   -3.1094   -2.6521    0.4471 N   0  0  0  0  0  0  0  0  0  0  0  0
   -3.4680   -1.3602    0.3692 C   0  0  0  0  0  0  0  0  0  0  0  0
   -2.8299   -0.3446   -0.3296 C   0  0  0  0  0  0  0  0  0  0  0  0
   -3.5113    0.8494   -0.1539 N   0  0  0  0  0  0  0  0  0  0  0  0
   -4.5378    0.5674    0.6245 C   0  0  0  0  0  0  0  0  0  0  0  0
   -4.5502   -0.7662    0.9578 N   0  0  0  0  0  0  0  0  0  0  0  0
   -5.5432   -1.4277    1.7769 C   0  0  0  0  0  0  0  0  0  0  0  0
   -6.9505   -1.3517    1.1880 C   0  0  0  0  0  0  0  0  0  0  0  0
   -7.6206    0.0145    1.3608 C   0  0  0  0  0  0  0  0  0  0  0  0
   -6.9686    1.1631    0.5839 C   0  0  0  0  0  0  0  0  0  0  0  0
   -5.5736    1.5313    1.0855 C   0  0  0  0  0  0  0  0  0  0  0  0
    0.4064   -0.2267   -2.2965 C   0  0  0  0  0  0  0  0  0  0  0  0
    2.5509    0.6638   -0.1912 N   0  0  0  0  0  0  0  0  0  0  0  0
    3.4251   -0.4151   -0.6834 C   0  0  0  0  0  0  0  0  0  0  0  0
    3.6627   -1.5042    0.3819 C   0  0  0  0  0  0  0  0  0  0  0  0
    4.1683   -0.9080    1.6393 N   0  0  0  0  0  0  0  0  0  0  0  0
    5.5530   -0.7789    1.7536 C   0  0  0  0  0  0  0  0  0  0  0  0
    6.1999    0.4210    2.0819 C   0  0  0  0  0  0  0  0  0  0  0  0
    7.5950    0.5002    2.1921 C   0  0  0  0  0  0  0  0  0  0  0  0
    8.3793   -0.6327    2.0032 C   0  0  0  0  0  0  0  0  0  0  0  0
    7.7672   -1.8413    1.6996 C   0  0  0  0  0  0  0  0  0  0  0  0
    6.3745   -1.9078    1.5807 C   0  0  0  0  0  0  0  0  0  0  0  0
    3.2611    0.1346    2.1631 C   0  0  0  0  0  0  0  0  0  0  0  0
    2.9475    1.2172    1.1147 C   0  0  0  0  0  0  0  0  0  0  0  0
    2.3032    0.6419   -2.8836 H   0  0  0  0  0  0  0  0  0  0  0  0
    1.1018    3.0707   -2.9264 H   0  0  0  0  0  0  0  0  0  0  0  0
    1.2128    2.0009   -4.2956 H   0  0  0  0  0  0  0  0  0  0  0  0
   -0.9971    1.4077   -4.2617 H   0  0  0  0  0  0  0  0  0  0  0  0
   -1.1069    3.0503   -3.6471 H   0  0  0  0  0  0  0  0  0  0  0  0
   -1.2747    2.1934   -1.3156 H   0  0  0  0  0  0  0  0  0  0  0  0
   -2.4913    1.4741   -2.3897 H   0  0  0  0  0  0  0  0  0  0  0  0
   -1.6259   -3.9018   -0.2593 H   0  0  0  0  0  0  0  0  0  0  0  0
   -5.4964   -0.9801    2.7757 H   0  0  0  0  0  0  0  0  0  0  0  0
   -5.2538   -2.4787    1.8812 H   0  0  0  0  0  0  0  0  0  0  0  0
   -7.5738   -2.0896    1.7085 H   0  0  0  0  0  0  0  0  0  0  0  0
   -6.9400   -1.6400    0.1307 H   0  0  0  0  0  0  0  0  0  0  0  0
   -7.6599    0.2689    2.4273 H   0  0  0  0  0  0  0  0  0  0  0  0
   -8.6629   -0.0725    1.0274 H   0  0  0  0  0  0  0  0  0  0  0  0
   -6.9441    0.9181   -0.4850 H   0  0  0  0  0  0  0  0  0  0  0  0
   -7.6114    2.0455    0.6928 H   0  0  0  0  0  0  0  0  0  0  0  0
   -5.3107    2.5273    0.7056 H   0  0  0  0  0  0  0  0  0  0  0  0
   -5.5596    1.6005    2.1800 H   0  0  0  0  0  0  0  0  0  0  0  0
    0.3012   -0.6920   -3.2835 H   0  0  0  0  0  0  0  0  0  0  0  0
    0.8326   -0.9852   -1.6347 H   0  0  0  0  0  0  0  0  0  0  0  0
    4.3728    0.0540   -0.9703 H   0  0  0  0  0  0  0  0  0  0  0  0
    3.0180   -0.8813   -1.5816 H   0  0  0  0  0  0  0  0  0  0  0  0
    2.7074   -1.9997    0.6033 H   0  0  0  0  0  0  0  0  0  0  0  0
    4.3236   -2.2783   -0.0243 H   0  0  0  0  0  0  0  0  0  0  0  0
    5.6410    1.3366    2.2466 H   0  0  0  0  0  0  0  0  0  0  0  0
    8.0646    1.4500    2.4372 H   0  0  0  0  0  0  0  0  0  0  0  0
    9.4597   -0.5712    2.0971 H   0  0  0  0  0  0  0  0  0  0  0  0
    8.3627   -2.7417    1.5726 H   0  0  0  0  0  0  0  0  0  0  0  0
    5.9262   -2.8791    1.3864 H   0  0  0  0  0  0  0  0  0  0  0  0
    3.6394    0.5794    3.0908 H   0  0  0  0  0  0  0  0  0  0  0  0
    2.3186   -0.3604    2.4343 H   0  0  0  0  0  0  0  0  0  0  0  0
    2.1575    1.8676    1.5074 H   0  0  0  0  0  0  0  0  0  0  0  0
    3.8251    1.8492    0.9316 H   0  0  0  0  0  0  0  0  0  0  0  0
  1  2  2  0
  2  3  1  0
  3  4  1  0
  4  5  1  0
  5  6  1  0
  6  7  1  0
  7  8  1  0
  8  9  2  0
  9 10  1  0
 10 11  2  0
 11 12  1  0
 12 13  2  0
 13 14  1  0
 14 15  2  0
 15 16  1  0
 16 17  1  0
 17 18  1  0
 18 19  1  0
 19 20  1  0
 20 21  1  0
  7 22  1  0
  2 23  1  0
 23 24  1  0
 24 25  1  0
 25 26  1  0
 26 27  1  0
 27 28  2  0
 28 29  1  0
 29 30  2  0
 30 31  1  0
 31 32  2  0
 26 33  1  0
 33 34  1  0
 22  3  1  0
 34 23  1  0
 13  8  1  0
 21 15  1  0
 32 27  1  0
 16 12  1  0
  3 35  1  0
  4 36  1  0
  4 37  1  0
  5 38  1  0
  5 39  1  0
  6 40  1  0
  6 41  1  0
 10 42  1  0
 17 43  1  0
 17 44  1  0
 18 45  1  0
 18 46  1  0
 19 47  1  0
 19 48  1  0
 20 49  1  0
 20 50  1  0
 21 51  1  0
 21 52  1  0
 22 53  1  0
 22 54  1  0
 24 55  1  0
 24 56  1  0
 25 57  1  0
 25 58  1  0
 28 59  1  0
 29 60  1  0
 30 61  1  0
 31 62  1  0
 32 63  1  0
 33 64  1  0
 33 65  1  0
 34 66  1  0
 34 67  1  0
M  END
$$$$
