
     RDKit          3D

 46 48  0  0  0  0  0  0  0  0999 V2000
   -6.6746    2.5751    0.5707 C   0  0  0  0  0  0  0  0  0  0  0  0
   -6.2844    1.2476    1.0963 C   0  0  0  0  0  0  0  0  0  0  0  0
   -7.0641    0.7503    2.0963 O   0  0  0  0  0  0  0  0  0  0  0  0
   -6.5543   -0.4568    2.4365 C   0  0  0  0  0  0  0  0  0  0  0  0
   -5.4526   -0.7454    1.6672 C   0  0  0  0  0  0  0  0  0  0  0  0
   -5.2604    0.3636    0.7858 C   0  0  0  0  0  0  0  0  0  0  0  0
   -4.2519    0.5958   -0.2419 C   0  0  0  0  0  0  0  0  0  0  0  0
   -4.2773    1.5758   -0.9798 O   0  0  0  0  0  0  0  0  0  0  0  0
   -3.2664   -0.3633   -0.3134 N   0  0  0  0  0  0  0  0  0  0  0  0
   -2.1224   -0.2117   -1.1814 C   0  0  0  0  0  0  0  0  0  0  0  0
   -0.9088    0.2099   -0.3933 C   0  0  0  0  0  0  0  0  0  0  0  0
   -0.7580    1.5460    0.0027 C   0  0  0  0  0  0  0  0  0  0  0  0
    0.3501    1.9421    0.7498 C   0  0  0  0  0  0  0  0  0  0  0  0
    1.3170    1.0064    1.1142 C   0  0  0  0  0  0  0  0  0  0  0  0
    1.1833   -0.3377    0.7400 C   0  0  0  0  0  0  0  0  0  0  0  0
    2.2472   -1.3369    1.1168 C   0  0  0  0  0  0  0  0  0  0  0  0
    3.3681   -1.2587    0.2092 N   0  0  0  0  0  0  0  0  0  0  0  0
    4.5128   -0.5701    0.5415 C   0  0  0  0  0  0  0  0  0  0  0  0
    4.6912   -0.0681    1.6468 O   0  0  0  0  0  0  0  0  0  0  0  0
    5.4940   -0.4268   -0.5257 C   0  0  0  0  0  0  0  0  0  0  0  0
    6.5045    0.5815   -0.5979 C   0  0  0  0  0  0  0  0  0  0  0  0
    7.2109    0.3582   -1.7526 C   0  0  0  0  0  0  0  0  0  0  0  0
    6.7264   -0.7315   -2.3945 O   0  0  0  0  0  0  0  0  0  0  0  0
    5.6977   -1.2228   -1.6446 C   0  0  0  0  0  0  0  0  0  0  0  0
    5.0836   -2.4627   -2.1683 C   0  0  0  0  0  0  0  0  0  0  0  0
    0.0671   -0.7263   -0.0174 C   0  0  0  0  0  0  0  0  0  0  0  0
   -7.5400    2.9764    1.1075 H   0  0  0  0  0  0  0  0  0  0  0  0
   -5.8514    3.2878    0.6794 H   0  0  0  0  0  0  0  0  0  0  0  0
   -6.9382    2.5048   -0.4890 H   0  0  0  0  0  0  0  0  0  0  0  0
   -7.0773   -0.9794    3.2254 H   0  0  0  0  0  0  0  0  0  0  0  0
   -4.8706   -1.6523    1.7380 H   0  0  0  0  0  0  0  0  0  0  0  0
   -3.2013   -1.0524    0.4187 H   0  0  0  0  0  0  0  0  0  0  0  0
   -2.3226    0.5089   -1.9821 H   0  0  0  0  0  0  0  0  0  0  0  0
   -1.9495   -1.1831   -1.6577 H   0  0  0  0  0  0  0  0  0  0  0  0
   -1.5092    2.2859   -0.2714 H   0  0  0  0  0  0  0  0  0  0  0  0
    0.4606    2.9816    1.0483 H   0  0  0  0  0  0  0  0  0  0  0  0
    2.1815    1.3301    1.6926 H   0  0  0  0  0  0  0  0  0  0  0  0
    1.8510   -2.3563    1.0504 H   0  0  0  0  0  0  0  0  0  0  0  0
    2.5653   -1.1816    2.1537 H   0  0  0  0  0  0  0  0  0  0  0  0
    3.1714   -1.3991   -0.7695 H   0  0  0  0  0  0  0  0  0  0  0  0
    6.6765    1.3760    0.1158 H   0  0  0  0  0  0  0  0  0  0  0  0
    8.0458    0.8524   -2.2295 H   0  0  0  0  0  0  0  0  0  0  0  0
    4.1551   -2.2337   -2.6998 H   0  0  0  0  0  0  0  0  0  0  0  0
    5.7562   -2.9712   -2.8667 H   0  0  0  0  0  0  0  0  0  0  0  0
    4.8607   -3.1618   -1.3567 H   0  0  0  0  0  0  0  0  0  0  0  0
   -0.0429   -1.7667   -0.3170 H   0  0  0  0  0  0  0  0  0  0  0  0
  1  2  1  0
  2  3  1  0
  3  4  1  0
  4  5  2  0
  5  6  1  0
  6  7  1  0
  7  8  2  0
  7  9  1  0
  9 10  1  0
 10 11  1  0
 11 12  2  0
 12 13  1  0
 13 14  2  0
 14 15  1  0
 15 16  1  0
 16 17  1  0
 17 18  1  0
 18 19  2  0
 18 20  1  0
 20 21  1  0
 21 22  2  0
 22 23  1  0
 23 24  1  0
 24 25  1  0
 15 26  2  0
  6  2  2  0
 26 11  1  0
 24 20  2  0
  1 27  1  0
  1 28  1  0
  1 29  1  0
  4 30  1  0
  5 31  1  0
  9 32  1  0
 10 33  1  0
 10 34  1  0
 12 35  1  0
 13 36  1  0
 14 37  1  0
 16 38  1  0
 16 39  1  0
 17 40  1  0
 21 41  1  0
 22 42  1  0
 25 43  1  0
 25 44  1  0
 25 45  1  0
 26 46  1  0
M  END
$$$$
