
     RDKit          3D

 46 50  0  0  0  0  0  0  0  0999 V2000
    4.2574    1.5626    0.3249 O   0  0  0  0  0  0  0  0  0  0  0  0
    4.9492    0.6557   -0.1117 C   0  0  0  0  0  0  0  0  0  0  0  0
    4.5257   -0.5857   -0.5439 O   0  0  0  0  0  0  0  0  0  0  0  0
    3.1432   -0.7591   -0.4479 C   0  0  0  0  0  0  0  0  0  0  0  0
    2.3789   -0.6626   -1.6108 C   0  0  0  0  0  0  0  0  0  0  0  0
    1.0018   -0.8737   -1.5396 C   0  0  0  0  0  0  0  0  0  0  0  0
    0.4105   -1.1887   -0.3092 C   0  0  0  0  0  0  0  0  0  0  0  0
   -1.0438   -1.4193   -0.2156 C   0  0  0  0  0  0  0  0  0  0  0  0
   -1.7440   -1.4226   -1.2203 O   0  0  0  0  0  0  0  0  0  0  0  0
   -1.5765   -1.6658    1.1531 C   0  0  0  0  0  0  0  0  0  0  0  0
   -2.9304   -1.8654    1.3747 O   0  0  0  0  0  0  0  0  0  0  0  0
   -3.8029   -0.8914    0.9464 C   0  0  0  0  0  0  0  0  0  0  0  0
   -3.5720    0.4702    1.1403 C   0  0  0  0  0  0  0  0  0  0  0  0
   -4.5261    1.4009    0.7224 C   0  0  0  0  0  0  0  0  0  0  0  0
   -5.7242    0.9813    0.1212 C   0  0  0  0  0  0  0  0  0  0  0  0
   -6.6928    1.9053   -0.3032 C   0  0  0  0  0  0  0  0  0  0  0  0
   -7.8809    1.4727   -0.8943 C   0  0  0  0  0  0  0  0  0  0  0  0
   -8.1158    0.1121   -1.0694 C   0  0  0  0  0  0  0  0  0  0  0  0
   -7.1629   -0.8196   -0.6546 C   0  0  0  0  0  0  0  0  0  0  0  0
   -5.9628   -0.4014   -0.0572 C   0  0  0  0  0  0  0  0  0  0  0  0
   -4.9953   -1.3262    0.3664 C   0  0  0  0  0  0  0  0  0  0  0  0
   -0.6963   -1.7762    2.1550 C   0  0  0  0  0  0  0  0  0  0  0  0
    0.6652   -1.6232    2.0694 O   0  0  0  0  0  0  0  0  0  0  0  0
    1.1914   -1.3018    0.8429 C   0  0  0  0  0  0  0  0  0  0  0  0
    2.5682   -1.0950    0.7780 C   0  0  0  0  0  0  0  0  0  0  0  0
    6.4192    0.7657   -0.2492 C   0  0  0  0  0  0  0  0  0  0  0  0
    7.2147   -0.2774   -0.7108 C   0  0  0  0  0  0  0  0  0  0  0  0
    8.5628   -0.1972   -0.8424 N   0  0  0  0  0  0  0  0  0  0  0  0
    9.1406    0.9787   -0.4974 C   0  0  0  0  0  0  0  0  0  0  0  0
    8.4296    2.0723   -0.0275 C   0  0  0  0  0  0  0  0  0  0  0  0
    9.3145    3.6721    0.4305 Br  0  0  0  0  0  0  0  0  0  0  0  0
    7.0482    1.9661    0.0996 C   0  0  0  0  0  0  0  0  0  0  0  0
    2.8449   -0.4216   -2.5620 H   0  0  0  0  0  0  0  0  0  0  0  0
    0.3918   -0.7944   -2.4374 H   0  0  0  0  0  0  0  0  0  0  0  0
   -2.6650    0.8232    1.6207 H   0  0  0  0  0  0  0  0  0  0  0  0
   -4.3294    2.4598    0.8736 H   0  0  0  0  0  0  0  0  0  0  0  0
   -6.5269    2.9725   -0.1772 H   0  0  0  0  0  0  0  0  0  0  0  0
   -8.6213    2.1989   -1.2191 H   0  0  0  0  0  0  0  0  0  0  0  0
   -9.0397   -0.2261   -1.5310 H   0  0  0  0  0  0  0  0  0  0  0  0
   -7.3624   -1.8785   -0.8030 H   0  0  0  0  0  0  0  0  0  0  0  0
   -5.1600   -2.3928    0.2358 H   0  0  0  0  0  0  0  0  0  0  0  0
   -0.9892   -1.9941    3.1738 H   0  0  0  0  0  0  0  0  0  0  0  0
    3.1792   -1.1860    1.6704 H   0  0  0  0  0  0  0  0  0  0  0  0
    6.8013   -1.2402   -0.9999 H   0  0  0  0  0  0  0  0  0  0  0  0
   10.2205    1.0095   -0.6153 H   0  0  0  0  0  0  0  0  0  0  0  0
    6.4617    2.8063    0.4654 H   0  0  0  0  0  0  0  0  0  0  0  0
  1  2  2  0
  2  3  1  0
  3  4  1  0
  4  5  2  0
  5  6  1  0
  6  7  2  0
  7  8  1  0
  8  9  2  0
  8 10  1  0
 10 11  1  0
 11 12  1  0
 12 13  2  0
 13 14  1  0
 14 15  2  0
 15 16  1  0
 16 17  2  0
 17 18  1  0
 18 19  2  0
 19 20  1  0
 20 21  2  0
 10 22  2  0
 22 23  1  0
 23 24  1  0
 24 25  2  0
  2 26  1  0
 26 27  2  0
 27 28  1  0
 28 29  2  0
 29 30  1  0
 30 31  1  0
 30 32  2  0
 25  4  1  0
 32 26  1  0
 24  7  1  0
 21 12  1  0
 20 15  1  0
  5 33  1  0
  6 34  1  0
 13 35  1  0
 14 36  1  0
 16 37  1  0
 17 38  1  0
 18 39  1  0
 19 40  1  0
 21 41  1  0
 22 42  1  0
 25 43  1  0
 27 44  1  0
 29 45  1  0
 32 46  1  0
M  END
$$$$
