
     RDKit          3D

 38 40  0  0  0  0  0  0  0  0999 V2000
   -2.9128    2.8152    0.3045 C   0  0  0  0  0  0  0  0  0  0  0  0
   -3.5340    1.4793    0.0715 C   0  0  0  0  0  0  0  0  0  0  0  0
   -4.8786    1.2165   -0.1084 C   0  0  0  0  0  0  0  0  0  0  0  0
   -5.0153   -0.1483   -0.4065 C   0  0  0  0  0  0  0  0  0  0  0  0
   -3.7560   -0.7165   -0.3831 C   0  0  0  0  0  0  0  0  0  0  0  0
   -3.4325   -2.1655   -0.5337 C   0  0  0  0  0  0  0  0  0  0  0  0
   -2.8284    0.2866   -0.0963 N   0  0  0  0  0  0  0  0  0  0  0  0
   -1.4205    0.1241    0.0077 C   0  0  0  0  0  0  0  0  0  0  0  0
   -0.6899    0.7393    1.0178 C   0  0  0  0  0  0  0  0  0  0  0  0
    0.6916    0.5423    1.0755 C   0  0  0  0  0  0  0  0  0  0  0  0
    1.3308   -0.2536    0.1223 C   0  0  0  0  0  0  0  0  0  0  0  0
    2.7220   -0.4574    0.2069 N   0  0  0  0  0  0  0  0  0  0  0  0
    3.2085   -1.4950   -0.7310 C   0  0  0  0  0  0  0  0  0  0  0  0
    4.7155   -1.7118   -0.5236 C   0  0  0  0  0  0  0  0  0  0  0  0
    5.4515   -0.4889   -0.6987 O   0  0  0  0  0  0  0  0  0  0  0  0
    4.9969    0.4982    0.2400 C   0  0  0  0  0  0  0  0  0  0  0  0
    3.4968    0.7960    0.0733 C   0  0  0  0  0  0  0  0  0  0  0  0
    0.6179   -0.8619   -0.8501 N   0  0  0  0  0  0  0  0  0  0  0  0
   -0.7230   -0.6607   -0.8955 C   0  0  0  0  0  0  0  0  0  0  0  0
   -1.9928    2.9430   -0.2738 H   0  0  0  0  0  0  0  0  0  0  0  0
   -2.6997    2.9640    1.3671 H   0  0  0  0  0  0  0  0  0  0  0  0
   -3.5972    3.6129   -0.0055 H   0  0  0  0  0  0  0  0  0  0  0  0
   -5.6755    1.9476   -0.0510 H   0  0  0  0  0  0  0  0  0  0  0  0
   -5.9408   -0.6783   -0.5949 H   0  0  0  0  0  0  0  0  0  0  0  0
   -3.1130   -2.3872   -1.5561 H   0  0  0  0  0  0  0  0  0  0  0  0
   -4.3188   -2.7766   -0.3290 H   0  0  0  0  0  0  0  0  0  0  0  0
   -2.6568   -2.4848    0.1686 H   0  0  0  0  0  0  0  0  0  0  0  0
   -1.1687    1.3229    1.7970 H   0  0  0  0  0  0  0  0  0  0  0  0
    1.2576    0.9827    1.8895 H   0  0  0  0  0  0  0  0  0  0  0  0
    2.6920   -2.4471   -0.5594 H   0  0  0  0  0  0  0  0  0  0  0  0
    3.0390   -1.1762   -1.7682 H   0  0  0  0  0  0  0  0  0  0  0  0
    4.9231   -2.1113    0.4763 H   0  0  0  0  0  0  0  0  0  0  0  0
    5.0920   -2.4321   -1.2567 H   0  0  0  0  0  0  0  0  0  0  0  0
    5.5769    1.4103    0.0678 H   0  0  0  0  0  0  0  0  0  0  0  0
    5.2169    0.1493    1.2562 H   0  0  0  0  0  0  0  0  0  0  0  0
    3.3224    1.2308   -0.9198 H   0  0  0  0  0  0  0  0  0  0  0  0
    3.2094    1.5342    0.8297 H   0  0  0  0  0  0  0  0  0  0  0  0
   -1.2067   -1.1422   -1.7392 H   0  0  0  0  0  0  0  0  0  0  0  0
  1  2  1  0
  2  3  2  0
  3  4  1  0
  4  5  2  0
  5  6  1  0
  5  7  1  0
  7  8  1  0
  8  9  2  0
  9 10  1  0
 10 11  2  0
 11 12  1  0
 12 13  1  0
 13 14  1  0
 14 15  1  0
 15 16  1  0
 16 17  1  0
 11 18  1  0
 18 19  2  0
  7  2  1  0
 19  8  1  0
 17 12  1  0
  1 20  1  0
  1 21  1  0
  1 22  1  0
  3 23  1  0
  4 24  1  0
  6 25  1  0
  6 26  1  0
  6 27  1  0
  9 28  1  0
 10 29  1  0
 13 30  1  0
 13 31  1  0
 14 32  1  0
 14 33  1  0
 16 34  1  0
 16 35  1  0
 17 36  1  0
 17 37  1  0
 19 38  1  0
M  END
$$$$
