
     RDKit          3D

 40 44  0  0  0  0  0  0  0  0999 V2000
    6.2073    0.8656    0.5958 C   0  0  0  0  0  0  0  0  0  0  0  0
    5.4269    0.2999    1.6009 C   0  0  0  0  0  0  0  0  0  0  0  0
    4.0926   -0.0302    1.3484 C   0  0  0  0  0  0  0  0  0  0  0  0
    3.5161    0.1978    0.0878 C   0  0  0  0  0  0  0  0  0  0  0  0
    2.1100   -0.1510   -0.1769 C   0  0  0  0  0  0  0  0  0  0  0  0
    1.7682   -0.9972   -1.2426 C   0  0  0  0  0  0  0  0  0  0  0  0
    0.4408   -1.3475   -1.5220 C   0  0  0  0  0  0  0  0  0  0  0  0
   -0.5594   -0.8281   -0.6928 C   0  0  0  0  0  0  0  0  0  0  0  0
   -0.2668    0.0263    0.3855 C   0  0  0  0  0  0  0  0  0  0  0  0
    1.0799    0.3619    0.6353 C   0  0  0  0  0  0  0  0  0  0  0  0
   -1.5056    0.3869    0.9917 C   0  0  0  0  0  0  0  0  0  0  0  0
   -2.4848   -0.2814    0.3036 C   0  0  0  0  0  0  0  0  0  0  0  0
   -1.9215   -0.9736   -0.7153 N   0  0  0  0  0  0  0  0  0  0  0  0
   -2.7880   -1.6240   -1.6735 C   0  0  0  0  0  0  0  0  0  0  0  0
   -4.1279   -1.9956   -1.0167 C   0  0  0  0  0  0  0  0  0  0  0  0
   -4.7188   -0.9662   -0.1168 N   0  0  0  0  0  0  0  0  0  0  0  0
   -3.8906   -0.2180    0.5332 C   0  0  0  0  0  0  0  0  0  0  0  0
   -4.3362    0.7435    1.6234 C   0  0  0  0  0  0  0  0  0  0  0  0
   -3.2907    1.8432    1.9177 C   0  0  0  0  0  0  0  0  0  0  0  0
   -1.8548    1.2977    2.1166 C   0  0  0  0  0  0  0  0  0  0  0  0
    4.3210    0.7690   -0.9120 C   0  0  0  0  0  0  0  0  0  0  0  0
    5.6551    1.1008   -0.6608 C   0  0  0  0  0  0  0  0  0  0  0  0
    7.2447    1.1231    0.7917 H   0  0  0  0  0  0  0  0  0  0  0  0
    5.8550    0.1122    2.5820 H   0  0  0  0  0  0  0  0  0  0  0  0
    3.5025   -0.4813    2.1437 H   0  0  0  0  0  0  0  0  0  0  0  0
    2.5535   -1.4097   -1.8748 H   0  0  0  0  0  0  0  0  0  0  0  0
    0.2078   -2.0040   -2.3537 H   0  0  0  0  0  0  0  0  0  0  0  0
    1.3162    1.0333    1.4567 H   0  0  0  0  0  0  0  0  0  0  0  0
   -2.9436   -0.9090   -2.4891 H   0  0  0  0  0  0  0  0  0  0  0  0
   -2.2859   -2.5139   -2.0642 H   0  0  0  0  0  0  0  0  0  0  0  0
   -4.8565   -2.2217   -1.8030 H   0  0  0  0  0  0  0  0  0  0  0  0
   -4.0051   -2.9139   -0.4284 H   0  0  0  0  0  0  0  0  0  0  0  0
   -4.5123    0.1521    2.5299 H   0  0  0  0  0  0  0  0  0  0  0  0
   -5.2896    1.1982    1.3333 H   0  0  0  0  0  0  0  0  0  0  0  0
   -3.2840    2.5475    1.0748 H   0  0  0  0  0  0  0  0  0  0  0  0
   -3.5934    2.4111    2.8046 H   0  0  0  0  0  0  0  0  0  0  0  0
   -1.7972    0.7458    3.0619 H   0  0  0  0  0  0  0  0  0  0  0  0
   -1.1496    2.1339    2.1718 H   0  0  0  0  0  0  0  0  0  0  0  0
    3.9050    0.9712   -1.8970 H   0  0  0  0  0  0  0  0  0  0  0  0
    6.2600    1.5452   -1.4467 H   0  0  0  0  0  0  0  0  0  0  0  0
  1  2  2  0
  2  3  1  0
  3  4  2  0
  4  5  1  0
  5  6  2  0
  6  7  1  0
  7  8  2  0
  8  9  1  0
  9 10  2  0
  9 11  1  0
 11 12  2  0
 12 13  1  0
 13 14  1  0
 14 15  1  0
 15 16  1  0
 16 17  2  0
 17 18  1  0
 18 19  1  0
 19 20  1  0
  4 21  1  0
 21 22  2  0
 22  1  1  0
 10  5  1  0
 20 11  1  0
 13  8  1  0
 17 12  1  0
  1 23  1  0
  2 24  1  0
  3 25  1  0
  6 26  1  0
  7 27  1  0
 10 28  1  0
 14 29  1  0
 14 30  1  0
 15 31  1  0
 15 32  1  0
 18 33  1  0
 18 34  1  0
 19 35  1  0
 19 36  1  0
 20 37  1  0
 20 38  1  0
 21 39  1  0
 22 40  1  0
M  END
$$$$
