
     RDKit          3D

 63 68  0  0  0  0  0  0  0  0999 V2000
   -1.8452    2.9132    5.0312 C   0  0  0  0  0  0  0  0  0  0  0  0
   -2.4545    3.3166    3.8113 O   0  0  0  0  0  0  0  0  0  0  0  0
   -2.2938    2.4853    2.7374 C   0  0  0  0  0  0  0  0  0  0  0  0
   -2.9177    2.9180    1.5660 C   0  0  0  0  0  0  0  0  0  0  0  0
   -2.8365    2.1651    0.3919 C   0  0  0  0  0  0  0  0  0  0  0  0
   -2.1167    0.9610    0.3669 C   0  0  0  0  0  0  0  0  0  0  0  0
   -2.0391    0.1355   -0.9192 C   0  0  0  0  0  0  0  0  0  0  0  0
   -2.8907   -1.1153   -0.8165 C   0  0  0  0  0  0  0  0  0  0  0  0
   -4.2859   -1.0334   -0.7205 C   0  0  0  0  0  0  0  0  0  0  0  0
   -5.0555   -2.1905   -0.5961 C   0  0  0  0  0  0  0  0  0  0  0  0
   -4.4525   -3.4559   -0.5642 C   0  0  0  0  0  0  0  0  0  0  0  0
   -5.2299   -4.6190   -0.4337 C   0  0  0  0  0  0  0  0  0  0  0  0
   -4.6335   -5.8797   -0.4033 C   0  0  0  0  0  0  0  0  0  0  0  0
   -3.2522   -5.9944   -0.5035 C   0  0  0  0  0  0  0  0  0  0  0  0
   -2.4668   -4.8476   -0.6335 C   0  0  0  0  0  0  0  0  0  0  0  0
   -3.0456   -3.5603   -0.6653 C   0  0  0  0  0  0  0  0  0  0  0  0
   -2.2830   -2.3750   -0.7975 C   0  0  0  0  0  0  0  0  0  0  0  0
   -0.9162   -2.5117   -0.9021 O   0  0  0  0  0  0  0  0  0  0  0  0
   -0.1318   -1.4337   -1.3016 C   0  0  0  0  0  0  0  0  0  0  0  0
    1.1616   -1.7871   -1.6373 N   0  0  0  0  0  0  0  0  0  0  0  0
    1.9309   -0.8349   -2.0535 C   0  0  0  0  0  0  0  0  0  0  0  0
    1.5715    0.4788   -2.1998 N   0  0  0  0  0  0  0  0  0  0  0  0
    2.5740    1.4639   -2.6187 C   0  0  0  0  0  0  0  0  0  0  0  0
    3.2881    2.0894   -1.4012 C   0  0  0  0  0  0  0  0  0  0  0  0
    4.1478    1.1387   -0.6677 N   0  0  0  0  0  0  0  0  0  0  0  0
    5.4330    0.8632   -1.3453 C   0  0  0  0  0  0  0  0  0  0  0  0
    6.6339    1.5851   -0.7112 C   0  0  0  0  0  0  0  0  0  0  0  0
    6.8247    1.2582    0.6707 O   0  0  0  0  0  0  0  0  0  0  0  0
    5.6025    0.9287    1.3461 C   0  0  0  0  0  0  0  0  0  0  0  0
    4.3767    1.6060    0.7171 C   0  0  0  0  0  0  0  0  0  0  0  0
    0.3077    0.8936   -1.8155 C   0  0  0  0  0  0  0  0  0  0  0  0
   -0.0241    2.1481   -1.8951 N   0  0  0  0  0  0  0  0  0  0  0  0
   -0.6251   -0.1749   -1.3214 C   0  0  0  0  0  0  0  0  0  0  0  0
   -1.5002    0.5276    1.5524 C   0  0  0  0  0  0  0  0  0  0  0  0
   -1.5858    1.2850    2.7264 C   0  0  0  0  0  0  0  0  0  0  0  0
   -2.0663    3.6765    5.7835 H   0  0  0  0  0  0  0  0  0  0  0  0
   -0.7567    2.8532    4.9281 H   0  0  0  0  0  0  0  0  0  0  0  0
   -2.2625    1.9652    5.3866 H   0  0  0  0  0  0  0  0  0  0  0  0
   -3.4760    3.8513    1.5701 H   0  0  0  0  0  0  0  0  0  0  0  0
   -3.3444    2.5301   -0.4980 H   0  0  0  0  0  0  0  0  0  0  0  0
   -2.4745    0.7197   -1.7434 H   0  0  0  0  0  0  0  0  0  0  0  0
   -4.7851   -0.0670   -0.7293 H   0  0  0  0  0  0  0  0  0  0  0  0
   -6.1367   -2.0950   -0.5172 H   0  0  0  0  0  0  0  0  0  0  0  0
   -6.3127   -4.5508   -0.3543 H   0  0  0  0  0  0  0  0  0  0  0  0
   -5.2482   -6.7701   -0.3020 H   0  0  0  0  0  0  0  0  0  0  0  0
   -2.7815   -6.9737   -0.4816 H   0  0  0  0  0  0  0  0  0  0  0  0
   -1.3868   -4.9631   -0.7118 H   0  0  0  0  0  0  0  0  0  0  0  0
    2.9743   -1.0586   -2.3313 H   0  0  0  0  0  0  0  0  0  0  0  0
    2.1029    2.2612   -3.2070 H   0  0  0  0  0  0  0  0  0  0  0  0
    3.2977    1.0005   -3.3001 H   0  0  0  0  0  0  0  0  0  0  0  0
    3.8791    2.9543   -1.7289 H   0  0  0  0  0  0  0  0  0  0  0  0
    2.5172    2.4781   -0.7233 H   0  0  0  0  0  0  0  0  0  0  0  0
    5.3912    1.0926   -2.4156 H   0  0  0  0  0  0  0  0  0  0  0  0
    5.6041   -0.2178   -1.2674 H   0  0  0  0  0  0  0  0  0  0  0  0
    6.5187    2.6723   -0.7931 H   0  0  0  0  0  0  0  0  0  0  0  0
    7.5541    1.3167   -1.2402 H   0  0  0  0  0  0  0  0  0  0  0  0
    5.7115    1.2407    2.3897 H   0  0  0  0  0  0  0  0  0  0  0  0
    5.4921   -0.1621    1.3421 H   0  0  0  0  0  0  0  0  0  0  0  0
    4.5382    2.6922    0.7303 H   0  0  0  0  0  0  0  0  0  0  0  0
    3.4876    1.3884    1.3191 H   0  0  0  0  0  0  0  0  0  0  0  0
   -0.9686    2.3251   -1.5526 H   0  0  0  0  0  0  0  0  0  0  0  0
   -0.9488   -0.4113    1.5766 H   0  0  0  0  0  0  0  0  0  0  0  0
   -1.0899    0.9038    3.6128 H   0  0  0  0  0  0  0  0  0  0  0  0
  1  2  1  0
  2  3  1  0
  3  4  2  0
  4  5  1  0
  5  6  2  0
  6  7  1  0
  7  8  1  0
  8  9  2  0
  9 10  1  0
 10 11  2  0
 11 12  1  0
 12 13  2  0
 13 14  1  0
 14 15  2  0
 15 16  1  0
 16 17  2  0
 17 18  1  0
 18 19  1  0
 19 20  1  0
 20 21  2  0
 21 22  1  0
 22 23  1  0
 23 24  1  0
 24 25  1  0
 25 26  1  0
 26 27  1  0
 27 28  1  0
 28 29  1  0
 29 30  1  0
 22 31  1  0
 31 32  2  3
 31 33  1  0
  6 34  1  0
 34 35  2  0
 35  3  1  0
 33  7  1  0
 17  8  1  0
 33 19  2  0
 16 11  1  0
 30 25  1  0
  1 36  1  0
  1 37  1  0
  1 38  1  0
  4 39  1  0
  5 40  1  0
  7 41  1  0
  9 42  1  0
 10 43  1  0
 12 44  1  0
 13 45  1  0
 14 46  1  0
 15 47  1  0
 21 48  1  0
 23 49  1  0
 23 50  1  0
 24 51  1  0
 24 52  1  0
 26 53  1  0
 26 54  1  0
 27 55  1  0
 27 56  1  0
 29 57  1  0
 29 58  1  0
 30 59  1  0
 30 60  1  0
 32 61  1  0
 34 62  1  0
 35 63  1  0
M  END
$$$$
