
     RDKit          3D

 52 54  0  0  0  0  0  0  0  0999 V2000
   -1.3257   -4.6970   -2.0104 C   0  0  0  0  0  0  0  0  0  0  0  0
   -1.1369   -3.3882   -1.2571 C   0  0  0  0  0  0  0  0  0  0  0  0
   -2.4577   -2.6369   -1.0778 C   0  0  0  0  0  0  0  0  0  0  0  0
   -2.2476   -1.3773   -0.2283 C   0  0  0  0  0  0  0  0  0  0  0  0
   -3.4963   -0.4797   -0.1222 C   0  0  0  0  0  0  0  0  0  0  0  0
   -3.9602    0.1143   -1.4700 C   0  0  0  0  0  0  0  0  0  0  0  0
   -2.8705    0.6707   -2.3764 C   0  0  0  0  0  0  0  0  0  0  0  0
   -3.3892    0.5808    1.0149 C   0  0  0  0  0  0  0  0  0  0  0  0
   -2.2763    1.5339    0.9234 N   0  0  0  0  0  0  0  0  0  0  0  0
   -1.0495    1.1754    1.4693 C   0  0  0  0  0  0  0  0  0  0  0  0
   -0.8280    0.1266    2.0555 O   0  0  0  0  0  0  0  0  0  0  0  0
   -0.0469    2.2638    1.2813 C   0  0  0  0  0  0  0  0  0  0  0  0
    1.2568    2.2755    1.6074 C   0  0  0  0  0  0  0  0  0  0  0  0
    2.0221    1.2612    2.2563 C   0  0  0  0  0  0  0  0  0  0  0  0
    1.6930    0.6201    3.4267 C   0  0  0  0  0  0  0  0  0  0  0  0
    2.6931   -0.2744    3.6568 N   0  0  0  0  0  0  0  0  0  0  0  0
    3.6782   -0.2283    2.7480 N   0  0  0  0  0  0  0  0  0  0  0  0
    3.2906    0.7246    1.8832 C   0  0  0  0  0  0  0  0  0  0  0  0
    4.1180    1.0622    0.7313 C   0  0  0  0  0  0  0  0  0  0  0  0
    4.4011    0.0863   -0.2326 C   0  0  0  0  0  0  0  0  0  0  0  0
    5.1865    0.3998   -1.3436 C   0  0  0  0  0  0  0  0  0  0  0  0
    5.6997    1.6879   -1.4916 C   0  0  0  0  0  0  0  0  0  0  0  0
    5.4341    2.6615   -0.5281 C   0  0  0  0  0  0  0  0  0  0  0  0
    4.6451    2.3503    0.5821 C   0  0  0  0  0  0  0  0  0  0  0  0
   -0.8061    3.6112    0.5110 S   0  0  0  0  0  0  0  0  0  0  0  0
   -2.3852    2.8370    0.4802 C   0  0  0  0  0  0  0  0  0  0  0  0
   -3.7477    3.6662   -0.0171 S   0  0  0  0  0  0  0  0  0  0  0  0
   -0.3593   -5.1939   -2.1428 H   0  0  0  0  0  0  0  0  0  0  0  0
   -1.9844   -5.3765   -1.4571 H   0  0  0  0  0  0  0  0  0  0  0  0
   -1.7601   -4.5212   -2.9997 H   0  0  0  0  0  0  0  0  0  0  0  0
   -0.4267   -2.7575   -1.8053 H   0  0  0  0  0  0  0  0  0  0  0  0
   -0.6933   -3.5975   -0.2780 H   0  0  0  0  0  0  0  0  0  0  0  0
   -3.1783   -3.2927   -0.5710 H   0  0  0  0  0  0  0  0  0  0  0  0
   -2.8724   -2.3899   -2.0606 H   0  0  0  0  0  0  0  0  0  0  0  0
   -1.9658   -1.7115    0.7786 H   0  0  0  0  0  0  0  0  0  0  0  0
   -1.3990   -0.8043   -0.6200 H   0  0  0  0  0  0  0  0  0  0  0  0
   -4.3220   -1.1311    0.2027 H   0  0  0  0  0  0  0  0  0  0  0  0
   -4.7102    0.8918   -1.2835 H   0  0  0  0  0  0  0  0  0  0  0  0
   -4.4907   -0.6652   -2.0319 H   0  0  0  0  0  0  0  0  0  0  0  0
   -2.1693    1.3143   -1.8466 H   0  0  0  0  0  0  0  0  0  0  0  0
   -2.2993   -0.1318   -2.8494 H   0  0  0  0  0  0  0  0  0  0  0  0
   -3.3241    1.2599   -3.1775 H   0  0  0  0  0  0  0  0  0  0  0  0
   -3.2889    0.0439    1.9682 H   0  0  0  0  0  0  0  0  0  0  0  0
   -4.3384    1.1238    1.0859 H   0  0  0  0  0  0  0  0  0  0  0  0
    1.8299    3.1578    1.3263 H   0  0  0  0  0  0  0  0  0  0  0  0
    0.8403    0.6903    4.0895 H   0  0  0  0  0  0  0  0  0  0  0  0
    2.7710   -0.9471    4.4139 H   0  0  0  0  0  0  0  0  0  0  0  0
    4.0112   -0.9232   -0.1152 H   0  0  0  0  0  0  0  0  0  0  0  0
    5.4003   -0.3634   -2.0894 H   0  0  0  0  0  0  0  0  0  0  0  0
    6.3186    1.9298   -2.3518 H   0  0  0  0  0  0  0  0  0  0  0  0
    5.8492    3.6598   -0.6360 H   0  0  0  0  0  0  0  0  0  0  0  0
    4.4671    3.1077    1.3392 H   0  0  0  0  0  0  0  0  0  0  0  0
  1  2  1  0
  2  3  1  0
  3  4  1  0
  4  5  1  0
  5  6  1  0
  6  7  1  0
  5  8  1  0
  8  9  1  0
  9 10  1  0
 10 11  2  0
 10 12  1  0
 12 13  2  3
 13 14  1  0
 14 15  2  0
 15 16  1  0
 16 17  1  0
 17 18  2  0
 18 19  1  0
 19 20  2  0
 20 21  1  0
 21 22  2  0
 22 23  1  0
 23 24  2  0
 12 25  1  0
 25 26  1  0
 26 27  2  0
 26  9  1  0
 18 14  1  0
 24 19  1  0
  1 28  1  0
  1 29  1  0
  1 30  1  0
  2 31  1  0
  2 32  1  0
  3 33  1  0
  3 34  1  0
  4 35  1  0
  4 36  1  0
  5 37  1  0
  6 38  1  0
  6 39  1  0
  7 40  1  0
  7 41  1  0
  7 42  1  0
  8 43  1  0
  8 44  1  0
 13 45  1  0
 15 46  1  0
 16 47  1  0
 20 48  1  0
 21 49  1  0
 22 50  1  0
 23 51  1  0
 24 52  1  0
M  END
$$$$
