
     RDKit          3D

 22 23  0  0  0  0  0  0  0  0999 V2000
   -4.1648    0.4252    0.2604 C   0  0  0  0  0  0  0  0  0  0  0  0
   -2.6780    0.2432    0.1868 C   0  0  0  0  0  0  0  0  0  0  0  0
   -1.8461    1.3161   -0.1445 C   0  0  0  0  0  0  0  0  0  0  0  0
   -0.4599    1.1404   -0.2450 C   0  0  0  0  0  0  0  0  0  0  0  0
    0.1295   -0.1149   -0.0259 C   0  0  0  0  0  0  0  0  0  0  0  0
    1.5812   -0.3615   -0.1172 C   0  0  0  0  0  0  0  0  0  0  0  0
    2.1447   -1.5505    0.0045 N   0  0  0  0  0  0  0  0  0  0  0  0
    3.5181   -1.5083   -0.1220 N   0  0  0  0  0  0  0  0  0  0  0  0
    3.9636   -0.2924   -0.3296 C   0  0  0  0  0  0  0  0  0  0  0  0
    5.2636    0.0299   -0.4763 N   0  0  0  0  0  0  0  0  0  0  0  0
    2.7305    0.8968   -0.3789 S   0  0  0  0  0  0  0  0  0  0  0  0
   -0.7218   -1.1879    0.2894 C   0  0  0  0  0  0  0  0  0  0  0  0
   -2.1064   -1.0146    0.3903 C   0  0  0  0  0  0  0  0  0  0  0  0
   -4.6123    0.2503   -0.7228 H   0  0  0  0  0  0  0  0  0  0  0  0
   -4.4184    1.4383    0.5899 H   0  0  0  0  0  0  0  0  0  0  0  0
   -4.6085   -0.2706    0.9803 H   0  0  0  0  0  0  0  0  0  0  0  0
   -2.2702    2.3012   -0.3285 H   0  0  0  0  0  0  0  0  0  0  0  0
    0.1387    2.0097   -0.5047 H   0  0  0  0  0  0  0  0  0  0  0  0
    5.5373    0.9770   -0.2442 H   0  0  0  0  0  0  0  0  0  0  0  0
    5.9189   -0.6731   -0.1502 H   0  0  0  0  0  0  0  0  0  0  0  0
   -0.3082   -2.1818    0.4588 H   0  0  0  0  0  0  0  0  0  0  0  0
   -2.7313   -1.8725    0.6295 H   0  0  0  0  0  0  0  0  0  0  0  0
  1  2  1  0
  2  3  2  0
  3  4  1  0
  4  5  2  0
  5  6  1  0
  6  7  2  0
  7  8  1  0
  8  9  2  0
  9 10  1  0
  9 11  1  0
  5 12  1  0
 12 13  2  0
 13  2  1  0
 11  6  1  0
  1 14  1  0
  1 15  1  0
  1 16  1  0
  3 17  1  0
  4 18  1  0
 10 19  1  0
 10 20  1  0
 12 21  1  0
 13 22  1  0
M  END
$$$$
