
     RDKit          3D

 39 41  0  0  0  0  0  0  0  0999 V2000
    3.9266    1.1175    1.8494 O   0  0  0  0  0  0  0  0  0  0  0  0
    4.0884    0.3508    0.9062 C   0  0  0  0  0  0  0  0  0  0  0  0
    3.1076   -0.0584    0.0207 N   0  0  0  0  0  0  0  0  0  0  0  0
    1.7461    0.2959   -0.0029 C   0  0  0  0  0  0  0  0  0  0  0  0
    1.1471    1.1623    0.9114 C   0  0  0  0  0  0  0  0  0  0  0  0
   -0.2178    1.4620    0.8185 C   0  0  0  0  0  0  0  0  0  0  0  0
   -1.0098    0.8949   -0.1874 C   0  0  0  0  0  0  0  0  0  0  0  0
   -2.4808    1.2400   -0.2964 C   0  0  0  0  0  0  0  0  0  0  0  0
   -3.3505    0.0590   -0.4076 N   0  0  0  0  0  0  0  0  0  0  0  0
   -3.4194   -0.7275    0.8444 C   0  0  0  0  0  0  0  0  0  0  0  0
   -4.6878   -0.4586    1.6699 C   0  0  0  0  0  0  0  0  0  0  0  0
   -5.9000   -0.7337    0.9541 O   0  0  0  0  0  0  0  0  0  0  0  0
   -5.7605   -0.5877   -0.4659 C   0  0  0  0  0  0  0  0  0  0  0  0
   -4.7046    0.4591   -0.8474 C   0  0  0  0  0  0  0  0  0  0  0  0
   -0.4031    0.0337   -1.1099 C   0  0  0  0  0  0  0  0  0  0  0  0
    0.9594   -0.2651   -1.0155 C   0  0  0  0  0  0  0  0  0  0  0  0
    5.3853   -0.2328    0.6084 C   0  0  0  0  0  0  0  0  0  0  0  0
    6.6109   -0.0919    1.2320 C   0  0  0  0  0  0  0  0  0  0  0  0
    7.5297   -0.8943    0.5129 C   0  0  0  0  0  0  0  0  0  0  0  0
    6.8136   -1.4777   -0.5063 C   0  0  0  0  0  0  0  0  0  0  0  0
    7.5241   -2.6686   -1.8079 Br  0  0  0  0  0  0  0  0  0  0  0  0
    5.5125   -1.0849   -0.4595 O   0  0  0  0  0  0  0  0  0  0  0  0
    3.4261   -0.6984   -0.6991 H   0  0  0  0  0  0  0  0  0  0  0  0
    1.7120    1.6271    1.7132 H   0  0  0  0  0  0  0  0  0  0  0  0
   -0.6537    2.1439    1.5453 H   0  0  0  0  0  0  0  0  0  0  0  0
   -2.5832    1.8624   -1.1958 H   0  0  0  0  0  0  0  0  0  0  0  0
   -2.7917    1.8629    0.5527 H   0  0  0  0  0  0  0  0  0  0  0  0
   -3.4209   -1.7851    0.5513 H   0  0  0  0  0  0  0  0  0  0  0  0
   -2.5338   -0.5884    1.4741 H   0  0  0  0  0  0  0  0  0  0  0  0
   -4.7185    0.5854    2.0026 H   0  0  0  0  0  0  0  0  0  0  0  0
   -4.6908   -1.0849    2.5678 H   0  0  0  0  0  0  0  0  0  0  0  0
   -5.5151   -1.5678   -0.8916 H   0  0  0  0  0  0  0  0  0  0  0  0
   -6.7389   -0.2973   -0.8620 H   0  0  0  0  0  0  0  0  0  0  0  0
   -4.9905    1.4137   -0.3856 H   0  0  0  0  0  0  0  0  0  0  0  0
   -4.6994    0.5988   -1.9339 H   0  0  0  0  0  0  0  0  0  0  0  0
   -0.9969   -0.4155   -1.9037 H   0  0  0  0  0  0  0  0  0  0  0  0
    1.3914   -0.9436   -1.7465 H   0  0  0  0  0  0  0  0  0  0  0  0
    6.8036    0.5214    2.1026 H   0  0  0  0  0  0  0  0  0  0  0  0
    8.5832   -1.0285    0.7152 H   0  0  0  0  0  0  0  0  0  0  0  0
  1  2  2  0
  2  3  1  0
  3  4  1  0
  4  5  2  0
  5  6  1  0
  6  7  2  0
  7  8  1  0
  8  9  1  0
  9 10  1  0
 10 11  1  0
 11 12  1  0
 12 13  1  0
 13 14  1  0
  7 15  1  0
 15 16  2  0
  2 17  1  0
 17 18  2  0
 18 19  1  0
 19 20  2  0
 20 21  1  0
 20 22  1  0
 16  4  1  0
 22 17  1  0
 14  9  1  0
  3 23  1  0
  5 24  1  0
  6 25  1  0
  8 26  1  0
  8 27  1  0
 10 28  1  0
 10 29  1  0
 11 30  1  0
 11 31  1  0
 13 32  1  0
 13 33  1  0
 14 34  1  0
 14 35  1  0
 15 36  1  0
 16 37  1  0
 18 38  1  0
 19 39  1  0
M  END
$$$$
