
     RDKit          3D

 31 33  0  0  0  0  0  0  0  0999 V2000
   -3.7307    1.7432   -1.2572 O   0  0  0  0  0  0  0  0  0  0  0  0
   -2.5958    1.3986   -0.9547 C   0  0  0  0  0  0  0  0  0  0  0  0
   -1.6086    2.3211   -0.9288 O   0  0  0  0  0  0  0  0  0  0  0  0
   -2.1600   -0.0325   -0.6596 C   0  0  0  0  0  0  0  0  0  0  0  0
   -2.1954   -0.9102   -1.8858 C   0  0  0  0  0  0  0  0  0  0  0  0
   -2.1798   -2.4153   -1.7759 C   0  0  0  0  0  0  0  0  0  0  0  0
   -0.9020   -1.6443   -1.9803 C   0  0  0  0  0  0  0  0  0  0  0  0
   -0.0384   -1.2459   -0.8260 C   0  0  0  0  0  0  0  0  0  0  0  0
   -0.7487   -0.1236   -0.1736 N   0  0  0  0  0  0  0  0  0  0  0  0
   -0.5727    0.0624    1.4894 S   0  0  0  0  0  6  0  0  0  0  0  0
   -0.8143   -1.2287    2.0985 O   0  0  0  0  0  0  0  0  0  0  0  0
   -1.3171    1.2300    1.9078 O   0  0  0  0  0  0  0  0  0  0  0  0
    1.1533    0.4450    1.6434 C   0  0  0  0  0  0  0  0  0  0  0  0
    1.6299    1.6414    1.0966 C   0  0  0  0  0  0  0  0  0  0  0  0
    2.9851    1.9554    1.2068 C   0  0  0  0  0  0  0  0  0  0  0  0
    3.8473    1.0758    1.8637 C   0  0  0  0  0  0  0  0  0  0  0  0
    5.6834    1.5020    2.0109 Br  0  0  0  0  0  0  0  0  0  0  0  0
    3.3688   -0.1151    2.4141 C   0  0  0  0  0  0  0  0  0  0  0  0
    2.0138   -0.4345    2.3063 C   0  0  0  0  0  0  0  0  0  0  0  0
   -2.0746    3.1658   -1.0959 H   0  0  0  0  0  0  0  0  0  0  0  0
   -2.8429   -0.4373    0.0976 H   0  0  0  0  0  0  0  0  0  0  0  0
   -2.6162   -0.4532   -2.7703 H   0  0  0  0  0  0  0  0  0  0  0  0
   -2.3652   -2.8685   -0.8079 H   0  0  0  0  0  0  0  0  0  0  0  0
   -2.5667   -2.9874   -2.6119 H   0  0  0  0  0  0  0  0  0  0  0  0
   -0.3874   -1.7020   -2.9280 H   0  0  0  0  0  0  0  0  0  0  0  0
    0.1073   -2.0971   -0.1548 H   0  0  0  0  0  0  0  0  0  0  0  0
    0.9371   -0.8974   -1.1785 H   0  0  0  0  0  0  0  0  0  0  0  0
    0.9508    2.3232    0.5875 H   0  0  0  0  0  0  0  0  0  0  0  0
    3.3572    2.8845    0.7822 H   0  0  0  0  0  0  0  0  0  0  0  0
    4.0412   -0.7960    2.9305 H   0  0  0  0  0  0  0  0  0  0  0  0
    1.6414   -1.3594    2.7415 H   0  0  0  0  0  0  0  0  0  0  0  0
  1  2  2  0
  2  3  1  0
  2  4  1  0
  4  5  1  0
  5  6  1  0
  6  7  1  0
  7  8  1  0
  8  9  1  0
  9 10  1  0
 10 11  2  0
 10 12  2  0
 10 13  1  0
 13 14  2  0
 14 15  1  0
 15 16  2  0
 16 17  1  0
 16 18  1  0
 18 19  2  0
  9  4  1  0
 19 13  1  0
  7  5  1  0
  3 20  1  0
  4 21  1  0
  5 22  1  0
  6 23  1  0
  6 24  1  0
  7 25  1  0
  8 26  1  0
  8 27  1  0
 14 28  1  0
 15 29  1  0
 18 30  1  0
 19 31  1  0
M  END
$$$$
