
     RDKit          3D

 28 30  0  0  0  0  0  0  0  0999 V2000
    1.0912    3.7923    1.2718 S   0  0  0  0  0  0  0  0  0  0  0  0
   -0.2163    2.8720    0.8254 C   0  0  0  0  0  0  0  0  0  0  0  0
   -1.4988    3.4009    0.6887 N   0  0  0  0  0  0  0  0  0  0  0  0
   -2.4093    2.4087    0.4493 N   0  0  0  0  0  0  0  0  0  0  0  0
   -1.7000    1.3095    0.4031 C   0  0  0  0  0  0  0  0  0  0  0  0
   -2.3051   -0.0135    0.1712 C   0  0  0  0  0  0  0  0  0  0  0  0
   -3.4800   -0.0968   -0.5831 C   0  0  0  0  0  0  0  0  0  0  0  0
   -4.0797   -1.3363   -0.7958 C   0  0  0  0  0  0  0  0  0  0  0  0
   -3.4882   -2.4557   -0.2352 C   0  0  0  0  0  0  0  0  0  0  0  0
   -2.3654   -2.4125    0.5132 N   0  0  0  0  0  0  0  0  0  0  0  0
   -1.8017   -1.1914    0.7058 C   0  0  0  0  0  0  0  0  0  0  0  0
   -0.3517    1.5182    0.5567 N   0  0  0  0  0  0  0  0  0  0  0  0
    0.5824    0.5287    0.6071 N   0  0  0  0  0  0  0  0  0  0  0  0
    1.7361    0.7556    0.0645 C   0  0  0  0  0  0  0  0  0  0  0  0
    2.8107   -0.2104    0.1071 C   0  0  0  0  0  0  0  0  0  0  0  0
    4.0766   -0.0781   -0.4353 C   0  0  0  0  0  0  0  0  0  0  0  0
    4.8886   -1.2304   -0.2061 C   0  0  0  0  0  0  0  0  0  0  0  0
    4.2029   -2.1851    0.5002 C   0  0  0  0  0  0  0  0  0  0  0  0
    4.9545   -3.8691    1.0008 Br  0  0  0  0  0  0  0  0  0  0  0  0
    2.6211   -1.7245    0.8875 S   0  0  0  0  0  0  0  0  0  0  0  0
   -1.7829    4.3545    0.8813 H   0  0  0  0  0  0  0  0  0  0  0  0
   -3.9298    0.7981   -1.0069 H   0  0  0  0  0  0  0  0  0  0  0  0
   -4.9880   -1.4247   -1.3814 H   0  0  0  0  0  0  0  0  0  0  0  0
   -3.9165   -3.4448   -0.3716 H   0  0  0  0  0  0  0  0  0  0  0  0
   -0.9250   -1.2108    1.3452 H   0  0  0  0  0  0  0  0  0  0  0  0
    1.9498    1.6830   -0.4948 H   0  0  0  0  0  0  0  0  0  0  0  0
    4.4121    0.8027   -0.9707 H   0  0  0  0  0  0  0  0  0  0  0  0
    5.9123   -1.3400   -0.5427 H   0  0  0  0  0  0  0  0  0  0  0  0
  1  2  2  0
  2  3  1  0
  3  4  1  0
  4  5  2  0
  5  6  1  0
  6  7  2  0
  7  8  1  0
  8  9  2  0
  9 10  1  0
 10 11  2  0
  5 12  1  0
 12 13  1  0
 13 14  2  3
 14 15  1  0
 15 16  2  0
 16 17  1  0
 17 18  2  0
 18 19  1  0
 18 20  1  0
 12  2  1  0
 20 15  1  0
 11  6  1  0
  3 21  1  0
  7 22  1  0
  8 23  1  0
  9 24  1  0
 11 25  1  0
 14 26  1  0
 16 27  1  0
 17 28  1  0
M  END
$$$$
