
     RDKit          3D

 37 40  0  0  0  0  0  0  0  0999 V2000
    2.5246   -0.6317   -1.9338 O   0  0  0  0  0  0  0  0  0  0  0  0
    2.0244   -0.1465   -0.9299 C   0  0  0  0  0  0  0  0  0  0  0  0
    2.5445    0.8063   -0.0877 N   0  0  0  0  0  0  0  0  0  0  0  0
    3.7515    1.4441   -0.2073 C   0  0  0  0  0  0  0  0  0  0  0  0
    4.1386    2.3198    0.6917 N   0  0  0  0  0  0  0  0  0  0  0  0
    5.3793    2.8185    0.3429 C   0  0  0  0  0  0  0  0  0  0  0  0
    5.9138    2.3144   -0.8226 C   0  0  0  0  0  0  0  0  0  0  0  0
    4.8256    1.1790   -1.5023 S   0  0  0  0  0  0  0  0  0  0  0  0
    0.6804   -0.6156   -0.5176 C   0  0  0  0  0  0  0  0  0  0  0  0
   -0.3479    0.3295   -0.4793 C   0  0  0  0  0  0  0  0  0  0  0  0
   -1.6101   -0.0831   -0.0878 C   0  0  0  0  0  0  0  0  0  0  0  0
   -2.7717    0.8290   -0.0134 C   0  0  0  0  0  0  0  0  0  0  0  0
   -4.0750    0.3488   -0.2444 C   0  0  0  0  0  0  0  0  0  0  0  0
   -5.1882    1.1926   -0.1858 C   0  0  0  0  0  0  0  0  0  0  0  0
   -5.0235    2.5413    0.1116 C   0  0  0  0  0  0  0  0  0  0  0  0
   -3.7487    3.0434    0.3542 C   0  0  0  0  0  0  0  0  0  0  0  0
   -2.6364    2.1962    0.2942 C   0  0  0  0  0  0  0  0  0  0  0  0
   -1.8537   -1.3748    0.2460 N   0  0  0  0  0  0  0  0  0  0  0  0
   -0.8659   -2.2855    0.1968 C   0  0  0  0  0  0  0  0  0  0  0  0
   -1.1596   -3.5970    0.5465 C   0  0  0  0  0  0  0  0  0  0  0  0
   -0.1908   -4.6031    0.5278 C   0  0  0  0  0  0  0  0  0  0  0  0
    1.1086   -4.2980    0.1503 C   0  0  0  0  0  0  0  0  0  0  0  0
    1.4294   -2.9893   -0.2041 C   0  0  0  0  0  0  0  0  0  0  0  0
    0.4478   -1.9659   -0.1865 C   0  0  0  0  0  0  0  0  0  0  0  0
    2.0425    1.0747    0.7474 H   0  0  0  0  0  0  0  0  0  0  0  0
    5.8539    3.5553    0.9796 H   0  0  0  0  0  0  0  0  0  0  0  0
    6.8576    2.5498   -1.2925 H   0  0  0  0  0  0  0  0  0  0  0  0
   -0.1631    1.3538   -0.7856 H   0  0  0  0  0  0  0  0  0  0  0  0
   -4.2295   -0.7041   -0.4780 H   0  0  0  0  0  0  0  0  0  0  0  0
   -6.1811    0.7912   -0.3711 H   0  0  0  0  0  0  0  0  0  0  0  0
   -5.8879    3.1982    0.1597 H   0  0  0  0  0  0  0  0  0  0  0  0
   -3.6176    4.0951    0.5966 H   0  0  0  0  0  0  0  0  0  0  0  0
   -1.6608    2.6243    0.5113 H   0  0  0  0  0  0  0  0  0  0  0  0
   -2.1767   -3.8444    0.8433 H   0  0  0  0  0  0  0  0  0  0  0  0
   -0.4577   -5.6195    0.8054 H   0  0  0  0  0  0  0  0  0  0  0  0
    1.8704   -5.0732    0.1256 H   0  0  0  0  0  0  0  0  0  0  0  0
    2.4529   -2.7737   -0.5072 H   0  0  0  0  0  0  0  0  0  0  0  0
  1  2  2  0
  2  3  1  0
  3  4  1  0
  4  5  2  0
  5  6  1  0
  6  7  2  0
  7  8  1  0
  2  9  1  0
  9 10  2  0
 10 11  1  0
 11 12  1  0
 12 13  2  0
 13 14  1  0
 14 15  2  0
 15 16  1  0
 16 17  2  0
 11 18  2  0
 18 19  1  0
 19 20  2  0
 20 21  1  0
 21 22  2  0
 22 23  1  0
 23 24  2  0
  8  4  1  0
 24  9  1  0
 17 12  1  0
 24 19  1  0
  3 25  1  0
  6 26  1  0
  7 27  1  0
 10 28  1  0
 13 29  1  0
 14 30  1  0
 15 31  1  0
 16 32  1  0
 17 33  1  0
 20 34  1  0
 21 35  1  0
 22 36  1  0
 23 37  1  0
M  END
$$$$
