
     RDKit          3D

 43 45  0  0  0  0  0  0  0  0999 V2000
    3.9726   -1.6220   -0.3987 N   0  0  0  0  0  0  0  0  0  0  0  0
    3.2119   -0.7472   -0.4518 C   0  0  0  0  0  0  0  0  0  0  0  0
    2.3435    0.3684   -0.5596 C   0  0  0  0  0  0  0  0  0  0  0  0
    1.0999    0.4091   -0.0436 C   0  0  0  0  0  0  0  0  0  0  0  0
    0.4497   -0.6219    0.6957 C   0  0  0  0  0  0  0  0  0  0  0  0
    0.9212   -1.6868    1.4549 C   0  0  0  0  0  0  0  0  0  0  0  0
   -0.1963   -2.3858    1.9771 C   0  0  0  0  0  0  0  0  0  0  0  0
   -1.3155   -1.7203    1.5333 C   0  0  0  0  0  0  0  0  0  0  0  0
   -2.7554   -1.9028    1.7054 C   0  0  0  0  0  0  0  0  0  0  0  0
   -3.2512   -2.9171    2.5414 C   0  0  0  0  0  0  0  0  0  0  0  0
   -4.6272   -3.1000    2.7134 C   0  0  0  0  0  0  0  0  0  0  0  0
   -5.5217   -2.2592    2.0493 C   0  0  0  0  0  0  0  0  0  0  0  0
   -7.2655   -2.4985    2.2627 S   0  0  0  0  0  6  0  0  0  0  0  0
   -7.5688   -1.5550    3.6243 N   0  0  0  0  0  0  0  0  0  0  0  0
   -7.9555   -1.8458    1.1742 O   0  0  0  0  0  0  0  0  0  0  0  0
   -7.4979   -3.8782    2.6161 O   0  0  0  0  0  0  0  0  0  0  0  0
   -5.0557   -1.2540    1.2023 C   0  0  0  0  0  0  0  0  0  0  0  0
   -3.6780   -1.0780    1.0386 C   0  0  0  0  0  0  0  0  0  0  0  0
   -0.9265   -0.6574    0.7746 O   0  0  0  0  0  0  0  0  0  0  0  0
    2.8016    1.5948   -1.3132 C   0  0  0  0  0  0  0  0  0  0  0  0
    2.0812    2.5889   -1.3503 O   0  0  0  0  0  0  0  0  0  0  0  0
    4.0437    1.4865   -1.9184 N   0  0  0  0  0  0  0  0  0  0  0  0
    4.7172    2.4720   -2.6779 C   0  0  0  0  0  0  0  0  0  0  0  0
    4.2156    3.7485   -2.9375 C   0  0  0  0  0  0  0  0  0  0  0  0
    4.9539    4.6598   -3.7008 C   0  0  0  0  0  0  0  0  0  0  0  0
    6.1996    4.3038   -4.2108 C   0  0  0  0  0  0  0  0  0  0  0  0
    6.7103    3.0344   -3.9585 C   0  0  0  0  0  0  0  0  0  0  0  0
    5.9730    2.1242   -3.1964 C   0  0  0  0  0  0  0  0  0  0  0  0
    0.4813    1.2897   -0.2138 H   0  0  0  0  0  0  0  0  0  0  0  0
    1.9553   -1.9452    1.6368 H   0  0  0  0  0  0  0  0  0  0  0  0
   -0.1744   -3.2652    2.6048 H   0  0  0  0  0  0  0  0  0  0  0  0
   -2.5716   -3.5834    3.0681 H   0  0  0  0  0  0  0  0  0  0  0  0
   -4.9889   -3.8993    3.3579 H   0  0  0  0  0  0  0  0  0  0  0  0
   -8.1930   -0.7900    3.3622 H   0  0  0  0  0  0  0  0  0  0  0  0
   -6.7212   -1.2162    4.0778 H   0  0  0  0  0  0  0  0  0  0  0  0
   -5.7467   -0.6094    0.6630 H   0  0  0  0  0  0  0  0  0  0  0  0
   -3.3286   -0.2898    0.3732 H   0  0  0  0  0  0  0  0  0  0  0  0
    4.5568    0.6165   -1.8331 H   0  0  0  0  0  0  0  0  0  0  0  0
    3.2510    4.0753   -2.5635 H   0  0  0  0  0  0  0  0  0  0  0  0
    4.5497    5.6504   -3.8949 H   0  0  0  0  0  0  0  0  0  0  0  0
    6.7694    5.0149   -4.8032 H   0  0  0  0  0  0  0  0  0  0  0  0
    7.6822    2.7511   -4.3544 H   0  0  0  0  0  0  0  0  0  0  0  0
    6.3992    1.1402   -3.0164 H   0  0  0  0  0  0  0  0  0  0  0  0
  1  2  3  0
  2  3  1  0
  3  4  2  3
  4  5  1  0
  5  6  2  0
  6  7  1  0
  7  8  2  0
  8  9  1  0
  9 10  2  0
 10 11  1  0
 11 12  2  0
 12 13  1  0
 13 14  1  0
 13 15  2  0
 13 16  2  0
 12 17  1  0
 17 18  2  0
  8 19  1  0
  3 20  1  0
 20 21  2  0
 20 22  1  0
 22 23  1  0
 23 24  2  0
 24 25  1  0
 25 26  2  0
 26 27  1  0
 27 28  2  0
 19  5  1  0
 28 23  1  0
 18  9  1  0
  4 29  1  0
  6 30  1  0
  7 31  1  0
 10 32  1  0
 11 33  1  0
 14 34  1  0
 14 35  1  0
 17 36  1  0
 18 37  1  0
 22 38  1  0
 24 39  1  0
 25 40  1  0
 26 41  1  0
 27 42  1  0
 28 43  1  0
M  END
$$$$
