
     RDKit          3D

 46 47  0  0  0  0  0  0  0  0999 V2000
    0.5736    1.3063    1.0300 O   0  0  0  0  0  0  0  0  0  0  0  0
    0.7250    0.4310    0.1909 C   0  0  0  0  0  0  0  0  0  0  0  0
   -0.2934   -0.3062   -0.3628 N   0  0  0  0  0  0  0  0  0  0  0  0
   -1.6962   -0.0275   -0.0360 C   0  0  0  0  0  0  0  0  0  0  0  0
   -2.1736    1.1772   -0.8721 C   0  0  0  0  0  0  0  0  0  0  0  0
   -3.5416    1.7692   -0.5202 C   0  0  0  0  0  0  0  0  0  0  0  0
   -4.7348    0.8806   -0.8698 C   0  0  0  0  0  0  0  0  0  0  0  0
   -5.3622    0.1381    0.3096 C   0  0  0  0  0  0  0  0  0  0  0  0
   -4.4194   -0.5066    1.3203 C   0  0  0  0  0  0  0  0  0  0  0  0
   -3.5467   -1.6403    0.7924 C   0  0  0  0  0  0  0  0  0  0  0  0
   -2.5160   -1.3049   -0.2876 C   0  0  0  0  0  0  0  0  0  0  0  0
    1.9378    0.0479   -0.3284 N   0  0  0  0  0  0  0  0  0  0  0  0
    3.1795    0.6260    0.1756 C   0  0  0  0  0  0  0  0  0  0  0  0
    4.3087    0.4370   -0.8515 C   0  0  0  0  0  0  0  0  0  0  0  0
    5.1106   -0.8327   -0.5879 C   0  0  0  0  0  0  0  0  0  0  0  0
    5.7776   -0.8085    0.7890 C   0  0  0  0  0  0  0  0  0  0  0  0
    5.0260    0.0391    1.8166 C   0  0  0  0  0  0  0  0  0  0  0  0
    3.5252    0.0387    1.5574 C   0  0  0  0  0  0  0  0  0  0  0  0
   -0.1056   -0.6244   -1.3022 H   0  0  0  0  0  0  0  0  0  0  0  0
   -1.7172    0.2380    1.0269 H   0  0  0  0  0  0  0  0  0  0  0  0
   -1.4420    1.9894   -0.7641 H   0  0  0  0  0  0  0  0  0  0  0  0
   -2.1543    0.9148   -1.9386 H   0  0  0  0  0  0  0  0  0  0  0  0
   -3.6402    2.6904   -1.1106 H   0  0  0  0  0  0  0  0  0  0  0  0
   -3.5671    2.0904    0.5266 H   0  0  0  0  0  0  0  0  0  0  0  0
   -5.5222    1.5210   -1.2905 H   0  0  0  0  0  0  0  0  0  0  0  0
   -4.4860    0.1842   -1.6763 H   0  0  0  0  0  0  0  0  0  0  0  0
   -6.0518   -0.6205   -0.0812 H   0  0  0  0  0  0  0  0  0  0  0  0
   -5.9880    0.8534    0.8599 H   0  0  0  0  0  0  0  0  0  0  0  0
   -3.8058    0.2541    1.8129 H   0  0  0  0  0  0  0  0  0  0  0  0
   -5.0425   -0.9252    2.1223 H   0  0  0  0  0  0  0  0  0  0  0  0
   -4.1894   -2.4483    0.4207 H   0  0  0  0  0  0  0  0  0  0  0  0
   -3.0057   -2.0612    1.6504 H   0  0  0  0  0  0  0  0  0  0  0  0
   -1.8414   -2.1716   -0.3403 H   0  0  0  0  0  0  0  0  0  0  0  0
   -2.9922   -1.2766   -1.2728 H   0  0  0  0  0  0  0  0  0  0  0  0
    1.9739   -0.9218   -0.6061 H   0  0  0  0  0  0  0  0  0  0  0  0
    3.0071    1.7047    0.2854 H   0  0  0  0  0  0  0  0  0  0  0  0
    3.9099    0.4240   -1.8729 H   0  0  0  0  0  0  0  0  0  0  0  0
    4.9909    1.2954   -0.7948 H   0  0  0  0  0  0  0  0  0  0  0  0
    5.8744   -0.9665   -1.3623 H   0  0  0  0  0  0  0  0  0  0  0  0
    4.4444   -1.7020   -0.6547 H   0  0  0  0  0  0  0  0  0  0  0  0
    6.8012   -0.4249    0.6993 H   0  0  0  0  0  0  0  0  0  0  0  0
    5.8693   -1.8392    1.1526 H   0  0  0  0  0  0  0  0  0  0  0  0
    5.2380   -0.3330    2.8254 H   0  0  0  0  0  0  0  0  0  0  0  0
    5.3974    1.0711    1.7808 H   0  0  0  0  0  0  0  0  0  0  0  0
    3.1530   -0.9913    1.6407 H   0  0  0  0  0  0  0  0  0  0  0  0
    3.0117    0.6115    2.3390 H   0  0  0  0  0  0  0  0  0  0  0  0
  1  2  2  0
  2  3  1  0
  3  4  1  0
  4  5  1  0
  5  6  1  0
  6  7  1  0
  7  8  1  0
  8  9  1  0
  9 10  1  0
 10 11  1  0
  2 12  1  0
 12 13  1  0
 13 14  1  0
 14 15  1  0
 15 16  1  0
 16 17  1  0
 17 18  1  0
 11  4  1  0
 18 13  1  0
  3 19  1  0
  4 20  1  0
  5 21  1  0
  5 22  1  0
  6 23  1  0
  6 24  1  0
  7 25  1  0
  7 26  1  0
  8 27  1  0
  8 28  1  0
  9 29  1  0
  9 30  1  0
 10 31  1  0
 10 32  1  0
 11 33  1  0
 11 34  1  0
 12 35  1  0
 13 36  1  0
 14 37  1  0
 14 38  1  0
 15 39  1  0
 15 40  1  0
 16 41  1  0
 16 42  1  0
 17 43  1  0
 17 44  1  0
 18 45  1  0
 18 46  1  0
M  END
$$$$
