
     RDKit          3D

 39 41  0  0  0  0  0  0  0  0999 V2000
   -3.2481   -2.5249   -0.5429 F   0  0  0  0  0  0  0  0  0  0  0  0
   -3.8927   -1.4029   -0.1909 C   0  0  0  0  0  0  0  0  0  0  0  0
   -5.1005   -1.5149    0.4934 C   0  0  0  0  0  0  0  0  0  0  0  0
   -5.7931   -0.3645    0.8663 C   0  0  0  0  0  0  0  0  0  0  0  0
   -5.2737    0.8908    0.5504 C   0  0  0  0  0  0  0  0  0  0  0  0
   -4.0617    0.9959   -0.1368 C   0  0  0  0  0  0  0  0  0  0  0  0
   -3.3509   -0.1554   -0.5107 C   0  0  0  0  0  0  0  0  0  0  0  0
   -2.0497   -0.0537   -1.2714 C   0  0  0  0  0  0  0  0  0  0  0  0
   -1.0456    0.7958   -0.6059 N   0  0  0  0  0  0  0  0  0  0  0  0
   -0.6128    0.2009    0.6825 C   0  0  0  0  0  0  0  0  0  0  0  0
    0.8050    0.6202    1.1366 C   0  0  0  0  0  0  0  0  0  0  0  0
    1.8096    0.2136    0.1396 N   0  0  0  0  0  0  0  0  0  0  0  0
    3.1330   -0.0053    0.4794 C   0  0  0  0  0  0  0  0  0  0  0  0
    3.6840    0.4849    1.6759 C   0  0  0  0  0  0  0  0  0  0  0  0
    5.0234    0.2640    2.0240 C   0  0  0  0  0  0  0  0  0  0  0  0
    5.8460   -0.4624    1.1741 C   0  0  0  0  0  0  0  0  0  0  0  0
    7.4901   -0.7385    1.5947 Cl  0  0  0  0  0  0  0  0  0  0  0  0
    5.3388   -0.9661   -0.0158 C   0  0  0  0  0  0  0  0  0  0  0  0
    3.9982   -0.7367   -0.3530 C   0  0  0  0  0  0  0  0  0  0  0  0
    1.3473    0.1362   -1.2559 C   0  0  0  0  0  0  0  0  0  0  0  0
    0.1167    1.0451   -1.4868 C   0  0  0  0  0  0  0  0  0  0  0  0
   -5.4931   -2.4987    0.7295 H   0  0  0  0  0  0  0  0  0  0  0  0
   -6.7361   -0.4451    1.4007 H   0  0  0  0  0  0  0  0  0  0  0  0
   -5.8115    1.7907    0.8391 H   0  0  0  0  0  0  0  0  0  0  0  0
   -3.6629    1.9801   -0.3763 H   0  0  0  0  0  0  0  0  0  0  0  0
   -2.3047    0.3763   -2.2495 H   0  0  0  0  0  0  0  0  0  0  0  0
   -1.6338   -1.0489   -1.4746 H   0  0  0  0  0  0  0  0  0  0  0  0
   -0.6221   -0.8963    0.6192 H   0  0  0  0  0  0  0  0  0  0  0  0
   -1.3276    0.4870    1.4627 H   0  0  0  0  0  0  0  0  0  0  0  0
    0.8489    1.7056    1.2873 H   0  0  0  0  0  0  0  0  0  0  0  0
    0.9951    0.1327    2.1005 H   0  0  0  0  0  0  0  0  0  0  0  0
    3.0815    1.0763    2.3599 H   0  0  0  0  0  0  0  0  0  0  0  0
    5.4093    0.6670    2.9560 H   0  0  0  0  0  0  0  0  0  0  0  0
    5.9704   -1.5419   -0.6861 H   0  0  0  0  0  0  0  0  0  0  0  0
    3.6348   -1.1694   -1.2811 H   0  0  0  0  0  0  0  0  0  0  0  0
    1.0972   -0.9027   -1.5019 H   0  0  0  0  0  0  0  0  0  0  0  0
    2.1315    0.4717   -1.9453 H   0  0  0  0  0  0  0  0  0  0  0  0
   -0.1692    1.0107   -2.5454 H   0  0  0  0  0  0  0  0  0  0  0  0
    0.4288    2.0826   -1.3063 H   0  0  0  0  0  0  0  0  0  0  0  0
  1  2  1  0
  2  3  2  0
  3  4  1  0
  4  5  2  0
  5  6  1  0
  6  7  2  0
  7  8  1  0
  8  9  1  0
  9 10  1  0
 10 11  1  0
 11 12  1  0
 12 13  1  0
 13 14  2  0
 14 15  1  0
 15 16  2  0
 16 17  1  0
 16 18  1  0
 18 19  2  0
 12 20  1  0
 20 21  1  0
  7  2  1  0
 21  9  1  0
 19 13  1  0
  3 22  1  0
  4 23  1  0
  5 24  1  0
  6 25  1  0
  8 26  1  0
  8 27  1  0
 10 28  1  0
 10 29  1  0
 11 30  1  0
 11 31  1  0
 14 32  1  0
 15 33  1  0
 18 34  1  0
 19 35  1  0
 20 36  1  0
 20 37  1  0
 21 38  1  0
 21 39  1  0
M  END
$$$$
