
     RDKit          3D

 31 34  0  0  0  0  0  0  0  0999 V2000
    2.6727   -0.3193    2.8807 O   0  0  0  0  0  0  0  0  0  0  0  0
    3.0313   -0.7010    1.7774 C   0  0  0  0  0  0  0  0  0  0  0  0
    4.2238   -1.3075    1.6117 O   0  0  0  0  0  0  0  0  0  0  0  0
    2.2629   -0.5400    0.4764 C   0  0  0  0  0  0  0  0  0  0  0  0
    2.7555    1.0859   -0.2339 S   0  0  0  0  0  0  0  0  0  0  0  0
    1.6315    1.1753   -1.5059 C   0  0  0  0  0  0  0  0  0  0  0  0
    1.9476    1.8953   -2.6162 N   0  0  0  0  0  0  0  0  0  0  0  0
    1.0628    1.8258   -3.6585 C   0  0  0  0  0  0  0  0  0  0  0  0
    1.1499    2.3760   -4.7407 O   0  0  0  0  0  0  0  0  0  0  0  0
   -0.2539    0.7552   -3.1635 S   0  0  0  0  0  0  0  0  0  0  0  0
    0.4558    0.5374   -1.5681 C   0  0  0  0  0  0  0  0  0  0  0  0
   -0.1091   -0.4062   -0.5429 C   0  0  0  0  0  0  0  0  0  0  0  0
   -1.5061   -0.1493    0.0021 C   0  0  0  0  0  0  0  0  0  0  0  0
   -2.3985    0.8377   -0.4289 C   0  0  0  0  0  0  0  0  0  0  0  0
   -3.6663    0.9450    0.1569 C   0  0  0  0  0  0  0  0  0  0  0  0
   -4.8596    2.2841   -0.4454 Br  0  0  0  0  0  0  0  0  0  0  0  0
   -4.0635    0.0824    1.1789 C   0  0  0  0  0  0  0  0  0  0  0  0
   -3.1821   -0.8933    1.6343 C   0  0  0  0  0  0  0  0  0  0  0  0
   -1.9201   -0.9866    1.0528 C   0  0  0  0  0  0  0  0  0  0  0  0
   -1.0516   -1.9720    1.5699 O   0  0  0  0  0  0  0  0  0  0  0  0
    0.3190   -1.8750    1.3398 C   0  0  0  0  0  0  0  0  0  0  0  0
    1.0854   -2.7912    1.6112 O   0  0  0  0  0  0  0  0  0  0  0  0
    0.7534   -0.5575    0.7305 C   0  0  0  0  0  0  0  0  0  0  0  0
    4.6003   -1.3599    2.5160 H   0  0  0  0  0  0  0  0  0  0  0  0
    2.5501   -1.3475   -0.2083 H   0  0  0  0  0  0  0  0  0  0  0  0
    2.8055    2.4206   -2.7002 H   0  0  0  0  0  0  0  0  0  0  0  0
   -0.1622   -1.3829   -1.0516 H   0  0  0  0  0  0  0  0  0  0  0  0
   -2.1333    1.5412   -1.2113 H   0  0  0  0  0  0  0  0  0  0  0  0
   -5.0499    0.1689    1.6274 H   0  0  0  0  0  0  0  0  0  0  0  0
   -3.4722   -1.5653    2.4372 H   0  0  0  0  0  0  0  0  0  0  0  0
    0.5208    0.2237    1.4722 H   0  0  0  0  0  0  0  0  0  0  0  0
  1  2  2  0
  2  3  1  0
  2  4  1  0
  4  5  1  0
  5  6  1  0
  6  7  1  0
  7  8  1  0
  8  9  2  0
  8 10  1  0
 10 11  1  0
 11 12  1  0
 12 13  1  0
 13 14  2  0
 14 15  1  0
 15 16  1  0
 15 17  2  0
 17 18  1  0
 18 19  2  0
 19 20  1  0
 20 21  1  0
 21 22  2  0
 21 23  1  0
 23  4  1  0
 11  6  2  0
 23 12  1  0
 19 13  1  0
  3 24  1  0
  4 25  1  0
  7 26  1  0
 12 27  1  0
 14 28  1  0
 17 29  1  0
 18 30  1  0
 23 31  1  0
M  END
$$$$
