
     RDKit          3D

 63 66  0  0  0  0  0  0  0  0999 V2000
    8.2639    3.7533    0.2654 C   0  0  0  0  0  0  0  0  0  0  0  0
    8.4876    2.3613    0.0992 O   0  0  0  0  0  0  0  0  0  0  0  0
    7.3904    1.5489   -0.0169 C   0  0  0  0  0  0  0  0  0  0  0  0
    6.0733    1.9636    0.1875 C   0  0  0  0  0  0  0  0  0  0  0  0
    5.0153    1.0530    0.0617 C   0  0  0  0  0  0  0  0  0  0  0  0
    5.2518   -0.2850   -0.2737 C   0  0  0  0  0  0  0  0  0  0  0  0
    4.1279   -1.1312   -0.3655 N   0  0  0  0  0  0  0  0  0  0  0  0
    4.1085   -2.4721   -0.6914 C   0  0  0  0  0  0  0  0  0  0  0  0
    5.0656   -3.1662   -1.0129 O   0  0  0  0  0  0  0  0  0  0  0  0
    2.7659   -3.0687   -0.6258 C   0  0  0  0  0  0  0  0  0  0  0  0
    2.4541   -4.3659   -0.7859 C   0  0  0  0  0  0  0  0  0  0  0  0
    1.1077   -4.6427   -0.6537 N   0  0  0  0  0  0  0  0  0  0  0  0
    0.5297   -3.4359   -0.2715 N   0  0  0  0  0  0  0  0  0  0  0  0
   -0.7816   -3.2588    0.0741 C   0  0  0  0  0  0  0  0  0  0  0  0
   -1.6416   -4.1268    0.1557 O   0  0  0  0  0  0  0  0  0  0  0  0
   -1.0762   -1.8386    0.3800 C   0  0  0  0  0  0  0  0  0  0  0  0
   -0.0969   -0.9111    0.3213 C   0  0  0  0  0  0  0  0  0  0  0  0
   -0.3545    0.5706    0.6144 C   0  0  0  0  0  0  0  0  0  0  0  0
   -1.1636    0.8291    1.9074 C   0  0  0  0  0  0  0  0  0  0  0  0
   -2.3905    1.7061    1.6789 C   0  0  0  0  0  0  0  0  0  0  0  0
   -3.1553    1.2332    0.5365 N   0  0  0  0  0  0  0  0  0  0  0  0
   -4.5230    1.0463    0.6487 C   0  0  0  0  0  0  0  0  0  0  0  0
   -5.1466    1.2066    1.6889 O   0  0  0  0  0  0  0  0  0  0  0  0
   -5.0741    0.6522   -0.5283 O   0  0  0  0  0  0  0  0  0  0  0  0
   -6.4898    0.3487   -0.6259 C   0  0  0  0  0  0  0  0  0  0  0  0
   -7.3521    1.5821   -0.3325 C   0  0  0  0  0  0  0  0  0  0  0  0
   -6.8650   -0.8404    0.2662 C   0  0  0  0  0  0  0  0  0  0  0  0
   -6.6994   -0.0545   -2.0942 C   0  0  0  0  0  0  0  0  0  0  0  0
   -2.4580    1.0868   -0.7361 C   0  0  0  0  0  0  0  0  0  0  0  0
   -0.9507    1.2905   -0.6100 C   0  0  0  0  0  0  0  0  0  0  0  0
    1.2243   -1.2009    0.0036 N   0  0  0  0  0  0  0  0  0  0  0  0
    1.4779   -2.4352   -0.2772 C   0  0  0  0  0  0  0  0  0  0  0  0
    6.5654   -0.7027   -0.4795 C   0  0  0  0  0  0  0  0  0  0  0  0
    7.6247    0.2051   -0.3473 C   0  0  0  0  0  0  0  0  0  0  0  0
    9.2320   -0.3853   -0.6069 Cl  0  0  0  0  0  0  0  0  0  0  0  0
    9.2399    4.2498    0.2630 H   0  0  0  0  0  0  0  0  0  0  0  0
    7.7888    3.9632    1.2283 H   0  0  0  0  0  0  0  0  0  0  0  0
    7.6788    4.1642   -0.5640 H   0  0  0  0  0  0  0  0  0  0  0  0
    5.8320    2.9873    0.4552 H   0  0  0  0  0  0  0  0  0  0  0  0
    4.0019    1.4103    0.2324 H   0  0  0  0  0  0  0  0  0  0  0  0
    3.2276   -0.7006   -0.1557 H   0  0  0  0  0  0  0  0  0  0  0  0
    3.1427   -5.1780   -0.9882 H   0  0  0  0  0  0  0  0  0  0  0  0
    0.8837   -5.4276   -0.0385 H   0  0  0  0  0  0  0  0  0  0  0  0
   -2.1043   -1.6157    0.6348 H   0  0  0  0  0  0  0  0  0  0  0  0
    0.6326    1.0271    0.7859 H   0  0  0  0  0  0  0  0  0  0  0  0
   -1.4805   -0.1090    2.3771 H   0  0  0  0  0  0  0  0  0  0  0  0
   -0.5168    1.3190    2.6465 H   0  0  0  0  0  0  0  0  0  0  0  0
   -2.0975    2.7432    1.4758 H   0  0  0  0  0  0  0  0  0  0  0  0
   -3.0022    1.7223    2.5871 H   0  0  0  0  0  0  0  0  0  0  0  0
   -7.0158    2.4390   -0.9268 H   0  0  0  0  0  0  0  0  0  0  0  0
   -8.4085    1.3943   -0.5585 H   0  0  0  0  0  0  0  0  0  0  0  0
   -7.2922    1.8841    0.7170 H   0  0  0  0  0  0  0  0  0  0  0  0
   -6.8095   -0.5864    1.3287 H   0  0  0  0  0  0  0  0  0  0  0  0
   -7.8868   -1.1814    0.0656 H   0  0  0  0  0  0  0  0  0  0  0  0
   -6.1784   -1.6798    0.1070 H   0  0  0  0  0  0  0  0  0  0  0  0
   -6.4172    0.7666   -2.7652 H   0  0  0  0  0  0  0  0  0  0  0  0
   -6.0612   -0.9055   -2.3623 H   0  0  0  0  0  0  0  0  0  0  0  0
   -7.7413   -0.3253   -2.2973 H   0  0  0  0  0  0  0  0  0  0  0  0
   -2.8757    1.8158   -1.4408 H   0  0  0  0  0  0  0  0  0  0  0  0
   -2.6817    0.0920   -1.1368 H   0  0  0  0  0  0  0  0  0  0  0  0
   -0.4545    0.9798   -1.5375 H   0  0  0  0  0  0  0  0  0  0  0  0
   -0.7512    2.3656   -0.5075 H   0  0  0  0  0  0  0  0  0  0  0  0
    6.8002   -1.7298   -0.7375 H   0  0  0  0  0  0  0  0  0  0  0  0
  1  2  1  0
  2  3  1  0
  3  4  2  0
  4  5  1  0
  5  6  2  0
  6  7  1  0
  7  8  1  0
  8  9  2  0
  8 10  1  0
 10 11  2  0
 11 12  1  0
 12 13  1  0
 13 14  1  0
 14 15  2  0
 14 16  1  0
 16 17  2  0
 17 18  1  0
 18 19  1  0
 19 20  1  0
 20 21  1  0
 21 22  1  0
 22 23  2  0
 22 24  1  0
 24 25  1  0
 25 26  1  0
 25 27  1  0
 25 28  1  0
 21 29  1  0
 29 30  1  0
 17 31  1  0
 31 32  2  0
  6 33  1  0
 33 34  2  0
 34 35  1  0
 34  3  1  0
 32 10  1  0
 32 13  1  0
 30 18  1  0
  1 36  1  0
  1 37  1  0
  1 38  1  0
  4 39  1  0
  5 40  1  0
  7 41  1  0
 11 42  1  0
 12 43  1  0
 16 44  1  0
 18 45  1  0
 19 46  1  0
 19 47  1  0
 20 48  1  0
 20 49  1  0
 26 50  1  0
 26 51  1  0
 26 52  1  0
 27 53  1  0
 27 54  1  0
 27 55  1  0
 28 56  1  0
 28 57  1  0
 28 58  1  0
 29 59  1  0
 29 60  1  0
 30 61  1  0
 30 62  1  0
 33 63  1  0
M  END
$$$$
