
     RDKit          3D

 40 43  0  0  0  0  0  0  0  0999 V2000
    7.7558   -0.7981    0.9273 C   0  0  0  0  0  0  0  0  0  0  0  0
    7.1129    0.3382    0.3645 O   0  0  0  0  0  0  0  0  0  0  0  0
    5.7478    0.3059    0.2979 C   0  0  0  0  0  0  0  0  0  0  0  0
    4.9279   -0.7337    0.7334 C   0  0  0  0  0  0  0  0  0  0  0  0
    3.5341   -0.6376    0.6054 C   0  0  0  0  0  0  0  0  0  0  0  0
    2.9362    0.4982    0.0407 C   0  0  0  0  0  0  0  0  0  0  0  0
    1.4775    0.6082   -0.0968 C   0  0  0  0  0  0  0  0  0  0  0  0
    0.4780   -0.3235    0.3089 C   0  0  0  0  0  0  0  0  0  0  0  0
   -0.7376    0.2312   -0.0303 C   0  0  0  0  0  0  0  0  0  0  0  0
   -2.0618   -0.1929    0.1007 N   0  0  0  0  0  0  0  0  0  0  0  0
   -2.3408   -1.4852    0.5680 C   0  0  0  0  0  0  0  0  0  0  0  0
   -1.5290   -2.2635    1.0756 O   0  0  0  0  0  0  0  0  0  0  0  0
   -3.6270   -1.9375    0.4314 N   0  0  0  0  0  0  0  0  0  0  0  0
   -4.6464   -1.2019   -0.1571 C   0  0  0  0  0  0  0  0  0  0  0  0
   -5.9173   -1.7618   -0.2999 C   0  0  0  0  0  0  0  0  0  0  0  0
   -6.9453   -1.0007   -0.8546 C   0  0  0  0  0  0  0  0  0  0  0  0
   -6.7001    0.3113   -1.2559 C   0  0  0  0  0  0  0  0  0  0  0  0
   -5.4244    0.8614   -1.1049 C   0  0  0  0  0  0  0  0  0  0  0  0
   -4.3773    0.1054   -0.5577 C   0  0  0  0  0  0  0  0  0  0  0  0
   -3.0858    0.6646   -0.3954 N   0  0  0  0  0  0  0  0  0  0  0  0
   -3.0134    2.0190   -0.0448 O   0  0  0  0  0  0  0  0  0  0  0  0
   -0.4116    1.4218   -0.6168 N   0  0  0  0  0  0  0  0  0  0  0  0
    0.9017    1.6839   -0.6605 N   0  0  0  0  0  0  0  0  0  0  0  0
    3.7724    1.5362   -0.3937 C   0  0  0  0  0  0  0  0  0  0  0  0
    5.1621    1.4395   -0.2655 C   0  0  0  0  0  0  0  0  0  0  0  0
    8.8347   -0.6166    0.9058 H   0  0  0  0  0  0  0  0  0  0  0  0
    7.5579   -1.6977    0.3351 H   0  0  0  0  0  0  0  0  0  0  0  0
    7.4631   -0.9399    1.9729 H   0  0  0  0  0  0  0  0  0  0  0  0
    5.3355   -1.6356    1.1775 H   0  0  0  0  0  0  0  0  0  0  0  0
    2.9313   -1.4710    0.9561 H   0  0  0  0  0  0  0  0  0  0  0  0
    0.6354   -1.2767    0.7917 H   0  0  0  0  0  0  0  0  0  0  0  0
   -3.7861   -2.8837    0.7476 H   0  0  0  0  0  0  0  0  0  0  0  0
   -6.1184   -2.7808    0.0180 H   0  0  0  0  0  0  0  0  0  0  0  0
   -7.9379   -1.4289   -0.9721 H   0  0  0  0  0  0  0  0  0  0  0  0
   -7.5000    0.9071   -1.6894 H   0  0  0  0  0  0  0  0  0  0  0  0
   -5.2440    1.8835   -1.4303 H   0  0  0  0  0  0  0  0  0  0  0  0
   -3.2299    1.9910    0.9064 H   0  0  0  0  0  0  0  0  0  0  0  0
   -1.0666    2.1003   -0.9910 H   0  0  0  0  0  0  0  0  0  0  0  0
    3.3468    2.4338   -0.8383 H   0  0  0  0  0  0  0  0  0  0  0  0
    5.7895    2.2578   -0.6100 H   0  0  0  0  0  0  0  0  0  0  0  0
  1  2  1  0
  2  3  1  0
  3  4  2  0
  4  5  1  0
  5  6  2  0
  6  7  1  0
  7  8  1  0
  8  9  2  0
  9 10  1  0
 10 11  1  0
 11 12  2  0
 11 13  1  0
 13 14  1  0
 14 15  2  0
 15 16  1  0
 16 17  2  0
 17 18  1  0
 18 19  2  0
 19 20  1  0
 20 21  1  0
  9 22  1  0
 22 23  1  0
  6 24  1  0
 24 25  2  0
 25  3  1  0
 23  7  2  0
 20 10  1  0
 19 14  1  0
  1 26  1  0
  1 27  1  0
  1 28  1  0
  4 29  1  0
  5 30  1  0
  8 31  1  0
 13 32  1  0
 15 33  1  0
 16 34  1  0
 17 35  1  0
 18 36  1  0
 21 37  1  0
 22 38  1  0
 24 39  1  0
 25 40  1  0
M  END
$$$$
