
     RDKit          3D

 49 52  0  0  0  0  0  0  0  0999 V2000
   -0.4196    3.6752   -2.5247 C   0  0  0  0  0  0  0  0  0  0  0  0
   -0.7254    3.3537   -1.0916 C   0  0  0  0  0  0  0  0  0  0  0  0
   -1.0118    4.3758   -0.1808 C   0  0  0  0  0  0  0  0  0  0  0  0
   -1.2613    4.0778    1.1576 C   0  0  0  0  0  0  0  0  0  0  0  0
   -1.2131    2.7562    1.6013 C   0  0  0  0  0  0  0  0  0  0  0  0
   -0.9047    1.7134    0.7128 C   0  0  0  0  0  0  0  0  0  0  0  0
   -0.8812    0.2801    1.2254 C   0  0  0  0  0  0  0  0  0  0  0  0
   -2.2243   -0.4078    0.9715 C   0  0  0  0  0  0  0  0  0  0  0  0
   -1.8347   -1.3532   -0.1316 C   0  0  0  0  0  0  0  0  0  0  0  0
   -2.8450   -2.1129   -0.9036 C   0  0  0  0  0  0  0  0  0  0  0  0
   -2.4263   -2.8733   -2.0026 C   0  0  0  0  0  0  0  0  0  0  0  0
   -3.3566   -3.5890   -2.7580 C   0  0  0  0  0  0  0  0  0  0  0  0
   -4.7076   -3.5504   -2.4182 C   0  0  0  0  0  0  0  0  0  0  0  0
   -5.1303   -2.7990   -1.3221 C   0  0  0  0  0  0  0  0  0  0  0  0
   -4.2022   -2.0803   -0.5638 C   0  0  0  0  0  0  0  0  0  0  0  0
   -0.5559   -1.4657   -0.3304 N   0  0  0  0  0  0  0  0  0  0  0  0
    0.0624   -0.5910    0.5190 N   0  0  0  0  0  0  0  0  0  0  0  0
    1.4520   -0.5475    0.6104 C   0  0  0  0  0  0  0  0  0  0  0  0
    2.1265    0.3809    1.4220 C   0  0  0  0  0  0  0  0  0  0  0  0
    3.5245    0.4144    1.4965 C   0  0  0  0  0  0  0  0  0  0  0  0
    4.2751   -0.5029    0.7628 C   0  0  0  0  0  0  0  0  0  0  0  0
    6.0415   -0.4624    0.8725 S   0  0  0  0  0  6  0  0  0  0  0  0
    6.3045   -1.2525    2.3404 N   0  0  0  0  0  0  0  0  0  0  0  0
    6.5924   -1.3401   -0.1351 O   0  0  0  0  0  0  0  0  0  0  0  0
    6.4608    0.9105    1.0222 O   0  0  0  0  0  0  0  0  0  0  0  0
    3.6443   -1.4318   -0.0586 C   0  0  0  0  0  0  0  0  0  0  0  0
    2.2474   -1.4464   -0.1266 C   0  0  0  0  0  0  0  0  0  0  0  0
   -0.6658    2.0302   -0.6358 C   0  0  0  0  0  0  0  0  0  0  0  0
    0.6502    3.8752   -2.6429 H   0  0  0  0  0  0  0  0  0  0  0  0
   -0.9833    4.5531   -2.8564 H   0  0  0  0  0  0  0  0  0  0  0  0
   -0.6989    2.8442   -3.1809 H   0  0  0  0  0  0  0  0  0  0  0  0
   -1.0408    5.4122   -0.5101 H   0  0  0  0  0  0  0  0  0  0  0  0
   -1.4876    4.8785    1.8570 H   0  0  0  0  0  0  0  0  0  0  0  0
   -1.4124    2.5473    2.6503 H   0  0  0  0  0  0  0  0  0  0  0  0
   -0.6668    0.2755    2.3020 H   0  0  0  0  0  0  0  0  0  0  0  0
   -2.5332   -0.9979    1.8411 H   0  0  0  0  0  0  0  0  0  0  0  0
   -3.0283    0.2706    0.6751 H   0  0  0  0  0  0  0  0  0  0  0  0
   -1.3746   -2.9083   -2.2802 H   0  0  0  0  0  0  0  0  0  0  0  0
   -3.0252   -4.1745   -3.6119 H   0  0  0  0  0  0  0  0  0  0  0  0
   -5.4318   -4.1073   -3.0076 H   0  0  0  0  0  0  0  0  0  0  0  0
   -6.1850   -2.7729   -1.0582 H   0  0  0  0  0  0  0  0  0  0  0  0
   -4.5623   -1.5077    0.2855 H   0  0  0  0  0  0  0  0  0  0  0  0
    1.5754    1.1151    2.0025 H   0  0  0  0  0  0  0  0  0  0  0  0
    4.0134    1.1627    2.1179 H   0  0  0  0  0  0  0  0  0  0  0  0
    5.4421   -1.4344    2.8522 H   0  0  0  0  0  0  0  0  0  0  0  0
    6.8204   -2.1145    2.1530 H   0  0  0  0  0  0  0  0  0  0  0  0
    4.2152   -2.1397   -0.6544 H   0  0  0  0  0  0  0  0  0  0  0  0
    1.7665   -2.1750   -0.7765 H   0  0  0  0  0  0  0  0  0  0  0  0
   -0.4188    1.2358   -1.3391 H   0  0  0  0  0  0  0  0  0  0  0  0
  1  2  1  0
  2  3  2  0
  3  4  1  0
  4  5  2  0
  5  6  1  0
  6  7  1  0
  7  8  1  0
  8  9  1  0
  9 10  1  0
 10 11  2  0
 11 12  1  0
 12 13  2  0
 13 14  1  0
 14 15  2  0
  9 16  2  0
 16 17  1  0
 17 18  1  0
 18 19  2  0
 19 20  1  0
 20 21  2  0
 21 22  1  0
 22 23  1  0
 22 24  2  0
 22 25  2  0
 21 26  1  0
 26 27  2  0
  6 28  2  0
 28  2  1  0
 17  7  1  0
 27 18  1  0
 15 10  1  0
  1 29  1  0
  1 30  1  0
  1 31  1  0
  3 32  1  0
  4 33  1  0
  5 34  1  0
  7 35  1  0
  8 36  1  0
  8 37  1  0
 11 38  1  0
 12 39  1  0
 13 40  1  0
 14 41  1  0
 15 42  1  0
 19 43  1  0
 20 44  1  0
 23 45  1  0
 23 46  1  0
 26 47  1  0
 27 48  1  0
 28 49  1  0
M  END
$$$$
