
     RDKit          3D

 68 73  0  0  0  0  0  0  0  0999 V2000
   -3.7747    4.7713   -2.3533 C   0  0  0  0  0  0  0  0  0  0  0  0
   -3.0190    3.6201   -1.9946 O   0  0  0  0  0  0  0  0  0  0  0  0
   -2.9412    3.3162   -0.6625 C   0  0  0  0  0  0  0  0  0  0  0  0
   -3.5598    4.0301    0.3800 C   0  0  0  0  0  0  0  0  0  0  0  0
   -3.4231    3.6190    1.7111 C   0  0  0  0  0  0  0  0  0  0  0  0
   -2.6562    2.5007    1.9595 C   0  0  0  0  0  0  0  0  0  0  0  0
   -2.0141    1.7856    0.9458 C   0  0  0  0  0  0  0  0  0  0  0  0
   -2.1686    2.1830   -0.3759 C   0  0  0  0  0  0  0  0  0  0  0  0
   -1.2711    0.6269    1.5584 C   0  0  1  0  0  0  0  0  0  0  0  0
   -1.6493    0.7585    3.0721 C   0  0  0  0  0  0  0  0  0  0  0  0
   -1.3392    0.0365    4.0084 O   0  0  0  0  0  0  0  0  0  0  0  0
   -2.4386    1.9045    3.1914 N   0  0  0  0  0  0  0  0  0  0  0  0
   -1.7635   -0.6260    0.9463 C   0  0  0  0  0  0  0  0  0  0  0  0
   -0.6988   -1.4565    0.6039 C   0  0  0  0  0  0  0  0  0  0  0  0
   -1.1933   -2.6157    0.0679 C   0  0  0  0  0  0  0  0  0  0  0  0
   -0.5472   -3.7158   -0.3120 O   0  0  0  0  0  0  0  0  0  0  0  0
   -2.6010   -2.4988    0.0262 N   0  0  0  0  0  0  0  0  0  0  0  0
   -3.5211   -3.4700   -0.5037 C   0  0  0  0  0  0  0  0  0  0  0  0
   -4.8536   -3.5140   -0.0670 C   0  0  0  0  0  0  0  0  0  0  0  0
   -5.7475   -4.4551   -0.5897 C   0  0  0  0  0  0  0  0  0  0  0  0
   -5.3234   -5.3640   -1.5544 C   0  0  0  0  0  0  0  0  0  0  0  0
   -4.0040   -5.3327   -1.9969 C   0  0  0  0  0  0  0  0  0  0  0  0
   -3.1080   -4.3938   -1.4754 C   0  0  0  0  0  0  0  0  0  0  0  0
   -2.9361   -1.2480    0.5942 C   0  0  0  0  0  0  0  0  0  0  0  0
   -4.1892   -0.8030    0.6718 O   0  0  0  0  0  0  0  0  0  0  0  0
    0.6052   -0.8480    0.9520 C   0  0  1  0  0  0  0  0  0  0  0  0
    1.6217   -0.8577   -0.2091 C   0  0  0  0  0  0  0  0  0  0  0  0
    2.7415    0.0464    0.0426 N   0  0  0  0  0  0  0  0  0  0  0  0
    4.0354   -0.3565   -0.2138 C   0  0  0  0  0  0  0  0  0  0  0  0
    4.3239   -1.4551   -0.6694 O   0  0  0  0  0  0  0  0  0  0  0  0
    4.9339    0.6108    0.1024 O   0  0  0  0  0  0  0  0  0  0  0  0
    6.3576    0.3997   -0.0768 C   0  0  0  0  0  0  0  0  0  0  0  0
    7.0030    1.7241    0.3615 C   0  0  0  0  0  0  0  0  0  0  0  0
    6.8697   -0.7203    0.8357 C   0  0  0  0  0  0  0  0  0  0  0  0
    6.7096    0.1497   -1.5480 C   0  0  0  0  0  0  0  0  0  0  0  0
    2.4229    1.3455    0.6371 C   0  0  0  0  0  0  0  0  0  0  0  0
    0.9061    1.6058    0.7196 C   0  0  0  0  0  0  0  0  0  0  0  0
    0.2173    0.5306    1.4335 N   0  0  0  0  0  0  0  0  0  0  0  0
   -4.8258    4.6605   -2.0653 H   0  0  0  0  0  0  0  0  0  0  0  0
   -3.7367    4.8703   -3.4423 H   0  0  0  0  0  0  0  0  0  0  0  0
   -3.3385    5.6780   -1.9199 H   0  0  0  0  0  0  0  0  0  0  0  0
   -4.1649    4.9096    0.1819 H   0  0  0  0  0  0  0  0  0  0  0  0
   -3.9143    4.1624    2.5112 H   0  0  0  0  0  0  0  0  0  0  0  0
   -1.7083    1.6218   -1.1855 H   0  0  0  0  0  0  0  0  0  0  0  0
   -2.8091    2.2122    4.0784 H   0  0  0  0  0  0  0  0  0  0  0  0
    0.3740   -3.6545   -0.0053 H   0  0  0  0  0  0  0  0  0  0  0  0
   -5.2219   -2.8499    0.7082 H   0  0  0  0  0  0  0  0  0  0  0  0
   -6.7745   -4.4762   -0.2359 H   0  0  0  0  0  0  0  0  0  0  0  0
   -6.0172   -6.0941   -1.9615 H   0  0  0  0  0  0  0  0  0  0  0  0
   -3.6669   -6.0358   -2.7539 H   0  0  0  0  0  0  0  0  0  0  0  0
   -2.0997   -4.3857   -1.8791 H   0  0  0  0  0  0  0  0  0  0  0  0
   -4.1694    0.1295    0.9478 H   0  0  0  0  0  0  0  0  0  0  0  0
    1.0381   -1.3730    1.8126 H   0  0  0  0  0  0  0  0  0  0  0  0
    1.9798   -1.8784   -0.3866 H   0  0  0  0  0  0  0  0  0  0  0  0
    1.1516   -0.5236   -1.1438 H   0  0  0  0  0  0  0  0  0  0  0  0
    6.6385    2.5566   -0.2523 H   0  0  0  0  0  0  0  0  0  0  0  0
    8.0951    1.6897    0.2842 H   0  0  0  0  0  0  0  0  0  0  0  0
    6.7361    1.9646    1.3977 H   0  0  0  0  0  0  0  0  0  0  0  0
    6.4767   -1.6989    0.5430 H   0  0  0  0  0  0  0  0  0  0  0  0
    7.9628   -0.7841    0.8135 H   0  0  0  0  0  0  0  0  0  0  0  0
    6.5517   -0.5519    1.8714 H   0  0  0  0  0  0  0  0  0  0  0  0
    6.2477    0.9072   -2.1911 H   0  0  0  0  0  0  0  0  0  0  0  0
    7.7932    0.1711   -1.7069 H   0  0  0  0  0  0  0  0  0  0  0  0
    6.3486   -0.8226   -1.8971 H   0  0  0  0  0  0  0  0  0  0  0  0
    2.9062    2.1306    0.0443 H   0  0  0  0  0  0  0  0  0  0  0  0
    2.8660    1.3655    1.6403 H   0  0  0  0  0  0  0  0  0  0  0  0
    0.7467    2.5616    1.2318 H   0  0  0  0  0  0  0  0  0  0  0  0
    0.5284    1.7036   -0.3044 H   0  0  0  0  0  0  0  0  0  0  0  0
  1  2  1  0
  2  3  1  0
  3  4  2  0
  4  5  1  0
  5  6  2  0
  6  7  1  0
  7  8  2  0
  7  9  1  0
  9 10  1  0
 10 11  2  0
 10 12  1  0
  9 13  1  0
 13 14  1  0
 14 15  2  0
 15 16  1  0
 15 17  1  0
 17 18  1  0
 18 19  2  0
 19 20  1  0
 20 21  2  0
 21 22  1  0
 22 23  2  0
 17 24  1  0
 24 25  1  0
 14 26  1  0
 26 27  1  0
 27 28  1  0
 28 29  1  0
 29 30  2  0
 29 31  1  0
 31 32  1  0
 32 33  1  0
 32 34  1  0
 32 35  1  0
 28 36  1  0
 36 37  1  0
 37 38  1  0
  8  3  1  0
  9 38  1  1
 12  6  1  0
 24 13  2  0
 38 26  1  0
 23 18  1  0
  1 39  1  0
  1 40  1  0
  1 41  1  0
  4 42  1  0
  5 43  1  0
  8 44  1  0
 12 45  1  0
 16 46  1  0
 19 47  1  0
 20 48  1  0
 21 49  1  0
 22 50  1  0
 23 51  1  0
 25 52  1  0
 26 53  1  1
 27 54  1  0
 27 55  1  0
 33 56  1  0
 33 57  1  0
 33 58  1  0
 34 59  1  0
 34 60  1  0
 34 61  1  0
 35 62  1  0
 35 63  1  0
 35 64  1  0
 36 65  1  0
 36 66  1  0
 37 67  1  0
 37 68  1  0
M  END
$$$$
