
     RDKit          3D

 59 63  0  0  0  0  0  0  0  0999 V2000
   -3.4067   -2.7872   -1.5585 C   0  0  0  0  0  0  0  0  0  0  0  0
   -3.9102   -1.6388   -0.8879 O   0  0  0  0  0  0  0  0  0  0  0  0
   -3.9908   -1.7181    0.4804 C   0  0  0  0  0  0  0  0  0  0  0  0
   -4.1213   -2.9254    1.1780 C   0  0  0  0  0  0  0  0  0  0  0  0
   -4.2281   -2.9318    2.5712 C   0  0  0  0  0  0  0  0  0  0  0  0
   -4.2135   -1.7342    3.2796 C   0  0  0  0  0  0  0  0  0  0  0  0
   -4.0949   -0.5256    2.5947 C   0  0  0  0  0  0  0  0  0  0  0  0
   -3.9872   -0.5023    1.1932 C   0  0  0  0  0  0  0  0  0  0  0  0
   -3.8363    0.7928    0.5118 C   0  0  0  0  0  0  0  0  0  0  0  0
   -5.1943    1.8295    0.4308 S   0  0  0  0  0  0  0  0  0  0  0  0
   -4.3361    3.0338   -0.4430 C   0  0  0  0  0  0  0  0  0  0  0  0
   -4.8419    4.2696   -0.8946 C   0  0  0  0  0  0  0  0  0  0  0  0
   -3.9967    5.1363   -1.5901 C   0  0  0  0  0  0  0  0  0  0  0  0
   -2.6769    4.7869   -1.8325 C   0  0  0  0  0  0  0  0  0  0  0  0
   -2.1802    3.5598   -1.3833 C   0  0  0  0  0  0  0  0  0  0  0  0
   -3.0132    2.6526   -0.6765 C   0  0  0  0  0  0  0  0  0  0  0  0
   -2.7330    1.3468   -0.1193 C   0  0  0  0  0  0  0  0  0  0  0  0
   -1.4564    0.6435   -0.1932 C   0  0  0  0  0  0  0  0  0  0  0  0
   -0.6802    0.4523    0.9541 C   0  0  0  0  0  0  0  0  0  0  0  0
    0.5431   -0.2245    0.8779 C   0  0  0  0  0  0  0  0  0  0  0  0
    1.0009   -0.7117   -0.3462 C   0  0  0  0  0  0  0  0  0  0  0  0
    2.1687   -1.3841   -0.5688 O   0  0  0  0  0  0  0  0  0  0  0  0
    3.0236   -1.6819    0.5362 C   0  0  0  0  0  0  0  0  0  0  0  0
    3.9641   -0.5126    0.8981 C   0  0  0  0  0  0  0  0  0  0  0  0
    5.1004   -0.2066    0.0121 N   0  0  0  0  0  0  0  0  0  0  0  0
    4.6925    0.1519   -1.3591 C   0  0  0  0  0  0  0  0  0  0  0  0
    5.9164    0.5530   -2.1999 C   0  0  0  0  0  0  0  0  0  0  0  0
    6.8843   -0.5064   -2.2462 O   0  0  0  0  0  0  0  0  0  0  0  0
    7.3041   -0.8487   -0.9179 C   0  0  0  0  0  0  0  0  0  0  0  0
    6.1101   -1.2776   -0.0473 C   0  0  0  0  0  0  0  0  0  0  0  0
    0.2264   -0.5112   -1.4925 C   0  0  0  0  0  0  0  0  0  0  0  0
   -0.9948    0.1626   -1.4209 C   0  0  0  0  0  0  0  0  0  0  0  0
   -3.1735   -2.4970   -2.5875 H   0  0  0  0  0  0  0  0  0  0  0  0
   -2.4820   -3.1518   -1.0980 H   0  0  0  0  0  0  0  0  0  0  0  0
   -4.1646   -3.5757   -1.5999 H   0  0  0  0  0  0  0  0  0  0  0  0
   -4.1601   -3.8778    0.6598 H   0  0  0  0  0  0  0  0  0  0  0  0
   -4.3310   -3.8750    3.1020 H   0  0  0  0  0  0  0  0  0  0  0  0
   -4.2993   -1.7392    4.3630 H   0  0  0  0  0  0  0  0  0  0  0  0
   -4.0836    0.4049    3.1584 H   0  0  0  0  0  0  0  0  0  0  0  0
   -5.8754    4.5453   -0.7044 H   0  0  0  0  0  0  0  0  0  0  0  0
   -4.3785    6.0916   -1.9421 H   0  0  0  0  0  0  0  0  0  0  0  0
   -2.0234    5.4674   -2.3726 H   0  0  0  0  0  0  0  0  0  0  0  0
   -1.1418    3.3012   -1.5774 H   0  0  0  0  0  0  0  0  0  0  0  0
   -1.0224    0.8281    1.9156 H   0  0  0  0  0  0  0  0  0  0  0  0
    1.1074   -0.3451    1.7954 H   0  0  0  0  0  0  0  0  0  0  0  0
    3.6100   -2.5624    0.2539 H   0  0  0  0  0  0  0  0  0  0  0  0
    2.4435   -2.0027    1.4097 H   0  0  0  0  0  0  0  0  0  0  0  0
    3.3770    0.4076    1.0011 H   0  0  0  0  0  0  0  0  0  0  0  0
    4.3727   -0.7113    1.8972 H   0  0  0  0  0  0  0  0  0  0  0  0
    4.2081   -0.6996   -1.8505 H   0  0  0  0  0  0  0  0  0  0  0  0
    3.9862    0.9894   -1.3387 H   0  0  0  0  0  0  0  0  0  0  0  0
    6.3918    1.4590   -1.8051 H   0  0  0  0  0  0  0  0  0  0  0  0
    5.6066    0.7611   -3.2289 H   0  0  0  0  0  0  0  0  0  0  0  0
    8.0176   -1.6748   -1.0001 H   0  0  0  0  0  0  0  0  0  0  0  0
    7.8327    0.0045   -0.4756 H   0  0  0  0  0  0  0  0  0  0  0  0
    5.6785   -2.1904   -0.4743 H   0  0  0  0  0  0  0  0  0  0  0  0
    6.4744   -1.5104    0.9596 H   0  0  0  0  0  0  0  0  0  0  0  0
    0.5754   -0.8870   -2.4512 H   0  0  0  0  0  0  0  0  0  0  0  0
   -1.5881    0.2973   -2.3223 H   0  0  0  0  0  0  0  0  0  0  0  0
  1  2  1  0
  2  3  1  0
  3  4  2  0
  4  5  1  0
  5  6  2  0
  6  7  1  0
  7  8  2  0
  8  9  1  0
  9 10  1  0
 10 11  1  0
 11 12  2  0
 12 13  1  0
 13 14  2  0
 14 15  1  0
 15 16  2  0
 16 17  1  0
 17 18  1  0
 18 19  2  0
 19 20  1  0
 20 21  2  0
 21 22  1  0
 22 23  1  0
 23 24  1  0
 24 25  1  0
 25 26  1  0
 26 27  1  0
 27 28  1  0
 28 29  1  0
 29 30  1  0
 21 31  1  0
 31 32  2  0
  8  3  1  0
 17  9  2  0
 32 18  1  0
 16 11  1  0
 30 25  1  0
  1 33  1  0
  1 34  1  0
  1 35  1  0
  4 36  1  0
  5 37  1  0
  6 38  1  0
  7 39  1  0
 12 40  1  0
 13 41  1  0
 14 42  1  0
 15 43  1  0
 19 44  1  0
 20 45  1  0
 23 46  1  0
 23 47  1  0
 24 48  1  0
 24 49  1  0
 26 50  1  0
 26 51  1  0
 27 52  1  0
 27 53  1  0
 29 54  1  0
 29 55  1  0
 30 56  1  0
 30 57  1  0
 31 58  1  0
 32 59  1  0
M  END
$$$$
