
     RDKit          3D

 49 51  0  0  0  0  0  0  0  0999 V2000
    6.5351    2.2346   -0.1295 C   0  0  0  0  0  0  0  0  0  0  0  0
    6.2264    0.7818    0.0893 C   0  0  0  0  0  0  0  0  0  0  0  0
    7.2648   -0.1461    0.2373 C   0  0  0  0  0  0  0  0  0  0  0  0
    6.9836   -1.4884    0.4943 C   0  0  0  0  0  0  0  0  0  0  0  0
    5.6628   -1.9114    0.6060 C   0  0  0  0  0  0  0  0  0  0  0  0
    5.4682   -3.2371    0.8888 O   0  0  0  0  0  0  0  0  0  0  0  0
    4.6075   -1.0050    0.4382 C   0  0  0  0  0  0  0  0  0  0  0  0
    3.2080   -1.4903    0.5433 C   0  0  0  0  0  0  0  0  0  0  0  0
    2.9762   -2.4835    1.2326 O   0  0  0  0  0  0  0  0  0  0  0  0
    2.0862   -0.8433   -0.1644 C   0  0  0  0  0  0  0  0  0  0  0  0
    2.2147   -0.3402   -1.4521 C   0  0  0  0  0  0  0  0  0  0  0  0
    1.2019    0.2472   -2.1337 N   0  0  0  0  0  0  0  0  0  0  0  0
    0.0075    0.3143   -1.5105 C   0  0  0  0  0  0  0  0  0  0  0  0
   -0.2317   -0.1899   -0.2443 C   0  0  0  0  0  0  0  0  0  0  0  0
    0.8288   -0.7908    0.4386 C   0  0  0  0  0  0  0  0  0  0  0  0
   -1.6227   -0.1610    0.2909 C   0  0  0  0  0  0  0  0  0  0  0  0
   -2.4674    0.8291   -0.3572 N   0  0  0  0  0  0  0  0  0  0  0  0
   -3.7755    1.0953    0.2376 C   0  0  0  0  0  0  0  0  0  0  0  0
   -4.8021    0.0071   -0.0950 C   0  0  0  0  0  0  0  0  0  0  0  0
   -6.2279    0.3504    0.3730 C   0  0  0  0  0  0  0  0  0  0  0  0
   -7.2074   -0.7176   -0.1195 C   0  0  0  0  0  0  0  0  0  0  0  0
   -6.3263    0.4798    1.8936 C   0  0  0  0  0  0  0  0  0  0  0  0
   -2.2451    1.2192   -1.6645 C   0  0  0  0  0  0  0  0  0  0  0  0
   -3.0689    1.8349   -2.3379 O   0  0  0  0  0  0  0  0  0  0  0  0
   -1.0270    0.9236   -2.1914 N   0  0  0  0  0  0  0  0  0  0  0  0
    4.8970    0.3488    0.2102 C   0  0  0  0  0  0  0  0  0  0  0  0
    7.4763    2.3563   -0.6760 H   0  0  0  0  0  0  0  0  0  0  0  0
    6.6154    2.7488    0.8331 H   0  0  0  0  0  0  0  0  0  0  0  0
    5.7505    2.7142   -0.7240 H   0  0  0  0  0  0  0  0  0  0  0  0
    8.3031    0.1723    0.1654 H   0  0  0  0  0  0  0  0  0  0  0  0
    7.7936   -2.2022    0.6204 H   0  0  0  0  0  0  0  0  0  0  0  0
    4.5268   -3.3527    1.1489 H   0  0  0  0  0  0  0  0  0  0  0  0
    3.1483   -0.4016   -2.0051 H   0  0  0  0  0  0  0  0  0  0  0  0
    0.6783   -1.2228    1.4258 H   0  0  0  0  0  0  0  0  0  0  0  0
   -2.0824   -1.1456    0.1491 H   0  0  0  0  0  0  0  0  0  0  0  0
   -1.5983    0.0702    1.3619 H   0  0  0  0  0  0  0  0  0  0  0  0
   -4.1364    2.0635   -0.1292 H   0  0  0  0  0  0  0  0  0  0  0  0
   -3.6361    1.1924    1.3195 H   0  0  0  0  0  0  0  0  0  0  0  0
   -4.4858   -0.9449    0.3496 H   0  0  0  0  0  0  0  0  0  0  0  0
   -4.8139   -0.1528   -1.1809 H   0  0  0  0  0  0  0  0  0  0  0  0
   -6.5237    1.3083   -0.0733 H   0  0  0  0  0  0  0  0  0  0  0  0
   -6.9655   -1.7014    0.2968 H   0  0  0  0  0  0  0  0  0  0  0  0
   -7.1819   -0.7955   -1.2116 H   0  0  0  0  0  0  0  0  0  0  0  0
   -8.2335   -0.4690    0.1719 H   0  0  0  0  0  0  0  0  0  0  0  0
   -5.7297    1.3199    2.2615 H   0  0  0  0  0  0  0  0  0  0  0  0
   -5.9788   -0.4309    2.3929 H   0  0  0  0  0  0  0  0  0  0  0  0
   -7.3621    0.6594    2.2016 H   0  0  0  0  0  0  0  0  0  0  0  0
   -0.8308    1.2668   -3.1194 H   0  0  0  0  0  0  0  0  0  0  0  0
    4.0999    1.0856    0.1399 H   0  0  0  0  0  0  0  0  0  0  0  0
  1  2  1  0
  2  3  2  0
  3  4  1  0
  4  5  2  0
  5  6  1  0
  5  7  1  0
  7  8  1  0
  8  9  2  0
  8 10  1  0
 10 11  2  0
 11 12  1  0
 12 13  2  0
 13 14  1  0
 14 15  2  0
 14 16  1  0
 16 17  1  0
 17 18  1  0
 18 19  1  0
 19 20  1  0
 20 21  1  0
 20 22  1  0
 17 23  1  0
 23 24  2  0
 23 25  1  0
  7 26  2  0
 26  2  1  0
 15 10  1  0
 25 13  1  0
  1 27  1  0
  1 28  1  0
  1 29  1  0
  3 30  1  0
  4 31  1  0
  6 32  1  0
 11 33  1  0
 15 34  1  0
 16 35  1  0
 16 36  1  0
 18 37  1  0
 18 38  1  0
 19 39  1  0
 19 40  1  0
 20 41  1  0
 21 42  1  0
 21 43  1  0
 21 44  1  0
 22 45  1  0
 22 46  1  0
 22 47  1  0
 25 48  1  0
 26 49  1  0
M  END
$$$$
