
     RDKit          3D

 60 61  0  0  0  0  0  0  0  0999 V2000
   -7.2378    1.2877    0.0354 C   0  0  0  0  0  0  0  0  0  0  0  0
   -6.2441    1.2420   -0.9832 O   0  0  0  0  0  0  0  0  0  0  0  0
   -4.9359    1.2984   -0.5807 C   0  0  0  0  0  0  0  0  0  0  0  0
   -4.0098    1.1060   -1.6115 C   0  0  0  0  0  0  0  0  0  0  0  0
   -2.6372    1.1387   -1.3545 C   0  0  0  0  0  0  0  0  0  0  0  0
   -1.6676    0.9375   -2.3071 O   0  0  0  0  0  0  0  0  0  0  0  0
   -2.0903    0.8102   -3.6602 C   0  0  0  0  0  0  0  0  0  0  0  0
   -2.1902    1.3772   -0.0375 C   0  0  0  0  0  0  0  0  0  0  0  0
   -0.7578    1.4184    0.2417 C   0  0  0  0  0  0  0  0  0  0  0  0
   -0.1235    2.5832    0.4477 N   0  0  0  0  0  0  0  0  0  0  0  0
    1.2030    2.2628    0.6469 O   0  0  0  0  0  0  0  0  0  0  0  0
    1.3727    0.9122    0.5725 C   0  0  0  0  0  0  0  0  0  0  0  0
    2.6748    0.3660    0.8484 C   0  0  0  0  0  0  0  0  0  0  0  0
    2.9049   -0.7974    1.1506 O   0  0  0  0  0  0  0  0  0  0  0  0
    3.6177    1.3424    0.7393 O   0  0  0  0  0  0  0  0  0  0  0  0
    5.0174    1.0627    0.9919 C   0  0  0  0  0  0  0  0  0  0  0  0
    5.5716    0.0388   -0.0058 C   0  0  0  0  0  0  0  0  0  0  0  0
    5.2433    0.6267    2.4444 C   0  0  0  0  0  0  0  0  0  0  0  0
    5.7317    2.4043    0.7658 C   0  0  0  0  0  0  0  0  0  0  0  0
    0.1551    0.3290    0.2816 C   0  0  0  0  0  0  0  0  0  0  0  0
   -0.1248   -1.0686    0.0707 C   0  0  0  0  0  0  0  0  0  0  0  0
   -1.1913   -1.5882    0.3719 O   0  0  0  0  0  0  0  0  0  0  0  0
    0.9111   -1.7087   -0.5335 O   0  0  0  0  0  0  0  0  0  0  0  0
    0.8539   -3.1300   -0.8138 C   0  0  0  0  0  0  0  0  0  0  0  0
   -0.2552   -3.4502   -1.8212 C   0  0  0  0  0  0  0  0  0  0  0  0
    2.2119   -3.4569   -1.4554 C   0  0  0  0  0  0  0  0  0  0  0  0
    0.7120   -3.9477    0.4756 C   0  0  0  0  0  0  0  0  0  0  0  0
   -3.1197    1.5588    1.0090 C   0  0  0  0  0  0  0  0  0  0  0  0
   -2.5967    1.7474    2.2665 O   0  0  0  0  0  0  0  0  0  0  0  0
   -3.4989    1.8483    3.3580 C   0  0  0  0  0  0  0  0  0  0  0  0
   -4.4904    1.5260    0.7243 C   0  0  0  0  0  0  0  0  0  0  0  0
   -8.2139    1.1610   -0.4439 H   0  0  0  0  0  0  0  0  0  0  0  0
   -7.1100    0.4660    0.7506 H   0  0  0  0  0  0  0  0  0  0  0  0
   -7.2377    2.2590    0.5419 H   0  0  0  0  0  0  0  0  0  0  0  0
   -4.3990    0.9237   -2.6093 H   0  0  0  0  0  0  0  0  0  0  0  0
   -2.6952   -0.0915   -3.8019 H   0  0  0  0  0  0  0  0  0  0  0  0
   -2.6249    1.7050   -3.9942 H   0  0  0  0  0  0  0  0  0  0  0  0
   -1.1953    0.7084   -4.2787 H   0  0  0  0  0  0  0  0  0  0  0  0
    5.1541   -0.9591    0.1569 H   0  0  0  0  0  0  0  0  0  0  0  0
    5.3208    0.3206   -1.0342 H   0  0  0  0  0  0  0  0  0  0  0  0
    6.6605   -0.0463    0.0761 H   0  0  0  0  0  0  0  0  0  0  0  0
    6.3106    0.5825    2.6867 H   0  0  0  0  0  0  0  0  0  0  0  0
    4.7558    1.3193    3.1401 H   0  0  0  0  0  0  0  0  0  0  0  0
    4.8236   -0.3644    2.6425 H   0  0  0  0  0  0  0  0  0  0  0  0
    6.8083    2.3288    0.9512 H   0  0  0  0  0  0  0  0  0  0  0  0
    5.3205    3.1803    1.4211 H   0  0  0  0  0  0  0  0  0  0  0  0
    5.5825    2.7568   -0.2614 H   0  0  0  0  0  0  0  0  0  0  0  0
   -1.2513   -3.3171   -1.3878 H   0  0  0  0  0  0  0  0  0  0  0  0
   -0.2001   -2.7823   -2.6884 H   0  0  0  0  0  0  0  0  0  0  0  0
   -0.1874   -4.4866   -2.1718 H   0  0  0  0  0  0  0  0  0  0  0  0
    3.0360   -3.2079   -0.7758 H   0  0  0  0  0  0  0  0  0  0  0  0
    2.3699   -2.8594   -2.3622 H   0  0  0  0  0  0  0  0  0  0  0  0
    2.2907   -4.5166   -1.7205 H   0  0  0  0  0  0  0  0  0  0  0  0
   -0.2706   -3.8113    0.9386 H   0  0  0  0  0  0  0  0  0  0  0  0
    1.4564   -3.6376    1.2160 H   0  0  0  0  0  0  0  0  0  0  0  0
    0.8352   -5.0196    0.2834 H   0  0  0  0  0  0  0  0  0  0  0  0
   -4.1276    2.7397    3.2679 H   0  0  0  0  0  0  0  0  0  0  0  0
   -2.9067    1.9491    4.2730 H   0  0  0  0  0  0  0  0  0  0  0  0
   -4.1053    0.9421    3.4543 H   0  0  0  0  0  0  0  0  0  0  0  0
   -5.2099    1.6805    1.5180 H   0  0  0  0  0  0  0  0  0  0  0  0
  1  2  1  0
  2  3  1  0
  3  4  2  0
  4  5  1  0
  5  6  1  0
  6  7  1  0
  5  8  2  0
  8  9  1  0
  9 10  2  0
 10 11  1  0
 11 12  1  0
 12 13  1  0
 13 14  2  0
 13 15  1  0
 15 16  1  0
 16 17  1  0
 16 18  1  0
 16 19  1  0
 12 20  2  0
 20 21  1  0
 21 22  2  0
 21 23  1  0
 23 24  1  0
 24 25  1  0
 24 26  1  0
 24 27  1  0
  8 28  1  0
 28 29  1  0
 29 30  1  0
 28 31  2  0
 31  3  1  0
 20  9  1  0
  1 32  1  0
  1 33  1  0
  1 34  1  0
  4 35  1  0
  7 36  1  0
  7 37  1  0
  7 38  1  0
 17 39  1  0
 17 40  1  0
 17 41  1  0
 18 42  1  0
 18 43  1  0
 18 44  1  0
 19 45  1  0
 19 46  1  0
 19 47  1  0
 25 48  1  0
 25 49  1  0
 25 50  1  0
 26 51  1  0
 26 52  1  0
 26 53  1  0
 27 54  1  0
 27 55  1  0
 27 56  1  0
 30 57  1  0
 30 58  1  0
 30 59  1  0
 31 60  1  0
M  END
$$$$
