
     RDKit          3D

 50 53  0  0  0  0  0  0  0  0999 V2000
    0.7896    3.8890    0.4234 C   0  0  0  0  0  0  0  0  0  0  0  0
    1.0608    2.8507    1.5019 C   0  0  0  0  0  0  0  0  0  0  0  0
    0.6920    1.4583    1.0476 C   0  0  0  0  0  0  0  0  0  0  0  0
    1.6737    0.6354    0.4730 C   0  0  0  0  0  0  0  0  0  0  0  0
    1.3662   -0.6567    0.0318 C   0  0  0  0  0  0  0  0  0  0  0  0
    2.3825   -1.5407   -0.5622 C   0  0  0  0  0  0  0  0  0  0  0  0
    3.8003   -1.1982   -0.7854 C   0  0  0  0  0  0  0  0  0  0  0  0
    4.1964   -0.5786   -1.9774 C   0  0  0  0  0  0  0  0  0  0  0  0
    5.5377   -0.2543   -2.1874 C   0  0  0  0  0  0  0  0  0  0  0  0
    6.4880   -0.5474   -1.2098 C   0  0  0  0  0  0  0  0  0  0  0  0
    6.1001   -1.1642   -0.0209 C   0  0  0  0  0  0  0  0  0  0  0  0
    4.7597   -1.4898    0.1925 C   0  0  0  0  0  0  0  0  0  0  0  0
    2.0084   -2.7714   -0.9448 C   0  0  0  0  0  0  0  0  0  0  0  0
    0.6390   -3.2771   -0.7991 C   0  0  0  0  0  0  0  0  0  0  0  0
    0.3437   -4.4097   -1.1615 O   0  0  0  0  0  0  0  0  0  0  0  0
   -0.2896   -2.4172   -0.2403 O   0  0  0  0  0  0  0  0  0  0  0  0
    0.0512   -1.1090    0.1715 C   0  0  0  0  0  0  0  0  0  0  0  0
   -0.9725   -0.3136    0.7169 C   0  0  0  0  0  0  0  0  0  0  0  0
   -2.3675   -0.8824    0.9015 C   0  0  0  0  0  0  0  0  0  0  0  0
   -3.4437    0.1215    0.7278 N   0  0  0  0  0  0  0  0  0  0  0  0
   -3.6448    0.4733   -0.7038 C   0  0  0  0  0  0  0  0  0  0  0  0
   -4.8211   -0.2627   -1.3641 C   0  0  0  0  0  0  0  0  0  0  0  0
   -6.0746   -0.0119   -0.7151 O   0  0  0  0  0  0  0  0  0  0  0  0
   -5.9411    0.2718    0.6839 C   0  0  0  0  0  0  0  0  0  0  0  0
   -4.7085   -0.3996    1.3053 C   0  0  0  0  0  0  0  0  0  0  0  0
   -0.6192    0.9733    1.1563 C   0  0  0  0  0  0  0  0  0  0  0  0
   -1.5586    1.8082    1.7038 O   0  0  0  0  0  0  0  0  0  0  0  0
    1.0759    4.8846    0.7768 H   0  0  0  0  0  0  0  0  0  0  0  0
   -0.2713    3.9177    0.1534 H   0  0  0  0  0  0  0  0  0  0  0  0
    1.3614    3.6743   -0.4858 H   0  0  0  0  0  0  0  0  0  0  0  0
    0.5134    3.1062    2.4169 H   0  0  0  0  0  0  0  0  0  0  0  0
    2.1226    2.8797    1.7765 H   0  0  0  0  0  0  0  0  0  0  0  0
    2.6881    1.0193    0.3782 H   0  0  0  0  0  0  0  0  0  0  0  0
    3.4642   -0.3426   -2.7462 H   0  0  0  0  0  0  0  0  0  0  0  0
    5.8416    0.2272   -3.1134 H   0  0  0  0  0  0  0  0  0  0  0  0
    7.5325   -0.2943   -1.3746 H   0  0  0  0  0  0  0  0  0  0  0  0
    6.8420   -1.3910    0.7407 H   0  0  0  0  0  0  0  0  0  0  0  0
    4.4690   -1.9676    1.1254 H   0  0  0  0  0  0  0  0  0  0  0  0
    2.7029   -3.4761   -1.3906 H   0  0  0  0  0  0  0  0  0  0  0  0
   -2.3970   -1.2743    1.9271 H   0  0  0  0  0  0  0  0  0  0  0  0
   -2.5495   -1.7279    0.2273 H   0  0  0  0  0  0  0  0  0  0  0  0
   -2.7337    0.3258   -1.2946 H   0  0  0  0  0  0  0  0  0  0  0  0
   -3.8564    1.5498   -0.7322 H   0  0  0  0  0  0  0  0  0  0  0  0
   -4.9246    0.0549   -2.4067 H   0  0  0  0  0  0  0  0  0  0  0  0
   -4.6487   -1.3452   -1.3700 H   0  0  0  0  0  0  0  0  0  0  0  0
   -5.9019    1.3599    0.8126 H   0  0  0  0  0  0  0  0  0  0  0  0
   -6.8521   -0.0813    1.1777 H   0  0  0  0  0  0  0  0  0  0  0  0
   -4.6995   -0.2263    2.3870 H   0  0  0  0  0  0  0  0  0  0  0  0
   -4.7897   -1.4819    1.1373 H   0  0  0  0  0  0  0  0  0  0  0  0
   -2.4372    1.4120    1.5117 H   0  0  0  0  0  0  0  0  0  0  0  0
  1  2  1  0
  2  3  1  0
  3  4  2  0
  4  5  1  0
  5  6  1  0
  6  7  1  0
  7  8  2  0
  8  9  1  0
  9 10  2  0
 10 11  1  0
 11 12  2  0
  6 13  2  0
 13 14  1  0
 14 15  2  0
 14 16  1  0
 16 17  1  0
 17 18  1  0
 18 19  1  0
 19 20  1  0
 20 21  1  0
 21 22  1  0
 22 23  1  0
 23 24  1  0
 24 25  1  0
 18 26  2  0
 26 27  1  0
 26  3  1  0
 17  5  2  0
 25 20  1  0
 12  7  1  0
  1 28  1  0
  1 29  1  0
  1 30  1  0
  2 31  1  0
  2 32  1  0
  4 33  1  0
  8 34  1  0
  9 35  1  0
 10 36  1  0
 11 37  1  0
 12 38  1  0
 13 39  1  0
 19 40  1  0
 19 41  1  0
 21 42  1  0
 21 43  1  0
 22 44  1  0
 22 45  1  0
 24 46  1  0
 24 47  1  0
 25 48  1  0
 25 49  1  0
 27 50  1  0
M  END
$$$$
