
     RDKit          3D

 44 46  0  0  0  0  0  0  0  0999 V2000
   -4.9240    1.9302   -0.2400 C   0  0  0  0  0  0  0  0  0  0  0  0
   -4.6916    0.4488   -0.3177 C   0  0  0  0  0  0  0  0  0  0  0  0
   -5.6106   -0.3745   -0.9736 C   0  0  0  0  0  0  0  0  0  0  0  0
   -5.3985   -1.7508   -1.0410 C   0  0  0  0  0  0  0  0  0  0  0  0
   -4.2702   -2.3301   -0.4420 C   0  0  0  0  0  0  0  0  0  0  0  0
   -4.0663   -3.8159   -0.5369 C   0  0  0  0  0  0  0  0  0  0  0  0
   -3.3680   -1.5159    0.2652 C   0  0  0  0  0  0  0  0  0  0  0  0
   -2.3030   -2.1663    0.8320 O   0  0  0  0  0  0  0  0  0  0  0  0
   -1.5726   -1.5212    1.8761 C   0  0  0  0  0  0  0  0  0  0  0  0
   -0.2867   -1.0438    1.3183 C   0  0  0  0  0  0  0  0  0  0  0  0
    0.1004   -0.4433    0.1456 C   0  0  0  0  0  0  0  0  0  0  0  0
    1.5072   -0.2604    0.2678 C   0  0  0  0  0  0  0  0  0  0  0  0
    2.3717    0.3833   -0.7380 C   0  0  0  0  0  0  0  0  0  0  0  0
    1.8495    1.0608   -1.6267 O   0  0  0  0  0  0  0  0  0  0  0  0
    3.7617    0.2252   -0.6952 N   0  0  0  0  0  0  0  0  0  0  0  0
    4.4797   -0.6268    0.2441 C   0  0  0  0  0  0  0  0  0  0  0  0
    4.5760    1.0991   -1.5410 C   0  0  0  0  0  0  0  0  0  0  0  0
    5.2193    2.1812   -0.7175 C   0  0  0  0  0  0  0  0  0  0  0  0
    6.4214    2.0876   -0.1791 N   0  0  0  0  0  0  0  0  0  0  0  0
    6.7098    3.2434    0.5188 C   0  0  0  0  0  0  0  0  0  0  0  0
    5.7261    4.2082    0.5080 C   0  0  0  0  0  0  0  0  0  0  0  0
    4.3874    3.6583   -0.4094 S   0  0  0  0  0  0  0  0  0  0  0  0
    1.9226   -0.7047    1.4667 N   0  0  0  0  0  0  0  0  0  0  0  0
    0.8075   -1.1996    2.1097 O   0  0  0  0  0  0  0  0  0  0  0  0
   -3.5770   -0.1320    0.3086 C   0  0  0  0  0  0  0  0  0  0  0  0
   -5.4266    2.2931   -1.1426 H   0  0  0  0  0  0  0  0  0  0  0  0
   -5.5443    2.1679    0.6297 H   0  0  0  0  0  0  0  0  0  0  0  0
   -3.9760    2.4705   -0.1581 H   0  0  0  0  0  0  0  0  0  0  0  0
   -6.4926    0.0519   -1.4477 H   0  0  0  0  0  0  0  0  0  0  0  0
   -6.1188   -2.3714   -1.5691 H   0  0  0  0  0  0  0  0  0  0  0  0
   -4.3081   -4.2945    0.4152 H   0  0  0  0  0  0  0  0  0  0  0  0
   -3.0318   -4.0507   -0.8064 H   0  0  0  0  0  0  0  0  0  0  0  0
   -4.7034   -4.2529   -1.3116 H   0  0  0  0  0  0  0  0  0  0  0  0
   -2.1280   -0.7243    2.3813 H   0  0  0  0  0  0  0  0  0  0  0  0
   -1.3797   -2.2866    2.6382 H   0  0  0  0  0  0  0  0  0  0  0  0
   -0.5276   -0.1680   -0.6916 H   0  0  0  0  0  0  0  0  0  0  0  0
    3.9591   -1.5801    0.3731 H   0  0  0  0  0  0  0  0  0  0  0  0
    5.4765   -0.8487   -0.1449 H   0  0  0  0  0  0  0  0  0  0  0  0
    4.5721   -0.1105    1.2025 H   0  0  0  0  0  0  0  0  0  0  0  0
    3.9875    1.5378   -2.3543 H   0  0  0  0  0  0  0  0  0  0  0  0
    5.3500    0.4839   -2.0159 H   0  0  0  0  0  0  0  0  0  0  0  0
    7.6642    3.3320    1.0250 H   0  0  0  0  0  0  0  0  0  0  0  0
    5.7295    5.1802    0.9804 H   0  0  0  0  0  0  0  0  0  0  0  0
   -2.8741    0.5298    0.8058 H   0  0  0  0  0  0  0  0  0  0  0  0
  1  2  1  0
  2  3  2  0
  3  4  1  0
  4  5  2  0
  5  6  1  0
  5  7  1  0
  7  8  1  0
  8  9  1  0
  9 10  1  0
 10 11  2  0
 11 12  1  0
 12 13  1  0
 13 14  2  0
 13 15  1  0
 15 16  1  0
 15 17  1  0
 17 18  1  0
 18 19  2  0
 19 20  1  0
 20 21  2  0
 21 22  1  0
 12 23  2  0
 23 24  1  0
  7 25  2  0
 25  2  1  0
 24 10  1  0
 22 18  1  0
  1 26  1  0
  1 27  1  0
  1 28  1  0
  3 29  1  0
  4 30  1  0
  6 31  1  0
  6 32  1  0
  6 33  1  0
  9 34  1  0
  9 35  1  0
 11 36  1  0
 16 37  1  0
 16 38  1  0
 16 39  1  0
 17 40  1  0
 17 41  1  0
 20 42  1  0
 21 43  1  0
 25 44  1  0
M  END
$$$$
