
     RDKit          3D

 48 50  0  0  0  0  0  0  0  0999 V2000
    5.4242    1.9866    1.8963 C   0  0  0  0  0  0  0  0  0  0  0  0
    4.9038    2.1675    0.5848 O   0  0  0  0  0  0  0  0  0  0  0  0
    4.1151    1.1645    0.0889 C   0  0  0  0  0  0  0  0  0  0  0  0
    3.7464    0.0018    0.7652 C   0  0  0  0  0  0  0  0  0  0  0  0
    2.9343   -0.9501    0.1376 C   0  0  0  0  0  0  0  0  0  0  0  0
    2.4733   -0.7489   -1.1714 C   0  0  0  0  0  0  0  0  0  0  0  0
    1.5865   -1.7758   -1.8401 C   0  0  0  0  0  0  0  0  0  0  0  0
    0.2955   -2.0717   -1.0855 C   0  0  0  0  0  0  0  0  0  0  0  0
   -0.0750   -3.2312   -0.9220 O   0  0  0  0  0  0  0  0  0  0  0  0
   -0.3918   -0.9291   -0.7070 N   0  0  0  0  0  0  0  0  0  0  0  0
   -1.5775   -0.9156    0.0109 C   0  0  0  0  0  0  0  0  0  0  0  0
   -2.2867   -1.9209    0.6331 C   0  0  0  0  0  0  0  0  0  0  0  0
   -3.3977   -1.3080    1.2033 C   0  0  0  0  0  0  0  0  0  0  0  0
   -3.4528   -0.0039    0.9746 N   0  0  0  0  0  0  0  0  0  0  0  0
   -2.3175    0.2487    0.2644 N   0  0  0  0  0  0  0  0  0  0  0  0
   -2.0478    1.6461   -0.1465 C   0  0  0  0  0  0  0  0  0  0  0  0
   -0.7523    2.1593    0.5128 C   0  0  0  0  0  0  0  0  0  0  0  0
   -3.1874    2.6036    0.3014 C   0  0  0  0  0  0  0  0  0  0  0  0
   -1.9655    1.7575   -1.6826 C   0  0  0  0  0  0  0  0  0  0  0  0
   -4.3514   -2.1288    1.9575 C   0  0  0  0  0  0  0  0  0  0  0  0
   -3.5902   -3.8291    1.9879 S   0  0  0  0  0  3  0  0  0  0  0  0
   -2.9607   -4.0641    3.5130 O   0  0  0  0  0  1  0  0  0  0  0  0
   -2.1666   -3.3697    0.8554 C   0  0  0  0  0  0  0  0  0  0  0  0
    2.8512    0.4177   -1.8495 C   0  0  0  0  0  0  0  0  0  0  0  0
    3.6625    1.3645   -1.2171 C   0  0  0  0  0  0  0  0  0  0  0  0
    6.0682    1.1027    1.9424 H   0  0  0  0  0  0  0  0  0  0  0  0
    4.6186    1.9313    2.6371 H   0  0  0  0  0  0  0  0  0  0  0  0
    6.0405    2.8594    2.1369 H   0  0  0  0  0  0  0  0  0  0  0  0
    4.0748   -0.1997    1.7806 H   0  0  0  0  0  0  0  0  0  0  0  0
    2.6639   -1.8529    0.6861 H   0  0  0  0  0  0  0  0  0  0  0  0
    1.3069   -1.4517   -2.8500 H   0  0  0  0  0  0  0  0  0  0  0  0
    2.1542   -2.7093   -1.9471 H   0  0  0  0  0  0  0  0  0  0  0  0
    0.0138   -0.0488   -0.9902 H   0  0  0  0  0  0  0  0  0  0  0  0
    0.1367    1.6137    0.1842 H   0  0  0  0  0  0  0  0  0  0  0  0
   -0.5843    3.2166    0.2753 H   0  0  0  0  0  0  0  0  0  0  0  0
   -0.8031    2.0676    1.6060 H   0  0  0  0  0  0  0  0  0  0  0  0
   -2.9867    3.6352   -0.0149 H   0  0  0  0  0  0  0  0  0  0  0  0
   -4.1508    2.3109   -0.1353 H   0  0  0  0  0  0  0  0  0  0  0  0
   -3.2999    2.6153    1.3928 H   0  0  0  0  0  0  0  0  0  0  0  0
   -1.8790    2.8045   -1.9974 H   0  0  0  0  0  0  0  0  0  0  0  0
   -2.8642    1.3405   -2.1544 H   0  0  0  0  0  0  0  0  0  0  0  0
   -1.1041    1.2330   -2.1041 H   0  0  0  0  0  0  0  0  0  0  0  0
   -5.3153   -2.2111    1.4483 H   0  0  0  0  0  0  0  0  0  0  0  0
   -4.4880   -1.7940    2.9889 H   0  0  0  0  0  0  0  0  0  0  0  0
   -1.2425   -3.6543    1.3644 H   0  0  0  0  0  0  0  0  0  0  0  0
   -2.3126   -3.9471   -0.0606 H   0  0  0  0  0  0  0  0  0  0  0  0
    2.5260    0.6020   -2.8722 H   0  0  0  0  0  0  0  0  0  0  0  0
    3.9548    2.2654   -1.7532 H   0  0  0  0  0  0  0  0  0  0  0  0
  1  2  1  0
  2  3  1  0
  3  4  2  0
  4  5  1  0
  5  6  2  0
  6  7  1  0
  7  8  1  0
  8  9  2  0
  8 10  1  0
 10 11  1  0
 11 12  2  0
 12 13  1  0
 13 14  2  0
 14 15  1  0
 15 16  1  0
 16 17  1  0
 16 18  1  0
 16 19  1  0
 13 20  1  0
 20 21  1  0
 21 22  1  0
 21 23  1  0
  6 24  1  0
 24 25  2  0
 25  3  1  0
 15 11  1  0
 23 12  1  0
  1 26  1  0
  1 27  1  0
  1 28  1  0
  4 29  1  0
  5 30  1  0
  7 31  1  0
  7 32  1  0
 10 33  1  0
 17 34  1  0
 17 35  1  0
 17 36  1  0
 18 37  1  0
 18 38  1  0
 18 39  1  0
 19 40  1  0
 19 41  1  0
 19 42  1  0
 20 43  1  0
 20 44  1  0
 23 45  1  0
 23 46  1  0
 24 47  1  0
 25 48  1  0
M  CHG  2  21   1  22  -1
M  END
$$$$
