
     RDKit          3D

 36 38  0  0  0  0  0  0  0  0999 V2000
    5.9438   -0.1436   -0.0384 C   0  0  0  0  0  0  0  0  0  0  0  0
    4.4816   -0.2586    0.2779 C   0  0  0  0  0  0  0  0  0  0  0  0
    3.7628   -1.4110   -0.0690 C   0  0  0  0  0  0  0  0  0  0  0  0
    2.4027   -1.5095    0.2258 C   0  0  0  0  0  0  0  0  0  0  0  0
    1.7573   -0.4439    0.8609 C   0  0  0  0  0  0  0  0  0  0  0  0
    0.0357   -0.5985    1.2531 S   0  0  0  0  0  6  0  0  0  0  0  0
   -0.4334    0.6538    1.8028 O   0  0  0  0  0  0  0  0  0  0  0  0
   -0.1339   -1.8402    1.9731 O   0  0  0  0  0  0  0  0  0  0  0  0
   -0.6891   -0.7767   -0.2830 N   0  0  0  0  0  0  0  0  0  0  0  0
   -0.6781    0.4708   -1.1121 C   0  0  0  0  0  0  0  0  0  0  0  0
   -1.9252    1.3594   -1.0869 C   0  0  0  0  0  0  0  0  0  0  0  0
   -1.9602    2.4158   -1.7232 O   0  0  0  0  0  0  0  0  0  0  0  0
   -3.0235    0.8897   -0.4131 N   0  0  0  0  0  0  0  0  0  0  0  0
   -4.3520    1.4142   -0.5818 C   0  0  0  0  0  0  0  0  0  0  0  0
   -5.1855    0.4560    0.2454 C   0  0  0  0  0  0  0  0  0  0  0  0
   -4.4276   -0.7751    0.2170 O   0  0  0  0  0  0  0  0  0  0  0  0
   -3.0604   -0.3486    0.3192 C   0  0  0  0  0  0  0  0  0  0  0  0
   -2.0676   -1.3717   -0.2357 C   0  0  0  0  0  0  0  0  0  0  0  0
    2.4560    0.7157    1.2034 C   0  0  0  0  0  0  0  0  0  0  0  0
    3.8173    0.8054    0.9071 C   0  0  0  0  0  0  0  0  0  0  0  0
    6.3678   -1.1115   -0.3313 H   0  0  0  0  0  0  0  0  0  0  0  0
    6.0963    0.5629   -0.8612 H   0  0  0  0  0  0  0  0  0  0  0  0
    6.4949    0.2028    0.8422 H   0  0  0  0  0  0  0  0  0  0  0  0
    4.2599   -2.2439   -0.5626 H   0  0  0  0  0  0  0  0  0  0  0  0
    1.8553   -2.4145   -0.0320 H   0  0  0  0  0  0  0  0  0  0  0  0
   -0.5309    0.1535   -2.1519 H   0  0  0  0  0  0  0  0  0  0  0  0
    0.1797    1.0999   -0.8547 H   0  0  0  0  0  0  0  0  0  0  0  0
   -4.4218    2.4555   -0.2571 H   0  0  0  0  0  0  0  0  0  0  0  0
   -4.6070    1.3512   -1.6459 H   0  0  0  0  0  0  0  0  0  0  0  0
   -6.1920    0.2982   -0.1495 H   0  0  0  0  0  0  0  0  0  0  0  0
   -5.2528    0.7831    1.2877 H   0  0  0  0  0  0  0  0  0  0  0  0
   -2.8597   -0.1273    1.3742 H   0  0  0  0  0  0  0  0  0  0  0  0
   -2.3516   -1.6703   -1.2536 H   0  0  0  0  0  0  0  0  0  0  0  0
   -2.0804   -2.2963    0.3503 H   0  0  0  0  0  0  0  0  0  0  0  0
    1.9585    1.5447    1.7039 H   0  0  0  0  0  0  0  0  0  0  0  0
    4.3632    1.7083    1.1768 H   0  0  0  0  0  0  0  0  0  0  0  0
  1  2  1  0
  2  3  2  0
  3  4  1  0
  4  5  2  0
  5  6  1  0
  6  7  2  0
  6  8  2  0
  6  9  1  0
  9 10  1  0
 10 11  1  0
 11 12  2  0
 11 13  1  0
 13 14  1  0
 14 15  1  0
 15 16  1  0
 16 17  1  0
 17 18  1  0
  5 19  1  0
 19 20  2  0
 20  2  1  0
 18  9  1  0
 17 13  1  0
  1 21  1  0
  1 22  1  0
  1 23  1  0
  3 24  1  0
  4 25  1  0
 10 26  1  0
 10 27  1  0
 14 28  1  0
 14 29  1  0
 15 30  1  0
 15 31  1  0
 17 32  1  0
 18 33  1  0
 18 34  1  0
 19 35  1  0
 20 36  1  0
M  END
$$$$
