
     RDKit          3D

 49 51  0  0  0  0  0  0  0  0999 V2000
   -4.3513   -0.9115   -3.8379 C   0  0  0  0  0  0  0  0  0  0  0  0
   -5.1296   -0.7801   -2.6552 O   0  0  0  0  0  0  0  0  0  0  0  0
   -4.4655   -0.5219   -1.4853 C   0  0  0  0  0  0  0  0  0  0  0  0
   -3.0859   -0.3256   -1.3749 C   0  0  0  0  0  0  0  0  0  0  0  0
   -2.4978   -0.0814   -0.1223 C   0  0  0  0  0  0  0  0  0  0  0  0
   -1.0255    0.1092   -0.0720 C   0  0  0  0  0  0  0  0  0  0  0  0
   -0.4402    0.6294   -1.0179 O   0  0  0  0  0  0  0  0  0  0  0  0
   -0.3820   -0.3618    1.0656 N   0  0  0  0  0  0  0  0  0  0  0  0
    0.9750   -0.3660    1.3638 C   0  0  0  0  0  0  0  0  0  0  0  0
    1.3821   -1.0463    2.8320 S   0  0  0  0  0  0  0  0  0  0  0  0
    1.7726    0.2079    0.4017 N   0  0  0  0  0  0  0  0  0  0  0  0
    3.1689    0.3405    0.2416 C   0  0  0  0  0  0  0  0  0  0  0  0
    3.5831    1.1532   -0.8490 C   0  0  0  0  0  0  0  0  0  0  0  0
    4.9350    1.3719   -1.1424 C   0  0  0  0  0  0  0  0  0  0  0  0
    5.8569    0.7510   -0.3304 C   0  0  0  0  0  0  0  0  0  0  0  0
    5.4686   -0.0496    0.7256 C   0  0  0  0  0  0  0  0  0  0  0  0
    4.1374   -0.2740    1.0386 C   0  0  0  0  0  0  0  0  0  0  0  0
    6.6850   -0.5544    1.3626 C   0  0  0  0  0  0  0  0  0  0  0  0
    6.6986   -1.2695    2.3456 O   0  0  0  0  0  0  0  0  0  0  0  0
    7.7360   -0.0490    0.6471 N   0  0  0  0  0  0  0  0  0  0  0  0
    9.1197   -0.2742    0.9842 C   0  0  0  0  0  0  0  0  0  0  0  0
    7.3180    0.7666   -0.3659 C   0  0  0  0  0  0  0  0  0  0  0  0
    7.9749    1.4105   -1.1608 O   0  0  0  0  0  0  0  0  0  0  0  0
   -3.2888   -0.0112    1.0283 C   0  0  0  0  0  0  0  0  0  0  0  0
   -4.6616   -0.2227    0.9237 C   0  0  0  0  0  0  0  0  0  0  0  0
   -5.4092   -0.1110    2.0671 O   0  0  0  0  0  0  0  0  0  0  0  0
   -5.7691   -1.4037    2.5589 C   0  0  0  0  0  0  0  0  0  0  0  0
   -5.2542   -0.4480   -0.3259 C   0  0  0  0  0  0  0  0  0  0  0  0
   -6.6109   -0.6549   -0.3983 O   0  0  0  0  0  0  0  0  0  0  0  0
   -7.2764    0.5763   -0.6774 C   0  0  0  0  0  0  0  0  0  0  0  0
   -5.0319   -1.1431   -4.6624 H   0  0  0  0  0  0  0  0  0  0  0  0
   -3.8415    0.0276   -4.0791 H   0  0  0  0  0  0  0  0  0  0  0  0
   -3.6390   -1.7382   -3.7510 H   0  0  0  0  0  0  0  0  0  0  0  0
   -2.4398   -0.3611   -2.2480 H   0  0  0  0  0  0  0  0  0  0  0  0
   -0.9335   -0.8314    1.7713 H   0  0  0  0  0  0  0  0  0  0  0  0
    1.2261    0.6339   -0.3501 H   0  0  0  0  0  0  0  0  0  0  0  0
    2.8383    1.6387   -1.4789 H   0  0  0  0  0  0  0  0  0  0  0  0
    5.2436    2.0027   -1.9690 H   0  0  0  0  0  0  0  0  0  0  0  0
    3.9132   -0.9286    1.8691 H   0  0  0  0  0  0  0  0  0  0  0  0
    9.4194    0.4781    1.7199 H   0  0  0  0  0  0  0  0  0  0  0  0
    9.2428   -1.2681    1.4227 H   0  0  0  0  0  0  0  0  0  0  0  0
    9.7474   -0.1731    0.0949 H   0  0  0  0  0  0  0  0  0  0  0  0
   -2.8681    0.2263    2.0012 H   0  0  0  0  0  0  0  0  0  0  0  0
   -6.4234   -1.2590    3.4241 H   0  0  0  0  0  0  0  0  0  0  0  0
   -6.3152   -1.9958    1.8179 H   0  0  0  0  0  0  0  0  0  0  0  0
   -4.8773   -1.9447    2.8957 H   0  0  0  0  0  0  0  0  0  0  0  0
   -7.1029    1.3099    0.1172 H   0  0  0  0  0  0  0  0  0  0  0  0
   -6.9715    0.9870   -1.6461 H   0  0  0  0  0  0  0  0  0  0  0  0
   -8.3504    0.3732   -0.7205 H   0  0  0  0  0  0  0  0  0  0  0  0
  1  2  1  0
  2  3  1  0
  3  4  2  0
  4  5  1  0
  5  6  1  0
  6  7  2  0
  6  8  1  0
  8  9  1  0
  9 10  2  0
  9 11  1  0
 11 12  1  0
 12 13  2  0
 13 14  1  0
 14 15  2  0
 15 16  1  0
 16 17  2  0
 16 18  1  0
 18 19  2  0
 18 20  1  0
 20 21  1  0
 20 22  1  0
 22 23  2  0
  5 24  2  0
 24 25  1  0
 25 26  1  0
 26 27  1  0
 25 28  2  0
 28 29  1  0
 29 30  1  0
 28  3  1  0
 17 12  1  0
 22 15  1  0
  1 31  1  0
  1 32  1  0
  1 33  1  0
  4 34  1  0
  8 35  1  0
 11 36  1  0
 13 37  1  0
 14 38  1  0
 17 39  1  0
 21 40  1  0
 21 41  1  0
 21 42  1  0
 24 43  1  0
 27 44  1  0
 27 45  1  0
 27 46  1  0
 30 47  1  0
 30 48  1  0
 30 49  1  0
M  END
$$$$
