
     RDKit          3D

 40 42  0  0  0  0  0  0  0  0999 V2000
    0.5283   -4.1536    0.3802 C   0  0  0  0  0  0  0  0  0  0  0  0
   -0.0374   -2.8465    0.2763 O   0  0  0  0  0  0  0  0  0  0  0  0
    0.8790   -1.8380    0.2585 C   0  0  0  0  0  0  0  0  0  0  0  0
    2.0933   -2.0157    0.3258 O   0  0  0  0  0  0  0  0  0  0  0  0
    0.2814   -0.5036    0.1331 C   0  0  0  0  0  0  0  0  0  0  0  0
    1.0715    0.6364    0.0042 C   0  0  0  0  0  0  0  0  0  0  0  0
    2.4604    0.6635    0.0038 N   0  0  0  0  0  0  0  0  0  0  0  0
    3.2999    1.7630   -0.1064 C   0  0  0  0  0  0  0  0  0  0  0  0
    2.9273    2.9263   -0.2191 O   0  0  0  0  0  0  0  0  0  0  0  0
    4.7178    1.4120   -0.0717 C   0  0  0  0  0  0  0  0  0  0  0  0
    5.4091    0.2136    0.0326 C   0  0  0  0  0  0  0  0  0  0  0  0
    6.7915    0.5272    0.0099 C   0  0  0  0  0  0  0  0  0  0  0  0
    6.8700    1.8924   -0.1066 C   0  0  0  0  0  0  0  0  0  0  0  0
    5.6295    2.4353   -0.1566 O   0  0  0  0  0  0  0  0  0  0  0  0
    0.1550    2.0513   -0.1751 S   0  0  0  0  0  0  0  0  0  0  0  0
   -1.3110    1.2055   -0.0796 C   0  0  0  0  0  0  0  0  0  0  0  0
   -1.1232   -0.1498    0.1188 C   0  0  0  0  0  0  0  0  0  0  0  0
   -2.3150   -1.0519    0.2513 C   0  0  0  0  0  0  0  0  0  0  0  0
   -3.5815   -0.2545    0.6053 C   0  0  0  0  0  0  0  0  0  0  0  0
   -3.7318    0.9544   -0.2186 N   0  0  0  0  0  0  0  0  0  0  0  0
   -4.9583    1.4453   -0.6482 C   0  0  0  0  0  0  0  0  0  0  0  0
   -6.1355    0.5052   -0.6041 C   0  0  0  0  0  0  0  0  0  0  0  0
   -5.1029    2.5951   -1.0637 O   0  0  0  0  0  0  0  0  0  0  0  0
   -2.6247    1.9205   -0.1850 C   0  0  0  0  0  0  0  0  0  0  0  0
    1.1679   -4.3642   -0.4827 H   0  0  0  0  0  0  0  0  0  0  0  0
   -0.2914   -4.8773    0.3880 H   0  0  0  0  0  0  0  0  0  0  0  0
    1.0891   -4.2557    1.3145 H   0  0  0  0  0  0  0  0  0  0  0  0
    2.8927   -0.2492    0.1120 H   0  0  0  0  0  0  0  0  0  0  0  0
    4.9833   -0.7767    0.1150 H   0  0  0  0  0  0  0  0  0  0  0  0
    7.6263   -0.1570    0.0703 H   0  0  0  0  0  0  0  0  0  0  0  0
    7.6891    2.5960   -0.1647 H   0  0  0  0  0  0  0  0  0  0  0  0
   -2.1548   -1.8050    1.0294 H   0  0  0  0  0  0  0  0  0  0  0  0
   -2.4655   -1.5711   -0.7031 H   0  0  0  0  0  0  0  0  0  0  0  0
   -3.5416    0.0811    1.6497 H   0  0  0  0  0  0  0  0  0  0  0  0
   -4.4485   -0.9133    0.5178 H   0  0  0  0  0  0  0  0  0  0  0  0
   -6.9905    0.9737   -1.1015 H   0  0  0  0  0  0  0  0  0  0  0  0
   -5.9040   -0.4206   -1.1373 H   0  0  0  0  0  0  0  0  0  0  0  0
   -6.4126    0.2978    0.4326 H   0  0  0  0  0  0  0  0  0  0  0  0
   -2.6549    2.5414   -1.0878 H   0  0  0  0  0  0  0  0  0  0  0  0
   -2.7774    2.5667    0.6877 H   0  0  0  0  0  0  0  0  0  0  0  0
  1  2  1  0
  2  3  1  0
  3  4  2  0
  3  5  1  0
  5  6  2  0
  6  7  1  0
  7  8  1  0
  8  9  2  0
  8 10  1  0
 10 11  2  0
 11 12  1  0
 12 13  2  0
 13 14  1  0
  6 15  1  0
 15 16  1  0
 16 17  2  0
 17 18  1  0
 18 19  1  0
 19 20  1  0
 20 21  1  0
 21 22  1  0
 21 23  2  0
 20 24  1  0
 17  5  1  0
 14 10  1  0
 24 16  1  0
  1 25  1  0
  1 26  1  0
  1 27  1  0
  7 28  1  0
 11 29  1  0
 12 30  1  0
 13 31  1  0
 18 32  1  0
 18 33  1  0
 19 34  1  0
 19 35  1  0
 22 36  1  0
 22 37  1  0
 22 38  1  0
 24 39  1  0
 24 40  1  0
M  END
$$$$
