
     RDKit          3D

 49 51  0  0  0  0  0  0  0  0999 V2000
   -6.3610   -1.2612    0.1393 C   0  0  0  0  0  0  0  0  0  0  0  0
   -5.1735   -0.3672   -0.0626 C   0  0  0  0  0  0  0  0  0  0  0  0
   -5.3404    0.9262   -0.5676 C   0  0  0  0  0  0  0  0  0  0  0  0
   -4.2330    1.7517   -0.7918 C   0  0  0  0  0  0  0  0  0  0  0  0
   -4.4215    3.1546   -1.2905 C   0  0  0  0  0  0  0  0  0  0  0  0
   -2.9465    1.2763   -0.4929 C   0  0  0  0  0  0  0  0  0  0  0  0
   -2.7575   -0.0184   -0.0074 C   0  0  0  0  0  0  0  0  0  0  0  0
   -1.4973   -0.5707    0.3020 N   0  0  0  0  0  0  0  0  0  0  0  0
   -0.2452    0.0050    0.1121 C   0  0  0  0  0  0  0  0  0  0  0  0
   -0.0260    1.1048   -0.3924 O   0  0  0  0  0  0  0  0  0  0  0  0
    0.9127   -0.9064    0.6086 C   0  0  0  0  0  0  0  0  0  0  0  0
    2.1822   -0.2502    0.5750 O   0  0  0  0  0  0  0  0  0  0  0  0
    2.3659    0.6465    1.5723 C   0  0  0  0  0  0  0  0  0  0  0  0
    1.6016    0.8396    2.5050 O   0  0  0  0  0  0  0  0  0  0  0  0
    3.6550    1.3690    1.3993 C   0  0  0  0  0  0  0  0  0  0  0  0
    4.5413    1.0858    0.3504 C   0  0  0  0  0  0  0  0  0  0  0  0
    5.7414    1.7923    0.2388 C   0  0  0  0  0  0  0  0  0  0  0  0
    6.0530    2.7777    1.1691 C   0  0  0  0  0  0  0  0  0  0  0  0
    7.2341    3.4409    1.0182 O   0  0  0  0  0  0  0  0  0  0  0  0
    5.1848    3.0729    2.2152 C   0  0  0  0  0  0  0  0  0  0  0  0
    3.9845    2.3662    2.3299 C   0  0  0  0  0  0  0  0  0  0  0  0
    1.0425   -2.1565   -0.2486 C   0  0  0  0  0  0  0  0  0  0  0  0
    1.0301   -3.4281    0.3460 C   0  0  0  0  0  0  0  0  0  0  0  0
    1.1448   -4.5773   -0.4382 C   0  0  0  0  0  0  0  0  0  0  0  0
    1.2792   -4.4695   -1.8211 C   0  0  0  0  0  0  0  0  0  0  0  0
    1.3069   -3.2129   -2.4223 C   0  0  0  0  0  0  0  0  0  0  0  0
    1.1938   -2.0620   -1.6417 C   0  0  0  0  0  0  0  0  0  0  0  0
   -3.8781   -0.8344    0.2004 C   0  0  0  0  0  0  0  0  0  0  0  0
   -6.1810   -1.9731    0.9517 H   0  0  0  0  0  0  0  0  0  0  0  0
   -7.2470   -0.6777    0.4107 H   0  0  0  0  0  0  0  0  0  0  0  0
   -6.5708   -1.8179   -0.7791 H   0  0  0  0  0  0  0  0  0  0  0  0
   -6.3403    1.2961   -0.7869 H   0  0  0  0  0  0  0  0  0  0  0  0
   -5.2921    3.2194   -1.9516 H   0  0  0  0  0  0  0  0  0  0  0  0
   -3.5516    3.4859   -1.8675 H   0  0  0  0  0  0  0  0  0  0  0  0
   -4.5660    3.8353   -0.4458 H   0  0  0  0  0  0  0  0  0  0  0  0
   -2.1051    1.9446   -0.6487 H   0  0  0  0  0  0  0  0  0  0  0  0
   -1.5091   -1.5215    0.6503 H   0  0  0  0  0  0  0  0  0  0  0  0
    0.6783   -1.2105    1.6384 H   0  0  0  0  0  0  0  0  0  0  0  0
    4.3125    0.3210   -0.3875 H   0  0  0  0  0  0  0  0  0  0  0  0
    6.4297    1.5756   -0.5738 H   0  0  0  0  0  0  0  0  0  0  0  0
    7.3073    4.1110    1.7176 H   0  0  0  0  0  0  0  0  0  0  0  0
    5.4197    3.8417    2.9447 H   0  0  0  0  0  0  0  0  0  0  0  0
    3.3033    2.5981    3.1469 H   0  0  0  0  0  0  0  0  0  0  0  0
    0.9395   -3.5360    1.4250 H   0  0  0  0  0  0  0  0  0  0  0  0
    1.1356   -5.5587    0.0296 H   0  0  0  0  0  0  0  0  0  0  0  0
    1.3709   -5.3649   -2.4307 H   0  0  0  0  0  0  0  0  0  0  0  0
    1.4202   -3.1276   -3.5003 H   0  0  0  0  0  0  0  0  0  0  0  0
    1.2257   -1.0872   -2.1275 H   0  0  0  0  0  0  0  0  0  0  0  0
   -3.7536   -1.8482    0.5734 H   0  0  0  0  0  0  0  0  0  0  0  0
  1  2  1  0
  2  3  2  0
  3  4  1  0
  4  5  1  0
  4  6  2  0
  6  7  1  0
  7  8  1  0
  8  9  1  0
  9 10  2  0
  9 11  1  0
 11 12  1  0
 12 13  1  0
 13 14  2  0
 13 15  1  0
 15 16  2  0
 16 17  1  0
 17 18  2  0
 18 19  1  0
 18 20  1  0
 20 21  2  0
 11 22  1  0
 22 23  2  0
 23 24  1  0
 24 25  2  0
 25 26  1  0
 26 27  2  0
  7 28  2  0
 28  2  1  0
 21 15  1  0
 27 22  1  0
  1 29  1  0
  1 30  1  0
  1 31  1  0
  3 32  1  0
  5 33  1  0
  5 34  1  0
  5 35  1  0
  6 36  1  0
  8 37  1  0
 11 38  1  0
 16 39  1  0
 17 40  1  0
 19 41  1  0
 20 42  1  0
 21 43  1  0
 23 44  1  0
 24 45  1  0
 25 46  1  0
 26 47  1  0
 27 48  1  0
 28 49  1  0
M  END
$$$$
