
     RDKit          3D

 48 50  0  0  0  0  0  0  0  0999 V2000
    3.4251   -2.7022    0.0246 O   0  0  0  0  0  0  0  0  0  0  0  0
    3.0010   -1.6110   -0.3429 C   0  0  0  0  0  0  0  0  0  0  0  0
    1.6351   -1.4870   -1.0359 C   0  0  0  0  0  0  0  0  0  0  0  0
    0.9840   -0.1836   -0.7366 N   0  0  0  0  0  0  0  0  0  0  0  0
    0.5514   -0.1347    0.6893 C   0  0  0  0  0  0  0  0  0  0  0  0
   -0.6473    0.7962    0.9349 C   0  0  0  0  0  0  0  0  0  0  0  0
   -1.8253    0.3772    0.1742 N   0  0  0  0  0  0  0  0  0  0  0  0
   -2.9980    1.0830    0.3933 C   0  0  0  0  0  0  0  0  0  0  0  0
   -3.0226    2.0976    1.0892 O   0  0  0  0  0  0  0  0  0  0  0  0
   -4.1362    0.5965   -0.2378 N   0  0  0  0  0  0  0  0  0  0  0  0
   -4.5197   -0.8038   -0.0253 C   0  0  0  0  0  0  0  0  0  0  0  0
   -5.6121   -1.2295   -1.0092 C   0  0  0  0  0  0  0  0  0  0  0  0
   -6.7489   -0.3568   -0.9300 O   0  0  0  0  0  0  0  0  0  0  0  0
   -6.3671    0.9971   -1.2209 C   0  0  0  0  0  0  0  0  0  0  0  0
   -5.2947    1.4925   -0.2480 C   0  0  0  0  0  0  0  0  0  0  0  0
   -1.5419   -0.3218   -1.0855 C   0  0  0  0  0  0  0  0  0  0  0  0
   -0.1586    0.0579   -1.6511 C   0  0  0  0  0  0  0  0  0  0  0  0
    3.6563   -0.3948   -0.2635 N   0  0  0  0  0  0  0  0  0  0  0  0
    4.9283   -0.1197    0.2634 C   0  0  0  0  0  0  0  0  0  0  0  0
    5.3335    1.2212    0.2882 C   0  0  0  0  0  0  0  0  0  0  0  0
    6.5859    1.5787    0.7964 C   0  0  0  0  0  0  0  0  0  0  0  0
    7.4396    0.5921    1.2812 C   0  0  0  0  0  0  0  0  0  0  0  0
    9.1337    1.0692    1.9689 Br  0  0  0  0  0  0  0  0  0  0  0  0
    7.0507   -0.7445    1.2607 C   0  0  0  0  0  0  0  0  0  0  0  0
    5.7961   -1.0988    0.7515 C   0  0  0  0  0  0  0  0  0  0  0  0
    1.8430   -1.5686   -2.1100 H   0  0  0  0  0  0  0  0  0  0  0  0
    0.9991   -2.3308   -0.7443 H   0  0  0  0  0  0  0  0  0  0  0  0
    0.2693   -1.1368    1.0398 H   0  0  0  0  0  0  0  0  0  0  0  0
    1.3920    0.2007    1.3065 H   0  0  0  0  0  0  0  0  0  0  0  0
   -0.3968    1.8243    0.6436 H   0  0  0  0  0  0  0  0  0  0  0  0
   -0.9081    0.8100    1.9995 H   0  0  0  0  0  0  0  0  0  0  0  0
   -3.6613   -1.4735   -0.0957 H   0  0  0  0  0  0  0  0  0  0  0  0
   -4.8956   -0.8736    1.0037 H   0  0  0  0  0  0  0  0  0  0  0  0
   -5.9531   -2.2427   -0.7748 H   0  0  0  0  0  0  0  0  0  0  0  0
   -5.2358   -1.2306   -2.0390 H   0  0  0  0  0  0  0  0  0  0  0  0
   -6.0118    1.0484   -2.2570 H   0  0  0  0  0  0  0  0  0  0  0  0
   -7.2625    1.6213   -1.1421 H   0  0  0  0  0  0  0  0  0  0  0  0
   -4.9734    2.5039   -0.5209 H   0  0  0  0  0  0  0  0  0  0  0  0
   -5.6954    1.5248    0.7730 H   0  0  0  0  0  0  0  0  0  0  0  0
   -1.5649   -1.3972   -0.8767 H   0  0  0  0  0  0  0  0  0  0  0  0
   -2.3112   -0.0980   -1.8313 H   0  0  0  0  0  0  0  0  0  0  0  0
   -0.0072   -0.4354   -2.6188 H   0  0  0  0  0  0  0  0  0  0  0  0
   -0.1654    1.1340   -1.8700 H   0  0  0  0  0  0  0  0  0  0  0  0
    3.0896    0.3919   -0.5725 H   0  0  0  0  0  0  0  0  0  0  0  0
    4.6805    2.0056   -0.0864 H   0  0  0  0  0  0  0  0  0  0  0  0
    6.8823    2.6241    0.8083 H   0  0  0  0  0  0  0  0  0  0  0  0
    7.7110   -1.5220    1.6360 H   0  0  0  0  0  0  0  0  0  0  0  0
    5.5275   -2.1508    0.7488 H   0  0  0  0  0  0  0  0  0  0  0  0
  1  2  2  0
  2  3  1  0
  3  4  1  0
  4  5  1  0
  5  6  1  0
  6  7  1  0
  7  8  1  0
  8  9  2  0
  8 10  1  0
 10 11  1  0
 11 12  1  0
 12 13  1  0
 13 14  1  0
 14 15  1  0
  7 16  1  0
 16 17  1  0
  2 18  1  0
 18 19  1  0
 19 20  2  0
 20 21  1  0
 21 22  2  0
 22 23  1  0
 22 24  1  0
 24 25  2  0
 17  4  1  0
 25 19  1  0
 15 10  1  0
  3 26  1  0
  3 27  1  0
  5 28  1  0
  5 29  1  0
  6 30  1  0
  6 31  1  0
 11 32  1  0
 11 33  1  0
 12 34  1  0
 12 35  1  0
 14 36  1  0
 14 37  1  0
 15 38  1  0
 15 39  1  0
 16 40  1  0
 16 41  1  0
 17 42  1  0
 17 43  1  0
 18 44  1  0
 20 45  1  0
 21 46  1  0
 24 47  1  0
 25 48  1  0
M  END
$$$$
