
     RDKit          3D

 42 43  0  0  0  0  0  0  0  0999 V2000
    5.8293    2.1104   -2.6765 C   0  0  0  0  0  0  0  0  0  0  0  0
    4.8221    2.2734   -1.5827 C   0  0  0  0  0  0  0  0  0  0  0  0
    5.0444    3.5067   -0.4260 S   0  0  0  0  0  0  0  0  0  0  0  0
    3.6270    3.0826    0.4035 C   0  0  0  0  0  0  0  0  0  0  0  0
    3.2692    3.7755    1.4976 N   0  0  0  0  0  0  0  0  0  0  0  0
    2.1368    3.3361    2.0396 C   0  0  0  0  0  0  0  0  0  0  0  0
    1.3754    2.3237    1.6114 N   0  0  0  0  0  0  0  0  0  0  0  0
    1.7725    1.6482    0.5109 C   0  0  0  0  0  0  0  0  0  0  0  0
    0.7368    0.3316   -0.0590 S   0  0  0  0  0  0  0  0  0  0  0  0
    0.0689   -0.2423    1.5362 C   0  0  0  0  0  0  0  0  0  0  0  0
   -0.8026   -1.4677    1.3275 C   0  0  0  0  0  0  0  0  0  0  0  0
   -0.5620   -2.5405    1.8748 O   0  0  0  0  0  0  0  0  0  0  0  0
   -1.9048   -1.2539    0.5241 N   0  0  0  0  0  0  0  0  0  0  0  0
   -2.8958   -2.2830    0.2374 C   0  0  0  0  0  0  0  0  0  0  0  0
   -3.1418   -2.3423   -1.2707 C   0  0  0  0  0  0  0  0  0  0  0  0
   -4.2043   -2.0721    1.0418 C   0  0  0  0  0  0  0  0  0  0  0  0
   -4.8926   -0.7333    0.7569 C   0  0  0  0  0  0  0  0  0  0  0  0
   -3.9676   -2.2193    2.5489 C   0  0  0  0  0  0  0  0  0  0  0  0
    2.9528    2.0111   -0.1681 C   0  0  0  0  0  0  0  0  0  0  0  0
    3.6687    1.5326   -1.3494 C   0  0  0  0  0  0  0  0  0  0  0  0
    3.2361    0.3867   -2.2138 C   0  0  0  0  0  0  0  0  0  0  0  0
    6.2765    1.1119   -2.6319 H   0  0  0  0  0  0  0  0  0  0  0  0
    6.6416    2.8420   -2.6122 H   0  0  0  0  0  0  0  0  0  0  0  0
    5.3492    2.2316   -3.6531 H   0  0  0  0  0  0  0  0  0  0  0  0
    1.7922    3.8577    2.9271 H   0  0  0  0  0  0  0  0  0  0  0  0
    0.8914   -0.5090    2.2077 H   0  0  0  0  0  0  0  0  0  0  0  0
   -0.5398    0.5353    2.0092 H   0  0  0  0  0  0  0  0  0  0  0  0
   -2.0148   -0.3404    0.0993 H   0  0  0  0  0  0  0  0  0  0  0  0
   -2.4773   -3.2542    0.5307 H   0  0  0  0  0  0  0  0  0  0  0  0
   -3.4702   -1.3773   -1.6702 H   0  0  0  0  0  0  0  0  0  0  0  0
   -2.2182   -2.6083   -1.7968 H   0  0  0  0  0  0  0  0  0  0  0  0
   -3.8975   -3.0952   -1.5162 H   0  0  0  0  0  0  0  0  0  0  0  0
   -4.9028   -2.8680    0.7498 H   0  0  0  0  0  0  0  0  0  0  0  0
   -5.8172   -0.6465    1.3385 H   0  0  0  0  0  0  0  0  0  0  0  0
   -4.2539    0.1152    1.0226 H   0  0  0  0  0  0  0  0  0  0  0  0
   -5.1652   -0.6403   -0.2987 H   0  0  0  0  0  0  0  0  0  0  0  0
   -3.4857   -3.1757    2.7765 H   0  0  0  0  0  0  0  0  0  0  0  0
   -3.3369   -1.4149    2.9412 H   0  0  0  0  0  0  0  0  0  0  0  0
   -4.9183   -2.1902    3.0921 H   0  0  0  0  0  0  0  0  0  0  0  0
    3.9306    0.2113   -3.0410 H   0  0  0  0  0  0  0  0  0  0  0  0
    3.1918   -0.5380   -1.6308 H   0  0  0  0  0  0  0  0  0  0  0  0
    2.2560    0.5884   -2.6564 H   0  0  0  0  0  0  0  0  0  0  0  0
  1  2  1  0
  2  3  1  0
  3  4  1  0
  4  5  2  0
  5  6  1  0
  6  7  2  0
  7  8  1  0
  8  9  1  0
  9 10  1  0
 10 11  1  0
 11 12  2  0
 11 13  1  0
 13 14  1  0
 14 15  1  0
 14 16  1  0
 16 17  1  0
 16 18  1  0
  8 19  2  0
 19 20  1  0
 20 21  1  0
 20  2  2  0
 19  4  1  0
  1 22  1  0
  1 23  1  0
  1 24  1  0
  6 25  1  0
 10 26  1  0
 10 27  1  0
 13 28  1  0
 14 29  1  0
 15 30  1  0
 15 31  1  0
 15 32  1  0
 16 33  1  0
 17 34  1  0
 17 35  1  0
 17 36  1  0
 18 37  1  0
 18 38  1  0
 18 39  1  0
 21 40  1  0
 21 41  1  0
 21 42  1  0
M  END
$$$$
