
     RDKit          3D

 41 44  0  0  0  0  0  0  0  0999 V2000
    4.8072    0.2268   -3.0656 C   0  0  0  0  0  0  0  0  0  0  0  0
    5.0686    0.2711   -1.5679 C   0  0  0  0  0  0  0  0  0  0  0  0
    3.7913    0.1686   -0.7733 C   0  0  0  0  0  0  0  0  0  0  0  0
    3.2895   -1.0820   -0.3914 C   0  0  0  0  0  0  0  0  0  0  0  0
    2.0974   -1.1804    0.3332 C   0  0  0  0  0  0  0  0  0  0  0  0
    1.3869   -0.0254    0.6754 C   0  0  0  0  0  0  0  0  0  0  0  0
    0.1056   -0.0889    1.4418 C   0  0  0  0  0  0  0  0  0  0  0  0
   -0.2591    0.9449    2.1456 N   0  0  0  0  0  0  0  0  0  0  0  0
   -1.4306    0.8729    2.8243 C   0  0  0  0  0  0  0  0  0  0  0  0
   -1.9001    1.6278    3.7937 N   0  0  0  0  0  0  0  0  0  0  0  0
   -3.1336    1.0966    4.0549 C   0  0  0  0  0  0  0  0  0  0  0  0
   -3.4794    0.0469    3.3036 N   0  0  0  0  0  0  0  0  0  0  0  0
   -2.3932   -0.0546    2.5204 N   0  0  0  0  0  0  0  0  0  0  0  0
   -2.2048   -1.0909    1.5221 C   0  0  0  0  0  0  0  0  0  0  0  0
   -2.8397   -0.7422    0.1861 C   0  0  0  0  0  0  0  0  0  0  0  0
   -2.8426    0.5524   -0.3628 C   0  0  0  0  0  0  0  0  0  0  0  0
   -3.4226    0.7878   -1.6135 C   0  0  0  0  0  0  0  0  0  0  0  0
   -3.4168    2.5369   -2.3317 Br  0  0  0  0  0  0  0  0  0  0  0  0
   -3.9994   -0.2523   -2.3400 C   0  0  0  0  0  0  0  0  0  0  0  0
   -3.9912   -1.5419   -1.8138 C   0  0  0  0  0  0  0  0  0  0  0  0
   -3.4125   -1.7747   -0.5688 C   0  0  0  0  0  0  0  0  0  0  0  0
   -3.3900   -3.0298   -0.0980 F   0  0  0  0  0  0  0  0  0  0  0  0
   -0.7075   -1.3810    1.3922 C   0  0  0  0  0  0  0  0  0  0  0  0
    1.8887    1.2266    0.3007 C   0  0  0  0  0  0  0  0  0  0  0  0
    3.0794    1.3220   -0.4236 C   0  0  0  0  0  0  0  0  0  0  0  0
    4.3189   -0.7096   -3.3561 H   0  0  0  0  0  0  0  0  0  0  0  0
    5.7499    0.3029   -3.6167 H   0  0  0  0  0  0  0  0  0  0  0  0
    4.1620    1.0538   -3.3809 H   0  0  0  0  0  0  0  0  0  0  0  0
    5.5903    1.2008   -1.3099 H   0  0  0  0  0  0  0  0  0  0  0  0
    5.7454   -0.5445   -1.2852 H   0  0  0  0  0  0  0  0  0  0  0  0
    3.8305   -1.9898   -0.6521 H   0  0  0  0  0  0  0  0  0  0  0  0
    1.7587   -2.1678    0.6319 H   0  0  0  0  0  0  0  0  0  0  0  0
   -3.7957    1.4875    4.8170 H   0  0  0  0  0  0  0  0  0  0  0  0
   -2.6992   -1.9826    1.9300 H   0  0  0  0  0  0  0  0  0  0  0  0
   -2.3999    1.3895    0.1739 H   0  0  0  0  0  0  0  0  0  0  0  0
   -4.4510   -0.0690   -3.3116 H   0  0  0  0  0  0  0  0  0  0  0  0
   -4.4285   -2.3681   -2.3663 H   0  0  0  0  0  0  0  0  0  0  0  0
   -0.3755   -1.9862    2.2463 H   0  0  0  0  0  0  0  0  0  0  0  0
   -0.5030   -1.9488    0.4790 H   0  0  0  0  0  0  0  0  0  0  0  0
    1.3571    2.1383    0.5669 H   0  0  0  0  0  0  0  0  0  0  0  0
    3.4482    2.3050   -0.7097 H   0  0  0  0  0  0  0  0  0  0  0  0
  1  2  1  0
  2  3  1  0
  3  4  2  0
  4  5  1  0
  5  6  2  0
  6  7  1  0
  7  8  2  0
  8  9  1  0
  9 10  2  0
 10 11  1  0
 11 12  2  0
 12 13  1  0
 13 14  1  0
 14 15  1  0
 15 16  2  0
 16 17  1  0
 17 18  1  0
 17 19  2  0
 19 20  1  0
 20 21  2  0
 21 22  1  0
 14 23  1  0
  6 24  1  0
 24 25  2  0
 25  3  1  0
 23  7  1  0
 13  9  1  0
 21 15  1  0
  1 26  1  0
  1 27  1  0
  1 28  1  0
  2 29  1  0
  2 30  1  0
  4 31  1  0
  5 32  1  0
 11 33  1  0
 14 34  1  0
 16 35  1  0
 19 36  1  0
 20 37  1  0
 23 38  1  0
 23 39  1  0
 24 40  1  0
 25 41  1  0
M  END
$$$$
