
     RDKit          3D

 35 36  0  0  0  0  0  0  0  0999 V2000
    5.2073   -1.8101   -1.8661 C   0  0  0  0  0  0  0  0  0  0  0  0
    3.9388   -1.1296   -1.4470 C   0  0  0  0  0  0  0  0  0  0  0  0
    3.9091    0.2526   -1.2394 C   0  0  0  0  0  0  0  0  0  0  0  0
    2.7355    0.8882   -0.8148 C   0  0  0  0  0  0  0  0  0  0  0  0
    1.5793    0.1507   -0.5666 C   0  0  0  0  0  0  0  0  0  0  0  0
    0.3453    0.7044   -0.1643 N   0  0  0  0  0  0  0  0  0  0  0  0
    0.0273    1.8941    0.4354 C   0  0  0  0  0  0  0  0  0  0  0  0
    1.0260    2.9822    1.2148 S   0  0  0  0  0  0  0  0  0  0  0  0
   -1.3076    2.2102    0.4264 N   0  0  0  0  0  0  0  0  0  0  0  0
   -2.3365    1.6994   -0.4602 C   0  0  0  0  0  0  0  0  0  0  0  0
   -2.8190    0.3634   -0.0033 C   0  0  0  0  0  0  0  0  0  0  0  0
   -2.8957   -0.8175   -0.7255 C   0  0  0  0  0  0  0  0  0  0  0  0
   -3.4087   -1.8200    0.1264 C   0  0  0  0  0  0  0  0  0  0  0  0
   -3.6485   -1.2315    1.3458 C   0  0  0  0  0  0  0  0  0  0  0  0
   -3.3047    0.0940    1.2591 N   0  0  0  0  0  0  0  0  0  0  0  0
   -3.4383    1.0341    2.3514 C   0  0  0  0  0  0  0  0  0  0  0  0
    1.6083   -1.2330   -0.7849 C   0  0  0  0  0  0  0  0  0  0  0  0
    2.7790   -1.8703   -1.2080 C   0  0  0  0  0  0  0  0  0  0  0  0
    5.8177   -1.1488   -2.4902 H   0  0  0  0  0  0  0  0  0  0  0  0
    4.9930   -2.7069   -2.4570 H   0  0  0  0  0  0  0  0  0  0  0  0
    5.7866   -2.0982   -0.9835 H   0  0  0  0  0  0  0  0  0  0  0  0
    4.7990    0.8536   -1.4145 H   0  0  0  0  0  0  0  0  0  0  0  0
    2.7571    1.9673   -0.7183 H   0  0  0  0  0  0  0  0  0  0  0  0
   -0.4191    0.0410   -0.1485 H   0  0  0  0  0  0  0  0  0  0  0  0
   -1.4856    3.1238    0.8257 H   0  0  0  0  0  0  0  0  0  0  0  0
   -3.1626    2.4180   -0.4635 H   0  0  0  0  0  0  0  0  0  0  0  0
   -1.9257    1.6440   -1.4742 H   0  0  0  0  0  0  0  0  0  0  0  0
   -2.6052   -0.9418   -1.7617 H   0  0  0  0  0  0  0  0  0  0  0  0
   -3.5888   -2.8582   -0.1212 H   0  0  0  0  0  0  0  0  0  0  0  0
   -4.0405   -1.6498    2.2641 H   0  0  0  0  0  0  0  0  0  0  0  0
   -4.1417    0.6346    3.0870 H   0  0  0  0  0  0  0  0  0  0  0  0
   -3.8239    1.9802    1.9643 H   0  0  0  0  0  0  0  0  0  0  0  0
   -2.4560    1.1681    2.8104 H   0  0  0  0  0  0  0  0  0  0  0  0
    0.7225   -1.8395   -0.6112 H   0  0  0  0  0  0  0  0  0  0  0  0
    2.7760   -2.9486   -1.3487 H   0  0  0  0  0  0  0  0  0  0  0  0
  1  2  1  0
  2  3  2  0
  3  4  1  0
  4  5  2  0
  5  6  1  0
  6  7  1  0
  7  8  2  0
  7  9  1  0
  9 10  1  0
 10 11  1  0
 11 12  2  0
 12 13  1  0
 13 14  2  0
 14 15  1  0
 15 16  1  0
  5 17  1  0
 17 18  2  0
 18  2  1  0
 15 11  1  0
  1 19  1  0
  1 20  1  0
  1 21  1  0
  3 22  1  0
  4 23  1  0
  6 24  1  0
  9 25  1  0
 10 26  1  0
 10 27  1  0
 12 28  1  0
 13 29  1  0
 14 30  1  0
 16 31  1  0
 16 32  1  0
 16 33  1  0
 17 34  1  0
 18 35  1  0
M  END
$$$$
