
     RDKit          3D

 37 39  0  0  0  0  0  0  0  0999 V2000
    4.5935   -1.8618    1.9424 C   0  0  0  0  0  0  0  0  0  0  0  0
    3.3437   -1.2325    1.4059 C   0  0  0  0  0  0  0  0  0  0  0  0
    2.1275   -1.3921    2.0634 C   0  0  0  0  0  0  0  0  0  0  0  0
    0.9642   -0.7815    1.5747 C   0  0  0  0  0  0  0  0  0  0  0  0
    0.9754    0.0273    0.4284 C   0  0  0  0  0  0  0  0  0  0  0  0
    2.2171    0.1982   -0.2247 C   0  0  0  0  0  0  0  0  0  0  0  0
    3.3805   -0.4306    0.2655 C   0  0  0  0  0  0  0  0  0  0  0  0
    2.3548    1.0133   -1.4826 C   0  0  0  0  0  0  0  0  0  0  0  0
    1.2173    2.0006   -1.6153 C   0  0  0  0  0  0  0  0  0  0  0  0
   -0.0980    1.2671   -1.4316 C   0  0  0  0  0  0  0  0  0  0  0  0
   -0.2216    0.6461   -0.1049 N   0  0  0  0  0  0  0  0  0  0  0  0
   -1.4707    0.5925    0.5500 C   0  0  0  0  0  0  0  0  0  0  0  0
   -1.6173    0.3240    1.7460 O   0  0  0  0  0  0  0  0  0  0  0  0
   -2.7296    0.9526   -0.2953 C   0  0  0  0  0  0  0  0  0  0  0  0
   -4.0367    0.6152    0.4139 C   0  0  0  0  0  0  0  0  0  0  0  0
   -4.2728   -0.8091   -0.0219 C   0  0  0  0  0  0  0  0  0  0  0  0
   -3.7812   -0.7849   -1.4513 C   0  0  0  0  0  0  0  0  0  0  0  0
   -2.7800    0.2390   -1.5406 O   0  0  0  0  0  0  0  0  0  0  0  0
    5.0902   -1.1759    2.6355 H   0  0  0  0  0  0  0  0  0  0  0  0
    4.3669   -2.7945    2.4696 H   0  0  0  0  0  0  0  0  0  0  0  0
    5.2860   -2.1084    1.1307 H   0  0  0  0  0  0  0  0  0  0  0  0
    2.0620   -2.0014    2.9623 H   0  0  0  0  0  0  0  0  0  0  0  0
    0.0541   -0.9879    2.1266 H   0  0  0  0  0  0  0  0  0  0  0  0
    4.3260   -0.2882   -0.2556 H   0  0  0  0  0  0  0  0  0  0  0  0
    3.3032    1.5636   -1.4800 H   0  0  0  0  0  0  0  0  0  0  0  0
    2.3665    0.3311   -2.3417 H   0  0  0  0  0  0  0  0  0  0  0  0
    1.3112    2.7910   -0.8595 H   0  0  0  0  0  0  0  0  0  0  0  0
    1.2520    2.4822   -2.5986 H   0  0  0  0  0  0  0  0  0  0  0  0
   -0.2152    0.4762   -2.1826 H   0  0  0  0  0  0  0  0  0  0  0  0
   -0.8938    1.9981   -1.5901 H   0  0  0  0  0  0  0  0  0  0  0  0
   -2.6982    2.0301   -0.4908 H   0  0  0  0  0  0  0  0  0  0  0  0
   -4.8412    1.2488    0.0196 H   0  0  0  0  0  0  0  0  0  0  0  0
   -4.0194    0.7355    1.5001 H   0  0  0  0  0  0  0  0  0  0  0  0
   -5.3148   -1.1282    0.0641 H   0  0  0  0  0  0  0  0  0  0  0  0
   -3.6576   -1.4923    0.5753 H   0  0  0  0  0  0  0  0  0  0  0  0
   -4.5878   -0.5204   -2.1431 H   0  0  0  0  0  0  0  0  0  0  0  0
   -3.3561   -1.7428   -1.7641 H   0  0  0  0  0  0  0  0  0  0  0  0
  1  2  1  0
  2  3  2  0
  3  4  1  0
  4  5  2  0
  5  6  1  0
  6  7  2  0
  6  8  1  0
  8  9  1  0
  9 10  1  0
 10 11  1  0
 11 12  1  0
 12 13  2  0
 12 14  1  0
 14 15  1  0
 15 16  1  0
 16 17  1  0
 17 18  1  0
  7  2  1  0
 18 14  1  0
 11  5  1  0
  1 19  1  0
  1 20  1  0
  1 21  1  0
  3 22  1  0
  4 23  1  0
  7 24  1  0
  8 25  1  0
  8 26  1  0
  9 27  1  0
  9 28  1  0
 10 29  1  0
 10 30  1  0
 14 31  1  0
 15 32  1  0
 15 33  1  0
 16 34  1  0
 16 35  1  0
 17 36  1  0
 17 37  1  0
M  END
$$$$
