
     RDKit          3D

 42 44  0  0  0  0  0  0  0  0999 V2000
   -4.5166    1.2663   -2.6586 C   0  0  0  0  0  0  0  0  0  0  0  0
   -4.5296    0.4810   -1.3604 C   0  0  0  0  0  0  0  0  0  0  0  0
   -3.7338    1.1938   -0.4090 O   0  0  0  0  0  0  0  0  0  0  0  0
   -3.2958    0.4157    0.6369 C   0  0  0  0  0  0  0  0  0  0  0  0
   -4.1482   -0.4344    1.3461 C   0  0  0  0  0  0  0  0  0  0  0  0
   -3.6549   -1.1704    2.4225 C   0  0  0  0  0  0  0  0  0  0  0  0
   -2.3211   -1.0382    2.8036 C   0  0  0  0  0  0  0  0  0  0  0  0
   -1.4703   -0.1755    2.1055 C   0  0  0  0  0  0  0  0  0  0  0  0
   -1.9432    0.5436    1.0053 C   0  0  0  0  0  0  0  0  0  0  0  0
   -1.1556    1.4427    0.2525 N   0  0  0  0  0  0  0  0  0  0  0  0
    0.1918    1.6272    0.1444 C   0  0  0  0  0  0  0  0  0  0  0  0
    0.7229    3.0545   -0.5486 S   0  0  0  0  0  0  0  0  0  0  0  0
    0.9898    0.6034    0.5711 N   0  0  0  0  0  0  0  0  0  0  0  0
    2.4443    0.5225    0.4452 C   0  0  0  0  0  0  0  0  0  0  0  0
    3.0369   -0.5234    1.4135 C   0  0  0  0  0  0  0  0  0  0  0  0
    3.7699   -1.4951    0.4698 C   0  0  0  0  0  0  0  0  0  0  0  0
    5.0032   -0.7897   -0.1206 C   0  0  0  0  0  0  0  0  0  0  0  0
    4.3876    0.2158   -1.1052 C   0  0  0  0  0  0  0  0  0  0  0  0
    2.8760   -0.0209   -0.9394 C   0  0  0  0  0  0  0  0  0  0  0  0
    2.8283   -1.5363   -0.7308 C   0  0  0  0  0  0  0  0  0  0  0  0
   -5.1221    0.7661   -3.4221 H   0  0  0  0  0  0  0  0  0  0  0  0
   -3.4920    1.3717   -3.0322 H   0  0  0  0  0  0  0  0  0  0  0  0
   -4.9079    2.2773   -2.5010 H   0  0  0  0  0  0  0  0  0  0  0  0
   -5.5594    0.3985   -0.9982 H   0  0  0  0  0  0  0  0  0  0  0  0
   -4.1204   -0.5202   -1.5477 H   0  0  0  0  0  0  0  0  0  0  0  0
   -5.1994   -0.5182    1.0875 H   0  0  0  0  0  0  0  0  0  0  0  0
   -4.3166   -1.8294    2.9799 H   0  0  0  0  0  0  0  0  0  0  0  0
   -1.9446   -1.5889    3.6617 H   0  0  0  0  0  0  0  0  0  0  0  0
   -0.4596   -0.0440    2.4798 H   0  0  0  0  0  0  0  0  0  0  0  0
   -1.7061    2.0921   -0.3047 H   0  0  0  0  0  0  0  0  0  0  0  0
    0.5112   -0.2879    0.5747 H   0  0  0  0  0  0  0  0  0  0  0  0
    2.8706    1.5105    0.6437 H   0  0  0  0  0  0  0  0  0  0  0  0
    3.7204   -0.0606    2.1325 H   0  0  0  0  0  0  0  0  0  0  0  0
    2.2571   -1.0479    1.9778 H   0  0  0  0  0  0  0  0  0  0  0  0
    3.9957   -2.4615    0.9269 H   0  0  0  0  0  0  0  0  0  0  0  0
    5.6396   -1.5024   -0.6585 H   0  0  0  0  0  0  0  0  0  0  0  0
    5.6129   -0.2982    0.6448 H   0  0  0  0  0  0  0  0  0  0  0  0
    4.6818    1.2463   -0.8813 H   0  0  0  0  0  0  0  0  0  0  0  0
    4.7071   -0.0157   -2.1276 H   0  0  0  0  0  0  0  0  0  0  0  0
    2.2849    0.3456   -1.7814 H   0  0  0  0  0  0  0  0  0  0  0  0
    1.8313   -1.9144   -0.4843 H   0  0  0  0  0  0  0  0  0  0  0  0
    3.2339   -2.1013   -1.5765 H   0  0  0  0  0  0  0  0  0  0  0  0
  1  2  1  0
  2  3  1  0
  3  4  1  0
  4  5  2  0
  5  6  1  0
  6  7  2  0
  7  8  1  0
  8  9  2  0
  9 10  1  0
 10 11  1  0
 11 12  2  0
 11 13  1  0
 13 14  1  0
 14 15  1  0
 15 16  1  0
 16 17  1  0
 17 18  1  0
 18 19  1  0
 19 20  1  0
  9  4  1  0
 19 14  1  0
 20 16  1  0
  1 21  1  0
  1 22  1  0
  1 23  1  0
  2 24  1  0
  2 25  1  0
  5 26  1  0
  6 27  1  0
  7 28  1  0
  8 29  1  0
 10 30  1  0
 13 31  1  0
 14 32  1  0
 15 33  1  0
 15 34  1  0
 16 35  1  0
 17 36  1  0
 17 37  1  0
 18 38  1  0
 18 39  1  0
 19 40  1  0
 20 41  1  0
 20 42  1  0
M  END
$$$$
