
     RDKit          3D

 45 46  0  0  0  0  0  0  0  0999 V2000
   -5.4740   -3.1778    0.6900 C   0  0  0  0  0  0  0  0  0  0  0  0
   -6.3096   -1.9500    0.3723 C   0  0  0  0  0  0  0  0  0  0  0  0
   -5.8253   -0.8106    1.0815 O   0  0  0  0  0  0  0  0  0  0  0  0
   -4.8745   -0.0246    0.4942 C   0  0  0  0  0  0  0  0  0  0  0  0
   -4.5730    1.1429    1.2002 C   0  0  0  0  0  0  0  0  0  0  0  0
   -3.6146    2.0418    0.7248 C   0  0  0  0  0  0  0  0  0  0  0  0
   -2.9410    1.7845   -0.4742 C   0  0  0  0  0  0  0  0  0  0  0  0
   -1.8820    2.7264   -0.9848 C   0  0  0  0  0  0  0  0  0  0  0  0
   -0.5659    2.2457   -0.6322 N   0  0  0  0  0  0  0  0  0  0  0  0
    0.2043    1.5658   -1.5290 C   0  0  0  0  0  0  0  0  0  0  0  0
   -0.0807    1.4245   -2.7059 O   0  0  0  0  0  0  0  0  0  0  0  0
    1.3476    1.0448   -0.9456 N   0  0  0  0  0  0  0  0  0  0  0  0
    2.4569    0.1418   -1.8009 S   0  0  0  0  0  6  0  0  0  0  0  0
    3.1387    0.9993   -2.7448 O   0  0  0  0  0  0  0  0  0  0  0  0
    1.8579   -1.1181   -2.1803 O   0  0  0  0  0  0  0  0  0  0  0  0
    3.6241   -0.2193   -0.5004 C   0  0  0  0  0  0  0  0  0  0  0  0
    4.7483    0.5926   -0.3297 C   0  0  0  0  0  0  0  0  0  0  0  0
    5.6584    0.3082    0.6938 C   0  0  0  0  0  0  0  0  0  0  0  0
    5.4482   -0.7856    1.5373 C   0  0  0  0  0  0  0  0  0  0  0  0
    6.2553   -1.1679    2.5727 O   0  0  0  0  0  0  0  0  0  0  0  0
    7.4584   -0.4322    2.7584 C   0  0  0  0  0  0  0  0  0  0  0  0
    4.3227   -1.5956    1.3479 C   0  0  0  0  0  0  0  0  0  0  0  0
    3.4098   -1.3223    0.3280 C   0  0  0  0  0  0  0  0  0  0  0  0
   -3.2376    0.6073   -1.1747 C   0  0  0  0  0  0  0  0  0  0  0  0
   -4.1976   -0.2907   -0.6943 C   0  0  0  0  0  0  0  0  0  0  0  0
   -5.4454   -3.3520    1.7708 H   0  0  0  0  0  0  0  0  0  0  0  0
   -5.8891   -4.0644    0.2024 H   0  0  0  0  0  0  0  0  0  0  0  0
   -4.4377   -3.0533    0.3624 H   0  0  0  0  0  0  0  0  0  0  0  0
   -7.3304   -2.1257    0.7308 H   0  0  0  0  0  0  0  0  0  0  0  0
   -6.3981   -1.7704   -0.7049 H   0  0  0  0  0  0  0  0  0  0  0  0
   -5.0936    1.3542    2.1314 H   0  0  0  0  0  0  0  0  0  0  0  0
   -3.4048    2.9412    1.2986 H   0  0  0  0  0  0  0  0  0  0  0  0
   -1.9982    3.7155   -0.5281 H   0  0  0  0  0  0  0  0  0  0  0  0
   -1.9792    2.8562   -2.0685 H   0  0  0  0  0  0  0  0  0  0  0  0
   -0.3499    2.1713    0.3471 H   0  0  0  0  0  0  0  0  0  0  0  0
    1.5541    1.2074    0.0285 H   0  0  0  0  0  0  0  0  0  0  0  0
    4.9279    1.4407   -0.9879 H   0  0  0  0  0  0  0  0  0  0  0  0
    6.5225    0.9561    0.8024 H   0  0  0  0  0  0  0  0  0  0  0  0
    8.1005   -0.4936    1.8734 H   0  0  0  0  0  0  0  0  0  0  0  0
    8.0003   -0.8834    3.5951 H   0  0  0  0  0  0  0  0  0  0  0  0
    7.2459    0.6090    3.0220 H   0  0  0  0  0  0  0  0  0  0  0  0
    4.1642   -2.4543    1.9972 H   0  0  0  0  0  0  0  0  0  0  0  0
    2.5493   -1.9725    0.1846 H   0  0  0  0  0  0  0  0  0  0  0  0
   -2.7144    0.3774   -2.1029 H   0  0  0  0  0  0  0  0  0  0  0  0
   -4.3788   -1.1906   -1.2718 H   0  0  0  0  0  0  0  0  0  0  0  0
  1  2  1  0
  2  3  1  0
  3  4  1  0
  4  5  2  0
  5  6  1  0
  6  7  2  0
  7  8  1  0
  8  9  1  0
  9 10  1  0
 10 11  2  0
 10 12  1  0
 12 13  1  0
 13 14  2  0
 13 15  2  0
 13 16  1  0
 16 17  2  0
 17 18  1  0
 18 19  2  0
 19 20  1  0
 20 21  1  0
 19 22  1  0
 22 23  2  0
  7 24  1  0
 24 25  2  0
 25  4  1  0
 23 16  1  0
  1 26  1  0
  1 27  1  0
  1 28  1  0
  2 29  1  0
  2 30  1  0
  5 31  1  0
  6 32  1  0
  8 33  1  0
  8 34  1  0
  9 35  1  0
 12 36  1  0
 17 37  1  0
 18 38  1  0
 21 39  1  0
 21 40  1  0
 21 41  1  0
 22 42  1  0
 23 43  1  0
 24 44  1  0
 25 45  1  0
M  END
$$$$
