
     RDKit          3D

 34 36  0  0  0  0  0  0  0  0999 V2000
    3.0966    2.7445   -0.6121 S   0  0  0  0  0  0  0  0  0  0  0  0
    1.9911    1.5962   -0.0786 C   0  0  0  0  0  0  0  0  0  0  0  0
    0.7314    1.4559   -0.5883 N   0  0  0  0  0  0  0  0  0  0  0  0
    0.5166    0.5950   -1.5311 C   0  0  0  0  0  0  0  0  0  0  0  0
    1.7448   -0.5015   -2.2531 S   0  0  0  0  0  0  0  0  0  0  0  0
    0.5533   -1.2061   -3.3141 C   0  0  0  0  0  0  0  0  0  0  0  0
   -0.6491   -0.6518   -3.1213 C   0  0  0  0  0  0  0  0  0  0  0  0
   -0.7011    0.3404   -2.1537 N   0  0  0  0  0  0  0  0  0  0  0  0
   -1.9196    1.0268   -1.7513 C   0  0  0  0  0  0  0  0  0  0  0  0
   -2.5898    0.3191   -0.5941 C   0  0  0  0  0  0  0  0  0  0  0  0
   -3.4583   -0.7596   -0.8186 C   0  0  0  0  0  0  0  0  0  0  0  0
   -4.0613   -1.4190    0.2540 C   0  0  0  0  0  0  0  0  0  0  0  0
   -3.8004   -1.0110    1.5607 C   0  0  0  0  0  0  0  0  0  0  0  0
   -2.9350    0.0550    1.7975 C   0  0  0  0  0  0  0  0  0  0  0  0
   -2.3311    0.7156    0.7268 C   0  0  0  0  0  0  0  0  0  0  0  0
    2.1993    0.7470    0.9848 N   0  0  0  0  0  0  0  0  0  0  0  0
    3.3864    0.6270    1.7673 C   0  0  0  0  0  0  0  0  0  0  0  0
    4.5279   -0.2384    1.3094 C   0  0  0  0  0  0  0  0  0  0  0  0
    3.6940   -0.6622    2.4813 C   0  0  0  0  0  0  0  0  0  0  0  0
    0.7858   -1.9894   -4.0214 H   0  0  0  0  0  0  0  0  0  0  0  0
   -1.5568   -0.9151   -3.6487 H   0  0  0  0  0  0  0  0  0  0  0  0
   -2.6216    1.0847   -2.5939 H   0  0  0  0  0  0  0  0  0  0  0  0
   -1.7105    2.0707   -1.4842 H   0  0  0  0  0  0  0  0  0  0  0  0
   -3.6698   -1.0947   -1.8311 H   0  0  0  0  0  0  0  0  0  0  0  0
   -4.7339   -2.2530    0.0708 H   0  0  0  0  0  0  0  0  0  0  0  0
   -4.2702   -1.5252    2.3952 H   0  0  0  0  0  0  0  0  0  0  0  0
   -2.7289    0.3723    2.8166 H   0  0  0  0  0  0  0  0  0  0  0  0
   -1.6526    1.5431    0.9284 H   0  0  0  0  0  0  0  0  0  0  0  0
    1.4055    0.1642    1.2194 H   0  0  0  0  0  0  0  0  0  0  0  0
    3.6383    1.5398    2.3035 H   0  0  0  0  0  0  0  0  0  0  0  0
    4.4176   -0.7827    0.3785 H   0  0  0  0  0  0  0  0  0  0  0  0
    5.5337    0.1193    1.4958 H   0  0  0  0  0  0  0  0  0  0  0  0
    4.1380   -0.5997    3.4680 H   0  0  0  0  0  0  0  0  0  0  0  0
    3.0297   -1.5071    2.3454 H   0  0  0  0  0  0  0  0  0  0  0  0
  1  2  2  0
  2  3  1  0
  3  4  2  3
  4  5  1  0
  5  6  1  0
  6  7  2  0
  7  8  1  0
  8  9  1  0
  9 10  1  0
 10 11  2  0
 11 12  1  0
 12 13  2  0
 13 14  1  0
 14 15  2  0
  2 16  1  0
 16 17  1  0
 17 18  1  0
 18 19  1  0
  8  4  1  0
 15 10  1  0
 19 17  1  0
  6 20  1  0
  7 21  1  0
  9 22  1  0
  9 23  1  0
 11 24  1  0
 12 25  1  0
 13 26  1  0
 14 27  1  0
 15 28  1  0
 16 29  1  0
 17 30  1  0
 18 31  1  0
 18 32  1  0
 19 33  1  0
 19 34  1  0
M  END
$$$$
