
     RDKit          3D

 59 62  0  0  0  0  0  0  0  0999 V2000
   -7.1874    1.7186   -0.5924 C   0  0  0  0  0  0  0  0  0  0  0  0
   -6.6892    0.8218   -1.7219 C   0  0  0  0  0  0  0  0  0  0  0  0
   -5.3007    0.3638   -1.6422 N   0  0  0  0  0  0  0  0  0  0  0  0
   -5.0283   -0.4982   -0.4812 C   0  0  0  0  0  0  0  0  0  0  0  0
   -3.5683   -1.0134   -0.4738 C   0  0  0  0  0  0  0  0  0  0  0  0
   -2.5315    0.0390   -0.5653 N   0  0  0  0  0  0  0  0  0  0  0  0
   -2.4115    0.8260    0.6753 C   0  0  0  0  0  0  0  0  0  0  0  0
   -1.8085    0.0476    1.8183 C   0  0  0  0  0  0  0  0  0  0  0  0
   -2.5469   -0.3348    2.9523 C   0  0  0  0  0  0  0  0  0  0  0  0
   -3.8680    0.0167    3.0259 O   0  0  0  0  0  0  0  0  0  0  0  0
   -1.9718   -1.0696    4.0104 C   0  0  0  0  0  0  0  0  0  0  0  0
   -0.6285   -1.4455    3.9617 C   0  0  0  0  0  0  0  0  0  0  0  0
    0.0886   -1.0634    2.8467 C   0  0  0  0  0  0  0  0  0  0  0  0
   -0.4750   -0.3352    1.7998 C   0  0  0  0  0  0  0  0  0  0  0  0
    0.4314   -0.0581    0.7979 O   0  0  0  0  0  0  0  0  0  0  0  0
    1.6336   -0.6318    1.1966 C   0  0  0  0  0  0  0  0  0  0  0  0
    2.7812   -0.6042    0.5067 C   0  0  0  0  0  0  0  0  0  0  0  0
    2.9366    0.0426   -0.7794 C   0  0  0  0  0  0  0  0  0  0  0  0
    4.0477    0.0712   -1.5344 C   0  0  0  0  0  0  0  0  0  0  0  0
    5.3406   -0.5738   -1.2466 C   0  0  0  0  0  0  0  0  0  0  0  0
    5.4033   -1.9711   -1.1268 C   0  0  0  0  0  0  0  0  0  0  0  0
    6.6176   -2.6080   -0.8763 C   0  0  0  0  0  0  0  0  0  0  0  0
    7.7819   -1.8545   -0.7584 C   0  0  0  0  0  0  0  0  0  0  0  0
    7.7371   -0.4641   -0.8938 C   0  0  0  0  0  0  0  0  0  0  0  0
    6.5231    0.1875   -1.1439 C   0  0  0  0  0  0  0  0  0  0  0  0
    6.3886    1.5447   -1.3025 O   0  0  0  0  0  0  0  0  0  0  0  0
    7.5586    2.3403   -1.1660 C   0  0  0  0  0  0  0  0  0  0  0  0
    1.4875   -1.3001    2.5149 C   0  0  0  0  0  0  0  0  0  0  0  0
    2.3099   -1.8995    3.1722 O   0  0  0  0  0  0  0  0  0  0  0  0
   -2.8597    0.9110   -1.7149 C   0  0  0  0  0  0  0  0  0  0  0  0
   -4.3127    1.4483   -1.7343 C   0  0  0  0  0  0  0  0  0  0  0  0
   -7.1431    1.2157    0.3778 H   0  0  0  0  0  0  0  0  0  0  0  0
   -8.2338    1.9874   -0.7721 H   0  0  0  0  0  0  0  0  0  0  0  0
   -6.6178    2.6500   -0.5296 H   0  0  0  0  0  0  0  0  0  0  0  0
   -6.8301    1.3499   -2.6735 H   0  0  0  0  0  0  0  0  0  0  0  0
   -7.3441   -0.0566   -1.7829 H   0  0  0  0  0  0  0  0  0  0  0  0
   -5.2274    0.0288    0.4583 H   0  0  0  0  0  0  0  0  0  0  0  0
   -5.6941   -1.3692   -0.5108 H   0  0  0  0  0  0  0  0  0  0  0  0
   -3.4355   -1.6845   -1.3337 H   0  0  0  0  0  0  0  0  0  0  0  0
   -3.4079   -1.6482    0.4049 H   0  0  0  0  0  0  0  0  0  0  0  0
   -1.7409    1.6788    0.4992 H   0  0  0  0  0  0  0  0  0  0  0  0
   -3.3656    1.2759    0.9712 H   0  0  0  0  0  0  0  0  0  0  0  0
   -4.2338   -0.2959    3.8699 H   0  0  0  0  0  0  0  0  0  0  0  0
   -2.5638   -1.3557    4.8759 H   0  0  0  0  0  0  0  0  0  0  0  0
   -0.1622   -2.0119    4.7607 H   0  0  0  0  0  0  0  0  0  0  0  0
    3.6538   -1.0870    0.9417 H   0  0  0  0  0  0  0  0  0  0  0  0
    2.0654    0.5783   -1.1566 H   0  0  0  0  0  0  0  0  0  0  0  0
    4.0358    0.6428   -2.4608 H   0  0  0  0  0  0  0  0  0  0  0  0
    4.5021   -2.5705   -1.2328 H   0  0  0  0  0  0  0  0  0  0  0  0
    6.6535   -3.6897   -0.7768 H   0  0  0  0  0  0  0  0  0  0  0  0
    8.7299   -2.3498   -0.5631 H   0  0  0  0  0  0  0  0  0  0  0  0
    8.6700    0.0808   -0.7996 H   0  0  0  0  0  0  0  0  0  0  0  0
    7.2704    3.3865   -1.3094 H   0  0  0  0  0  0  0  0  0  0  0  0
    7.9845    2.2484   -0.1617 H   0  0  0  0  0  0  0  0  0  0  0  0
    8.2965    2.0911   -1.9358 H   0  0  0  0  0  0  0  0  0  0  0  0
   -2.6886    0.3348   -2.6344 H   0  0  0  0  0  0  0  0  0  0  0  0
   -2.1567    1.7518   -1.7653 H   0  0  0  0  0  0  0  0  0  0  0  0
   -4.4373    2.1676   -0.9168 H   0  0  0  0  0  0  0  0  0  0  0  0
   -4.4583    1.9964   -2.6729 H   0  0  0  0  0  0  0  0  0  0  0  0
  1  2  1  0
  2  3  1  0
  3  4  1  0
  4  5  1  0
  5  6  1  0
  6  7  1  0
  7  8  1  0
  8  9  2  0
  9 10  1  0
  9 11  1  0
 11 12  2  0
 12 13  1  0
 13 14  2  0
 14 15  1  0
 15 16  1  0
 16 17  2  3
 17 18  1  0
 18 19  2  3
 19 20  1  0
 20 21  2  0
 21 22  1  0
 22 23  2  0
 23 24  1  0
 24 25  2  0
 25 26  1  0
 26 27  1  0
 16 28  1  0
 28 29  2  0
  6 30  1  0
 30 31  1  0
 31  3  1  0
 14  8  1  0
 25 20  1  0
 28 13  1  0
  1 32  1  0
  1 33  1  0
  1 34  1  0
  2 35  1  0
  2 36  1  0
  4 37  1  0
  4 38  1  0
  5 39  1  0
  5 40  1  0
  7 41  1  0
  7 42  1  0
 10 43  1  0
 11 44  1  0
 12 45  1  0
 17 46  1  0
 18 47  1  0
 19 48  1  0
 21 49  1  0
 22 50  1  0
 23 51  1  0
 24 52  1  0
 27 53  1  0
 27 54  1  0
 27 55  1  0
 30 56  1  0
 30 57  1  0
 31 58  1  0
 31 59  1  0
M  END
$$$$
