
     RDKit          3D

 43 46  0  0  0  0  0  0  0  0999 V2000
   -4.9945   -1.8825    0.5222 C   0  0  0  0  0  0  0  0  0  0  0  0
   -4.2613   -1.2350   -0.5553 N   0  0  0  0  0  0  0  0  0  0  0  0
   -4.9948   -0.7427   -1.6332 C   0  0  0  0  0  0  0  0  0  0  0  0
   -6.2184   -0.8197   -1.7135 O   0  0  0  0  0  0  0  0  0  0  0  0
   -4.2279   -0.0674   -2.7759 C   0  0  0  0  0  0  0  0  0  0  0  0
   -4.8650    0.3712   -3.7305 O   0  0  0  0  0  0  0  0  0  0  0  0
   -2.8406    0.0176   -2.6712 N   0  0  0  0  0  0  0  0  0  0  0  0
   -2.1172    0.6495   -3.7655 C   0  0  0  0  0  0  0  0  0  0  0  0
   -2.1405   -0.4957   -1.5450 C   0  0  0  0  0  0  0  0  0  0  0  0
   -0.7405   -0.3887   -1.4617 C   0  0  0  0  0  0  0  0  0  0  0  0
   -0.0557   -0.8879   -0.3513 C   0  0  0  0  0  0  0  0  0  0  0  0
    1.7175   -0.7482   -0.2502 S   0  0  0  0  0  6  0  0  0  0  0  0
    2.2072   -2.0852    0.0109 O   0  0  0  0  0  0  0  0  0  0  0  0
    2.1629    0.0102   -1.4020 O   0  0  0  0  0  0  0  0  0  0  0  0
    1.9059    0.2303    1.1373 N   0  0  0  0  0  0  0  0  0  0  0  0
    1.3740    1.6349    1.0229 C   0  0  0  0  0  0  0  0  0  0  0  0
    2.5768    2.5856    1.1296 C   0  0  0  0  0  0  0  0  0  0  0  0
    3.6424    1.6939    1.6697 C   0  0  0  0  0  0  0  0  0  0  0  0
    4.9021    2.0508    2.1243 C   0  0  0  0  0  0  0  0  0  0  0  0
    5.7672    1.0369    2.5418 C   0  0  0  0  0  0  0  0  0  0  0  0
    5.3670   -0.3075    2.4955 C   0  0  0  0  0  0  0  0  0  0  0  0
    4.0969   -0.6551    2.0286 C   0  0  0  0  0  0  0  0  0  0  0  0
    3.2542    0.3587    1.6089 C   0  0  0  0  0  0  0  0  0  0  0  0
   -0.7416   -1.5123    0.6837 C   0  0  0  0  0  0  0  0  0  0  0  0
   -2.1296   -1.6232    0.6087 C   0  0  0  0  0  0  0  0  0  0  0  0
   -2.8457   -1.1187   -0.4954 C   0  0  0  0  0  0  0  0  0  0  0  0
   -6.0723   -1.8995    0.3372 H   0  0  0  0  0  0  0  0  0  0  0  0
   -4.8271   -1.3363    1.4561 H   0  0  0  0  0  0  0  0  0  0  0  0
   -4.6588   -2.9199    0.6193 H   0  0  0  0  0  0  0  0  0  0  0  0
   -1.5799    1.5256   -3.3886 H   0  0  0  0  0  0  0  0  0  0  0  0
   -1.4181   -0.0701   -4.2035 H   0  0  0  0  0  0  0  0  0  0  0  0
   -2.7859    0.9880   -4.5619 H   0  0  0  0  0  0  0  0  0  0  0  0
   -0.1616    0.0778   -2.2540 H   0  0  0  0  0  0  0  0  0  0  0  0
    0.6850    1.7945    1.8619 H   0  0  0  0  0  0  0  0  0  0  0  0
    0.8104    1.8186    0.1037 H   0  0  0  0  0  0  0  0  0  0  0  0
    2.3599    3.4293    1.7909 H   0  0  0  0  0  0  0  0  0  0  0  0
    2.8653    2.9571    0.1406 H   0  0  0  0  0  0  0  0  0  0  0  0
    5.2170    3.0892    2.1512 H   0  0  0  0  0  0  0  0  0  0  0  0
    6.7618    1.2891    2.9029 H   0  0  0  0  0  0  0  0  0  0  0  0
    6.0511   -1.0858    2.8258 H   0  0  0  0  0  0  0  0  0  0  0  0
    3.7882   -1.6948    2.0071 H   0  0  0  0  0  0  0  0  0  0  0  0
   -0.2059   -1.9146    1.5416 H   0  0  0  0  0  0  0  0  0  0  0  0
   -2.6301   -2.1180    1.4366 H   0  0  0  0  0  0  0  0  0  0  0  0
  1  2  1  0
  2  3  1  0
  3  4  2  0
  3  5  1  0
  5  6  2  0
  5  7  1  0
  7  8  1  0
  7  9  1  0
  9 10  2  0
 10 11  1  0
 11 12  1  0
 12 13  2  0
 12 14  2  0
 12 15  1  0
 15 16  1  0
 16 17  1  0
 17 18  1  0
 18 19  2  0
 19 20  1  0
 20 21  2  0
 21 22  1  0
 22 23  2  0
 11 24  2  0
 24 25  1  0
 25 26  2  0
 26  2  1  0
 26  9  1  0
 23 15  1  0
 23 18  1  0
  1 27  1  0
  1 28  1  0
  1 29  1  0
  8 30  1  0
  8 31  1  0
  8 32  1  0
 10 33  1  0
 16 34  1  0
 16 35  1  0
 17 36  1  0
 17 37  1  0
 19 38  1  0
 20 39  1  0
 21 40  1  0
 22 41  1  0
 24 42  1  0
 25 43  1  0
M  END
$$$$
