
     RDKit          3D

 33 36  0  0  0  0  0  0  0  0999 V2000
    7.0156    0.3392   -0.7406 C   0  0  0  0  0  0  0  0  0  0  0  0
    5.5286    0.2776   -0.5535 C   0  0  0  0  0  0  0  0  0  0  0  0
    4.6678    0.7286   -1.5599 C   0  0  0  0  0  0  0  0  0  0  0  0
    3.2813    0.6422   -1.3985 C   0  0  0  0  0  0  0  0  0  0  0  0
    2.7296    0.0938   -0.2328 C   0  0  0  0  0  0  0  0  0  0  0  0
    1.2800    0.0071   -0.0723 C   0  0  0  0  0  0  0  0  0  0  0  0
    0.4027    0.4610   -1.0552 N   0  0  0  0  0  0  0  0  0  0  0  0
   -0.7552    0.2021   -0.5220 C   0  0  0  0  0  0  0  0  0  0  0  0
   -2.3911    0.4070   -0.9861 S   0  0  0  0  0  0  0  0  0  0  0  0
   -2.9112   -0.3070    0.5286 C   0  0  0  0  0  0  0  0  0  0  0  0
   -4.1523   -0.5299    0.9838 C   0  0  0  0  0  0  0  0  0  0  0  0
   -5.3602   -0.2180    0.2985 C   0  0  0  0  0  0  0  0  0  0  0  0
   -6.6653   -0.4322    0.7344 C   0  0  0  0  0  0  0  0  0  0  0  0
   -7.5479    0.0315   -0.2696 C   0  0  0  0  0  0  0  0  0  0  0  0
   -6.7482    0.5084   -1.2744 C   0  0  0  0  0  0  0  0  0  0  0  0
   -5.4431    0.3642   -0.9455 O   0  0  0  0  0  0  0  0  0  0  0  0
   -1.7542   -0.7030    1.3925 C   0  0  0  0  0  0  0  0  0  0  0  0
   -1.7506   -1.2200    2.4953 O   0  0  0  0  0  0  0  0  0  0  0  0
   -0.6187   -0.3648    0.6899 N   0  0  0  0  0  0  0  0  0  0  0  0
    0.6745   -0.5103    1.0213 N   0  0  0  0  0  0  0  0  0  0  0  0
    3.5958   -0.3701    0.7666 C   0  0  0  0  0  0  0  0  0  0  0  0
    4.9825   -0.2839    0.6057 C   0  0  0  0  0  0  0  0  0  0  0  0
    7.2959    1.1960   -1.3624 H   0  0  0  0  0  0  0  0  0  0  0  0
    7.5258    0.4560    0.2213 H   0  0  0  0  0  0  0  0  0  0  0  0
    7.3706   -0.5779   -1.2206 H   0  0  0  0  0  0  0  0  0  0  0  0
    5.0690    1.1520   -2.4782 H   0  0  0  0  0  0  0  0  0  0  0  0
    2.6337    1.0053   -2.1945 H   0  0  0  0  0  0  0  0  0  0  0  0
   -4.2701   -0.9903    1.9642 H   0  0  0  0  0  0  0  0  0  0  0  0
   -6.9447   -0.8775    1.6801 H   0  0  0  0  0  0  0  0  0  0  0  0
   -8.6286    0.0189   -0.2604 H   0  0  0  0  0  0  0  0  0  0  0  0
   -6.9408    0.9586   -2.2384 H   0  0  0  0  0  0  0  0  0  0  0  0
    3.1974   -0.8065    1.6808 H   0  0  0  0  0  0  0  0  0  0  0  0
    5.6314   -0.6585    1.3943 H   0  0  0  0  0  0  0  0  0  0  0  0
  1  2  1  0
  2  3  2  0
  3  4  1  0
  4  5  2  0
  5  6  1  0
  6  7  1  0
  7  8  2  0
  8  9  1  0
  9 10  1  0
 10 11  2  3
 11 12  1  0
 12 13  2  0
 13 14  1  0
 14 15  2  0
 15 16  1  0
 10 17  1  0
 17 18  2  0
 17 19  1  0
 19 20  1  0
  5 21  1  0
 21 22  2  0
 22  2  1  0
 20  6  2  0
 19  8  1  0
 16 12  1  0
  1 23  1  0
  1 24  1  0
  1 25  1  0
  3 26  1  0
  4 27  1  0
 11 28  1  0
 13 29  1  0
 14 30  1  0
 15 31  1  0
 21 32  1  0
 22 33  1  0
M  END
$$$$
