
     RDKit          3D

 43 46  0  0  0  0  0  0  0  0999 V2000
   -3.2443   -3.2523   -0.0686 C   0  0  0  0  0  0  0  0  0  0  0  0
   -3.7608   -2.3118    1.0043 C   0  0  0  0  0  0  0  0  0  0  0  0
   -3.8099   -0.9689    0.5048 O   0  0  0  0  0  0  0  0  0  0  0  0
   -2.6530   -0.2560    0.6008 C   0  0  0  0  0  0  0  0  0  0  0  0
   -1.6126   -0.6746    1.0932 O   0  0  0  0  0  0  0  0  0  0  0  0
   -2.8385    1.0714    0.0403 C   0  0  0  0  0  0  0  0  0  0  0  0
   -4.0027    1.6303   -0.4752 C   0  0  0  0  0  0  0  0  0  0  0  0
   -3.6687    2.9383   -0.9175 C   0  0  0  0  0  0  0  0  0  0  0  0
   -4.4321    4.3052   -1.6564 S   0  0  0  0  0  0  0  0  0  0  0  0
   -2.9319    5.1452   -1.6409 C   0  0  0  0  0  0  0  0  0  0  0  0
   -1.8883    4.4293   -1.0937 C   0  0  0  0  0  0  0  0  0  0  0  0
   -2.3450    3.1478   -0.6751 C   0  0  0  0  0  0  0  0  0  0  0  0
   -1.8303    2.0142   -0.0815 N   0  0  0  0  0  0  0  0  0  0  0  0
   -0.4439    1.8891    0.3491 C   0  0  0  0  0  0  0  0  0  0  0  0
    0.3846    1.0261   -0.5821 C   0  0  0  0  0  0  0  0  0  0  0  0
    0.1101    0.8757   -1.7722 O   0  0  0  0  0  0  0  0  0  0  0  0
    1.6082    0.3644   -0.0392 C   0  0  0  0  0  0  0  0  0  0  0  0
    2.2018    0.7618    1.1672 C   0  0  0  0  0  0  0  0  0  0  0  0
    3.3481    0.1099    1.6331 C   0  0  0  0  0  0  0  0  0  0  0  0
    3.9039   -0.9350    0.8988 C   0  0  0  0  0  0  0  0  0  0  0  0
    3.3358   -1.3120   -0.3211 C   0  0  0  0  0  0  0  0  0  0  0  0
    2.1859   -0.6743   -0.7834 C   0  0  0  0  0  0  0  0  0  0  0  0
    3.8504   -2.3067   -1.1125 O   0  0  0  0  0  0  0  0  0  0  0  0
    5.1865   -2.6461   -0.7246 C   0  0  0  0  0  0  0  0  0  0  0  0
    5.2865   -2.7888    0.7851 C   0  0  0  0  0  0  0  0  0  0  0  0
    5.0138   -1.5391    1.4305 O   0  0  0  0  0  0  0  0  0  0  0  0
   -2.2194   -2.9969   -0.3558 H   0  0  0  0  0  0  0  0  0  0  0  0
   -3.2604   -4.2877    0.2829 H   0  0  0  0  0  0  0  0  0  0  0  0
   -3.8566   -3.1765   -0.9732 H   0  0  0  0  0  0  0  0  0  0  0  0
   -4.7847   -2.5900    1.2744 H   0  0  0  0  0  0  0  0  0  0  0  0
   -3.1593   -2.3758    1.9183 H   0  0  0  0  0  0  0  0  0  0  0  0
   -4.9734    1.1558   -0.5336 H   0  0  0  0  0  0  0  0  0  0  0  0
   -2.8938    6.1462   -2.0486 H   0  0  0  0  0  0  0  0  0  0  0  0
   -0.8763    4.8025   -1.0111 H   0  0  0  0  0  0  0  0  0  0  0  0
   -0.0010    2.8895    0.3881 H   0  0  0  0  0  0  0  0  0  0  0  0
   -0.4683    1.4871    1.3656 H   0  0  0  0  0  0  0  0  0  0  0  0
    1.8013    1.5755    1.7641 H   0  0  0  0  0  0  0  0  0  0  0  0
    3.8033    0.4104    2.5736 H   0  0  0  0  0  0  0  0  0  0  0  0
    1.7459   -0.9864   -1.7285 H   0  0  0  0  0  0  0  0  0  0  0  0
    5.4435   -3.5916   -1.2123 H   0  0  0  0  0  0  0  0  0  0  0  0
    5.8661   -1.8713   -1.1007 H   0  0  0  0  0  0  0  0  0  0  0  0
    4.5816   -3.5386    1.1654 H   0  0  0  0  0  0  0  0  0  0  0  0
    6.2977   -3.0954    1.0703 H   0  0  0  0  0  0  0  0  0  0  0  0
  1  2  1  0
  2  3  1  0
  3  4  1  0
  4  5  2  0
  4  6  1  0
  6  7  2  0
  7  8  1  0
  8  9  1  0
  9 10  1  0
 10 11  2  0
 11 12  1  0
 12 13  1  0
 13 14  1  0
 14 15  1  0
 15 16  2  0
 15 17  1  0
 17 18  2  0
 18 19  1  0
 19 20  2  0
 20 21  1  0
 21 22  2  0
 21 23  1  0
 23 24  1  0
 24 25  1  0
 25 26  1  0
 13  6  1  0
 22 17  1  0
 12  8  2  0
 26 20  1  0
  1 27  1  0
  1 28  1  0
  1 29  1  0
  2 30  1  0
  2 31  1  0
  7 32  1  0
 10 33  1  0
 11 34  1  0
 14 35  1  0
 14 36  1  0
 18 37  1  0
 19 38  1  0
 22 39  1  0
 24 40  1  0
 24 41  1  0
 25 42  1  0
 25 43  1  0
M  END
$$$$
