
     RDKit          3D

 53 56  0  0  0  0  0  0  0  0999 V2000
   -6.6563    1.9318   -1.5822 C   0  0  0  0  0  0  0  0  0  0  0  0
   -5.3254    1.4962   -1.0480 C   0  0  0  0  0  0  0  0  0  0  0  0
   -4.1418    1.8351   -1.7078 C   0  0  0  0  0  0  0  0  0  0  0  0
   -2.9035    1.4455   -1.1871 C   0  0  0  0  0  0  0  0  0  0  0  0
   -2.8252    0.7370    0.0170 C   0  0  0  0  0  0  0  0  0  0  0  0
   -1.5426    0.3407    0.4557 N   0  0  0  0  0  0  0  0  0  0  0  0
   -1.0894   -0.0112    1.7229 C   0  0  0  0  0  0  0  0  0  0  0  0
   -1.7662    0.5800    3.1493 S   0  0  0  0  0  0  0  0  0  0  0  0
    0.0507   -0.8519    1.6828 N   0  0  0  0  0  0  0  0  0  0  0  0
    0.7791   -1.2470    2.9042 C   0  0  0  0  0  0  0  0  0  0  0  0
    0.1479   -2.4329    3.5820 C   0  0  0  0  0  0  0  0  0  0  0  0
   -0.5895   -3.4801    3.0575 C   0  0  0  0  0  0  0  0  0  0  0  0
   -1.0040   -4.4128    4.0520 C   0  0  0  0  0  0  0  0  0  0  0  0
   -0.5763   -4.0479    5.3086 C   0  0  0  0  0  0  0  0  0  0  0  0
    0.3369   -2.6082    5.2829 S   0  0  0  0  0  0  0  0  0  0  0  0
    0.5286   -1.4887    0.4401 C   0  0  0  0  0  0  0  0  0  0  0  0
    1.5729   -0.6641   -0.2674 C   0  0  0  0  0  0  0  0  0  0  0  0
    2.1003    0.5033    0.1448 C   0  0  0  0  0  0  0  0  0  0  0  0
    3.1047    1.2077   -0.6529 C   0  0  0  0  0  0  0  0  0  0  0  0
    3.6496    2.4156   -0.2121 C   0  0  0  0  0  0  0  0  0  0  0  0
    4.6063    3.0703   -0.9858 C   0  0  0  0  0  0  0  0  0  0  0  0
    5.0164    2.5253   -2.2055 C   0  0  0  0  0  0  0  0  0  0  0  0
    4.4812    1.3135   -2.6692 C   0  0  0  0  0  0  0  0  0  0  0  0
    4.9422    0.7613   -3.9878 C   0  0  0  0  0  0  0  0  0  0  0  0
    3.5210    0.6606   -1.8788 C   0  0  0  0  0  0  0  0  0  0  0  0
    2.9539   -0.5553   -2.2889 N   0  0  0  0  0  0  0  0  0  0  0  0
    2.0253   -1.2522   -1.5685 C   0  0  0  0  0  0  0  0  0  0  0  0
    1.5692   -2.3171   -1.9752 O   0  0  0  0  0  0  0  0  0  0  0  0
   -4.0084    0.3912    0.6696 C   0  0  0  0  0  0  0  0  0  0  0  0
   -5.2478    0.7779    0.1484 C   0  0  0  0  0  0  0  0  0  0  0  0
   -6.9628    2.8664   -1.1016 H   0  0  0  0  0  0  0  0  0  0  0  0
   -6.6139    2.0918   -2.6636 H   0  0  0  0  0  0  0  0  0  0  0  0
   -7.4201    1.1670   -1.3982 H   0  0  0  0  0  0  0  0  0  0  0  0
   -4.1735    2.4026   -2.6343 H   0  0  0  0  0  0  0  0  0  0  0  0
   -2.0045    1.7203   -1.7315 H   0  0  0  0  0  0  0  0  0  0  0  0
   -0.8048    0.5191   -0.2100 H   0  0  0  0  0  0  0  0  0  0  0  0
    1.8157   -1.4872    2.6318 H   0  0  0  0  0  0  0  0  0  0  0  0
    0.8338   -0.3878    3.5830 H   0  0  0  0  0  0  0  0  0  0  0  0
   -0.8357   -3.5764    2.0077 H   0  0  0  0  0  0  0  0  0  0  0  0
   -1.5949   -5.2990    3.8559 H   0  0  0  0  0  0  0  0  0  0  0  0
   -0.7576   -4.5579    6.2437 H   0  0  0  0  0  0  0  0  0  0  0  0
   -0.3280   -1.6645   -0.2242 H   0  0  0  0  0  0  0  0  0  0  0  0
    0.9406   -2.4771    0.6858 H   0  0  0  0  0  0  0  0  0  0  0  0
    1.7988    0.9636    1.0792 H   0  0  0  0  0  0  0  0  0  0  0  0
    3.3385    2.8566    0.7292 H   0  0  0  0  0  0  0  0  0  0  0  0
    5.0323    4.0099   -0.6416 H   0  0  0  0  0  0  0  0  0  0  0  0
    5.7611    3.0583   -2.7961 H   0  0  0  0  0  0  0  0  0  0  0  0
    4.1020    0.7043   -4.6867 H   0  0  0  0  0  0  0  0  0  0  0  0
    5.3747   -0.2344   -3.8530 H   0  0  0  0  0  0  0  0  0  0  0  0
    5.7119    1.3938   -4.4432 H   0  0  0  0  0  0  0  0  0  0  0  0
    3.2339   -0.9815   -3.1596 H   0  0  0  0  0  0  0  0  0  0  0  0
   -4.0039   -0.2111    1.5736 H   0  0  0  0  0  0  0  0  0  0  0  0
   -6.1534    0.4998    0.6837 H   0  0  0  0  0  0  0  0  0  0  0  0
  1  2  1  0
  2  3  2  0
  3  4  1  0
  4  5  2  0
  5  6  1  0
  6  7  1  0
  7  8  2  0
  7  9  1  0
  9 10  1  0
 10 11  1  0
 11 12  2  0
 12 13  1  0
 13 14  2  0
 14 15  1  0
  9 16  1  0
 16 17  1  0
 17 18  2  0
 18 19  1  0
 19 20  2  0
 20 21  1  0
 21 22  2  0
 22 23  1  0
 23 24  1  0
 23 25  2  0
 25 26  1  0
 26 27  1  0
 27 28  2  0
  5 29  1  0
 29 30  2  0
 30  2  1  0
 15 11  1  0
 27 17  1  0
 25 19  1  0
  1 31  1  0
  1 32  1  0
  1 33  1  0
  3 34  1  0
  4 35  1  0
  6 36  1  0
 10 37  1  0
 10 38  1  0
 12 39  1  0
 13 40  1  0
 14 41  1  0
 16 42  1  0
 16 43  1  0
 18 44  1  0
 20 45  1  0
 21 46  1  0
 22 47  1  0
 24 48  1  0
 24 49  1  0
 24 50  1  0
 26 51  1  0
 29 52  1  0
 30 53  1  0
M  END
$$$$
