
     RDKit          3D

 41 41  0  0  0  0  0  0  0  0999 V2000
    4.4885   -0.6287    2.6410 C   0  0  0  0  0  0  0  0  0  0  0  0
    3.5986   -1.8412    2.4150 C   0  0  0  0  0  0  0  0  0  0  0  0
    2.8106   -1.7861    1.1044 C   0  0  0  0  0  0  0  0  0  0  0  0
    1.7748   -0.6585    1.0659 C   0  0  0  0  0  0  0  0  0  0  0  0
    0.9479   -0.7123   -0.2241 C   0  0  0  0  0  0  0  0  0  0  0  0
   -0.2108    0.3116   -0.2623 C   0  0  0  0  0  0  0  0  0  0  0  0
    0.3017    1.7535   -0.2369 C   0  0  0  0  0  0  0  0  0  0  0  0
   -0.8537    2.7350   -0.2845 C   0  0  0  0  0  0  0  0  0  0  0  0
   -0.7762    3.7824    0.4786 N   0  0  0  0  0  0  0  0  0  0  0  0
   -1.8865    4.6224    0.3359 O   0  0  0  0  0  0  0  0  0  0  0  0
   -1.9475    2.4361   -1.2502 C   0  0  0  0  0  0  0  0  0  0  0  0
   -2.0315    1.2345   -1.8468 C   0  0  0  0  0  0  0  0  0  0  0  0
   -3.0559    0.9984   -2.9268 C   0  0  0  0  0  0  0  0  0  0  0  0
   -1.0972    0.0763   -1.5170 C   0  0  0  0  0  0  0  0  0  0  0  0
   -1.8952   -1.2230   -1.3565 C   0  0  0  0  0  0  0  0  0  0  0  0
   -1.8286   -2.1587   -2.1452 O   0  0  0  0  0  0  0  0  0  0  0  0
   -2.7010   -1.1884   -0.2585 O   0  0  0  0  0  0  0  0  0  0  0  0
   -3.4861   -2.3662   -0.0731 C   0  0  0  0  0  0  0  0  0  0  0  0
    5.1649   -0.4740    1.7944 H   0  0  0  0  0  0  0  0  0  0  0  0
    3.8986    0.2812    2.7845 H   0  0  0  0  0  0  0  0  0  0  0  0
    5.0976   -0.7726    3.5392 H   0  0  0  0  0  0  0  0  0  0  0  0
    2.9096   -1.9508    3.2605 H   0  0  0  0  0  0  0  0  0  0  0  0
    4.2297   -2.7379    2.4025 H   0  0  0  0  0  0  0  0  0  0  0  0
    2.2995   -2.7480    0.9733 H   0  0  0  0  0  0  0  0  0  0  0  0
    3.5046   -1.6797    0.2617 H   0  0  0  0  0  0  0  0  0  0  0  0
    2.2871    0.3058    1.1350 H   0  0  0  0  0  0  0  0  0  0  0  0
    1.1090   -0.7424    1.9330 H   0  0  0  0  0  0  0  0  0  0  0  0
    1.6095   -0.5535   -1.0852 H   0  0  0  0  0  0  0  0  0  0  0  0
    0.5374   -1.7242   -0.3267 H   0  0  0  0  0  0  0  0  0  0  0  0
   -0.8192    0.1614    0.6407 H   0  0  0  0  0  0  0  0  0  0  0  0
    0.9596    1.9569   -1.0904 H   0  0  0  0  0  0  0  0  0  0  0  0
    0.8746    1.9452    0.6767 H   0  0  0  0  0  0  0  0  0  0  0  0
   -1.6882    5.3367    0.9698 H   0  0  0  0  0  0  0  0  0  0  0  0
   -2.6316    3.2447   -1.4812 H   0  0  0  0  0  0  0  0  0  0  0  0
   -2.5713    0.6160   -3.8312 H   0  0  0  0  0  0  0  0  0  0  0  0
   -3.5814    1.9192   -3.2023 H   0  0  0  0  0  0  0  0  0  0  0  0
   -3.8098    0.2760   -2.5994 H   0  0  0  0  0  0  0  0  0  0  0  0
   -0.4410   -0.0612   -2.3883 H   0  0  0  0  0  0  0  0  0  0  0  0
   -4.1642   -2.5115   -0.9199 H   0  0  0  0  0  0  0  0  0  0  0  0
   -4.0857   -2.2347    0.8318 H   0  0  0  0  0  0  0  0  0  0  0  0
   -2.8409   -3.2397    0.0628 H   0  0  0  0  0  0  0  0  0  0  0  0
  1  2  1  0
  2  3  1  0
  3  4  1  0
  4  5  1  0
  5  6  1  0
  6  7  1  0
  7  8  1  0
  8  9  2  3
  9 10  1  0
  8 11  1  0
 11 12  2  0
 12 13  1  0
 12 14  1  0
 14 15  1  0
 15 16  2  0
 15 17  1  0
 17 18  1  0
 14  6  1  0
  1 19  1  0
  1 20  1  0
  1 21  1  0
  2 22  1  0
  2 23  1  0
  3 24  1  0
  3 25  1  0
  4 26  1  0
  4 27  1  0
  5 28  1  0
  5 29  1  0
  6 30  1  0
  7 31  1  0
  7 32  1  0
 10 33  1  0
 11 34  1  0
 13 35  1  0
 13 36  1  0
 13 37  1  0
 14 38  1  0
 18 39  1  0
 18 40  1  0
 18 41  1  0
M  END
$$$$
