
     RDKit          3D

 55 58  0  0  0  0  0  0  0  0999 V2000
    2.9092    1.9841   -2.3923 C   0  0  0  0  0  0  0  0  0  0  0  0
    3.0567    1.3466   -1.1290 O   0  0  0  0  0  0  0  0  0  0  0  0
    4.2071    1.6024   -0.4272 C   0  0  0  0  0  0  0  0  0  0  0  0
    5.2905    2.3399   -0.9154 C   0  0  0  0  0  0  0  0  0  0  0  0
    6.4337    2.5228   -0.1325 C   0  0  0  0  0  0  0  0  0  0  0  0
    6.5077    1.9655    1.1402 C   0  0  0  0  0  0  0  0  0  0  0  0
    5.4350    1.2286    1.6361 C   0  0  0  0  0  0  0  0  0  0  0  0
    4.2724    1.0509    0.8667 C   0  0  0  0  0  0  0  0  0  0  0  0
    3.1384    0.2239    1.4272 C   0  0  0  0  0  0  0  0  0  0  0  0
    3.2904   -1.1803    1.0505 N   0  0  0  0  0  0  0  0  0  0  0  0
    2.1658   -2.2826    1.6131 S   0  0  0  0  0  6  0  0  0  0  0  0
    2.0751   -2.1360    3.0486 O   0  0  0  0  0  0  0  0  0  0  0  0
    2.4674   -3.5518    0.9903 O   0  0  0  0  0  0  0  0  0  0  0  0
    0.6461   -1.6950    0.9009 C   0  0  0  0  0  0  0  0  0  0  0  0
   -0.3446   -1.1356    1.7219 C   0  0  0  0  0  0  0  0  0  0  0  0
   -1.5460   -0.6738    1.1664 C   0  0  0  0  0  0  0  0  0  0  0  0
   -1.7444   -0.7876   -0.1992 C   0  0  0  0  0  0  0  0  0  0  0  0
   -0.7379   -1.3381   -1.0049 C   0  0  0  0  0  0  0  0  0  0  0  0
    0.4545   -1.8125   -0.4763 C   0  0  0  0  0  0  0  0  0  0  0  0
   -1.1578   -1.3925   -2.4404 C   0  0  0  0  0  0  0  0  0  0  0  0
   -2.4099   -0.4973   -2.4262 C   0  0  0  0  0  0  0  0  0  0  0  0
   -2.1068    0.8838   -3.0171 C   0  0  0  0  0  0  0  0  0  0  0  0
   -2.8298   -0.3988   -1.0074 N   0  0  0  0  0  0  0  0  0  0  0  0
   -4.1219    0.0183   -0.6937 C   0  0  0  0  0  0  0  0  0  0  0  0
   -4.8661    0.4274   -1.6006 O   0  0  0  0  0  0  0  0  0  0  0  0
   -4.6389   -0.0820    0.7574 C   0  0  0  0  0  0  0  0  0  0  0  0
   -6.1769    0.0959    0.9716 C   0  0  0  0  0  0  0  0  0  0  0  0
   -6.0769   -0.9453    2.0988 C   0  0  0  0  0  0  0  0  0  0  0  0
   -4.8396   -1.5010    1.3711 C   0  0  0  0  0  0  0  0  0  0  0  0
    1.9192    1.7262   -2.7821 H   0  0  0  0  0  0  0  0  0  0  0  0
    2.9555    3.0738   -2.2952 H   0  0  0  0  0  0  0  0  0  0  0  0
    3.6539    1.6167   -3.1062 H   0  0  0  0  0  0  0  0  0  0  0  0
    5.2843    2.7806   -1.9061 H   0  0  0  0  0  0  0  0  0  0  0  0
    7.2720    3.0952   -0.5217 H   0  0  0  0  0  0  0  0  0  0  0  0
    7.4020    2.0987    1.7442 H   0  0  0  0  0  0  0  0  0  0  0  0
    5.5080    0.7827    2.6268 H   0  0  0  0  0  0  0  0  0  0  0  0
    3.1241    0.3212    2.5190 H   0  0  0  0  0  0  0  0  0  0  0  0
    2.1857    0.6240    1.0656 H   0  0  0  0  0  0  0  0  0  0  0  0
    3.5995   -1.3569    0.0962 H   0  0  0  0  0  0  0  0  0  0  0  0
   -0.1876   -1.0511    2.7959 H   0  0  0  0  0  0  0  0  0  0  0  0
   -2.2646   -0.2188    1.8321 H   0  0  0  0  0  0  0  0  0  0  0  0
    1.2088   -2.2648   -1.1140 H   0  0  0  0  0  0  0  0  0  0  0  0
   -0.3791   -1.0298   -3.1181 H   0  0  0  0  0  0  0  0  0  0  0  0
   -1.4218   -2.4232   -2.7009 H   0  0  0  0  0  0  0  0  0  0  0  0
   -3.2140   -0.9609   -3.0114 H   0  0  0  0  0  0  0  0  0  0  0  0
   -1.7757    0.7931   -4.0566 H   0  0  0  0  0  0  0  0  0  0  0  0
   -1.3215    1.3977   -2.4520 H   0  0  0  0  0  0  0  0  0  0  0  0
   -2.9919    1.5272   -3.0045 H   0  0  0  0  0  0  0  0  0  0  0  0
   -4.1111    0.6187    1.4175 H   0  0  0  0  0  0  0  0  0  0  0  0
   -6.7990   -0.2316    0.1303 H   0  0  0  0  0  0  0  0  0  0  0  0
   -6.4994    1.0943    1.2821 H   0  0  0  0  0  0  0  0  0  0  0  0
   -5.8532   -0.5135    3.0816 H   0  0  0  0  0  0  0  0  0  0  0  0
   -6.9228   -1.6312    2.1937 H   0  0  0  0  0  0  0  0  0  0  0  0
   -5.0739   -2.2802    0.6349 H   0  0  0  0  0  0  0  0  0  0  0  0
   -4.0500   -1.8679    2.0307 H   0  0  0  0  0  0  0  0  0  0  0  0
  1  2  1  0
  2  3  1  0
  3  4  2  0
  4  5  1  0
  5  6  2  0
  6  7  1  0
  7  8  2  0
  8  9  1  0
  9 10  1  0
 10 11  1  0
 11 12  2  0
 11 13  2  0
 11 14  1  0
 14 15  2  0
 15 16  1  0
 16 17  2  0
 17 18  1  0
 18 19  2  0
 18 20  1  0
 20 21  1  0
 21 22  1  0
 21 23  1  0
 23 24  1  0
 24 25  2  0
 24 26  1  0
 26 27  1  0
 27 28  1  0
 28 29  1  0
  8  3  1  0
 19 14  1  0
 29 26  1  0
 23 17  1  0
  1 30  1  0
  1 31  1  0
  1 32  1  0
  4 33  1  0
  5 34  1  0
  6 35  1  0
  7 36  1  0
  9 37  1  0
  9 38  1  0
 10 39  1  0
 15 40  1  0
 16 41  1  0
 19 42  1  0
 20 43  1  0
 20 44  1  0
 21 45  1  0
 22 46  1  0
 22 47  1  0
 22 48  1  0
 26 49  1  0
 27 50  1  0
 27 51  1  0
 28 52  1  0
 28 53  1  0
 29 54  1  0
 29 55  1  0
M  END
$$$$
