
     RDKit          3D

 49 51  0  0  0  0  0  0  0  0999 V2000
   -9.8470    1.7530    2.5442 C   0  0  0  0  0  0  0  0  0  0  0  0
   -8.7121    2.1563    3.3009 O   0  0  0  0  0  0  0  0  0  0  0  0
   -7.4851    1.8707    2.7706 C   0  0  0  0  0  0  0  0  0  0  0  0
   -7.2419    1.2203    1.5630 C   0  0  0  0  0  0  0  0  0  0  0  0
   -5.9267    0.9887    1.1328 C   0  0  0  0  0  0  0  0  0  0  0  0
   -4.8399    1.4039    1.9032 C   0  0  0  0  0  0  0  0  0  0  0  0
   -3.4854    1.2123    1.5455 N   0  0  0  0  0  0  0  0  0  0  0  0
   -2.9965    0.5849    0.4110 C   0  0  0  0  0  0  0  0  0  0  0  0
   -3.6854    0.0843   -0.4745 O   0  0  0  0  0  0  0  0  0  0  0  0
   -1.4935    0.5348    0.3038 C   0  0  0  0  0  0  0  0  0  0  0  0
   -0.6853    1.1303    1.3095 C   0  0  0  0  0  0  0  0  0  0  0  0
   -0.0985    1.6429    2.1695 N   0  0  0  0  0  0  0  0  0  0  0  0
   -0.9712   -0.1017   -0.7638 C   0  0  0  0  0  0  0  0  0  0  0  0
    0.4609   -0.2655   -1.0305 C   0  0  0  0  0  0  0  0  0  0  0  0
    1.0465   -1.5278   -0.8934 C   0  0  0  0  0  0  0  0  0  0  0  0
    2.4119   -1.7084   -1.1442 C   0  0  0  0  0  0  0  0  0  0  0  0
    3.2009   -0.6286   -1.5407 C   0  0  0  0  0  0  0  0  0  0  0  0
    4.5383   -0.6676   -1.8229 O   0  0  0  0  0  0  0  0  0  0  0  0
    5.2040   -1.9211   -1.6512 C   0  0  0  0  0  0  0  0  0  0  0  0
    6.6624   -1.7993   -2.0174 C   0  0  0  0  0  0  0  0  0  0  0  0
    7.1300   -0.8564   -2.9444 C   0  0  0  0  0  0  0  0  0  0  0  0
    8.4857   -0.8047   -3.2826 C   0  0  0  0  0  0  0  0  0  0  0  0
    9.3874   -1.7016   -2.7106 C   0  0  0  0  0  0  0  0  0  0  0  0
    8.9327   -2.6538   -1.8015 C   0  0  0  0  0  0  0  0  0  0  0  0
    7.5815   -2.6980   -1.4679 C   0  0  0  0  0  0  0  0  0  0  0  0
    7.1634   -3.6310   -0.5990 F   0  0  0  0  0  0  0  0  0  0  0  0
    2.6119    0.6302   -1.6835 C   0  0  0  0  0  0  0  0  0  0  0  0
    1.2499    0.8151   -1.4319 C   0  0  0  0  0  0  0  0  0  0  0  0
   -5.0902    2.0577    3.1152 C   0  0  0  0  0  0  0  0  0  0  0  0
   -6.4015    2.2871    3.5432 C   0  0  0  0  0  0  0  0  0  0  0  0
   -9.8735    2.2573    1.5725 H   0  0  0  0  0  0  0  0  0  0  0  0
   -9.8772    0.6646    2.4267 H   0  0  0  0  0  0  0  0  0  0  0  0
  -10.7418    2.0518    3.0987 H   0  0  0  0  0  0  0  0  0  0  0  0
   -8.0490    0.8769    0.9239 H   0  0  0  0  0  0  0  0  0  0  0  0
   -5.7950    0.4800    0.1831 H   0  0  0  0  0  0  0  0  0  0  0  0
   -2.8254    1.5841    2.2195 H   0  0  0  0  0  0  0  0  0  0  0  0
   -1.6181   -0.5662   -1.5077 H   0  0  0  0  0  0  0  0  0  0  0  0
    0.4485   -2.3840   -0.5876 H   0  0  0  0  0  0  0  0  0  0  0  0
    2.8218   -2.7057   -1.0212 H   0  0  0  0  0  0  0  0  0  0  0  0
    4.7560   -2.6792   -2.3054 H   0  0  0  0  0  0  0  0  0  0  0  0
    5.1208   -2.2252   -0.6010 H   0  0  0  0  0  0  0  0  0  0  0  0
    6.4415   -0.1519   -3.4073 H   0  0  0  0  0  0  0  0  0  0  0  0
    8.8367   -0.0627   -3.9960 H   0  0  0  0  0  0  0  0  0  0  0  0
   10.4407   -1.6595   -2.9756 H   0  0  0  0  0  0  0  0  0  0  0  0
    9.6191   -3.3640   -1.3520 H   0  0  0  0  0  0  0  0  0  0  0  0
    3.2210    1.4766   -1.9931 H   0  0  0  0  0  0  0  0  0  0  0  0
    0.8207    1.8064   -1.5578 H   0  0  0  0  0  0  0  0  0  0  0  0
   -4.2751    2.3987    3.7488 H   0  0  0  0  0  0  0  0  0  0  0  0
   -6.5790    2.7950    4.4885 H   0  0  0  0  0  0  0  0  0  0  0  0
  1  2  1  0
  2  3  1  0
  3  4  2  0
  4  5  1  0
  5  6  2  0
  6  7  1  0
  7  8  1  0
  8  9  2  0
  8 10  1  0
 10 11  1  0
 11 12  3  0
 10 13  2  3
 13 14  1  0
 14 15  2  0
 15 16  1  0
 16 17  2  0
 17 18  1  0
 18 19  1  0
 19 20  1  0
 20 21  2  0
 21 22  1  0
 22 23  2  0
 23 24  1  0
 24 25  2  0
 25 26  1  0
 17 27  1  0
 27 28  2  0
  6 29  1  0
 29 30  2  0
 30  3  1  0
 28 14  1  0
 25 20  1  0
  1 31  1  0
  1 32  1  0
  1 33  1  0
  4 34  1  0
  5 35  1  0
  7 36  1  0
 13 37  1  0
 15 38  1  0
 16 39  1  0
 19 40  1  0
 19 41  1  0
 21 42  1  0
 22 43  1  0
 23 44  1  0
 24 45  1  0
 27 46  1  0
 28 47  1  0
 29 48  1  0
 30 49  1  0
M  END
$$$$
