
     RDKit          3D

 49 51  0  0  0  0  0  0  0  0999 V2000
    6.4052   -2.3635    1.5186 C   0  0  0  0  0  0  0  0  0  0  0  0
    6.2959   -1.1610    0.7719 O   0  0  0  0  0  0  0  0  0  0  0  0
    5.0361   -0.7260    0.4407 C   0  0  0  0  0  0  0  0  0  0  0  0
    3.8537   -1.3895    0.7865 C   0  0  0  0  0  0  0  0  0  0  0  0
    2.6045   -0.8794    0.4004 C   0  0  0  0  0  0  0  0  0  0  0  0
    2.5321    0.3236   -0.3166 C   0  0  0  0  0  0  0  0  0  0  0  0
    3.7214    0.9855   -0.6668 C   0  0  0  0  0  0  0  0  0  0  0  0
    4.9694    0.4723   -0.2952 C   0  0  0  0  0  0  0  0  0  0  0  0
    6.1724    1.0612   -0.5988 O   0  0  0  0  0  0  0  0  0  0  0  0
    6.1466    2.2862   -1.3164 C   0  0  0  0  0  0  0  0  0  0  0  0
    1.2083    0.9206   -0.7470 C   0  0  0  0  0  0  0  0  0  0  0  0
    0.0238    0.2321   -0.2106 N   0  0  0  0  0  0  0  0  0  0  0  0
   -1.2559    0.8314   -0.2731 C   0  0  0  0  0  0  0  0  0  0  0  0
   -1.5656    2.3188   -1.0005 S   0  0  0  0  0  0  0  0  0  0  0  0
   -2.2051    0.0928    0.4310 N   0  0  0  0  0  0  0  0  0  0  0  0
   -3.6121    0.2241    0.3638 C   0  0  0  0  0  0  0  0  0  0  0  0
   -4.2907    0.3799    1.5801 C   0  0  0  0  0  0  0  0  0  0  0  0
   -5.6796    0.5179    1.6115 C   0  0  0  0  0  0  0  0  0  0  0  0
   -6.4181    0.4684    0.4287 C   0  0  0  0  0  0  0  0  0  0  0  0
   -7.9048    0.6654    0.4477 C   0  0  0  0  0  0  0  0  0  0  0  0
   -5.7434    0.2763   -0.7833 C   0  0  0  0  0  0  0  0  0  0  0  0
   -4.3449    0.1155   -0.8307 C   0  0  0  0  0  0  0  0  0  0  0  0
   -3.7305   -0.2058   -2.1654 C   0  0  0  0  0  0  0  0  0  0  0  0
    0.1754   -1.2264   -0.1084 C   0  0  0  0  0  0  0  0  0  0  0  0
    1.3418   -1.5945    0.8038 C   0  0  0  0  0  0  0  0  0  0  0  0
    6.0013   -3.2141    0.9597 H   0  0  0  0  0  0  0  0  0  0  0  0
    7.4688   -2.5550    1.6907 H   0  0  0  0  0  0  0  0  0  0  0  0
    5.9231   -2.2666    2.4969 H   0  0  0  0  0  0  0  0  0  0  0  0
    3.8764   -2.3114    1.3585 H   0  0  0  0  0  0  0  0  0  0  0  0
    3.6434    1.9093   -1.2322 H   0  0  0  0  0  0  0  0  0  0  0  0
    5.6271    3.0660   -0.7498 H   0  0  0  0  0  0  0  0  0  0  0  0
    5.7023    2.1535   -2.3083 H   0  0  0  0  0  0  0  0  0  0  0  0
    7.1814    2.6129   -1.4578 H   0  0  0  0  0  0  0  0  0  0  0  0
    1.1855    1.9673   -0.4245 H   0  0  0  0  0  0  0  0  0  0  0  0
    1.1431    0.8814   -1.8414 H   0  0  0  0  0  0  0  0  0  0  0  0
   -1.8507   -0.1321    1.3529 H   0  0  0  0  0  0  0  0  0  0  0  0
   -3.7429    0.4379    2.5169 H   0  0  0  0  0  0  0  0  0  0  0  0
   -6.1779    0.6737    2.5655 H   0  0  0  0  0  0  0  0  0  0  0  0
   -8.3847    0.0908   -0.3514 H   0  0  0  0  0  0  0  0  0  0  0  0
   -8.1432    1.7252    0.3150 H   0  0  0  0  0  0  0  0  0  0  0  0
   -8.3333    0.3229    1.3955 H   0  0  0  0  0  0  0  0  0  0  0  0
   -6.3159    0.2292   -1.7088 H   0  0  0  0  0  0  0  0  0  0  0  0
   -2.7606   -0.7013   -2.0658 H   0  0  0  0  0  0  0  0  0  0  0  0
   -3.6181    0.7016   -2.7651 H   0  0  0  0  0  0  0  0  0  0  0  0
   -4.3715   -0.9031   -2.7175 H   0  0  0  0  0  0  0  0  0  0  0  0
    0.3445   -1.6008   -1.1268 H   0  0  0  0  0  0  0  0  0  0  0  0
   -0.7328   -1.7166    0.2519 H   0  0  0  0  0  0  0  0  0  0  0  0
    1.1060   -1.3170    1.8384 H   0  0  0  0  0  0  0  0  0  0  0  0
    1.4927   -2.6796    0.7682 H   0  0  0  0  0  0  0  0  0  0  0  0
  1  2  1  0
  2  3  1  0
  3  4  2  0
  4  5  1  0
  5  6  2  0
  6  7  1  0
  7  8  2  0
  8  9  1  0
  9 10  1  0
  6 11  1  0
 11 12  1  0
 12 13  1  0
 13 14  2  0
 13 15  1  0
 15 16  1  0
 16 17  2  0
 17 18  1  0
 18 19  2  0
 19 20  1  0
 19 21  1  0
 21 22  2  0
 22 23  1  0
 12 24  1  0
 24 25  1  0
  8  3  1  0
 22 16  1  0
 25  5  1  0
  1 26  1  0
  1 27  1  0
  1 28  1  0
  4 29  1  0
  7 30  1  0
 10 31  1  0
 10 32  1  0
 10 33  1  0
 11 34  1  0
 11 35  1  0
 15 36  1  0
 17 37  1  0
 18 38  1  0
 20 39  1  0
 20 40  1  0
 20 41  1  0
 21 42  1  0
 23 43  1  0
 23 44  1  0
 23 45  1  0
 24 46  1  0
 24 47  1  0
 25 48  1  0
 25 49  1  0
M  END
$$$$
