
     RDKit          3D

 51 54  0  0  0  0  0  0  0  0999 V2000
    0.1700    2.0865    0.0320 O   0  0  0  0  0  0  0  0  0  0  0  0
   -0.4066    1.0985   -0.4321 C   0  0  0  0  0  0  0  0  0  0  0  0
    0.3389   -0.1678   -0.5540 C   0  0  0  0  0  0  0  0  0  0  0  0
    1.5463   -0.4833    0.1336 C   0  0  0  0  0  0  0  0  0  0  0  0
    1.9055   -1.7277   -0.3238 C   0  0  0  0  0  0  0  0  0  0  0  0
    3.0280   -2.6614   -0.0788 C   0  0  0  0  0  0  0  0  0  0  0  0
    3.8749   -2.1330    0.9456 O   0  0  0  0  0  0  0  0  0  0  0  0
    4.9661   -1.3977    0.5737 C   0  0  0  0  0  0  0  0  0  0  0  0
    5.9186   -1.2235    1.5805 C   0  0  0  0  0  0  0  0  0  0  0  0
    7.0762   -0.4828    1.3456 C   0  0  0  0  0  0  0  0  0  0  0  0
    7.2850    0.1019    0.0984 C   0  0  0  0  0  0  0  0  0  0  0  0
    6.3307   -0.0420   -0.9194 C   0  0  0  0  0  0  0  0  0  0  0  0
    6.5476    0.5820   -2.2762 C   0  0  0  0  0  0  0  0  0  0  0  0
    5.4181    1.1516   -2.7825 F   0  0  0  0  0  0  0  0  0  0  0  0
    6.9521   -0.3314   -3.2019 F   0  0  0  0  0  0  0  0  0  0  0  0
    7.4938    1.5621   -2.2800 F   0  0  0  0  0  0  0  0  0  0  0  0
    5.1708   -0.8011   -0.6716 C   0  0  0  0  0  0  0  0  0  0  0  0
    0.9696   -2.1498   -1.2141 O   0  0  0  0  0  0  0  0  0  0  0  0
    0.0015   -1.1801   -1.3704 N   0  0  0  0  0  0  0  0  0  0  0  0
   -1.7572    1.1745   -0.8188 N   0  0  0  0  0  0  0  0  0  0  0  0
   -2.4652    2.4386   -0.6373 C   0  0  0  0  0  0  0  0  0  0  0  0
   -3.6155    2.2408    0.3411 C   0  0  0  0  0  0  0  0  0  0  0  0
   -4.6376    1.2204   -0.1944 C   0  0  0  0  0  0  0  0  0  0  0  0
   -5.2821    0.4402    0.9392 C   0  0  0  0  0  0  0  0  0  0  0  0
   -6.6079    0.7017    1.3032 C   0  0  0  0  0  0  0  0  0  0  0  0
   -7.1722   -0.0122    2.3505 C   0  0  0  0  0  0  0  0  0  0  0  0
   -6.5167   -0.9574    3.0545 N   0  0  0  0  0  0  0  0  0  0  0  0
   -5.2377   -1.1924    2.6984 C   0  0  0  0  0  0  0  0  0  0  0  0
   -4.5867   -0.5298    1.6678 C   0  0  0  0  0  0  0  0  0  0  0  0
   -4.0688    0.3264   -1.3169 C   0  0  0  0  0  0  0  0  0  0  0  0
   -2.5739    0.0189   -1.1941 C   0  0  0  0  0  0  0  0  0  0  0  0
    2.0837    0.1379    0.8355 H   0  0  0  0  0  0  0  0  0  0  0  0
    2.6229   -3.6045    0.3055 H   0  0  0  0  0  0  0  0  0  0  0  0
    3.5763   -2.9093   -0.9943 H   0  0  0  0  0  0  0  0  0  0  0  0
    5.7588   -1.6735    2.5581 H   0  0  0  0  0  0  0  0  0  0  0  0
    7.8127   -0.3607    2.1364 H   0  0  0  0  0  0  0  0  0  0  0  0
    8.1927    0.6787   -0.0737 H   0  0  0  0  0  0  0  0  0  0  0  0
    4.4367   -0.8875   -1.4691 H   0  0  0  0  0  0  0  0  0  0  0  0
   -2.8299    2.7671   -1.6182 H   0  0  0  0  0  0  0  0  0  0  0  0
   -1.8010    3.2251   -0.2662 H   0  0  0  0  0  0  0  0  0  0  0  0
   -4.1181    3.1980    0.5262 H   0  0  0  0  0  0  0  0  0  0  0  0
   -3.2034    1.9209    1.3069 H   0  0  0  0  0  0  0  0  0  0  0  0
   -5.4385    1.8007   -0.6763 H   0  0  0  0  0  0  0  0  0  0  0  0
   -7.2001    1.4506    0.7892 H   0  0  0  0  0  0  0  0  0  0  0  0
   -8.1984    0.1653    2.6590 H   0  0  0  0  0  0  0  0  0  0  0  0
   -4.7273   -1.9492    3.2881 H   0  0  0  0  0  0  0  0  0  0  0  0
   -3.5520   -0.7704    1.4584 H   0  0  0  0  0  0  0  0  0  0  0  0
   -4.2101    0.8607   -2.2671 H   0  0  0  0  0  0  0  0  0  0  0  0
   -4.6371   -0.6063   -1.4187 H   0  0  0  0  0  0  0  0  0  0  0  0
   -2.4128   -0.7770   -0.4592 H   0  0  0  0  0  0  0  0  0  0  0  0
   -2.2207   -0.3374   -2.1674 H   0  0  0  0  0  0  0  0  0  0  0  0
  1  2  2  0
  2  3  1  0
  3  4  1  0
  4  5  2  0
  5  6  1  0
  6  7  1  0
  7  8  1  0
  8  9  2  0
  9 10  1  0
 10 11  2  0
 11 12  1  0
 12 13  1  0
 13 14  1  0
 13 15  1  0
 13 16  1  0
 12 17  2  0
  5 18  1  0
 18 19  1  0
  2 20  1  0
 20 21  1  0
 21 22  1  0
 22 23  1  0
 23 24  1  0
 24 25  2  0
 25 26  1  0
 26 27  2  0
 27 28  1  0
 28 29  2  0
 23 30  1  0
 30 31  1  0
 19  3  2  0
 31 20  1  0
 17  8  1  0
 29 24  1  0
  4 32  1  0
  6 33  1  0
  6 34  1  0
  9 35  1  0
 10 36  1  0
 11 37  1  0
 17 38  1  0
 21 39  1  0
 21 40  1  0
 22 41  1  0
 22 42  1  0
 23 43  1  0
 25 44  1  0
 26 45  1  0
 28 46  1  0
 29 47  1  0
 30 48  1  0
 30 49  1  0
 31 50  1  0
 31 51  1  0
M  END
$$$$
