
     RDKit          3D

 40 41  0  0  0  0  0  0  0  0999 V2000
   -5.0932   -2.4214   -1.4298 C   0  0  0  0  0  0  0  0  0  0  0  0
   -4.5540   -1.3108   -0.6501 N   0  0  0  0  0  0  0  0  0  0  0  0
   -3.5621   -0.5522   -1.4329 C   0  0  0  0  0  0  0  0  0  0  0  0
   -2.6860    0.3677   -0.5632 C   0  0  0  0  0  0  0  0  0  0  0  0
   -1.9573   -0.3768    0.4707 N   0  0  0  0  0  0  0  0  0  0  0  0
   -0.8145    0.0785    1.1216 C   0  0  0  0  0  0  0  0  0  0  0  0
   -0.2051   -0.6435    1.9124 O   0  0  0  0  0  0  0  0  0  0  0  0
   -0.3606    1.4949    0.7714 C   0  0  0  0  0  0  0  0  0  0  0  0
    0.8279    2.1884    1.9734 S   0  0  0  0  0  0  0  0  0  0  0  0
    2.3561    1.5299    1.3208 C   0  0  0  0  0  0  0  0  0  0  0  0
    2.8315    0.3276    1.8606 C   0  0  0  0  0  0  0  0  0  0  0  0
    4.0474   -0.2275    1.4383 C   0  0  0  0  0  0  0  0  0  0  0  0
    4.8325    0.4105    0.4666 C   0  0  0  0  0  0  0  0  0  0  0  0
    6.1559   -0.1776    0.0360 C   0  0  0  0  0  0  0  0  0  0  0  0
    6.4661    0.1186   -1.2563 F   0  0  0  0  0  0  0  0  0  0  0  0
    6.1926   -1.5349    0.1267 F   0  0  0  0  0  0  0  0  0  0  0  0
    7.1922    0.2812    0.7872 F   0  0  0  0  0  0  0  0  0  0  0  0
    4.3818    1.6263   -0.0661 C   0  0  0  0  0  0  0  0  0  0  0  0
    3.1561    2.1644    0.3619 C   0  0  0  0  0  0  0  0  0  0  0  0
    2.7465    3.4200   -0.2339 N   0  0  0  0  0  4  0  0  0  0  0  0
    1.7574    3.3963   -0.9797 O   0  0  0  0  0  0  0  0  0  0  0  0
    3.4530    4.4089    0.0005 O   0  0  0  0  0  1  0  0  0  0  0  0
   -2.4958   -1.6966    0.8093 C   0  0  0  0  0  0  0  0  0  0  0  0
   -4.0276   -1.7566    0.6568 C   0  0  0  0  0  0  0  0  0  0  0  0
   -4.3293   -3.1738   -1.6566 H   0  0  0  0  0  0  0  0  0  0  0  0
   -5.9103   -2.9104   -0.8880 H   0  0  0  0  0  0  0  0  0  0  0  0
   -5.5153   -2.0609   -2.3745 H   0  0  0  0  0  0  0  0  0  0  0  0
   -2.8988   -1.2394   -1.9759 H   0  0  0  0  0  0  0  0  0  0  0  0
   -4.0843    0.0553   -2.1811 H   0  0  0  0  0  0  0  0  0  0  0  0
   -1.9730    0.9013   -1.1992 H   0  0  0  0  0  0  0  0  0  0  0  0
   -3.3057    1.1139   -0.0520 H   0  0  0  0  0  0  0  0  0  0  0  0
   -1.2282    2.1609    0.7858 H   0  0  0  0  0  0  0  0  0  0  0  0
    0.0671    1.4908   -0.2345 H   0  0  0  0  0  0  0  0  0  0  0  0
    2.2564   -0.1970    2.6249 H   0  0  0  0  0  0  0  0  0  0  0  0
    4.3788   -1.1669    1.8824 H   0  0  0  0  0  0  0  0  0  0  0  0
    4.9825    2.1521   -0.8087 H   0  0  0  0  0  0  0  0  0  0  0  0
   -2.2190   -1.9652    1.8346 H   0  0  0  0  0  0  0  0  0  0  0  0
   -2.0193   -2.4215    0.1384 H   0  0  0  0  0  0  0  0  0  0  0  0
   -4.3775   -2.7645    0.9124 H   0  0  0  0  0  0  0  0  0  0  0  0
   -4.4649   -1.0896    1.4110 H   0  0  0  0  0  0  0  0  0  0  0  0
  1  2  1  0
  2  3  1  0
  3  4  1  0
  4  5  1  0
  5  6  1  0
  6  7  2  0
  6  8  1  0
  8  9  1  0
  9 10  1  0
 10 11  2  0
 11 12  1  0
 12 13  2  0
 13 14  1  0
 14 15  1  0
 14 16  1  0
 14 17  1  0
 13 18  1  0
 18 19  2  0
 19 20  1  0
 20 21  2  0
 20 22  1  0
  5 23  1  0
 23 24  1  0
 24  2  1  0
 19 10  1  0
  1 25  1  0
  1 26  1  0
  1 27  1  0
  3 28  1  0
  3 29  1  0
  4 30  1  0
  4 31  1  0
  8 32  1  0
  8 33  1  0
 11 34  1  0
 12 35  1  0
 18 36  1  0
 23 37  1  0
 23 38  1  0
 24 39  1  0
 24 40  1  0
M  CHG  2  20   1  22  -1
M  END
$$$$
