
     RDKit          3D

 51 53  0  0  0  0  0  0  0  0999 V2000
   -2.3033    5.3907   -1.1476 C   0  0  0  0  0  0  0  0  0  0  0  0
   -0.9147    4.7796   -1.0143 C   0  0  0  0  0  0  0  0  0  0  0  0
   -0.3826    4.1612   -2.3101 C   0  0  0  0  0  0  0  0  0  0  0  0
   -1.3326    2.7085   -2.8864 S   0  0  0  0  0  0  0  0  0  0  0  0
   -0.7005    1.4117   -1.8274 C   0  0  0  0  0  0  0  0  0  0  0  0
   -1.1889    0.1337   -1.9991 C   0  0  0  0  0  0  0  0  0  0  0  0
   -0.6978   -0.8573   -1.1734 C   0  0  0  0  0  0  0  0  0  0  0  0
   -1.1264   -2.1724   -1.2862 N   0  0  0  0  0  0  0  0  0  0  0  0
   -0.4592   -3.1710   -0.4359 C   0  0  0  0  0  0  0  0  0  0  0  0
   -0.8584   -4.5923   -0.8926 C   0  0  0  0  0  0  0  0  0  0  0  0
   -2.3082   -4.8776   -0.7967 N   0  0  0  0  0  0  0  0  0  0  0  0
   -2.7118   -5.8389   -1.8190 C   0  0  0  0  0  0  0  0  0  0  0  0
   -3.1103   -3.6392   -0.8561 C   0  0  0  0  0  0  0  0  0  0  0  0
   -2.5108   -2.4774   -1.6856 C   0  0  0  0  0  0  0  0  0  0  0  0
    0.2458   -0.5660   -0.2626 N   0  0  0  0  0  0  0  0  0  0  0  0
    0.6707    0.7067   -0.1558 C   0  0  0  0  0  0  0  0  0  0  0  0
    1.6941    1.0074    0.8669 C   0  0  0  0  0  0  0  0  0  0  0  0
    2.2597   -0.0060    1.6638 C   0  0  0  0  0  0  0  0  0  0  0  0
    3.2305    0.2725    2.6380 C   0  0  0  0  0  0  0  0  0  0  0  0
    3.6621    1.5800    2.8427 C   0  0  0  0  0  0  0  0  0  0  0  0
    4.5963    1.9890    3.7532 O   0  0  0  0  0  0  0  0  0  0  0  0
    5.1812    0.9820    4.5694 C   0  0  0  0  0  0  0  0  0  0  0  0
    3.1154    2.6004    2.0660 C   0  0  0  0  0  0  0  0  0  0  0  0
    2.1478    2.3194    1.0936 C   0  0  0  0  0  0  0  0  0  0  0  0
    0.2245    1.7204   -0.9115 N   0  0  0  0  0  0  0  0  0  0  0  0
   -2.6026    5.8543   -0.2024 H   0  0  0  0  0  0  0  0  0  0  0  0
   -2.3153    6.1664   -1.9205 H   0  0  0  0  0  0  0  0  0  0  0  0
   -3.0554    4.6388   -1.4040 H   0  0  0  0  0  0  0  0  0  0  0  0
   -0.2223    5.5762   -0.7090 H   0  0  0  0  0  0  0  0  0  0  0  0
   -0.9165    4.0460   -0.1996 H   0  0  0  0  0  0  0  0  0  0  0  0
    0.6751    3.8983   -2.2003 H   0  0  0  0  0  0  0  0  0  0  0  0
   -0.4299    4.9097   -3.1094 H   0  0  0  0  0  0  0  0  0  0  0  0
   -1.9151   -0.0791   -2.7714 H   0  0  0  0  0  0  0  0  0  0  0  0
    0.6312   -3.0852   -0.5251 H   0  0  0  0  0  0  0  0  0  0  0  0
   -0.7287   -3.0219    0.6178 H   0  0  0  0  0  0  0  0  0  0  0  0
   -0.3195   -5.3310   -0.2884 H   0  0  0  0  0  0  0  0  0  0  0  0
   -0.5135   -4.7113   -1.9295 H   0  0  0  0  0  0  0  0  0  0  0  0
   -2.1162   -6.7556   -1.7423 H   0  0  0  0  0  0  0  0  0  0  0  0
   -3.7579   -6.1325   -1.6784 H   0  0  0  0  0  0  0  0  0  0  0  0
   -2.6007   -5.4368   -2.8322 H   0  0  0  0  0  0  0  0  0  0  0  0
   -3.2228   -3.2860    0.1783 H   0  0  0  0  0  0  0  0  0  0  0  0
   -4.1315   -3.8478   -1.2006 H   0  0  0  0  0  0  0  0  0  0  0  0
   -2.5181   -2.7411   -2.7499 H   0  0  0  0  0  0  0  0  0  0  0  0
   -3.1706   -1.6118   -1.5506 H   0  0  0  0  0  0  0  0  0  0  0  0
    1.9422   -1.0403    1.5292 H   0  0  0  0  0  0  0  0  0  0  0  0
    3.6223   -0.5579    3.2150 H   0  0  0  0  0  0  0  0  0  0  0  0
    4.4266    0.4936    5.1950 H   0  0  0  0  0  0  0  0  0  0  0  0
    5.7273    0.2511    3.9641 H   0  0  0  0  0  0  0  0  0  0  0  0
    5.9018    1.4676    5.2352 H   0  0  0  0  0  0  0  0  0  0  0  0
    3.4417    3.6267    2.2168 H   0  0  0  0  0  0  0  0  0  0  0  0
    1.7460    3.1450    0.5092 H   0  0  0  0  0  0  0  0  0  0  0  0
  1  2  1  0
  2  3  1  0
  3  4  1  0
  4  5  1  0
  5  6  2  0
  6  7  1  0
  7  8  1  0
  8  9  1  0
  9 10  1  0
 10 11  1  0
 11 12  1  0
 11 13  1  0
 13 14  1  0
  7 15  2  0
 15 16  1  0
 16 17  1  0
 17 18  2  0
 18 19  1  0
 19 20  2  0
 20 21  1  0
 21 22  1  0
 20 23  1  0
 23 24  2  0
 16 25  2  0
 25  5  1  0
 14  8  1  0
 24 17  1  0
  1 26  1  0
  1 27  1  0
  1 28  1  0
  2 29  1  0
  2 30  1  0
  3 31  1  0
  3 32  1  0
  6 33  1  0
  9 34  1  0
  9 35  1  0
 10 36  1  0
 10 37  1  0
 12 38  1  0
 12 39  1  0
 12 40  1  0
 13 41  1  0
 13 42  1  0
 14 43  1  0
 14 44  1  0
 18 45  1  0
 19 46  1  0
 22 47  1  0
 22 48  1  0
 22 49  1  0
 23 50  1  0
 24 51  1  0
M  END
$$$$
