
     RDKit          3D

 52 56  0  0  0  0  0  0  0  0999 V2000
   -3.1585   -2.0162   -0.3338 O   0  0  0  0  0  0  0  0  0  0  0  0
   -3.5937   -1.0030   -0.8564 C   0  0  0  0  0  0  0  0  0  0  0  0
   -4.9177   -0.8439   -1.1521 O   0  0  0  0  0  0  0  0  0  0  0  0
   -5.0627    0.3006   -1.9947 C   0  0  0  0  0  0  0  0  0  0  0  0
   -3.7452    1.0257   -1.9227 C   0  0  0  0  0  0  0  0  0  0  0  0
   -2.8832    0.1243   -1.2211 N   0  0  0  0  0  0  0  0  0  0  0  0
   -1.5069    0.2272   -1.3304 C   0  0  0  0  0  0  0  0  0  0  0  0
   -1.0041    0.8418   -2.2800 O   0  0  0  0  0  0  0  0  0  0  0  0
   -0.6374   -0.4200   -0.2239 C   0  0  0  0  0  0  0  0  0  0  0  0
    0.7950   -0.6441   -0.7566 C   0  0  0  0  0  0  0  0  0  0  0  0
    1.4252   -1.9307   -0.2435 C   0  0  0  0  0  0  0  0  0  0  0  0
    1.6988   -2.9727   -1.1474 C   0  0  0  0  0  0  0  0  0  0  0  0
    2.2726   -4.1653   -0.7024 C   0  0  0  0  0  0  0  0  0  0  0  0
    2.5665   -4.3253    0.6458 C   0  0  0  0  0  0  0  0  0  0  0  0
    3.1143   -5.4718    1.0696 F   0  0  0  0  0  0  0  0  0  0  0  0
    2.2956   -3.3144    1.5596 C   0  0  0  0  0  0  0  0  0  0  0  0
    1.7236   -2.1197    1.1180 C   0  0  0  0  0  0  0  0  0  0  0  0
    1.4565    0.6066   -0.2045 C   0  0  0  0  0  0  0  0  0  0  0  0
    2.8053    1.0585   -0.6350 C   0  0  0  0  0  0  0  0  0  0  0  0
    3.3950    2.1427    0.0311 C   0  0  0  0  0  0  0  0  0  0  0  0
    4.6652    2.5933   -0.3334 C   0  0  0  0  0  0  0  0  0  0  0  0
    5.3532    1.9664   -1.3704 C   0  0  0  0  0  0  0  0  0  0  0  0
    4.7676    0.8911   -2.0345 C   0  0  0  0  0  0  0  0  0  0  0  0
    5.6177    0.1190   -3.3173 Cl  0  0  0  0  0  0  0  0  0  0  0  0
    3.4976    0.4352   -1.6772 C   0  0  0  0  0  0  0  0  0  0  0  0
    0.7600    1.2460    0.6905 N   0  0  0  0  0  0  0  0  0  0  0  0
   -0.4113    0.5654    0.8479 N   0  0  0  0  0  0  0  0  0  0  0  0
   -1.3975    1.0362    1.7122 C   0  0  0  0  0  0  0  0  0  0  0  0
   -1.3605    2.3488    2.2095 C   0  0  0  0  0  0  0  0  0  0  0  0
   -2.3475    2.8372    3.0722 C   0  0  0  0  0  0  0  0  0  0  0  0
   -3.3913    2.0096    3.4738 C   0  0  0  0  0  0  0  0  0  0  0  0
   -3.4364    0.6963    3.0212 C   0  0  0  0  0  0  0  0  0  0  0  0
   -2.4462    0.2170    2.1555 C   0  0  0  0  0  0  0  0  0  0  0  0
   -5.2858   -0.0419   -3.0124 H   0  0  0  0  0  0  0  0  0  0  0  0
   -5.8946    0.9198   -1.6415 H   0  0  0  0  0  0  0  0  0  0  0  0
   -3.8270    1.9480   -1.3345 H   0  0  0  0  0  0  0  0  0  0  0  0
   -3.3615    1.2898   -2.9138 H   0  0  0  0  0  0  0  0  0  0  0  0
   -1.0586   -1.3512    0.1494 H   0  0  0  0  0  0  0  0  0  0  0  0
    0.8351   -0.6327   -1.8507 H   0  0  0  0  0  0  0  0  0  0  0  0
    1.4689   -2.8668   -2.2060 H   0  0  0  0  0  0  0  0  0  0  0  0
    2.4881   -4.9708   -1.3981 H   0  0  0  0  0  0  0  0  0  0  0  0
    2.5276   -3.4637    2.6098 H   0  0  0  0  0  0  0  0  0  0  0  0
    1.5124   -1.3398    1.8511 H   0  0  0  0  0  0  0  0  0  0  0  0
    2.8696    2.6410    0.8448 H   0  0  0  0  0  0  0  0  0  0  0  0
    5.1165    3.4295    0.1938 H   0  0  0  0  0  0  0  0  0  0  0  0
    6.3427    2.3193   -1.6534 H   0  0  0  0  0  0  0  0  0  0  0  0
    3.0726   -0.3998   -2.2226 H   0  0  0  0  0  0  0  0  0  0  0  0
   -0.5509    3.0127    1.9105 H   0  0  0  0  0  0  0  0  0  0  0  0
   -2.2904    3.8610    3.4330 H   0  0  0  0  0  0  0  0  0  0  0  0
   -4.1542    2.3807    4.1521 H   0  0  0  0  0  0  0  0  0  0  0  0
   -4.2300    0.0321    3.3527 H   0  0  0  0  0  0  0  0  0  0  0  0
   -2.4904   -0.8294    1.8668 H   0  0  0  0  0  0  0  0  0  0  0  0
  1  2  2  0
  2  3  1  0
  3  4  1  0
  4  5  1  0
  5  6  1  0
  6  7  1  0
  7  8  2  0
  7  9  1  0
  9 10  1  0
 10 11  1  0
 11 12  2  0
 12 13  1  0
 13 14  2  0
 14 15  1  0
 14 16  1  0
 16 17  2  0
 10 18  1  0
 18 19  1  0
 19 20  2  0
 20 21  1  0
 21 22  2  0
 22 23  1  0
 23 24  1  0
 23 25  2  0
 18 26  2  0
 26 27  1  0
 27 28  1  0
 28 29  2  0
 29 30  1  0
 30 31  2  0
 31 32  1  0
 32 33  2  0
  6  2  1  0
 27  9  1  0
 33 28  1  0
 17 11  1  0
 25 19  1  0
  4 34  1  0
  4 35  1  0
  5 36  1  0
  5 37  1  0
  9 38  1  0
 10 39  1  0
 12 40  1  0
 13 41  1  0
 16 42  1  0
 17 43  1  0
 20 44  1  0
 21 45  1  0
 22 46  1  0
 25 47  1  0
 29 48  1  0
 30 49  1  0
 31 50  1  0
 32 51  1  0
 33 52  1  0
M  END
$$$$
