
     RDKit          3D

 60 64  0  0  0  0  0  0  0  0999 V2000
    4.0205    2.1454   -2.4455 C   0  0  0  0  0  0  0  0  0  0  0  0
    4.1813    1.2004   -1.3965 O   0  0  0  0  0  0  0  0  0  0  0  0
    5.3513    0.4857   -1.3450 C   0  0  0  0  0  0  0  0  0  0  0  0
    6.4542    0.7493   -2.1717 C   0  0  0  0  0  0  0  0  0  0  0  0
    7.6376    0.0184   -2.0409 C   0  0  0  0  0  0  0  0  0  0  0  0
    7.7381   -0.9800   -1.0804 C   0  0  0  0  0  0  0  0  0  0  0  0
    6.6492   -1.2516   -0.2524 C   0  0  0  0  0  0  0  0  0  0  0  0
    5.4416   -0.5363   -0.3751 C   0  0  0  0  0  0  0  0  0  0  0  0
    4.3491   -0.8939    0.5312 C   0  0  0  0  0  0  0  0  0  0  0  0
    4.4201   -1.4500    1.7261 N   0  0  0  0  0  0  0  0  0  0  0  0
    3.0984   -1.5846    2.0941 C   0  0  0  0  0  0  0  0  0  0  0  0
    2.7541   -2.1278    3.3657 C   0  0  0  0  0  0  0  0  0  0  0  0
    2.4499   -2.5669    4.3982 N   0  0  0  0  0  0  0  0  0  0  0  0
    2.2545   -1.1310    1.0961 C   0  0  0  0  0  0  0  0  0  0  0  0
    0.9149   -1.0259    0.8819 N   0  0  0  0  0  0  0  0  0  0  0  0
   -0.0716   -1.3902    1.9023 C   0  0  0  0  0  0  0  0  0  0  0  0
   -1.4567   -1.7232    1.2882 C   0  0  0  0  0  0  0  0  0  0  0  0
   -1.9254   -0.8385    0.2121 N   0  0  0  0  0  0  0  0  0  0  0  0
   -3.3736   -0.5451    0.2318 C   0  0  0  0  0  0  0  0  0  0  0  0
   -3.7534    0.5586    1.2309 C   0  0  0  0  0  0  0  0  0  0  0  0
   -4.2149    0.2181    2.5141 C   0  0  0  0  0  0  0  0  0  0  0  0
   -4.5601    1.2074    3.4377 C   0  0  0  0  0  0  0  0  0  0  0  0
   -4.4513    2.5524    3.0938 C   0  0  0  0  0  0  0  0  0  0  0  0
   -3.9979    2.9113    1.8271 C   0  0  0  0  0  0  0  0  0  0  0  0
   -3.6505    1.9235    0.9038 C   0  0  0  0  0  0  0  0  0  0  0  0
   -3.9826   -0.3822   -1.1778 C   0  0  0  0  0  0  0  0  0  0  0  0
   -5.2816    0.1369   -1.3445 C   0  0  0  0  0  0  0  0  0  0  0  0
   -5.8640    0.2421   -2.6109 C   0  0  0  0  0  0  0  0  0  0  0  0
   -5.1722   -0.1947   -3.7364 C   0  0  0  0  0  0  0  0  0  0  0  0
   -3.9019   -0.7444   -3.5950 C   0  0  0  0  0  0  0  0  0  0  0  0
   -3.3187   -0.8471   -2.3287 C   0  0  0  0  0  0  0  0  0  0  0  0
   -1.0175    0.2827   -0.0354 C   0  0  0  0  0  0  0  0  0  0  0  0
    0.4340   -0.2024   -0.2424 C   0  0  0  0  0  0  0  0  0  0  0  0
    3.0726   -0.7010    0.0823 O   0  0  0  0  0  0  0  0  0  0  0  0
    3.0139    2.5658   -2.3627 H   0  0  0  0  0  0  0  0  0  0  0  0
    4.1009    1.6659   -3.4263 H   0  0  0  0  0  0  0  0  0  0  0  0
    4.7329    2.9703   -2.3452 H   0  0  0  0  0  0  0  0  0  0  0  0
    6.4304    1.5306   -2.9246 H   0  0  0  0  0  0  0  0  0  0  0  0
    8.4851    0.2378   -2.6861 H   0  0  0  0  0  0  0  0  0  0  0  0
    8.6603   -1.5456   -0.9721 H   0  0  0  0  0  0  0  0  0  0  0  0
    6.7408   -2.0359    0.4984 H   0  0  0  0  0  0  0  0  0  0  0  0
   -0.1734   -0.5630    2.6157 H   0  0  0  0  0  0  0  0  0  0  0  0
    0.2477   -2.2764    2.4593 H   0  0  0  0  0  0  0  0  0  0  0  0
   -1.4030   -2.7334    0.8619 H   0  0  0  0  0  0  0  0  0  0  0  0
   -2.1716   -1.7825    2.1164 H   0  0  0  0  0  0  0  0  0  0  0  0
   -3.8747   -1.4641    0.5741 H   0  0  0  0  0  0  0  0  0  0  0  0
   -4.3147   -0.8249    2.8044 H   0  0  0  0  0  0  0  0  0  0  0  0
   -4.9191    0.9255    4.4249 H   0  0  0  0  0  0  0  0  0  0  0  0
   -4.7223    3.3223    3.8118 H   0  0  0  0  0  0  0  0  0  0  0  0
   -3.9184    3.9601    1.5547 H   0  0  0  0  0  0  0  0  0  0  0  0
   -3.3053    2.2253   -0.0832 H   0  0  0  0  0  0  0  0  0  0  0  0
   -5.8606    0.4657   -0.4826 H   0  0  0  0  0  0  0  0  0  0  0  0
   -6.8632    0.6576   -2.7141 H   0  0  0  0  0  0  0  0  0  0  0  0
   -5.6280   -0.1179   -4.7199 H   0  0  0  0  0  0  0  0  0  0  0  0
   -3.3665   -1.1099   -4.4682 H   0  0  0  0  0  0  0  0  0  0  0  0
   -2.3366   -1.3083   -2.2486 H   0  0  0  0  0  0  0  0  0  0  0  0
   -1.3168    0.8366   -0.9323 H   0  0  0  0  0  0  0  0  0  0  0  0
   -1.0261    0.9873    0.8051 H   0  0  0  0  0  0  0  0  0  0  0  0
    0.4975   -0.7915   -1.1654 H   0  0  0  0  0  0  0  0  0  0  0  0
    1.0634    0.6875   -0.3714 H   0  0  0  0  0  0  0  0  0  0  0  0
  1  2  1  0
  2  3  1  0
  3  4  2  0
  4  5  1  0
  5  6  2  0
  6  7  1  0
  7  8  2  0
  8  9  1  0
  9 10  2  0
 10 11  1  0
 11 12  1  0
 12 13  3  0
 11 14  2  0
 14 15  1  0
 15 16  1  0
 16 17  1  0
 17 18  1  0
 18 19  1  0
 19 20  1  0
 20 21  2  0
 21 22  1  0
 22 23  2  0
 23 24  1  0
 24 25  2  0
 19 26  1  0
 26 27  2  0
 27 28  1  0
 28 29  2  0
 29 30  1  0
 30 31  2  0
 18 32  1  0
 32 33  1  0
 14 34  1  0
  8  3  1  0
 34  9  1  0
 33 15  1  0
 25 20  1  0
 31 26  1  0
  1 35  1  0
  1 36  1  0
  1 37  1  0
  4 38  1  0
  5 39  1  0
  6 40  1  0
  7 41  1  0
 16 42  1  0
 16 43  1  0
 17 44  1  0
 17 45  1  0
 19 46  1  0
 21 47  1  0
 22 48  1  0
 23 49  1  0
 24 50  1  0
 25 51  1  0
 27 52  1  0
 28 53  1  0
 29 54  1  0
 30 55  1  0
 31 56  1  0
 32 57  1  0
 32 58  1  0
 33 59  1  0
 33 60  1  0
M  END
$$$$
