
     RDKit          3D

 35 37  0  0  0  0  0  0  0  0999 V2000
    1.1437   -0.4031   -2.8200 O   0  0  0  0  0  0  0  0  0  0  0  0
    1.9254   -0.1492   -1.7772 C   0  0  0  0  0  0  0  0  0  0  0  0
    3.2662    0.0314   -1.9547 N   0  0  0  0  0  0  0  0  0  0  0  0
    3.8785    0.2811   -0.7488 C   0  0  0  0  0  0  0  0  0  0  0  0
    5.2254    0.5243   -0.4552 C   0  0  0  0  0  0  0  0  0  0  0  0
    5.5668    0.7489    0.8812 C   0  0  0  0  0  0  0  0  0  0  0  0
    4.5985    0.7304    1.8818 C   0  0  0  0  0  0  0  0  0  0  0  0
    3.2553    0.4858    1.5717 C   0  0  0  0  0  0  0  0  0  0  0  0
    2.8818    0.2559    0.2303 C   0  0  0  0  0  0  0  0  0  0  0  0
    1.6418   -0.0177   -0.4309 C   0  0  0  0  0  0  0  0  0  0  0  0
    0.3264   -0.1384    0.1589 C   0  0  0  0  0  0  0  0  0  0  0  0
   -0.6775   -0.4009   -0.6198 N   0  0  0  0  0  0  0  0  0  0  0  0
   -1.9230   -0.4814   -0.0444 N   0  0  0  0  0  0  0  0  0  0  0  0
   -2.9582   -1.0931   -0.8774 C   0  0  0  0  0  0  0  0  0  0  0  0
   -4.1792   -1.4508   -0.0408 C   0  0  0  0  0  0  0  0  0  0  0  0
   -4.7678   -0.2316    0.6742 C   0  0  0  0  0  0  0  0  0  0  0  0
   -3.7933    0.9427    0.7672 C   0  0  0  0  0  0  0  0  0  0  0  0
   -2.3540    0.4817    0.9770 C   0  0  0  0  0  0  0  0  0  0  0  0
    0.2373   -0.4980   -2.4474 H   0  0  0  0  0  0  0  0  0  0  0  0
    3.7289   -0.0152   -2.8502 H   0  0  0  0  0  0  0  0  0  0  0  0
    5.9822    0.5387   -1.2329 H   0  0  0  0  0  0  0  0  0  0  0  0
    6.6054    0.9404    1.1420 H   0  0  0  0  0  0  0  0  0  0  0  0
    4.8875    0.9070    2.9150 H   0  0  0  0  0  0  0  0  0  0  0  0
    2.5141    0.4740    2.3652 H   0  0  0  0  0  0  0  0  0  0  0  0
    0.2344   -0.0156    1.2507 H   0  0  0  0  0  0  0  0  0  0  0  0
   -2.5403   -1.9943   -1.3393 H   0  0  0  0  0  0  0  0  0  0  0  0
   -3.2198   -0.3873   -1.6742 H   0  0  0  0  0  0  0  0  0  0  0  0
   -3.8890   -2.1936    0.7135 H   0  0  0  0  0  0  0  0  0  0  0  0
   -4.9454   -1.9226   -0.6659 H   0  0  0  0  0  0  0  0  0  0  0  0
   -5.6745    0.1018    0.1551 H   0  0  0  0  0  0  0  0  0  0  0  0
   -5.0854   -0.5308    1.6805 H   0  0  0  0  0  0  0  0  0  0  0  0
   -4.0980    1.6172    1.5752 H   0  0  0  0  0  0  0  0  0  0  0  0
   -3.8494    1.5232   -0.1628 H   0  0  0  0  0  0  0  0  0  0  0  0
   -1.6929    1.3548    0.9628 H   0  0  0  0  0  0  0  0  0  0  0  0
   -2.2519   -0.0157    1.9478 H   0  0  0  0  0  0  0  0  0  0  0  0
  1  2  1  0
  2  3  1  0
  3  4  1  0
  4  5  2  0
  5  6  1  0
  6  7  2  0
  7  8  1  0
  8  9  2  0
  9 10  1  0
 10 11  1  0
 11 12  2  3
 12 13  1  0
 13 14  1  0
 14 15  1  0
 15 16  1  0
 16 17  1  0
 17 18  1  0
 10  2  2  0
 18 13  1  0
  9  4  1  0
  1 19  1  0
  3 20  1  0
  5 21  1  0
  6 22  1  0
  7 23  1  0
  8 24  1  0
 11 25  1  0
 14 26  1  0
 14 27  1  0
 15 28  1  0
 15 29  1  0
 16 30  1  0
 16 31  1  0
 17 32  1  0
 17 33  1  0
 18 34  1  0
 18 35  1  0
M  END
$$$$
