
     RDKit          3D

 55 58  0  0  0  0  0  0  0  0999 V2000
   -7.5153    0.9716    1.0184 C   0  0  0  0  0  0  0  0  0  0  0  0
   -6.7165   -0.1036    0.5452 O   0  0  0  0  0  0  0  0  0  0  0  0
   -5.4175    0.1738    0.1988 C   0  0  0  0  0  0  0  0  0  0  0  0
   -4.8217    1.4314    0.3081 C   0  0  0  0  0  0  0  0  0  0  0  0
   -3.4872    1.6158   -0.0689 C   0  0  0  0  0  0  0  0  0  0  0  0
   -2.7074    0.5547   -0.5543 C   0  0  0  0  0  0  0  0  0  0  0  0
   -1.2965    0.7723   -0.9309 C   0  0  0  0  0  0  0  0  0  0  0  0
   -0.3100   -0.1762   -0.7254 C   0  0  0  0  0  0  0  0  0  0  0  0
    0.9895    0.1346   -1.1206 C   0  0  0  0  0  0  0  0  0  0  0  0
    2.0208   -0.8868   -0.8798 C   0  0  0  0  0  0  0  0  0  0  0  0
    2.2023   -1.7281   -1.7541 O   0  0  0  0  0  0  0  0  0  0  0  0
    2.7138   -0.8587    0.3282 N   0  0  0  0  0  0  0  0  0  0  0  0
    2.5520    0.1651    1.3661 C   0  0  0  0  0  0  0  0  0  0  0  0
    3.8923    0.5072    2.0046 C   0  0  0  0  0  0  0  0  0  0  0  0
    4.5839   -0.7181    2.6107 C   0  0  0  0  0  0  0  0  0  0  0  0
    4.0803   -2.0492    2.0290 C   0  0  0  0  0  0  0  0  0  0  0  0
    5.1045   -3.1523    2.2023 C   0  0  0  0  0  0  0  0  0  0  0  0
    6.2419   -2.8845    1.5261 F   0  0  0  0  0  0  0  0  0  0  0  0
    5.4274   -3.3080    3.5059 F   0  0  0  0  0  0  0  0  0  0  0  0
    4.6276   -4.3359    1.7593 F   0  0  0  0  0  0  0  0  0  0  0  0
    3.7196   -1.9008    0.5550 C   0  0  0  0  0  0  0  0  0  0  0  0
    1.3047    1.3605   -1.7366 C   0  0  0  0  0  0  0  0  0  0  0  0
    2.5966    1.7262   -2.1898 C   0  0  0  0  0  0  0  0  0  0  0  0
    2.8227    2.9723   -2.7708 C   0  0  0  0  0  0  0  0  0  0  0  0
    1.7666    3.8624   -2.9074 C   0  0  0  0  0  0  0  0  0  0  0  0
    0.4911    3.4984   -2.4661 C   0  0  0  0  0  0  0  0  0  0  0  0
    0.2382    2.2625   -1.8845 C   0  0  0  0  0  0  0  0  0  0  0  0
   -1.0146    1.9809   -1.4822 N   0  0  0  0  0  0  0  0  0  0  0  0
   -3.3254   -0.7056   -0.6719 C   0  0  0  0  0  0  0  0  0  0  0  0
   -4.6647   -0.9040   -0.3037 C   0  0  0  0  0  0  0  0  0  0  0  0
   -5.3215   -2.1071   -0.3902 O   0  0  0  0  0  0  0  0  0  0  0  0
   -4.6576   -3.1783   -1.0468 C   0  0  0  0  0  0  0  0  0  0  0  0
   -7.6220    1.7509    0.2567 H   0  0  0  0  0  0  0  0  0  0  0  0
   -7.1142    1.3812    1.9511 H   0  0  0  0  0  0  0  0  0  0  0  0
   -8.5134    0.5779    1.2318 H   0  0  0  0  0  0  0  0  0  0  0  0
   -5.3649    2.2949    0.6798 H   0  0  0  0  0  0  0  0  0  0  0  0
   -3.0502    2.6105    0.0206 H   0  0  0  0  0  0  0  0  0  0  0  0
   -0.5251   -1.1333   -0.2607 H   0  0  0  0  0  0  0  0  0  0  0  0
    2.1010    1.0722    0.9610 H   0  0  0  0  0  0  0  0  0  0  0  0
    1.8609   -0.2383    2.1136 H   0  0  0  0  0  0  0  0  0  0  0  0
    3.7655    1.2802    2.7694 H   0  0  0  0  0  0  0  0  0  0  0  0
    4.5516    0.9309    1.2352 H   0  0  0  0  0  0  0  0  0  0  0  0
    5.6661   -0.6110    2.4609 H   0  0  0  0  0  0  0  0  0  0  0  0
    4.4304   -0.7278    3.6972 H   0  0  0  0  0  0  0  0  0  0  0  0
    3.1747   -2.3380    2.5796 H   0  0  0  0  0  0  0  0  0  0  0  0
    3.3432   -2.8480    0.1526 H   0  0  0  0  0  0  0  0  0  0  0  0
    4.6002   -1.6239   -0.0375 H   0  0  0  0  0  0  0  0  0  0  0  0
    3.4325    1.0345   -2.0987 H   0  0  0  0  0  0  0  0  0  0  0  0
    3.8168    3.2423   -3.1191 H   0  0  0  0  0  0  0  0  0  0  0  0
    1.9261    4.8377   -3.3618 H   0  0  0  0  0  0  0  0  0  0  0  0
   -0.3321    4.1998   -2.5836 H   0  0  0  0  0  0  0  0  0  0  0  0
   -2.7464   -1.5304   -1.0738 H   0  0  0  0  0  0  0  0  0  0  0  0
   -5.3511   -4.0241   -1.0944 H   0  0  0  0  0  0  0  0  0  0  0  0
   -4.3900   -2.9116   -2.0744 H   0  0  0  0  0  0  0  0  0  0  0  0
   -3.7791   -3.5027   -0.4792 H   0  0  0  0  0  0  0  0  0  0  0  0
  1  2  1  0
  2  3  1  0
  3  4  2  0
  4  5  1  0
  5  6  2  0
  6  7  1  0
  7  8  2  0
  8  9  1  0
  9 10  1  0
 10 11  2  0
 10 12  1  0
 12 13  1  0
 13 14  1  0
 14 15  1  0
 15 16  1  0
 16 17  1  0
 17 18  1  0
 17 19  1  0
 17 20  1  0
 16 21  1  0
  9 22  2  0
 22 23  1  0
 23 24  2  0
 24 25  1  0
 25 26  2  0
 26 27  1  0
 27 28  2  0
  6 29  1  0
 29 30  2  0
 30 31  1  0
 31 32  1  0
 30  3  1  0
 28  7  1  0
 21 12  1  0
 27 22  1  0
  1 33  1  0
  1 34  1  0
  1 35  1  0
  4 36  1  0
  5 37  1  0
  8 38  1  0
 13 39  1  0
 13 40  1  0
 14 41  1  0
 14 42  1  0
 15 43  1  0
 15 44  1  0
 16 45  1  0
 21 46  1  0
 21 47  1  0
 23 48  1  0
 24 49  1  0
 25 50  1  0
 26 51  1  0
 29 52  1  0
 32 53  1  0
 32 54  1  0
 32 55  1  0
M  END
$$$$
