
     RDKit          3D

 34 35  0  0  0  0  0  0  0  0999 V2000
   -1.9485   -3.0167    0.0696 O   0  0  0  0  0  0  0  0  0  0  0  0
   -2.9200   -2.3075    0.3781 N   0  0  0  0  0  4  0  0  0  0  0  0
   -3.9481   -2.7227    0.9333 O   0  0  0  0  0  1  0  0  0  0  0  0
   -2.8664   -0.8841    0.0351 C   0  0  0  0  0  0  0  0  0  0  0  0
   -4.0813   -0.2653   -0.3233 C   0  0  0  0  0  0  0  0  0  0  0  0
   -4.1082    1.0929   -0.6602 C   0  0  0  0  0  0  0  0  0  0  0  0
   -5.4063    1.7724   -1.0238 C   0  0  0  0  0  0  0  0  0  0  0  0
   -6.0855    2.2069    0.0715 F   0  0  0  0  0  0  0  0  0  0  0  0
   -6.2598    0.9523   -1.6966 F   0  0  0  0  0  0  0  0  0  0  0  0
   -5.2342    2.8640   -1.8192 F   0  0  0  0  0  0  0  0  0  0  0  0
   -2.9105    1.8134   -0.6048 C   0  0  0  0  0  0  0  0  0  0  0  0
   -1.7069    1.1884   -0.2439 C   0  0  0  0  0  0  0  0  0  0  0  0
   -1.6385   -0.1824    0.0556 C   0  0  0  0  0  0  0  0  0  0  0  0
   -0.4468   -0.7765    0.5055 N   0  0  0  0  0  0  0  0  0  0  0  0
    0.8508   -0.1639    0.1851 C   0  0  0  0  0  0  0  0  0  0  0  0
    1.9879   -1.0630    0.6840 C   0  0  0  0  0  0  0  0  0  0  0  0
    3.3642   -0.4903    0.4461 C   0  0  0  0  0  0  0  0  0  0  0  0
    4.4648   -1.0772    1.0685 C   0  0  0  0  0  0  0  0  0  0  0  0
    5.7341   -0.5593    0.8261 C   0  0  0  0  0  0  0  0  0  0  0  0
    5.8748    0.5227   -0.0327 C   0  0  0  0  0  0  0  0  0  0  0  0
    4.7337    1.0426   -0.6175 C   0  0  0  0  0  0  0  0  0  0  0  0
    3.4894    0.5604   -0.4004 N   0  0  0  0  0  0  0  0  0  0  0  0
   -5.0086   -0.8391   -0.3386 H   0  0  0  0  0  0  0  0  0  0  0  0
   -2.9013    2.8792   -0.8345 H   0  0  0  0  0  0  0  0  0  0  0  0
   -0.8184    1.8141   -0.1985 H   0  0  0  0  0  0  0  0  0  0  0  0
   -0.4475   -1.7862    0.3169 H   0  0  0  0  0  0  0  0  0  0  0  0
    0.9326    0.8137    0.6749 H   0  0  0  0  0  0  0  0  0  0  0  0
    0.9329   -0.0216   -0.8996 H   0  0  0  0  0  0  0  0  0  0  0  0
    1.8576   -1.2364    1.7601 H   0  0  0  0  0  0  0  0  0  0  0  0
    1.9290   -2.0406    0.1891 H   0  0  0  0  0  0  0  0  0  0  0  0
    4.3404   -1.9263    1.7335 H   0  0  0  0  0  0  0  0  0  0  0  0
    6.6055   -0.9993    1.3026 H   0  0  0  0  0  0  0  0  0  0  0  0
    6.8490    0.9489   -0.2432 H   0  0  0  0  0  0  0  0  0  0  0  0
    4.7904    1.8865   -1.2990 H   0  0  0  0  0  0  0  0  0  0  0  0
  1  2  2  0
  2  3  1  0
  2  4  1  0
  4  5  2  0
  5  6  1  0
  6  7  1  0
  7  8  1  0
  7  9  1  0
  7 10  1  0
  6 11  2  0
 11 12  1  0
 12 13  2  0
 13 14  1  0
 14 15  1  0
 15 16  1  0
 16 17  1  0
 17 18  2  0
 18 19  1  0
 19 20  2  0
 20 21  1  0
 21 22  2  0
 13  4  1  0
 22 17  1  0
  5 23  1  0
 11 24  1  0
 12 25  1  0
 14 26  1  0
 15 27  1  0
 15 28  1  0
 16 29  1  0
 16 30  1  0
 18 31  1  0
 19 32  1  0
 20 33  1  0
 21 34  1  0
M  CHG  2   2   1   3  -1
M  END
$$$$
