
     RDKit          3D

 45 47  0  0  0  0  0  0  0  0999 V2000
    8.1718    0.1423    1.9345 C   0  0  0  0  0  0  0  0  0  0  0  0
    6.9502    0.5725    1.1424 C   0  0  0  0  0  0  0  0  0  0  0  0
    5.8698   -0.2876    1.4984 O   0  0  0  0  0  0  0  0  0  0  0  0
    4.6703   -0.0709    0.8804 C   0  0  0  0  0  0  0  0  0  0  0  0
    3.6531   -0.9512    1.2512 C   0  0  0  0  0  0  0  0  0  0  0  0
    2.3720   -0.8455    0.6971 C   0  0  0  0  0  0  0  0  0  0  0  0
    2.0921    0.1452   -0.2423 C   0  0  0  0  0  0  0  0  0  0  0  0
    0.8293    0.3289   -0.8387 N   0  0  0  0  0  0  0  0  0  0  0  0
   -0.2732   -0.4939   -0.7428 C   0  0  0  0  0  0  0  0  0  0  0  0
   -0.3248   -1.5871   -0.1980 O   0  0  0  0  0  0  0  0  0  0  0  0
   -1.3568    0.0789   -1.3779 N   0  0  0  0  0  0  0  0  0  0  0  0
   -2.6677   -0.5590   -1.3622 C   0  0  0  0  0  0  0  0  0  0  0  0
   -3.3257   -0.3317   -2.7332 C   0  0  0  0  0  0  0  0  0  0  0  0
   -4.7684   -0.8370   -2.8423 C   0  0  0  0  0  0  0  0  0  0  0  0
   -5.4311   -1.1916   -1.5121 C   0  0  0  0  0  0  0  0  0  0  0  0
   -4.9633   -0.3125   -0.3827 C   0  0  0  0  0  0  0  0  0  0  0  0
   -5.8590    0.1354    0.5955 C   0  0  0  0  0  0  0  0  0  0  0  0
   -5.3965    0.8759    1.6812 C   0  0  0  0  0  0  0  0  0  0  0  0
   -4.0373    1.1515    1.8071 C   0  0  0  0  0  0  0  0  0  0  0  0
   -3.1358    0.6987    0.8415 C   0  0  0  0  0  0  0  0  0  0  0  0
   -3.5872   -0.0202   -0.2746 C   0  0  0  0  0  0  0  0  0  0  0  0
    3.1118    1.0321   -0.6087 C   0  0  0  0  0  0  0  0  0  0  0  0
    4.3939    0.9249   -0.0535 C   0  0  0  0  0  0  0  0  0  0  0  0
    9.0326    0.7737    1.6972 H   0  0  0  0  0  0  0  0  0  0  0  0
    8.4263   -0.8999    1.7150 H   0  0  0  0  0  0  0  0  0  0  0  0
    7.9748    0.2025    3.0101 H   0  0  0  0  0  0  0  0  0  0  0  0
    6.7081    1.6113    1.3947 H   0  0  0  0  0  0  0  0  0  0  0  0
    7.1693    0.4858    0.0719 H   0  0  0  0  0  0  0  0  0  0  0  0
    3.8547   -1.7317    1.9813 H   0  0  0  0  0  0  0  0  0  0  0  0
    1.6160   -1.5515    1.0266 H   0  0  0  0  0  0  0  0  0  0  0  0
    0.7575    1.0647   -1.5241 H   0  0  0  0  0  0  0  0  0  0  0  0
   -1.3686    1.0861   -1.4117 H   0  0  0  0  0  0  0  0  0  0  0  0
   -2.5398   -1.6358   -1.1948 H   0  0  0  0  0  0  0  0  0  0  0  0
   -2.7171   -0.7910   -3.5228 H   0  0  0  0  0  0  0  0  0  0  0  0
   -3.3273    0.7450   -2.9582 H   0  0  0  0  0  0  0  0  0  0  0  0
   -5.3630   -0.0624   -3.3444 H   0  0  0  0  0  0  0  0  0  0  0  0
   -4.8076   -1.7123   -3.5022 H   0  0  0  0  0  0  0  0  0  0  0  0
   -6.5198   -1.1346   -1.6292 H   0  0  0  0  0  0  0  0  0  0  0  0
   -5.1959   -2.2309   -1.2490 H   0  0  0  0  0  0  0  0  0  0  0  0
   -6.9179   -0.1011    0.5242 H   0  0  0  0  0  0  0  0  0  0  0  0
   -6.0933    1.2201    2.4408 H   0  0  0  0  0  0  0  0  0  0  0  0
   -3.6741    1.7073    2.6678 H   0  0  0  0  0  0  0  0  0  0  0  0
   -2.0785    0.9021    0.9883 H   0  0  0  0  0  0  0  0  0  0  0  0
    2.9274    1.8199   -1.3343 H   0  0  0  0  0  0  0  0  0  0  0  0
    5.1491    1.6349   -0.3728 H   0  0  0  0  0  0  0  0  0  0  0  0
  1  2  1  0
  2  3  1  0
  3  4  1  0
  4  5  2  0
  5  6  1  0
  6  7  2  0
  7  8  1  0
  8  9  1  0
  9 10  2  0
  9 11  1  0
 11 12  1  0
 12 13  1  0
 13 14  1  0
 14 15  1  0
 15 16  1  0
 16 17  2  0
 17 18  1  0
 18 19  2  0
 19 20  1  0
 20 21  2  0
  7 22  1  0
 22 23  2  0
 23  4  1  0
 21 12  1  0
 21 16  1  0
  1 24  1  0
  1 25  1  0
  1 26  1  0
  2 27  1  0
  2 28  1  0
  5 29  1  0
  6 30  1  0
  8 31  1  0
 11 32  1  0
 12 33  1  0
 13 34  1  0
 13 35  1  0
 14 36  1  0
 14 37  1  0
 15 38  1  0
 15 39  1  0
 17 40  1  0
 18 41  1  0
 19 42  1  0
 20 43  1  0
 22 44  1  0
 23 45  1  0
M  END
$$$$
