
     RDKit          3D

 50 53  0  0  0  0  0  0  0  0999 V2000
    7.6526    1.9410    0.1454 C   0  0  0  0  0  0  0  0  0  0  0  0
    6.8832    0.8276   -0.2919 O   0  0  0  0  0  0  0  0  0  0  0  0
    5.5663    0.8072    0.0734 C   0  0  0  0  0  0  0  0  0  0  0  0
    4.8497   -0.3008   -0.3803 C   0  0  0  0  0  0  0  0  0  0  0  0
    3.4885   -0.4557   -0.0841 C   0  0  0  0  0  0  0  0  0  0  0  0
    2.8177    0.5093    0.6705 C   0  0  0  0  0  0  0  0  0  0  0  0
    1.4304    0.4119    1.0062 N   0  0  0  0  0  0  0  0  0  0  0  0
    0.9216    1.2675    1.9429 N   0  0  0  0  0  0  0  0  0  0  0  0
   -0.3369    0.8840    2.1343 C   0  0  0  0  0  0  0  0  0  0  0  0
   -0.7084   -0.1587    1.2806 C   0  0  0  0  0  0  0  0  0  0  0  0
    0.4287   -0.4341    0.5411 C   0  0  0  0  0  0  0  0  0  0  0  0
    0.5051   -1.4625   -0.5391 C   0  0  0  0  0  0  0  0  0  0  0  0
   -0.9133   -1.9137   -1.0083 C   0  0  0  0  0  0  0  0  0  0  0  0
   -1.4755   -0.9055   -2.0308 C   0  0  0  0  0  0  0  0  0  0  0  0
   -0.7856   -3.2754   -1.7219 C   0  0  0  0  0  0  0  0  0  0  0  0
   -1.8752   -2.0881    0.2102 C   0  0  0  0  0  0  0  0  0  0  0  0
   -2.0198   -0.8436    1.1199 C   0  0  0  0  0  0  0  0  0  0  0  0
   -2.9579    0.1238    0.5888 N   0  0  0  0  0  0  0  0  0  0  0  0
   -4.3163   -0.0734    0.6735 C   0  0  0  0  0  0  0  0  0  0  0  0
   -4.8081   -1.0417    1.2448 O   0  0  0  0  0  0  0  0  0  0  0  0
   -5.1340    0.9408    0.0298 C   0  0  0  0  0  0  0  0  0  0  0  0
   -4.7884    2.1378   -0.6394 C   0  0  0  0  0  0  0  0  0  0  0  0
   -5.8500    2.8035   -1.1024 N   0  0  0  0  0  0  0  0  0  0  0  0
   -6.8885    2.0411   -0.7259 N   0  0  0  0  0  0  0  0  0  0  0  0
   -6.5145    0.9202   -0.0491 C   0  0  0  0  0  0  0  0  0  0  0  0
    3.5501    1.6150    1.1398 C   0  0  0  0  0  0  0  0  0  0  0  0
    4.9106    1.7653    0.8401 C   0  0  0  0  0  0  0  0  0  0  0  0
    7.7031    1.9811    1.2385 H   0  0  0  0  0  0  0  0  0  0  0  0
    8.6721    1.8109   -0.2303 H   0  0  0  0  0  0  0  0  0  0  0  0
    7.2626    2.8771   -0.2679 H   0  0  0  0  0  0  0  0  0  0  0  0
    5.3605   -1.0623   -0.9663 H   0  0  0  0  0  0  0  0  0  0  0  0
    3.0167   -1.3621   -0.4362 H   0  0  0  0  0  0  0  0  0  0  0  0
   -0.9368    1.4004    2.8735 H   0  0  0  0  0  0  0  0  0  0  0  0
    1.0610   -1.0814   -1.4029 H   0  0  0  0  0  0  0  0  0  0  0  0
    1.0418   -2.3318   -0.1387 H   0  0  0  0  0  0  0  0  0  0  0  0
   -2.5122   -1.1454   -2.2921 H   0  0  0  0  0  0  0  0  0  0  0  0
   -0.8903   -0.9217   -2.9578 H   0  0  0  0  0  0  0  0  0  0  0  0
   -1.4472    0.1233   -1.6622 H   0  0  0  0  0  0  0  0  0  0  0  0
   -1.7564   -3.6160   -2.0994 H   0  0  0  0  0  0  0  0  0  0  0  0
   -0.0979   -3.2136   -2.5729 H   0  0  0  0  0  0  0  0  0  0  0  0
   -0.4041   -4.0461   -1.0428 H   0  0  0  0  0  0  0  0  0  0  0  0
   -2.8603   -2.4255   -0.1359 H   0  0  0  0  0  0  0  0  0  0  0  0
   -1.4773   -2.9030    0.8327 H   0  0  0  0  0  0  0  0  0  0  0  0
   -2.3913   -1.1691    2.0996 H   0  0  0  0  0  0  0  0  0  0  0  0
   -2.5911    0.8944    0.0516 H   0  0  0  0  0  0  0  0  0  0  0  0
   -3.8086    2.5624   -0.8136 H   0  0  0  0  0  0  0  0  0  0  0  0
   -7.8260    2.3485   -0.9655 H   0  0  0  0  0  0  0  0  0  0  0  0
   -7.2416    0.2086    0.3175 H   0  0  0  0  0  0  0  0  0  0  0  0
    3.0703    2.3863    1.7414 H   0  0  0  0  0  0  0  0  0  0  0  0
    5.4208    2.6421    1.2247 H   0  0  0  0  0  0  0  0  0  0  0  0
  1  2  1  0
  2  3  1  0
  3  4  2  0
  4  5  1  0
  5  6  2  0
  6  7  1  0
  7  8  1  0
  8  9  2  0
  9 10  1  0
 10 11  2  0
 11 12  1  0
 12 13  1  0
 13 14  1  0
 13 15  1  0
 13 16  1  0
 16 17  1  0
 17 18  1  0
 18 19  1  0
 19 20  2  0
 19 21  1  0
 21 22  1  0
 22 23  2  0
 23 24  1  0
 24 25  1  0
  6 26  1  0
 26 27  2  0
 27  3  1  0
 11  7  1  0
 25 21  2  0
 17 10  1  0
  1 28  1  0
  1 29  1  0
  1 30  1  0
  4 31  1  0
  5 32  1  0
  9 33  1  0
 12 34  1  0
 12 35  1  0
 14 36  1  0
 14 37  1  0
 14 38  1  0
 15 39  1  0
 15 40  1  0
 15 41  1  0
 16 42  1  0
 16 43  1  0
 17 44  1  0
 18 45  1  0
 22 46  1  0
 24 47  1  0
 25 48  1  0
 26 49  1  0
 27 50  1  0
M  END
$$$$
