
     RDKit          3D

 48 51  0  0  0  0  0  0  0  0999 V2000
   -0.2779    1.4151    2.3289 O   0  0  0  0  0  0  0  0  0  0  0  0
    0.3985    0.4897    1.8723 C   0  0  0  0  0  0  0  0  0  0  0  0
    1.7717    0.1201    2.4453 C   0  0  0  0  0  0  0  0  0  0  0  0
    2.5480   -0.7506    1.5254 N   0  0  0  0  0  0  0  0  0  0  0  0
    2.9948   -2.0226    2.1070 C   0  0  0  0  0  0  0  0  0  0  0  0
    3.4739   -2.9670    1.0202 C   0  0  0  0  0  0  0  0  0  0  0  0
    4.6733   -2.3490    0.3243 C   0  0  0  0  0  0  0  0  0  0  0  0
    4.4081   -0.9156   -0.0622 C   0  0  0  0  0  0  0  0  0  0  0  0
    5.2401   -0.3326   -1.0360 C   0  0  0  0  0  0  0  0  0  0  0  0
    5.0493    0.9850   -1.4345 C   0  0  0  0  0  0  0  0  0  0  0  0
    4.0263    1.7277   -0.8632 C   0  0  0  0  0  0  0  0  0  0  0  0
    3.2049    1.1570    0.1157 C   0  0  0  0  0  0  0  0  0  0  0  0
    3.3849   -0.1651    0.5610 C   0  0  0  0  0  0  0  0  0  0  0  0
    0.0002   -0.3528    0.8286 N   0  0  0  0  0  0  0  0  0  0  0  0
   -1.0510   -0.0098    0.0120 N   0  0  0  0  0  0  0  0  0  0  0  0
   -2.1513    0.2567    0.6412 C   0  0  0  0  0  0  0  0  0  0  0  0
   -3.2886    0.9161   -0.0089 C   0  0  0  0  0  0  0  0  0  0  0  0
   -3.7357    2.1026    0.5892 C   0  0  0  0  0  0  0  0  0  0  0  0
   -3.1259    2.6893    1.6677 O   0  0  0  0  0  0  0  0  0  0  0  0
   -4.8416    2.7640    0.0758 C   0  0  0  0  0  0  0  0  0  0  0  0
   -5.4916    2.2542   -1.0481 C   0  0  0  0  0  0  0  0  0  0  0  0
   -5.0484    1.0751   -1.6719 C   0  0  0  0  0  0  0  0  0  0  0  0
   -5.7194    0.5797   -2.8022 C   0  0  0  0  0  0  0  0  0  0  0  0
   -5.3033   -0.5946   -3.4281 C   0  0  0  0  0  0  0  0  0  0  0  0
   -4.2103   -1.2918   -2.9308 C   0  0  0  0  0  0  0  0  0  0  0  0
   -3.5315   -0.8136   -1.8081 C   0  0  0  0  0  0  0  0  0  0  0  0
   -3.9264    0.3790   -1.1555 C   0  0  0  0  0  0  0  0  0  0  0  0
    2.3247    1.0323    2.6962 H   0  0  0  0  0  0  0  0  0  0  0  0
    1.5759   -0.4038    3.3891 H   0  0  0  0  0  0  0  0  0  0  0  0
    2.1576   -2.4973    2.6329 H   0  0  0  0  0  0  0  0  0  0  0  0
    3.7850   -1.8412    2.8468 H   0  0  0  0  0  0  0  0  0  0  0  0
    2.6678   -3.1428    0.2961 H   0  0  0  0  0  0  0  0  0  0  0  0
    3.7475   -3.9379    1.4474 H   0  0  0  0  0  0  0  0  0  0  0  0
    5.5451   -2.3729    0.9899 H   0  0  0  0  0  0  0  0  0  0  0  0
    4.9143   -2.9438   -0.5646 H   0  0  0  0  0  0  0  0  0  0  0  0
    6.0382   -0.9141   -1.4923 H   0  0  0  0  0  0  0  0  0  0  0  0
    5.6893    1.4265   -2.1931 H   0  0  0  0  0  0  0  0  0  0  0  0
    3.8566    2.7540   -1.1787 H   0  0  0  0  0  0  0  0  0  0  0  0
    2.4114    1.7854    0.5093 H   0  0  0  0  0  0  0  0  0  0  0  0
    0.7964   -0.7820    0.3490 H   0  0  0  0  0  0  0  0  0  0  0  0
   -2.2616    0.0953    1.7303 H   0  0  0  0  0  0  0  0  0  0  0  0
   -2.2059    2.3657    1.7681 H   0  0  0  0  0  0  0  0  0  0  0  0
   -5.1908    3.6824    0.5398 H   0  0  0  0  0  0  0  0  0  0  0  0
   -6.3533    2.7925   -1.4385 H   0  0  0  0  0  0  0  0  0  0  0  0
   -6.5798    1.1091   -3.2067 H   0  0  0  0  0  0  0  0  0  0  0  0
   -5.8332   -0.9625   -4.3026 H   0  0  0  0  0  0  0  0  0  0  0  0
   -3.8793   -2.2071   -3.4147 H   0  0  0  0  0  0  0  0  0  0  0  0
   -2.6770   -1.3840   -1.4491 H   0  0  0  0  0  0  0  0  0  0  0  0
  1  2  2  0
  2  3  1  0
  3  4  1  0
  4  5  1  0
  5  6  1  0
  6  7  1  0
  7  8  1  0
  8  9  2  0
  9 10  1  0
 10 11  2  0
 11 12  1  0
 12 13  2  0
  2 14  1  0
 14 15  1  0
 15 16  2  3
 16 17  1  0
 17 18  2  0
 18 19  1  0
 18 20  1  0
 20 21  2  0
 21 22  1  0
 22 23  2  0
 23 24  1  0
 24 25  2  0
 25 26  1  0
 26 27  2  0
 13  4  1  0
 27 17  1  0
 13  8  1  0
 27 22  1  0
  3 28  1  0
  3 29  1  0
  5 30  1  0
  5 31  1  0
  6 32  1  0
  6 33  1  0
  7 34  1  0
  7 35  1  0
  9 36  1  0
 10 37  1  0
 11 38  1  0
 12 39  1  0
 14 40  1  0
 16 41  1  0
 19 42  1  0
 20 43  1  0
 21 44  1  0
 23 45  1  0
 24 46  1  0
 25 47  1  0
 26 48  1  0
M  END
$$$$
