
     RDKit          3D

 48 50  0  0  0  0  0  0  0  0999 V2000
   -1.9478   -1.5578   -1.8821 O   0  0  0  0  0  0  0  0  0  0  0  0
   -1.9883   -0.8627   -0.8620 C   0  0  0  0  0  0  0  0  0  0  0  0
   -0.9530    0.2309   -0.6705 C   0  0  0  0  0  0  0  0  0  0  0  0
   -0.0056    0.0982    0.4652 N   0  0  0  0  0  0  0  0  0  0  0  0
    0.7850    1.2622    0.7724 C   0  0  0  0  0  0  0  0  0  0  0  0
    0.9010    1.6522    2.1057 C   0  0  0  0  0  0  0  0  0  0  0  0
    1.7006    2.7421    2.4520 C   0  0  0  0  0  0  0  0  0  0  0  0
    2.4016    3.4437    1.4671 C   0  0  0  0  0  0  0  0  0  0  0  0
    3.3741    4.7745    1.9762 Cl  0  0  0  0  0  0  0  0  0  0  0  0
    2.3123    3.0585    0.1242 C   0  0  0  0  0  0  0  0  0  0  0  0
    3.0723    3.7836   -0.9541 C   0  0  0  0  0  0  0  0  0  0  0  0
    2.7488    5.1021   -1.0405 F   0  0  0  0  0  0  0  0  0  0  0  0
    4.4210    3.7215   -0.7889 F   0  0  0  0  0  0  0  0  0  0  0  0
    2.8372    3.2746   -2.1989 F   0  0  0  0  0  0  0  0  0  0  0  0
    1.4990    1.9557   -0.2103 C   0  0  0  0  0  0  0  0  0  0  0  0
    0.7853   -1.4125    0.6833 S   0  0  0  0  0  6  0  0  0  0  0  0
   -0.1827   -2.4767    0.5347 O   0  0  0  0  0  0  0  0  0  0  0  0
    1.5859   -1.3381    1.8902 O   0  0  0  0  0  0  0  0  0  0  0  0
    1.9105   -1.4951   -0.6934 C   0  0  0  0  0  0  0  0  0  0  0  0
    3.2217   -1.0299   -0.5423 C   0  0  0  0  0  0  0  0  0  0  0  0
    4.1043   -1.0989   -1.6198 C   0  0  0  0  0  0  0  0  0  0  0  0
    3.6833   -1.6471   -2.8322 C   0  0  0  0  0  0  0  0  0  0  0  0
    2.3839   -2.1387   -2.9687 C   0  0  0  0  0  0  0  0  0  0  0  0
    1.4949   -2.0730   -1.8960 C   0  0  0  0  0  0  0  0  0  0  0  0
   -2.9886   -1.0051    0.0842 N   0  0  0  0  0  0  0  0  0  0  0  0
   -4.0004   -2.0477   -0.0991 C   0  0  0  0  0  0  0  0  0  0  0  0
   -5.3395   -1.6242    0.5123 C   0  0  0  0  0  0  0  0  0  0  0  0
   -5.2730   -1.2774    1.9037 O   0  0  0  0  0  0  0  0  0  0  0  0
   -3.9527   -0.9688    2.3654 C   0  0  0  0  0  0  0  0  0  0  0  0
   -3.1115   -0.2278    1.3208 C   0  0  0  0  0  0  0  0  0  0  0  0
   -0.3936    0.3163   -1.6100 H   0  0  0  0  0  0  0  0  0  0  0  0
   -1.5090    1.1720   -0.5628 H   0  0  0  0  0  0  0  0  0  0  0  0
    0.3802    1.1012    2.8861 H   0  0  0  0  0  0  0  0  0  0  0  0
    1.7812    3.0311    3.4981 H   0  0  0  0  0  0  0  0  0  0  0  0
    1.4470    1.6367   -1.2502 H   0  0  0  0  0  0  0  0  0  0  0  0
    3.5618   -0.6172    0.4052 H   0  0  0  0  0  0  0  0  0  0  0  0
    5.1240   -0.7357   -1.5136 H   0  0  0  0  0  0  0  0  0  0  0  0
    4.3748   -1.7058   -3.6699 H   0  0  0  0  0  0  0  0  0  0  0  0
    2.0661   -2.5829   -3.9095 H   0  0  0  0  0  0  0  0  0  0  0  0
    0.4908   -2.4780   -2.0078 H   0  0  0  0  0  0  0  0  0  0  0  0
   -4.1273   -2.2812   -1.1610 H   0  0  0  0  0  0  0  0  0  0  0  0
   -3.6203   -2.9456    0.4021 H   0  0  0  0  0  0  0  0  0  0  0  0
   -5.7312   -0.7485   -0.0181 H   0  0  0  0  0  0  0  0  0  0  0  0
   -6.0762   -2.4268    0.4064 H   0  0  0  0  0  0  0  0  0  0  0  0
   -3.4673   -1.9081    2.6557 H   0  0  0  0  0  0  0  0  0  0  0  0
   -4.0532   -0.3599    3.2694 H   0  0  0  0  0  0  0  0  0  0  0  0
   -3.5977    0.7150    1.0455 H   0  0  0  0  0  0  0  0  0  0  0  0
   -2.1295   -0.0009    1.7357 H   0  0  0  0  0  0  0  0  0  0  0  0
  1  2  2  0
  2  3  1  0
  3  4  1  0
  4  5  1  0
  5  6  2  0
  6  7  1  0
  7  8  2  0
  8  9  1  0
  8 10  1  0
 10 11  1  0
 11 12  1  0
 11 13  1  0
 11 14  1  0
 10 15  2  0
  4 16  1  0
 16 17  2  0
 16 18  2  0
 16 19  1  0
 19 20  2  0
 20 21  1  0
 21 22  2  0
 22 23  1  0
 23 24  2  0
  2 25  1  0
 25 26  1  0
 26 27  1  0
 27 28  1  0
 28 29  1  0
 29 30  1  0
 15  5  1  0
 24 19  1  0
 30 25  1  0
  3 31  1  0
  3 32  1  0
  6 33  1  0
  7 34  1  0
 15 35  1  0
 20 36  1  0
 21 37  1  0
 22 38  1  0
 23 39  1  0
 24 40  1  0
 26 41  1  0
 26 42  1  0
 27 43  1  0
 27 44  1  0
 29 45  1  0
 29 46  1  0
 30 47  1  0
 30 48  1  0
M  END
$$$$
