
     RDKit          3D

 56 60  0  0  0  0  0  0  0  0999 V2000
    5.2252   -1.9157    2.9018 C   0  0  0  0  0  0  0  0  0  0  0  0
    4.7459   -2.2832    1.5064 C   0  0  0  0  0  0  0  0  0  0  0  0
    3.3222   -2.4968    1.4554 N   0  0  0  0  0  0  0  0  0  0  0  0
    2.7002   -3.7365    1.5575 C   0  0  0  0  0  0  0  0  0  0  0  0
    3.1911   -4.8429    1.6578 O   0  0  0  0  0  0  0  0  0  0  0  0
    1.2525   -3.4438    1.5371 C   0  0  0  0  0  0  0  0  0  0  0  0
    0.1642   -4.2834    1.6029 C   0  0  0  0  0  0  0  0  0  0  0  0
   -1.1025   -3.6916    1.5755 C   0  0  0  0  0  0  0  0  0  0  0  0
   -1.2521   -2.2886    1.4833 C   0  0  0  0  0  0  0  0  0  0  0  0
   -0.1250   -1.4146    1.4135 C   0  0  0  0  0  0  0  0  0  0  0  0
    0.0027    0.0046    1.3213 C   0  0  0  0  0  0  0  0  0  0  0  0
   -1.4051    1.0954    1.2096 S   0  0  0  0  0  6  0  0  0  0  0  0
   -1.2303    2.0855    2.2538 O   0  0  0  0  0  0  0  0  0  0  0  0
   -2.6312    0.3276    1.1430 O   0  0  0  0  0  0  0  0  0  0  0  0
   -1.1939    1.8509   -0.2898 N   0  0  0  0  0  0  0  0  0  0  0  0
   -0.9575    3.2454   -0.4081 C   0  0  0  0  0  0  0  0  0  0  0  0
    0.0341    3.7195   -0.9507 O   0  0  0  0  0  0  0  0  0  0  0  0
   -2.0182    4.1417    0.1194 C   0  0  0  0  0  0  0  0  0  0  0  0
   -3.3425    3.7387    0.3224 C   0  0  0  0  0  0  0  0  0  0  0  0
   -4.2665    4.6524    0.8231 C   0  0  0  0  0  0  0  0  0  0  0  0
   -3.8411    5.9484    1.0795 C   0  0  0  0  0  0  0  0  0  0  0  0
   -2.5755    6.3779    0.8710 N   0  0  0  0  0  0  0  0  0  0  0  0
   -1.6913    5.4646    0.3998 C   0  0  0  0  0  0  0  0  0  0  0  0
   -0.9572    1.0272   -1.4424 C   0  0  0  0  0  0  0  0  0  0  0  0
   -1.9828    0.2066   -1.9246 C   0  0  0  0  0  0  0  0  0  0  0  0
   -1.7655   -0.6369   -3.0219 C   0  0  0  0  0  0  0  0  0  0  0  0
   -0.5216   -0.6615   -3.6502 C   0  0  0  0  0  0  0  0  0  0  0  0
   -0.1806   -1.4205   -4.7337 O   0  0  0  0  0  0  0  0  0  0  0  0
   -1.2085   -2.2126   -5.3194 C   0  0  0  0  0  0  0  0  0  0  0  0
    0.5046    0.1492   -3.1613 C   0  0  0  0  0  0  0  0  0  0  0  0
    0.2922    0.9871   -2.0644 C   0  0  0  0  0  0  0  0  0  0  0  0
    1.2840    0.6323    1.3084 C   0  0  0  0  0  0  0  0  0  0  0  0
    2.4657   -0.1209    1.3398 C   0  0  0  0  0  0  0  0  0  0  0  0
    2.3425   -1.4931    1.4075 C   0  0  0  0  0  0  0  0  0  0  0  0
    1.1015   -2.0828    1.4484 C   0  0  0  0  0  0  0  0  0  0  0  0
    4.8994   -2.6555    3.6422 H   0  0  0  0  0  0  0  0  0  0  0  0
    6.3168   -1.8585    2.9232 H   0  0  0  0  0  0  0  0  0  0  0  0
    4.8308   -0.9406    3.2095 H   0  0  0  0  0  0  0  0  0  0  0  0
    5.0185   -1.5024    0.7881 H   0  0  0  0  0  0  0  0  0  0  0  0
    5.2436   -3.2071    1.1916 H   0  0  0  0  0  0  0  0  0  0  0  0
    0.2918   -5.3613    1.6674 H   0  0  0  0  0  0  0  0  0  0  0  0
   -1.9919   -4.3220    1.6266 H   0  0  0  0  0  0  0  0  0  0  0  0
   -2.2684   -1.9021    1.4751 H   0  0  0  0  0  0  0  0  0  0  0  0
   -3.6730    2.7280    0.0880 H   0  0  0  0  0  0  0  0  0  0  0  0
   -5.2980    4.3629    0.9993 H   0  0  0  0  0  0  0  0  0  0  0  0
   -4.5282    6.7030    1.4598 H   0  0  0  0  0  0  0  0  0  0  0  0
   -0.6818    5.8464    0.2517 H   0  0  0  0  0  0  0  0  0  0  0  0
   -2.9650    0.2133   -1.4569 H   0  0  0  0  0  0  0  0  0  0  0  0
   -2.5881   -1.2583   -3.3600 H   0  0  0  0  0  0  0  0  0  0  0  0
   -1.5226   -3.0097   -4.6373 H   0  0  0  0  0  0  0  0  0  0  0  0
   -0.7949   -2.6868   -6.2178 H   0  0  0  0  0  0  0  0  0  0  0  0
   -2.0582   -1.5998   -5.6323 H   0  0  0  0  0  0  0  0  0  0  0  0
    1.4805    0.1323   -3.6419 H   0  0  0  0  0  0  0  0  0  0  0  0
    1.1163    1.6043   -1.7148 H   0  0  0  0  0  0  0  0  0  0  0  0
    1.3588    1.7187    1.2615 H   0  0  0  0  0  0  0  0  0  0  0  0
    3.4339    0.3654    1.3052 H   0  0  0  0  0  0  0  0  0  0  0  0
  1  2  1  0
  2  3  1  0
  3  4  1  0
  4  5  2  0
  4  6  1  0
  6  7  2  0
  7  8  1  0
  8  9  2  0
  9 10  1  0
 10 11  2  0
 11 12  1  0
 12 13  2  0
 12 14  2  0
 12 15  1  0
 15 16  1  0
 16 17  2  0
 16 18  1  0
 18 19  2  0
 19 20  1  0
 20 21  2  0
 21 22  1  0
 22 23  2  0
 15 24  1  0
 24 25  2  0
 25 26  1  0
 26 27  2  0
 27 28  1  0
 28 29  1  0
 27 30  1  0
 30 31  2  0
 11 32  1  0
 32 33  2  0
 33 34  1  0
 34 35  2  0
 34  3  1  0
 35  6  1  0
 35 10  1  0
 23 18  1  0
 31 24  1  0
  1 36  1  0
  1 37  1  0
  1 38  1  0
  2 39  1  0
  2 40  1  0
  7 41  1  0
  8 42  1  0
  9 43  1  0
 19 44  1  0
 20 45  1  0
 21 46  1  0
 23 47  1  0
 25 48  1  0
 26 49  1  0
 29 50  1  0
 29 51  1  0
 29 52  1  0
 30 53  1  0
 31 54  1  0
 32 55  1  0
 33 56  1  0
M  END
$$$$
