
     RDKit          3D

 47 50  0  0  0  0  0  0  0  0999 V2000
    7.4045   -1.1801   -1.8098 C   0  0  0  0  0  0  0  0  0  0  0  0
    6.7748   -0.1293   -0.9292 C   0  0  0  0  0  0  0  0  0  0  0  0
    7.4507    0.7756   -0.4539 O   0  0  0  0  0  0  0  0  0  0  0  0
    5.4119   -0.3200   -0.7819 N   0  0  0  0  0  0  0  0  0  0  0  0
    4.5106    0.4677   -0.0333 C   0  0  0  0  0  0  0  0  0  0  0  0
    4.8854    1.5871    0.7066 C   0  0  0  0  0  0  0  0  0  0  0  0
    3.9287    2.3093    1.4227 C   0  0  0  0  0  0  0  0  0  0  0  0
    2.5879    1.9212    1.4066 C   0  0  0  0  0  0  0  0  0  0  0  0
    2.1908    0.8063    0.6719 C   0  0  0  0  0  0  0  0  0  0  0  0
    0.8591    0.3427    0.6060 N   0  0  0  0  0  0  0  0  0  0  0  0
   -0.2527    0.9078    1.2006 C   0  0  0  0  0  0  0  0  0  0  0  0
   -0.3212    1.9457    1.8436 O   0  0  0  0  0  0  0  0  0  0  0  0
   -1.5105    0.1660    0.9557 C   0  0  0  0  0  0  0  0  0  0  0  0
   -2.5192    0.8709    0.2965 C   0  0  0  0  0  0  0  0  0  0  0  0
   -3.7003    0.2148   -0.0007 C   0  0  0  0  0  0  0  0  0  0  0  0
   -4.8301    0.8556   -0.6969 C   0  0  0  0  0  0  0  0  0  0  0  0
   -5.0803    2.2360   -0.6513 C   0  0  0  0  0  0  0  0  0  0  0  0
   -6.1637    2.7872   -1.3375 C   0  0  0  0  0  0  0  0  0  0  0  0
   -6.9843    1.9411   -2.0606 C   0  0  0  0  0  0  0  0  0  0  0  0
   -6.7964    0.6096   -2.1350 N   0  0  0  0  0  0  0  0  0  0  0  0
   -5.7372    0.1050   -1.4501 C   0  0  0  0  0  0  0  0  0  0  0  0
   -3.8750   -1.0902    0.3263 N   0  0  0  0  0  0  0  0  0  0  0  0
   -2.9201   -1.7571    0.9943 C   0  0  0  0  0  0  0  0  0  0  0  0
   -3.1631   -3.0798    1.3412 C   0  0  0  0  0  0  0  0  0  0  0  0
   -2.2313   -3.8421    2.0507 C   0  0  0  0  0  0  0  0  0  0  0  0
   -1.0292   -3.2658    2.4310 C   0  0  0  0  0  0  0  0  0  0  0  0
    0.1250   -4.1847    3.3118 Cl  0  0  0  0  0  0  0  0  0  0  0  0
   -0.7559   -1.9421    2.0964 C   0  0  0  0  0  0  0  0  0  0  0  0
   -1.6930   -1.1739    1.3573 C   0  0  0  0  0  0  0  0  0  0  0  0
    3.1598    0.0846   -0.0433 C   0  0  0  0  0  0  0  0  0  0  0  0
    6.9593   -2.1622   -1.6257 H   0  0  0  0  0  0  0  0  0  0  0  0
    7.2670   -0.9039   -2.8585 H   0  0  0  0  0  0  0  0  0  0  0  0
    8.4737   -1.2464   -1.5887 H   0  0  0  0  0  0  0  0  0  0  0  0
    5.0121   -1.1093   -1.2723 H   0  0  0  0  0  0  0  0  0  0  0  0
    5.9150    1.9281    0.7520 H   0  0  0  0  0  0  0  0  0  0  0  0
    4.2315    3.1810    1.9984 H   0  0  0  0  0  0  0  0  0  0  0  0
    1.8824    2.5125    1.9818 H   0  0  0  0  0  0  0  0  0  0  0  0
    0.7049   -0.4807    0.0367 H   0  0  0  0  0  0  0  0  0  0  0  0
   -2.3549    1.9060    0.0129 H   0  0  0  0  0  0  0  0  0  0  0  0
   -4.4500    2.9021   -0.0673 H   0  0  0  0  0  0  0  0  0  0  0  0
   -6.3637    3.8525   -1.3017 H   0  0  0  0  0  0  0  0  0  0  0  0
   -7.8399    2.3218   -2.6106 H   0  0  0  0  0  0  0  0  0  0  0  0
   -5.6316   -0.9749   -1.5355 H   0  0  0  0  0  0  0  0  0  0  0  0
   -4.1123   -3.5312    1.0572 H   0  0  0  0  0  0  0  0  0  0  0  0
   -2.4605   -4.8733    2.3067 H   0  0  0  0  0  0  0  0  0  0  0  0
    0.1828   -1.5038    2.4305 H   0  0  0  0  0  0  0  0  0  0  0  0
    2.8588   -0.7876   -0.6168 H   0  0  0  0  0  0  0  0  0  0  0  0
  1  2  1  0
  2  3  2  0
  2  4  1  0
  4  5  1  0
  5  6  2  0
  6  7  1  0
  7  8  2  0
  8  9  1  0
  9 10  1  0
 10 11  1  0
 11 12  2  0
 11 13  1  0
 13 14  2  0
 14 15  1  0
 15 16  1  0
 16 17  2  0
 17 18  1  0
 18 19  2  0
 19 20  1  0
 20 21  2  0
 15 22  2  0
 22 23  1  0
 23 24  2  0
 24 25  1  0
 25 26  2  0
 26 27  1  0
 26 28  1  0
 28 29  2  0
  9 30  2  0
 30  5  1  0
 29 13  1  0
 21 16  1  0
 29 23  1  0
  1 31  1  0
  1 32  1  0
  1 33  1  0
  4 34  1  0
  6 35  1  0
  7 36  1  0
  8 37  1  0
 10 38  1  0
 14 39  1  0
 17 40  1  0
 18 41  1  0
 19 42  1  0
 21 43  1  0
 24 44  1  0
 25 45  1  0
 28 46  1  0
 30 47  1  0
M  END
$$$$
