
     RDKit          3D

 48 51  0  0  0  0  0  0  0  0999 V2000
    8.4133    1.9055   -1.4899 C   0  0  0  0  0  0  0  0  0  0  0  0
    7.9165    0.7006   -0.9218 O   0  0  0  0  0  0  0  0  0  0  0  0
    6.5638    0.6111   -0.7468 C   0  0  0  0  0  0  0  0  0  0  0  0
    6.1250   -0.5811   -0.1735 C   0  0  0  0  0  0  0  0  0  0  0  0
    4.7632   -0.8016    0.0608 C   0  0  0  0  0  0  0  0  0  0  0  0
    3.7964    0.1608   -0.2771 C   0  0  0  0  0  0  0  0  0  0  0  0
    2.3622   -0.0911   -0.0272 C   0  0  0  0  0  0  0  0  0  0  0  0
    1.3507    0.4087   -0.8403 C   0  0  0  0  0  0  0  0  0  0  0  0
    0.0218    0.1191   -0.5294 C   0  0  0  0  0  0  0  0  0  0  0  0
   -0.2939   -0.6689    0.5853 C   0  0  0  0  0  0  0  0  0  0  0  0
   -1.6929   -0.9554    0.8770 C   0  0  0  0  0  0  0  0  0  0  0  0
   -2.1391   -1.9312    1.6827 N   0  0  0  0  0  0  0  0  0  0  0  0
   -3.5229   -1.8184    1.6142 O   0  0  0  0  0  0  0  0  0  0  0  0
   -3.7984   -0.7857    0.7610 C   0  0  0  0  0  0  0  0  0  0  0  0
   -5.2140   -0.4863    0.5376 C   0  0  0  0  0  0  0  0  0  0  0  0
   -6.1726   -0.9154    1.4787 C   0  0  0  0  0  0  0  0  0  0  0  0
   -7.5293   -0.6392    1.3077 C   0  0  0  0  0  0  0  0  0  0  0  0
   -7.9523    0.0703    0.1913 C   0  0  0  0  0  0  0  0  0  0  0  0
   -7.0221    0.5041   -0.7552 C   0  0  0  0  0  0  0  0  0  0  0  0
   -5.6544    0.2351   -0.5940 C   0  0  0  0  0  0  0  0  0  0  0  0
   -4.6983    0.6137   -1.5021 O   0  0  0  0  0  0  0  0  0  0  0  0
   -5.0924    1.4527   -2.5786 C   0  0  0  0  0  0  0  0  0  0  0  0
   -2.7074   -0.2291    0.2838 N   0  0  0  0  0  0  0  0  0  0  0  0
    0.7792   -1.1285    1.3468 C   0  0  0  0  0  0  0  0  0  0  0  0
    0.5232   -1.8769    2.4772 O   0  0  0  0  0  0  0  0  0  0  0  0
    1.6911   -2.3076    3.1663 C   0  0  0  0  0  0  0  0  0  0  0  0
    2.0796   -0.8576    1.0545 N   0  0  0  0  0  0  0  0  0  0  0  0
    4.2599    1.3600   -0.8471 C   0  0  0  0  0  0  0  0  0  0  0  0
    5.6253    1.5840   -1.0814 C   0  0  0  0  0  0  0  0  0  0  0  0
    9.5020    1.8189   -1.5583 H   0  0  0  0  0  0  0  0  0  0  0  0
    8.0268    2.0525   -2.5039 H   0  0  0  0  0  0  0  0  0  0  0  0
    8.1872    2.7659   -0.8514 H   0  0  0  0  0  0  0  0  0  0  0  0
    6.8464   -1.3480    0.0975 H   0  0  0  0  0  0  0  0  0  0  0  0
    4.4561   -1.7438    0.5122 H   0  0  0  0  0  0  0  0  0  0  0  0
    1.5739    1.0029   -1.7202 H   0  0  0  0  0  0  0  0  0  0  0  0
   -0.7685    0.5079   -1.1697 H   0  0  0  0  0  0  0  0  0  0  0  0
   -5.8680   -1.4668    2.3670 H   0  0  0  0  0  0  0  0  0  0  0  0
   -8.2515   -0.9778    2.0466 H   0  0  0  0  0  0  0  0  0  0  0  0
   -9.0091    0.2860    0.0525 H   0  0  0  0  0  0  0  0  0  0  0  0
   -7.4001    1.0460   -1.6161 H   0  0  0  0  0  0  0  0  0  0  0  0
   -4.1938    1.7095   -3.1479 H   0  0  0  0  0  0  0  0  0  0  0  0
   -5.5329    2.3867   -2.2144 H   0  0  0  0  0  0  0  0  0  0  0  0
   -5.7750    0.9285   -3.2552 H   0  0  0  0  0  0  0  0  0  0  0  0
    1.3693   -2.8995    4.0287 H   0  0  0  0  0  0  0  0  0  0  0  0
    2.2658   -1.4553    3.5450 H   0  0  0  0  0  0  0  0  0  0  0  0
    2.3113   -2.9526    2.5341 H   0  0  0  0  0  0  0  0  0  0  0  0
    3.5623    2.1549   -1.1021 H   0  0  0  0  0  0  0  0  0  0  0  0
    5.9168    2.5321   -1.5207 H   0  0  0  0  0  0  0  0  0  0  0  0
  1  2  1  0
  2  3  1  0
  3  4  2  0
  4  5  1  0
  5  6  2  0
  6  7  1  0
  7  8  2  0
  8  9  1  0
  9 10  2  0
 10 11  1  0
 11 12  2  0
 12 13  1  0
 13 14  1  0
 14 15  1  0
 15 16  2  0
 16 17  1  0
 17 18  2  0
 18 19  1  0
 19 20  2  0
 20 21  1  0
 21 22  1  0
 14 23  2  0
 10 24  1  0
 24 25  1  0
 25 26  1  0
 24 27  2  0
  6 28  1  0
 28 29  2  0
 29  3  1  0
 27  7  1  0
 23 11  1  0
 20 15  1  0
  1 30  1  0
  1 31  1  0
  1 32  1  0
  4 33  1  0
  5 34  1  0
  8 35  1  0
  9 36  1  0
 16 37  1  0
 17 38  1  0
 18 39  1  0
 19 40  1  0
 22 41  1  0
 22 42  1  0
 22 43  1  0
 26 44  1  0
 26 45  1  0
 26 46  1  0
 28 47  1  0
 29 48  1  0
M  END
$$$$
