
     RDKit          3D

 57 59  0  0  0  0  0  0  0  0999 V2000
    1.0829    4.1922    2.2081 C   0  0  0  0  0  0  0  0  0  0  0  0
    0.9862    3.0861    1.3177 O   0  0  0  0  0  0  0  0  0  0  0  0
   -0.2688    2.7733    0.8453 C   0  0  0  0  0  0  0  0  0  0  0  0
   -1.4390    3.4712    1.1610 C   0  0  0  0  0  0  0  0  0  0  0  0
   -2.6624    3.0635    0.6256 C   0  0  0  0  0  0  0  0  0  0  0  0
   -2.7114    1.9614   -0.2310 C   0  0  0  0  0  0  0  0  0  0  0  0
   -4.2661    1.4849   -0.9490 S   0  0  0  0  0  6  0  0  0  0  0  0
   -5.1110    2.6622   -0.9555 O   0  0  0  0  0  0  0  0  0  0  0  0
   -4.0077    0.7552   -2.1714 O   0  0  0  0  0  0  0  0  0  0  0  0
   -4.9018    0.3868    0.2002 N   0  0  0  0  0  0  0  0  0  0  0  0
   -4.0625   -0.8203    0.4632 C   0  0  0  0  0  0  0  0  0  0  0  0
   -4.8493   -1.8641    1.2465 C   0  0  0  0  0  0  0  0  0  0  0  0
   -6.0501   -2.3680    0.4497 C   0  0  0  0  0  0  0  0  0  0  0  0
   -6.5892   -1.3109   -0.5111 C   0  0  0  0  0  0  0  0  0  0  0  0
   -6.3567    0.0973    0.0186 C   0  0  0  0  0  0  0  0  0  0  0  0
   -1.5481    1.2658   -0.5708 C   0  0  0  0  0  0  0  0  0  0  0  0
   -0.3281    1.6528   -0.0149 C   0  0  0  0  0  0  0  0  0  0  0  0
    0.8884    0.9835   -0.2771 N   0  0  0  0  0  0  0  0  0  0  0  0
    1.0617   -0.2355   -0.8995 C   0  0  0  0  0  0  0  0  0  0  0  0
    0.1735   -0.9991   -1.2591 O   0  0  0  0  0  0  0  0  0  0  0  0
    2.4817   -0.6534   -1.0808 C   0  0  0  0  0  0  0  0  0  0  0  0
    3.5007    0.2759   -1.3225 C   0  0  0  0  0  0  0  0  0  0  0  0
    4.8187   -0.1580   -1.4976 C   0  0  0  0  0  0  0  0  0  0  0  0
    5.1364   -1.5238   -1.4357 C   0  0  0  0  0  0  0  0  0  0  0  0
    6.5564   -1.9857   -1.6349 C   0  0  0  0  0  0  0  0  0  0  0  0
    7.2907   -2.5329   -0.0949 S   0  0  0  0  0  6  0  0  0  0  0  0
    6.9995   -1.2101    1.0586 C   0  0  0  0  0  0  0  0  0  0  0  0
    6.5795   -3.7048    0.3824 O   0  0  0  0  0  0  0  0  0  0  0  0
    8.7266   -2.5951   -0.3081 O   0  0  0  0  0  0  0  0  0  0  0  0
    4.1057   -2.4488   -1.2161 C   0  0  0  0  0  0  0  0  0  0  0  0
    2.7885   -2.0173   -1.0424 C   0  0  0  0  0  0  0  0  0  0  0  0
    0.5061    4.0152    3.1219 H   0  0  0  0  0  0  0  0  0  0  0  0
    2.1338    4.2984    2.4941 H   0  0  0  0  0  0  0  0  0  0  0  0
    0.7764    5.1217    1.7172 H   0  0  0  0  0  0  0  0  0  0  0  0
   -1.4366    4.3352    1.8173 H   0  0  0  0  0  0  0  0  0  0  0  0
   -3.5700    3.6114    0.8728 H   0  0  0  0  0  0  0  0  0  0  0  0
   -3.7017   -1.2562   -0.4750 H   0  0  0  0  0  0  0  0  0  0  0  0
   -3.1973   -0.5225    1.0640 H   0  0  0  0  0  0  0  0  0  0  0  0
   -5.1991   -1.4244    2.1894 H   0  0  0  0  0  0  0  0  0  0  0  0
   -4.2034   -2.7081    1.5136 H   0  0  0  0  0  0  0  0  0  0  0  0
   -6.8359   -2.6791    1.1484 H   0  0  0  0  0  0  0  0  0  0  0  0
   -5.7745   -3.2616   -0.1231 H   0  0  0  0  0  0  0  0  0  0  0  0
   -6.0939   -1.4199   -1.4843 H   0  0  0  0  0  0  0  0  0  0  0  0
   -7.6579   -1.4817   -0.6826 H   0  0  0  0  0  0  0  0  0  0  0  0
   -6.8483    0.2284    0.9902 H   0  0  0  0  0  0  0  0  0  0  0  0
   -6.8257    0.8175   -0.6596 H   0  0  0  0  0  0  0  0  0  0  0  0
   -1.6127    0.4354   -1.2678 H   0  0  0  0  0  0  0  0  0  0  0  0
    1.6900    1.4185    0.1679 H   0  0  0  0  0  0  0  0  0  0  0  0
    3.2805    1.3368   -1.4130 H   0  0  0  0  0  0  0  0  0  0  0  0
    5.5906    0.5828   -1.7006 H   0  0  0  0  0  0  0  0  0  0  0  0
    6.5988   -2.8217   -2.3406 H   0  0  0  0  0  0  0  0  0  0  0  0
    7.1868   -1.1804   -2.0263 H   0  0  0  0  0  0  0  0  0  0  0  0
    7.5419   -1.4417    1.9781 H   0  0  0  0  0  0  0  0  0  0  0  0
    7.3779   -0.2797    0.6315 H   0  0  0  0  0  0  0  0  0  0  0  0
    5.9325   -1.1402    1.2736 H   0  0  0  0  0  0  0  0  0  0  0  0
    4.3165   -3.5179   -1.1787 H   0  0  0  0  0  0  0  0  0  0  0  0
    2.0005   -2.7506   -0.8779 H   0  0  0  0  0  0  0  0  0  0  0  0
  1  2  1  0
  2  3  1  0
  3  4  2  0
  4  5  1  0
  5  6  2  0
  6  7  1  0
  7  8  2  0
  7  9  2  0
  7 10  1  0
 10 11  1  0
 11 12  1  0
 12 13  1  0
 13 14  1  0
 14 15  1  0
  6 16  1  0
 16 17  2  0
 17 18  1  0
 18 19  1  0
 19 20  2  0
 19 21  1  0
 21 22  2  0
 22 23  1  0
 23 24  2  0
 24 25  1  0
 25 26  1  0
 26 27  1  0
 26 28  2  0
 26 29  2  0
 24 30  1  0
 30 31  2  0
 17  3  1  0
 31 21  1  0
 15 10  1  0
  1 32  1  0
  1 33  1  0
  1 34  1  0
  4 35  1  0
  5 36  1  0
 11 37  1  0
 11 38  1  0
 12 39  1  0
 12 40  1  0
 13 41  1  0
 13 42  1  0
 14 43  1  0
 14 44  1  0
 15 45  1  0
 15 46  1  0
 16 47  1  0
 18 48  1  0
 22 49  1  0
 23 50  1  0
 25 51  1  0
 25 52  1  0
 27 53  1  0
 27 54  1  0
 27 55  1  0
 30 56  1  0
 31 57  1  0
M  END
$$$$
