
     RDKit          3D

 45 46  0  0  0  0  0  0  0  0999 V2000
   -1.9539    2.2865    3.0964 C   0  0  0  0  0  0  0  0  0  0  0  0
   -1.5975    1.5541    1.9230 O   0  0  0  0  0  0  0  0  0  0  0  0
   -2.5672    0.6898    1.4901 C   0  0  0  0  0  0  0  0  0  0  0  0
   -3.6714    0.5904    2.0113 O   0  0  0  0  0  0  0  0  0  0  0  0
   -2.1213   -0.0764    0.2283 C   0  0  0  0  0  0  0  0  0  0  0  0
   -2.9735    0.3701   -0.9704 C   0  0  0  0  0  0  0  0  0  0  0  0
   -4.2364   -0.4407   -1.1423 C   0  0  0  0  0  0  0  0  0  0  0  0
   -4.1924   -1.6833   -1.7907 C   0  0  0  0  0  0  0  0  0  0  0  0
   -5.3532   -2.4425   -1.9457 C   0  0  0  0  0  0  0  0  0  0  0  0
   -6.5670   -1.9698   -1.4517 C   0  0  0  0  0  0  0  0  0  0  0  0
   -6.6206   -0.7389   -0.8009 C   0  0  0  0  0  0  0  0  0  0  0  0
   -5.4611    0.0227   -0.6458 C   0  0  0  0  0  0  0  0  0  0  0  0
   -0.6967    0.1646   -0.0654 N   0  0  0  0  0  0  0  0  0  0  0  0
    0.2789   -0.6476    0.4751 C   0  0  0  0  0  0  0  0  0  0  0  0
    0.0325   -1.6763    1.0931 O   0  0  0  0  0  0  0  0  0  0  0  0
    1.6779   -0.1204    0.2487 C   0  0  0  0  0  0  0  0  0  0  0  0
    2.7250   -1.1510    0.6503 C   0  0  0  0  0  0  0  0  0  0  0  0
    4.0757   -0.6401    0.5270 N   0  0  0  0  0  0  0  0  0  0  0  0
    4.7072   -0.4797   -0.6885 C   0  0  0  0  0  0  0  0  0  0  0  0
    4.1383   -0.6824   -1.7578 O   0  0  0  0  0  0  0  0  0  0  0  0
    6.0855   -0.0484   -0.5823 C   0  0  0  0  0  0  0  0  0  0  0  0
    7.0333    0.2143   -1.5534 C   0  0  0  0  0  0  0  0  0  0  0  0
    8.2149    0.6016   -0.8775 C   0  0  0  0  0  0  0  0  0  0  0  0
    7.9210    0.5533    0.4643 C   0  0  0  0  0  0  0  0  0  0  0  0
    6.6350    0.1619    0.6580 O   0  0  0  0  0  0  0  0  0  0  0  0
   -2.1664    1.6049    3.9261 H   0  0  0  0  0  0  0  0  0  0  0  0
   -2.8120    2.9354    2.8955 H   0  0  0  0  0  0  0  0  0  0  0  0
   -1.1029    2.9142    3.3745 H   0  0  0  0  0  0  0  0  0  0  0  0
   -2.2460   -1.1447    0.4398 H   0  0  0  0  0  0  0  0  0  0  0  0
   -2.3965    0.2773   -1.9011 H   0  0  0  0  0  0  0  0  0  0  0  0
   -3.2258    1.4363   -0.8949 H   0  0  0  0  0  0  0  0  0  0  0  0
   -3.2520   -2.0701   -2.1781 H   0  0  0  0  0  0  0  0  0  0  0  0
   -5.3091   -3.4050   -2.4486 H   0  0  0  0  0  0  0  0  0  0  0  0
   -7.4701   -2.5628   -1.5684 H   0  0  0  0  0  0  0  0  0  0  0  0
   -7.5650   -0.3735   -0.4062 H   0  0  0  0  0  0  0  0  0  0  0  0
   -5.5219    0.9745   -0.1221 H   0  0  0  0  0  0  0  0  0  0  0  0
   -0.4319    1.1238   -0.2551 H   0  0  0  0  0  0  0  0  0  0  0  0
    1.8006    0.7929    0.8430 H   0  0  0  0  0  0  0  0  0  0  0  0
    1.7878    0.1499   -0.8075 H   0  0  0  0  0  0  0  0  0  0  0  0
    2.6363   -2.0494    0.0284 H   0  0  0  0  0  0  0  0  0  0  0  0
    2.5950   -1.4531    1.6953 H   0  0  0  0  0  0  0  0  0  0  0  0
    4.6388   -0.4986    1.3588 H   0  0  0  0  0  0  0  0  0  0  0  0
    6.8757    0.1300   -2.6204 H   0  0  0  0  0  0  0  0  0  0  0  0
    9.1638    0.8802   -1.3142 H   0  0  0  0  0  0  0  0  0  0  0  0
    8.4886    0.7566    1.3621 H   0  0  0  0  0  0  0  0  0  0  0  0
  1  2  1  0
  2  3  1  0
  3  4  2  0
  3  5  1  0
  5  6  1  0
  6  7  1  0
  7  8  2  0
  8  9  1  0
  9 10  2  0
 10 11  1  0
 11 12  2  0
  5 13  1  0
 13 14  1  0
 14 15  2  0
 14 16  1  0
 16 17  1  0
 17 18  1  0
 18 19  1  0
 19 20  2  0
 19 21  1  0
 21 22  2  0
 22 23  1  0
 23 24  2  0
 24 25  1  0
 12  7  1  0
 25 21  1  0
  1 26  1  0
  1 27  1  0
  1 28  1  0
  5 29  1  0
  6 30  1  0
  6 31  1  0
  8 32  1  0
  9 33  1  0
 10 34  1  0
 11 35  1  0
 12 36  1  0
 13 37  1  0
 16 38  1  0
 16 39  1  0
 17 40  1  0
 17 41  1  0
 18 42  1  0
 22 43  1  0
 23 44  1  0
 24 45  1  0
M  END
$$$$
