
     RDKit          3D

 52 55  0  0  0  0  0  0  0  0999 V2000
    6.6056    3.3111   -1.7736 C   0  0  0  0  0  0  0  0  0  0  0  0
    5.9527    2.2319   -2.6235 C   0  0  0  0  0  0  0  0  0  0  0  0
    4.7402    1.6433   -1.9477 C   0  0  0  0  0  0  0  0  0  0  0  0
    4.8678    0.5431   -1.0902 C   0  0  0  0  0  0  0  0  0  0  0  0
    3.7470    0.0052   -0.4496 C   0  0  0  0  0  0  0  0  0  0  0  0
    2.4836    0.5668   -0.6584 C   0  0  0  0  0  0  0  0  0  0  0  0
    1.2741    0.0229    0.0024 C   0  0  0  0  0  0  0  0  0  0  0  0
    0.1020    0.5732   -0.0972 N   0  0  0  0  0  0  0  0  0  0  0  0
   -0.7715   -0.2019    0.6115 N   0  0  0  0  0  0  0  0  0  0  0  0
   -2.0778    0.2250    0.8442 C   0  0  0  0  0  0  0  0  0  0  0  0
   -2.9930   -0.5239    1.6036 C   0  0  0  0  0  0  0  0  0  0  0  0
   -4.3033   -0.0807    1.8267 C   0  0  0  0  0  0  0  0  0  0  0  0
   -4.7189    1.1378    1.2935 C   0  0  0  0  0  0  0  0  0  0  0  0
   -6.3777    1.6904    1.5435 S   0  0  0  0  0  6  0  0  0  0  0  0
   -6.2187    2.6661    2.9011 N   0  0  0  0  0  0  0  0  0  0  0  0
   -7.1975    0.5750    1.9568 O   0  0  0  0  0  0  0  0  0  0  0  0
   -6.7577    2.5719    0.4644 O   0  0  0  0  0  0  0  0  0  0  0  0
   -3.8450    1.9011    0.5241 C   0  0  0  0  0  0  0  0  0  0  0  0
   -2.5400    1.4435    0.3111 C   0  0  0  0  0  0  0  0  0  0  0  0
   -0.1625   -1.4319    1.1211 C   0  0  0  0  0  0  0  0  0  0  0  0
   -0.6454   -2.6879    0.4064 C   0  0  0  0  0  0  0  0  0  0  0  0
   -0.7211   -3.9000    1.1170 C   0  0  0  0  0  0  0  0  0  0  0  0
   -1.1375   -5.0711    0.4809 C   0  0  0  0  0  0  0  0  0  0  0  0
   -1.4741   -5.0383   -0.8666 C   0  0  0  0  0  0  0  0  0  0  0  0
   -1.8715   -6.1639   -1.4740 F   0  0  0  0  0  0  0  0  0  0  0  0
   -1.4009   -3.8569   -1.5922 C   0  0  0  0  0  0  0  0  0  0  0  0
   -0.9839   -2.6849   -0.9592 C   0  0  0  0  0  0  0  0  0  0  0  0
    1.3296   -1.2019    0.8733 C   0  0  0  0  0  0  0  0  0  0  0  0
    2.3531    1.6713   -1.5074 C   0  0  0  0  0  0  0  0  0  0  0  0
    3.4742    2.2069   -2.1462 C   0  0  0  0  0  0  0  0  0  0  0  0
    6.9349    2.9118   -0.8083 H   0  0  0  0  0  0  0  0  0  0  0  0
    5.9121    4.1357   -1.5769 H   0  0  0  0  0  0  0  0  0  0  0  0
    7.4812    3.7197   -2.2879 H   0  0  0  0  0  0  0  0  0  0  0  0
    5.6667    2.6488   -3.5968 H   0  0  0  0  0  0  0  0  0  0  0  0
    6.6785    1.4373   -2.8358 H   0  0  0  0  0  0  0  0  0  0  0  0
    5.8453    0.0981   -0.9148 H   0  0  0  0  0  0  0  0  0  0  0  0
    3.8894   -0.8463    0.2083 H   0  0  0  0  0  0  0  0  0  0  0  0
   -2.7085   -1.4797    2.0331 H   0  0  0  0  0  0  0  0  0  0  0  0
   -4.9847   -0.6945    2.4111 H   0  0  0  0  0  0  0  0  0  0  0  0
   -6.7660    2.2790    3.6698 H   0  0  0  0  0  0  0  0  0  0  0  0
   -6.4597    3.6285    2.6638 H   0  0  0  0  0  0  0  0  0  0  0  0
   -4.1609    2.8443    0.0856 H   0  0  0  0  0  0  0  0  0  0  0  0
   -1.8686    2.0529   -0.2912 H   0  0  0  0  0  0  0  0  0  0  0  0
   -0.3395   -1.5266    2.2001 H   0  0  0  0  0  0  0  0  0  0  0  0
   -0.4582   -3.9402    2.1721 H   0  0  0  0  0  0  0  0  0  0  0  0
   -1.2017   -6.0076    1.0257 H   0  0  0  0  0  0  0  0  0  0  0  0
   -1.6703   -3.8516   -2.6435 H   0  0  0  0  0  0  0  0  0  0  0  0
   -0.9343   -1.7620   -1.5362 H   0  0  0  0  0  0  0  0  0  0  0  0
    1.8363   -2.0358    0.3801 H   0  0  0  0  0  0  0  0  0  0  0  0
    1.8471   -0.9470    1.8044 H   0  0  0  0  0  0  0  0  0  0  0  0
    1.3780    2.1235   -1.6778 H   0  0  0  0  0  0  0  0  0  0  0  0
    3.3507    3.0682   -2.7994 H   0  0  0  0  0  0  0  0  0  0  0  0
  1  2  1  0
  2  3  1  0
  3  4  2  0
  4  5  1  0
  5  6  2  0
  6  7  1  0
  7  8  2  0
  8  9  1  0
  9 10  1  0
 10 11  2  0
 11 12  1  0
 12 13  2  0
 13 14  1  0
 14 15  1  0
 14 16  2  0
 14 17  2  0
 13 18  1  0
 18 19  2  0
  9 20  1  0
 20 21  1  0
 21 22  2  0
 22 23  1  0
 23 24  2  0
 24 25  1  0
 24 26  1  0
 26 27  2  0
 20 28  1  0
  6 29  1  0
 29 30  2  0
 30  3  1  0
 28  7  1  0
 19 10  1  0
 27 21  1  0
  1 31  1  0
  1 32  1  0
  1 33  1  0
  2 34  1  0
  2 35  1  0
  4 36  1  0
  5 37  1  0
 11 38  1  0
 12 39  1  0
 15 40  1  0
 15 41  1  0
 18 42  1  0
 19 43  1  0
 20 44  1  0
 22 45  1  0
 23 46  1  0
 26 47  1  0
 27 48  1  0
 28 49  1  0
 28 50  1  0
 29 51  1  0
 30 52  1  0
M  END
$$$$
