
     RDKit          3D

 28 30  0  0  0  0  0  0  0  0999 V2000
    1.0104    4.4310    0.0030 S   0  0  0  0  0  0  0  0  0  0  0  0
   -0.2318    3.3373    0.0723 C   0  0  0  0  0  0  0  0  0  0  0  0
   -1.5595    3.6676    0.3370 N   0  0  0  0  0  0  0  0  0  0  0  0
   -2.3508    2.5459    0.3246 N   0  0  0  0  0  0  0  0  0  0  0  0
   -1.5279    1.5658    0.0531 C   0  0  0  0  0  0  0  0  0  0  0  0
   -1.9663    0.1743   -0.1057 C   0  0  0  0  0  0  0  0  0  0  0  0
   -3.0178   -0.3115    0.6735 C   0  0  0  0  0  0  0  0  0  0  0  0
   -3.4330   -1.6316    0.5151 C   0  0  0  0  0  0  0  0  0  0  0  0
   -2.7856   -2.4160   -0.4264 C   0  0  0  0  0  0  0  0  0  0  0  0
   -1.7781   -1.9700   -1.2088 N   0  0  0  0  0  0  0  0  0  0  0  0
   -1.3998   -0.6790   -1.0426 C   0  0  0  0  0  0  0  0  0  0  0  0
   -0.2224    1.9654   -0.0708 N   0  0  0  0  0  0  0  0  0  0  0  0
    0.8923    1.2166   -0.2867 N   0  0  0  0  0  0  0  0  0  0  0  0
    1.1913    0.3936    0.6710 C   0  0  0  0  0  0  0  0  0  0  0  0
    2.3342   -0.4757    0.5563 C   0  0  0  0  0  0  0  0  0  0  0  0
    3.2548   -0.5758   -0.4698 C   0  0  0  0  0  0  0  0  0  0  0  0
    4.2467   -1.5692   -0.2099 C   0  0  0  0  0  0  0  0  0  0  0  0
    4.0321   -2.1761    1.0013 C   0  0  0  0  0  0  0  0  0  0  0  0
    5.1491   -3.5594    1.7013 Br  0  0  0  0  0  0  0  0  0  0  0  0
    2.6754   -1.5778    1.8206 S   0  0  0  0  0  0  0  0  0  0  0  0
   -1.9363    4.5955    0.4915 H   0  0  0  0  0  0  0  0  0  0  0  0
   -3.5124    0.3293    1.3997 H   0  0  0  0  0  0  0  0  0  0  0  0
   -4.2449   -2.0376    1.1089 H   0  0  0  0  0  0  0  0  0  0  0  0
   -3.0725   -3.4520   -0.5859 H   0  0  0  0  0  0  0  0  0  0  0  0
   -0.6151   -0.3525   -1.7196 H   0  0  0  0  0  0  0  0  0  0  0  0
    0.5864    0.3389    1.5959 H   0  0  0  0  0  0  0  0  0  0  0  0
    3.2192    0.0361   -1.3646 H   0  0  0  0  0  0  0  0  0  0  0  0
    5.0624   -1.8133   -0.8794 H   0  0  0  0  0  0  0  0  0  0  0  0
  1  2  2  0
  2  3  1  0
  3  4  1  0
  4  5  2  0
  5  6  1  0
  6  7  2  0
  7  8  1  0
  8  9  2  0
  9 10  1  0
 10 11  2  0
  5 12  1  0
 12 13  1  0
 13 14  2  3
 14 15  1  0
 15 16  2  0
 16 17  1  0
 17 18  2  0
 18 19  1  0
 18 20  1  0
 12  2  1  0
 20 15  1  0
 11  6  1  0
  3 21  1  0
  7 22  1  0
  8 23  1  0
  9 24  1  0
 11 25  1  0
 14 26  1  0
 16 27  1  0
 17 28  1  0
M  END
$$$$
