
     RDKit          3D

 48 50  0  0  0  0  0  0  0  0999 V2000
    0.1129   -3.8482   -1.5591 C   0  0  0  0  0  0  0  0  0  0  0  0
    0.2766   -3.2503   -0.1698 C   0  0  0  0  0  0  0  0  0  0  0  0
    1.3055   -2.1621   -0.1527 C   0  0  0  0  0  0  0  0  0  0  0  0
    1.1379   -0.8467   -0.0335 C   0  0  0  0  0  0  0  0  0  0  0  0
   -0.1429   -0.1531    0.0783 C   0  0  0  0  0  0  0  0  0  0  0  0
   -0.8452    0.2027   -1.0821 C   0  0  0  0  0  0  0  0  0  0  0  0
   -2.0817    0.8448   -0.9939 C   0  0  0  0  0  0  0  0  0  0  0  0
   -2.8379    1.2379   -2.0675 O   0  0  0  0  0  0  0  0  0  0  0  0
   -2.2395    1.1584   -3.3539 C   0  0  0  0  0  0  0  0  0  0  0  0
   -2.6226    1.1003    0.2776 C   0  0  0  0  0  0  0  0  0  0  0  0
   -3.8217    1.7722    0.3772 O   0  0  0  0  0  0  0  0  0  0  0  0
   -4.8985    0.8372    0.4085 C   0  0  0  0  0  0  0  0  0  0  0  0
   -1.9297    0.7543    1.4503 C   0  0  0  0  0  0  0  0  0  0  0  0
   -2.5466    1.0619    2.6354 O   0  0  0  0  0  0  0  0  0  0  0  0
   -1.7821    0.9233    3.8251 C   0  0  0  0  0  0  0  0  0  0  0  0
   -0.6953    0.1113    1.3387 C   0  0  0  0  0  0  0  0  0  0  0  0
    2.4639   -0.1649   -0.0604 C   0  0  0  0  0  0  0  0  0  0  0  0
    2.6873    0.8006   -1.2358 C   0  0  0  0  0  0  0  0  0  0  0  0
    3.6783    1.8232   -0.6937 C   0  0  0  0  0  0  0  0  0  0  0  0
    3.2279    2.0094    0.7445 C   0  0  0  0  0  0  0  0  0  0  0  0
    2.8605    0.6034    1.2151 C   0  0  0  0  0  0  0  0  0  0  0  0
    3.3533   -1.4013   -0.2273 C   0  0  0  0  0  0  0  0  0  0  0  0
    4.5751   -1.3767   -0.3224 O   0  0  0  0  0  0  0  0  0  0  0  0
    2.6324   -2.5709   -0.2601 O   0  0  0  0  0  0  0  0  0  0  0  0
    1.0506   -4.2852   -1.9184 H   0  0  0  0  0  0  0  0  0  0  0  0
   -0.6427   -4.6402   -1.5421 H   0  0  0  0  0  0  0  0  0  0  0  0
   -0.2087   -3.0896   -2.2808 H   0  0  0  0  0  0  0  0  0  0  0  0
   -0.6951   -2.8805    0.1755 H   0  0  0  0  0  0  0  0  0  0  0  0
    0.5741   -4.0363    0.5344 H   0  0  0  0  0  0  0  0  0  0  0  0
   -0.4073   -0.0362   -2.0462 H   0  0  0  0  0  0  0  0  0  0  0  0
   -2.9369    1.5960   -4.0747 H   0  0  0  0  0  0  0  0  0  0  0  0
   -2.0724    0.1161   -3.6441 H   0  0  0  0  0  0  0  0  0  0  0  0
   -1.3099    1.7356   -3.3974 H   0  0  0  0  0  0  0  0  0  0  0  0
   -5.8311    1.4039    0.4875 H   0  0  0  0  0  0  0  0  0  0  0  0
   -4.9411    0.2448   -0.5121 H   0  0  0  0  0  0  0  0  0  0  0  0
   -4.8302    0.1772    1.2802 H   0  0  0  0  0  0  0  0  0  0  0  0
   -2.3796    1.3146    4.6542 H   0  0  0  0  0  0  0  0  0  0  0  0
   -0.8573    1.5080    3.7760 H   0  0  0  0  0  0  0  0  0  0  0  0
   -1.5733   -0.1308    4.0348 H   0  0  0  0  0  0  0  0  0  0  0  0
   -0.1499   -0.2040    2.2222 H   0  0  0  0  0  0  0  0  0  0  0  0
    1.7645    1.3209   -1.5155 H   0  0  0  0  0  0  0  0  0  0  0  0
    3.0790    0.3119   -2.1345 H   0  0  0  0  0  0  0  0  0  0  0  0
    3.6579    2.7591   -1.2595 H   0  0  0  0  0  0  0  0  0  0  0  0
    4.6991    1.4253   -0.7265 H   0  0  0  0  0  0  0  0  0  0  0  0
    4.0025    2.4650    1.3681 H   0  0  0  0  0  0  0  0  0  0  0  0
    2.3421    2.6551    0.7789 H   0  0  0  0  0  0  0  0  0  0  0  0
    3.7294    0.1474    1.7055 H   0  0  0  0  0  0  0  0  0  0  0  0
    2.0684    0.6554    1.9673 H   0  0  0  0  0  0  0  0  0  0  0  0
  1  2  1  0
  2  3  1  0
  3  4  2  0
  4  5  1  0
  5  6  2  0
  6  7  1  0
  7  8  1  0
  8  9  1  0
  7 10  2  0
 10 11  1  0
 11 12  1  0
 10 13  1  0
 13 14  1  0
 14 15  1  0
 13 16  2  0
  4 17  1  0
 17 18  1  0
 18 19  1  0
 19 20  1  0
 20 21  1  0
 17 22  1  0
 22 23  2  0
 22 24  1  0
 24  3  1  0
 16  5  1  0
 21 17  1  0
  1 25  1  0
  1 26  1  0
  1 27  1  0
  2 28  1  0
  2 29  1  0
  6 30  1  0
  9 31  1  0
  9 32  1  0
  9 33  1  0
 12 34  1  0
 12 35  1  0
 12 36  1  0
 15 37  1  0
 15 38  1  0
 15 39  1  0
 16 40  1  0
 18 41  1  0
 18 42  1  0
 19 43  1  0
 19 44  1  0
 20 45  1  0
 20 46  1  0
 21 47  1  0
 21 48  1  0
M  END
$$$$
