
     RDKit          3D

 47 49  0  0  0  0  0  0  0  0999 V2000
    6.9790    1.0124    1.5567 C   0  0  0  0  0  0  0  0  0  0  0  0
    6.5532    1.3827    0.1466 C   0  0  0  0  0  0  0  0  0  0  0  0
    6.0847    0.2350   -0.5590 O   0  0  0  0  0  0  0  0  0  0  0  0
    4.7583   -0.0831   -0.4909 C   0  0  0  0  0  0  0  0  0  0  0  0
    3.8000    0.5211    0.3162 C   0  0  0  0  0  0  0  0  0  0  0  0
    2.4658    0.0857    0.2849 C   0  0  0  0  0  0  0  0  0  0  0  0
    2.0652   -0.9665   -0.5500 C   0  0  0  0  0  0  0  0  0  0  0  0
    0.6957   -1.4102   -0.5863 N   0  0  0  0  0  0  0  0  0  0  0  0
    0.2368   -2.6729   -0.9930 C   0  0  0  0  0  0  0  0  0  0  0  0
    1.0550   -3.6663   -1.3387 O   0  0  0  0  0  0  0  0  0  0  0  0
   -1.1398   -2.6942   -0.9103 C   0  0  0  0  0  0  0  0  0  0  0  0
   -1.5660   -1.4343   -0.4564 C   0  0  0  0  0  0  0  0  0  0  0  0
   -2.8532   -1.0124   -0.2462 N   0  0  0  0  0  0  0  0  0  0  0  0
   -3.8959   -2.0325   -0.0731 C   0  0  0  0  0  0  0  0  0  0  0  0
   -3.3138    0.1711   -1.0075 C   0  0  0  0  0  0  0  0  0  0  0  0
   -4.1472    1.1224   -0.1682 C   0  0  0  0  0  0  0  0  0  0  0  0
   -4.0288    1.2017    1.2286 C   0  0  0  0  0  0  0  0  0  0  0  0
   -4.7861    2.1201    1.9588 C   0  0  0  0  0  0  0  0  0  0  0  0
   -5.6643    2.9795    1.3030 C   0  0  0  0  0  0  0  0  0  0  0  0
   -5.7847    2.9235   -0.0834 C   0  0  0  0  0  0  0  0  0  0  0  0
   -5.0283    2.0051   -0.8145 C   0  0  0  0  0  0  0  0  0  0  0  0
   -0.4374   -0.6744   -0.2128 C   0  0  0  0  0  0  0  0  0  0  0  0
   -0.3787    0.5669    0.2728 O   0  0  0  0  0  0  0  0  0  0  0  0
    3.0390   -1.5721   -1.3541 C   0  0  0  0  0  0  0  0  0  0  0  0
    4.3688   -1.1335   -1.3207 C   0  0  0  0  0  0  0  0  0  0  0  0
    7.4050    1.8782    2.0717 H   0  0  0  0  0  0  0  0  0  0  0  0
    7.7283    0.2139    1.5330 H   0  0  0  0  0  0  0  0  0  0  0  0
    6.1361    0.6374    2.1445 H   0  0  0  0  0  0  0  0  0  0  0  0
    5.8360    2.2108    0.1292 H   0  0  0  0  0  0  0  0  0  0  0  0
    7.4353    1.7404   -0.3969 H   0  0  0  0  0  0  0  0  0  0  0  0
    4.0476    1.3273    0.9977 H   0  0  0  0  0  0  0  0  0  0  0  0
    1.7716    0.5733    0.9618 H   0  0  0  0  0  0  0  0  0  0  0  0
    0.5084   -4.4511   -1.5179 H   0  0  0  0  0  0  0  0  0  0  0  0
   -1.7627   -3.5392   -1.1654 H   0  0  0  0  0  0  0  0  0  0  0  0
   -3.5902   -2.7793    0.6686 H   0  0  0  0  0  0  0  0  0  0  0  0
   -4.1119   -2.5396   -1.0203 H   0  0  0  0  0  0  0  0  0  0  0  0
   -4.8270   -1.5864    0.2917 H   0  0  0  0  0  0  0  0  0  0  0  0
   -3.9029   -0.1710   -1.8690 H   0  0  0  0  0  0  0  0  0  0  0  0
   -2.4733    0.7469   -1.4152 H   0  0  0  0  0  0  0  0  0  0  0  0
   -3.3529    0.5374    1.7636 H   0  0  0  0  0  0  0  0  0  0  0  0
   -4.6886    2.1637    3.0406 H   0  0  0  0  0  0  0  0  0  0  0  0
   -6.2524    3.6947    1.8722 H   0  0  0  0  0  0  0  0  0  0  0  0
   -6.4651    3.5982   -0.5968 H   0  0  0  0  0  0  0  0  0  0  0  0
   -5.1295    1.9846   -1.8979 H   0  0  0  0  0  0  0  0  0  0  0  0
   -1.2903    0.7697    0.5542 H   0  0  0  0  0  0  0  0  0  0  0  0
    2.7958   -2.3687   -2.0497 H   0  0  0  0  0  0  0  0  0  0  0  0
    5.1053   -1.6160   -1.9588 H   0  0  0  0  0  0  0  0  0  0  0  0
  1  2  1  0
  2  3  1  0
  3  4  1  0
  4  5  2  0
  5  6  1  0
  6  7  2  0
  7  8  1  0
  8  9  1  0
  9 10  1  0
  9 11  2  0
 11 12  1  0
 12 13  1  0
 13 14  1  0
 13 15  1  0
 15 16  1  0
 16 17  2  0
 17 18  1  0
 18 19  2  0
 19 20  1  0
 20 21  2  0
 12 22  2  0
 22 23  1  0
  7 24  1  0
 24 25  2  0
 25  4  1  0
 22  8  1  0
 21 16  1  0
  1 26  1  0
  1 27  1  0
  1 28  1  0
  2 29  1  0
  2 30  1  0
  5 31  1  0
  6 32  1  0
 10 33  1  0
 11 34  1  0
 14 35  1  0
 14 36  1  0
 14 37  1  0
 15 38  1  0
 15 39  1  0
 17 40  1  0
 18 41  1  0
 19 42  1  0
 20 43  1  0
 21 44  1  0
 23 45  1  0
 24 46  1  0
 25 47  1  0
M  END
$$$$
