
     RDKit          3D

 40 42  0  0  0  0  0  0  0  0999 V2000
    0.5273   -4.1477    0.4421 C   0  0  0  0  0  0  0  0  0  0  0  0
   -0.0381   -2.8423    0.3169 O   0  0  0  0  0  0  0  0  0  0  0  0
    0.8782   -1.8339    0.2888 C   0  0  0  0  0  0  0  0  0  0  0  0
    2.0922   -2.0105    0.3642 O   0  0  0  0  0  0  0  0  0  0  0  0
    0.2810   -0.5016    0.1416 C   0  0  0  0  0  0  0  0  0  0  0  0
    1.0714    0.6366   -0.0006 C   0  0  0  0  0  0  0  0  0  0  0  0
    2.4604    0.6638    0.0044 N   0  0  0  0  0  0  0  0  0  0  0  0
    3.3001    1.7619   -0.1173 C   0  0  0  0  0  0  0  0  0  0  0  0
    2.9278    2.9236   -0.2469 O   0  0  0  0  0  0  0  0  0  0  0  0
    4.7179    1.4117   -0.0723 C   0  0  0  0  0  0  0  0  0  0  0  0
    5.4089    0.2150    0.0522 C   0  0  0  0  0  0  0  0  0  0  0  0
    6.7913    0.5284    0.0300 C   0  0  0  0  0  0  0  0  0  0  0  0
    6.8702    1.8918   -0.1063 C   0  0  0  0  0  0  0  0  0  0  0  0
    5.6298    2.4337   -0.1689 O   0  0  0  0  0  0  0  0  0  0  0  0
    0.1555    2.0484   -0.2045 S   0  0  0  0  0  0  0  0  0  0  0  0
   -1.3108    1.2039   -0.1028 C   0  0  0  0  0  0  0  0  0  0  0  0
   -1.1236   -0.1484    0.1164 C   0  0  0  0  0  0  0  0  0  0  0  0
   -2.3158   -1.0486    0.2575 C   0  0  0  0  0  0  0  0  0  0  0  0
   -3.5838   -0.2462    0.5946 C   0  0  0  0  0  0  0  0  0  0  0  0
   -3.7310    0.9502   -0.2480 N   0  0  0  0  0  0  0  0  0  0  0  0
   -4.9557    1.4342   -0.6902 C   0  0  0  0  0  0  0  0  0  0  0  0
   -6.1330    0.4946   -0.6364 C   0  0  0  0  0  0  0  0  0  0  0  0
   -5.0987    2.5774   -1.1240 O   0  0  0  0  0  0  0  0  0  0  0  0
   -2.6241    1.9170   -0.2244 C   0  0  0  0  0  0  0  0  0  0  0  0
    1.0814   -4.2370    1.3817 H   0  0  0  0  0  0  0  0  0  0  0  0
   -0.2922   -4.8715    0.4536 H   0  0  0  0  0  0  0  0  0  0  0  0
    1.1731   -4.3694   -0.4133 H   0  0  0  0  0  0  0  0  0  0  0  0
    2.8922   -0.2471    0.1272 H   0  0  0  0  0  0  0  0  0  0  0  0
    4.9829   -0.7741    0.1475 H   0  0  0  0  0  0  0  0  0  0  0  0
    7.6259   -0.1547    0.1037 H   0  0  0  0  0  0  0  0  0  0  0  0
    7.6895    2.5945   -0.1716 H   0  0  0  0  0  0  0  0  0  0  0  0
   -2.1586   -1.7900    1.0472 H   0  0  0  0  0  0  0  0  0  0  0  0
   -2.4625   -1.5819   -0.6897 H   0  0  0  0  0  0  0  0  0  0  0  0
   -4.4503   -0.9063    0.5137 H   0  0  0  0  0  0  0  0  0  0  0  0
   -3.5480    0.1050    1.6340 H   0  0  0  0  0  0  0  0  0  0  0  0
   -5.8990   -0.4394   -1.1540 H   0  0  0  0  0  0  0  0  0  0  0  0
   -6.9858    0.9551   -1.1449 H   0  0  0  0  0  0  0  0  0  0  0  0
   -6.4145    0.3035    0.4022 H   0  0  0  0  0  0  0  0  0  0  0  0
   -2.6507    2.5242   -1.1365 H   0  0  0  0  0  0  0  0  0  0  0  0
   -2.7806    2.5761    0.6380 H   0  0  0  0  0  0  0  0  0  0  0  0
  1  2  1  0
  2  3  1  0
  3  4  2  0
  3  5  1  0
  5  6  2  0
  6  7  1  0
  7  8  1  0
  8  9  2  0
  8 10  1  0
 10 11  2  0
 11 12  1  0
 12 13  2  0
 13 14  1  0
  6 15  1  0
 15 16  1  0
 16 17  2  0
 17 18  1  0
 18 19  1  0
 19 20  1  0
 20 21  1  0
 21 22  1  0
 21 23  2  0
 20 24  1  0
 17  5  1  0
 14 10  1  0
 24 16  1  0
  1 25  1  0
  1 26  1  0
  1 27  1  0
  7 28  1  0
 11 29  1  0
 12 30  1  0
 13 31  1  0
 18 32  1  0
 18 33  1  0
 19 34  1  0
 19 35  1  0
 22 36  1  0
 22 37  1  0
 22 38  1  0
 24 39  1  0
 24 40  1  0
M  END
$$$$
