
     RDKit          3D

 48 50  0  0  0  0  0  0  0  0999 V2000
    5.5004   -3.1101   -0.8541 C   0  0  0  0  0  0  0  0  0  0  0  0
    4.0400   -3.4925   -0.6699 C   0  0  0  0  0  0  0  0  0  0  0  0
    3.0912   -2.2984   -0.6609 C   0  0  0  0  0  0  0  0  0  0  0  0
    3.2146   -1.3133    0.8213 S   0  0  0  0  0  6  0  0  0  0  0  0
    2.8645   -2.1318    1.9665 O   0  0  0  0  0  0  0  0  0  0  0  0
    4.4291   -0.5225    0.7765 O   0  0  0  0  0  0  0  0  0  0  0  0
    1.8838   -0.1555    0.6394 C   0  0  0  0  0  0  0  0  0  0  0  0
    1.0208   -0.1279   -0.3525 N   0  0  0  0  0  0  0  0  0  0  0  0
    0.1288    0.9294   -0.1369 C   0  0  0  0  0  0  0  0  0  0  0  0
   -1.1293    1.2514   -1.3076 S   0  0  0  0  0  6  0  0  0  0  0  0
   -2.1698    1.9660   -0.5892 O   0  0  0  0  0  0  0  0  0  0  0  0
   -0.4373    1.8301   -2.4426 O   0  0  0  0  0  0  0  0  0  0  0  0
   -1.7499   -0.3453   -1.7574 C   0  0  0  0  0  0  0  0  0  0  0  0
   -1.2341   -0.9976   -2.8800 C   0  0  0  0  0  0  0  0  0  0  0  0
   -1.7385   -2.2483   -3.2397 C   0  0  0  0  0  0  0  0  0  0  0  0
   -2.7547   -2.8492   -2.4837 C   0  0  0  0  0  0  0  0  0  0  0  0
   -3.3193   -4.1772   -2.8976 C   0  0  0  0  0  0  0  0  0  0  0  0
   -3.2818   -2.1694   -1.3770 C   0  0  0  0  0  0  0  0  0  0  0  0
   -2.7826   -0.9186   -1.0109 C   0  0  0  0  0  0  0  0  0  0  0  0
    0.3215    1.6712    1.0278 C   0  0  0  0  0  0  0  0  0  0  0  0
   -0.3956    2.7428    1.4777 N   0  0  0  0  0  0  0  0  0  0  0  0
   -0.3609    3.1925    2.8669 C   0  0  0  0  0  0  0  0  0  0  0  0
   -1.2175    4.3864    3.1228 C   0  0  0  0  0  0  0  0  0  0  0  0
   -1.3101    5.6279    2.5263 C   0  0  0  0  0  0  0  0  0  0  0  0
   -2.3240    6.3300    3.2205 C   0  0  0  0  0  0  0  0  0  0  0  0
   -2.7835    5.4752    4.1947 C   0  0  0  0  0  0  0  0  0  0  0  0
   -2.1188    4.2923    4.1431 O   0  0  0  0  0  0  0  0  0  0  0  0
    1.6936    1.0180    1.8539 S   0  0  0  0  0  0  0  0  0  0  0  0
    6.1112   -4.0113   -0.9720 H   0  0  0  0  0  0  0  0  0  0  0  0
    5.6364   -2.4906   -1.7463 H   0  0  0  0  0  0  0  0  0  0  0  0
    5.8867   -2.5637    0.0106 H   0  0  0  0  0  0  0  0  0  0  0  0
    3.7545   -4.1502   -1.4997 H   0  0  0  0  0  0  0  0  0  0  0  0
    3.9310   -4.0767    0.2507 H   0  0  0  0  0  0  0  0  0  0  0  0
    2.0609   -2.6675   -0.7070 H   0  0  0  0  0  0  0  0  0  0  0  0
    3.2708   -1.6425   -1.5185 H   0  0  0  0  0  0  0  0  0  0  0  0
   -0.4464   -0.5432   -3.4775 H   0  0  0  0  0  0  0  0  0  0  0  0
   -1.3386   -2.7512   -4.1181 H   0  0  0  0  0  0  0  0  0  0  0  0
   -2.5406   -4.8108   -3.3358 H   0  0  0  0  0  0  0  0  0  0  0  0
   -4.1160   -4.0321   -3.6337 H   0  0  0  0  0  0  0  0  0  0  0  0
   -3.7284   -4.7151   -2.0357 H   0  0  0  0  0  0  0  0  0  0  0  0
   -4.0912   -2.6097   -0.7974 H   0  0  0  0  0  0  0  0  0  0  0  0
   -3.2083   -0.4021   -0.1532 H   0  0  0  0  0  0  0  0  0  0  0  0
   -1.3055    2.9209    1.0352 H   0  0  0  0  0  0  0  0  0  0  0  0
    0.6645    3.4566    3.1520 H   0  0  0  0  0  0  0  0  0  0  0  0
   -0.6857    2.3722    3.5194 H   0  0  0  0  0  0  0  0  0  0  0  0
   -0.7181    5.9745    1.6902 H   0  0  0  0  0  0  0  0  0  0  0  0
   -2.6776    7.3340    3.0340 H   0  0  0  0  0  0  0  0  0  0  0  0
   -3.5403    5.5527    4.9628 H   0  0  0  0  0  0  0  0  0  0  0  0
  1  2  1  0
  2  3  1  0
  3  4  1  0
  4  5  2  0
  4  6  2  0
  4  7  1  0
  7  8  2  0
  8  9  1  0
  9 10  1  0
 10 11  2  0
 10 12  2  0
 10 13  1  0
 13 14  2  0
 14 15  1  0
 15 16  2  0
 16 17  1  0
 16 18  1  0
 18 19  2  0
  9 20  2  0
 20 21  1  0
 21 22  1  0
 22 23  1  0
 23 24  2  0
 24 25  1  0
 25 26  2  0
 26 27  1  0
 20 28  1  0
 28  7  1  0
 19 13  1  0
 27 23  1  0
  1 29  1  0
  1 30  1  0
  1 31  1  0
  2 32  1  0
  2 33  1  0
  3 34  1  0
  3 35  1  0
 14 36  1  0
 15 37  1  0
 17 38  1  0
 17 39  1  0
 17 40  1  0
 18 41  1  0
 19 42  1  0
 21 43  1  0
 22 44  1  0
 22 45  1  0
 24 46  1  0
 25 47  1  0
 26 48  1  0
M  END
$$$$
