
     RDKit          3D

 48 50  0  0  0  0  0  0  0  0999 V2000
    4.1309    3.0256   -0.0626 C   0  0  0  0  0  0  0  0  0  0  0  0
    2.9870    2.1179   -0.3672 C   0  0  0  0  0  0  0  0  0  0  0  0
    1.6490    2.4566   -0.3900 C   0  0  0  0  0  0  0  0  0  0  0  0
    0.8859    1.2871   -0.6252 C   0  0  0  0  0  0  0  0  0  0  0  0
   -0.5690    1.2402   -0.7000 C   0  0  0  0  0  0  0  0  0  0  0  0
   -1.1695    0.0972   -0.7358 N   0  0  0  0  0  0  0  0  0  0  0  0
   -2.5378    0.0298   -0.7859 N   0  0  0  0  0  0  0  0  0  0  0  0
   -3.4543    1.0194   -0.4505 C   0  0  0  0  0  0  0  0  0  0  0  0
   -3.1924    2.1831   -0.1580 O   0  0  0  0  0  0  0  0  0  0  0  0
   -4.8885    0.5398   -0.5459 C   0  0  0  0  0  0  0  0  0  0  0  0
   -5.2512   -0.4622    0.5492 C   0  0  0  0  0  0  0  0  0  0  0  0
   -6.6820   -0.9622    0.3232 C   0  0  0  0  0  0  0  0  0  0  0  0
   -4.3849   -1.6142    0.5151 O   0  0  0  0  0  0  0  0  0  0  0  0
   -3.7652   -1.6551    1.8111 C   0  0  0  0  0  0  0  0  0  0  0  0
   -4.6879   -0.8696    2.7065 C   0  0  0  0  0  0  0  0  0  0  0  0
   -5.1866    0.1542    1.8425 O   0  0  0  0  0  0  0  0  0  0  0  0
    1.7960    0.2469   -0.7949 C   0  0  0  0  0  0  0  0  0  0  0  0
    1.5150   -1.1587   -1.2282 C   0  0  0  0  0  0  0  0  0  0  0  0
    3.0824    0.7438   -0.5741 N   0  0  0  0  0  0  0  0  0  0  0  0
    4.2817   -0.0269   -0.5349 C   0  0  0  0  0  0  0  0  0  0  0  0
    5.4341    0.4166   -1.1933 C   0  0  0  0  0  0  0  0  0  0  0  0
    6.6061   -0.3456   -1.1392 C   0  0  0  0  0  0  0  0  0  0  0  0
    6.6352   -1.5484   -0.4257 C   0  0  0  0  0  0  0  0  0  0  0  0
    8.1197   -2.4346   -0.4018 Cl  0  0  0  0  0  0  0  0  0  0  0  0
    5.4848   -1.9906    0.2390 C   0  0  0  0  0  0  0  0  0  0  0  0
    5.4540   -3.4554    1.1608 Cl  0  0  0  0  0  0  0  0  0  0  0  0
    4.3094   -1.2325    0.1834 C   0  0  0  0  0  0  0  0  0  0  0  0
    4.6487    3.3168   -0.9834 H   0  0  0  0  0  0  0  0  0  0  0  0
    3.7719    3.9451    0.4163 H   0  0  0  0  0  0  0  0  0  0  0  0
    4.8459    2.5655    0.6281 H   0  0  0  0  0  0  0  0  0  0  0  0
    1.2579    3.4527   -0.2181 H   0  0  0  0  0  0  0  0  0  0  0  0
   -1.0682    2.2183   -0.7261 H   0  0  0  0  0  0  0  0  0  0  0  0
   -2.8891   -0.9273   -0.8401 H   0  0  0  0  0  0  0  0  0  0  0  0
   -5.5379    1.4251   -0.4850 H   0  0  0  0  0  0  0  0  0  0  0  0
   -5.0181    0.0945   -1.5414 H   0  0  0  0  0  0  0  0  0  0  0  0
   -6.7782   -1.4654   -0.6466 H   0  0  0  0  0  0  0  0  0  0  0  0
   -6.9676   -1.6933    1.0877 H   0  0  0  0  0  0  0  0  0  0  0  0
   -7.4019   -0.1412    0.3745 H   0  0  0  0  0  0  0  0  0  0  0  0
   -2.7873   -1.1684    1.7347 H   0  0  0  0  0  0  0  0  0  0  0  0
   -3.6218   -2.6892    2.1346 H   0  0  0  0  0  0  0  0  0  0  0  0
   -5.5315   -1.4762    3.0512 H   0  0  0  0  0  0  0  0  0  0  0  0
   -4.1834   -0.4364    3.5757 H   0  0  0  0  0  0  0  0  0  0  0  0
    0.7197   -1.1804   -1.9821 H   0  0  0  0  0  0  0  0  0  0  0  0
    1.1990   -1.7662   -0.3756 H   0  0  0  0  0  0  0  0  0  0  0  0
    2.3810   -1.6362   -1.6989 H   0  0  0  0  0  0  0  0  0  0  0  0
    5.4318    1.3275   -1.7864 H   0  0  0  0  0  0  0  0  0  0  0  0
    7.4940    0.0024   -1.6612 H   0  0  0  0  0  0  0  0  0  0  0  0
    3.4334   -1.5699    0.7330 H   0  0  0  0  0  0  0  0  0  0  0  0
  1  2  1  0
  2  3  2  0
  3  4  1  0
  4  5  1  0
  5  6  2  3
  6  7  1  0
  7  8  1  0
  8  9  2  0
  8 10  1  0
 10 11  1  0
 11 12  1  0
 11 13  1  0
 13 14  1  0
 14 15  1  0
 15 16  1  0
  4 17  2  0
 17 18  1  0
 17 19  1  0
 19 20  1  0
 20 21  2  0
 21 22  1  0
 22 23  2  0
 23 24  1  0
 23 25  1  0
 25 26  1  0
 25 27  2  0
 19  2  1  0
 27 20  1  0
 16 11  1  0
  1 28  1  0
  1 29  1  0
  1 30  1  0
  3 31  1  0
  5 32  1  0
  7 33  1  0
 10 34  1  0
 10 35  1  0
 12 36  1  0
 12 37  1  0
 12 38  1  0
 14 39  1  0
 14 40  1  0
 15 41  1  0
 15 42  1  0
 18 43  1  0
 18 44  1  0
 18 45  1  0
 21 46  1  0
 22 47  1  0
 27 48  1  0
M  END
$$$$
