
     RDKit          3D

 67 69  0  0  0  0  0  0  0  0999 V2000
   -4.9678    0.8005   -4.3680 C   0  0  0  0  0  0  0  0  0  0  0  0
   -3.6824   -0.0271   -4.1750 C   0  0  0  0  0  0  0  0  0  0  0  0
   -2.6373    0.4566   -5.1923 C   0  0  0  0  0  0  0  0  0  0  0  0
   -4.0220   -1.5056   -4.4226 C   0  0  0  0  0  0  0  0  0  0  0  0
   -3.2095    0.1845   -2.7993 N   0  0  0  0  0  0  0  0  0  0  0  0
   -2.0820   -0.4026   -2.2421 C   0  0  0  0  0  0  0  0  0  0  0  0
   -1.3821   -1.2096   -2.8485 O   0  0  0  0  0  0  0  0  0  0  0  0
   -1.8139    0.0293   -0.7678 C   0  0  0  0  0  0  0  0  0  0  0  0
   -2.8611   -0.4653    0.2352 C   0  0  0  0  0  0  0  0  0  0  0  0
   -3.0437    0.2547    1.4319 C   0  0  0  0  0  0  0  0  0  0  0  0
   -3.9661   -0.1723    2.3874 C   0  0  0  0  0  0  0  0  0  0  0  0
   -4.7066   -1.3242    2.1558 C   0  0  0  0  0  0  0  0  0  0  0  0
   -5.5900   -1.7367    3.0743 F   0  0  0  0  0  0  0  0  0  0  0  0
   -4.5434   -2.0543    0.9863 C   0  0  0  0  0  0  0  0  0  0  0  0
   -3.6199   -1.6302    0.0282 C   0  0  0  0  0  0  0  0  0  0  0  0
   -0.4344   -0.2719   -0.3042 N   0  0  0  0  0  0  0  0  0  0  0  0
    0.3553    0.8255    0.0224 C   0  0  0  0  0  0  0  0  0  0  0  0
   -0.0752    1.9792   -0.0810 O   0  0  0  0  0  0  0  0  0  0  0  0
    1.7820    0.6188    0.4907 C   0  0  0  0  0  0  0  0  0  0  0  0
    2.3045    1.8530    1.2252 C   0  0  0  0  0  0  0  0  0  0  0  0
    3.6613    1.6045    1.8560 C   0  0  0  0  0  0  0  0  0  0  0  0
    4.2102    0.5093    1.8121 O   0  0  0  0  0  0  0  0  0  0  0  0
    4.1498    2.7366    2.4654 N   0  0  0  0  0  0  0  0  0  0  0  0
    5.3462    2.9004    3.1635 C   0  0  0  0  0  0  0  0  0  0  0  0
    6.2675    1.8864    3.3870 C   0  0  0  0  0  0  0  0  0  0  0  0
    7.4271    2.1779    4.1044 C   0  0  0  0  0  0  0  0  0  0  0  0
    7.6349    3.4696    4.5711 C   0  0  0  0  0  0  0  0  0  0  0  0
    6.6629    4.4171    4.3062 C   0  0  0  0  0  0  0  0  0  0  0  0
    5.5274    4.1600    3.6179 N   0  0  0  0  0  0  0  0  0  0  0  0
   -0.0862   -1.7003   -0.1563 C   0  0  0  0  0  0  0  0  0  0  0  0
    1.1345   -2.2116   -0.9278 C   0  0  0  0  0  0  0  0  0  0  0  0
    1.5131   -3.4767   -0.1703 C   0  0  0  0  0  0  0  0  0  0  0  0
    1.3131   -3.0906    1.2879 C   0  0  0  0  0  0  0  0  0  0  0  0
    0.0846   -2.1814    1.2952 C   0  0  0  0  0  0  0  0  0  0  0  0
   -5.7446    0.4946   -3.6572 H   0  0  0  0  0  0  0  0  0  0  0  0
   -5.3715    0.6836   -5.3799 H   0  0  0  0  0  0  0  0  0  0  0  0
   -4.7803    1.8679   -4.2028 H   0  0  0  0  0  0  0  0  0  0  0  0
   -3.0163    0.3725   -6.2170 H   0  0  0  0  0  0  0  0  0  0  0  0
   -2.3753    1.5072   -5.0161 H   0  0  0  0  0  0  0  0  0  0  0  0
   -1.7101   -0.1242   -5.1380 H   0  0  0  0  0  0  0  0  0  0  0  0
   -4.4532   -1.6502   -5.4193 H   0  0  0  0  0  0  0  0  0  0  0  0
   -4.7479   -1.8681   -3.6862 H   0  0  0  0  0  0  0  0  0  0  0  0
   -3.1398   -2.1492   -4.3556 H   0  0  0  0  0  0  0  0  0  0  0  0
   -3.7084    0.8620   -2.2339 H   0  0  0  0  0  0  0  0  0  0  0  0
   -1.9499    1.1183   -0.8082 H   0  0  0  0  0  0  0  0  0  0  0  0
   -2.4551    1.1511    1.6251 H   0  0  0  0  0  0  0  0  0  0  0  0
   -4.1049    0.3812    3.3106 H   0  0  0  0  0  0  0  0  0  0  0  0
   -5.1280   -2.9561    0.8318 H   0  0  0  0  0  0  0  0  0  0  0  0
   -3.4925   -2.2292   -0.8724 H   0  0  0  0  0  0  0  0  0  0  0  0
    2.4109    0.4454   -0.3880 H   0  0  0  0  0  0  0  0  0  0  0  0
    1.8513   -0.2416    1.1529 H   0  0  0  0  0  0  0  0  0  0  0  0
    2.3882    2.6995    0.5313 H   0  0  0  0  0  0  0  0  0  0  0  0
    1.6068    2.1367    2.0242 H   0  0  0  0  0  0  0  0  0  0  0  0
    3.6180    3.5960    2.4196 H   0  0  0  0  0  0  0  0  0  0  0  0
    6.1146    0.8763    3.0271 H   0  0  0  0  0  0  0  0  0  0  0  0
    8.1603    1.3975    4.2942 H   0  0  0  0  0  0  0  0  0  0  0  0
    8.5266    3.7280    5.1307 H   0  0  0  0  0  0  0  0  0  0  0  0
    6.7715    5.4408    4.6534 H   0  0  0  0  0  0  0  0  0  0  0  0
   -0.9289   -2.2775   -0.5576 H   0  0  0  0  0  0  0  0  0  0  0  0
    0.8993   -2.4239   -1.9757 H   0  0  0  0  0  0  0  0  0  0  0  0
    1.9750   -1.5192   -0.9247 H   0  0  0  0  0  0  0  0  0  0  0  0
    0.8373   -4.2968   -0.4401 H   0  0  0  0  0  0  0  0  0  0  0  0
    2.5382   -3.7956   -0.3787 H   0  0  0  0  0  0  0  0  0  0  0  0
    2.1885   -2.5390    1.6498 H   0  0  0  0  0  0  0  0  0  0  0  0
    1.1827   -3.9654    1.9316 H   0  0  0  0  0  0  0  0  0  0  0  0
   -0.8014   -2.7543    1.5966 H   0  0  0  0  0  0  0  0  0  0  0  0
    0.1884   -1.3720    2.0240 H   0  0  0  0  0  0  0  0  0  0  0  0
  1  2  1  0
  2  3  1  0
  2  4  1  0
  2  5  1  0
  5  6  1  0
  6  7  2  0
  6  8  1  0
  8  9  1  0
  9 10  2  0
 10 11  1  0
 11 12  2  0
 12 13  1  0
 12 14  1  0
 14 15  2  0
  8 16  1  0
 16 17  1  0
 17 18  2  0
 17 19  1  0
 19 20  1  0
 20 21  1  0
 21 22  2  0
 21 23  1  0
 23 24  1  0
 24 25  2  0
 25 26  1  0
 26 27  2  0
 27 28  1  0
 28 29  2  0
 16 30  1  0
 30 31  1  0
 31 32  1  0
 32 33  1  0
 33 34  1  0
 15  9  1  0
 29 24  1  0
 34 30  1  0
  1 35  1  0
  1 36  1  0
  1 37  1  0
  3 38  1  0
  3 39  1  0
  3 40  1  0
  4 41  1  0
  4 42  1  0
  4 43  1  0
  5 44  1  0
  8 45  1  0
 10 46  1  0
 11 47  1  0
 14 48  1  0
 15 49  1  0
 19 50  1  0
 19 51  1  0
 20 52  1  0
 20 53  1  0
 23 54  1  0
 25 55  1  0
 26 56  1  0
 27 57  1  0
 28 58  1  0
 30 59  1  0
 31 60  1  0
 31 61  1  0
 32 62  1  0
 32 63  1  0
 33 64  1  0
 33 65  1  0
 34 66  1  0
 34 67  1  0
M  END
$$$$
