
     RDKit          3D

 52 54  0  0  0  0  0  0  0  0999 V2000
   -6.9417   -0.6589   -0.9405 C   0  0  0  0  0  0  0  0  0  0  0  0
   -6.2751   -0.3249    0.3852 C   0  0  0  0  0  0  0  0  0  0  0  0
   -4.7569   -0.1510    0.2802 C   0  0  0  0  0  0  0  0  0  0  0  0
   -4.0266   -1.4502   -0.0792 C   0  0  0  0  0  0  0  0  0  0  0  0
   -2.4826   -1.3471   -0.1038 C   0  0  0  0  0  0  0  0  0  0  0  0
   -1.9460   -0.3091   -1.1125 C   0  0  0  0  0  0  0  0  0  0  0  0
   -2.4394   -0.5198   -2.5378 C   0  0  0  0  0  0  0  0  0  0  0  0
   -1.9349   -1.0858    1.3224 C   0  0  0  0  0  0  0  0  0  0  0  0
   -0.4978   -1.3538    1.4537 N   0  0  0  0  0  0  0  0  0  0  0  0
    0.3921   -0.2899    1.3832 C   0  0  0  0  0  0  0  0  0  0  0  0
    0.0689    0.8766    1.2115 O   0  0  0  0  0  0  0  0  0  0  0  0
    1.7964   -0.7724    1.5315 C   0  0  0  0  0  0  0  0  0  0  0  0
    2.9420   -0.0735    1.5083 C   0  0  0  0  0  0  0  0  0  0  0  0
    3.1450    1.3318    1.3776 C   0  0  0  0  0  0  0  0  0  0  0  0
    2.4683    2.3186    2.0531 C   0  0  0  0  0  0  0  0  0  0  0  0
    3.0318    3.4937    1.6620 N   0  0  0  0  0  0  0  0  0  0  0  0
    4.0738    3.3429    0.8330 N   0  0  0  0  0  0  0  0  0  0  0  0
    4.1484    2.0170    0.6207 C   0  0  0  0  0  0  0  0  0  0  0  0
    5.1677    1.4626   -0.2722 C   0  0  0  0  0  0  0  0  0  0  0  0
    6.4800    1.9541   -0.2294 C   0  0  0  0  0  0  0  0  0  0  0  0
    7.4641    1.4268   -1.0687 C   0  0  0  0  0  0  0  0  0  0  0  0
    7.1434    0.4079   -1.9638 C   0  0  0  0  0  0  0  0  0  0  0  0
    5.8389   -0.0794   -2.0261 C   0  0  0  0  0  0  0  0  0  0  0  0
    4.8537    0.4475   -1.1866 C   0  0  0  0  0  0  0  0  0  0  0  0
    1.7946   -2.4931    1.7125 S   0  0  0  0  0  0  0  0  0  0  0  0
    0.0442   -2.6069    1.6468 C   0  0  0  0  0  0  0  0  0  0  0  0
   -0.7486   -4.0661    1.8121 S   0  0  0  0  0  0  0  0  0  0  0  0
   -6.6905    0.0830   -1.7050 H   0  0  0  0  0  0  0  0  0  0  0  0
   -6.6419   -1.6461   -1.3037 H   0  0  0  0  0  0  0  0  0  0  0  0
   -8.0299   -0.6674   -0.8214 H   0  0  0  0  0  0  0  0  0  0  0  0
   -6.7050    0.6104    0.7634 H   0  0  0  0  0  0  0  0  0  0  0  0
   -6.5128   -1.1023    1.1205 H   0  0  0  0  0  0  0  0  0  0  0  0
   -4.5368    0.6269   -0.4591 H   0  0  0  0  0  0  0  0  0  0  0  0
   -4.3967    0.2179    1.2468 H   0  0  0  0  0  0  0  0  0  0  0  0
   -4.3697   -1.8096   -1.0556 H   0  0  0  0  0  0  0  0  0  0  0  0
   -4.3133   -2.2295    0.6391 H   0  0  0  0  0  0  0  0  0  0  0  0
   -2.1178   -2.3279   -0.4356 H   0  0  0  0  0  0  0  0  0  0  0  0
   -2.1988    0.7072   -0.7895 H   0  0  0  0  0  0  0  0  0  0  0  0
   -0.8517   -0.3654   -1.1365 H   0  0  0  0  0  0  0  0  0  0  0  0
   -2.2369   -1.5406   -2.8768 H   0  0  0  0  0  0  0  0  0  0  0  0
   -3.5127   -0.3292   -2.6265 H   0  0  0  0  0  0  0  0  0  0  0  0
   -1.9269    0.1698   -3.2165 H   0  0  0  0  0  0  0  0  0  0  0  0
   -2.1330   -0.0485    1.6158 H   0  0  0  0  0  0  0  0  0  0  0  0
   -2.4629   -1.7178    2.0454 H   0  0  0  0  0  0  0  0  0  0  0  0
    3.8697   -0.6431    1.5798 H   0  0  0  0  0  0  0  0  0  0  0  0
    1.6465    2.2996    2.7545 H   0  0  0  0  0  0  0  0  0  0  0  0
    2.7704    4.4343    1.9377 H   0  0  0  0  0  0  0  0  0  0  0  0
    6.7379    2.7548    0.4610 H   0  0  0  0  0  0  0  0  0  0  0  0
    8.4777    1.8165   -1.0254 H   0  0  0  0  0  0  0  0  0  0  0  0
    7.9084    0.0008   -2.6199 H   0  0  0  0  0  0  0  0  0  0  0  0
    5.5856   -0.8634   -2.7350 H   0  0  0  0  0  0  0  0  0  0  0  0
    3.8373    0.0721   -1.2700 H   0  0  0  0  0  0  0  0  0  0  0  0
  1  2  1  0
  2  3  1  0
  3  4  1  0
  4  5  1  0
  5  6  1  0
  6  7  1  0
  5  8  1  0
  8  9  1  0
  9 10  1  0
 10 11  2  0
 10 12  1  0
 12 13  2  3
 13 14  1  0
 14 15  2  0
 15 16  1  0
 16 17  1  0
 17 18  2  0
 18 19  1  0
 19 20  2  0
 20 21  1  0
 21 22  2  0
 22 23  1  0
 23 24  2  0
 12 25  1  0
 25 26  1  0
 26 27  2  0
 26  9  1  0
 18 14  1  0
 24 19  1  0
  1 28  1  0
  1 29  1  0
  1 30  1  0
  2 31  1  0
  2 32  1  0
  3 33  1  0
  3 34  1  0
  4 35  1  0
  4 36  1  0
  5 37  1  0
  6 38  1  0
  6 39  1  0
  7 40  1  0
  7 41  1  0
  7 42  1  0
  8 43  1  0
  8 44  1  0
 13 45  1  0
 15 46  1  0
 16 47  1  0
 20 48  1  0
 21 49  1  0
 22 50  1  0
 23 51  1  0
 24 52  1  0
M  END
$$$$
