
     RDKit          3D

 72 75  0  0  0  0  0  0  0  0999 V2000
   -3.2517    2.3288   -3.0967 C   0  0  0  0  0  0  0  0  0  0  0  0
   -4.1613    1.5467   -2.1936 C   0  0  0  0  0  0  0  0  0  0  0  0
   -5.3801    2.1276   -1.8129 C   0  0  0  0  0  0  0  0  0  0  0  0
   -6.2895    1.4528   -0.9872 C   0  0  0  0  0  0  0  0  0  0  0  0
   -6.0223    0.1645   -0.5055 C   0  0  0  0  0  0  0  0  0  0  0  0
   -7.0088   -0.6170    0.3806 C   0  0  0  0  0  0  0  0  0  0  0  0
   -8.3031    0.1615    0.7117 C   0  0  0  0  0  0  0  0  0  0  0  0
   -6.3358   -0.9766    1.7252 C   0  0  0  0  0  0  0  0  0  0  0  0
   -7.4305   -1.9174   -0.3387 C   0  0  0  0  0  0  0  0  0  0  0  0
   -4.7939   -0.4127   -0.8787 C   0  0  0  0  0  0  0  0  0  0  0  0
   -3.8713    0.2656   -1.7007 C   0  0  0  0  0  0  0  0  0  0  0  0
   -2.3504   -0.6059   -2.0502 S   0  0  0  0  0  6  0  0  0  0  0  0
   -2.7145   -1.8593   -2.6761 O   0  0  0  0  0  0  0  0  0  0  0  0
   -1.3882    0.2818   -2.6648 O   0  0  0  0  0  0  0  0  0  0  0  0
   -1.7430   -0.9550   -0.4851 N   0  0  0  0  0  0  0  0  0  0  0  0
   -1.3966    0.2091    0.3696 C   0  0  0  0  0  0  0  0  0  0  0  0
    0.0647    0.6103    0.2132 C   0  0  0  0  0  0  0  0  0  0  0  0
    1.0381   -0.5596    0.4365 C   0  0  0  0  0  0  0  0  0  0  0  0
    1.9792   -0.2779    1.6104 C   0  0  0  0  0  0  0  0  0  0  0  0
    1.9524   -0.9782    2.6231 O   0  0  0  0  0  0  0  0  0  0  0  0
    2.8461    0.8058    1.4978 N   0  0  0  0  0  0  0  0  0  0  0  0
    3.8241    1.0050    2.5740 C   0  0  0  0  0  0  0  0  0  0  0  0
    5.1474    0.2914    2.2296 C   0  0  0  0  0  0  0  0  0  0  0  0
    5.6590    0.7568    0.9121 N   0  0  0  0  0  0  0  0  0  0  0  0
    6.9428    0.3305    0.5255 C   0  0  0  0  0  0  0  0  0  0  0  0
    7.6127    1.0096   -0.5091 C   0  0  0  0  0  0  0  0  0  0  0  0
    8.8843    0.6208   -0.9417 C   0  0  0  0  0  0  0  0  0  0  0  0
    9.5126   -0.4571   -0.3376 C   0  0  0  0  0  0  0  0  0  0  0  0
   10.7461   -0.8170   -0.7921 O   0  0  0  0  0  0  0  0  0  0  0  0
    8.8940   -1.1400    0.7016 C   0  0  0  0  0  0  0  0  0  0  0  0
    7.6209   -0.7409    1.1304 C   0  0  0  0  0  0  0  0  0  0  0  0
    4.6579    0.6491   -0.1866 C   0  0  0  0  0  0  0  0  0  0  0  0
    3.3328    1.3343    0.2153 C   0  0  0  0  0  0  0  0  0  0  0  0
    0.2855   -1.8847    0.6334 C   0  0  0  0  0  0  0  0  0  0  0  0
   -0.7525   -2.0663   -0.4651 C   0  0  0  0  0  0  0  0  0  0  0  0
   -2.3430    2.6252   -2.5618 H   0  0  0  0  0  0  0  0  0  0  0  0
   -3.7324    3.2470   -3.4541 H   0  0  0  0  0  0  0  0  0  0  0  0
   -2.9993    1.7442   -3.9874 H   0  0  0  0  0  0  0  0  0  0  0  0
   -5.6452    3.1238   -2.1659 H   0  0  0  0  0  0  0  0  0  0  0  0
   -7.2157    1.9684   -0.7457 H   0  0  0  0  0  0  0  0  0  0  0  0
   -8.9728   -0.4350    1.3441 H   0  0  0  0  0  0  0  0  0  0  0  0
   -8.0861    1.0891    1.2548 H   0  0  0  0  0  0  0  0  0  0  0  0
   -8.8630    0.4205   -0.1958 H   0  0  0  0  0  0  0  0  0  0  0  0
   -5.9962   -0.0761    2.2515 H   0  0  0  0  0  0  0  0  0  0  0  0
   -7.0354   -1.5051    2.3849 H   0  0  0  0  0  0  0  0  0  0  0  0
   -5.4660   -1.6300    1.5934 H   0  0  0  0  0  0  0  0  0  0  0  0
   -7.8957   -1.6990   -1.3072 H   0  0  0  0  0  0  0  0  0  0  0  0
   -6.5795   -2.5811   -0.5257 H   0  0  0  0  0  0  0  0  0  0  0  0
   -8.1539   -2.4836    0.2597 H   0  0  0  0  0  0  0  0  0  0  0  0
   -4.5402   -1.4151   -0.5330 H   0  0  0  0  0  0  0  0  0  0  0  0
   -2.0380    1.0661    0.1439 H   0  0  0  0  0  0  0  0  0  0  0  0
   -1.6158   -0.0515    1.4124 H   0  0  0  0  0  0  0  0  0  0  0  0
    0.2710    1.4446    0.8956 H   0  0  0  0  0  0  0  0  0  0  0  0
    0.2224    1.0051   -0.7978 H   0  0  0  0  0  0  0  0  0  0  0  0
    1.6625   -0.6871   -0.4576 H   0  0  0  0  0  0  0  0  0  0  0  0
    3.4352    0.6410    3.5310 H   0  0  0  0  0  0  0  0  0  0  0  0
    3.9884    2.0853    2.6726 H   0  0  0  0  0  0  0  0  0  0  0  0
    5.8761    0.5162    3.0178 H   0  0  0  0  0  0  0  0  0  0  0  0
    4.9721   -0.7924    2.2041 H   0  0  0  0  0  0  0  0  0  0  0  0
    7.1523    1.8758   -0.9781 H   0  0  0  0  0  0  0  0  0  0  0  0
    9.3789    1.1623   -1.7432 H   0  0  0  0  0  0  0  0  0  0  0  0
   11.0348   -1.6041   -0.3015 H   0  0  0  0  0  0  0  0  0  0  0  0
    9.3714   -1.9849    1.1861 H   0  0  0  0  0  0  0  0  0  0  0  0
    7.1658   -1.3104    1.9342 H   0  0  0  0  0  0  0  0  0  0  0  0
    5.0123    1.1241   -1.1087 H   0  0  0  0  0  0  0  0  0  0  0  0
    4.4722   -0.4119   -0.4013 H   0  0  0  0  0  0  0  0  0  0  0  0
    3.4945    2.4113    0.3481 H   0  0  0  0  0  0  0  0  0  0  0  0
    2.5975    1.2153   -0.5817 H   0  0  0  0  0  0  0  0  0  0  0  0
   -0.2009   -1.9218    1.6167 H   0  0  0  0  0  0  0  0  0  0  0  0
    0.9955   -2.7206    0.6119 H   0  0  0  0  0  0  0  0  0  0  0  0
   -0.2352   -2.1378   -1.4295 H   0  0  0  0  0  0  0  0  0  0  0  0
   -1.2955   -3.0047   -0.3067 H   0  0  0  0  0  0  0  0  0  0  0  0
  1  2  1  0
  2  3  2  0
  3  4  1  0
  4  5  2  0
  5  6  1  0
  6  7  1  0
  6  8  1  0
  6  9  1  0
  5 10  1  0
 10 11  2  0
 11 12  1  0
 12 13  2  0
 12 14  2  0
 12 15  1  0
 15 16  1  0
 16 17  1  0
 17 18  1  0
 18 19  1  0
 19 20  2  0
 19 21  1  0
 21 22  1  0
 22 23  1  0
 23 24  1  0
 24 25  1  0
 25 26  2  0
 26 27  1  0
 27 28  2  0
 28 29  1  0
 28 30  1  0
 30 31  2  0
 24 32  1  0
 32 33  1  0
 18 34  1  0
 34 35  1  0
 11  2  1  0
 35 15  1  0
 33 21  1  0
 31 25  1  0
  1 36  1  0
  1 37  1  0
  1 38  1  0
  3 39  1  0
  4 40  1  0
  7 41  1  0
  7 42  1  0
  7 43  1  0
  8 44  1  0
  8 45  1  0
  8 46  1  0
  9 47  1  0
  9 48  1  0
  9 49  1  0
 10 50  1  0
 16 51  1  0
 16 52  1  0
 17 53  1  0
 17 54  1  0
 18 55  1  0
 22 56  1  0
 22 57  1  0
 23 58  1  0
 23 59  1  0
 26 60  1  0
 27 61  1  0
 29 62  1  0
 30 63  1  0
 31 64  1  0
 32 65  1  0
 32 66  1  0
 33 67  1  0
 33 68  1  0
 34 69  1  0
 34 70  1  0
 35 71  1  0
 35 72  1  0
M  END
$$$$
