
     RDKit          3D

 61 66  0  0  0  0  0  0  0  0999 V2000
   -2.2431    1.1324   -1.6004 O   0  0  0  0  0  0  0  0  0  0  0  0
   -2.7054    0.2968   -0.8186 C   0  0  0  0  0  0  0  0  0  0  0  0
   -1.7887   -0.7375   -0.1921 C   0  0  0  0  0  0  0  0  0  0  0  0
   -0.5581   -0.1365    0.2640 N   0  0  0  0  0  0  0  0  0  0  0  0
   -0.5134    0.6046    1.3857 N   0  0  0  0  0  0  0  0  0  0  0  0
    0.7754    0.8387    1.5830 N   0  0  0  0  0  0  0  0  0  0  0  0
    1.4609    0.1832    0.5836 C   0  0  0  0  0  0  0  0  0  0  0  0
    2.9126    0.2066    0.4716 C   0  0  0  0  0  0  0  0  0  0  0  0
    3.5600   -0.3746   -0.6241 C   0  0  0  0  0  0  0  0  0  0  0  0
    4.9589   -0.3456   -0.7326 C   0  0  0  0  0  0  0  0  0  0  0  0
    5.7579    0.2490    0.2524 C   0  0  0  0  0  0  0  0  0  0  0  0
    7.1590    0.3084    0.1868 N   0  0  0  0  0  0  0  0  0  0  0  0
    7.8378   -0.3801    1.3137 C   0  0  0  0  0  0  0  0  0  0  0  0
    9.3422   -0.0607    1.2947 C   0  0  0  0  0  0  0  0  0  0  0  0
    9.9448   -0.3999    0.0350 O   0  0  0  0  0  0  0  0  0  0  0  0
    9.3095    0.3343   -1.0246 C   0  0  0  0  0  0  0  0  0  0  0  0
    7.8098    0.0091   -1.1076 C   0  0  0  0  0  0  0  0  0  0  0  0
    5.0918    0.8407    1.3395 C   0  0  0  0  0  0  0  0  0  0  0  0
    3.6950    0.8214    1.4523 C   0  0  0  0  0  0  0  0  0  0  0  0
    0.6401   -0.4884   -0.2444 N   0  0  0  0  0  0  0  0  0  0  0  0
   -4.0838    0.0862   -0.6022 N   0  0  0  0  0  0  0  0  0  0  0  0
   -4.6163   -0.2975    0.6793 C   0  0  0  0  0  0  0  0  0  0  0  0
   -3.9957    0.2308    1.8333 C   0  0  0  0  0  0  0  0  0  0  0  0
   -4.4410   -0.0785    3.1192 C   0  0  0  0  0  0  0  0  0  0  0  0
   -5.5344   -0.9121    3.2842 C   0  0  0  0  0  0  0  0  0  0  0  0
   -6.1839   -1.4203    2.1623 C   0  0  0  0  0  0  0  0  0  0  0  0
   -5.7484   -1.1231    0.8491 C   0  0  0  0  0  0  0  0  0  0  0  0
   -6.5734   -1.7568   -0.2521 C   0  0  0  0  0  0  0  0  0  0  0  0
   -6.1273   -1.5561   -1.6920 C   0  0  0  0  0  0  0  0  0  0  0  0
   -6.0649   -0.0929   -2.0249 C   0  0  0  0  0  0  0  0  0  0  0  0
   -6.9992    0.4845   -2.8974 C   0  0  0  0  0  0  0  0  0  0  0  0
   -6.9085    1.8348   -3.2317 C   0  0  0  0  0  0  0  0  0  0  0  0
   -5.8838    2.6147   -2.7029 C   0  0  0  0  0  0  0  0  0  0  0  0
   -4.9513    2.0469   -1.8320 C   0  0  0  0  0  0  0  0  0  0  0  0
   -5.0412    0.6949   -1.4737 C   0  0  0  0  0  0  0  0  0  0  0  0
   -2.2179   -1.2871    0.6463 H   0  0  0  0  0  0  0  0  0  0  0  0
   -1.5441   -1.4729   -0.9673 H   0  0  0  0  0  0  0  0  0  0  0  0
    2.9817   -0.8528   -1.4130 H   0  0  0  0  0  0  0  0  0  0  0  0
    5.3997   -0.8126   -1.6088 H   0  0  0  0  0  0  0  0  0  0  0  0
    7.4360   -0.0753    2.2863 H   0  0  0  0  0  0  0  0  0  0  0  0
    7.6948   -1.4635    1.2078 H   0  0  0  0  0  0  0  0  0  0  0  0
    9.8530   -0.6389    2.0712 H   0  0  0  0  0  0  0  0  0  0  0  0
    9.5201    1.0021    1.4988 H   0  0  0  0  0  0  0  0  0  0  0  0
    9.8025    0.0554   -1.9616 H   0  0  0  0  0  0  0  0  0  0  0  0
    9.4738    1.4068   -0.8657 H   0  0  0  0  0  0  0  0  0  0  0  0
    7.6918   -1.0559   -1.3447 H   0  0  0  0  0  0  0  0  0  0  0  0
    7.3664    0.6080   -1.9117 H   0  0  0  0  0  0  0  0  0  0  0  0
    5.6631    1.3583    2.1062 H   0  0  0  0  0  0  0  0  0  0  0  0
    3.2315    1.3005    2.3129 H   0  0  0  0  0  0  0  0  0  0  0  0
   -3.1743    0.9407    1.7518 H   0  0  0  0  0  0  0  0  0  0  0  0
   -3.9411    0.3487    3.9851 H   0  0  0  0  0  0  0  0  0  0  0  0
   -5.8935   -1.1543    4.2817 H   0  0  0  0  0  0  0  0  0  0  0  0
   -7.0533   -2.0596    2.3135 H   0  0  0  0  0  0  0  0  0  0  0  0
   -7.6008   -1.3822   -0.1500 H   0  0  0  0  0  0  0  0  0  0  0  0
   -6.6074   -2.8380   -0.0673 H   0  0  0  0  0  0  0  0  0  0  0  0
   -5.1497   -2.0219   -1.8721 H   0  0  0  0  0  0  0  0  0  0  0  0
   -6.8295   -2.0685   -2.3615 H   0  0  0  0  0  0  0  0  0  0  0  0
   -7.7964   -0.1160   -3.3290 H   0  0  0  0  0  0  0  0  0  0  0  0
   -7.6318    2.2775   -3.9119 H   0  0  0  0  0  0  0  0  0  0  0  0
   -5.8049    3.6659   -2.9690 H   0  0  0  0  0  0  0  0  0  0  0  0
   -4.1637    2.6782   -1.4277 H   0  0  0  0  0  0  0  0  0  0  0  0
  1  2  2  0
  2  3  1  0
  3  4  1  0
  4  5  1  0
  5  6  2  0
  6  7  1  0
  7  8  1  0
  8  9  2  0
  9 10  1  0
 10 11  2  0
 11 12  1  0
 12 13  1  0
 13 14  1  0
 14 15  1  0
 15 16  1  0
 16 17  1  0
 11 18  1  0
 18 19  2  0
  7 20  2  0
  2 21  1  0
 21 22  1  0
 22 23  2  0
 23 24  1  0
 24 25  2  0
 25 26  1  0
 26 27  2  0
 27 28  1  0
 28 29  1  0
 29 30  1  0
 30 31  2  0
 31 32  1  0
 32 33  2  0
 33 34  1  0
 34 35  2  0
 20  4  1  0
 35 21  1  0
 19  8  1  0
 27 22  1  0
 35 30  1  0
 17 12  1  0
  3 36  1  0
  3 37  1  0
  9 38  1  0
 10 39  1  0
 13 40  1  0
 13 41  1  0
 14 42  1  0
 14 43  1  0
 16 44  1  0
 16 45  1  0
 17 46  1  0
 17 47  1  0
 18 48  1  0
 19 49  1  0
 23 50  1  0
 24 51  1  0
 25 52  1  0
 26 53  1  0
 28 54  1  0
 28 55  1  0
 29 56  1  0
 29 57  1  0
 31 58  1  0
 32 59  1  0
 33 60  1  0
 34 61  1  0
M  END
$$$$
