
     RDKit          3D

 36 38  0  0  0  0  0  0  0  0999 V2000
   -0.4577   -1.5310    2.7920 C   0  0  0  0  0  0  0  0  0  0  0  0
   -1.5788   -1.0018    1.9683 C   0  0  0  0  0  0  0  0  0  0  0  0
   -2.9037   -0.8231    2.3128 C   0  0  0  0  0  0  0  0  0  0  0  0
   -3.5888   -0.2869    1.1918 C   0  0  0  0  0  0  0  0  0  0  0  0
   -4.9253    0.0942    0.9610 C   0  0  0  0  0  0  0  0  0  0  0  0
   -5.2908    0.6039   -0.2887 C   0  0  0  0  0  0  0  0  0  0  0  0
   -4.3458    0.7360   -1.3012 C   0  0  0  0  0  0  0  0  0  0  0  0
   -3.0135    0.3641   -1.0954 C   0  0  0  0  0  0  0  0  0  0  0  0
   -2.6546   -0.1481    0.1634 C   0  0  0  0  0  0  0  0  0  0  0  0
   -1.4398   -0.5896    0.6590 N   0  0  0  0  0  0  0  0  0  0  0  0
   -0.1973   -0.5999   -0.1002 C   0  0  0  0  0  0  0  0  0  0  0  0
    0.5353    0.7372   -0.0010 C   0  0  0  0  0  0  0  0  0  0  0  0
    1.7572    0.7685   -0.7809 N   0  0  0  0  0  0  0  0  0  0  0  0
    2.9001    0.1042   -0.3885 C   0  0  0  0  0  0  0  0  0  0  0  0
    2.9354   -0.5990    0.6173 O   0  0  0  0  0  0  0  0  0  0  0  0
    4.0323    0.3076   -1.2665 C   0  0  0  0  0  0  0  0  0  0  0  0
    5.3249   -0.1783   -1.2108 C   0  0  0  0  0  0  0  0  0  0  0  0
    6.0071    0.3475   -2.3349 C   0  0  0  0  0  0  0  0  0  0  0  0
    5.0929    1.1223   -3.0103 C   0  0  0  0  0  0  0  0  0  0  0  0
    5.4399    2.0877   -4.6118 Br  0  0  0  0  0  0  0  0  0  0  0  0
    3.8919    1.1060   -2.3727 O   0  0  0  0  0  0  0  0  0  0  0  0
    0.3765   -0.8233    2.8198 H   0  0  0  0  0  0  0  0  0  0  0  0
   -0.7814   -1.7045    3.8235 H   0  0  0  0  0  0  0  0  0  0  0  0
   -0.0995   -2.4835    2.3890 H   0  0  0  0  0  0  0  0  0  0  0  0
   -3.3377   -1.0539    3.2771 H   0  0  0  0  0  0  0  0  0  0  0  0
   -5.6671   -0.0070    1.7476 H   0  0  0  0  0  0  0  0  0  0  0  0
   -6.3219    0.8975   -0.4679 H   0  0  0  0  0  0  0  0  0  0  0  0
   -4.6471    1.1329   -2.2679 H   0  0  0  0  0  0  0  0  0  0  0  0
   -2.2889    0.4713   -1.8955 H   0  0  0  0  0  0  0  0  0  0  0  0
   -0.4383   -0.8383   -1.1425 H   0  0  0  0  0  0  0  0  0  0  0  0
    0.4195   -1.4274    0.2648 H   0  0  0  0  0  0  0  0  0  0  0  0
   -0.0962    1.5543   -0.3665 H   0  0  0  0  0  0  0  0  0  0  0  0
    0.7897    0.9595    1.0419 H   0  0  0  0  0  0  0  0  0  0  0  0
    1.8181    1.3538   -1.6075 H   0  0  0  0  0  0  0  0  0  0  0  0
    5.7157   -0.8337   -0.4435 H   0  0  0  0  0  0  0  0  0  0  0  0
    7.0378    0.1807   -2.6152 H   0  0  0  0  0  0  0  0  0  0  0  0
  1  2  1  0
  2  3  2  0
  3  4  1  0
  4  5  2  0
  5  6  1  0
  6  7  2  0
  7  8  1  0
  8  9  2  0
  9 10  1  0
 10 11  1  0
 11 12  1  0
 12 13  1  0
 13 14  1  0
 14 15  2  0
 14 16  1  0
 16 17  2  0
 17 18  1  0
 18 19  2  0
 19 20  1  0
 19 21  1  0
 10  2  1  0
 21 16  1  0
  9  4  1  0
  1 22  1  0
  1 23  1  0
  1 24  1  0
  3 25  1  0
  5 26  1  0
  6 27  1  0
  7 28  1  0
  8 29  1  0
 11 30  1  0
 11 31  1  0
 12 32  1  0
 12 33  1  0
 13 34  1  0
 17 35  1  0
 18 36  1  0
M  END
$$$$
