
     RDKit          3D

 81 84  0  0  0  0  0  0  0  0999 V2000
   -6.3213   -1.3217   -0.1080 O   0  0  0  0  0  0  0  0  0  0  0  0
   -5.9368   -0.2508    0.3419 C   0  0  0  0  0  0  0  0  0  0  0  0
   -6.8070    0.7599    0.7141 N   0  0  0  0  0  0  0  0  0  0  0  0
   -8.2348    0.5784    0.5113 C   0  0  0  0  0  0  0  0  0  0  0  0
   -9.0317    1.6148    1.2909 C   0  0  0  0  0  0  0  0  0  0  0  0
  -10.5521    1.4176    1.2514 C   0  0  0  0  0  0  0  0  0  0  0  0
  -11.1210    1.6329   -0.0846 N   0  0  0  0  0  0  0  0  0  0  0  0
  -11.2426    0.3888   -0.8817 C   0  0  0  0  0  0  0  0  0  0  0  0
  -12.6771   -0.1618   -0.9647 C   0  0  0  0  0  0  0  0  0  0  0  0
  -13.6060    0.7687   -1.5347 O   0  0  0  0  0  0  0  0  0  0  0  0
  -13.2520    2.1364   -1.2881 C   0  0  0  0  0  0  0  0  0  0  0  0
  -12.4344    2.3118    0.0007 C   0  0  0  0  0  0  0  0  0  0  0  0
   -4.6339    0.1321    0.5822 N   0  0  0  0  0  0  0  0  0  0  0  0
   -3.4616   -0.5970    0.3050 C   0  0  0  0  0  0  0  0  0  0  0  0
   -2.2641   -0.1210    0.8491 C   0  0  0  0  0  0  0  0  0  0  0  0
   -1.0597   -0.8015    0.6365 C   0  0  0  0  0  0  0  0  0  0  0  0
   -1.0231   -1.9628   -0.1447 C   0  0  0  0  0  0  0  0  0  0  0  0
    0.2400   -2.7765   -0.3356 C   0  0  0  0  0  0  0  0  0  0  0  0
    1.5335   -1.9961   -0.3991 C   0  0  0  0  0  0  0  0  0  0  0  0
    1.9021   -1.3121   -1.5628 C   0  0  0  0  0  0  0  0  0  0  0  0
    3.1083   -0.6046   -1.6161 C   0  0  0  0  0  0  0  0  0  0  0  0
    3.9573   -0.5530   -0.5044 C   0  0  0  0  0  0  0  0  0  0  0  0
    5.1703    0.1500   -0.6380 N   0  0  0  0  0  0  0  0  0  0  0  0
    6.0345    0.5162    0.3717 C   0  0  0  0  0  0  0  0  0  0  0  0
    5.8333    0.4397    1.5758 O   0  0  0  0  0  0  0  0  0  0  0  0
    7.2112    1.0138   -0.1684 N   0  0  0  0  0  0  0  0  0  0  0  0
    8.2787    1.3934    0.7406 C   0  0  0  0  0  0  0  0  0  0  0  0
    9.4091    2.1526    0.0476 C   0  0  0  0  0  0  0  0  0  0  0  0
   10.1927    1.3345   -0.9897 C   0  0  0  0  0  0  0  0  0  0  0  0
   10.7151    0.0550   -0.4870 N   0  0  0  0  0  0  0  0  0  0  0  0
   11.2763   -0.7458   -1.5996 C   0  0  0  0  0  0  0  0  0  0  0  0
   11.8779   -2.0676   -1.0964 C   0  0  0  0  0  0  0  0  0  0  0  0
   12.9069   -1.8296   -0.1282 O   0  0  0  0  0  0  0  0  0  0  0  0
   12.3703   -1.1008    0.9828 C   0  0  0  0  0  0  0  0  0  0  0  0
   11.7729    0.2434    0.5322 C   0  0  0  0  0  0  0  0  0  0  0  0
    3.5865   -1.2267    0.6586 C   0  0  0  0  0  0  0  0  0  0  0  0
    2.3863   -1.9424    0.7108 C   0  0  0  0  0  0  0  0  0  0  0  0
   -2.2257   -2.4310   -0.6918 C   0  0  0  0  0  0  0  0  0  0  0  0
   -3.4311   -1.7518   -0.4742 C   0  0  0  0  0  0  0  0  0  0  0  0
   -6.4567    1.6839    0.5071 H   0  0  0  0  0  0  0  0  0  0  0  0
   -8.5077   -0.4339    0.8309 H   0  0  0  0  0  0  0  0  0  0  0  0
   -8.4175    0.6603   -0.5646 H   0  0  0  0  0  0  0  0  0  0  0  0
   -8.7820    2.6208    0.9293 H   0  0  0  0  0  0  0  0  0  0  0  0
   -8.7132    1.5882    2.3412 H   0  0  0  0  0  0  0  0  0  0  0  0
  -10.9609    2.1605    1.9514 H   0  0  0  0  0  0  0  0  0  0  0  0
  -10.8339    0.4387    1.6600 H   0  0  0  0  0  0  0  0  0  0  0  0
  -10.5759   -0.4002   -0.5204 H   0  0  0  0  0  0  0  0  0  0  0  0
  -10.9130    0.6348   -1.8984 H   0  0  0  0  0  0  0  0  0  0  0  0
  -13.0393   -0.4419    0.0315 H   0  0  0  0  0  0  0  0  0  0  0  0
  -12.6976   -1.0665   -1.5824 H   0  0  0  0  0  0  0  0  0  0  0  0
  -12.6986    2.5117   -2.1575 H   0  0  0  0  0  0  0  0  0  0  0  0
  -14.1832    2.7085   -1.2249 H   0  0  0  0  0  0  0  0  0  0  0  0
  -13.0196    1.9046    0.8374 H   0  0  0  0  0  0  0  0  0  0  0  0
  -12.2715    3.3793    0.1890 H   0  0  0  0  0  0  0  0  0  0  0  0
   -4.5339    0.9316    1.1886 H   0  0  0  0  0  0  0  0  0  0  0  0
   -2.2473    0.7781    1.4575 H   0  0  0  0  0  0  0  0  0  0  0  0
   -0.1537   -0.4134    1.0995 H   0  0  0  0  0  0  0  0  0  0  0  0
    0.2933   -3.5123    0.4780 H   0  0  0  0  0  0  0  0  0  0  0  0
    0.1631   -3.3611   -1.2628 H   0  0  0  0  0  0  0  0  0  0  0  0
    1.2529   -1.3294   -2.4356 H   0  0  0  0  0  0  0  0  0  0  0  0
    3.3678   -0.0914   -2.5379 H   0  0  0  0  0  0  0  0  0  0  0  0
    5.3487    0.5941   -1.5255 H   0  0  0  0  0  0  0  0  0  0  0  0
    7.5118    0.4614   -0.9575 H   0  0  0  0  0  0  0  0  0  0  0  0
    8.6430    0.4878    1.2378 H   0  0  0  0  0  0  0  0  0  0  0  0
    7.8475    2.0344    1.5189 H   0  0  0  0  0  0  0  0  0  0  0  0
   10.0981    2.5326    0.8115 H   0  0  0  0  0  0  0  0  0  0  0  0
    8.9940    3.0356   -0.4554 H   0  0  0  0  0  0  0  0  0  0  0  0
   11.0071    1.9546   -1.3874 H   0  0  0  0  0  0  0  0  0  0  0  0
    9.5194    1.1366   -1.8339 H   0  0  0  0  0  0  0  0  0  0  0  0
   10.4891   -0.9751   -2.3268 H   0  0  0  0  0  0  0  0  0  0  0  0
   12.0595   -0.1726   -2.1124 H   0  0  0  0  0  0  0  0  0  0  0  0
   12.3298   -2.6105   -1.9332 H   0  0  0  0  0  0  0  0  0  0  0  0
   11.1073   -2.7126   -0.6575 H   0  0  0  0  0  0  0  0  0  0  0  0
   11.6204   -1.7184    1.4924 H   0  0  0  0  0  0  0  0  0  0  0  0
   13.1884   -0.9223    1.6873 H   0  0  0  0  0  0  0  0  0  0  0  0
   12.5766    0.8695    0.1228 H   0  0  0  0  0  0  0  0  0  0  0  0
   11.3691    0.7454    1.4175 H   0  0  0  0  0  0  0  0  0  0  0  0
    4.2204   -1.2263    1.5411 H   0  0  0  0  0  0  0  0  0  0  0  0
    2.1246   -2.4593    1.6320 H   0  0  0  0  0  0  0  0  0  0  0  0
   -2.2415   -3.3379   -1.2944 H   0  0  0  0  0  0  0  0  0  0  0  0
   -4.3321   -2.1533   -0.9289 H   0  0  0  0  0  0  0  0  0  0  0  0
  1  2  2  0
  2  3  1  0
  3  4  1  0
  4  5  1  0
  5  6  1  0
  6  7  1  0
  7  8  1  0
  8  9  1  0
  9 10  1  0
 10 11  1  0
 11 12  1  0
  2 13  1  0
 13 14  1  0
 14 15  2  0
 15 16  1  0
 16 17  2  0
 17 18  1  0
 18 19  1  0
 19 20  2  0
 20 21  1  0
 21 22  2  0
 22 23  1  0
 23 24  1  0
 24 25  2  0
 24 26  1  0
 26 27  1  0
 27 28  1  0
 28 29  1  0
 29 30  1  0
 30 31  1  0
 31 32  1  0
 32 33  1  0
 33 34  1  0
 34 35  1  0
 22 36  1  0
 36 37  2  0
 17 38  1  0
 38 39  2  0
 12  7  1  0
 39 14  1  0
 37 19  1  0
 35 30  1  0
  3 40  1  0
  4 41  1  0
  4 42  1  0
  5 43  1  0
  5 44  1  0
  6 45  1  0
  6 46  1  0
  8 47  1  0
  8 48  1  0
  9 49  1  0
  9 50  1  0
 11 51  1  0
 11 52  1  0
 12 53  1  0
 12 54  1  0
 13 55  1  0
 15 56  1  0
 16 57  1  0
 18 58  1  0
 18 59  1  0
 20 60  1  0
 21 61  1  0
 23 62  1  0
 26 63  1  0
 27 64  1  0
 27 65  1  0
 28 66  1  0
 28 67  1  0
 29 68  1  0
 29 69  1  0
 31 70  1  0
 31 71  1  0
 32 72  1  0
 32 73  1  0
 34 74  1  0
 34 75  1  0
 35 76  1  0
 35 77  1  0
 36 78  1  0
 37 79  1  0
 38 80  1  0
 39 81  1  0
M  END
$$$$
