
     RDKit          3D

 36 37  0  0  0  0  0  0  0  0999 V2000
    4.7667    1.7305   -1.2571 C   0  0  0  0  0  0  0  0  0  0  0  0
    4.3485    0.7975   -0.2406 N   0  0  0  0  0  0  0  0  0  0  0  0
    3.5111   -0.2548   -0.5615 C   0  0  0  0  0  0  0  0  0  0  0  0
    3.1655   -0.5134   -1.7114 O   0  0  0  0  0  0  0  0  0  0  0  0
    3.0719   -1.0895    0.6461 C   0  0  0  0  0  0  0  0  0  0  0  0
    1.9033   -1.8676    0.3937 O   0  0  0  0  0  0  0  0  0  0  0  0
    0.7596   -1.1425    0.3164 C   0  0  0  0  0  0  0  0  0  0  0  0
    0.6725    0.0577    0.5444 O   0  0  0  0  0  0  0  0  0  0  0  0
   -0.4092   -2.0001   -0.0533 C   0  0  0  0  0  0  0  0  0  0  0  0
   -0.2085   -3.3591   -0.3622 C   0  0  0  0  0  0  0  0  0  0  0  0
   -1.2853   -4.1778   -0.6967 C   0  0  0  0  0  0  0  0  0  0  0  0
   -2.5689   -3.6478   -0.7272 C   0  0  0  0  0  0  0  0  0  0  0  0
   -2.7830   -2.2986   -0.4287 C   0  0  0  0  0  0  0  0  0  0  0  0
   -1.7174   -1.4540   -0.0908 C   0  0  0  0  0  0  0  0  0  0  0  0
   -1.9075   -0.0781    0.2014 N   0  0  0  0  0  0  0  0  0  0  0  0
   -3.0852    0.6504    0.2676 C   0  0  0  0  0  0  0  0  0  0  0  0
   -4.2029    0.1678    0.1090 O   0  0  0  0  0  0  0  0  0  0  0  0
   -2.8876    2.0666    0.5590 C   0  0  0  0  0  0  0  0  0  0  0  0
   -1.7655    2.8651    0.7240 C   0  0  0  0  0  0  0  0  0  0  0  0
   -2.2253    4.1790    0.9910 C   0  0  0  0  0  0  0  0  0  0  0  0
   -3.5961    4.1131    0.9737 C   0  0  0  0  0  0  0  0  0  0  0  0
   -4.0063    2.8477    0.7143 O   0  0  0  0  0  0  0  0  0  0  0  0
    5.0675    1.1954   -2.1619 H   0  0  0  0  0  0  0  0  0  0  0  0
    5.6070    2.3118   -0.8708 H   0  0  0  0  0  0  0  0  0  0  0  0
    3.9304    2.3956   -1.4883 H   0  0  0  0  0  0  0  0  0  0  0  0
    4.3861    1.1050    0.7226 H   0  0  0  0  0  0  0  0  0  0  0  0
    2.9258   -0.4559    1.5289 H   0  0  0  0  0  0  0  0  0  0  0  0
    3.8850   -1.7873    0.8733 H   0  0  0  0  0  0  0  0  0  0  0  0
    0.7870   -3.7971   -0.3525 H   0  0  0  0  0  0  0  0  0  0  0  0
   -1.1219   -5.2258   -0.9360 H   0  0  0  0  0  0  0  0  0  0  0  0
   -3.4143   -4.2802   -0.9898 H   0  0  0  0  0  0  0  0  0  0  0  0
   -3.8064   -1.9391   -0.4792 H   0  0  0  0  0  0  0  0  0  0  0  0
   -1.0479    0.4320    0.3955 H   0  0  0  0  0  0  0  0  0  0  0  0
   -0.7328    2.5514    0.6569 H   0  0  0  0  0  0  0  0  0  0  0  0
   -1.6309    5.0638    1.1705 H   0  0  0  0  0  0  0  0  0  0  0  0
   -4.3851    4.8382    1.1181 H   0  0  0  0  0  0  0  0  0  0  0  0
  1  2  1  0
  2  3  1  0
  3  4  2  0
  3  5  1  0
  5  6  1  0
  6  7  1  0
  7  8  2  0
  7  9  1  0
  9 10  2  0
 10 11  1  0
 11 12  2  0
 12 13  1  0
 13 14  2  0
 14 15  1  0
 15 16  1  0
 16 17  2  0
 16 18  1  0
 18 19  2  0
 19 20  1  0
 20 21  2  0
 21 22  1  0
 14  9  1  0
 22 18  1  0
  1 23  1  0
  1 24  1  0
  1 25  1  0
  2 26  1  0
  5 27  1  0
  5 28  1  0
 10 29  1  0
 11 30  1  0
 12 31  1  0
 13 32  1  0
 15 33  1  0
 19 34  1  0
 20 35  1  0
 21 36  1  0
M  END
$$$$
