
     RDKit          3D

 52 55  0  0  0  0  0  0  0  0999 V2000
    7.7318   -1.5918   -0.8246 C   0  0  0  0  0  0  0  0  0  0  0  0
    6.9013   -2.1376    0.1929 O   0  0  0  0  0  0  0  0  0  0  0  0
    5.6395   -1.6234    0.3006 C   0  0  0  0  0  0  0  0  0  0  0  0
    4.8629   -2.1853    1.3137 C   0  0  0  0  0  0  0  0  0  0  0  0
    3.5522   -1.7501    1.5323 C   0  0  0  0  0  0  0  0  0  0  0  0
    2.9958   -0.7445    0.7356 C   0  0  0  0  0  0  0  0  0  0  0  0
    1.6720   -0.3595    1.0173 N   0  0  0  0  0  0  0  0  0  0  0  0
    0.8800    0.5473    0.3241 C   0  0  0  0  0  0  0  0  0  0  0  0
    1.1949    1.1529   -0.6925 O   0  0  0  0  0  0  0  0  0  0  0  0
   -0.5014    0.6905    0.9950 C   0  0  0  0  0  0  0  0  0  0  0  0
   -1.0538   -0.6127    1.2646 O   0  0  0  0  0  0  0  0  0  0  0  0
   -1.5469   -1.3109    0.1038 C   0  0  0  0  0  0  0  0  0  0  0  0
   -2.4142   -2.3498    0.5561 O   0  0  0  0  0  0  0  0  0  0  0  0
   -3.7179   -1.7456    0.6048 C   0  0  0  0  0  0  0  0  0  0  0  0
   -4.1266   -1.5197    2.0553 C   0  0  0  0  0  0  0  0  0  0  0  0
   -4.7031   -2.6701   -0.1019 C   0  0  0  0  0  0  0  0  0  0  0  0
   -3.6930   -0.4758   -0.0703 O   0  0  0  0  0  0  0  0  0  0  0  0
   -2.4647   -0.5009   -0.8118 C   0  0  0  0  0  0  0  0  0  0  0  0
   -1.8752    0.8679   -1.0570 C   0  0  0  0  0  0  0  0  0  0  0  0
   -2.7073    1.8496   -1.6721 O   0  0  0  0  0  0  0  0  0  0  0  0
   -2.1163    3.0999   -1.2364 C   0  0  0  0  0  0  0  0  0  0  0  0
   -1.3135    3.7078   -2.3802 C   0  0  0  0  0  0  0  0  0  0  0  0
   -3.2343    4.0318   -0.7861 C   0  0  0  0  0  0  0  0  0  0  0  0
   -1.2200    2.8538   -0.1237 O   0  0  0  0  0  0  0  0  0  0  0  0
   -1.5337    1.5197    0.2510 C   0  0  0  0  0  0  0  0  0  0  0  0
    3.7752   -0.1810   -0.2748 C   0  0  0  0  0  0  0  0  0  0  0  0
    5.0901   -0.6181   -0.4926 C   0  0  0  0  0  0  0  0  0  0  0  0
    8.6974   -2.1045   -0.7783 H   0  0  0  0  0  0  0  0  0  0  0  0
    7.3076   -1.7700   -1.8182 H   0  0  0  0  0  0  0  0  0  0  0  0
    7.9128   -0.5250   -0.6565 H   0  0  0  0  0  0  0  0  0  0  0  0
    5.2818   -2.9695    1.9398 H   0  0  0  0  0  0  0  0  0  0  0  0
    2.9797   -2.2129    2.3317 H   0  0  0  0  0  0  0  0  0  0  0  0
    1.2098   -0.8471    1.7802 H   0  0  0  0  0  0  0  0  0  0  0  0
   -0.3077    1.1702    1.9628 H   0  0  0  0  0  0  0  0  0  0  0  0
   -0.6981   -1.7466   -0.4327 H   0  0  0  0  0  0  0  0  0  0  0  0
   -5.1214   -1.0665    2.1211 H   0  0  0  0  0  0  0  0  0  0  0  0
   -4.1196   -2.4574    2.6206 H   0  0  0  0  0  0  0  0  0  0  0  0
   -3.4310   -0.8358    2.5539 H   0  0  0  0  0  0  0  0  0  0  0  0
   -5.7088   -2.2376   -0.1234 H   0  0  0  0  0  0  0  0  0  0  0  0
   -4.7429   -3.6521    0.3810 H   0  0  0  0  0  0  0  0  0  0  0  0
   -4.3998   -2.8349   -1.1421 H   0  0  0  0  0  0  0  0  0  0  0  0
   -2.6736   -1.0192   -1.7549 H   0  0  0  0  0  0  0  0  0  0  0  0
   -1.0008    0.7594   -1.7093 H   0  0  0  0  0  0  0  0  0  0  0  0
   -1.9431    3.8804   -3.2591 H   0  0  0  0  0  0  0  0  0  0  0  0
   -0.8466    4.6516   -2.0795 H   0  0  0  0  0  0  0  0  0  0  0  0
   -0.5064    3.0332   -2.6874 H   0  0  0  0  0  0  0  0  0  0  0  0
   -3.9379    4.2309   -1.6012 H   0  0  0  0  0  0  0  0  0  0  0  0
   -3.8075    3.5791    0.0310 H   0  0  0  0  0  0  0  0  0  0  0  0
   -2.8348    4.9809   -0.4141 H   0  0  0  0  0  0  0  0  0  0  0  0
   -2.4313    1.5847    0.8837 H   0  0  0  0  0  0  0  0  0  0  0  0
    3.3956    0.6102   -0.9139 H   0  0  0  0  0  0  0  0  0  0  0  0
    5.6528   -0.1460   -1.2912 H   0  0  0  0  0  0  0  0  0  0  0  0
  1  2  1  0
  2  3  1  0
  3  4  2  0
  4  5  1  0
  5  6  2  0
  6  7  1  0
  7  8  1  0
  8  9  2  0
  8 10  1  0
 10 11  1  0
 11 12  1  0
 12 13  1  0
 13 14  1  0
 14 15  1  0
 14 16  1  0
 14 17  1  0
 17 18  1  0
 18 19  1  0
 19 20  1  0
 20 21  1  0
 21 22  1  0
 21 23  1  0
 21 24  1  0
 24 25  1  0
  6 26  1  0
 26 27  2  0
 27  3  1  0
 25 10  1  0
 18 12  1  0
 25 19  1  0
  1 28  1  0
  1 29  1  0
  1 30  1  0
  4 31  1  0
  5 32  1  0
  7 33  1  0
 10 34  1  0
 12 35  1  0
 15 36  1  0
 15 37  1  0
 15 38  1  0
 16 39  1  0
 16 40  1  0
 16 41  1  0
 18 42  1  0
 19 43  1  0
 22 44  1  0
 22 45  1  0
 22 46  1  0
 23 47  1  0
 23 48  1  0
 23 49  1  0
 25 50  1  0
 26 51  1  0
 27 52  1  0
M  END
$$$$
