
     RDKit          3D

 58 61  0  0  0  0  0  0  0  0999 V2000
   -5.6984    3.7847   -0.3580 C   0  0  0  0  0  0  0  0  0  0  0  0
   -4.3089    3.4833    0.1205 C   0  0  0  0  0  0  0  0  0  0  0  0
   -3.5181    4.4889    0.6851 C   0  0  0  0  0  0  0  0  0  0  0  0
   -2.2153    4.2123    1.0975 C   0  0  0  0  0  0  0  0  0  0  0  0
   -1.6876    2.9289    0.9399 C   0  0  0  0  0  0  0  0  0  0  0  0
   -2.4544    1.9060    0.3638 C   0  0  0  0  0  0  0  0  0  0  0  0
   -1.9278    0.5561    0.1784 C   0  0  0  0  0  0  0  0  0  0  0  0
   -2.5214   -0.5042   -0.3359 N   0  0  0  0  0  0  0  0  0  0  0  0
   -1.5426   -1.4847   -0.2720 C   0  0  0  0  0  0  0  0  0  0  0  0
   -1.7797   -3.1010   -0.8155 S   0  0  0  0  0  6  0  0  0  0  0  0
   -2.3643   -2.9919   -2.1378 O   0  0  0  0  0  0  0  0  0  0  0  0
   -0.5184   -3.7884   -0.5947 O   0  0  0  0  0  0  0  0  0  0  0  0
   -2.9957   -3.7725    0.2862 C   0  0  0  0  0  0  0  0  0  0  0  0
   -4.3472   -3.4669    0.0810 C   0  0  0  0  0  0  0  0  0  0  0  0
   -5.3094   -4.0087    0.9335 C   0  0  0  0  0  0  0  0  0  0  0  0
   -4.9142   -4.8511    1.9687 C   0  0  0  0  0  0  0  0  0  0  0  0
   -5.8404   -5.3701    2.7848 F   0  0  0  0  0  0  0  0  0  0  0  0
   -3.5729   -5.1668    2.1686 C   0  0  0  0  0  0  0  0  0  0  0  0
   -2.6029   -4.6294    1.3212 C   0  0  0  0  0  0  0  0  0  0  0  0
   -0.3997   -0.9794    0.3093 C   0  0  0  0  0  0  0  0  0  0  0  0
    0.8067   -1.4943    0.6371 N   0  0  0  0  0  0  0  0  0  0  0  0
    1.9532   -0.6358    0.8925 C   0  0  0  0  0  0  0  0  0  0  0  0
    2.5680   -0.1378   -0.4166 C   0  0  0  0  0  0  0  0  0  0  0  0
    3.8186    0.7060   -0.1397 C   0  0  0  0  0  0  0  0  0  0  0  0
    4.3657    1.3238   -1.3573 N   0  0  0  0  0  0  0  0  0  0  0  0
    5.3745    2.3596   -1.0326 C   0  0  0  0  0  0  0  0  0  0  0  0
    6.7250    1.7911   -0.5650 C   0  0  0  0  0  0  0  0  0  0  0  0
    7.2725    0.8837   -1.5285 O   0  0  0  0  0  0  0  0  0  0  0  0
    6.3547   -0.1810   -1.8057 C   0  0  0  0  0  0  0  0  0  0  0  0
    4.9952    0.3571   -2.2853 C   0  0  0  0  0  0  0  0  0  0  0  0
   -0.6428    0.3331    0.5978 O   0  0  0  0  0  0  0  0  0  0  0  0
   -3.7647    2.2012   -0.0470 C   0  0  0  0  0  0  0  0  0  0  0  0
   -5.6750    4.0834   -1.4104 H   0  0  0  0  0  0  0  0  0  0  0  0
   -6.3457    2.9078   -0.2519 H   0  0  0  0  0  0  0  0  0  0  0  0
   -6.1480    4.5924    0.2290 H   0  0  0  0  0  0  0  0  0  0  0  0
   -3.9126    5.4955    0.8064 H   0  0  0  0  0  0  0  0  0  0  0  0
   -1.6075    4.9983    1.5386 H   0  0  0  0  0  0  0  0  0  0  0  0
   -0.6677    2.7385    1.2672 H   0  0  0  0  0  0  0  0  0  0  0  0
   -4.6526   -2.8109   -0.7326 H   0  0  0  0  0  0  0  0  0  0  0  0
   -6.3626   -3.7830    0.7969 H   0  0  0  0  0  0  0  0  0  0  0  0
   -3.2946   -5.8318    2.9807 H   0  0  0  0  0  0  0  0  0  0  0  0
   -1.5561   -4.8832    1.4743 H   0  0  0  0  0  0  0  0  0  0  0  0
    1.0396   -2.4173    0.2597 H   0  0  0  0  0  0  0  0  0  0  0  0
    2.6968   -1.2241    1.4431 H   0  0  0  0  0  0  0  0  0  0  0  0
    1.6806    0.2042    1.5431 H   0  0  0  0  0  0  0  0  0  0  0  0
    2.8128   -1.0024   -1.0438 H   0  0  0  0  0  0  0  0  0  0  0  0
    1.8331    0.4599   -0.9700 H   0  0  0  0  0  0  0  0  0  0  0  0
    3.5230    1.5045    0.5536 H   0  0  0  0  0  0  0  0  0  0  0  0
    4.5669    0.0997    0.3835 H   0  0  0  0  0  0  0  0  0  0  0  0
    4.9815    3.0617   -0.2881 H   0  0  0  0  0  0  0  0  0  0  0  0
    5.5433    2.9480   -1.9440 H   0  0  0  0  0  0  0  0  0  0  0  0
    6.6369    1.2810    0.4008 H   0  0  0  0  0  0  0  0  0  0  0  0
    7.4430    2.6079   -0.4395 H   0  0  0  0  0  0  0  0  0  0  0  0
    6.2511   -0.8083   -0.9134 H   0  0  0  0  0  0  0  0  0  0  0  0
    6.8008   -0.8006   -2.5903 H   0  0  0  0  0  0  0  0  0  0  0  0
    4.3224   -0.4742   -2.5167 H   0  0  0  0  0  0  0  0  0  0  0  0
    5.1528    0.8816   -3.2372 H   0  0  0  0  0  0  0  0  0  0  0  0
   -4.3694    1.4196   -0.5065 H   0  0  0  0  0  0  0  0  0  0  0  0
  1  2  1  0
  2  3  2  0
  3  4  1  0
  4  5  2  0
  5  6  1  0
  6  7  1  0
  7  8  2  0
  8  9  1  0
  9 10  1  0
 10 11  2  0
 10 12  2  0
 10 13  1  0
 13 14  2  0
 14 15  1  0
 15 16  2  0
 16 17  1  0
 16 18  1  0
 18 19  2  0
  9 20  2  0
 20 21  1  0
 21 22  1  0
 22 23  1  0
 23 24  1  0
 24 25  1  0
 25 26  1  0
 26 27  1  0
 27 28  1  0
 28 29  1  0
 29 30  1  0
 20 31  1  0
  6 32  2  0
 32  2  1  0
 31  7  1  0
 19 13  1  0
 30 25  1  0
  1 33  1  0
  1 34  1  0
  1 35  1  0
  3 36  1  0
  4 37  1  0
  5 38  1  0
 14 39  1  0
 15 40  1  0
 18 41  1  0
 19 42  1  0
 21 43  1  0
 22 44  1  0
 22 45  1  0
 23 46  1  0
 23 47  1  0
 24 48  1  0
 24 49  1  0
 26 50  1  0
 26 51  1  0
 27 52  1  0
 27 53  1  0
 29 54  1  0
 29 55  1  0
 30 56  1  0
 30 57  1  0
 32 58  1  0
M  END
$$$$
