
     RDKit          3D

 36 38  0  0  0  0  0  0  0  0999 V2000
    0.0550    1.2213   -1.5740 O   0  0  0  0  0  0  0  0  0  0  0  0
   -0.2684    0.3805   -0.7436 C   0  0  0  0  0  0  0  0  0  0  0  0
   -1.6863    0.0950   -0.3873 C   0  0  0  0  0  0  0  0  0  0  0  0
   -2.6983    0.7736   -0.9457 C   0  0  0  0  0  0  0  0  0  0  0  0
   -4.1242    0.5635   -0.6792 C   0  0  0  0  0  0  0  0  0  0  0  0
   -4.6861    0.8947    0.5596 C   0  0  0  0  0  0  0  0  0  0  0  0
   -6.0494    0.6975    0.7870 C   0  0  0  0  0  0  0  0  0  0  0  0
   -6.8484    0.1761   -0.2234 C   0  0  0  0  0  0  0  0  0  0  0  0
   -8.1737    0.0003    0.0427 O   0  0  0  0  0  0  0  0  0  0  0  0
   -6.3081   -0.1507   -1.4630 C   0  0  0  0  0  0  0  0  0  0  0  0
   -4.9436    0.0469   -1.6907 C   0  0  0  0  0  0  0  0  0  0  0  0
   -1.7792   -1.1867    0.7555 S   0  0  0  0  0  0  0  0  0  0  0  0
   -0.0326   -1.4255    0.7783 C   0  0  0  0  0  0  0  0  0  0  0  0
    0.6732   -2.6834    1.6243 S   0  0  0  0  0  0  0  0  0  0  0  0
    0.5694   -0.4414    0.0049 N   0  0  0  0  0  0  0  0  0  0  0  0
    1.9195   -0.4114   -0.2841 N   0  0  0  0  0  0  0  0  0  0  0  0
    2.7043   -0.1768    0.7206 C   0  0  0  0  0  0  0  0  0  0  0  0
    4.1716   -0.1358    0.5677 C   0  0  0  0  0  0  0  0  0  0  0  0
    4.9605    0.0820    1.7013 C   0  0  0  0  0  0  0  0  0  0  0  0
    6.3500    0.1250    1.5762 C   0  0  0  0  0  0  0  0  0  0  0  0
    6.9372   -0.0486    0.3267 C   0  0  0  0  0  0  0  0  0  0  0  0
    8.2974    0.0022    0.2548 O   0  0  0  0  0  0  0  0  0  0  0  0
    6.1592   -0.2660   -0.8071 C   0  0  0  0  0  0  0  0  0  0  0  0
    4.7685   -0.3101   -0.6860 C   0  0  0  0  0  0  0  0  0  0  0  0
   -2.4876    1.5467   -1.6838 H   0  0  0  0  0  0  0  0  0  0  0  0
   -4.0726    1.3091    1.3557 H   0  0  0  0  0  0  0  0  0  0  0  0
   -6.4862    0.9509    1.7488 H   0  0  0  0  0  0  0  0  0  0  0  0
   -8.6014   -0.3764   -0.7435 H   0  0  0  0  0  0  0  0  0  0  0  0
   -6.9258   -0.5560   -2.2579 H   0  0  0  0  0  0  0  0  0  0  0  0
   -4.5250   -0.2096   -2.6615 H   0  0  0  0  0  0  0  0  0  0  0  0
    2.3090    0.0199    1.7342 H   0  0  0  0  0  0  0  0  0  0  0  0
    4.5117    0.2160    2.6817 H   0  0  0  0  0  0  0  0  0  0  0  0
    6.9749    0.2922    2.4495 H   0  0  0  0  0  0  0  0  0  0  0  0
    8.5666   -0.1363   -0.6684 H   0  0  0  0  0  0  0  0  0  0  0  0
    6.6109   -0.4013   -1.7849 H   0  0  0  0  0  0  0  0  0  0  0  0
    4.1578   -0.4772   -1.5706 H   0  0  0  0  0  0  0  0  0  0  0  0
  1  2  2  0
  2  3  1  0
  3  4  2  3
  4  5  1  0
  5  6  2  0
  6  7  1  0
  7  8  2  0
  8  9  1  0
  8 10  1  0
 10 11  2  0
  3 12  1  0
 12 13  1  0
 13 14  2  0
 13 15  1  0
 15 16  1  0
 16 17  2  3
 17 18  1  0
 18 19  2  0
 19 20  1  0
 20 21  2  0
 21 22  1  0
 21 23  1  0
 23 24  2  0
 15  2  1  0
 24 18  1  0
 11  5  1  0
  4 25  1  0
  6 26  1  0
  7 27  1  0
  9 28  1  0
 10 29  1  0
 11 30  1  0
 17 31  1  0
 19 32  1  0
 20 33  1  0
 22 34  1  0
 23 35  1  0
 24 36  1  0
M  END
$$$$
