
     RDKit          3D

 68 71  0  0  0  0  0  0  0  0999 V2000
    8.2899   -2.8185   -5.3127 C   0  0  0  0  0  0  0  0  0  0  0  0
    8.1721   -2.2167   -4.0286 O   0  0  0  0  0  0  0  0  0  0  0  0
    6.9205   -2.1660   -3.4820 C   0  0  0  0  0  0  0  0  0  0  0  0
    6.8648   -1.6137   -2.2006 C   0  0  0  0  0  0  0  0  0  0  0  0
    5.6486   -1.5053   -1.5194 C   0  0  0  0  0  0  0  0  0  0  0  0
    4.4622   -1.9322   -2.1234 C   0  0  0  0  0  0  0  0  0  0  0  0
    3.1624   -1.8687   -1.4391 C   0  0  0  0  0  0  0  0  0  0  0  0
    2.6060   -0.7889   -0.8523 C   0  0  0  0  0  0  0  0  0  0  0  0
    3.2304    0.4875   -0.8299 C   0  0  0  0  0  0  0  0  0  0  0  0
    3.7053    1.5451   -0.7654 N   0  0  0  0  0  0  0  0  0  0  0  0
    1.2469   -0.9723   -0.2277 C   0  0  0  0  0  0  0  0  0  0  0  0
    0.6351   -2.0259   -0.3842 O   0  0  0  0  0  0  0  0  0  0  0  0
    0.7899    0.1051    0.4967 N   0  0  0  0  0  0  0  0  0  0  0  0
   -0.4353    0.2508    1.1880 C   0  0  0  0  0  0  0  0  0  0  0  0
   -1.4307   -0.7246    1.2380 C   0  0  0  0  0  0  0  0  0  0  0  0
   -2.6209   -0.4439    1.9126 C   0  0  0  0  0  0  0  0  0  0  0  0
   -3.9164   -1.6569    1.9882 S   0  0  0  0  0  6  0  0  0  0  0  0
   -3.4650   -2.8758    1.3519 O   0  0  0  0  0  0  0  0  0  0  0  0
   -4.4150   -1.6630    3.3480 O   0  0  0  0  0  0  0  0  0  0  0  0
   -5.1165   -0.9680    0.9832 N   0  0  0  0  0  0  0  0  0  0  0  0
   -4.7474   -0.7896   -0.4513 C   0  0  0  0  0  0  0  0  0  0  0  0
   -5.6098   -1.6386   -1.3752 C   0  0  0  0  0  0  0  0  0  0  0  0
   -7.0910   -1.3044   -1.2252 C   0  0  0  0  0  0  0  0  0  0  0  0
   -7.4641   -0.9517    0.2136 C   0  0  0  0  0  0  0  0  0  0  0  0
   -6.4736   -1.5329    1.2153 C   0  0  0  0  0  0  0  0  0  0  0  0
   -2.8158    0.7825    2.5527 C   0  0  0  0  0  0  0  0  0  0  0  0
   -1.8125    1.7516    2.5112 C   0  0  0  0  0  0  0  0  0  0  0  0
   -0.6130    1.5066    1.8342 C   0  0  0  0  0  0  0  0  0  0  0  0
    0.4419    2.4359    1.7789 N   0  0  0  0  0  0  0  0  0  0  0  0
    1.3798    2.3783    2.9119 C   0  0  0  0  0  0  0  0  0  0  0  0
    1.0013    3.3655    4.0118 C   0  0  0  0  0  0  0  0  0  0  0  0
    0.8597    4.7774    3.4507 C   0  0  0  0  0  0  0  0  0  0  0  0
   -0.1493    4.8113    2.3080 C   0  0  0  0  0  0  0  0  0  0  0  0
    0.1601    3.7712    1.2328 C   0  0  0  0  0  0  0  0  0  0  0  0
    4.5221   -2.4977   -3.4027 C   0  0  0  0  0  0  0  0  0  0  0  0
    5.7426   -2.6113   -4.0807 C   0  0  0  0  0  0  0  0  0  0  0  0
    7.9646   -3.8640   -5.2911 H   0  0  0  0  0  0  0  0  0  0  0  0
    9.3478   -2.8057   -5.5909 H   0  0  0  0  0  0  0  0  0  0  0  0
    7.7387   -2.2461   -6.0658 H   0  0  0  0  0  0  0  0  0  0  0  0
    7.7795   -1.2703   -1.7228 H   0  0  0  0  0  0  0  0  0  0  0  0
    5.6545   -1.0917   -0.5142 H   0  0  0  0  0  0  0  0  0  0  0  0
    2.6191   -2.8148   -1.4526 H   0  0  0  0  0  0  0  0  0  0  0  0
    1.3429    0.9581    0.5768 H   0  0  0  0  0  0  0  0  0  0  0  0
   -1.3067   -1.6904    0.7588 H   0  0  0  0  0  0  0  0  0  0  0  0
   -4.8643    0.2736   -0.6937 H   0  0  0  0  0  0  0  0  0  0  0  0
   -3.6957   -1.0335   -0.6291 H   0  0  0  0  0  0  0  0  0  0  0  0
   -5.3038   -1.4947   -2.4179 H   0  0  0  0  0  0  0  0  0  0  0  0
   -5.4517   -2.7002   -1.1465 H   0  0  0  0  0  0  0  0  0  0  0  0
   -7.3513   -0.4596   -1.8732 H   0  0  0  0  0  0  0  0  0  0  0  0
   -7.6875   -2.1550   -1.5733 H   0  0  0  0  0  0  0  0  0  0  0  0
   -8.4778   -1.3081    0.4293 H   0  0  0  0  0  0  0  0  0  0  0  0
   -7.4861    0.1406    0.3205 H   0  0  0  0  0  0  0  0  0  0  0  0
   -6.4523   -2.6265    1.1408 H   0  0  0  0  0  0  0  0  0  0  0  0
   -6.8024   -1.2636    2.2255 H   0  0  0  0  0  0  0  0  0  0  0  0
   -3.7414    0.9826    3.0890 H   0  0  0  0  0  0  0  0  0  0  0  0
   -1.9780    2.6863    3.0343 H   0  0  0  0  0  0  0  0  0  0  0  0
    1.4489    1.3635    3.3247 H   0  0  0  0  0  0  0  0  0  0  0  0
    2.3809    2.6235    2.5345 H   0  0  0  0  0  0  0  0  0  0  0  0
    1.7682    3.3564    4.7946 H   0  0  0  0  0  0  0  0  0  0  0  0
    0.0603    3.0637    4.4857 H   0  0  0  0  0  0  0  0  0  0  0  0
    1.8342    5.1271    3.0891 H   0  0  0  0  0  0  0  0  0  0  0  0
    0.5470    5.4639    4.2468 H   0  0  0  0  0  0  0  0  0  0  0  0
   -0.1539    5.8100    1.8551 H   0  0  0  0  0  0  0  0  0  0  0  0
   -1.1540    4.6564    2.7098 H   0  0  0  0  0  0  0  0  0  0  0  0
    1.0530    4.0946    0.6822 H   0  0  0  0  0  0  0  0  0  0  0  0
   -0.6499    3.7339    0.4942 H   0  0  0  0  0  0  0  0  0  0  0  0
    3.6167   -2.8577   -3.8894 H   0  0  0  0  0  0  0  0  0  0  0  0
    5.7354   -3.0546   -5.0716 H   0  0  0  0  0  0  0  0  0  0  0  0
  1  2  1  0
  2  3  1  0
  3  4  2  0
  4  5  1  0
  5  6  2  0
  6  7  1  0
  7  8  2  3
  8  9  1  0
  9 10  3  0
  8 11  1  0
 11 12  2  0
 11 13  1  0
 13 14  1  0
 14 15  2  0
 15 16  1  0
 16 17  1  0
 17 18  2  0
 17 19  2  0
 17 20  1  0
 20 21  1  0
 21 22  1  0
 22 23  1  0
 23 24  1  0
 24 25  1  0
 16 26  2  0
 26 27  1  0
 27 28  2  0
 28 29  1  0
 29 30  1  0
 30 31  1  0
 31 32  1  0
 32 33  1  0
 33 34  1  0
  6 35  1  0
 35 36  2  0
 36  3  1  0
 28 14  1  0
 34 29  1  0
 25 20  1  0
  1 37  1  0
  1 38  1  0
  1 39  1  0
  4 40  1  0
  5 41  1  0
  7 42  1  0
 13 43  1  0
 15 44  1  0
 21 45  1  0
 21 46  1  0
 22 47  1  0
 22 48  1  0
 23 49  1  0
 23 50  1  0
 24 51  1  0
 24 52  1  0
 25 53  1  0
 25 54  1  0
 26 55  1  0
 27 56  1  0
 30 57  1  0
 30 58  1  0
 31 59  1  0
 31 60  1  0
 32 61  1  0
 32 62  1  0
 33 63  1  0
 33 64  1  0
 34 65  1  0
 34 66  1  0
 35 67  1  0
 36 68  1  0
M  END
$$$$
