
     RDKit          3D

 38 39  0  0  0  0  0  0  0  0999 V2000
    1.8024   -1.3235   -2.1779 O   0  0  0  0  0  0  0  0  0  0  0  0
    1.6906   -0.3325   -1.4776 C   0  0  0  0  0  0  0  0  0  0  0  0
    1.9955    0.9528   -1.8584 N   0  0  0  0  0  0  0  0  0  0  0  0
    2.5084    1.2775   -3.1693 C   0  0  0  0  0  0  0  0  0  0  0  0
    3.9900    0.9370   -3.3338 C   0  0  0  0  0  0  0  0  0  0  0  0
    4.4933    1.4559   -4.5608 O   0  0  0  0  0  0  0  0  0  0  0  0
    1.1667   -0.4356   -0.0408 C   0  0  0  0  0  0  0  0  0  0  0  0
    0.7489   -1.8216    0.4201 C   0  0  0  0  0  0  0  0  0  0  0  0
   -0.7519   -1.9578    0.5335 C   0  0  0  0  0  0  0  0  0  0  0  0
   -1.5615   -1.8685   -0.6087 C   0  0  0  0  0  0  0  0  0  0  0  0
   -2.9512   -1.9530   -0.4994 C   0  0  0  0  0  0  0  0  0  0  0  0
   -3.5367   -2.1353    0.7513 C   0  0  0  0  0  0  0  0  0  0  0  0
   -5.4180   -2.2360    0.9017 Br  0  0  0  0  0  0  0  0  0  0  0  0
   -2.7452   -2.2473    1.8916 C   0  0  0  0  0  0  0  0  0  0  0  0
   -1.3556   -2.1641    1.7821 C   0  0  0  0  0  0  0  0  0  0  0  0
    1.0964    0.6816    0.6303 N   0  0  0  0  0  0  0  0  0  0  0  0
    0.6211    0.6183    1.9147 C   0  0  0  0  0  0  0  0  0  0  0  0
    1.1957    0.0038    2.8064 O   0  0  0  0  0  0  0  0  0  0  0  0
   -0.6095    1.3725    2.1234 C   0  0  0  0  0  0  0  0  0  0  0  0
   -1.2866    1.5203    3.3228 C   0  0  0  0  0  0  0  0  0  0  0  0
   -2.4741    2.2962    3.1957 C   0  0  0  0  0  0  0  0  0  0  0  0
   -2.6722    2.7207    1.9020 C   0  0  0  0  0  0  0  0  0  0  0  0
   -1.4311    2.1871    0.8556 S   0  0  0  0  0  0  0  0  0  0  0  0
    1.8628    1.6784   -1.1583 H   0  0  0  0  0  0  0  0  0  0  0  0
    2.3440    2.3482   -3.3306 H   0  0  0  0  0  0  0  0  0  0  0  0
    1.9201    0.7467   -3.9271 H   0  0  0  0  0  0  0  0  0  0  0  0
    4.1418   -0.1470   -3.3333 H   0  0  0  0  0  0  0  0  0  0  0  0
    4.5845    1.3548   -2.5137 H   0  0  0  0  0  0  0  0  0  0  0  0
    4.4854    2.4260   -4.4976 H   0  0  0  0  0  0  0  0  0  0  0  0
    1.2352   -2.0383    1.3775 H   0  0  0  0  0  0  0  0  0  0  0  0
    1.1167   -2.5913   -0.2661 H   0  0  0  0  0  0  0  0  0  0  0  0
   -1.1182   -1.7332   -1.5943 H   0  0  0  0  0  0  0  0  0  0  0  0
   -3.5648   -1.8754   -1.3931 H   0  0  0  0  0  0  0  0  0  0  0  0
   -3.1979   -2.3967    2.8682 H   0  0  0  0  0  0  0  0  0  0  0  0
   -0.7490   -2.2498    2.6823 H   0  0  0  0  0  0  0  0  0  0  0  0
   -0.9389    1.0812    4.2516 H   0  0  0  0  0  0  0  0  0  0  0  0
   -3.1491    2.5285    4.0106 H   0  0  0  0  0  0  0  0  0  0  0  0
   -3.4880    3.3194    1.5195 H   0  0  0  0  0  0  0  0  0  0  0  0
  1  2  2  0
  2  3  1  0
  3  4  1  0
  4  5  1  0
  5  6  1  0
  2  7  1  0
  7  8  1  0
  8  9  1  0
  9 10  2  0
 10 11  1  0
 11 12  2  0
 12 13  1  0
 12 14  1  0
 14 15  2  0
  7 16  2  3
 16 17  1  0
 17 18  2  0
 17 19  1  0
 19 20  2  0
 20 21  1  0
 21 22  2  0
 22 23  1  0
 15  9  1  0
 23 19  1  0
  3 24  1  0
  4 25  1  0
  4 26  1  0
  5 27  1  0
  5 28  1  0
  6 29  1  0
  8 30  1  0
  8 31  1  0
 10 32  1  0
 11 33  1  0
 14 34  1  0
 15 35  1  0
 20 36  1  0
 21 37  1  0
 22 38  1  0
M  END
$$$$
