
     RDKit          3D

 46 49  0  0  0  0  0  0  0  0999 V2000
   -2.0223   -1.4954   -3.5854 C   0  0  0  0  0  0  0  0  0  0  0  0
   -0.8225   -1.0144   -2.9194 N   0  0  0  0  0  0  0  0  0  0  0  0
   -0.0396   -0.0166   -3.6283 C   0  0  0  0  0  0  0  0  0  0  0  0
   -0.9856   -0.7580   -1.5357 N   0  0  0  0  0  0  0  0  0  0  0  0
   -1.8661    0.2473   -1.0942 C   0  0  0  0  0  0  0  0  0  0  0  0
   -2.4961    1.1205   -1.8196 N   0  0  0  0  0  0  0  0  0  0  0  0
   -2.1357    0.3231    0.4116 C   0  0  0  0  0  0  0  0  0  0  0  0
   -3.2141   -0.6351    0.7194 C   0  0  0  0  0  0  0  0  0  0  0  0
   -4.0407   -1.4089    0.9769 N   0  0  0  0  0  0  0  0  0  0  0  0
   -0.8733   -0.0036    1.2359 C   0  0  0  0  0  0  0  0  0  0  0  0
    0.0155    1.2262    1.4553 C   0  0  0  0  0  0  0  0  0  0  0  0
    0.5498    1.9768    0.3792 C   0  0  0  0  0  0  0  0  0  0  0  0
    1.3612    3.0950    0.6059 C   0  0  0  0  0  0  0  0  0  0  0  0
    1.6310    3.4410    1.9102 C   0  0  0  0  0  0  0  0  0  0  0  0
    1.1290    2.7200    2.9647 C   0  0  0  0  0  0  0  0  0  0  0  0
    0.3271    1.6140    2.7732 C   0  0  0  0  0  0  0  0  0  0  0  0
    1.5155    3.2225    4.1677 O   0  0  0  0  0  0  0  0  0  0  0  0
    2.3223    4.3416    3.7472 C   0  0  0  0  0  0  0  0  0  0  0  0
    2.3976    4.4886    2.3136 O   0  0  0  0  0  0  0  0  0  0  0  0
   -0.0909   -1.1632    0.6536 C   0  0  0  0  0  0  0  0  0  0  0  0
   -0.1824   -1.5070   -0.6503 C   0  0  0  0  0  0  0  0  0  0  0  0
    0.5768   -2.7043   -1.2035 C   0  0  0  0  0  0  0  0  0  0  0  0
    1.0158   -3.6961   -0.1316 C   0  0  0  0  0  0  0  0  0  0  0  0
    1.6972   -2.9840    1.0182 C   0  0  0  0  0  0  0  0  0  0  0  0
    0.7784   -1.9353    1.5923 C   0  0  0  0  0  0  0  0  0  0  0  0
    0.7717   -1.6865    2.7958 O   0  0  0  0  0  0  0  0  0  0  0  0
   -2.7631   -0.7150   -3.7780 H   0  0  0  0  0  0  0  0  0  0  0  0
   -1.7576   -1.9419   -4.5504 H   0  0  0  0  0  0  0  0  0  0  0  0
   -2.5038   -2.2860   -2.9987 H   0  0  0  0  0  0  0  0  0  0  0  0
    0.2637   -0.4066   -4.6064 H   0  0  0  0  0  0  0  0  0  0  0  0
   -0.5696    0.9235   -3.7998 H   0  0  0  0  0  0  0  0  0  0  0  0
    0.8849    0.2109   -3.0854 H   0  0  0  0  0  0  0  0  0  0  0  0
   -2.2623    0.9760   -2.8010 H   0  0  0  0  0  0  0  0  0  0  0  0
   -2.4951    1.3316    0.6564 H   0  0  0  0  0  0  0  0  0  0  0  0
   -1.2340   -0.3141    2.2284 H   0  0  0  0  0  0  0  0  0  0  0  0
    0.3479    1.7034   -0.6530 H   0  0  0  0  0  0  0  0  0  0  0  0
    1.7671    3.6716   -0.2178 H   0  0  0  0  0  0  0  0  0  0  0  0
   -0.0358    1.0573    3.6329 H   0  0  0  0  0  0  0  0  0  0  0  0
    1.8980    5.2589    4.1715 H   0  0  0  0  0  0  0  0  0  0  0  0
    3.3372    4.2095    4.1397 H   0  0  0  0  0  0  0  0  0  0  0  0
   -0.0469   -3.2590   -1.9147 H   0  0  0  0  0  0  0  0  0  0  0  0
    1.4566   -2.3418   -1.7500 H   0  0  0  0  0  0  0  0  0  0  0  0
    1.6914   -4.4405   -0.5679 H   0  0  0  0  0  0  0  0  0  0  0  0
    0.1373   -4.2395    0.2406 H   0  0  0  0  0  0  0  0  0  0  0  0
    1.9394   -3.7083    1.8033 H   0  0  0  0  0  0  0  0  0  0  0  0
    2.6248   -2.4980    0.6975 H   0  0  0  0  0  0  0  0  0  0  0  0
  1  2  1  0
  2  3  1  0
  2  4  1  0
  4  5  1  0
  5  6  2  3
  5  7  1  0
  7  8  1  0
  8  9  3  0
  7 10  1  0
 10 11  1  0
 11 12  2  0
 12 13  1  0
 13 14  2  0
 14 15  1  0
 15 16  2  0
 15 17  1  0
 17 18  1  0
 18 19  1  0
 10 20  1  0
 20 21  2  0
 21 22  1  0
 22 23  1  0
 23 24  1  0
 24 25  1  0
 25 26  2  0
 21  4  1  0
 16 11  1  0
 25 20  1  0
 19 14  1  0
  1 27  1  0
  1 28  1  0
  1 29  1  0
  3 30  1  0
  3 31  1  0
  3 32  1  0
  6 33  1  0
  7 34  1  0
 10 35  1  0
 12 36  1  0
 13 37  1  0
 16 38  1  0
 18 39  1  0
 18 40  1  0
 22 41  1  0
 22 42  1  0
 23 43  1  0
 23 44  1  0
 24 45  1  0
 24 46  1  0
M  END
$$$$
