
     RDKit          3D

 36 38  0  0  0  0  0  0  0  0999 V2000
   -6.0140    1.9258   -0.9438 C   0  0  0  0  0  0  0  0  0  0  0  0
   -4.8892    0.9702   -0.6718 C   0  0  0  0  0  0  0  0  0  0  0  0
   -5.1236   -0.2160    0.0366 C   0  0  0  0  0  0  0  0  0  0  0  0
   -4.0855   -1.1216    0.2643 C   0  0  0  0  0  0  0  0  0  0  0  0
   -2.8058   -0.8396   -0.2212 C   0  0  0  0  0  0  0  0  0  0  0  0
   -1.4931   -1.9994    0.0349 S   0  0  0  0  0  6  0  0  0  0  0  0
   -0.5709   -1.9291   -1.0789 O   0  0  0  0  0  0  0  0  0  0  0  0
   -2.0701   -3.2584    0.4549 O   0  0  0  0  0  0  0  0  0  0  0  0
   -0.7267   -1.3601    1.4217 N   0  0  0  0  0  0  0  0  0  0  0  0
    0.7653   -1.1461    1.2396 N   0  0  0  0  0  0  0  0  0  0  0  0
    1.2117   -0.0209    0.5650 C   0  0  0  0  0  0  0  0  0  0  0  0
    0.5313    0.9125    0.1612 O   0  0  0  0  0  0  0  0  0  0  0  0
    2.6928   -0.1094    0.4072 C   0  0  0  0  0  0  0  0  0  0  0  0
    3.3693    0.8824   -0.1887 C   0  0  0  0  0  0  0  0  0  0  0  0
    4.7804    0.9169   -0.3836 C   0  0  0  0  0  0  0  0  0  0  0  0
    5.6722   -0.0625   -0.7890 C   0  0  0  0  0  0  0  0  0  0  0  0
    7.0182    0.4017   -0.8667 C   0  0  0  0  0  0  0  0  0  0  0  0
    7.1221    1.7318   -0.5361 C   0  0  0  0  0  0  0  0  0  0  0  0
    5.6070    2.4139   -0.1461 S   0  0  0  0  0  0  0  0  0  0  0  0
    3.2844   -1.5655    1.1212 S   0  0  0  0  0  0  0  0  0  0  0  0
    1.6864   -2.0980    1.6153 C   0  0  0  0  0  0  0  0  0  0  0  0
    1.3833   -3.5143    2.4377 S   0  0  0  0  0  0  0  0  0  0  0  0
   -2.5654    0.3236   -0.9547 C   0  0  0  0  0  0  0  0  0  0  0  0
   -3.6073    1.2257   -1.1770 C   0  0  0  0  0  0  0  0  0  0  0  0
   -6.7507    1.9022   -0.1339 H   0  0  0  0  0  0  0  0  0  0  0  0
   -6.5107    1.6613   -1.8823 H   0  0  0  0  0  0  0  0  0  0  0  0
   -5.6440    2.9540   -1.0159 H   0  0  0  0  0  0  0  0  0  0  0  0
   -6.1197   -0.4423    0.4120 H   0  0  0  0  0  0  0  0  0  0  0  0
   -4.2878   -2.0397    0.8112 H   0  0  0  0  0  0  0  0  0  0  0  0
   -0.9445   -1.9782    2.2115 H   0  0  0  0  0  0  0  0  0  0  0  0
    2.8133    1.7559   -0.5308 H   0  0  0  0  0  0  0  0  0  0  0  0
    5.3801   -1.0772   -1.0319 H   0  0  0  0  0  0  0  0  0  0  0  0
    7.8637   -0.2097   -1.1577 H   0  0  0  0  0  0  0  0  0  0  0  0
    8.0154    2.3409   -0.5132 H   0  0  0  0  0  0  0  0  0  0  0  0
   -1.5762    0.5383   -1.3534 H   0  0  0  0  0  0  0  0  0  0  0  0
   -3.4116    2.1308   -1.7487 H   0  0  0  0  0  0  0  0  0  0  0  0
  1  2  1  0
  2  3  2  0
  3  4  1  0
  4  5  2  0
  5  6  1  0
  6  7  2  0
  6  8  2  0
  6  9  1  0
  9 10  1  0
 10 11  1  0
 11 12  2  0
 11 13  1  0
 13 14  2  3
 14 15  1  0
 15 16  2  0
 16 17  1  0
 17 18  2  0
 18 19  1  0
 13 20  1  0
 20 21  1  0
 21 22  2  0
  5 23  1  0
 23 24  2  0
 24  2  1  0
 21 10  1  0
 19 15  1  0
  1 25  1  0
  1 26  1  0
  1 27  1  0
  3 28  1  0
  4 29  1  0
  9 30  1  0
 14 31  1  0
 16 32  1  0
 17 33  1  0
 18 34  1  0
 23 35  1  0
 24 36  1  0
M  END
$$$$
