
     RDKit          3D

 38 39  0  0  0  0  0  0  0  0999 V2000
    0.2094   -2.3698   -2.5955 O   0  0  0  0  0  0  0  0  0  0  0  0
   -0.7900   -2.4913   -1.9072 C   0  0  0  0  0  0  0  0  0  0  0  0
   -1.1879   -3.7010   -1.4702 O   0  0  0  0  0  0  0  0  0  0  0  0
   -1.6906   -1.3878   -1.4410 C   0  0  0  0  0  0  0  0  0  0  0  0
   -1.4102   -1.0467    0.0169 C   0  0  0  0  0  0  0  0  0  0  0  0
   -1.3287    0.4637    0.2078 C   0  0  0  0  0  0  0  0  0  0  0  0
   -0.3159    1.2013   -0.1561 N   0  0  0  0  0  0  0  0  0  0  0  0
    0.8197    0.5828   -0.6068 N   0  0  0  0  0  0  0  0  0  0  0  0
    1.6949    0.0199    0.3249 C   0  0  0  0  0  0  0  0  0  0  0  0
    1.4086   -0.3216    1.4666 O   0  0  0  0  0  0  0  0  0  0  0  0
    3.0758   -0.1657   -0.1787 C   0  0  0  0  0  0  0  0  0  0  0  0
    3.2602   -0.9243   -1.3451 C   0  0  0  0  0  0  0  0  0  0  0  0
    4.5437   -1.1378   -1.8489 C   0  0  0  0  0  0  0  0  0  0  0  0
    5.6470   -0.5971   -1.1922 C   0  0  0  0  0  0  0  0  0  0  0  0
    5.4691    0.1602   -0.0325 C   0  0  0  0  0  0  0  0  0  0  0  0
    4.1846    0.3796    0.4792 C   0  0  0  0  0  0  0  0  0  0  0  0
    4.0412    1.4802    2.0193 Br  0  0  0  0  0  0  0  0  0  0  0  0
   -2.5132    1.1600    0.8049 C   0  0  0  0  0  0  0  0  0  0  0  0
   -2.3019    2.3358    1.5375 C   0  0  0  0  0  0  0  0  0  0  0  0
   -3.3802    3.0161    2.1063 C   0  0  0  0  0  0  0  0  0  0  0  0
   -4.6755    2.5290    1.9418 C   0  0  0  0  0  0  0  0  0  0  0  0
   -4.8945    1.3641    1.2074 C   0  0  0  0  0  0  0  0  0  0  0  0
   -3.8173    0.6798    0.6373 C   0  0  0  0  0  0  0  0  0  0  0  0
   -0.5150   -4.3223   -1.8189 H   0  0  0  0  0  0  0  0  0  0  0  0
   -2.7314   -1.7029   -1.5791 H   0  0  0  0  0  0  0  0  0  0  0  0
   -1.5422   -0.5329   -2.1109 H   0  0  0  0  0  0  0  0  0  0  0  0
   -0.4864   -1.5126    0.3692 H   0  0  0  0  0  0  0  0  0  0  0  0
   -2.1932   -1.4696    0.6559 H   0  0  0  0  0  0  0  0  0  0  0  0
    1.2832    1.1140   -1.3404 H   0  0  0  0  0  0  0  0  0  0  0  0
    2.4098   -1.3678   -1.8582 H   0  0  0  0  0  0  0  0  0  0  0  0
    4.6818   -1.7321   -2.7495 H   0  0  0  0  0  0  0  0  0  0  0  0
    6.6484   -0.7648   -1.5824 H   0  0  0  0  0  0  0  0  0  0  0  0
    6.3409    0.5804    0.4645 H   0  0  0  0  0  0  0  0  0  0  0  0
   -1.2937    2.7214    1.6770 H   0  0  0  0  0  0  0  0  0  0  0  0
   -3.2064    3.9242    2.6778 H   0  0  0  0  0  0  0  0  0  0  0  0
   -5.5149    3.0592    2.3849 H   0  0  0  0  0  0  0  0  0  0  0  0
   -5.9068    0.9897    1.0759 H   0  0  0  0  0  0  0  0  0  0  0  0
   -4.0224   -0.2137    0.0568 H   0  0  0  0  0  0  0  0  0  0  0  0
  1  2  2  0
  2  3  1  0
  2  4  1  0
  4  5  1  0
  5  6  1  0
  6  7  2  3
  7  8  1  0
  8  9  1  0
  9 10  2  0
  9 11  1  0
 11 12  2  0
 12 13  1  0
 13 14  2  0
 14 15  1  0
 15 16  2  0
 16 17  1  0
  6 18  1  0
 18 19  2  0
 19 20  1  0
 20 21  2  0
 21 22  1  0
 22 23  2  0
 16 11  1  0
 23 18  1  0
  3 24  1  0
  4 25  1  0
  4 26  1  0
  5 27  1  0
  5 28  1  0
  8 29  1  0
 12 30  1  0
 13 31  1  0
 14 32  1  0
 15 33  1  0
 19 34  1  0
 20 35  1  0
 21 36  1  0
 22 37  1  0
 23 38  1  0
M  END
$$$$
