
     RDKit          3D

 55 59  0  0  0  0  0  0  0  0999 V2000
   -2.0264   -0.4647   -1.8429 C   0  0  0  0  0  0  0  0  0  0  0  0
   -2.5653   -0.5663   -0.4425 C   0  0  0  0  0  0  0  0  0  0  0  0
   -3.7748    0.0188   -0.0701 C   0  0  0  0  0  0  0  0  0  0  0  0
   -4.6265    0.8069   -0.9753 C   0  0  0  0  0  0  0  0  0  0  0  0
   -4.1704    2.0049   -1.5548 C   0  0  0  0  0  0  0  0  0  0  0  0
   -4.9893    2.7500   -2.4074 C   0  0  0  0  0  0  0  0  0  0  0  0
   -6.2830    2.3136   -2.6857 C   0  0  0  0  0  0  0  0  0  0  0  0
   -6.7545    1.1379   -2.1050 C   0  0  0  0  0  0  0  0  0  0  0  0
   -8.3580    0.6056   -2.4382 Cl  0  0  0  0  0  0  0  0  0  0  0  0
   -5.9392    0.3905   -1.2555 C   0  0  0  0  0  0  0  0  0  0  0  0
   -4.2801   -0.0806    1.1856 N   0  0  0  0  0  0  0  0  0  0  0  0
   -3.5975   -0.7362    2.1343 C   0  0  0  0  0  0  0  0  0  0  0  0
   -4.1488   -0.8128    3.4065 C   0  0  0  0  0  0  0  0  0  0  0  0
   -3.5034   -1.4737    4.4532 C   0  0  0  0  0  0  0  0  0  0  0  0
   -2.2755   -2.0780    4.2295 C   0  0  0  0  0  0  0  0  0  0  0  0
   -1.7017   -2.0124    2.9614 C   0  0  0  0  0  0  0  0  0  0  0  0
   -2.3524   -1.3367    1.8955 C   0  0  0  0  0  0  0  0  0  0  0  0
   -1.8489   -1.2168    0.5787 C   0  0  0  0  0  0  0  0  0  0  0  0
   -0.5249   -1.7818    0.2680 C   0  0  0  0  0  0  0  0  0  0  0  0
   -0.3322   -2.8064   -0.3586 O   0  0  0  0  0  0  0  0  0  0  0  0
    0.4168   -0.9408    0.7644 O   0  0  0  0  0  0  0  0  0  0  0  0
    1.7570   -1.3352    0.4602 C   0  0  0  0  0  0  0  0  0  0  0  0
    2.1208   -1.0753   -1.0070 C   0  0  0  0  0  0  0  0  0  0  0  0
    1.3737   -0.4368   -1.7617 O   0  0  0  0  0  0  0  0  0  0  0  0
    3.4817   -1.5143   -1.4999 C   0  0  0  0  0  0  0  0  0  0  0  0
    3.8367   -2.8576   -1.0357 C   0  0  0  0  0  0  0  0  0  0  0  0
    4.0951   -3.9319   -0.6768 N   0  0  0  0  0  0  0  0  0  0  0  0
    4.4700   -0.4913   -1.0464 C   0  0  0  0  0  0  0  0  0  0  0  0
    4.9508   -0.3453    0.1722 N   0  0  0  0  0  0  0  0  0  0  0  0
    5.7855    0.7430    0.1193 C   0  0  0  0  0  0  0  0  0  0  0  0
    6.5605    1.3292    1.1283 C   0  0  0  0  0  0  0  0  0  0  0  0
    7.3319    2.4536    0.8108 C   0  0  0  0  0  0  0  0  0  0  0  0
    7.3304    2.9804   -0.4826 C   0  0  0  0  0  0  0  0  0  0  0  0
    6.5631    2.4061   -1.5025 C   0  0  0  0  0  0  0  0  0  0  0  0
    5.8035    1.2878   -1.1575 C   0  0  0  0  0  0  0  0  0  0  0  0
    4.9598    0.4870   -1.8830 N   0  0  0  0  0  0  0  0  0  0  0  0
   -1.3580    0.3962   -1.9261 H   0  0  0  0  0  0  0  0  0  0  0  0
   -2.8275   -0.3623   -2.5794 H   0  0  0  0  0  0  0  0  0  0  0  0
   -1.4826   -1.3660   -2.1374 H   0  0  0  0  0  0  0  0  0  0  0  0
   -3.1698    2.3720   -1.3313 H   0  0  0  0  0  0  0  0  0  0  0  0
   -4.6205    3.6742   -2.8447 H   0  0  0  0  0  0  0  0  0  0  0  0
   -6.9198    2.8968   -3.3445 H   0  0  0  0  0  0  0  0  0  0  0  0
   -6.3240   -0.5197   -0.7971 H   0  0  0  0  0  0  0  0  0  0  0  0
   -5.1121   -0.3405    3.5891 H   0  0  0  0  0  0  0  0  0  0  0  0
   -3.9640   -1.5123    5.4368 H   0  0  0  0  0  0  0  0  0  0  0  0
   -1.7657   -2.6006    5.0353 H   0  0  0  0  0  0  0  0  0  0  0  0
   -0.7409   -2.5004    2.8099 H   0  0  0  0  0  0  0  0  0  0  0  0
    2.4159   -0.7350    1.0927 H   0  0  0  0  0  0  0  0  0  0  0  0
    1.8947   -2.3911    0.7186 H   0  0  0  0  0  0  0  0  0  0  0  0
    3.4421   -1.5347   -2.5965 H   0  0  0  0  0  0  0  0  0  0  0  0
    6.5618    0.9126    2.1288 H   0  0  0  0  0  0  0  0  0  0  0  0
    7.9412    2.9187    1.5820 H   0  0  0  0  0  0  0  0  0  0  0  0
    7.9433    3.8512   -0.7052 H   0  0  0  0  0  0  0  0  0  0  0  0
    6.5717    2.8101   -2.5101 H   0  0  0  0  0  0  0  0  0  0  0  0
    4.7297    0.6105   -2.8599 H   0  0  0  0  0  0  0  0  0  0  0  0
  1  2  1  0
  2  3  2  0
  3  4  1  0
  4  5  2  0
  5  6  1  0
  6  7  2  0
  7  8  1  0
  8  9  1  0
  8 10  2  0
  3 11  1  0
 11 12  2  0
 12 13  1  0
 13 14  2  0
 14 15  1  0
 15 16  2  0
 16 17  1  0
 17 18  2  0
 18 19  1  0
 19 20  2  0
 19 21  1  0
 21 22  1  0
 22 23  1  0
 23 24  2  0
 23 25  1  0
 25 26  1  0
 26 27  3  0
 25 28  1  0
 28 29  2  0
 29 30  1  0
 30 31  2  0
 31 32  1  0
 32 33  2  0
 33 34  1  0
 34 35  2  0
 35 36  1  0
 18  2  1  0
 36 28  1  0
 10  4  1  0
 17 12  1  0
 35 30  1  0
  1 37  1  0
  1 38  1  0
  1 39  1  0
  5 40  1  0
  6 41  1  0
  7 42  1  0
 10 43  1  0
 13 44  1  0
 14 45  1  0
 15 46  1  0
 16 47  1  0
 22 48  1  0
 22 49  1  0
 25 50  1  0
 31 51  1  0
 32 52  1  0
 33 53  1  0
 34 54  1  0
 36 55  1  0
M  END
$$$$
