
     RDKit          3D

 45 46  0  0  0  0  0  0  0  0999 V2000
   -1.9158    2.1724    3.2419 C   0  0  0  0  0  0  0  0  0  0  0  0
   -1.9888    0.8512    2.7042 O   0  0  0  0  0  0  0  0  0  0  0  0
   -1.5614    0.7548    1.4117 C   0  0  0  0  0  0  0  0  0  0  0  0
   -1.1645    1.6964    0.7339 O   0  0  0  0  0  0  0  0  0  0  0  0
   -1.6585   -0.6962    0.9235 C   0  0  0  0  0  0  0  0  0  0  0  0
   -3.1206   -1.1548    0.8038 C   0  0  0  0  0  0  0  0  0  0  0  0
   -3.9188   -0.4657   -0.2811 C   0  0  0  0  0  0  0  0  0  0  0  0
   -4.0042   -1.0289   -1.5628 C   0  0  0  0  0  0  0  0  0  0  0  0
   -4.7204   -0.3858   -2.5729 C   0  0  0  0  0  0  0  0  0  0  0  0
   -5.3590    0.8246   -2.3126 C   0  0  0  0  0  0  0  0  0  0  0  0
   -5.2851    1.3907   -1.0415 C   0  0  0  0  0  0  0  0  0  0  0  0
   -4.5704    0.7489   -0.0290 C   0  0  0  0  0  0  0  0  0  0  0  0
   -0.9263   -0.8354   -0.3418 N   0  0  0  0  0  0  0  0  0  0  0  0
    0.4300   -1.0802   -0.3388 C   0  0  0  0  0  0  0  0  0  0  0  0
    1.0614   -1.3577    0.6765 O   0  0  0  0  0  0  0  0  0  0  0  0
    1.0664   -0.9315   -1.7058 C   0  0  0  0  0  0  0  0  0  0  0  0
    2.4574   -1.5488   -1.7707 C   0  0  0  0  0  0  0  0  0  0  0  0
    3.3963   -0.8962   -0.8792 N   0  0  0  0  0  0  0  0  0  0  0  0
    4.7611   -0.9441   -1.1083 C   0  0  0  0  0  0  0  0  0  0  0  0
    5.2168   -1.3756   -2.1654 O   0  0  0  0  0  0  0  0  0  0  0  0
    5.5806   -0.4604   -0.0104 C   0  0  0  0  0  0  0  0  0  0  0  0
    5.2834    0.1231    1.2113 C   0  0  0  0  0  0  0  0  0  0  0  0
    6.5172    0.3816    1.8583 C   0  0  0  0  0  0  0  0  0  0  0  0
    7.4955   -0.0541    0.9991 C   0  0  0  0  0  0  0  0  0  0  0  0
    6.9435   -0.5619   -0.1303 O   0  0  0  0  0  0  0  0  0  0  0  0
   -0.8820    2.5318    3.2385 H   0  0  0  0  0  0  0  0  0  0  0  0
   -2.2664    2.1365    4.2770 H   0  0  0  0  0  0  0  0  0  0  0  0
   -2.5654    2.8504    2.6795 H   0  0  0  0  0  0  0  0  0  0  0  0
   -1.1548   -1.3173    1.6746 H   0  0  0  0  0  0  0  0  0  0  0  0
   -3.6407   -1.0202    1.7611 H   0  0  0  0  0  0  0  0  0  0  0  0
   -3.1383   -2.2362    0.6121 H   0  0  0  0  0  0  0  0  0  0  0  0
   -3.5139   -1.9752   -1.7828 H   0  0  0  0  0  0  0  0  0  0  0  0
   -4.7831   -0.8302   -3.5630 H   0  0  0  0  0  0  0  0  0  0  0  0
   -5.9174    1.3256   -3.0991 H   0  0  0  0  0  0  0  0  0  0  0  0
   -5.7859    2.3340   -0.8383 H   0  0  0  0  0  0  0  0  0  0  0  0
   -4.5304    1.2074    0.9566 H   0  0  0  0  0  0  0  0  0  0  0  0
   -1.2735   -0.2585   -1.1025 H   0  0  0  0  0  0  0  0  0  0  0  0
    0.4231   -1.4186   -2.4476 H   0  0  0  0  0  0  0  0  0  0  0  0
    1.1140    0.1384   -1.9396 H   0  0  0  0  0  0  0  0  0  0  0  0
    2.4284   -2.6070   -1.4871 H   0  0  0  0  0  0  0  0  0  0  0  0
    2.8341   -1.4901   -2.7977 H   0  0  0  0  0  0  0  0  0  0  0  0
    3.0903   -0.8102    0.0848 H   0  0  0  0  0  0  0  0  0  0  0  0
    4.2965    0.3439    1.5934 H   0  0  0  0  0  0  0  0  0  0  0  0
    6.6737    0.8318    2.8284 H   0  0  0  0  0  0  0  0  0  0  0  0
    8.5758   -0.0724    1.0382 H   0  0  0  0  0  0  0  0  0  0  0  0
  1  2  1  0
  2  3  1  0
  3  4  2  0
  3  5  1  0
  5  6  1  0
  6  7  1  0
  7  8  2  0
  8  9  1  0
  9 10  2  0
 10 11  1  0
 11 12  2  0
  5 13  1  0
 13 14  1  0
 14 15  2  0
 14 16  1  0
 16 17  1  0
 17 18  1  0
 18 19  1  0
 19 20  2  0
 19 21  1  0
 21 22  2  0
 22 23  1  0
 23 24  2  0
 24 25  1  0
 12  7  1  0
 25 21  1  0
  1 26  1  0
  1 27  1  0
  1 28  1  0
  5 29  1  0
  6 30  1  0
  6 31  1  0
  8 32  1  0
  9 33  1  0
 10 34  1  0
 11 35  1  0
 12 36  1  0
 13 37  1  0
 16 38  1  0
 16 39  1  0
 17 40  1  0
 17 41  1  0
 18 42  1  0
 22 43  1  0
 23 44  1  0
 24 45  1  0
M  END
$$$$
