
     RDKit          3D

 52 55  0  0  0  0  0  0  0  0999 V2000
    5.8383    1.0266    6.1550 N   0  0  0  0  0  0  0  0  0  0  0  0
    6.7941    1.3682    4.8099 S   0  0  0  0  0  6  0  0  0  0  0  0
    7.1478    2.7673    4.8586 O   0  0  0  0  0  0  0  0  0  0  0  0
    7.7835    0.3159    4.7558 O   0  0  0  0  0  0  0  0  0  0  0  0
    5.6397    1.1246    3.4870 C   0  0  0  0  0  0  0  0  0  0  0  0
    4.8318    2.1889    3.0792 C   0  0  0  0  0  0  0  0  0  0  0  0
    3.9222    2.0013    2.0375 C   0  0  0  0  0  0  0  0  0  0  0  0
    3.8242    0.7580    1.3955 C   0  0  0  0  0  0  0  0  0  0  0  0
    2.8273    0.5508    0.2822 C   0  0  0  0  0  0  0  0  0  0  0  0
    1.4871    0.0382    0.8064 C   0  0  0  0  0  0  0  0  0  0  0  0
    0.5288   -0.1546   -0.2664 N   0  0  0  0  0  0  0  0  0  0  0  0
   -0.5695   -0.9703   -0.0878 C   0  0  0  0  0  0  0  0  0  0  0  0
   -0.7700   -1.6525    0.9084 O   0  0  0  0  0  0  0  0  0  0  0  0
   -1.5849   -0.9170   -1.1643 C   0  0  0  0  0  0  0  0  0  0  0  0
   -2.8897   -0.6363   -0.7543 C   0  0  0  0  0  0  0  0  0  0  0  0
   -3.8762   -0.5134   -1.7164 C   0  0  0  0  0  0  0  0  0  0  0  0
   -5.2860   -0.2063   -1.3930 C   0  0  0  0  0  0  0  0  0  0  0  0
   -6.0876    0.5198   -2.2947 C   0  0  0  0  0  0  0  0  0  0  0  0
   -7.4207    0.8279   -2.0058 C   0  0  0  0  0  0  0  0  0  0  0  0
   -7.9867    0.4101   -0.8056 C   0  0  0  0  0  0  0  0  0  0  0  0
   -7.2222   -0.3179    0.1013 C   0  0  0  0  0  0  0  0  0  0  0  0
   -5.8881   -0.6241   -0.1908 C   0  0  0  0  0  0  0  0  0  0  0  0
   -3.5894   -0.6490   -3.0354 N   0  0  0  0  0  0  0  0  0  0  0  0
   -2.3418   -0.9571   -3.4271 C   0  0  0  0  0  0  0  0  0  0  0  0
   -2.1048   -1.1251   -4.7852 C   0  0  0  0  0  0  0  0  0  0  0  0
   -0.8449   -1.4670   -5.2813 C   0  0  0  0  0  0  0  0  0  0  0  0
    0.2101   -1.6560   -4.4017 C   0  0  0  0  0  0  0  0  0  0  0  0
   -0.0008   -1.4894   -3.0340 C   0  0  0  0  0  0  0  0  0  0  0  0
   -1.2744   -1.1204   -2.5265 C   0  0  0  0  0  0  0  0  0  0  0  0
    4.6482   -0.2989    1.8126 C   0  0  0  0  0  0  0  0  0  0  0  0
    5.5604   -0.1172    2.8532 C   0  0  0  0  0  0  0  0  0  0  0  0
    6.2082    0.1953    6.6195 H   0  0  0  0  0  0  0  0  0  0  0  0
    4.8489    0.9286    5.9313 H   0  0  0  0  0  0  0  0  0  0  0  0
    4.9075    3.1619    3.5626 H   0  0  0  0  0  0  0  0  0  0  0  0
    3.2952    2.8347    1.7252 H   0  0  0  0  0  0  0  0  0  0  0  0
    3.2383   -0.1531   -0.4533 H   0  0  0  0  0  0  0  0  0  0  0  0
    2.6840    1.4925   -0.2637 H   0  0  0  0  0  0  0  0  0  0  0  0
    1.0439    0.7523    1.5106 H   0  0  0  0  0  0  0  0  0  0  0  0
    1.6175   -0.9091    1.3428 H   0  0  0  0  0  0  0  0  0  0  0  0
    0.4713    0.5527   -0.9901 H   0  0  0  0  0  0  0  0  0  0  0  0
   -3.1065   -0.4934    0.2998 H   0  0  0  0  0  0  0  0  0  0  0  0
   -5.6670    0.8561   -3.2415 H   0  0  0  0  0  0  0  0  0  0  0  0
   -8.0128    1.3916   -2.7215 H   0  0  0  0  0  0  0  0  0  0  0  0
   -9.0232    0.6465   -0.5798 H   0  0  0  0  0  0  0  0  0  0  0  0
   -7.6633   -0.6532    1.0373 H   0  0  0  0  0  0  0  0  0  0  0  0
   -5.3299   -1.2124    0.5351 H   0  0  0  0  0  0  0  0  0  0  0  0
   -2.9318   -0.9945   -5.4804 H   0  0  0  0  0  0  0  0  0  0  0  0
   -0.6997   -1.5966   -6.3510 H   0  0  0  0  0  0  0  0  0  0  0  0
    1.1907   -1.9409   -4.7752 H   0  0  0  0  0  0  0  0  0  0  0  0
    0.8358   -1.6711   -2.3624 H   0  0  0  0  0  0  0  0  0  0  0  0
    4.5861   -1.2707    1.3250 H   0  0  0  0  0  0  0  0  0  0  0  0
    6.2010   -0.9424    3.1575 H   0  0  0  0  0  0  0  0  0  0  0  0
  1  2  1  0
  2  3  2  0
  2  4  2  0
  2  5  1  0
  5  6  2  0
  6  7  1  0
  7  8  2  0
  8  9  1  0
  9 10  1  0
 10 11  1  0
 11 12  1  0
 12 13  2  0
 12 14  1  0
 14 15  2  0
 15 16  1  0
 16 17  1  0
 17 18  2  0
 18 19  1  0
 19 20  2  0
 20 21  1  0
 21 22  2  0
 16 23  2  0
 23 24  1  0
 24 25  2  0
 25 26  1  0
 26 27  2  0
 27 28  1  0
 28 29  2  0
  8 30  1  0
 30 31  2  0
 31  5  1  0
 29 14  1  0
 22 17  1  0
 29 24  1  0
  1 32  1  0
  1 33  1  0
  6 34  1  0
  7 35  1  0
  9 36  1  0
  9 37  1  0
 10 38  1  0
 10 39  1  0
 11 40  1  0
 15 41  1  0
 18 42  1  0
 19 43  1  0
 20 44  1  0
 21 45  1  0
 22 46  1  0
 25 47  1  0
 26 48  1  0
 27 49  1  0
 28 50  1  0
 30 51  1  0
 31 52  1  0
M  END
$$$$
