
     RDKit          3D

 61 66  0  0  0  0  0  0  0  0999 V2000
   -2.5444    1.8231   -1.6197 O   0  0  0  0  0  0  0  0  0  0  0  0
   -2.9198    1.3039   -0.5654 C   0  0  0  0  0  0  0  0  0  0  0  0
   -2.2055    1.6261    0.7349 C   0  0  0  0  0  0  0  0  0  0  0  0
   -0.8276    1.9954    0.4930 N   0  0  0  0  0  0  0  0  0  0  0  0
   -0.4121    3.2683    0.6128 N   0  0  0  0  0  0  0  0  0  0  0  0
    0.9066    3.2024    0.5068 N   0  0  0  0  0  0  0  0  0  0  0  0
    1.2343    1.8709    0.3773 C   0  0  0  0  0  0  0  0  0  0  0  0
    2.6086    1.4041    0.2546 C   0  0  0  0  0  0  0  0  0  0  0  0
    3.6736    2.3083    0.2838 C   0  0  0  0  0  0  0  0  0  0  0  0
    4.9954    1.8555    0.1754 C   0  0  0  0  0  0  0  0  0  0  0  0
    5.3048    0.4921    0.0407 C   0  0  0  0  0  0  0  0  0  0  0  0
    6.6472    0.0972   -0.0685 N   0  0  0  0  0  0  0  0  0  0  0  0
    7.4695    0.4458    1.1173 C   0  0  0  0  0  0  0  0  0  0  0  0
    8.9576    0.2002    0.8165 C   0  0  0  0  0  0  0  0  0  0  0  0
    9.2005   -1.1499    0.3896 O   0  0  0  0  0  0  0  0  0  0  0  0
    8.4428   -1.4305   -0.7985 C   0  0  0  0  0  0  0  0  0  0  0  0
    6.9348   -1.2715   -0.5492 C   0  0  0  0  0  0  0  0  0  0  0  0
    4.2255   -0.4003   -0.0088 C   0  0  0  0  0  0  0  0  0  0  0  0
    2.8992    0.0444    0.1021 C   0  0  0  0  0  0  0  0  0  0  0  0
    0.1525    1.0706    0.4157 N   0  0  0  0  0  0  0  0  0  0  0  0
   -3.9621    0.3511   -0.4747 N   0  0  0  0  0  0  0  0  0  0  0  0
   -4.5700    0.0354    0.7762 C   0  0  0  0  0  0  0  0  0  0  0  0
   -5.1275    1.0547    1.5631 C   0  0  0  0  0  0  0  0  0  0  0  0
   -5.6706    0.7630    2.8144 C   0  0  0  0  0  0  0  0  0  0  0  0
   -5.6605   -0.5465    3.2875 C   0  0  0  0  0  0  0  0  0  0  0  0
   -5.1193   -1.5676    2.5065 C   0  0  0  0  0  0  0  0  0  0  0  0
   -4.5748   -1.2824    1.2471 C   0  0  0  0  0  0  0  0  0  0  0  0
   -4.0190   -2.3711    0.3786 C   0  0  0  0  0  0  0  0  0  0  0  0
   -4.9487   -2.5938   -0.8058 C   0  0  0  0  0  0  0  0  0  0  0  0
   -5.1701   -1.4432   -1.7698 C   0  0  0  0  0  0  0  0  0  0  0  0
   -5.9111   -1.7873   -2.9265 C   0  0  0  0  0  0  0  0  0  0  0  0
   -6.1497   -0.8702   -3.9447 C   0  0  0  0  0  0  0  0  0  0  0  0
   -5.6525    0.4161   -3.8284 C   0  0  0  0  0  0  0  0  0  0  0  0
   -4.9291    0.7809   -2.6904 C   0  0  0  0  0  0  0  0  0  0  0  0
   -4.6759   -0.1231   -1.6364 C   0  0  0  0  0  0  0  0  0  0  0  0
   -2.1747    0.7695    1.4144 H   0  0  0  0  0  0  0  0  0  0  0  0
   -2.6979    2.4717    1.2242 H   0  0  0  0  0  0  0  0  0  0  0  0
    3.4919    3.3766    0.3830 H   0  0  0  0  0  0  0  0  0  0  0  0
    5.7933    2.5944    0.1694 H   0  0  0  0  0  0  0  0  0  0  0  0
    7.3496    1.4943    1.4099 H   0  0  0  0  0  0  0  0  0  0  0  0
    7.1608   -0.1836    1.9620 H   0  0  0  0  0  0  0  0  0  0  0  0
    9.5507    0.3728    1.7200 H   0  0  0  0  0  0  0  0  0  0  0  0
    9.3200    0.8880    0.0432 H   0  0  0  0  0  0  0  0  0  0  0  0
    8.7829   -0.7688   -1.6040 H   0  0  0  0  0  0  0  0  0  0  0  0
    8.6634   -2.4605   -1.0957 H   0  0  0  0  0  0  0  0  0  0  0  0
    6.6225   -2.0029    0.2068 H   0  0  0  0  0  0  0  0  0  0  0  0
    6.4026   -1.4729   -1.4860 H   0  0  0  0  0  0  0  0  0  0  0  0
    4.3843   -1.4687   -0.1176 H   0  0  0  0  0  0  0  0  0  0  0  0
    2.0946   -0.6878    0.0667 H   0  0  0  0  0  0  0  0  0  0  0  0
   -5.1706    2.0780    1.1973 H   0  0  0  0  0  0  0  0  0  0  0  0
   -6.1094    1.5550    3.4167 H   0  0  0  0  0  0  0  0  0  0  0  0
   -6.0863   -0.7760    4.2615 H   0  0  0  0  0  0  0  0  0  0  0  0
   -5.1320   -2.5877    2.8841 H   0  0  0  0  0  0  0  0  0  0  0  0
   -3.0037   -2.1152    0.0509 H   0  0  0  0  0  0  0  0  0  0  0  0
   -3.9283   -3.3034    0.9494 H   0  0  0  0  0  0  0  0  0  0  0  0
   -5.9336   -2.9083   -0.4329 H   0  0  0  0  0  0  0  0  0  0  0  0
   -4.5406   -3.4365   -1.3800 H   0  0  0  0  0  0  0  0  0  0  0  0
   -6.2986   -2.7990   -3.0412 H   0  0  0  0  0  0  0  0  0  0  0  0
   -6.7157   -1.1623   -4.8247 H   0  0  0  0  0  0  0  0  0  0  0  0
   -5.8292    1.1458   -4.6140 H   0  0  0  0  0  0  0  0  0  0  0  0
   -4.5988    1.8156   -2.6334 H   0  0  0  0  0  0  0  0  0  0  0  0
  1  2  2  0
  2  3  1  0
  3  4  1  0
  4  5  1  0
  5  6  2  0
  6  7  1  0
  7  8  1  0
  8  9  2  0
  9 10  1  0
 10 11  2  0
 11 12  1  0
 12 13  1  0
 13 14  1  0
 14 15  1  0
 15 16  1  0
 16 17  1  0
 11 18  1  0
 18 19  2  0
  7 20  2  0
  2 21  1  0
 21 22  1  0
 22 23  2  0
 23 24  1  0
 24 25  2  0
 25 26  1  0
 26 27  2  0
 27 28  1  0
 28 29  1  0
 29 30  1  0
 30 31  2  0
 31 32  1  0
 32 33  2  0
 33 34  1  0
 34 35  2  0
 20  4  1  0
 35 21  1  0
 19  8  1  0
 27 22  1  0
 35 30  1  0
 17 12  1  0
  3 36  1  0
  3 37  1  0
  9 38  1  0
 10 39  1  0
 13 40  1  0
 13 41  1  0
 14 42  1  0
 14 43  1  0
 16 44  1  0
 16 45  1  0
 17 46  1  0
 17 47  1  0
 18 48  1  0
 19 49  1  0
 23 50  1  0
 24 51  1  0
 25 52  1  0
 26 53  1  0
 28 54  1  0
 28 55  1  0
 29 56  1  0
 29 57  1  0
 31 58  1  0
 32 59  1  0
 33 60  1  0
 34 61  1  0
M  END
$$$$
