
     RDKit          3D

 42 45  0  0  0  0  0  0  0  0999 V2000
    1.7980   -1.6009   -0.4913 O   0  0  0  0  0  0  0  0  0  0  0  0
    0.8132   -1.0872    0.0223 C   0  0  0  0  0  0  0  0  0  0  0  0
   -0.1757   -1.8657    0.5453 N   0  0  0  0  0  0  0  0  0  0  0  0
   -1.4909   -1.5224    0.6196 C   0  0  0  0  0  0  0  0  0  0  0  0
   -2.3364   -2.4111    0.7056 O   0  0  0  0  0  0  0  0  0  0  0  0
   -1.7910   -0.1769    0.5482 N   0  0  0  0  0  0  0  0  0  0  0  0
   -3.1876    0.2250    0.7167 C   0  0  0  0  0  0  0  0  0  0  0  0
   -3.8977    0.6046   -0.5973 C   0  0  0  0  0  0  0  0  0  0  0  0
   -4.0189   -0.5261   -1.6104 C   0  0  0  0  0  0  0  0  0  0  0  0
   -5.3185   -1.1827   -1.2204 C   0  0  0  0  0  0  0  0  0  0  0  0
   -6.1554    0.0084   -0.8122 C   0  0  0  0  0  0  0  0  0  0  0  0
   -5.2535    0.9869   -0.2747 O   0  0  0  0  0  0  0  0  0  0  0  0
   -0.8584    0.8222    0.3097 C   0  0  0  0  0  0  0  0  0  0  0  0
   -1.1542    2.0155    0.2781 O   0  0  0  0  0  0  0  0  0  0  0  0
    0.5363    0.3626    0.0750 C   0  0  0  0  0  0  0  0  0  0  0  0
    1.4786    1.3126   -0.0876 C   0  0  0  0  0  0  0  0  0  0  0  0
    2.8814    1.1300   -0.2530 C   0  0  0  0  0  0  0  0  0  0  0  0
    3.5699    1.5004   -1.3853 C   0  0  0  0  0  0  0  0  0  0  0  0
    4.8894    1.1869   -1.1881 N   0  0  0  0  0  0  0  0  0  0  0  0
    5.0749    0.6637    0.0723 C   0  0  0  0  0  0  0  0  0  0  0  0
    6.2475    0.2329    0.7049 C   0  0  0  0  0  0  0  0  0  0  0  0
    6.1386   -0.2532    2.0109 C   0  0  0  0  0  0  0  0  0  0  0  0
    4.9061   -0.3043    2.6572 C   0  0  0  0  0  0  0  0  0  0  0  0
    3.7427    0.1285    2.0102 C   0  0  0  0  0  0  0  0  0  0  0  0
    3.8227    0.6179    0.6892 C   0  0  0  0  0  0  0  0  0  0  0  0
   -0.0087   -2.8602    0.4720 H   0  0  0  0  0  0  0  0  0  0  0  0
   -3.2175    1.0915    1.3908 H   0  0  0  0  0  0  0  0  0  0  0  0
   -3.7516   -0.5583    1.2374 H   0  0  0  0  0  0  0  0  0  0  0  0
   -3.4008    1.4680   -1.0523 H   0  0  0  0  0  0  0  0  0  0  0  0
   -3.1706   -1.2126   -1.6374 H   0  0  0  0  0  0  0  0  0  0  0  0
   -4.1248   -0.0992   -2.6160 H   0  0  0  0  0  0  0  0  0  0  0  0
   -5.7741   -1.7663   -2.0246 H   0  0  0  0  0  0  0  0  0  0  0  0
   -5.1621   -1.8466   -0.3626 H   0  0  0  0  0  0  0  0  0  0  0  0
   -6.6558    0.4565   -1.6772 H   0  0  0  0  0  0  0  0  0  0  0  0
   -6.9118   -0.2453   -0.0644 H   0  0  0  0  0  0  0  0  0  0  0  0
    1.1704    2.3583   -0.0817 H   0  0  0  0  0  0  0  0  0  0  0  0
    3.2419    1.9395   -2.3179 H   0  0  0  0  0  0  0  0  0  0  0  0
    5.6289    1.3293   -1.8614 H   0  0  0  0  0  0  0  0  0  0  0  0
    7.2097    0.2726    0.2054 H   0  0  0  0  0  0  0  0  0  0  0  0
    7.0312   -0.5960    2.5293 H   0  0  0  0  0  0  0  0  0  0  0  0
    4.8451   -0.6845    3.6738 H   0  0  0  0  0  0  0  0  0  0  0  0
    2.7892    0.0857    2.5263 H   0  0  0  0  0  0  0  0  0  0  0  0
  1  2  2  0
  2  3  1  0
  3  4  1  0
  4  5  2  0
  4  6  1  0
  6  7  1  0
  7  8  1  0
  8  9  1  0
  9 10  1  0
 10 11  1  0
 11 12  1  0
  6 13  1  0
 13 14  2  0
 13 15  1  0
 15 16  2  3
 16 17  1  0
 17 18  2  0
 18 19  1  0
 19 20  1  0
 20 21  2  0
 21 22  1  0
 22 23  2  0
 23 24  1  0
 24 25  2  0
 15  2  1  0
 25 17  1  0
 12  8  1  0
 25 20  1  0
  3 26  1  0
  7 27  1  0
  7 28  1  0
  8 29  1  0
  9 30  1  0
  9 31  1  0
 10 32  1  0
 10 33  1  0
 11 34  1  0
 11 35  1  0
 16 36  1  0
 18 37  1  0
 19 38  1  0
 21 39  1  0
 22 40  1  0
 23 41  1  0
 24 42  1  0
M  END
$$$$
