
     RDKit          3D

 47 50  0  0  0  0  0  0  0  0999 V2000
   -0.7463    6.0028   -5.5365 C   0  0  0  0  0  0  0  0  0  0  0  0
    0.1309    5.1843   -4.6338 C   0  0  0  0  0  0  0  0  0  0  0  0
    1.5231    5.2873   -4.7235 C   0  0  0  0  0  0  0  0  0  0  0  0
    2.3671    4.5598   -3.8775 C   0  0  0  0  0  0  0  0  0  0  0  0
    1.7708    3.7290   -2.9238 C   0  0  0  0  0  0  0  0  0  0  0  0
    2.3487    2.9091   -1.9761 N   0  0  0  0  0  0  0  0  0  0  0  0
    1.3723    2.2896   -1.2520 C   0  0  0  0  0  0  0  0  0  0  0  0
    1.5229    1.3621   -0.1706 C   0  0  0  0  0  0  0  0  0  0  0  0
    2.6184    1.0231    0.2676 O   0  0  0  0  0  0  0  0  0  0  0  0
    0.2889    0.9160    0.3384 N   0  0  0  0  0  0  0  0  0  0  0  0
    0.2924   -0.0871    1.3872 C   0  0  0  0  0  0  0  0  0  0  0  0
    0.4106   -1.4999    0.8089 C   0  0  0  0  0  0  0  0  0  0  0  0
    0.6476   -1.7525   -0.3693 O   0  0  0  0  0  0  0  0  0  0  0  0
    0.2571   -2.4927    1.7667 N   0  0  0  0  0  0  0  0  0  0  0  0
    0.2018   -3.8899    1.3721 C   0  0  0  0  0  0  0  0  0  0  0  0
    0.4852   -4.8433    2.5361 C   0  0  0  0  0  0  0  0  0  0  0  0
   -0.5272   -4.7430    3.6552 C   0  0  0  0  0  0  0  0  0  0  0  0
   -0.1711   -4.1693    4.8845 C   0  0  0  0  0  0  0  0  0  0  0  0
   -1.1086   -4.0643    5.9144 C   0  0  0  0  0  0  0  0  0  0  0  0
   -2.4057   -4.5335    5.7206 C   0  0  0  0  0  0  0  0  0  0  0  0
   -3.5607   -4.4019    6.9889 Cl  0  0  0  0  0  0  0  0  0  0  0  0
   -2.7732   -5.1081    4.5062 C   0  0  0  0  0  0  0  0  0  0  0  0
   -1.8361   -5.2137    3.4760 C   0  0  0  0  0  0  0  0  0  0  0  0
   -0.9726    1.3239   -0.1379 N   0  0  0  0  0  0  0  0  0  0  0  0
   -1.0377    2.1684   -1.1280 C   0  0  0  0  0  0  0  0  0  0  0  0
    0.1531    2.6955   -1.7325 C   0  0  0  0  0  0  0  0  0  0  0  0
    0.3824    3.6093   -2.7925 C   0  0  0  0  0  0  0  0  0  0  0  0
   -0.4455    4.3534   -3.6577 C   0  0  0  0  0  0  0  0  0  0  0  0
   -0.2643    6.1670   -6.5059 H   0  0  0  0  0  0  0  0  0  0  0  0
   -1.6948    5.4906   -5.7289 H   0  0  0  0  0  0  0  0  0  0  0  0
   -0.9548    6.9731   -5.0754 H   0  0  0  0  0  0  0  0  0  0  0  0
    1.9715    5.9441   -5.4671 H   0  0  0  0  0  0  0  0  0  0  0  0
    3.4458    4.6441   -3.9632 H   0  0  0  0  0  0  0  0  0  0  0  0
    3.3421    2.7795   -1.8341 H   0  0  0  0  0  0  0  0  0  0  0  0
   -0.6376   -0.0034    1.9602 H   0  0  0  0  0  0  0  0  0  0  0  0
    1.1393    0.0827    2.0606 H   0  0  0  0  0  0  0  0  0  0  0  0
   -0.2223   -2.2391    2.6225 H   0  0  0  0  0  0  0  0  0  0  0  0
    0.9365   -4.0613    0.5772 H   0  0  0  0  0  0  0  0  0  0  0  0
   -0.7914   -4.0666    0.9439 H   0  0  0  0  0  0  0  0  0  0  0  0
    0.4944   -5.8768    2.1679 H   0  0  0  0  0  0  0  0  0  0  0  0
    1.4914   -4.6499    2.9291 H   0  0  0  0  0  0  0  0  0  0  0  0
    0.8404   -3.8030    5.0504 H   0  0  0  0  0  0  0  0  0  0  0  0
   -0.8202   -3.6204    6.8636 H   0  0  0  0  0  0  0  0  0  0  0  0
   -3.7843   -5.4771    4.3555 H   0  0  0  0  0  0  0  0  0  0  0  0
   -2.1348   -5.6688    2.5336 H   0  0  0  0  0  0  0  0  0  0  0  0
   -2.0193    2.4894   -1.5101 H   0  0  0  0  0  0  0  0  0  0  0  0
   -1.5262    4.2816   -3.5709 H   0  0  0  0  0  0  0  0  0  0  0  0
  1  2  1  0
  2  3  2  0
  3  4  1  0
  4  5  2  0
  5  6  1  0
  6  7  1  0
  7  8  1  0
  8  9  2  0
  8 10  1  0
 10 11  1  0
 11 12  1  0
 12 13  2  0
 12 14  1  0
 14 15  1  0
 15 16  1  0
 16 17  1  0
 17 18  2  0
 18 19  1  0
 19 20  2  0
 20 21  1  0
 20 22  1  0
 22 23  2  0
 10 24  1  0
 24 25  2  0
 25 26  1  0
 26 27  1  0
 27 28  2  0
 28  2  1  0
 27  5  1  0
 26  7  2  0
 23 17  1  0
  1 29  1  0
  1 30  1  0
  1 31  1  0
  3 32  1  0
  4 33  1  0
  6 34  1  0
 11 35  1  0
 11 36  1  0
 14 37  1  0
 15 38  1  0
 15 39  1  0
 16 40  1  0
 16 41  1  0
 18 42  1  0
 19 43  1  0
 22 44  1  0
 23 45  1  0
 25 46  1  0
 28 47  1  0
M  END
$$$$
