
     RDKit          3D

 43 45  0  0  0  0  0  0  0  0999 V2000
    6.2804   -2.4622   -1.9871 C   0  0  0  0  0  0  0  0  0  0  0  0
    4.9249   -2.2185   -1.6368 O   0  0  0  0  0  0  0  0  0  0  0  0
    4.6588   -1.0739   -0.9336 C   0  0  0  0  0  0  0  0  0  0  0  0
    5.5968   -0.1199   -0.5440 C   0  0  0  0  0  0  0  0  0  0  0  0
    5.2147    1.0199    0.1752 C   0  0  0  0  0  0  0  0  0  0  0  0
    3.8599    1.1711    0.4901 C   0  0  0  0  0  0  0  0  0  0  0  0
    3.2195    2.1740    1.1753 N   0  0  0  0  0  0  0  0  0  0  0  0
    1.8766    1.9143    1.2499 C   0  0  0  0  0  0  0  0  0  0  0  0
    1.6215    0.7151    0.6034 C   0  0  0  0  0  0  0  0  0  0  0  0
    0.3070    0.0668    0.4519 C   0  0  0  0  0  0  0  0  0  0  0  0
    0.2131   -1.0270   -0.1036 O   0  0  0  0  0  0  0  0  0  0  0  0
   -0.9105    0.8246    1.0231 C   0  0  0  0  0  0  0  0  0  0  0  0
   -2.2128    0.1673    0.7647 N   0  0  0  0  0  0  0  0  0  0  0  0
   -3.2857    0.8037    1.5275 C   0  0  0  0  0  0  0  0  0  0  0  0
   -4.5733   -0.0275    1.4579 C   0  0  0  0  0  0  0  0  0  0  0  0
   -4.8081   -0.6701    0.0801 C   0  0  0  0  0  0  0  0  0  0  0  0
   -6.2956   -0.7436   -0.2522 C   0  0  0  0  0  0  0  0  0  0  0  0
   -4.0285    0.0880   -0.9938 C   0  0  0  0  0  0  0  0  0  0  0  0
   -2.5250    0.1056   -0.6756 C   0  0  0  0  0  0  0  0  0  0  0  0
    2.8892    0.2405    0.1192 C   0  0  0  0  0  0  0  0  0  0  0  0
    3.3075   -0.8976   -0.6048 C   0  0  0  0  0  0  0  0  0  0  0  0
    6.3197   -3.4099   -2.5327 H   0  0  0  0  0  0  0  0  0  0  0  0
    6.9068   -2.5659   -1.0949 H   0  0  0  0  0  0  0  0  0  0  0  0
    6.6632   -1.6802   -2.6511 H   0  0  0  0  0  0  0  0  0  0  0  0
    6.6493   -0.2299   -0.7849 H   0  0  0  0  0  0  0  0  0  0  0  0
    5.9530    1.7569    0.4747 H   0  0  0  0  0  0  0  0  0  0  0  0
    3.6815    2.9838    1.5664 H   0  0  0  0  0  0  0  0  0  0  0  0
    1.2246    2.6092    1.7623 H   0  0  0  0  0  0  0  0  0  0  0  0
   -0.9190    1.8447    0.6200 H   0  0  0  0  0  0  0  0  0  0  0  0
   -0.7512    0.8780    2.1075 H   0  0  0  0  0  0  0  0  0  0  0  0
   -3.4724    1.8212    1.1589 H   0  0  0  0  0  0  0  0  0  0  0  0
   -3.0083    0.8990    2.5847 H   0  0  0  0  0  0  0  0  0  0  0  0
   -5.4142    0.6193    1.7375 H   0  0  0  0  0  0  0  0  0  0  0  0
   -4.5374   -0.8261    2.2103 H   0  0  0  0  0  0  0  0  0  0  0  0
   -4.4255   -1.6995    0.1136 H   0  0  0  0  0  0  0  0  0  0  0  0
   -6.8374   -1.3028    0.5177 H   0  0  0  0  0  0  0  0  0  0  0  0
   -6.4542   -1.2502   -1.2100 H   0  0  0  0  0  0  0  0  0  0  0  0
   -6.7382    0.2558   -0.3219 H   0  0  0  0  0  0  0  0  0  0  0  0
   -4.1852   -0.3683   -1.9785 H   0  0  0  0  0  0  0  0  0  0  0  0
   -4.4006    1.1190   -1.0609 H   0  0  0  0  0  0  0  0  0  0  0  0
   -2.0823    0.9495   -1.2202 H   0  0  0  0  0  0  0  0  0  0  0  0
   -2.0820   -0.8085   -1.0865 H   0  0  0  0  0  0  0  0  0  0  0  0
    2.5790   -1.6456   -0.9100 H   0  0  0  0  0  0  0  0  0  0  0  0
  1  2  1  0
  2  3  1  0
  3  4  2  0
  4  5  1  0
  5  6  2  0
  6  7  1  0
  7  8  1  0
  8  9  2  0
  9 10  1  0
 10 11  2  0
 10 12  1  0
 12 13  1  0
 13 14  1  0
 14 15  1  0
 15 16  1  0
 16 17  1  0
 16 18  1  0
 18 19  1  0
  9 20  1  0
 20 21  2  0
 21  3  1  0
 20  6  1  0
 19 13  1  0
  1 22  1  0
  1 23  1  0
  1 24  1  0
  4 25  1  0
  5 26  1  0
  7 27  1  0
  8 28  1  0
 12 29  1  0
 12 30  1  0
 14 31  1  0
 14 32  1  0
 15 33  1  0
 15 34  1  0
 16 35  1  0
 17 36  1  0
 17 37  1  0
 17 38  1  0
 18 39  1  0
 18 40  1  0
 19 41  1  0
 19 42  1  0
 21 43  1  0
M  END
$$$$
