
     RDKit          3D

 49 52  0  0  0  0  0  0  0  0999 V2000
   -1.4647    5.4514   -1.1197 C   0  0  0  0  0  0  0  0  0  0  0  0
   -1.2207    4.1070   -0.5011 C   0  0  0  0  0  0  0  0  0  0  0  0
   -1.0816    2.9719   -1.3057 C   0  0  0  0  0  0  0  0  0  0  0  0
   -0.8844    1.7144   -0.7301 C   0  0  0  0  0  0  0  0  0  0  0  0
   -0.8255    1.5633    0.6637 C   0  0  0  0  0  0  0  0  0  0  0  0
   -0.6390    0.2042    1.3217 C   0  0  0  0  0  0  0  0  0  0  0  0
   -1.9627   -0.5600    1.3857 C   0  0  0  0  0  0  0  0  0  0  0  0
   -1.6819   -1.6734    0.4148 C   0  0  0  0  0  0  0  0  0  0  0  0
   -2.7337   -2.6319    0.0010 C   0  0  0  0  0  0  0  0  0  0  0  0
   -4.0269   -2.5749    0.5331 C   0  0  0  0  0  0  0  0  0  0  0  0
   -4.9945   -3.4948    0.1199 C   0  0  0  0  0  0  0  0  0  0  0  0
   -4.6755   -4.4724   -0.8218 C   0  0  0  0  0  0  0  0  0  0  0  0
   -3.3887   -4.5345   -1.3533 C   0  0  0  0  0  0  0  0  0  0  0  0
   -2.4194   -3.6173   -0.9433 C   0  0  0  0  0  0  0  0  0  0  0  0
   -0.4538   -1.7440   -0.0017 N   0  0  0  0  0  0  0  0  0  0  0  0
    0.2251   -0.6988    0.5571 N   0  0  0  0  0  0  0  0  0  0  0  0
    1.6139   -0.6218    0.4674 C   0  0  0  0  0  0  0  0  0  0  0  0
    2.3428   -1.6003   -0.2358 C   0  0  0  0  0  0  0  0  0  0  0  0
    3.7355   -1.5488   -0.3520 C   0  0  0  0  0  0  0  0  0  0  0  0
    4.4291   -0.4935    0.2343 C   0  0  0  0  0  0  0  0  0  0  0  0
    6.1905   -0.4143    0.0748 S   0  0  0  0  0  6  0  0  0  0  0  0
    6.3564    0.2971   -1.4440 N   0  0  0  0  0  0  0  0  0  0  0  0
    6.7075   -1.7593   -0.0030 O   0  0  0  0  0  0  0  0  0  0  0  0
    6.6967    0.5605    1.0143 O   0  0  0  0  0  0  0  0  0  0  0  0
    3.7466    0.4875    0.9500 C   0  0  0  0  0  0  0  0  0  0  0  0
    2.3520    0.4181    1.0585 C   0  0  0  0  0  0  0  0  0  0  0  0
   -0.9891    2.7036    1.4662 C   0  0  0  0  0  0  0  0  0  0  0  0
   -1.1866    3.9610    0.8894 C   0  0  0  0  0  0  0  0  0  0  0  0
   -0.9785    5.5253   -2.0981 H   0  0  0  0  0  0  0  0  0  0  0  0
   -2.5393    5.6160   -1.2451 H   0  0  0  0  0  0  0  0  0  0  0  0
   -1.0548    6.2501   -0.4926 H   0  0  0  0  0  0  0  0  0  0  0  0
   -1.1235    3.0566   -2.3894 H   0  0  0  0  0  0  0  0  0  0  0  0
   -0.7711    0.8482   -1.3808 H   0  0  0  0  0  0  0  0  0  0  0  0
   -0.2479    0.3330    2.3392 H   0  0  0  0  0  0  0  0  0  0  0  0
   -2.1188   -0.9912    2.3804 H   0  0  0  0  0  0  0  0  0  0  0  0
   -2.8358    0.0298    1.0932 H   0  0  0  0  0  0  0  0  0  0  0  0
   -4.3062   -1.8289    1.2706 H   0  0  0  0  0  0  0  0  0  0  0  0
   -5.9990   -3.4502    0.5340 H   0  0  0  0  0  0  0  0  0  0  0  0
   -5.4298   -5.1875   -1.1411 H   0  0  0  0  0  0  0  0  0  0  0  0
   -3.1374   -5.2969   -2.0865 H   0  0  0  0  0  0  0  0  0  0  0  0
   -1.4181   -3.6770   -1.3652 H   0  0  0  0  0  0  0  0  0  0  0  0
    1.8130   -2.4292   -0.7025 H   0  0  0  0  0  0  0  0  0  0  0  0
    4.2597   -2.3320   -0.8954 H   0  0  0  0  0  0  0  0  0  0  0  0
    6.7905    1.2144   -1.3306 H   0  0  0  0  0  0  0  0  0  0  0  0
    5.4758    0.3536   -1.9552 H   0  0  0  0  0  0  0  0  0  0  0  0
    4.2800    1.3081    1.4246 H   0  0  0  0  0  0  0  0  0  0  0  0
    1.8532    1.2064    1.6150 H   0  0  0  0  0  0  0  0  0  0  0  0
   -0.9656    2.6233    2.5510 H   0  0  0  0  0  0  0  0  0  0  0  0
   -1.3139    4.8281    1.5340 H   0  0  0  0  0  0  0  0  0  0  0  0
  1  2  1  0
  2  3  2  0
  3  4  1  0
  4  5  2  0
  5  6  1  0
  6  7  1  0
  7  8  1  0
  8  9  1  0
  9 10  2  0
 10 11  1  0
 11 12  2  0
 12 13  1  0
 13 14  2  0
  8 15  2  0
 15 16  1  0
 16 17  1  0
 17 18  2  0
 18 19  1  0
 19 20  2  0
 20 21  1  0
 21 22  1  0
 21 23  2  0
 21 24  2  0
 20 25  1  0
 25 26  2  0
  5 27  1  0
 27 28  2  0
 28  2  1  0
 16  6  1  0
 26 17  1  0
 14  9  1  0
  1 29  1  0
  1 30  1  0
  1 31  1  0
  3 32  1  0
  4 33  1  0
  6 34  1  0
  7 35  1  0
  7 36  1  0
 10 37  1  0
 11 38  1  0
 12 39  1  0
 13 40  1  0
 14 41  1  0
 18 42  1  0
 19 43  1  0
 22 44  1  0
 22 45  1  0
 25 46  1  0
 26 47  1  0
 27 48  1  0
 28 49  1  0
M  END
$$$$
