
     RDKit          3D

 42 45  0  0  0  0  0  0  0  0999 V2000
    5.4340   -3.6879    0.0551 O   0  0  0  0  0  0  0  0  0  0  0  0
    5.8648   -2.7205    0.6575 C   0  0  0  0  0  0  0  0  0  0  0  0
    5.9460   -2.7209    2.0008 O   0  0  0  0  0  0  0  0  0  0  0  0
    6.3238   -1.4262    0.0508 C   0  0  0  0  0  0  0  0  0  0  0  0
    5.1890   -0.4158   -0.0647 C   0  0  0  0  0  0  0  0  0  0  0  0
    4.7697    0.1570    1.2945 C   0  0  0  0  0  0  0  0  0  0  0  0
    3.7736    1.2214    1.1447 N   0  0  0  0  0  0  0  0  0  0  0  0
    2.4343    0.8664    1.0643 C   0  0  0  0  0  0  0  0  0  0  0  0
    2.0222   -0.2836    1.1023 O   0  0  0  0  0  0  0  0  0  0  0  0
    1.5778    2.0769    0.8969 C   0  0  0  0  0  0  0  0  0  0  0  0
    0.2463    2.1910    0.7960 C   0  0  0  0  0  0  0  0  0  0  0  0
   -0.7130    1.1466    0.8706 C   0  0  0  0  0  0  0  0  0  0  0  0
   -0.8011    0.0140    1.6651 C   0  0  0  0  0  0  0  0  0  0  0  0
   -2.0012   -0.6608    1.3337 C   0  0  0  0  0  0  0  0  0  0  0  0
   -2.6370    0.0900    0.3619 C   0  0  0  0  0  0  0  0  0  0  0  0
   -3.8876   -0.1363   -0.3174 C   0  0  0  0  0  0  0  0  0  0  0  0
   -4.3619    0.7136   -1.2035 N   0  0  0  0  0  0  0  0  0  0  0  0
   -5.5695    0.2584   -1.7026 C   0  0  0  0  0  0  0  0  0  0  0  0
   -6.3623    0.9092   -2.6694 C   0  0  0  0  0  0  0  0  0  0  0  0
   -7.5672    0.3326   -3.0846 C   0  0  0  0  0  0  0  0  0  0  0  0
   -7.9888   -0.8803   -2.5490 C   0  0  0  0  0  0  0  0  0  0  0  0
   -7.2206   -1.5459   -1.5885 C   0  0  0  0  0  0  0  0  0  0  0  0
   -6.0124   -0.9571   -1.1793 C   0  0  0  0  0  0  0  0  0  0  0  0
   -4.8616   -1.5218   -0.0318 S   0  0  0  0  0  0  0  0  0  0  0  0
   -1.8563    1.1884    0.1065 O   0  0  0  0  0  0  0  0  0  0  0  0
    2.5953    3.4775    0.7906 S   0  0  0  0  0  0  0  0  0  0  0  0
    4.0750    2.5570    0.9933 C   0  0  0  0  0  0  0  0  0  0  0  0
    5.5767    3.2836    0.9895 S   0  0  0  0  0  0  0  0  0  0  0  0
    5.6100   -3.6071    2.2562 H   0  0  0  0  0  0  0  0  0  0  0  0
    6.7190   -1.6581   -0.9453 H   0  0  0  0  0  0  0  0  0  0  0  0
    7.1655   -1.0273    0.6283 H   0  0  0  0  0  0  0  0  0  0  0  0
    4.3220   -0.8765   -0.5542 H   0  0  0  0  0  0  0  0  0  0  0  0
    5.5172    0.4005   -0.7193 H   0  0  0  0  0  0  0  0  0  0  0  0
    5.6427    0.5424    1.8306 H   0  0  0  0  0  0  0  0  0  0  0  0
    4.3357   -0.6331    1.9173 H   0  0  0  0  0  0  0  0  0  0  0  0
   -0.1818    3.1724    0.5994 H   0  0  0  0  0  0  0  0  0  0  0  0
   -0.0791   -0.3002    2.4065 H   0  0  0  0  0  0  0  0  0  0  0  0
   -2.3568   -1.5860    1.7654 H   0  0  0  0  0  0  0  0  0  0  0  0
   -6.0283    1.8552   -3.0842 H   0  0  0  0  0  0  0  0  0  0  0  0
   -8.1752    0.8383   -3.8310 H   0  0  0  0  0  0  0  0  0  0  0  0
   -8.9281   -1.3181   -2.8810 H   0  0  0  0  0  0  0  0  0  0  0  0
   -7.5509   -2.4925   -1.1718 H   0  0  0  0  0  0  0  0  0  0  0  0
  1  2  2  0
  2  3  1  0
  2  4  1  0
  4  5  1  0
  5  6  1  0
  6  7  1  0
  7  8  1  0
  8  9  2  0
  8 10  1  0
 10 11  2  3
 11 12  1  0
 12 13  2  0
 13 14  1  0
 14 15  2  0
 15 16  1  0
 16 17  2  0
 17 18  1  0
 18 19  2  0
 19 20  1  0
 20 21  2  0
 21 22  1  0
 22 23  2  0
 23 24  1  0
 15 25  1  0
 10 26  1  0
 26 27  1  0
 27 28  2  0
 27  7  1  0
 25 12  1  0
 24 16  1  0
 23 18  1  0
  3 29  1  0
  4 30  1  0
  4 31  1  0
  5 32  1  0
  5 33  1  0
  6 34  1  0
  6 35  1  0
 11 36  1  0
 13 37  1  0
 14 38  1  0
 19 39  1  0
 20 40  1  0
 21 41  1  0
 22 42  1  0
M  END
$$$$
