
     RDKit          3D

 67 71  0  0  0  0  0  0  0  0999 V2000
    7.8714    1.7225   -2.3184 O   0  0  0  0  0  0  0  0  0  0  0  0
    8.3047    0.9234   -1.5061 C   0  0  0  0  0  0  0  0  0  0  0  0
    9.2182    1.2502   -0.3491 C   0  0  0  0  0  0  0  0  0  0  0  0
    9.7186   -0.1207    0.0932 C   0  0  0  0  0  0  0  0  0  0  0  0
    8.5855   -1.0586   -0.2773 C   0  0  0  0  0  0  0  0  0  0  0  0
    8.0037   -0.4304   -1.4368 N   0  0  0  0  0  0  0  0  0  0  0  0
    7.0603   -1.0992   -2.3154 C   0  0  0  0  0  0  0  0  0  0  0  0
    5.6002   -0.7031   -2.0936 C   0  0  0  0  0  0  0  0  0  0  0  0
    5.0891   -1.0651   -0.7036 C   0  0  0  0  0  0  0  0  0  0  0  0
    3.6548   -0.8490   -0.6302 N   0  0  0  0  0  0  0  0  0  0  0  0
    2.9065   -1.0274    0.5080 C   0  0  0  0  0  0  0  0  0  0  0  0
    3.2490   -2.0802    1.5191 C   0  0  0  0  0  0  0  0  0  0  0  0
    2.5070   -2.1729    2.6283 C   0  0  0  0  0  0  0  0  0  0  0  0
    1.4234   -1.2926    2.7972 C   0  0  0  0  0  0  0  0  0  0  0  0
    0.5566   -1.1237    3.7711 N   0  0  0  0  0  0  0  0  0  0  0  0
   -0.3029   -0.1179    3.3928 N   0  0  0  0  0  0  0  0  0  0  0  0
    0.0517    0.2939    2.1883 C   0  0  0  0  0  0  0  0  0  0  0  0
   -0.6060    1.3501    1.3701 C   0  0  0  0  0  0  0  0  0  0  0  0
   -2.1269    1.3326    1.5277 C   0  0  0  0  0  0  0  0  0  0  0  0
   -2.7691    0.1354    0.8454 C   0  0  0  0  0  0  0  0  0  0  0  0
   -2.1528   -0.5361    0.0174 O   0  0  0  0  0  0  0  0  0  0  0  0
   -4.0855   -0.1439    1.1815 N   0  0  0  0  0  0  0  0  0  0  0  0
   -4.7614   -1.2673    0.5248 C   0  0  0  0  0  0  0  0  0  0  0  0
   -5.7244   -0.7598   -0.5656 C   0  0  0  0  0  0  0  0  0  0  0  0
   -6.6839    0.2165    0.0123 N   0  0  0  0  0  0  0  0  0  0  0  0
   -7.7721    0.6136   -0.7833 C   0  0  0  0  0  0  0  0  0  0  0  0
   -8.8814    1.2302   -0.1777 C   0  0  0  0  0  0  0  0  0  0  0  0
   -9.9966    1.6350   -0.9186 C   0  0  0  0  0  0  0  0  0  0  0  0
  -10.0303    1.4233   -2.2927 C   0  0  0  0  0  0  0  0  0  0  0  0
   -8.9512    0.8079   -2.9173 C   0  0  0  0  0  0  0  0  0  0  0  0
   -7.8385    0.4037   -2.1684 C   0  0  0  0  0  0  0  0  0  0  0  0
   -6.0180    1.3450    0.7175 C   0  0  0  0  0  0  0  0  0  0  0  0
   -5.0227    0.8169    1.7760 C   0  0  0  0  0  0  0  0  0  0  0  0
    1.1665   -0.4006    1.7790 N   0  0  0  0  0  0  0  0  0  0  0  0
    1.8872   -0.2174    0.6322 N   0  0  0  0  0  0  0  0  0  0  0  0
   10.0404    1.8961   -0.6669 H   0  0  0  0  0  0  0  0  0  0  0  0
    8.6333    1.7368    0.4376 H   0  0  0  0  0  0  0  0  0  0  0  0
   10.6181   -0.3818   -0.4784 H   0  0  0  0  0  0  0  0  0  0  0  0
    9.9739   -0.1617    1.1565 H   0  0  0  0  0  0  0  0  0  0  0  0
    7.8317   -1.1122    0.5132 H   0  0  0  0  0  0  0  0  0  0  0  0
    8.9441   -2.0625   -0.5199 H   0  0  0  0  0  0  0  0  0  0  0  0
    7.1937   -2.1817   -2.2161 H   0  0  0  0  0  0  0  0  0  0  0  0
    7.3344   -0.8271   -3.3417 H   0  0  0  0  0  0  0  0  0  0  0  0
    5.4673    0.3718   -2.2627 H   0  0  0  0  0  0  0  0  0  0  0  0
    4.9884   -1.2114   -2.8496 H   0  0  0  0  0  0  0  0  0  0  0  0
    5.5835   -0.4469    0.0526 H   0  0  0  0  0  0  0  0  0  0  0  0
    5.3185   -2.1144   -0.4937 H   0  0  0  0  0  0  0  0  0  0  0  0
    3.3356   -0.0210   -1.1315 H   0  0  0  0  0  0  0  0  0  0  0  0
    4.0748   -2.7492    1.3265 H   0  0  0  0  0  0  0  0  0  0  0  0
    2.7049   -2.9156    3.3913 H   0  0  0  0  0  0  0  0  0  0  0  0
   -0.3347    1.2555    0.3123 H   0  0  0  0  0  0  0  0  0  0  0  0
   -0.2284    2.3228    1.7085 H   0  0  0  0  0  0  0  0  0  0  0  0
   -2.3911    1.3372    2.5909 H   0  0  0  0  0  0  0  0  0  0  0  0
   -2.5392    2.2344    1.0608 H   0  0  0  0  0  0  0  0  0  0  0  0
   -5.3210   -1.8062    1.2998 H   0  0  0  0  0  0  0  0  0  0  0  0
   -4.0389   -1.9670    0.0925 H   0  0  0  0  0  0  0  0  0  0  0  0
   -5.1441   -0.2862   -1.3685 H   0  0  0  0  0  0  0  0  0  0  0  0
   -6.2609   -1.6235   -0.9783 H   0  0  0  0  0  0  0  0  0  0  0  0
   -8.8979    1.3765    0.9000 H   0  0  0  0  0  0  0  0  0  0  0  0
  -10.8392    2.1030   -0.4169 H   0  0  0  0  0  0  0  0  0  0  0  0
  -10.8956    1.7321   -2.8724 H   0  0  0  0  0  0  0  0  0  0  0  0
   -8.9696    0.6364   -3.9906 H   0  0  0  0  0  0  0  0  0  0  0  0
   -7.0203   -0.0665   -2.7048 H   0  0  0  0  0  0  0  0  0  0  0  0
   -6.7401    1.9883    1.2319 H   0  0  0  0  0  0  0  0  0  0  0  0
   -5.4802    1.9616   -0.0155 H   0  0  0  0  0  0  0  0  0  0  0  0
   -4.5056    1.6603    2.2369 H   0  0  0  0  0  0  0  0  0  0  0  0
   -5.5666    0.2878    2.5678 H   0  0  0  0  0  0  0  0  0  0  0  0
  1  2  2  0
  2  3  1  0
  3  4  1  0
  4  5  1  0
  5  6  1  0
  6  7  1  0
  7  8  1  0
  8  9  1  0
  9 10  1  0
 10 11  1  0
 11 12  1  0
 12 13  2  0
 13 14  1  0
 14 15  2  0
 15 16  1  0
 16 17  2  0
 17 18  1  0
 18 19  1  0
 19 20  1  0
 20 21  2  0
 20 22  1  0
 22 23  1  0
 23 24  1  0
 24 25  1  0
 25 26  1  0
 26 27  2  0
 27 28  1  0
 28 29  2  0
 29 30  1  0
 30 31  2  0
 25 32  1  0
 32 33  1  0
 17 34  1  0
 34 35  1  0
  6  2  1  0
 35 11  2  0
 34 14  1  0
 33 22  1  0
 31 26  1  0
  3 36  1  0
  3 37  1  0
  4 38  1  0
  4 39  1  0
  5 40  1  0
  5 41  1  0
  7 42  1  0
  7 43  1  0
  8 44  1  0
  8 45  1  0
  9 46  1  0
  9 47  1  0
 10 48  1  0
 12 49  1  0
 13 50  1  0
 18 51  1  0
 18 52  1  0
 19 53  1  0
 19 54  1  0
 23 55  1  0
 23 56  1  0
 24 57  1  0
 24 58  1  0
 27 59  1  0
 28 60  1  0
 29 61  1  0
 30 62  1  0
 31 63  1  0
 32 64  1  0
 32 65  1  0
 33 66  1  0
 33 67  1  0
M  END
$$$$
