
     RDKit          3D

 46 49  0  0  0  0  0  0  0  0999 V2000
   -3.8007   -0.5923   -2.3520 C   0  0  0  0  0  0  0  0  0  0  0  0
   -2.5294   -0.0985   -1.6832 C   0  0  0  0  0  0  0  0  0  0  0  0
   -2.6150    0.3106   -0.1923 C   0  0  0  0  0  0  0  0  0  0  0  0
   -3.7113    1.3448    0.1221 C   0  0  0  0  0  0  0  0  0  0  0  0
   -5.0689    0.7453    0.4704 C   0  0  0  0  0  0  0  0  0  0  0  0
   -4.9199   -0.3234    1.5400 C   0  0  0  0  0  0  0  0  0  0  0  0
   -3.9312   -1.3957    1.1083 C   0  0  0  0  0  0  0  0  0  0  0  0
   -2.6301   -0.8412    0.7385 N   0  0  0  0  0  0  0  0  0  0  0  0
   -1.5285   -1.7155    0.8776 C   0  0  0  0  0  0  0  0  0  0  0  0
   -1.6997   -2.8963    1.1838 O   0  0  0  0  0  0  0  0  0  0  0  0
   -0.1938   -1.1651    0.6945 C   0  0  0  0  0  0  0  0  0  0  0  0
    0.3661   -0.0224    1.2353 C   0  0  0  0  0  0  0  0  0  0  0  0
    1.7200    0.1551    0.8244 C   0  0  0  0  0  0  0  0  0  0  0  0
    2.6415    1.2223    1.1531 C   0  0  0  0  0  0  0  0  0  0  0  0
    2.2943    2.1619    1.8670 O   0  0  0  0  0  0  0  0  0  0  0  0
    3.9191    1.0778    0.5841 N   0  0  0  0  0  0  0  0  0  0  0  0
    4.8718    2.0555    0.8509 C   0  0  0  0  0  0  0  0  0  0  0  0
    6.1083    1.9977    0.3471 C   0  0  0  0  0  0  0  0  0  0  0  0
    6.4892    0.9022   -0.4991 C   0  0  0  0  0  0  0  0  0  0  0  0
    5.6237   -0.0777   -0.8007 C   0  0  0  0  0  0  0  0  0  0  0  0
    5.9729   -1.2408   -1.6762 C   0  0  0  0  0  0  0  0  0  0  0  0
    4.2267   -0.0234   -0.2384 C   0  0  0  0  0  0  0  0  0  0  0  0
    3.3892   -0.9772   -0.5353 N   0  0  0  0  0  0  0  0  0  0  0  0
    2.1586   -0.8601    0.0122 C   0  0  0  0  0  0  0  0  0  0  0  0
    0.9474   -2.0315   -0.2478 S   0  0  0  0  0  0  0  0  0  0  0  0
   -4.5574    0.1947   -2.4039 H   0  0  0  0  0  0  0  0  0  0  0  0
   -4.2207   -1.4630   -1.8460 H   0  0  0  0  0  0  0  0  0  0  0  0
   -3.5808   -0.8905   -3.3830 H   0  0  0  0  0  0  0  0  0  0  0  0
   -2.1823    0.7745   -2.2517 H   0  0  0  0  0  0  0  0  0  0  0  0
   -1.7575   -0.8655   -1.8123 H   0  0  0  0  0  0  0  0  0  0  0  0
   -1.6766    0.8441   -0.0157 H   0  0  0  0  0  0  0  0  0  0  0  0
   -3.8140    2.0613   -0.7011 H   0  0  0  0  0  0  0  0  0  0  0  0
   -3.3800    1.9286    0.9924 H   0  0  0  0  0  0  0  0  0  0  0  0
   -5.7362    1.5367    0.8307 H   0  0  0  0  0  0  0  0  0  0  0  0
   -5.5467    0.3158   -0.4147 H   0  0  0  0  0  0  0  0  0  0  0  0
   -4.5724    0.1413    2.4712 H   0  0  0  0  0  0  0  0  0  0  0  0
   -5.8938   -0.7786    1.7513 H   0  0  0  0  0  0  0  0  0  0  0  0
   -4.3169   -1.9681    0.2595 H   0  0  0  0  0  0  0  0  0  0  0  0
   -3.8085   -2.1039    1.9363 H   0  0  0  0  0  0  0  0  0  0  0  0
   -0.1653    0.6531    1.8964 H   0  0  0  0  0  0  0  0  0  0  0  0
    4.5703    2.8795    1.4936 H   0  0  0  0  0  0  0  0  0  0  0  0
    6.8405    2.7686    0.5657 H   0  0  0  0  0  0  0  0  0  0  0  0
    7.5044    0.8956   -0.8854 H   0  0  0  0  0  0  0  0  0  0  0  0
    7.0079   -1.1860   -2.0304 H   0  0  0  0  0  0  0  0  0  0  0  0
    5.3241   -1.2679   -2.5578 H   0  0  0  0  0  0  0  0  0  0  0  0
    5.8617   -2.1824   -1.1286 H   0  0  0  0  0  0  0  0  0  0  0  0
  1  2  1  0
  2  3  1  0
  3  4  1  0
  4  5  1  0
  5  6  1  0
  6  7  1  0
  7  8  1  0
  8  9  1  0
  9 10  2  0
  9 11  1  0
 11 12  2  0
 12 13  1  0
 13 14  1  0
 14 15  2  0
 14 16  1  0
 16 17  1  0
 17 18  2  0
 18 19  1  0
 19 20  2  0
 20 21  1  0
 20 22  1  0
 22 23  2  0
 23 24  1  0
 24 25  1  0
  8  3  1  0
 25 11  1  0
 24 13  2  0
 22 16  1  0
  1 26  1  0
  1 27  1  0
  1 28  1  0
  2 29  1  0
  2 30  1  0
  3 31  1  0
  4 32  1  0
  4 33  1  0
  5 34  1  0
  5 35  1  0
  6 36  1  0
  6 37  1  0
  7 38  1  0
  7 39  1  0
 12 40  1  0
 17 41  1  0
 18 42  1  0
 19 43  1  0
 21 44  1  0
 21 45  1  0
 21 46  1  0
M  END
$$$$
