
     RDKit          3D

 56 60  0  0  0  0  0  0  0  0999 V2000
   -6.5320   -1.2677   -2.7800 C   0  0  0  0  0  0  0  0  0  0  0  0
   -5.6651   -1.1340   -1.5619 C   0  0  0  0  0  0  0  0  0  0  0  0
   -5.8971   -0.1048   -0.6390 C   0  0  0  0  0  0  0  0  0  0  0  0
   -5.1157    0.0041    0.5123 C   0  0  0  0  0  0  0  0  0  0  0  0
   -4.0974   -0.9244    0.7407 C   0  0  0  0  0  0  0  0  0  0  0  0
   -3.0920   -0.7980    2.2091 S   0  0  0  0  0  6  0  0  0  0  0  0
   -2.8407   -2.1595    2.6513 O   0  0  0  0  0  0  0  0  0  0  0  0
   -3.7568    0.1362    3.1015 O   0  0  0  0  0  0  0  0  0  0  0  0
   -1.6464   -0.0976    1.5849 C   0  0  0  0  0  0  0  0  0  0  0  0
   -1.5738    1.2324    1.4114 C   0  0  0  0  0  0  0  0  0  0  0  0
   -0.4100    1.8750    0.8193 C   0  0  0  0  0  0  0  0  0  0  0  0
   -0.3753    3.3597    0.6945 C   0  0  0  0  0  0  0  0  0  0  0  0
   -1.3366    4.0274    1.0822 O   0  0  0  0  0  0  0  0  0  0  0  0
    0.7675    3.8955    0.1290 N   0  0  0  0  0  0  0  0  0  0  0  0
    0.8824    5.2748   -0.0095 C   0  0  0  0  0  0  0  0  0  0  0  0
    1.9655    5.8403   -0.5563 C   0  0  0  0  0  0  0  0  0  0  0  0
    3.0476    5.0138   -1.0199 C   0  0  0  0  0  0  0  0  0  0  0  0
    2.9782    3.6821   -0.9079 C   0  0  0  0  0  0  0  0  0  0  0  0
    1.7738    3.0495   -0.2986 C   0  0  0  0  0  0  0  0  0  0  0  0
    1.7343    1.7596   -0.2040 N   0  0  0  0  0  0  0  0  0  0  0  0
    0.6356    1.1509    0.3588 C   0  0  0  0  0  0  0  0  0  0  0  0
    0.5829   -0.2600    0.4771 N   0  0  0  0  0  0  0  0  0  0  0  0
    1.7255   -1.0683    0.0023 C   0  0  0  0  0  0  0  0  0  0  0  0
    2.7734   -1.2298    1.1077 C   0  0  0  0  0  0  0  0  0  0  0  0
    3.9600   -2.0356    0.6386 C   0  0  0  0  0  0  0  0  0  0  0  0
    3.9465   -3.4336    0.7317 C   0  0  0  0  0  0  0  0  0  0  0  0
    5.0339   -4.1815    0.2788 C   0  0  0  0  0  0  0  0  0  0  0  0
    6.1408   -3.5398   -0.2743 C   0  0  0  0  0  0  0  0  0  0  0  0
    6.1608   -2.1498   -0.3767 C   0  0  0  0  0  0  0  0  0  0  0  0
    5.0743   -1.3997    0.0755 C   0  0  0  0  0  0  0  0  0  0  0  0
   -0.4717   -0.9095    1.1394 C   0  0  0  0  0  0  0  0  0  0  0  0
   -0.3987   -2.1915    1.3538 N   0  0  0  0  0  0  0  0  0  0  0  0
   -3.8728   -1.9737   -0.1550 C   0  0  0  0  0  0  0  0  0  0  0  0
   -4.6587   -2.0748   -1.3037 C   0  0  0  0  0  0  0  0  0  0  0  0
   -7.4080   -1.8820   -2.5499 H   0  0  0  0  0  0  0  0  0  0  0  0
   -5.9796   -1.7323   -3.6036 H   0  0  0  0  0  0  0  0  0  0  0  0
   -6.8689   -0.2856   -3.1285 H   0  0  0  0  0  0  0  0  0  0  0  0
   -6.6939    0.6164   -0.8113 H   0  0  0  0  0  0  0  0  0  0  0  0
   -5.3144    0.8069    1.2192 H   0  0  0  0  0  0  0  0  0  0  0  0
   -2.3987    1.8814    1.7013 H   0  0  0  0  0  0  0  0  0  0  0  0
    0.0520    5.8796    0.3473 H   0  0  0  0  0  0  0  0  0  0  0  0
    2.0467    6.9177   -0.6596 H   0  0  0  0  0  0  0  0  0  0  0  0
    3.9154    5.4942   -1.4605 H   0  0  0  0  0  0  0  0  0  0  0  0
    3.7700    3.0250   -1.2452 H   0  0  0  0  0  0  0  0  0  0  0  0
    1.3817   -2.0502   -0.3487 H   0  0  0  0  0  0  0  0  0  0  0  0
    2.1772   -0.6080   -0.8865 H   0  0  0  0  0  0  0  0  0  0  0  0
    3.1171   -0.2476    1.4567 H   0  0  0  0  0  0  0  0  0  0  0  0
    2.3337   -1.7128    1.9895 H   0  0  0  0  0  0  0  0  0  0  0  0
    3.0859   -3.9463    1.1580 H   0  0  0  0  0  0  0  0  0  0  0  0
    5.0162   -5.2653    0.3575 H   0  0  0  0  0  0  0  0  0  0  0  0
    6.9872   -4.1235   -0.6260 H   0  0  0  0  0  0  0  0  0  0  0  0
    7.0233   -1.6500   -0.8093 H   0  0  0  0  0  0  0  0  0  0  0  0
    5.1009   -0.3160   -0.0131 H   0  0  0  0  0  0  0  0  0  0  0  0
   -1.2016   -2.5559    1.8942 H   0  0  0  0  0  0  0  0  0  0  0  0
   -3.0995   -2.7166    0.0303 H   0  0  0  0  0  0  0  0  0  0  0  0
   -4.4849   -2.8965   -1.9963 H   0  0  0  0  0  0  0  0  0  0  0  0
  1  2  1  0
  2  3  2  0
  3  4  1  0
  4  5  2  0
  5  6  1  0
  6  7  2  0
  6  8  2  0
  6  9  1  0
  9 10  2  0
 10 11  1  0
 11 12  1  0
 12 13  2  0
 12 14  1  0
 14 15  1  0
 15 16  2  0
 16 17  1  0
 17 18  2  0
 18 19  1  0
 19 20  2  0
 20 21  1  0
 21 22  1  0
 22 23  1  0
 23 24  1  0
 24 25  1  0
 25 26  2  0
 26 27  1  0
 27 28  2  0
 28 29  1  0
 29 30  2  0
 22 31  1  0
 31 32  2  3
  5 33  1  0
 33 34  2  0
 34  2  1  0
 31  9  1  0
 21 11  2  0
 30 25  1  0
 19 14  1  0
  1 35  1  0
  1 36  1  0
  1 37  1  0
  3 38  1  0
  4 39  1  0
 10 40  1  0
 15 41  1  0
 16 42  1  0
 17 43  1  0
 18 44  1  0
 23 45  1  0
 23 46  1  0
 24 47  1  0
 24 48  1  0
 26 49  1  0
 27 50  1  0
 28 51  1  0
 29 52  1  0
 30 53  1  0
 32 54  1  0
 33 55  1  0
 34 56  1  0
M  END
$$$$
