
     RDKit          3D

 49 52  0  0  0  0  0  0  0  0999 V2000
    1.1000   -3.2834    2.0263 C   0  0  0  0  0  0  0  0  0  0  0  0
    0.5622   -1.9263    1.5780 C   0  0  0  0  0  0  0  0  0  0  0  0
    1.5289   -1.2589    0.7261 N   0  0  0  0  0  0  0  0  0  0  0  0
    2.3804   -0.3013    1.2057 C   0  0  0  0  0  0  0  0  0  0  0  0
    2.3755    0.0935    2.3641 O   0  0  0  0  0  0  0  0  0  0  0  0
    3.2993    0.2321    0.1707 C   0  0  0  0  0  0  0  0  0  0  0  0
    4.1674    1.1985    0.5046 C   0  0  0  0  0  0  0  0  0  0  0  0
    5.0763    1.7739   -0.4262 C   0  0  0  0  0  0  0  0  0  0  0  0
    5.2524    1.5754   -1.7937 C   0  0  0  0  0  0  0  0  0  0  0  0
    6.3098    2.4098   -2.2304 C   0  0  0  0  0  0  0  0  0  0  0  0
    6.7336    3.0846   -1.1151 C   0  0  0  0  0  0  0  0  0  0  0  0
    6.0054    2.7176   -0.0353 O   0  0  0  0  0  0  0  0  0  0  0  0
   -0.7085   -2.0559    0.7809 C   0  0  0  0  0  0  0  0  0  0  0  0
   -1.0098   -3.0669   -0.0129 N   0  0  0  0  0  0  0  0  0  0  0  0
   -2.2857   -2.8335   -0.4479 C   0  0  0  0  0  0  0  0  0  0  0  0
   -3.1026   -3.6393   -1.2595 C   0  0  0  0  0  0  0  0  0  0  0  0
   -4.4022   -3.2103   -1.5456 C   0  0  0  0  0  0  0  0  0  0  0  0
   -4.8766   -1.9997   -1.0404 C   0  0  0  0  0  0  0  0  0  0  0  0
   -4.0731   -1.1812   -0.2324 C   0  0  0  0  0  0  0  0  0  0  0  0
   -2.7698   -1.6211    0.0405 C   0  0  0  0  0  0  0  0  0  0  0  0
   -1.7067   -1.0932    0.7399 N   0  0  0  0  0  0  0  0  0  0  0  0
   -1.6453    0.2148    1.3975 C   0  0  0  0  0  0  0  0  0  0  0  0
   -2.1463    1.3790    0.5659 C   0  0  0  0  0  0  0  0  0  0  0  0
   -1.5377    1.7354   -0.6575 C   0  0  0  0  0  0  0  0  0  0  0  0
   -0.1739    0.8897   -1.3030 Cl  0  0  0  0  0  0  0  0  0  0  0  0
   -1.9985    2.8247   -1.4089 C   0  0  0  0  0  0  0  0  0  0  0  0
   -3.0646    3.5945   -0.9555 C   0  0  0  0  0  0  0  0  0  0  0  0
   -3.6695    3.2767    0.2553 C   0  0  0  0  0  0  0  0  0  0  0  0
   -3.2146    2.1871    1.0104 C   0  0  0  0  0  0  0  0  0  0  0  0
   -4.0417    1.8949    2.5029 Cl  0  0  0  0  0  0  0  0  0  0  0  0
    0.3699   -3.8243    2.6382 H   0  0  0  0  0  0  0  0  0  0  0  0
    2.0156   -3.1561    2.6125 H   0  0  0  0  0  0  0  0  0  0  0  0
    1.3482   -3.9173    1.1681 H   0  0  0  0  0  0  0  0  0  0  0  0
    0.3799   -1.3295    2.4787 H   0  0  0  0  0  0  0  0  0  0  0  0
    1.5719   -1.5630   -0.2404 H   0  0  0  0  0  0  0  0  0  0  0  0
    3.2315   -0.1777   -0.8268 H   0  0  0  0  0  0  0  0  0  0  0  0
    4.2062    1.5795    1.5224 H   0  0  0  0  0  0  0  0  0  0  0  0
    4.6780    0.8987   -2.4135 H   0  0  0  0  0  0  0  0  0  0  0  0
    6.7108    2.5066   -3.2288 H   0  0  0  0  0  0  0  0  0  0  0  0
    7.5041    3.8225   -0.9323 H   0  0  0  0  0  0  0  0  0  0  0  0
   -2.7269   -4.5867   -1.6393 H   0  0  0  0  0  0  0  0  0  0  0  0
   -5.0520   -3.8343   -2.1534 H   0  0  0  0  0  0  0  0  0  0  0  0
   -5.8938   -1.6869   -1.2696 H   0  0  0  0  0  0  0  0  0  0  0  0
   -4.4670   -0.2508    0.1523 H   0  0  0  0  0  0  0  0  0  0  0  0
   -2.1903    0.0730    2.3352 H   0  0  0  0  0  0  0  0  0  0  0  0
   -0.6104    0.4311    1.6718 H   0  0  0  0  0  0  0  0  0  0  0  0
   -1.5208    3.0801   -2.3540 H   0  0  0  0  0  0  0  0  0  0  0  0
   -3.4191    4.4382   -1.5389 H   0  0  0  0  0  0  0  0  0  0  0  0
   -4.4998    3.8857    0.6133 H   0  0  0  0  0  0  0  0  0  0  0  0
  1  2  1  0
  2  3  1  0
  3  4  1  0
  4  5  2  0
  4  6  1  0
  6  7  2  3
  7  8  1  0
  8  9  2  0
  9 10  1  0
 10 11  2  0
 11 12  1  0
  2 13  1  0
 13 14  2  0
 14 15  1  0
 15 16  2  0
 16 17  1  0
 17 18  2  0
 18 19  1  0
 19 20  2  0
 20 21  1  0
 21 22  1  0
 22 23  1  0
 23 24  2  0
 24 25  1  0
 24 26  1  0
 26 27  2  0
 27 28  1  0
 28 29  2  0
 29 30  1  0
 12  8  1  0
 21 13  1  0
 29 23  1  0
 20 15  1  0
  1 31  1  0
  1 32  1  0
  1 33  1  0
  2 34  1  0
  3 35  1  0
  6 36  1  0
  7 37  1  0
  9 38  1  0
 10 39  1  0
 11 40  1  0
 16 41  1  0
 17 42  1  0
 18 43  1  0
 19 44  1  0
 22 45  1  0
 22 46  1  0
 26 47  1  0
 27 48  1  0
 28 49  1  0
M  END
$$$$
