
     RDKit          3D

 49 52  0  0  0  0  0  0  0  0999 V2000
    6.2855   -3.7154   -2.7383 C   0  0  0  0  0  0  0  0  0  0  0  0
    5.3981   -2.6111   -2.2454 C   0  0  0  0  0  0  0  0  0  0  0  0
    4.6392   -1.8556   -3.1472 C   0  0  0  0  0  0  0  0  0  0  0  0
    3.7894   -0.8464   -2.6867 C   0  0  0  0  0  0  0  0  0  0  0  0
    3.6780   -0.5894   -1.3177 C   0  0  0  0  0  0  0  0  0  0  0  0
    2.7825    0.4685   -0.8486 C   0  0  0  0  0  0  0  0  0  0  0  0
    1.6020    0.2304   -0.2586 C   0  0  0  0  0  0  0  0  0  0  0  0
    0.9659   -1.1112    0.0344 C   0  0  0  0  0  0  0  0  0  0  0  0
   -0.3997   -0.7950    0.6764 C   0  0  0  0  0  0  0  0  0  0  0  0
   -0.4359    0.6971    0.7156 C   0  0  0  0  0  0  0  0  0  0  0  0
    0.6768    1.2255    0.2073 C   0  0  0  0  0  0  0  0  0  0  0  0
    1.0158    2.5734    0.2285 O   0  0  0  0  0  0  0  0  0  0  0  0
    0.0776    3.4422    0.6927 C   0  0  0  0  0  0  0  0  0  0  0  0
    0.4652    4.6300    1.0283 N   0  0  0  0  0  0  0  0  0  0  0  0
   -1.3714    2.9954    0.7389 C   0  0  0  0  0  0  0  0  0  0  0  0
   -1.9164    3.1284   -0.6221 C   0  0  0  0  0  0  0  0  0  0  0  0
   -2.3544    3.2468   -1.6909 N   0  0  0  0  0  0  0  0  0  0  0  0
   -1.4756    1.5719    1.3298 C   0  0  0  0  0  0  0  0  0  0  0  0
   -2.8925    1.0191    1.3495 C   0  0  0  0  0  0  0  0  0  0  0  0
   -3.6307    1.0583    2.5435 C   0  0  0  0  0  0  0  0  0  0  0  0
   -4.9421    0.5776    2.5937 C   0  0  0  0  0  0  0  0  0  0  0  0
   -5.5451    0.0404    1.4533 C   0  0  0  0  0  0  0  0  0  0  0  0
   -6.9645   -0.4421    1.4966 C   0  0  0  0  0  0  0  0  0  0  0  0
   -4.8240    0.0143    0.2566 C   0  0  0  0  0  0  0  0  0  0  0  0
   -3.5119    0.4930    0.2059 C   0  0  0  0  0  0  0  0  0  0  0  0
    4.4258   -1.3490   -0.4133 C   0  0  0  0  0  0  0  0  0  0  0  0
    5.2758   -2.3578   -0.8741 C   0  0  0  0  0  0  0  0  0  0  0  0
    6.6803   -3.4846   -3.7333 H   0  0  0  0  0  0  0  0  0  0  0  0
    7.1440   -3.8531   -2.0726 H   0  0  0  0  0  0  0  0  0  0  0  0
    5.7230   -4.6527   -2.7892 H   0  0  0  0  0  0  0  0  0  0  0  0
    4.7054   -2.0461   -4.2160 H   0  0  0  0  0  0  0  0  0  0  0  0
    3.2111   -0.2676   -3.4032 H   0  0  0  0  0  0  0  0  0  0  0  0
    3.1266    1.4847   -1.0267 H   0  0  0  0  0  0  0  0  0  0  0  0
    1.5782   -1.6963    0.7297 H   0  0  0  0  0  0  0  0  0  0  0  0
    0.8276   -1.6929   -0.8841 H   0  0  0  0  0  0  0  0  0  0  0  0
   -1.2079   -1.2117    0.0683 H   0  0  0  0  0  0  0  0  0  0  0  0
   -0.4635   -1.2200    1.6836 H   0  0  0  0  0  0  0  0  0  0  0  0
   -0.3157    5.2199    1.3287 H   0  0  0  0  0  0  0  0  0  0  0  0
   -1.9211    3.6819    1.3966 H   0  0  0  0  0  0  0  0  0  0  0  0
   -1.1638    1.6480    2.3841 H   0  0  0  0  0  0  0  0  0  0  0  0
   -3.1940    1.4637    3.4542 H   0  0  0  0  0  0  0  0  0  0  0  0
   -5.4909    0.6251    3.5320 H   0  0  0  0  0  0  0  0  0  0  0  0
   -7.2134   -0.8352    2.4879 H   0  0  0  0  0  0  0  0  0  0  0  0
   -7.6467    0.3803    1.2605 H   0  0  0  0  0  0  0  0  0  0  0  0
   -7.1237   -1.2522    0.7771 H   0  0  0  0  0  0  0  0  0  0  0  0
   -5.2794   -0.3779   -0.6507 H   0  0  0  0  0  0  0  0  0  0  0  0
   -2.9865    0.4494   -0.7470 H   0  0  0  0  0  0  0  0  0  0  0  0
    4.3522   -1.1596    0.6548 H   0  0  0  0  0  0  0  0  0  0  0  0
    5.8446   -2.9422   -0.1546 H   0  0  0  0  0  0  0  0  0  0  0  0
  1  2  1  0
  2  3  2  0
  3  4  1  0
  4  5  2  0
  5  6  1  0
  6  7  2  3
  7  8  1  0
  8  9  1  0
  9 10  1  0
 10 11  2  0
 11 12  1  0
 12 13  1  0
 13 14  2  3
 13 15  1  0
 15 16  1  0
 16 17  3  0
 15 18  1  0
 18 19  1  0
 19 20  2  0
 20 21  1  0
 21 22  2  0
 22 23  1  0
 22 24  1  0
 24 25  2  0
  5 26  1  0
 26 27  2  0
 27  2  1  0
 11  7  1  0
 25 19  1  0
 18 10  1  0
  1 28  1  0
  1 29  1  0
  1 30  1  0
  3 31  1  0
  4 32  1  0
  6 33  1  0
  8 34  1  0
  8 35  1  0
  9 36  1  0
  9 37  1  0
 14 38  1  0
 15 39  1  0
 18 40  1  0
 20 41  1  0
 21 42  1  0
 23 43  1  0
 23 44  1  0
 23 45  1  0
 24 46  1  0
 25 47  1  0
 26 48  1  0
 27 49  1  0
M  END
$$$$
