
     RDKit          3D

 50 53  0  0  0  0  0  0  0  0999 V2000
   -2.6616    3.5532   -3.7765 C   0  0  0  0  0  0  0  0  0  0  0  0
   -3.1458    2.4371   -2.9466 C   0  0  0  0  0  0  0  0  0  0  0  0
   -4.1182    2.3025   -1.9870 C   0  0  0  0  0  0  0  0  0  0  0  0
   -4.0526    0.9448   -1.6058 C   0  0  0  0  0  0  0  0  0  0  0  0
   -4.8640    0.3759   -0.6415 N   0  0  0  0  0  0  0  0  0  0  0  0
   -4.8278   -1.2265   -0.1848 S   0  0  0  0  0  6  0  0  0  0  0  0
   -5.7703   -1.3365    0.9115 O   0  0  0  0  0  0  0  0  0  0  0  0
   -4.9583   -2.0723   -1.3510 O   0  0  0  0  0  0  0  0  0  0  0  0
   -3.2053   -1.4279    0.5065 C   0  0  0  0  0  0  0  0  0  0  0  0
   -2.2247   -2.1201   -0.2039 C   0  0  0  0  0  0  0  0  0  0  0  0
   -0.9549   -2.2790    0.3560 C   0  0  0  0  0  0  0  0  0  0  0  0
   -0.6596   -1.7570    1.6236 C   0  0  0  0  0  0  0  0  0  0  0  0
    0.6514   -1.9466    2.0993 N   0  0  0  0  0  0  0  0  0  0  0  0
    1.2168   -1.4424    3.2546 C   0  0  0  0  0  0  0  0  0  0  0  0
    0.6678   -0.7378    4.0953 O   0  0  0  0  0  0  0  0  0  0  0  0
    2.6790   -1.8081    3.3979 C   0  0  0  0  0  0  0  0  0  0  0  0
    3.5814   -0.6646    2.9500 C   0  0  0  0  0  0  0  0  0  0  0  0
    3.4856   -0.2459    1.5565 N   0  0  0  0  0  0  0  0  0  0  0  0
    3.2170   -1.0457    0.4787 C   0  0  0  0  0  0  0  0  0  0  0  0
    2.9007   -2.2220    0.4512 O   0  0  0  0  0  0  0  0  0  0  0  0
    3.3539   -0.2147   -0.7146 C   0  0  0  0  0  0  0  0  0  0  0  0
    3.1474   -0.5161   -2.0464 C   0  0  0  0  0  0  0  0  0  0  0  0
    3.3692    0.5070   -2.9740 C   0  0  0  0  0  0  0  0  0  0  0  0
    3.7890    1.7863   -2.5535 C   0  0  0  0  0  0  0  0  0  0  0  0
    3.9920    2.0648   -1.1983 C   0  0  0  0  0  0  0  0  0  0  0  0
    3.7606    1.0394   -0.3027 C   0  0  0  0  0  0  0  0  0  0  0  0
    3.8850    1.0041    1.1519 C   0  0  0  0  0  0  0  0  0  0  0  0
    4.3075    1.9294    1.8184 O   0  0  0  0  0  0  0  0  0  0  0  0
   -1.6592   -1.0876    2.3340 C   0  0  0  0  0  0  0  0  0  0  0  0
   -2.9342   -0.9258    1.7814 C   0  0  0  0  0  0  0  0  0  0  0  0
   -3.1001    0.3022   -2.2831 N   0  0  0  0  0  0  0  0  0  0  0  0
   -2.5324    1.2380   -3.1270 O   0  0  0  0  0  0  0  0  0  0  0  0
   -2.9102    3.3829   -4.8285 H   0  0  0  0  0  0  0  0  0  0  0  0
   -1.5755    3.6551   -3.6901 H   0  0  0  0  0  0  0  0  0  0  0  0
   -3.1167    4.4989   -3.4667 H   0  0  0  0  0  0  0  0  0  0  0  0
   -4.7791    3.0726   -1.6211 H   0  0  0  0  0  0  0  0  0  0  0  0
   -5.5268    0.9413   -0.1216 H   0  0  0  0  0  0  0  0  0  0  0  0
   -2.4338   -2.5229   -1.1929 H   0  0  0  0  0  0  0  0  0  0  0  0
   -0.1974   -2.8102   -0.2163 H   0  0  0  0  0  0  0  0  0  0  0  0
    1.2810   -2.4498    1.4723 H   0  0  0  0  0  0  0  0  0  0  0  0
    2.8599   -2.0248    4.4579 H   0  0  0  0  0  0  0  0  0  0  0  0
    2.9043   -2.7368    2.8640 H   0  0  0  0  0  0  0  0  0  0  0  0
    4.6267   -0.9546    3.1127 H   0  0  0  0  0  0  0  0  0  0  0  0
    3.4008    0.2169    3.5777 H   0  0  0  0  0  0  0  0  0  0  0  0
    2.8249   -1.5040   -2.3583 H   0  0  0  0  0  0  0  0  0  0  0  0
    3.2167    0.3154   -4.0349 H   0  0  0  0  0  0  0  0  0  0  0  0
    3.9570    2.5656   -3.2952 H   0  0  0  0  0  0  0  0  0  0  0  0
    4.3157    3.0439   -0.8598 H   0  0  0  0  0  0  0  0  0  0  0  0
   -1.4796   -0.6853    3.3265 H   0  0  0  0  0  0  0  0  0  0  0  0
   -3.7028   -0.4123    2.3541 H   0  0  0  0  0  0  0  0  0  0  0  0
  1  2  1  0
  2  3  2  0
  3  4  1  0
  4  5  1  0
  5  6  1  0
  6  7  2  0
  6  8  2  0
  6  9  1  0
  9 10  2  0
 10 11  1  0
 11 12  2  0
 12 13  1  0
 13 14  1  0
 14 15  2  0
 14 16  1  0
 16 17  1  0
 17 18  1  0
 18 19  1  0
 19 20  2  0
 19 21  1  0
 21 22  2  0
 22 23  1  0
 23 24  2  0
 24 25  1  0
 25 26  2  0
 26 27  1  0
 27 28  2  0
 12 29  1  0
 29 30  2  0
  4 31  2  0
 31 32  1  0
 32  2  1  0
 30  9  1  0
 27 18  1  0
 26 21  1  0
  1 33  1  0
  1 34  1  0
  1 35  1  0
  3 36  1  0
  5 37  1  0
 10 38  1  0
 11 39  1  0
 13 40  1  0
 16 41  1  0
 16 42  1  0
 17 43  1  0
 17 44  1  0
 22 45  1  0
 23 46  1  0
 24 47  1  0
 25 48  1  0
 29 49  1  0
 30 50  1  0
M  END
$$$$
