
     RDKit          3D

 42 43  0  0  0  0  0  0  0  0999 V2000
   -2.2064    1.3251    2.3463 C   0  0  0  0  0  0  0  0  0  0  0  0
   -0.8625    1.3471    1.6717 C   0  0  0  0  0  0  0  0  0  0  0  0
    0.2712    1.6446    2.4508 C   0  0  0  0  0  0  0  0  0  0  0  0
    1.5479    1.6811    1.8864 C   0  0  0  0  0  0  0  0  0  0  0  0
    1.7038    1.4177    0.5270 C   0  0  0  0  0  0  0  0  0  0  0  0
    3.3224    1.4474   -0.2090 S   0  0  0  0  0  6  0  0  0  0  0  0
    3.2352    2.3105   -1.3711 O   0  0  0  0  0  0  0  0  0  0  0  0
    4.2863    1.7113    0.8434 O   0  0  0  0  0  0  0  0  0  0  0  0
    3.6355   -0.2111   -0.7780 C   0  0  0  0  0  0  0  0  0  0  0  0
    3.9992   -1.1928    0.1503 C   0  0  0  0  0  0  0  0  0  0  0  0
    4.2424   -2.4953   -0.2896 C   0  0  0  0  0  0  0  0  0  0  0  0
    4.1278   -2.8034   -1.6463 C   0  0  0  0  0  0  0  0  0  0  0  0
    4.4218   -4.4113   -2.1821 Cl  0  0  0  0  0  0  0  0  0  0  0  0
    3.7781   -1.8186   -2.5716 C   0  0  0  0  0  0  0  0  0  0  0  0
    3.5347   -0.5131   -2.1397 C   0  0  0  0  0  0  0  0  0  0  0  0
    0.5985    1.1271   -0.2751 C   0  0  0  0  0  0  0  0  0  0  0  0
   -0.6813    1.0797    0.2993 C   0  0  0  0  0  0  0  0  0  0  0  0
   -2.0504    0.6753   -0.7776 S   0  0  0  0  0  6  0  0  0  0  0  0
   -1.5080    0.3008   -2.0683 O   0  0  0  0  0  0  0  0  0  0  0  0
   -3.0239    1.7372   -0.6675 O   0  0  0  0  0  0  0  0  0  0  0  0
   -2.6917   -0.7585   -0.1001 N   0  0  0  0  0  0  0  0  0  0  0  0
   -1.7776   -1.9217   -0.1125 C   0  0  0  0  0  0  0  0  0  0  0  0
   -4.0269   -1.1160   -0.6736 C   0  0  0  0  0  0  0  0  0  0  0  0
   -5.1558   -0.1819   -0.3055 C   0  0  0  0  0  0  0  0  0  0  0  0
   -6.0998    0.1103   -1.0242 O   0  0  0  0  0  0  0  0  0  0  0  0
   -5.1071    0.2675    0.9663 O   0  0  0  0  0  0  0  0  0  0  0  0
   -2.8997    2.0178    1.8628 H   0  0  0  0  0  0  0  0  0  0  0  0
   -2.1302    1.6406    3.3930 H   0  0  0  0  0  0  0  0  0  0  0  0
   -2.6196    0.3134    2.3484 H   0  0  0  0  0  0  0  0  0  0  0  0
    0.1651    1.8592    3.5139 H   0  0  0  0  0  0  0  0  0  0  0  0
    2.4042    1.9228    2.5135 H   0  0  0  0  0  0  0  0  0  0  0  0
    4.1036   -0.9521    1.2063 H   0  0  0  0  0  0  0  0  0  0  0  0
    4.5274   -3.2631    0.4258 H   0  0  0  0  0  0  0  0  0  0  0  0
    3.6988   -2.0602   -3.6290 H   0  0  0  0  0  0  0  0  0  0  0  0
    3.2716    0.2527   -2.8672 H   0  0  0  0  0  0  0  0  0  0  0  0
    0.7322    0.9495   -1.3410 H   0  0  0  0  0  0  0  0  0  0  0  0
   -2.2101   -2.7337    0.4815 H   0  0  0  0  0  0  0  0  0  0  0  0
   -1.6139   -2.2855   -1.1312 H   0  0  0  0  0  0  0  0  0  0  0  0
   -0.8167   -1.6750    0.3458 H   0  0  0  0  0  0  0  0  0  0  0  0
   -3.9518   -1.1640   -1.7663 H   0  0  0  0  0  0  0  0  0  0  0  0
   -4.3231   -2.1105   -0.3195 H   0  0  0  0  0  0  0  0  0  0  0  0
   -5.8513    0.9031    1.0134 H   0  0  0  0  0  0  0  0  0  0  0  0
  1  2  1  0
  2  3  2  0
  3  4  1  0
  4  5  2  0
  5  6  1  0
  6  7  2  0
  6  8  2  0
  6  9  1  0
  9 10  2  0
 10 11  1  0
 11 12  2  0
 12 13  1  0
 12 14  1  0
 14 15  2  0
  5 16  1  0
 16 17  2  0
 17 18  1  0
 18 19  2  0
 18 20  2  0
 18 21  1  0
 21 22  1  0
 21 23  1  0
 23 24  1  0
 24 25  2  0
 24 26  1  0
 17  2  1  0
 15  9  1  0
  1 27  1  0
  1 28  1  0
  1 29  1  0
  3 30  1  0
  4 31  1  0
 10 32  1  0
 11 33  1  0
 14 34  1  0
 15 35  1  0
 16 36  1  0
 22 37  1  0
 22 38  1  0
 22 39  1  0
 23 40  1  0
 23 41  1  0
 26 42  1  0
M  END
$$$$
