
     RDKit          3D

 41 42  0  0  0  0  0  0  0  0999 V2000
   -2.7264   -0.9839   -1.9196 C   0  0  0  0  0  0  0  0  0  0  0  0
   -2.1810   -0.4891   -0.6022 C   0  0  0  0  0  0  0  0  0  0  0  0
   -1.8324   -1.2835    0.4339 C   0  0  0  0  0  0  0  0  0  0  0  0
   -2.0141   -2.7815    0.4672 C   0  0  0  0  0  0  0  0  0  0  0  0
   -1.2188   -0.7349    1.7081 C   0  0  0  0  0  0  0  0  0  0  0  0
   -0.8376    0.7503    1.6826 C   0  0  0  0  0  0  0  0  0  0  0  0
    0.6165    1.0126    1.2741 C   0  0  0  0  0  0  0  0  0  0  0  0
    1.2783    1.8359    1.9028 O   0  0  0  0  0  0  0  0  0  0  0  0
    1.0494    0.3234    0.1581 N   0  0  0  0  0  0  0  0  0  0  0  0
    2.3123    0.3917   -0.4669 C   0  0  0  0  0  0  0  0  0  0  0  0
    3.3604    1.2075   -0.0320 C   0  0  0  0  0  0  0  0  0  0  0  0
    4.5871    1.2215   -0.7070 C   0  0  0  0  0  0  0  0  0  0  0  0
    4.7822    0.4181   -1.8280 C   0  0  0  0  0  0  0  0  0  0  0  0
    3.7371   -0.4003   -2.2673 C   0  0  0  0  0  0  0  0  0  0  0  0
    3.9280   -1.2524   -3.4469 N   0  0  0  0  0  4  0  0  0  0  0  0
    5.0269   -1.2114   -4.0180 O   0  0  0  0  0  0  0  0  0  0  0  0
    2.9769   -1.9639   -3.8024 O   0  0  0  0  0  1  0  0  0  0  0  0
    2.5061   -0.4172   -1.5935 C   0  0  0  0  0  0  0  0  0  0  0  0
   -1.7949    1.6081    0.8459 C   0  0  0  0  0  0  0  0  0  0  0  0
   -3.1214    1.8985    1.5223 C   0  0  0  0  0  0  0  0  0  0  0  0
   -4.0321    2.5530    1.0363 O   0  0  0  0  0  0  0  0  0  0  0  0
   -3.2592    1.3954    2.7600 O   0  0  0  0  0  0  0  0  0  0  0  0
   -2.0469    1.0204   -0.5477 C   0  0  0  0  0  0  0  0  0  0  0  0
   -2.5740   -2.0533   -2.0809 H   0  0  0  0  0  0  0  0  0  0  0  0
   -3.7983   -0.7717   -1.9870 H   0  0  0  0  0  0  0  0  0  0  0  0
   -2.2221   -0.4749   -2.7489 H   0  0  0  0  0  0  0  0  0  0  0  0
   -2.4644   -3.0844    1.4192 H   0  0  0  0  0  0  0  0  0  0  0  0
   -1.0432   -3.2787    0.3733 H   0  0  0  0  0  0  0  0  0  0  0  0
   -2.6738   -3.1601   -0.3164 H   0  0  0  0  0  0  0  0  0  0  0  0
   -1.9448   -0.8985    2.5154 H   0  0  0  0  0  0  0  0  0  0  0  0
   -0.3347   -1.3328    1.9663 H   0  0  0  0  0  0  0  0  0  0  0  0
   -0.8660    1.0873    2.7298 H   0  0  0  0  0  0  0  0  0  0  0  0
    0.3908   -0.3205   -0.2635 H   0  0  0  0  0  0  0  0  0  0  0  0
    3.2594    1.8519    0.8369 H   0  0  0  0  0  0  0  0  0  0  0  0
    5.3890    1.8649   -0.3500 H   0  0  0  0  0  0  0  0  0  0  0  0
    5.7420    0.4420   -2.3398 H   0  0  0  0  0  0  0  0  0  0  0  0
    1.7013   -1.0587   -1.9463 H   0  0  0  0  0  0  0  0  0  0  0  0
   -1.3408    2.6016    0.7176 H   0  0  0  0  0  0  0  0  0  0  0  0
   -4.1522    1.6920    3.0376 H   0  0  0  0  0  0  0  0  0  0  0  0
   -1.2175    1.3055   -1.2082 H   0  0  0  0  0  0  0  0  0  0  0  0
   -2.9473    1.4702   -0.9859 H   0  0  0  0  0  0  0  0  0  0  0  0
  1  2  1  0
  2  3  2  0
  3  4  1  0
  3  5  1  0
  5  6  1  0
  6  7  1  0
  7  8  2  0
  7  9  1  0
  9 10  1  0
 10 11  2  0
 11 12  1  0
 12 13  2  0
 13 14  1  0
 14 15  1  0
 15 16  2  0
 15 17  1  0
 14 18  2  0
  6 19  1  0
 19 20  1  0
 20 21  2  0
 20 22  1  0
 19 23  1  0
 23  2  1  0
 18 10  1  0
  1 24  1  0
  1 25  1  0
  1 26  1  0
  4 27  1  0
  4 28  1  0
  4 29  1  0
  5 30  1  0
  5 31  1  0
  6 32  1  0
  9 33  1  0
 11 34  1  0
 12 35  1  0
 13 36  1  0
 18 37  1  0
 19 38  1  0
 22 39  1  0
 23 40  1  0
 23 41  1  0
M  CHG  2  15   1  17  -1
M  END
$$$$
