
     RDKit          3D

 92 91  0  0  0  0  0  0  0  0999 V2000
   -9.8370    0.4738   -2.7275 C   0  0  0  0  0  0  0  0  0  0  0  0
  -10.1297    0.4076   -1.2365 C   0  0  0  0  0  0  0  0  0  0  0  0
   -8.8429    0.5116   -0.4069 C   0  0  0  0  0  0  0  0  0  0  0  0
   -9.1459    0.4573    1.0950 C   0  0  0  0  0  0  0  0  0  0  0  0
   -7.9069    0.7164    1.9850 C   0  0  0  0  0  0  0  0  0  0  0  0
   -8.2798    0.7665    3.4864 C   0  0  0  0  0  0  0  0  0  0  0  0
   -9.2136    1.9154    3.8524 C   0  0  0  0  0  0  0  0  0  0  0  0
   -6.7668   -0.3041    1.7510 C   0  0  0  0  0  0  0  0  0  0  0  0
   -7.2215   -1.6411    2.1171 N   0  0  0  0  0  0  0  0  0  0  0  0
   -6.5718   -2.6578    1.6666 C   0  0  0  0  0  0  0  0  0  0  0  0
   -7.0267   -3.8998    1.9941 N   0  0  0  0  0  0  0  0  0  0  0  0
   -5.5054   -2.5482    0.8343 N   0  0  0  0  0  0  0  0  0  0  0  0
   -4.3433   -2.9285    1.2449 C   0  0  0  0  0  0  0  0  0  0  0  0
   -4.0063   -3.4036    2.4740 N   0  0  0  0  0  0  0  0  0  0  0  0
   -3.2340   -2.9556    0.4516 N   0  0  0  0  0  0  0  0  0  0  0  0
   -3.2481   -2.5280   -0.9376 C   0  0  0  0  0  0  0  0  0  0  0  0
   -2.7630   -1.0904   -1.1028 C   0  0  0  0  0  0  0  0  0  0  0  0
   -1.2490   -0.9315   -0.8677 C   0  0  0  0  0  0  0  0  0  0  0  0
   -0.7656    0.4350   -1.3653 C   0  0  0  0  0  0  0  0  0  0  0  0
    0.6959    0.7559   -1.0297 C   0  0  0  0  0  0  0  0  0  0  0  0
    1.7006   -0.2910   -1.5228 C   0  0  0  0  0  0  0  0  0  0  0  0
    3.0465    0.2780   -1.5263 N   0  0  0  0  0  0  0  0  0  0  0  0
    3.7735    0.2553   -0.4735 C   0  0  0  0  0  0  0  0  0  0  0  0
    3.4459   -0.2696    0.7342 N   0  0  0  0  0  0  0  0  0  0  0  0
    5.0155    0.8200   -0.5226 N   0  0  0  0  0  0  0  0  0  0  0  0
    5.8119    0.5690   -1.5059 C   0  0  0  0  0  0  0  0  0  0  0  0
    5.5736   -0.1841   -2.6142 N   0  0  0  0  0  0  0  0  0  0  0  0
    7.0957    1.0268   -1.5851 N   0  0  0  0  0  0  0  0  0  0  0  0
    7.5482    2.1530   -0.7875 C   0  0  0  0  0  0  0  0  0  0  0  0
    9.0850    2.2924   -0.8134 C   0  0  0  0  0  0  0  0  0  0  0  0
    9.5853    2.6172   -2.2388 C   0  0  0  0  0  0  0  0  0  0  0  0
   11.0523    3.0299   -2.3041 C   0  0  0  0  0  0  0  0  0  0  0  0
    9.8059    1.0558   -0.2123 C   0  0  0  0  0  0  0  0  0  0  0  0
    9.4248    0.7823    1.2490 C   0  0  0  0  0  0  0  0  0  0  0  0
   10.3497   -0.2286    1.9334 C   0  0  0  0  0  0  0  0  0  0  0  0
   10.2860   -1.6171    1.3214 C   0  0  0  0  0  0  0  0  0  0  0  0
  -10.7698    0.4148   -3.2993 H   0  0  0  0  0  0  0  0  0  0  0  0
   -9.3513    1.4162   -2.9874 H   0  0  0  0  0  0  0  0  0  0  0  0
   -9.1884   -0.3501   -3.0431 H   0  0  0  0  0  0  0  0  0  0  0  0
  -10.6397   -0.5355   -1.0111 H   0  0  0  0  0  0  0  0  0  0  0  0
  -10.8229    1.2131   -0.9718 H   0  0  0  0  0  0  0  0  0  0  0  0
   -8.3381    1.4550   -0.6447 H   0  0  0  0  0  0  0  0  0  0  0  0
   -8.1691   -0.3108   -0.6849 H   0  0  0  0  0  0  0  0  0  0  0  0
   -9.5947   -0.5126    1.3434 H   0  0  0  0  0  0  0  0  0  0  0  0
   -9.9105    1.2136    1.3048 H   0  0  0  0  0  0  0  0  0  0  0  0
   -7.5029    1.7035    1.7166 H   0  0  0  0  0  0  0  0  0  0  0  0
   -7.3611    0.8853    4.0730 H   0  0  0  0  0  0  0  0  0  0  0  0
   -8.7415   -0.1809    3.7962 H   0  0  0  0  0  0  0  0  0  0  0  0
   -8.8069    2.8787    3.5217 H   0  0  0  0  0  0  0  0  0  0  0  0
   -9.3411    1.9541    4.9428 H   0  0  0  0  0  0  0  0  0  0  0  0
  -10.2064    1.7857    3.4160 H   0  0  0  0  0  0  0  0  0  0  0  0
   -6.4299   -0.2395    0.7097 H   0  0  0  0  0  0  0  0  0  0  0  0
   -5.9130   -0.0346    2.3843 H   0  0  0  0  0  0  0  0  0  0  0  0
   -8.0070   -3.8375    2.2485 H   0  0  0  0  0  0  0  0  0  0  0  0
   -6.8598   -4.5523    1.2408 H   0  0  0  0  0  0  0  0  0  0  0  0
   -4.8174   -3.6139    3.0497 H   0  0  0  0  0  0  0  0  0  0  0  0
   -3.3962   -4.2085    2.4278 H   0  0  0  0  0  0  0  0  0  0  0  0
   -2.3603   -2.8101    0.9442 H   0  0  0  0  0  0  0  0  0  0  0  0
   -4.2565   -2.6279   -1.3702 H   0  0  0  0  0  0  0  0  0  0  0  0
   -2.6067   -3.2014   -1.5152 H   0  0  0  0  0  0  0  0  0  0  0  0
   -2.9919   -0.7849   -2.1320 H   0  0  0  0  0  0  0  0  0  0  0  0
   -3.3119   -0.4080   -0.4411 H   0  0  0  0  0  0  0  0  0  0  0  0
   -0.7162   -1.7226   -1.4080 H   0  0  0  0  0  0  0  0  0  0  0  0
   -1.0184   -1.0532    0.1971 H   0  0  0  0  0  0  0  0  0  0  0  0
   -0.9011    0.4878   -2.4523 H   0  0  0  0  0  0  0  0  0  0  0  0
   -1.3924    1.2253   -0.9376 H   0  0  0  0  0  0  0  0  0  0  0  0
    0.9321    1.7262   -1.4887 H   0  0  0  0  0  0  0  0  0  0  0  0
    0.7999    0.8954    0.0566 H   0  0  0  0  0  0  0  0  0  0  0  0
    1.4590   -0.5733   -2.5550 H   0  0  0  0  0  0  0  0  0  0  0  0
    1.6407   -1.2160   -0.9405 H   0  0  0  0  0  0  0  0  0  0  0  0
    4.0260    0.1131    1.4747 H   0  0  0  0  0  0  0  0  0  0  0  0
    2.4636   -0.3241    0.9523 H   0  0  0  0  0  0  0  0  0  0  0  0
    6.1996   -0.9773   -2.6597 H   0  0  0  0  0  0  0  0  0  0  0  0
    4.6051   -0.5080   -2.6098 H   0  0  0  0  0  0  0  0  0  0  0  0
    7.3963    1.0746   -2.5544 H   0  0  0  0  0  0  0  0  0  0  0  0
    7.0922    3.0733   -1.1755 H   0  0  0  0  0  0  0  0  0  0  0  0
    7.2063    2.0500    0.2492 H   0  0  0  0  0  0  0  0  0  0  0  0
    9.3343    3.1563   -0.1820 H   0  0  0  0  0  0  0  0  0  0  0  0
    8.9824    3.4317   -2.6525 H   0  0  0  0  0  0  0  0  0  0  0  0
    9.4444    1.7499   -2.8966 H   0  0  0  0  0  0  0  0  0  0  0  0
   11.2626    3.8533   -1.6119 H   0  0  0  0  0  0  0  0  0  0  0  0
   11.7129    2.1937   -2.0647 H   0  0  0  0  0  0  0  0  0  0  0  0
   11.3033    3.3672   -3.3138 H   0  0  0  0  0  0  0  0  0  0  0  0
   10.8873    1.2204   -0.2492 H   0  0  0  0  0  0  0  0  0  0  0  0
    9.6010    0.1674   -0.8280 H   0  0  0  0  0  0  0  0  0  0  0  0
    9.4646    1.7216    1.8189 H   0  0  0  0  0  0  0  0  0  0  0  0
    8.3928    0.4154    1.3097 H   0  0  0  0  0  0  0  0  0  0  0  0
   10.0706   -0.2983    2.9892 H   0  0  0  0  0  0  0  0  0  0  0  0
   11.3828    0.1344    1.9083 H   0  0  0  0  0  0  0  0  0  0  0  0
    9.2612   -1.9921    1.3097 H   0  0  0  0  0  0  0  0  0  0  0  0
   10.8941   -2.3158    1.9113 H   0  0  0  0  0  0  0  0  0  0  0  0
   10.6690   -1.6280    0.2992 H   0  0  0  0  0  0  0  0  0  0  0  0
  1  2  1  0
  2  3  1  0
  3  4  1  0
  4  5  1  0
  5  6  1  0
  6  7  1  0
  5  8  1  0
  8  9  1  0
  9 10  2  3
 10 11  1  0
 10 12  1  0
 12 13  2  3
 13 14  1  0
 13 15  1  0
 15 16  1  0
 16 17  1  0
 17 18  1  0
 18 19  1  0
 19 20  1  0
 20 21  1  0
 21 22  1  0
 22 23  2  3
 23 24  1  0
 23 25  1  0
 25 26  2  3
 26 27  1  0
 26 28  1  0
 28 29  1  0
 29 30  1  0
 30 31  1  0
 31 32  1  0
 30 33  1  0
 33 34  1  0
 34 35  1  0
 35 36  1  0
  1 37  1  0
  1 38  1  0
  1 39  1  0
  2 40  1  0
  2 41  1  0
  3 42  1  0
  3 43  1  0
  4 44  1  0
  4 45  1  0
  5 46  1  0
  6 47  1  0
  6 48  1  0
  7 49  1  0
  7 50  1  0
  7 51  1  0
  8 52  1  0
  8 53  1  0
 11 54  1  0
 11 55  1  0
 14 56  1  0
 14 57  1  0
 15 58  1  0
 16 59  1  0
 16 60  1  0
 17 61  1  0
 17 62  1  0
 18 63  1  0
 18 64  1  0
 19 65  1  0
 19 66  1  0
 20 67  1  0
 20 68  1  0
 21 69  1  0
 21 70  1  0
 24 71  1  0
 24 72  1  0
 27 73  1  0
 27 74  1  0
 28 75  1  0
 29 76  1  0
 29 77  1  0
 30 78  1  0
 31 79  1  0
 31 80  1  0
 32 81  1  0
 32 82  1  0
 32 83  1  0
 33 84  1  0
 33 85  1  0
 34 86  1  0
 34 87  1  0
 35 88  1  0
 35 89  1  0
 36 90  1  0
 36 91  1  0
 36 92  1  0
M  END
$$$$
