
     RDKit          3D

 37 37  0  0  0  0  0  0  0  0999 V2000
    4.3069    1.2229    2.1632 C   0  0  0  0  0  0  0  0  0  0  0  0
    3.7225   -0.1811    2.1503 C   0  0  0  0  0  0  0  0  0  0  0  0
    3.4069   -0.6988    0.7453 C   0  0  0  0  0  0  0  0  0  0  0  0
    2.2968    0.0887    0.0440 C   0  0  0  0  0  0  0  0  0  0  0  0
    1.9427   -0.5407   -1.3057 C   0  0  0  0  0  0  0  0  0  0  0  0
    0.9212    0.2709   -2.1085 C   0  0  0  0  0  0  0  0  0  0  0  0
   -0.4289    0.5057   -1.4252 C   0  0  0  0  0  0  0  0  0  0  0  0
   -1.1679   -0.7884   -1.0761 C   0  0  0  0  0  0  0  0  0  0  0  0
   -2.4974   -0.4846   -0.5196 N   0  0  0  0  0  0  0  0  0  0  0  0
   -2.6683   -0.2546    0.8403 C   0  0  0  0  0  0  0  0  0  0  0  0
   -3.8375    0.0557    1.4139 C   0  0  0  0  0  0  0  0  0  0  0  0
   -5.0354    0.1691    0.5463 C   0  0  0  0  0  0  0  0  0  0  0  0
   -6.1829    0.4618    1.0669 N   0  0  0  0  0  0  0  0  0  0  0  0
   -4.8433   -0.0632   -0.9100 C   0  0  0  0  0  0  0  0  0  0  0  0
   -3.6116   -0.3662   -1.3409 C   0  0  0  0  0  0  0  0  0  0  0  0
    3.5796    1.9636    1.8182 H   0  0  0  0  0  0  0  0  0  0  0  0
    5.1946    1.2852    1.5260 H   0  0  0  0  0  0  0  0  0  0  0  0
    4.6009    1.4976    3.1813 H   0  0  0  0  0  0  0  0  0  0  0  0
    4.4436   -0.8625    2.6172 H   0  0  0  0  0  0  0  0  0  0  0  0
    2.8178   -0.2053    2.7689 H   0  0  0  0  0  0  0  0  0  0  0  0
    3.1032   -1.7498    0.8281 H   0  0  0  0  0  0  0  0  0  0  0  0
    4.3173   -0.6802    0.1340 H   0  0  0  0  0  0  0  0  0  0  0  0
    1.4124    0.1122    0.6904 H   0  0  0  0  0  0  0  0  0  0  0  0
    2.6150    1.1248   -0.1158 H   0  0  0  0  0  0  0  0  0  0  0  0
    1.5752   -1.5623   -1.1550 H   0  0  0  0  0  0  0  0  0  0  0  0
    2.8545   -0.6293   -1.9100 H   0  0  0  0  0  0  0  0  0  0  0  0
    1.3587    1.2468   -2.3533 H   0  0  0  0  0  0  0  0  0  0  0  0
    0.7505   -0.2376   -3.0656 H   0  0  0  0  0  0  0  0  0  0  0  0
   -0.2937    1.1163   -0.5247 H   0  0  0  0  0  0  0  0  0  0  0  0
   -1.0512    1.1065   -2.1012 H   0  0  0  0  0  0  0  0  0  0  0  0
   -1.2697   -1.4163   -1.9703 H   0  0  0  0  0  0  0  0  0  0  0  0
   -0.5949   -1.3771   -0.3502 H   0  0  0  0  0  0  0  0  0  0  0  0
   -1.7655   -0.3436    1.4377 H   0  0  0  0  0  0  0  0  0  0  0  0
   -3.9554    0.2302    2.4739 H   0  0  0  0  0  0  0  0  0  0  0  0
   -6.9067    0.5039    0.3444 H   0  0  0  0  0  0  0  0  0  0  0  0
   -5.6894    0.0197   -1.5759 H   0  0  0  0  0  0  0  0  0  0  0  0
   -3.4205   -0.5401   -2.3960 H   0  0  0  0  0  0  0  0  0  0  0  0
  1  2  1  0
  2  3  1  0
  3  4  1  0
  4  5  1  0
  5  6  1  0
  6  7  1  0
  7  8  1  0
  8  9  1  0
  9 10  1  0
 10 11  2  0
 11 12  1  0
 12 13  2  3
 12 14  1  0
 14 15  2  0
 15  9  1  0
  1 16  1  0
  1 17  1  0
  1 18  1  0
  2 19  1  0
  2 20  1  0
  3 21  1  0
  3 22  1  0
  4 23  1  0
  4 24  1  0
  5 25  1  0
  5 26  1  0
  6 27  1  0
  6 28  1  0
  7 29  1  0
  7 30  1  0
  8 31  1  0
  8 32  1  0
 10 33  1  0
 11 34  1  0
 13 35  1  0
 14 36  1  0
 15 37  1  0
M  END
$$$$
