
     RDKit          3D

 57 61  0  0  0  0  0  0  0  0999 V2000
   -6.8235    1.7968    0.4852 C   0  0  0  0  0  0  0  0  0  0  0  0
   -5.8230    2.7806    0.0390 N   0  0  0  0  0  0  0  0  0  0  0  0
   -5.1315    3.4507    1.1532 C   0  0  0  0  0  0  0  0  0  0  0  0
   -4.9030    2.3916   -1.3353 S   0  0  0  0  0  6  0  0  0  0  0  0
   -4.0508    3.5169   -1.6563 O   0  0  0  0  0  0  0  0  0  0  0  0
   -5.7872    1.8222   -2.3315 O   0  0  0  0  0  0  0  0  0  0  0  0
   -3.8474    1.0792   -0.7576 C   0  0  0  0  0  0  0  0  0  0  0  0
   -4.1914   -0.2456   -0.9961 C   0  0  0  0  0  0  0  0  0  0  0  0
   -3.3228   -1.2709   -0.6009 C   0  0  0  0  0  0  0  0  0  0  0  0
   -2.0909   -1.0217    0.0392 C   0  0  0  0  0  0  0  0  0  0  0  0
   -1.2684   -2.0715    0.4335 N   0  0  0  0  0  0  0  0  0  0  0  0
   -0.5352   -2.0123    1.7173 C   0  0  0  0  0  0  0  0  0  0  0  0
   -0.4614   -3.4625    2.1957 C   0  0  0  0  0  0  0  0  0  0  0  0
   -0.5292   -4.2546    0.9032 C   0  0  0  0  0  0  0  0  0  0  0  0
   -1.5680   -3.4722    0.1088 C   0  0  0  0  0  0  0  0  0  0  0  0
   -1.7560    0.3455    0.2052 C   0  0  0  0  0  0  0  0  0  0  0  0
   -0.4268    0.8002    0.6785 C   0  0  0  0  0  0  0  0  0  0  0  0
   -0.3854    1.4960    1.6847 O   0  0  0  0  0  0  0  0  0  0  0  0
    0.6024    0.3972   -0.1367 N   0  0  0  0  0  0  0  0  0  0  0  0
    1.9383    0.6537    0.0224 C   0  0  0  0  0  0  0  0  0  0  0  0
    2.8162    0.1805   -0.8279 N   0  0  0  0  0  0  0  0  0  0  0  0
    4.1009    0.5578   -0.4443 C   0  0  0  0  0  0  0  0  0  0  0  0
    4.1574    1.3297    0.7194 C   0  0  0  0  0  0  0  0  0  0  0  0
    5.3706    1.7891    1.2545 C   0  0  0  0  0  0  0  0  0  0  0  0
    6.5574    1.4565    0.5933 C   0  0  0  0  0  0  0  0  0  0  0  0
    6.5507    0.6891   -0.5785 C   0  0  0  0  0  0  0  0  0  0  0  0
    7.7382    0.3517   -1.2469 C   0  0  0  0  0  0  0  0  0  0  0  0
    7.7083   -0.4117   -2.4165 C   0  0  0  0  0  0  0  0  0  0  0  0
    6.4931   -0.8529   -2.9380 C   0  0  0  0  0  0  0  0  0  0  0  0
    5.3011   -0.5330   -2.2905 C   0  0  0  0  0  0  0  0  0  0  0  0
    5.3197    0.2347   -1.1094 C   0  0  0  0  0  0  0  0  0  0  0  0
    2.5580    1.5712    1.3092 S   0  0  0  0  0  0  0  0  0  0  0  0
   -2.6243    1.3852   -0.1717 C   0  0  0  0  0  0  0  0  0  0  0  0
   -6.3667    1.0213    1.1076 H   0  0  0  0  0  0  0  0  0  0  0  0
   -7.3294    1.3259   -0.3611 H   0  0  0  0  0  0  0  0  0  0  0  0
   -7.5978    2.3104    1.0669 H   0  0  0  0  0  0  0  0  0  0  0  0
   -4.6421    2.7208    1.8078 H   0  0  0  0  0  0  0  0  0  0  0  0
   -5.8614    4.0189    1.7426 H   0  0  0  0  0  0  0  0  0  0  0  0
   -4.3863    4.1645    0.7932 H   0  0  0  0  0  0  0  0  0  0  0  0
   -5.1235   -0.4980   -1.4979 H   0  0  0  0  0  0  0  0  0  0  0  0
   -3.6457   -2.2852   -0.8124 H   0  0  0  0  0  0  0  0  0  0  0  0
    0.4803   -1.6445    1.5515 H   0  0  0  0  0  0  0  0  0  0  0  0
   -1.0331   -1.3914    2.4676 H   0  0  0  0  0  0  0  0  0  0  0  0
    0.4459   -3.6657    2.7730 H   0  0  0  0  0  0  0  0  0  0  0  0
   -1.3284   -3.6936    2.8260 H   0  0  0  0  0  0  0  0  0  0  0  0
   -0.8160   -5.2976    1.0585 H   0  0  0  0  0  0  0  0  0  0  0  0
    0.4424   -4.2321    0.3946 H   0  0  0  0  0  0  0  0  0  0  0  0
   -2.5671   -3.7521    0.4623 H   0  0  0  0  0  0  0  0  0  0  0  0
   -1.4871   -3.6712   -0.9640 H   0  0  0  0  0  0  0  0  0  0  0  0
    0.3944   -0.2080   -0.9219 H   0  0  0  0  0  0  0  0  0  0  0  0
    5.3895    2.3877    2.1618 H   0  0  0  0  0  0  0  0  0  0  0  0
    7.4993    1.8095    1.0102 H   0  0  0  0  0  0  0  0  0  0  0  0
    8.7005    0.6819   -0.8592 H   0  0  0  0  0  0  0  0  0  0  0  0
    8.6364   -0.6651   -2.9216 H   0  0  0  0  0  0  0  0  0  0  0  0
    6.4739   -1.4448   -3.8498 H   0  0  0  0  0  0  0  0  0  0  0  0
    4.3553   -0.8796   -2.7029 H   0  0  0  0  0  0  0  0  0  0  0  0
   -2.3194    2.4207   -0.0370 H   0  0  0  0  0  0  0  0  0  0  0  0
  1  2  1  0
  2  3  1  0
  2  4  1  0
  4  5  2  0
  4  6  2  0
  4  7  1  0
  7  8  2  0
  8  9  1  0
  9 10  2  0
 10 11  1  0
 11 12  1  0
 12 13  1  0
 13 14  1  0
 14 15  1  0
 10 16  1  0
 16 17  1  0
 17 18  2  0
 17 19  1  0
 19 20  1  0
 20 21  2  0
 21 22  1  0
 22 23  2  0
 23 24  1  0
 24 25  2  0
 25 26  1  0
 26 27  2  0
 27 28  1  0
 28 29  2  0
 29 30  1  0
 30 31  2  0
 23 32  1  0
 16 33  2  0
 33  7  1  0
 15 11  1  0
 32 20  1  0
 31 22  1  0
 31 26  1  0
  1 34  1  0
  1 35  1  0
  1 36  1  0
  3 37  1  0
  3 38  1  0
  3 39  1  0
  8 40  1  0
  9 41  1  0
 12 42  1  0
 12 43  1  0
 13 44  1  0
 13 45  1  0
 14 46  1  0
 14 47  1  0
 15 48  1  0
 15 49  1  0
 19 50  1  0
 24 51  1  0
 25 52  1  0
 27 53  1  0
 28 54  1  0
 29 55  1  0
 30 56  1  0
 33 57  1  0
M  END
$$$$
