
     RDKit          3D

 49 51  0  0  0  0  0  0  0  0999 V2000
   -3.4535    2.5746   -1.3421 C   0  0  0  0  0  0  0  0  0  0  0  0
   -3.8401    2.1794    0.0752 C   0  0  0  0  0  0  0  0  0  0  0  0
   -2.7967    1.4514    0.7702 N   0  0  0  0  0  0  0  0  0  0  0  0
   -1.7388    1.9700    1.4660 C   0  0  0  0  0  0  0  0  0  0  0  0
   -1.3391    3.6486    1.5380 S   0  0  0  0  0  0  0  0  0  0  0  0
    0.2323    3.6024    2.4520 C   0  0  0  0  0  0  0  0  0  0  0  0
    1.3720    3.1302    1.5649 C   0  0  0  0  0  0  0  0  0  0  0  0
    2.0748    3.9249    0.9414 O   0  0  0  0  0  0  0  0  0  0  0  0
    1.5174    1.7491    1.5536 N   0  0  0  0  0  0  0  0  0  0  0  0
    2.4548    1.1666    0.7520 N   0  0  0  0  0  0  0  0  0  0  0  0
    2.3407   -0.1176    0.6278 C   0  0  0  0  0  0  0  0  0  0  0  0
    3.2603   -0.9667   -0.1865 C   0  0  0  0  0  0  0  0  0  0  0  0
    2.7630   -2.3444   -0.4934 C   0  0  0  0  0  0  0  0  0  0  0  0
    4.4358   -0.4178   -0.5450 C   0  0  0  0  0  0  0  0  0  0  0  0
    5.4623   -1.1053   -1.2532 C   0  0  0  0  0  0  0  0  0  0  0  0
    6.6471   -0.5780   -1.7615 C   0  0  0  0  0  0  0  0  0  0  0  0
    7.3823   -1.6330   -2.3522 C   0  0  0  0  0  0  0  0  0  0  0  0
    6.6176   -2.7574   -2.1849 C   0  0  0  0  0  0  0  0  0  0  0  0
    5.4689   -2.4542   -1.5354 O   0  0  0  0  0  0  0  0  0  0  0  0
   -1.0765    1.0037    2.0565 N   0  0  0  0  0  0  0  0  0  0  0  0
   -1.6825   -0.1779    1.7306 N   0  0  0  0  0  0  0  0  0  0  0  0
   -2.7229    0.0844    0.9580 C   0  0  0  0  0  0  0  0  0  0  0  0
   -3.6620   -0.9070    0.4433 C   0  0  0  0  0  0  0  0  0  0  0  0
   -4.4392   -1.6512    1.3411 C   0  0  0  0  0  0  0  0  0  0  0  0
   -5.3562   -2.5940    0.8720 C   0  0  0  0  0  0  0  0  0  0  0  0
   -5.4972   -2.8075   -0.4993 C   0  0  0  0  0  0  0  0  0  0  0  0
   -4.7116   -2.0885   -1.4001 C   0  0  0  0  0  0  0  0  0  0  0  0
   -3.7921   -1.1455   -0.9308 C   0  0  0  0  0  0  0  0  0  0  0  0
   -3.1637    1.7075   -1.9403 H   0  0  0  0  0  0  0  0  0  0  0  0
   -2.6098    3.2733   -1.3482 H   0  0  0  0  0  0  0  0  0  0  0  0
   -4.2987    3.0647   -1.8370 H   0  0  0  0  0  0  0  0  0  0  0  0
   -4.0789    3.0707    0.6665 H   0  0  0  0  0  0  0  0  0  0  0  0
   -4.7476    1.5640    0.0686 H   0  0  0  0  0  0  0  0  0  0  0  0
    0.4674    4.6163    2.7910 H   0  0  0  0  0  0  0  0  0  0  0  0
    0.1536    2.9797    3.3508 H   0  0  0  0  0  0  0  0  0  0  0  0
    0.7466    1.1712    1.9029 H   0  0  0  0  0  0  0  0  0  0  0  0
    1.5294   -0.6735    1.1365 H   0  0  0  0  0  0  0  0  0  0  0  0
    2.9689   -2.6279   -1.5295 H   0  0  0  0  0  0  0  0  0  0  0  0
    3.2170   -3.0779    0.1819 H   0  0  0  0  0  0  0  0  0  0  0  0
    1.6746   -2.4103   -0.3757 H   0  0  0  0  0  0  0  0  0  0  0  0
    4.6564    0.6108   -0.2640 H   0  0  0  0  0  0  0  0  0  0  0  0
    6.9433    0.4613   -1.6986 H   0  0  0  0  0  0  0  0  0  0  0  0
    8.3497   -1.5780   -2.8327 H   0  0  0  0  0  0  0  0  0  0  0  0
    6.7443   -3.7971   -2.4543 H   0  0  0  0  0  0  0  0  0  0  0  0
   -4.3296   -1.4993    2.4125 H   0  0  0  0  0  0  0  0  0  0  0  0
   -5.9563   -3.1647    1.5762 H   0  0  0  0  0  0  0  0  0  0  0  0
   -6.2103   -3.5440   -0.8651 H   0  0  0  0  0  0  0  0  0  0  0  0
   -4.8104   -2.2692   -2.4688 H   0  0  0  0  0  0  0  0  0  0  0  0
   -3.1666   -0.6171   -1.6456 H   0  0  0  0  0  0  0  0  0  0  0  0
  1  2  1  0
  2  3  1  0
  3  4  1  0
  4  5  1  0
  5  6  1  0
  6  7  1  0
  7  8  2  0
  7  9  1  0
  9 10  1  0
 10 11  2  3
 11 12  1  0
 12 13  1  0
 12 14  2  3
 14 15  1  0
 15 16  2  0
 16 17  1  0
 17 18  2  0
 18 19  1  0
  4 20  2  0
 20 21  1  0
 21 22  2  0
 22 23  1  0
 23 24  2  0
 24 25  1  0
 25 26  2  0
 26 27  1  0
 27 28  2  0
 22  3  1  0
 28 23  1  0
 19 15  1  0
  1 29  1  0
  1 30  1  0
  1 31  1  0
  2 32  1  0
  2 33  1  0
  6 34  1  0
  6 35  1  0
  9 36  1  0
 11 37  1  0
 13 38  1  0
 13 39  1  0
 13 40  1  0
 14 41  1  0
 16 42  1  0
 17 43  1  0
 18 44  1  0
 24 45  1  0
 25 46  1  0
 26 47  1  0
 27 48  1  0
 28 49  1  0
M  END
$$$$
