
     RDKit          3D

 42 43  0  0  0  0  0  0  0  0999 V2000
    6.1612    1.8618   -1.5306 C   0  0  0  0  0  0  0  0  0  0  0  0
    4.7343    1.8928   -1.0836 C   0  0  0  0  0  0  0  0  0  0  0  0
    4.1625    3.2512   -0.2248 S   0  0  0  0  0  0  0  0  0  0  0  0
    2.6020    2.5992   -0.0910 C   0  0  0  0  0  0  0  0  0  0  0  0
    1.6427    3.2957    0.5414 N   0  0  0  0  0  0  0  0  0  0  0  0
    0.4747    2.6588    0.5703 C   0  0  0  0  0  0  0  0  0  0  0  0
    0.1978    1.4558    0.0560 N   0  0  0  0  0  0  0  0  0  0  0  0
    1.1925    0.7884   -0.5610 C   0  0  0  0  0  0  0  0  0  0  0  0
    0.7823   -0.8008   -1.2129 S   0  0  0  0  0  0  0  0  0  0  0  0
    0.8063   -1.7483    0.3410 C   0  0  0  0  0  0  0  0  0  0  0  0
   -0.3823   -1.4901    1.2556 C   0  0  0  0  0  0  0  0  0  0  0  0
   -0.2938   -1.6634    2.4709 O   0  0  0  0  0  0  0  0  0  0  0  0
   -1.5662   -1.1614    0.6310 N   0  0  0  0  0  0  0  0  0  0  0  0
   -2.7783   -0.8416    1.3812 C   0  0  0  0  0  0  0  0  0  0  0  0
   -2.6987    0.6023    1.8860 C   0  0  0  0  0  0  0  0  0  0  0  0
   -4.0278   -1.1019    0.4997 C   0  0  0  0  0  0  0  0  0  0  0  0
   -5.3348   -0.7182    1.2002 C   0  0  0  0  0  0  0  0  0  0  0  0
   -4.1053   -2.5770    0.0788 C   0  0  0  0  0  0  0  0  0  0  0  0
    2.4779    1.3468   -0.6781 C   0  0  0  0  0  0  0  0  0  0  0  0
    3.7452    0.9343   -1.2749 C   0  0  0  0  0  0  0  0  0  0  0  0
    3.9717   -0.3520   -2.0100 C   0  0  0  0  0  0  0  0  0  0  0  0
    6.6561    0.9600   -1.1553 H   0  0  0  0  0  0  0  0  0  0  0  0
    6.2126    1.8548   -2.6242 H   0  0  0  0  0  0  0  0  0  0  0  0
    6.7325    2.7249   -1.1726 H   0  0  0  0  0  0  0  0  0  0  0  0
   -0.3429    3.1719    1.0669 H   0  0  0  0  0  0  0  0  0  0  0  0
    0.8033   -2.8138    0.0902 H   0  0  0  0  0  0  0  0  0  0  0  0
    1.7296   -1.5269    0.8866 H   0  0  0  0  0  0  0  0  0  0  0  0
   -1.4645   -0.7432   -0.2892 H   0  0  0  0  0  0  0  0  0  0  0  0
   -2.8122   -1.5038    2.2559 H   0  0  0  0  0  0  0  0  0  0  0  0
   -2.7436    1.3122    1.0521 H   0  0  0  0  0  0  0  0  0  0  0  0
   -1.7616    0.7856    2.4223 H   0  0  0  0  0  0  0  0  0  0  0  0
   -3.5147    0.8310    2.5781 H   0  0  0  0  0  0  0  0  0  0  0  0
   -3.9478   -0.5012   -0.4163 H   0  0  0  0  0  0  0  0  0  0  0  0
   -6.1979   -0.9692    0.5744 H   0  0  0  0  0  0  0  0  0  0  0  0
   -5.3856    0.3574    1.3935 H   0  0  0  0  0  0  0  0  0  0  0  0
   -5.4437   -1.2456    2.1532 H   0  0  0  0  0  0  0  0  0  0  0  0
   -4.1591   -3.2344    0.9537 H   0  0  0  0  0  0  0  0  0  0  0  0
   -4.9926   -2.7591   -0.5369 H   0  0  0  0  0  0  0  0  0  0  0  0
   -3.2334   -2.8707   -0.5147 H   0  0  0  0  0  0  0  0  0  0  0  0
    3.8015   -1.2071   -1.3484 H   0  0  0  0  0  0  0  0  0  0  0  0
    3.3041   -0.4206   -2.8750 H   0  0  0  0  0  0  0  0  0  0  0  0
    4.9958   -0.4342   -2.3876 H   0  0  0  0  0  0  0  0  0  0  0  0
  1  2  1  0
  2  3  1  0
  3  4  1  0
  4  5  2  0
  5  6  1  0
  6  7  2  0
  7  8  1  0
  8  9  1  0
  9 10  1  0
 10 11  1  0
 11 12  2  0
 11 13  1  0
 13 14  1  0
 14 15  1  0
 14 16  1  0
 16 17  1  0
 16 18  1  0
  8 19  2  0
 19 20  1  0
 20 21  1  0
 20  2  2  0
 19  4  1  0
  1 22  1  0
  1 23  1  0
  1 24  1  0
  6 25  1  0
 10 26  1  0
 10 27  1  0
 13 28  1  0
 14 29  1  0
 15 30  1  0
 15 31  1  0
 15 32  1  0
 16 33  1  0
 17 34  1  0
 17 35  1  0
 17 36  1  0
 18 37  1  0
 18 38  1  0
 18 39  1  0
 21 40  1  0
 21 41  1  0
 21 42  1  0
M  END
$$$$
