
     RDKit          3D

 44 46  0  0  0  0  0  0  0  0999 V2000
    5.3324    2.4404    0.1616 C   0  0  0  0  0  0  0  0  0  0  0  0
    5.8304    1.2546   -0.4460 O   0  0  0  0  0  0  0  0  0  0  0  0
    5.7418    0.1071    0.3949 C   0  0  0  0  0  0  0  0  0  0  0  0
    4.3156   -0.4139    0.5468 C   0  0  0  0  0  0  0  0  0  0  0  0
    3.6484   -0.6576   -0.8103 C   0  0  0  0  0  0  0  0  0  0  0  0
    2.3030   -1.2365   -0.6554 N   0  0  0  0  0  0  0  0  0  0  0  0
    2.0940   -2.6151   -0.6503 C   0  0  0  0  0  0  0  0  0  0  0  0
    3.2547   -3.8175   -0.8086 S   0  0  0  0  0  0  0  0  0  0  0  0
    0.8031   -3.0443   -0.4985 N   0  0  0  0  0  0  0  0  0  0  0  0
   -0.2869   -2.1947   -0.3394 C   0  0  0  0  0  0  0  0  0  0  0  0
   -1.5665   -2.7158   -0.2026 C   0  0  0  0  0  0  0  0  0  0  0  0
   -2.6536   -1.8465   -0.0378 C   0  0  0  0  0  0  0  0  0  0  0  0
   -2.4991   -0.4490   -0.0028 C   0  0  0  0  0  0  0  0  0  0  0  0
   -3.5799    0.3977    0.1572 N   0  0  0  0  0  0  0  0  0  0  0  0
   -4.8550   -0.0567    0.7378 C   0  0  0  0  0  0  0  0  0  0  0  0
   -5.5663    1.1130    1.4394 C   0  0  0  0  0  0  0  0  0  0  0  0
   -5.8578    2.2208    0.5773 O   0  0  0  0  0  0  0  0  0  0  0  0
   -4.9155    2.3691   -0.4939 C   0  0  0  0  0  0  0  0  0  0  0  0
   -3.5096    1.8318   -0.1754 C   0  0  0  0  0  0  0  0  0  0  0  0
   -1.1901    0.0380   -0.1455 C   0  0  0  0  0  0  0  0  0  0  0  0
   -0.0969   -0.8260   -0.3122 C   0  0  0  0  0  0  0  0  0  0  0  0
    1.2734   -0.3015   -0.4528 C   0  0  0  0  0  0  0  0  0  0  0  0
    1.4524    0.9130   -0.3741 O   0  0  0  0  0  0  0  0  0  0  0  0
    4.2519    2.3770    0.3147 H   0  0  0  0  0  0  0  0  0  0  0  0
    5.5324    3.2777   -0.5126 H   0  0  0  0  0  0  0  0  0  0  0  0
    5.8402    2.6310    1.1119 H   0  0  0  0  0  0  0  0  0  0  0  0
    6.3598   -0.6711   -0.0666 H   0  0  0  0  0  0  0  0  0  0  0  0
    6.1829    0.3240    1.3748 H   0  0  0  0  0  0  0  0  0  0  0  0
    3.7164    0.3010    1.1220 H   0  0  0  0  0  0  0  0  0  0  0  0
    4.3360   -1.3386    1.1350 H   0  0  0  0  0  0  0  0  0  0  0  0
    4.2730   -1.3088   -1.4294 H   0  0  0  0  0  0  0  0  0  0  0  0
    3.5618    0.2872   -1.3604 H   0  0  0  0  0  0  0  0  0  0  0  0
    0.6589   -4.0480   -0.5073 H   0  0  0  0  0  0  0  0  0  0  0  0
   -1.7435   -3.7873   -0.2270 H   0  0  0  0  0  0  0  0  0  0  0  0
   -3.6424   -2.2919    0.0396 H   0  0  0  0  0  0  0  0  0  0  0  0
   -5.4882   -0.4511   -0.0653 H   0  0  0  0  0  0  0  0  0  0  0  0
   -4.6955   -0.8452    1.4821 H   0  0  0  0  0  0  0  0  0  0  0  0
   -6.5142    0.7729    1.8686 H   0  0  0  0  0  0  0  0  0  0  0  0
   -4.9515    1.4895    2.2657 H   0  0  0  0  0  0  0  0  0  0  0  0
   -4.8640    3.4343   -0.7408 H   0  0  0  0  0  0  0  0  0  0  0  0
   -5.3280    1.8516   -1.3683 H   0  0  0  0  0  0  0  0  0  0  0  0
   -3.0862    2.3753    0.6773 H   0  0  0  0  0  0  0  0  0  0  0  0
   -2.8785    2.0037   -1.0548 H   0  0  0  0  0  0  0  0  0  0  0  0
   -0.9930    1.1065   -0.1076 H   0  0  0  0  0  0  0  0  0  0  0  0
  1  2  1  0
  2  3  1  0
  3  4  1  0
  4  5  1  0
  5  6  1  0
  6  7  1  0
  7  8  2  0
  7  9  1  0
  9 10  1  0
 10 11  2  0
 11 12  1  0
 12 13  2  0
 13 14  1  0
 14 15  1  0
 15 16  1  0
 16 17  1  0
 17 18  1  0
 18 19  1  0
 13 20  1  0
 20 21  2  0
 21 22  1  0
 22 23  2  0
 22  6  1  0
 21 10  1  0
 19 14  1  0
  1 24  1  0
  1 25  1  0
  1 26  1  0
  3 27  1  0
  3 28  1  0
  4 29  1  0
  4 30  1  0
  5 31  1  0
  5 32  1  0
  9 33  1  0
 11 34  1  0
 12 35  1  0
 15 36  1  0
 15 37  1  0
 16 38  1  0
 16 39  1  0
 18 40  1  0
 18 41  1  0
 19 42  1  0
 19 43  1  0
 20 44  1  0
M  END
$$$$
