
     RDKit          3D

 69 73  0  0  0  0  0  0  0  0999 V2000
   -0.3267   -6.9759   -0.3811 C   0  0  0  0  0  0  0  0  0  0  0  0
   -0.8000   -5.9412    0.4719 O   0  0  0  0  0  0  0  0  0  0  0  0
   -1.2687   -4.8065   -0.1340 C   0  0  0  0  0  0  0  0  0  0  0  0
   -1.2743   -4.5516   -1.5065 C   0  0  0  0  0  0  0  0  0  0  0  0
   -1.7772   -3.3420   -1.9942 C   0  0  0  0  0  0  0  0  0  0  0  0
   -2.2767   -2.3830   -1.1130 C   0  0  0  0  0  0  0  0  0  0  0  0
   -2.2803   -2.6259    0.2657 C   0  0  0  0  0  0  0  0  0  0  0  0
   -2.7874   -1.6100    1.1934 C   0  0  0  0  0  0  0  0  0  0  0  0
   -4.2501   -1.9197    2.0215 S   0  0  0  0  0  0  0  0  0  0  0  0
   -4.2198   -0.4020    2.8282 C   0  0  0  0  0  0  0  0  0  0  0  0
   -5.1784    0.0820    3.7425 C   0  0  0  0  0  0  0  0  0  0  0  0
   -4.9976    1.3449    4.3197 C   0  0  0  0  0  0  0  0  0  0  0  0
   -5.8697    1.9105    5.2195 O   0  0  0  0  0  0  0  0  0  0  0  0
   -7.0088    1.1530    5.6028 C   0  0  0  0  0  0  0  0  0  0  0  0
   -3.8732    2.1159    3.9885 C   0  0  0  0  0  0  0  0  0  0  0  0
   -3.7766    3.3390    4.6072 O   0  0  0  0  0  0  0  0  0  0  0  0
   -2.6569    4.1533    4.2901 C   0  0  0  0  0  0  0  0  0  0  0  0
   -2.9323    1.6195    3.0757 C   0  0  0  0  0  0  0  0  0  0  0  0
   -3.0967    0.3431    2.4743 C   0  0  0  0  0  0  0  0  0  0  0  0
   -2.2734   -0.3648    1.5183 C   0  0  0  0  0  0  0  0  0  0  0  0
   -1.0321    0.1244    0.9296 C   0  0  0  0  0  0  0  0  0  0  0  0
    0.1978   -0.4093    1.3270 C   0  0  0  0  0  0  0  0  0  0  0  0
    1.3868    0.0494    0.7487 C   0  0  0  0  0  0  0  0  0  0  0  0
    1.3532    1.0421   -0.2320 C   0  0  0  0  0  0  0  0  0  0  0  0
    2.4344    1.5665   -0.8845 O   0  0  0  0  0  0  0  0  0  0  0  0
    3.7187    1.0296   -0.5530 C   0  0  0  0  0  0  0  0  0  0  0  0
    4.7991    1.6809   -1.4402 C   0  0  0  0  0  0  0  0  0  0  0  0
    4.9829    1.0354   -2.7575 N   0  0  0  0  0  0  0  0  0  0  0  0
    6.1585    1.5662   -3.4665 C   0  0  0  0  0  0  0  0  0  0  0  0
    5.8155    2.5417   -4.5895 C   0  0  0  0  0  0  0  0  0  0  0  0
    4.9156    1.8918   -5.6393 C   0  0  0  0  0  0  0  0  0  0  0  0
    4.0237    0.8043   -5.0441 C   0  0  0  0  0  0  0  0  0  0  0  0
    3.7499    1.0593   -3.5626 C   0  0  0  0  0  0  0  0  0  0  0  0
    0.1226    1.5806   -0.6191 C   0  0  0  0  0  0  0  0  0  0  0  0
   -1.0666    1.1293   -0.0418 C   0  0  0  0  0  0  0  0  0  0  0  0
   -1.7717   -3.8415    0.7446 C   0  0  0  0  0  0  0  0  0  0  0  0
    0.5406   -6.6435   -0.9645 H   0  0  0  0  0  0  0  0  0  0  0  0
   -0.0038   -7.8089    0.2524 H   0  0  0  0  0  0  0  0  0  0  0  0
   -1.1259   -7.3447   -1.0347 H   0  0  0  0  0  0  0  0  0  0  0  0
   -0.8913   -5.2694   -2.2240 H   0  0  0  0  0  0  0  0  0  0  0  0
   -1.7778   -3.1455   -3.0639 H   0  0  0  0  0  0  0  0  0  0  0  0
   -2.6631   -1.4454   -1.5075 H   0  0  0  0  0  0  0  0  0  0  0  0
   -6.0345   -0.5400    3.9762 H   0  0  0  0  0  0  0  0  0  0  0  0
   -7.5775    1.7466    6.3254 H   0  0  0  0  0  0  0  0  0  0  0  0
   -6.7157    0.2205    6.0965 H   0  0  0  0  0  0  0  0  0  0  0  0
   -7.6615    0.9604    4.7447 H   0  0  0  0  0  0  0  0  0  0  0  0
   -1.7201    3.6703    4.5860 H   0  0  0  0  0  0  0  0  0  0  0  0
   -2.6482    4.4177    3.2276 H   0  0  0  0  0  0  0  0  0  0  0  0
   -2.7469    5.0812    4.8625 H   0  0  0  0  0  0  0  0  0  0  0  0
   -2.0518    2.1921    2.8056 H   0  0  0  0  0  0  0  0  0  0  0  0
    0.2401   -1.1914    2.0818 H   0  0  0  0  0  0  0  0  0  0  0  0
    2.3165   -0.3983    1.0820 H   0  0  0  0  0  0  0  0  0  0  0  0
    3.9418    1.2739    0.4933 H   0  0  0  0  0  0  0  0  0  0  0  0
    3.7392   -0.0600   -0.6831 H   0  0  0  0  0  0  0  0  0  0  0  0
    4.5863    2.7501   -1.5671 H   0  0  0  0  0  0  0  0  0  0  0  0
    5.7454    1.5899   -0.8914 H   0  0  0  0  0  0  0  0  0  0  0  0
    6.6955    0.7122   -3.8994 H   0  0  0  0  0  0  0  0  0  0  0  0
    6.8698    2.0369   -2.7762 H   0  0  0  0  0  0  0  0  0  0  0  0
    5.3129    3.4211   -4.1672 H   0  0  0  0  0  0  0  0  0  0  0  0
    6.7317    2.9072   -5.0672 H   0  0  0  0  0  0  0  0  0  0  0  0
    5.5240    1.4542   -6.4395 H   0  0  0  0  0  0  0  0  0  0  0  0
    4.3006    2.6676   -6.1102 H   0  0  0  0  0  0  0  0  0  0  0  0
    4.5084   -0.1737   -5.1628 H   0  0  0  0  0  0  0  0  0  0  0  0
    3.0815    0.7527   -5.6020 H   0  0  0  0  0  0  0  0  0  0  0  0
    3.0661    0.2845   -3.1984 H   0  0  0  0  0  0  0  0  0  0  0  0
    3.2371    2.0256   -3.4678 H   0  0  0  0  0  0  0  0  0  0  0  0
    0.0899    2.3535   -1.3840 H   0  0  0  0  0  0  0  0  0  0  0  0
   -2.0135    1.5562   -0.3641 H   0  0  0  0  0  0  0  0  0  0  0  0
   -1.7589   -4.0434    1.8137 H   0  0  0  0  0  0  0  0  0  0  0  0
  1  2  1  0
  2  3  1  0
  3  4  2  0
  4  5  1  0
  5  6  2  0
  6  7  1  0
  7  8  1  0
  8  9  1  0
  9 10  1  0
 10 11  2  0
 11 12  1  0
 12 13  1  0
 13 14  1  0
 12 15  2  0
 15 16  1  0
 16 17  1  0
 15 18  1  0
 18 19  2  0
 19 20  1  0
 20 21  1  0
 21 22  2  0
 22 23  1  0
 23 24  2  0
 24 25  1  0
 25 26  1  0
 26 27  1  0
 27 28  1  0
 28 29  1  0
 29 30  1  0
 30 31  1  0
 31 32  1  0
 32 33  1  0
 24 34  1  0
 34 35  2  0
  7 36  2  0
 36  3  1  0
 20  8  2  0
 35 21  1  0
 19 10  1  0
 33 28  1  0
  1 37  1  0
  1 38  1  0
  1 39  1  0
  4 40  1  0
  5 41  1  0
  6 42  1  0
 11 43  1  0
 14 44  1  0
 14 45  1  0
 14 46  1  0
 17 47  1  0
 17 48  1  0
 17 49  1  0
 18 50  1  0
 22 51  1  0
 23 52  1  0
 26 53  1  0
 26 54  1  0
 27 55  1  0
 27 56  1  0
 29 57  1  0
 29 58  1  0
 30 59  1  0
 30 60  1  0
 31 61  1  0
 31 62  1  0
 32 63  1  0
 32 64  1  0
 33 65  1  0
 33 66  1  0
 34 67  1  0
 35 68  1  0
 36 69  1  0
M  END
$$$$
