
     RDKit          3D

 41 43  0  0  0  0  0  0  0  0999 V2000
    2.9381   -0.7450   -3.4986 C   0  0  0  0  0  0  0  0  0  0  0  0
    3.7688    0.1540   -2.7670 O   0  0  0  0  0  0  0  0  0  0  0  0
    3.7251    0.0542   -1.4002 C   0  0  0  0  0  0  0  0  0  0  0  0
    2.8786   -0.7742   -0.6620 C   0  0  0  0  0  0  0  0  0  0  0  0
    2.9412   -0.7706    0.7435 C   0  0  0  0  0  0  0  0  0  0  0  0
    2.0558   -1.6313    1.5344 C   0  0  0  0  0  0  0  0  0  0  0  0
    0.7347   -1.4614    1.6738 C   0  0  0  0  0  0  0  0  0  0  0  0
   -0.2576   -0.2212    1.0014 S   0  0  0  0  0  0  0  0  0  0  0  0
   -1.6949   -0.8450    1.7688 C   0  0  0  0  0  0  0  0  0  0  0  0
   -2.9067   -0.4079    1.7485 N   0  0  0  0  0  0  0  0  0  0  0  0
   -3.1985    0.7459    1.0001 C   0  0  0  0  0  0  0  0  0  0  0  0
   -3.2343    1.9812    1.6584 C   0  0  0  0  0  0  0  0  0  0  0  0
   -3.4819    3.1608    0.9521 C   0  0  0  0  0  0  0  0  0  0  0  0
   -3.7045    3.1159   -0.4243 C   0  0  0  0  0  0  0  0  0  0  0  0
   -3.6927    1.8909   -1.0912 C   0  0  0  0  0  0  0  0  0  0  0  0
   -3.4681    0.7081   -0.3815 C   0  0  0  0  0  0  0  0  0  0  0  0
   -3.4631   -0.4457   -1.1261 O   0  0  0  0  0  0  0  0  0  0  0  0
   -4.4276   -1.3923   -0.6591 C   0  0  0  0  0  0  0  0  0  0  0  0
   -1.3950   -1.9562    2.4841 N   0  0  0  0  0  0  0  0  0  0  0  0
   -0.0953   -2.3725    2.5061 C   0  0  0  0  0  0  0  0  0  0  0  0
    0.3186   -3.3424    3.1204 O   0  0  0  0  0  0  0  0  0  0  0  0
    3.8585    0.0597    1.4037 C   0  0  0  0  0  0  0  0  0  0  0  0
    4.7031    0.8922    0.6708 C   0  0  0  0  0  0  0  0  0  0  0  0
    4.6261    0.8826   -0.7172 C   0  0  0  0  0  0  0  0  0  0  0  0
    5.4634    1.7108   -1.4155 O   0  0  0  0  0  0  0  0  0  0  0  0
    1.8774   -0.5408   -3.3140 H   0  0  0  0  0  0  0  0  0  0  0  0
    3.1275   -0.5826   -4.5657 H   0  0  0  0  0  0  0  0  0  0  0  0
    3.1890   -1.7877   -3.2715 H   0  0  0  0  0  0  0  0  0  0  0  0
    2.1620   -1.4270   -1.1512 H   0  0  0  0  0  0  0  0  0  0  0  0
    2.5536   -2.4504    2.0496 H   0  0  0  0  0  0  0  0  0  0  0  0
   -3.0526    2.0240    2.7287 H   0  0  0  0  0  0  0  0  0  0  0  0
   -3.4925    4.1145    1.4747 H   0  0  0  0  0  0  0  0  0  0  0  0
   -3.8867    4.0344   -0.9784 H   0  0  0  0  0  0  0  0  0  0  0  0
   -3.8670    1.8550   -2.1642 H   0  0  0  0  0  0  0  0  0  0  0  0
   -5.3110   -0.9175   -0.2139 H   0  0  0  0  0  0  0  0  0  0  0  0
   -4.7636   -1.9707   -1.5241 H   0  0  0  0  0  0  0  0  0  0  0  0
   -3.9678   -2.0931    0.0466 H   0  0  0  0  0  0  0  0  0  0  0  0
   -2.1069   -2.4418    3.0037 H   0  0  0  0  0  0  0  0  0  0  0  0
    3.9151    0.0724    2.4920 H   0  0  0  0  0  0  0  0  0  0  0  0
    5.4112    1.5459    1.1747 H   0  0  0  0  0  0  0  0  0  0  0  0
    5.2203    1.5748   -2.3531 H   0  0  0  0  0  0  0  0  0  0  0  0
  1  2  1  0
  2  3  1  0
  3  4  2  0
  4  5  1  0
  5  6  1  0
  6  7  2  3
  7  8  1  0
  8  9  1  0
  9 10  2  3
 10 11  1  0
 11 12  2  0
 12 13  1  0
 13 14  2  0
 14 15  1  0
 15 16  2  0
 16 17  1  0
 17 18  1  0
  9 19  1  0
 19 20  1  0
 20 21  2  0
  5 22  2  0
 22 23  1  0
 23 24  2  0
 24 25  1  0
 24  3  1  0
 20  7  1  0
 16 11  1  0
  1 26  1  0
  1 27  1  0
  1 28  1  0
  4 29  1  0
  6 30  1  0
 12 31  1  0
 13 32  1  0
 14 33  1  0
 15 34  1  0
 18 35  1  0
 18 36  1  0
 18 37  1  0
 19 38  1  0
 22 39  1  0
 23 40  1  0
 25 41  1  0
M  END
$$$$
