
     RDKit          3D

 63 68  0  0  0  0  0  0  0  0999 V2000
   -3.9719    3.9035    4.6370 C   0  0  0  0  0  0  0  0  0  0  0  0
   -4.2531    3.5031    3.3023 O   0  0  0  0  0  0  0  0  0  0  0  0
   -3.5203    2.4613    2.8037 C   0  0  0  0  0  0  0  0  0  0  0  0
   -2.5142    1.7692    3.4758 C   0  0  0  0  0  0  0  0  0  0  0  0
   -1.8403    0.7168    2.8448 C   0  0  0  0  0  0  0  0  0  0  0  0
   -2.1608    0.3360    1.5326 C   0  0  0  0  0  0  0  0  0  0  0  0
   -1.4069   -0.8172    0.8636 C   0  0  0  0  0  0  0  0  0  0  0  0
   -2.3588   -1.8973    0.3787 C   0  0  0  0  0  0  0  0  0  0  0  0
   -3.0637   -2.6939    1.2891 C   0  0  0  0  0  0  0  0  0  0  0  0
   -3.9620   -3.6587    0.8330 C   0  0  0  0  0  0  0  0  0  0  0  0
   -4.1798   -3.8487   -0.5397 C   0  0  0  0  0  0  0  0  0  0  0  0
   -5.0896   -4.8179   -0.9945 C   0  0  0  0  0  0  0  0  0  0  0  0
   -5.3099   -5.0101   -2.3586 C   0  0  0  0  0  0  0  0  0  0  0  0
   -4.6233   -4.2360   -3.2864 C   0  0  0  0  0  0  0  0  0  0  0  0
   -3.7162   -3.2689   -2.8499 C   0  0  0  0  0  0  0  0  0  0  0  0
   -3.4761   -3.0542   -1.4754 C   0  0  0  0  0  0  0  0  0  0  0  0
   -2.5636   -2.0856   -0.9942 C   0  0  0  0  0  0  0  0  0  0  0  0
   -1.8926   -1.3246   -1.9297 O   0  0  0  0  0  0  0  0  0  0  0  0
   -0.7818   -0.5771   -1.5470 C   0  0  0  0  0  0  0  0  0  0  0  0
   -0.0202   -0.1120   -2.6030 N   0  0  0  0  0  0  0  0  0  0  0  0
    1.0181    0.5922   -2.2951 C   0  0  0  0  0  0  0  0  0  0  0  0
    1.4483    0.9009   -1.0248 N   0  0  0  0  0  0  0  0  0  0  0  0
    2.6885    1.6639   -0.8710 C   0  0  0  0  0  0  0  0  0  0  0  0
    3.8965    0.7119   -0.7420 C   0  0  0  0  0  0  0  0  0  0  0  0
    5.1680    1.4054   -0.4689 N   0  0  0  0  0  0  0  0  0  0  0  0
    5.5721    2.2951   -1.5827 C   0  0  0  0  0  0  0  0  0  0  0  0
    7.0906    2.5266   -1.6197 C   0  0  0  0  0  0  0  0  0  0  0  0
    7.8206    1.3190   -1.8709 O   0  0  0  0  0  0  0  0  0  0  0  0
    7.1765    0.1499   -1.3471 C   0  0  0  0  0  0  0  0  0  0  0  0
    6.2552    0.4483   -0.1537 C   0  0  0  0  0  0  0  0  0  0  0  0
    0.7441    0.4024    0.0621 C   0  0  0  0  0  0  0  0  0  0  0  0
    1.1012    0.5021    1.3054 N   0  0  0  0  0  0  0  0  0  0  0  0
   -0.5183   -0.3380   -0.2459 C   0  0  0  0  0  0  0  0  0  0  0  0
   -3.1692    1.0457    0.8622 C   0  0  0  0  0  0  0  0  0  0  0  0
   -3.8410    2.0944    1.4958 C   0  0  0  0  0  0  0  0  0  0  0  0
   -4.1707    3.0912    5.3439 H   0  0  0  0  0  0  0  0  0  0  0  0
   -4.6422    4.7320    4.8857 H   0  0  0  0  0  0  0  0  0  0  0  0
   -2.9436    4.2680    4.7313 H   0  0  0  0  0  0  0  0  0  0  0  0
   -2.2218    2.0234    4.4886 H   0  0  0  0  0  0  0  0  0  0  0  0
   -1.0452    0.2027    3.3820 H   0  0  0  0  0  0  0  0  0  0  0  0
   -0.7679   -1.3108    1.6103 H   0  0  0  0  0  0  0  0  0  0  0  0
   -2.9263   -2.5573    2.3598 H   0  0  0  0  0  0  0  0  0  0  0  0
   -4.4998   -4.2598    1.5634 H   0  0  0  0  0  0  0  0  0  0  0  0
   -5.6374   -5.4337   -0.2845 H   0  0  0  0  0  0  0  0  0  0  0  0
   -6.0172   -5.7636   -2.6943 H   0  0  0  0  0  0  0  0  0  0  0  0
   -4.7904   -4.3813   -4.3504 H   0  0  0  0  0  0  0  0  0  0  0  0
   -3.1893   -2.6753   -3.5954 H   0  0  0  0  0  0  0  0  0  0  0  0
    1.6558    0.9930   -3.1011 H   0  0  0  0  0  0  0  0  0  0  0  0
    2.8217    2.3285   -1.7337 H   0  0  0  0  0  0  0  0  0  0  0  0
    2.6264    2.3291   -0.0014 H   0  0  0  0  0  0  0  0  0  0  0  0
    3.6899    0.0230    0.0870 H   0  0  0  0  0  0  0  0  0  0  0  0
    3.9795    0.0913   -1.6441 H   0  0  0  0  0  0  0  0  0  0  0  0
    5.2743    1.8584   -2.5449 H   0  0  0  0  0  0  0  0  0  0  0  0
    5.0623    3.2583   -1.4743 H   0  0  0  0  0  0  0  0  0  0  0  0
    7.3438    3.2336   -2.4163 H   0  0  0  0  0  0  0  0  0  0  0  0
    7.4467    2.9582   -0.6769 H   0  0  0  0  0  0  0  0  0  0  0  0
    6.6139   -0.3215   -2.1614 H   0  0  0  0  0  0  0  0  0  0  0  0
    7.9634   -0.5502   -1.0485 H   0  0  0  0  0  0  0  0  0  0  0  0
    6.8588    0.9056    0.6407 H   0  0  0  0  0  0  0  0  0  0  0  0
    5.8642   -0.4873    0.2632 H   0  0  0  0  0  0  0  0  0  0  0  0
    1.9725    1.0186    1.4164 H   0  0  0  0  0  0  0  0  0  0  0  0
   -3.4451    0.7880   -0.1582 H   0  0  0  0  0  0  0  0  0  0  0  0
   -4.6225    2.6300    0.9625 H   0  0  0  0  0  0  0  0  0  0  0  0
  1  2  1  0
  2  3  1  0
  3  4  2  0
  4  5  1  0
  5  6  2  0
  6  7  1  0
  7  8  1  0
  8  9  2  0
  9 10  1  0
 10 11  2  0
 11 12  1  0
 12 13  2  0
 13 14  1  0
 14 15  2  0
 15 16  1  0
 16 17  2  0
 17 18  1  0
 18 19  1  0
 19 20  1  0
 20 21  2  0
 21 22  1  0
 22 23  1  0
 23 24  1  0
 24 25  1  0
 25 26  1  0
 26 27  1  0
 27 28  1  0
 28 29  1  0
 29 30  1  0
 22 31  1  0
 31 32  2  3
 31 33  1  0
  6 34  1  0
 34 35  2  0
 35  3  1  0
 33  7  1  0
 17  8  1  0
 33 19  2  0
 16 11  1  0
 30 25  1  0
  1 36  1  0
  1 37  1  0
  1 38  1  0
  4 39  1  0
  5 40  1  0
  7 41  1  0
  9 42  1  0
 10 43  1  0
 12 44  1  0
 13 45  1  0
 14 46  1  0
 15 47  1  0
 21 48  1  0
 23 49  1  0
 23 50  1  0
 24 51  1  0
 24 52  1  0
 26 53  1  0
 26 54  1  0
 27 55  1  0
 27 56  1  0
 29 57  1  0
 29 58  1  0
 30 59  1  0
 30 60  1  0
 32 61  1  0
 34 62  1  0
 35 63  1  0
M  END
$$$$
