
     RDKit          3D

 44 45  0  0  0  0  0  0  0  0999 V2000
    7.6708   -2.1427    0.7623 C   0  0  0  0  0  0  0  0  0  0  0  0
    6.3687   -1.4035    0.6549 C   0  0  0  0  0  0  0  0  0  0  0  0
    6.0665   -0.3655    1.5460 C   0  0  0  0  0  0  0  0  0  0  0  0
    4.8445    0.3133    1.4713 C   0  0  0  0  0  0  0  0  0  0  0  0
    3.8902   -0.0535    0.5189 C   0  0  0  0  0  0  0  0  0  0  0  0
    2.7107    0.6245    0.3806 O   0  0  0  0  0  0  0  0  0  0  0  0
    2.0353    0.9088    1.6061 C   0  0  0  0  0  0  0  0  0  0  0  0
    0.5242    1.0036    1.3853 C   0  0  0  0  0  0  0  0  0  0  0  0
   -0.1700    1.7090    2.1149 O   0  0  0  0  0  0  0  0  0  0  0  0
    0.0745    0.1886    0.3625 N   0  0  0  0  0  0  0  0  0  0  0  0
   -1.2411    0.0406   -0.0288 C   0  0  0  0  0  0  0  0  0  0  0  0
   -1.7249   -0.7730   -1.0782 C   0  0  0  0  0  0  0  0  0  0  0  0
   -3.0529   -0.7050   -1.2117 N   0  0  0  0  0  0  0  0  0  0  0  0
   -3.4179    0.1569   -0.2426 N   0  0  0  0  0  0  0  0  0  0  0  0
   -4.8189    0.4979   -0.0696 C   0  0  0  0  0  0  0  0  0  0  0  0
   -5.2978    1.4880   -1.1323 C   0  0  0  0  0  0  0  0  0  0  0  0
   -6.7213    1.9690   -0.8821 C   0  0  0  0  0  0  0  0  0  0  0  0
   -7.7179    0.8550   -1.0194 C   0  0  0  0  0  0  0  0  0  0  0  0
   -8.1128    0.1371   -0.1163 O   0  0  0  0  0  0  0  0  0  0  0  0
   -8.1325    0.6750   -2.2850 O   0  0  0  0  0  0  0  0  0  0  0  0
   -2.3682    0.6271    0.4916 C   0  0  0  0  0  0  0  0  0  0  0  0
    4.1946   -1.0920   -0.3706 C   0  0  0  0  0  0  0  0  0  0  0  0
    3.2243   -1.5128   -1.3757 N   0  0  0  0  0  4  0  0  0  0  0  0
    2.0243   -1.5318   -1.0543 O   0  0  0  0  0  0  0  0  0  0  0  0
    3.6646   -1.8529   -2.4827 O   0  0  0  0  0  1  0  0  0  0  0  0
    5.4200   -1.7732   -0.3050 C   0  0  0  0  0  0  0  0  0  0  0  0
    7.9948   -2.5073   -0.2183 H   0  0  0  0  0  0  0  0  0  0  0  0
    8.4616   -1.4875    1.1433 H   0  0  0  0  0  0  0  0  0  0  0  0
    7.5606   -2.9955    1.4393 H   0  0  0  0  0  0  0  0  0  0  0  0
    6.7921   -0.0662    2.3014 H   0  0  0  0  0  0  0  0  0  0  0  0
    4.6687    1.1408    2.1539 H   0  0  0  0  0  0  0  0  0  0  0  0
    2.3824    1.8768    1.9835 H   0  0  0  0  0  0  0  0  0  0  0  0
    2.1992    0.1259    2.3572 H   0  0  0  0  0  0  0  0  0  0  0  0
    0.7677   -0.3388   -0.1698 H   0  0  0  0  0  0  0  0  0  0  0  0
   -1.1634   -1.4107   -1.7486 H   0  0  0  0  0  0  0  0  0  0  0  0
   -4.9340    0.9183    0.9358 H   0  0  0  0  0  0  0  0  0  0  0  0
   -5.3817   -0.4412   -0.1079 H   0  0  0  0  0  0  0  0  0  0  0  0
   -5.2281    1.0259   -2.1252 H   0  0  0  0  0  0  0  0  0  0  0  0
   -4.6312    2.3595   -1.1456 H   0  0  0  0  0  0  0  0  0  0  0  0
   -6.8238    2.4034    0.1189 H   0  0  0  0  0  0  0  0  0  0  0  0
   -6.9856    2.7631   -1.5902 H   0  0  0  0  0  0  0  0  0  0  0  0
   -8.7399   -0.0932   -2.2387 H   0  0  0  0  0  0  0  0  0  0  0  0
   -2.5124    1.3253    1.3040 H   0  0  0  0  0  0  0  0  0  0  0  0
    5.6362   -2.5871   -0.9955 H   0  0  0  0  0  0  0  0  0  0  0  0
  1  2  1  0
  2  3  2  0
  3  4  1  0
  4  5  2  0
  5  6  1  0
  6  7  1  0
  7  8  1  0
  8  9  2  0
  8 10  1  0
 10 11  1  0
 11 12  1  0
 12 13  2  0
 13 14  1  0
 14 15  1  0
 15 16  1  0
 16 17  1  0
 17 18  1  0
 18 19  2  0
 18 20  1  0
 14 21  1  0
  5 22  1  0
 22 23  1  0
 23 24  2  0
 23 25  1  0
 22 26  2  0
 26  2  1  0
 21 11  2  0
  1 27  1  0
  1 28  1  0
  1 29  1  0
  3 30  1  0
  4 31  1  0
  7 32  1  0
  7 33  1  0
 10 34  1  0
 12 35  1  0
 15 36  1  0
 15 37  1  0
 16 38  1  0
 16 39  1  0
 17 40  1  0
 17 41  1  0
 20 42  1  0
 21 43  1  0
 26 44  1  0
M  CHG  2  23   1  25  -1
M  END
$$$$
