
     RDKit          3D

 49 51  0  0  0  0  0  0  0  0999 V2000
    9.0993   -2.9539    1.2568 N   0  0  0  0  0  0  0  0  0  0  0  0
    7.9606   -2.7537    1.1465 C   0  0  0  0  0  0  0  0  0  0  0  0
    6.5603   -2.4798    1.0104 C   0  0  0  0  0  0  0  0  0  0  0  0
    5.7506   -3.5688    0.9103 N   0  0  0  0  0  0  0  0  0  0  0  0
    4.4234   -3.3076    0.7799 C   0  0  0  0  0  0  0  0  0  0  0  0
    3.8934   -2.0184    0.7402 C   0  0  0  0  0  0  0  0  0  0  0  0
    2.4560   -1.7293    0.5912 C   0  0  0  0  0  0  0  0  0  0  0  0
    1.6006   -2.5468   -0.1670 C   0  0  0  0  0  0  0  0  0  0  0  0
    0.2301   -2.2666   -0.2865 C   0  0  0  0  0  0  0  0  0  0  0  0
   -0.3281   -1.1567    0.3482 C   0  0  0  0  0  0  0  0  0  0  0  0
    0.5236   -0.3034    1.0683 C   0  0  0  0  0  0  0  0  0  0  0  0
    1.8855   -0.6010    1.2028 C   0  0  0  0  0  0  0  0  0  0  0  0
    0.1040    0.8148    1.7479 O   0  0  0  0  0  0  0  0  0  0  0  0
   -0.5815    1.7611    0.9184 C   0  0  0  0  0  0  0  0  0  0  0  0
   -1.9512    2.0840    1.5228 C   0  0  0  0  0  0  0  0  0  0  0  0
   -2.9292    2.4770    0.5581 O   0  0  0  0  0  0  0  0  0  0  0  0
   -2.6252    3.6867   -0.1358 C   0  0  0  0  0  0  0  0  0  0  0  0
   -3.7168    3.9695   -1.1728 C   0  0  0  0  0  0  0  0  0  0  0  0
   -3.6333    3.0907   -2.3029 O   0  0  0  0  0  0  0  0  0  0  0  0
   -4.2395    1.8127   -2.0866 C   0  0  0  0  0  0  0  0  0  0  0  0
   -3.1954    0.7001   -2.1425 C   0  0  0  0  0  0  0  0  0  0  0  0
   -3.8247   -0.5619   -1.9155 O   0  0  0  0  0  0  0  0  0  0  0  0
   -2.8903   -1.6175   -1.6625 C   0  0  0  0  0  0  0  0  0  0  0  0
   -2.6118   -1.7751   -0.1626 C   0  0  0  0  0  0  0  0  0  0  0  0
   -1.6536   -0.8238    0.3110 O   0  0  0  0  0  0  0  0  0  0  0  0
    4.7180   -0.9419    0.8489 N   0  0  0  0  0  0  0  0  0  0  0  0
    6.0527   -1.1918    0.9817 C   0  0  0  0  0  0  0  0  0  0  0  0
    6.8907   -0.0339    1.0853 C   0  0  0  0  0  0  0  0  0  0  0  0
    7.5877    0.8908    1.1691 N   0  0  0  0  0  0  0  0  0  0  0  0
    3.7923   -4.1890    0.7214 H   0  0  0  0  0  0  0  0  0  0  0  0
    1.9864   -3.4164   -0.6967 H   0  0  0  0  0  0  0  0  0  0  0  0
   -0.3678   -2.9386   -0.8934 H   0  0  0  0  0  0  0  0  0  0  0  0
    2.5057    0.0699    1.7963 H   0  0  0  0  0  0  0  0  0  0  0  0
   -0.6536    1.4524   -0.1305 H   0  0  0  0  0  0  0  0  0  0  0  0
    0.0252    2.6749    0.9121 H   0  0  0  0  0  0  0  0  0  0  0  0
   -2.3524    1.2020    2.0342 H   0  0  0  0  0  0  0  0  0  0  0  0
   -1.8578    2.8628    2.2889 H   0  0  0  0  0  0  0  0  0  0  0  0
   -2.5819    4.5067    0.5887 H   0  0  0  0  0  0  0  0  0  0  0  0
   -1.6604    3.5942   -0.6451 H   0  0  0  0  0  0  0  0  0  0  0  0
   -3.5693    4.9821   -1.5632 H   0  0  0  0  0  0  0  0  0  0  0  0
   -4.7196    3.9254   -0.7319 H   0  0  0  0  0  0  0  0  0  0  0  0
   -4.8080    1.7662   -1.1505 H   0  0  0  0  0  0  0  0  0  0  0  0
   -4.9688    1.6563   -2.8888 H   0  0  0  0  0  0  0  0  0  0  0  0
   -2.7116    0.6911   -3.1264 H   0  0  0  0  0  0  0  0  0  0  0  0
   -2.4155    0.8845   -1.4035 H   0  0  0  0  0  0  0  0  0  0  0  0
   -3.3737   -2.5334   -2.0167 H   0  0  0  0  0  0  0  0  0  0  0  0
   -1.9766   -1.4692   -2.2480 H   0  0  0  0  0  0  0  0  0  0  0  0
   -3.5352   -1.5785    0.3944 H   0  0  0  0  0  0  0  0  0  0  0  0
   -2.3132   -2.7992    0.0869 H   0  0  0  0  0  0  0  0  0  0  0  0
  1  2  3  0
  2  3  1  0
  3  4  2  0
  4  5  1  0
  5  6  2  0
  6  7  1  0
  7  8  2  0
  8  9  1  0
  9 10  2  0
 10 11  1  0
 11 12  2  0
 11 13  1  0
 13 14  1  0
 14 15  1  0
 15 16  1  0
 16 17  1  0
 17 18  1  0
 18 19  1  0
 19 20  1  0
 20 21  1  0
 21 22  1  0
 22 23  1  0
 23 24  1  0
 24 25  1  0
  6 26  1  0
 26 27  2  0
 27 28  1  0
 28 29  3  0
 27  3  1  0
 12  7  1  0
 25 10  1  0
  5 30  1  0
  8 31  1  0
  9 32  1  0
 12 33  1  0
 14 34  1  0
 14 35  1  0
 15 36  1  0
 15 37  1  0
 17 38  1  0
 17 39  1  0
 18 40  1  0
 18 41  1  0
 20 42  1  0
 20 43  1  0
 21 44  1  0
 21 45  1  0
 23 46  1  0
 23 47  1  0
 24 48  1  0
 24 49  1  0
M  END
$$$$
