
     RDKit          3D

 47 49  0  0  0  0  0  0  0  0999 V2000
    3.8032    3.6863    0.5085 C   0  0  0  0  0  0  0  0  0  0  0  0
    2.9938    2.5427   -0.0388 C   0  0  0  0  0  0  0  0  0  0  0  0
    2.7238    1.4383    0.7810 C   0  0  0  0  0  0  0  0  0  0  0  0
    1.9760    0.3598    0.3060 C   0  0  0  0  0  0  0  0  0  0  0  0
    1.4804    0.3561   -1.0045 C   0  0  0  0  0  0  0  0  0  0  0  0
    0.6437   -0.7943   -1.5357 C   0  0  0  0  0  0  0  0  0  0  0  0
    1.3849   -2.1311   -1.4395 C   0  0  0  0  0  0  0  0  0  0  0  0
   -0.6225   -0.8403   -0.8262 N   0  0  0  0  0  0  0  0  0  0  0  0
   -1.7277   -1.4857   -1.3249 C   0  0  0  0  0  0  0  0  0  0  0  0
   -1.7319   -2.0377   -2.4206 O   0  0  0  0  0  0  0  0  0  0  0  0
   -2.9077   -1.4366   -0.4848 C   0  0  0  0  0  0  0  0  0  0  0  0
   -3.0678   -1.3131    0.9302 C   0  0  0  0  0  0  0  0  0  0  0  0
   -2.0458   -1.2607    1.9692 C   0  0  0  0  0  0  0  0  0  0  0  0
   -1.0715   -2.2646    2.0598 C   0  0  0  0  0  0  0  0  0  0  0  0
   -0.0767   -2.1936    3.0371 C   0  0  0  0  0  0  0  0  0  0  0  0
   -0.0517   -1.1233    3.9301 C   0  0  0  0  0  0  0  0  0  0  0  0
   -1.0243   -0.1271    3.8539 C   0  0  0  0  0  0  0  0  0  0  0  0
   -2.0217   -0.1966    2.8793 C   0  0  0  0  0  0  0  0  0  0  0  0
   -4.3675   -1.2585    1.2608 N   0  0  0  0  0  0  0  0  0  0  0  0
   -5.0705   -1.4082    0.0857 O   0  0  0  0  0  0  0  0  0  0  0  0
   -4.2042   -1.5253   -0.9509 C   0  0  0  0  0  0  0  0  0  0  0  0
   -4.8039   -1.6935   -2.2894 C   0  0  0  0  0  0  0  0  0  0  0  0
    1.7442    1.4658   -1.8218 C   0  0  0  0  0  0  0  0  0  0  0  0
    2.4971    2.5578   -1.3563 C   0  0  0  0  0  0  0  0  0  0  0  0
    2.7527    3.7206   -2.2765 C   0  0  0  0  0  0  0  0  0  0  0  0
    3.2133    4.6082    0.4994 H   0  0  0  0  0  0  0  0  0  0  0  0
    4.7123    3.8273   -0.0845 H   0  0  0  0  0  0  0  0  0  0  0  0
    4.1110    3.5022    1.5434 H   0  0  0  0  0  0  0  0  0  0  0  0
    3.0943    1.4097    1.8037 H   0  0  0  0  0  0  0  0  0  0  0  0
    1.7801   -0.4753    0.9748 H   0  0  0  0  0  0  0  0  0  0  0  0
    0.4184   -0.6193   -2.5956 H   0  0  0  0  0  0  0  0  0  0  0  0
    1.5567   -2.4303   -0.3995 H   0  0  0  0  0  0  0  0  0  0  0  0
    0.8079   -2.9336   -1.9114 H   0  0  0  0  0  0  0  0  0  0  0  0
    2.3573   -2.0777   -1.9413 H   0  0  0  0  0  0  0  0  0  0  0  0
   -0.6984   -0.2964    0.0226 H   0  0  0  0  0  0  0  0  0  0  0  0
   -1.0834   -3.1123    1.3776 H   0  0  0  0  0  0  0  0  0  0  0  0
    0.6737   -2.9774    3.1065 H   0  0  0  0  0  0  0  0  0  0  0  0
    0.7196   -1.0710    4.6948 H   0  0  0  0  0  0  0  0  0  0  0  0
   -1.0115    0.7013    4.5580 H   0  0  0  0  0  0  0  0  0  0  0  0
   -2.7801    0.5830    2.8338 H   0  0  0  0  0  0  0  0  0  0  0  0
   -4.5845   -2.6905   -2.6833 H   0  0  0  0  0  0  0  0  0  0  0  0
   -4.4058   -0.9496   -2.9864 H   0  0  0  0  0  0  0  0  0  0  0  0
   -5.8915   -1.5743   -2.2564 H   0  0  0  0  0  0  0  0  0  0  0  0
    1.3555    1.4830   -2.8392 H   0  0  0  0  0  0  0  0  0  0  0  0
    2.3269    4.6377   -1.8575 H   0  0  0  0  0  0  0  0  0  0  0  0
    3.8280    3.8536   -2.4314 H   0  0  0  0  0  0  0  0  0  0  0  0
    2.2956    3.5646   -3.2594 H   0  0  0  0  0  0  0  0  0  0  0  0
  1  2  1  0
  2  3  2  0
  3  4  1  0
  4  5  2  0
  5  6  1  0
  6  7  1  0
  6  8  1  0
  8  9  1  0
  9 10  2  0
  9 11  1  0
 11 12  1  0
 12 13  1  0
 13 14  2  0
 14 15  1  0
 15 16  2  0
 16 17  1  0
 17 18  2  0
 12 19  2  0
 19 20  1  0
 20 21  1  0
 21 22  1  0
  5 23  1  0
 23 24  2  0
 24 25  1  0
 24  2  1  0
 21 11  2  0
 18 13  1  0
  1 26  1  0
  1 27  1  0
  1 28  1  0
  3 29  1  0
  4 30  1  0
  6 31  1  0
  7 32  1  0
  7 33  1  0
  7 34  1  0
  8 35  1  0
 14 36  1  0
 15 37  1  0
 16 38  1  0
 17 39  1  0
 18 40  1  0
 22 41  1  0
 22 42  1  0
 22 43  1  0
 23 44  1  0
 25 45  1  0
 25 46  1  0
 25 47  1  0
M  END
$$$$
