
     RDKit          3D

 34 35  0  0  0  0  0  0  0  0999 V2000
   -1.1311   -1.3396   -2.9679 O   0  0  0  0  0  0  0  0  0  0  0  0
   -0.5142   -0.6162   -2.1894 C   0  0  0  0  0  0  0  0  0  0  0  0
    0.8112    0.0403   -2.6009 C   0  0  0  0  0  0  0  0  0  0  0  0
    1.8866   -0.0878   -1.6671 O   0  0  0  0  0  0  0  0  0  0  0  0
    1.8703    0.7882   -0.6369 C   0  0  0  0  0  0  0  0  0  0  0  0
    0.9874    1.6059   -0.4244 O   0  0  0  0  0  0  0  0  0  0  0  0
    3.0543    0.6182    0.2319 C   0  0  0  0  0  0  0  0  0  0  0  0
    3.2073    1.4398    1.3535 C   0  0  0  0  0  0  0  0  0  0  0  0
    4.3236    1.2820    2.1744 C   0  0  0  0  0  0  0  0  0  0  0  0
    5.2453    0.3049    1.8378 C   0  0  0  0  0  0  0  0  0  0  0  0
    6.6449    0.0470    2.7919 Cl  0  0  0  0  0  0  0  0  0  0  0  0
    5.1336   -0.5067    0.7658 N   0  0  0  0  0  0  0  0  0  0  0  0
    4.0376   -0.3331   -0.0144 C   0  0  0  0  0  0  0  0  0  0  0  0
   -0.9676   -0.2280   -0.9351 N   0  0  0  0  0  0  0  0  0  0  0  0
   -2.1615   -0.7230   -0.3474 C   0  0  0  0  0  0  0  0  0  0  0  0
   -2.4582   -2.1037   -0.2917 C   0  0  0  0  0  0  0  0  0  0  0  0
   -1.3099   -3.3348   -0.7111 Cl  0  0  0  0  0  0  0  0  0  0  0  0
   -3.6602   -2.5543    0.2662 C   0  0  0  0  0  0  0  0  0  0  0  0
   -4.5662   -1.6499    0.8077 C   0  0  0  0  0  0  0  0  0  0  0  0
   -4.2605   -0.2920    0.8152 C   0  0  0  0  0  0  0  0  0  0  0  0
   -3.0613    0.1883    0.2487 C   0  0  0  0  0  0  0  0  0  0  0  0
   -2.7834    1.6691    0.2992 C   0  0  0  0  0  0  0  0  0  0  0  0
   -3.8663    2.4208    0.6445 F   0  0  0  0  0  0  0  0  0  0  0  0
   -1.8159    1.9746    1.2076 F   0  0  0  0  0  0  0  0  0  0  0  0
   -2.3493    2.1737   -0.8894 F   0  0  0  0  0  0  0  0  0  0  0  0
    0.6288    1.0924   -2.8519 H   0  0  0  0  0  0  0  0  0  0  0  0
    1.1457   -0.4499   -3.5221 H   0  0  0  0  0  0  0  0  0  0  0  0
    2.4648    2.1992    1.5907 H   0  0  0  0  0  0  0  0  0  0  0  0
    4.4645    1.9067    3.0495 H   0  0  0  0  0  0  0  0  0  0  0  0
    3.9863   -1.0095   -0.8640 H   0  0  0  0  0  0  0  0  0  0  0  0
   -0.6396    0.7001   -0.6587 H   0  0  0  0  0  0  0  0  0  0  0  0
   -3.8802   -3.6189    0.3058 H   0  0  0  0  0  0  0  0  0  0  0  0
   -5.4962   -2.0054    1.2456 H   0  0  0  0  0  0  0  0  0  0  0  0
   -4.9707    0.4018    1.2663 H   0  0  0  0  0  0  0  0  0  0  0  0
  1  2  2  0
  2  3  1  0
  3  4  1  0
  4  5  1  0
  5  6  2  0
  5  7  1  0
  7  8  2  0
  8  9  1  0
  9 10  2  0
 10 11  1  0
 10 12  1  0
 12 13  2  0
  2 14  1  0
 14 15  1  0
 15 16  2  0
 16 17  1  0
 16 18  1  0
 18 19  2  0
 19 20  1  0
 20 21  2  0
 21 22  1  0
 22 23  1  0
 22 24  1  0
 22 25  1  0
 13  7  1  0
 21 15  1  0
  3 26  1  0
  3 27  1  0
  8 28  1  0
  9 29  1  0
 13 30  1  0
 14 31  1  0
 18 32  1  0
 19 33  1  0
 20 34  1  0
M  END
$$$$
