
     RDKit          3D

 43 45  0  0  0  0  0  0  0  0999 V2000
   -0.8671   -3.8311    0.0092 C   0  0  0  0  0  0  0  0  0  0  0  0
   -0.9179   -2.7970    1.1033 C   0  0  0  0  0  0  0  0  0  0  0  0
   -1.8044   -2.8007    1.9566 O   0  0  0  0  0  0  0  0  0  0  0  0
    0.1384   -1.7580    1.1021 C   0  0  0  0  0  0  0  0  0  0  0  0
   -0.0451   -0.6207    0.3918 C   0  0  0  0  0  0  0  0  0  0  0  0
   -1.1933   -0.2440   -0.3066 N   0  0  0  0  0  0  0  0  0  0  0  0
   -2.5589   -0.3700    0.2546 C   0  0  0  0  0  0  0  0  0  0  0  0
   -3.4858    0.7374   -0.3003 C   0  0  0  0  0  0  0  0  0  0  0  0
   -3.5267    0.8489   -1.7759 N   0  0  0  0  0  0  0  0  0  0  0  0
   -4.2654   -0.2588   -2.3785 C   0  0  0  0  0  0  0  0  0  0  0  0
   -2.1451    0.9318   -2.2929 C   0  0  0  0  0  0  0  0  0  0  0  0
   -1.1766   -0.1596   -1.7837 C   0  0  0  0  0  0  0  0  0  0  0  0
    1.0024    0.2695    0.3487 N   0  0  0  0  0  0  0  0  0  0  0  0
    2.1395    0.1223    1.0964 C   0  0  0  0  0  0  0  0  0  0  0  0
    3.1519    1.2250    1.1308 C   0  0  0  0  0  0  0  0  0  0  0  0
    4.0512    1.3005    2.2023 C   0  0  0  0  0  0  0  0  0  0  0  0
    4.9975    2.3256    2.2558 C   0  0  0  0  0  0  0  0  0  0  0  0
    5.0543    3.2758    1.2376 C   0  0  0  0  0  0  0  0  0  0  0  0
    4.1702    3.2001    0.1618 C   0  0  0  0  0  0  0  0  0  0  0  0
    3.2208    2.1763    0.1045 C   0  0  0  0  0  0  0  0  0  0  0  0
    2.3721   -0.9493    1.7923 N   0  0  0  0  0  0  0  0  0  0  0  0
    1.4616   -1.9909    1.7822 C   0  0  0  0  0  0  0  0  0  0  0  0
    1.8766   -3.4575    2.5258 S   0  0  0  0  0  0  0  0  0  0  0  0
    0.0127   -3.6926   -0.6256 H   0  0  0  0  0  0  0  0  0  0  0  0
   -1.7618   -3.7398   -0.6122 H   0  0  0  0  0  0  0  0  0  0  0  0
   -0.8204   -4.8276    0.4560 H   0  0  0  0  0  0  0  0  0  0  0  0
   -2.5283   -0.2708    1.3460 H   0  0  0  0  0  0  0  0  0  0  0  0
   -2.9737   -1.3537    0.0102 H   0  0  0  0  0  0  0  0  0  0  0  0
   -3.1435    1.7033    0.0945 H   0  0  0  0  0  0  0  0  0  0  0  0
   -4.4999    0.5996    0.0944 H   0  0  0  0  0  0  0  0  0  0  0  0
   -3.8196   -1.2384   -2.1794 H   0  0  0  0  0  0  0  0  0  0  0  0
   -4.3256   -0.1281   -3.4648 H   0  0  0  0  0  0  0  0  0  0  0  0
   -5.2972   -0.2732   -2.0100 H   0  0  0  0  0  0  0  0  0  0  0  0
   -2.1529    0.9326   -3.3898 H   0  0  0  0  0  0  0  0  0  0  0  0
   -1.7419    1.9106   -2.0006 H   0  0  0  0  0  0  0  0  0  0  0  0
   -1.4457   -1.1372   -2.2010 H   0  0  0  0  0  0  0  0  0  0  0  0
   -0.1684    0.0771   -2.1450 H   0  0  0  0  0  0  0  0  0  0  0  0
    0.7206    1.1881    0.0321 H   0  0  0  0  0  0  0  0  0  0  0  0
    4.0179    0.5637    3.0025 H   0  0  0  0  0  0  0  0  0  0  0  0
    5.6908    2.3790    3.0916 H   0  0  0  0  0  0  0  0  0  0  0  0
    5.7941    4.0716    1.2795 H   0  0  0  0  0  0  0  0  0  0  0  0
    4.2270    3.9356   -0.6370 H   0  0  0  0  0  0  0  0  0  0  0  0
    2.5655    2.1248   -0.7591 H   0  0  0  0  0  0  0  0  0  0  0  0
  1  2  1  0
  2  3  2  0
  2  4  1  0
  4  5  2  0
  5  6  1  0
  6  7  1  0
  7  8  1  0
  8  9  1  0
  9 10  1  0
  9 11  1  0
 11 12  1  0
  5 13  1  0
 13 14  1  0
 14 15  1  0
 15 16  2  0
 16 17  1  0
 17 18  2  0
 18 19  1  0
 19 20  2  0
 14 21  2  0
 21 22  1  0
 22 23  2  0
 22  4  1  0
 12  6  1  0
 20 15  1  0
  1 24  1  0
  1 25  1  0
  1 26  1  0
  7 27  1  0
  7 28  1  0
  8 29  1  0
  8 30  1  0
 10 31  1  0
 10 32  1  0
 10 33  1  0
 11 34  1  0
 11 35  1  0
 12 36  1  0
 12 37  1  0
 13 38  1  0
 16 39  1  0
 17 40  1  0
 18 41  1  0
 19 42  1  0
 20 43  1  0
M  END
$$$$
