
     RDKit          3D

 34 36  0  0  0  0  0  0  0  0999 V2000
   -1.6378    1.1457    0.5623 O   0  0  0  0  0  0  0  0  0  0  0  0
   -2.2407    0.2624   -0.0454 C   0  0  0  0  0  0  0  0  0  0  0  0
   -1.5942   -0.7919   -0.6760 N   0  0  0  0  0  0  0  0  0  0  0  0
   -0.2389   -1.1016   -0.7149 C   0  0  0  0  0  0  0  0  0  0  0  0
    0.1559   -2.4828   -1.5645 S   0  0  0  0  0  0  0  0  0  0  0  0
    0.5660   -0.2103   -0.0446 N   0  0  0  0  0  0  0  0  0  0  0  0
    1.9580   -0.1178    0.1812 C   0  0  0  0  0  0  0  0  0  0  0  0
    2.3738    1.0044    0.9546 C   0  0  0  0  0  0  0  0  0  0  0  0
    3.7189    1.2430    1.2687 C   0  0  0  0  0  0  0  0  0  0  0  0
    4.6255    0.3345    0.7909 C   0  0  0  0  0  0  0  0  0  0  0  0
    6.0076    0.2940    0.9296 N   0  0  0  0  0  0  0  0  0  0  0  0
    6.4940   -0.8374    0.2584 C   0  0  0  0  0  0  0  0  0  0  0  0
    7.6575   -1.1864    0.1723 O   0  0  0  0  0  0  0  0  0  0  0  0
    5.3799   -1.4861   -0.2927 N   0  0  0  0  0  0  0  0  0  0  0  0
    4.2348   -0.7659    0.0349 C   0  0  0  0  0  0  0  0  0  0  0  0
    2.9180   -1.0202   -0.2859 C   0  0  0  0  0  0  0  0  0  0  0  0
   -3.7215    0.3443   -0.1869 C   0  0  0  0  0  0  0  0  0  0  0  0
   -4.2671    1.6406   -0.2231 C   0  0  0  0  0  0  0  0  0  0  0  0
   -5.6424    1.8354   -0.3623 C   0  0  0  0  0  0  0  0  0  0  0  0
   -6.4914    0.7376   -0.4592 C   0  0  0  0  0  0  0  0  0  0  0  0
   -5.9658   -0.5537   -0.4090 C   0  0  0  0  0  0  0  0  0  0  0  0
   -4.5863   -0.7563   -0.2687 C   0  0  0  0  0  0  0  0  0  0  0  0
   -4.0552   -2.3973   -0.1658 Cl  0  0  0  0  0  0  0  0  0  0  0  0
   -2.1658   -1.4766   -1.1571 H   0  0  0  0  0  0  0  0  0  0  0  0
    0.0283    0.5474    0.3818 H   0  0  0  0  0  0  0  0  0  0  0  0
    1.6319    1.7124    1.3233 H   0  0  0  0  0  0  0  0  0  0  0  0
    4.0161    2.1012    1.8580 H   0  0  0  0  0  0  0  0  0  0  0  0
    6.5936    0.9478    1.4215 H   0  0  0  0  0  0  0  0  0  0  0  0
    5.4322   -2.3344   -0.8325 H   0  0  0  0  0  0  0  0  0  0  0  0
    2.6879   -1.8927   -0.8749 H   0  0  0  0  0  0  0  0  0  0  0  0
   -3.6169    2.5117   -0.1462 H   0  0  0  0  0  0  0  0  0  0  0  0
   -6.0486    2.8443   -0.3920 H   0  0  0  0  0  0  0  0  0  0  0  0
   -7.5640    0.8856   -0.5649 H   0  0  0  0  0  0  0  0  0  0  0  0
   -6.6436   -1.4031   -0.4708 H   0  0  0  0  0  0  0  0  0  0  0  0
  1  2  2  0
  2  3  1  0
  3  4  1  0
  4  5  2  0
  4  6  1  0
  6  7  1  0
  7  8  2  0
  8  9  1  0
  9 10  2  0
 10 11  1  0
 11 12  1  0
 12 13  2  0
 12 14  1  0
 14 15  1  0
 15 16  2  0
  2 17  1  0
 17 18  2  0
 18 19  1  0
 19 20  2  0
 20 21  1  0
 21 22  2  0
 22 23  1  0
 16  7  1  0
 22 17  1  0
 15 10  1  0
  3 24  1  0
  6 25  1  0
  8 26  1  0
  9 27  1  0
 11 28  1  0
 14 29  1  0
 16 30  1  0
 18 31  1  0
 19 32  1  0
 20 33  1  0
 21 34  1  0
M  END
$$$$
