
     RDKit          3D

 62 66  0  0  0  0  0  0  0  0999 V2000
   -4.9585    0.6630   -3.5493 C   0  0  0  0  0  0  0  0  0  0  0  0
   -5.3771    0.2414   -2.1628 C   0  0  0  0  0  0  0  0  0  0  0  0
   -6.5247   -0.4430   -1.9868 C   0  0  0  0  0  0  0  0  0  0  0  0
   -6.9826   -0.8588   -0.6552 C   0  0  0  0  0  0  0  0  0  0  0  0
   -8.2028   -1.5361   -0.5237 C   0  0  0  0  0  0  0  0  0  0  0  0
   -8.6664   -1.9137    0.7357 C   0  0  0  0  0  0  0  0  0  0  0  0
   -7.9080   -1.6256    1.8667 C   0  0  0  0  0  0  0  0  0  0  0  0
   -6.6797   -0.9620    1.7487 C   0  0  0  0  0  0  0  0  0  0  0  0
   -6.2159   -0.5648    0.4908 C   0  0  0  0  0  0  0  0  0  0  0  0
   -5.0075    0.1554    0.2662 N   0  0  0  0  0  0  0  0  0  0  0  0
   -4.0081    0.6474    1.0913 C   0  0  0  0  0  0  0  0  0  0  0  0
   -3.8678    0.4791    2.8110 S   0  0  0  0  0  0  0  0  0  0  0  0
   -2.8720    1.9399    3.2364 C   0  0  0  0  0  0  0  0  0  0  0  0
   -1.3799    1.6478    3.1618 C   0  0  0  0  0  0  0  0  0  0  0  0
   -0.7399    1.3776    4.1755 O   0  0  0  0  0  0  0  0  0  0  0  0
   -0.8691    1.7504    1.8808 N   0  0  0  0  0  0  0  0  0  0  0  0
    0.4742    1.6688    1.4707 C   0  0  0  0  0  0  0  0  0  0  0  0
    0.7099    1.6458    0.0888 C   0  0  0  0  0  0  0  0  0  0  0  0
    2.0124    1.5910   -0.4107 C   0  0  0  0  0  0  0  0  0  0  0  0
    3.0860    1.5565    0.4796 C   0  0  0  0  0  0  0  0  0  0  0  0
    4.7419    1.5276   -0.1689 S   0  0  0  0  0  6  0  0  0  0  0  0
    5.6691    1.6805    0.9297 O   0  0  0  0  0  0  0  0  0  0  0  0
    4.7660    2.4404   -1.2920 O   0  0  0  0  0  0  0  0  0  0  0  0
    4.8763   -0.0595   -0.7695 N   0  0  0  0  0  0  0  0  0  0  0  0
    4.7764   -1.1869    0.1909 C   0  0  0  0  0  0  0  0  0  0  0  0
    6.1245   -1.5187    0.8265 C   0  0  0  0  0  0  0  0  0  0  0  0
    7.2388   -1.7331   -0.2069 C   0  0  0  0  0  0  0  0  0  0  0  0
    7.0940   -3.0802   -0.9212 C   0  0  0  0  0  0  0  0  0  0  0  0
    7.2714   -0.5602   -1.1979 C   0  0  0  0  0  0  0  0  0  0  0  0
    5.9052   -0.2788   -1.8148 C   0  0  0  0  0  0  0  0  0  0  0  0
    2.8681    1.5974    1.8566 C   0  0  0  0  0  0  0  0  0  0  0  0
    1.5597    1.6468    2.3486 C   0  0  0  0  0  0  0  0  0  0  0  0
   -3.1147    1.3042    0.3816 N   0  0  0  0  0  0  0  0  0  0  0  0
   -3.4746    1.2405   -0.9273 N   0  0  0  0  0  0  0  0  0  0  0  0
   -4.6011    0.5609   -1.0073 C   0  0  0  0  0  0  0  0  0  0  0  0
   -3.9991    0.2029   -3.8130 H   0  0  0  0  0  0  0  0  0  0  0  0
   -4.8434    1.7522   -3.5939 H   0  0  0  0  0  0  0  0  0  0  0  0
   -5.6950    0.3723   -4.3089 H   0  0  0  0  0  0  0  0  0  0  0  0
   -7.1508   -0.7066   -2.8352 H   0  0  0  0  0  0  0  0  0  0  0  0
   -8.8081   -1.7668   -1.3969 H   0  0  0  0  0  0  0  0  0  0  0  0
   -9.6240   -2.4232    0.8357 H   0  0  0  0  0  0  0  0  0  0  0  0
   -8.2732   -1.9130    2.8523 H   0  0  0  0  0  0  0  0  0  0  0  0
   -6.1464   -0.7733    2.6714 H   0  0  0  0  0  0  0  0  0  0  0  0
   -3.1285    2.7998    2.6065 H   0  0  0  0  0  0  0  0  0  0  0  0
   -3.1067    2.2267    4.2677 H   0  0  0  0  0  0  0  0  0  0  0  0
   -1.5570    1.7972    1.1281 H   0  0  0  0  0  0  0  0  0  0  0  0
   -0.1189    1.6769   -0.6152 H   0  0  0  0  0  0  0  0  0  0  0  0
    2.1834    1.5909   -1.4856 H   0  0  0  0  0  0  0  0  0  0  0  0
    4.3893   -2.0583   -0.3552 H   0  0  0  0  0  0  0  0  0  0  0  0
    4.0358   -0.9780    0.9710 H   0  0  0  0  0  0  0  0  0  0  0  0
    6.4208   -0.7039    1.4976 H   0  0  0  0  0  0  0  0  0  0  0  0
    6.0187   -2.4083    1.4581 H   0  0  0  0  0  0  0  0  0  0  0  0
    8.1995   -1.7545    0.3253 H   0  0  0  0  0  0  0  0  0  0  0  0
    7.9051   -3.2267   -1.6417 H   0  0  0  0  0  0  0  0  0  0  0  0
    6.1472   -3.1646   -1.4629 H   0  0  0  0  0  0  0  0  0  0  0  0
    7.1370   -3.9064   -0.2019 H   0  0  0  0  0  0  0  0  0  0  0  0
    7.9978   -0.7575   -1.9946 H   0  0  0  0  0  0  0  0  0  0  0  0
    7.6216    0.3364   -0.6713 H   0  0  0  0  0  0  0  0  0  0  0  0
    5.9665    0.5837   -2.4870 H   0  0  0  0  0  0  0  0  0  0  0  0
    5.5838   -1.1172   -2.4423 H   0  0  0  0  0  0  0  0  0  0  0  0
    3.7022    1.5952    2.5538 H   0  0  0  0  0  0  0  0  0  0  0  0
    1.4189    1.6829    3.4245 H   0  0  0  0  0  0  0  0  0  0  0  0
  1  2  1  0
  2  3  2  0
  3  4  1  0
  4  5  2  0
  5  6  1  0
  6  7  2  0
  7  8  1  0
  8  9  2  0
  9 10  1  0
 10 11  1  0
 11 12  1  0
 12 13  1  0
 13 14  1  0
 14 15  2  0
 14 16  1  0
 16 17  1  0
 17 18  2  0
 18 19  1  0
 19 20  2  0
 20 21  1  0
 21 22  2  0
 21 23  2  0
 21 24  1  0
 24 25  1  0
 25 26  1  0
 26 27  1  0
 27 28  1  0
 27 29  1  0
 29 30  1  0
 20 31  1  0
 31 32  2  0
 11 33  2  0
 33 34  1  0
 34 35  2  0
 35  2  1  0
  9  4  1  0
 35 10  1  0
 32 17  1  0
 30 24  1  0
  1 36  1  0
  1 37  1  0
  1 38  1  0
  3 39  1  0
  5 40  1  0
  6 41  1  0
  7 42  1  0
  8 43  1  0
 13 44  1  0
 13 45  1  0
 16 46  1  0
 18 47  1  0
 19 48  1  0
 25 49  1  0
 25 50  1  0
 26 51  1  0
 26 52  1  0
 27 53  1  0
 28 54  1  0
 28 55  1  0
 28 56  1  0
 29 57  1  0
 29 58  1  0
 30 59  1  0
 30 60  1  0
 31 61  1  0
 32 62  1  0
M  END
$$$$
