
     RDKit          3D

 40 43  0  0  0  0  0  0  0  0999 V2000
   -4.6837    2.0419    2.3649 C   0  0  0  0  0  0  0  0  0  0  0  0
   -4.0042    1.3164    3.4682 C   0  0  0  0  0  0  0  0  0  0  0  0
   -4.6141    1.3048    4.7191 N   0  0  0  0  0  0  0  0  0  0  0  0
   -3.8995    0.6443    5.6122 N   0  0  0  0  0  0  0  0  0  0  0  0
   -2.4795    0.0367    4.9826 S   0  0  0  0  0  0  0  0  0  0  0  0
   -2.8067    0.6154    3.4015 C   0  0  0  0  0  0  0  0  0  0  0  0
   -1.9314    0.4444    2.2892 C   0  0  0  0  0  0  0  0  0  0  0  0
   -1.6524    1.4078    1.4282 N   0  0  0  0  0  0  0  0  0  0  0  0
   -0.7299    0.9281    0.5253 N   0  0  0  0  0  0  0  0  0  0  0  0
   -0.4853   -0.3254    0.8350 C   0  0  0  0  0  0  0  0  0  0  0  0
    0.6469   -1.3663    0.0491 S   0  0  0  0  0  0  0  0  0  0  0  0
    1.3022   -0.2314   -1.2096 C   0  0  0  0  0  0  0  0  0  0  0  0
    2.3331   -0.9001   -2.1028 C   0  0  0  0  0  0  0  0  0  0  0  0
    2.5610   -2.1086   -2.1043 O   0  0  0  0  0  0  0  0  0  0  0  0
    3.1054   -0.0347   -3.0505 C   0  0  0  0  0  0  0  0  0  0  0  0
    2.8223    1.3260   -3.2318 C   0  0  0  0  0  0  0  0  0  0  0  0
    3.5791    2.0897   -4.1298 C   0  0  0  0  0  0  0  0  0  0  0  0
    4.6238    1.5039   -4.8525 C   0  0  0  0  0  0  0  0  0  0  0  0
    5.3973    2.2908   -5.7687 C   0  0  0  0  0  0  0  0  0  0  0  0
    6.0201    2.9303   -6.5098 N   0  0  0  0  0  0  0  0  0  0  0  0
    4.9063    0.1466   -4.6787 C   0  0  0  0  0  0  0  0  0  0  0  0
    4.1501   -0.6176   -3.7840 C   0  0  0  0  0  0  0  0  0  0  0  0
   -1.2621   -0.6909    1.8999 N   0  0  0  0  0  0  0  0  0  0  0  0
   -1.3527   -2.0397    2.5098 C   0  0  0  0  0  0  0  0  0  0  0  0
   -1.7578   -3.2599    1.7100 C   0  0  0  0  0  0  0  0  0  0  0  0
   -2.6733   -2.7338    2.7689 C   0  0  0  0  0  0  0  0  0  0  0  0
   -4.1107    2.9300    2.0809 H   0  0  0  0  0  0  0  0  0  0  0  0
   -4.7903    1.3978    1.4868 H   0  0  0  0  0  0  0  0  0  0  0  0
   -5.6846    2.3655    2.6676 H   0  0  0  0  0  0  0  0  0  0  0  0
    0.4770    0.1178   -1.8382 H   0  0  0  0  0  0  0  0  0  0  0  0
    1.7727    0.6099   -0.6914 H   0  0  0  0  0  0  0  0  0  0  0  0
    2.0168    1.8226   -2.6973 H   0  0  0  0  0  0  0  0  0  0  0  0
    3.3446    3.1451   -4.2625 H   0  0  0  0  0  0  0  0  0  0  0  0
    5.7130   -0.3280   -5.2353 H   0  0  0  0  0  0  0  0  0  0  0  0
    4.3838   -1.6753   -3.6615 H   0  0  0  0  0  0  0  0  0  0  0  0
   -0.5668   -2.1960    3.2452 H   0  0  0  0  0  0  0  0  0  0  0  0
   -2.0636   -3.1382    0.6763 H   0  0  0  0  0  0  0  0  0  0  0  0
   -1.2358   -4.1909    1.9023 H   0  0  0  0  0  0  0  0  0  0  0  0
   -3.5958   -2.2670    2.4417 H   0  0  0  0  0  0  0  0  0  0  0  0
   -2.7755   -3.3121    3.6810 H   0  0  0  0  0  0  0  0  0  0  0  0
  1  2  1  0
  2  3  1  0
  3  4  2  0
  4  5  1  0
  5  6  1  0
  6  7  1  0
  7  8  2  0
  8  9  1  0
  9 10  2  0
 10 11  1  0
 11 12  1  0
 12 13  1  0
 13 14  2  0
 13 15  1  0
 15 16  2  0
 16 17  1  0
 17 18  2  0
 18 19  1  0
 19 20  3  0
 18 21  1  0
 21 22  2  0
 10 23  1  0
 23 24  1  0
 24 25  1  0
 25 26  1  0
  6  2  2  0
 23  7  1  0
 26 24  1  0
 22 15  1  0
  1 27  1  0
  1 28  1  0
  1 29  1  0
 12 30  1  0
 12 31  1  0
 16 32  1  0
 17 33  1  0
 21 34  1  0
 22 35  1  0
 24 36  1  0
 25 37  1  0
 25 38  1  0
 26 39  1  0
 26 40  1  0
M  END
$$$$
