
     RDKit          3D

 71 76  0  0  0  0  0  0  0  0999 V2000
    7.9366    1.3516   -3.9331 C   0  0  0  0  0  0  0  0  0  0  0  0
    8.8853    0.9086   -2.9716 O   0  0  0  0  0  0  0  0  0  0  0  0
    8.4006    0.5460   -1.7440 C   0  0  0  0  0  0  0  0  0  0  0  0
    9.3721    0.1246   -0.8397 C   0  0  0  0  0  0  0  0  0  0  0  0
    9.0056   -0.2803    0.4388 C   0  0  0  0  0  0  0  0  0  0  0  0
    7.6587   -0.2702    0.8152 C   0  0  0  0  0  0  0  0  0  0  0  0
    6.6484    0.1416   -0.0671 C   0  0  0  0  0  0  0  0  0  0  0  0
    5.3090    0.1302    0.2952 N   0  0  0  0  0  0  0  0  0  0  0  0
    4.8128   -0.6956    1.4063 C   0  0  0  0  0  0  0  0  0  0  0  0
    3.3410   -1.0967    1.1771 C   0  0  0  0  0  0  0  0  0  0  0  0
    2.4482    0.0384    0.9019 N   0  0  0  0  0  0  0  0  0  0  0  0
    1.0818   -0.0769    0.6624 C   0  0  0  0  0  0  0  0  0  0  0  0
    0.4251    0.8774    0.2430 O   0  0  0  0  0  0  0  0  0  0  0  0
    0.4085   -1.4098    1.0056 C   0  0  0  0  0  0  0  0  0  0  0  0
    0.1150   -1.4929    2.5030 C   0  0  0  0  0  0  0  0  0  0  0  0
   -1.0035   -0.5431    2.9280 C   0  0  0  0  0  0  0  0  0  0  0  0
   -2.1303   -0.3850    1.9006 C   0  0  0  0  0  0  0  0  0  0  0  0
   -2.1073   -1.4793    0.9327 N   0  0  0  0  0  0  0  0  0  0  0  0
   -3.2459   -1.6236    0.1067 C   0  0  0  0  0  0  0  0  0  0  0  0
   -3.1877   -2.5603   -0.8958 N   0  0  0  0  0  0  0  0  0  0  0  0
   -4.2481   -2.7517   -1.7052 C   0  0  0  0  0  0  0  0  0  0  0  0
   -5.4328   -2.1228   -1.6851 N   0  0  0  0  0  0  0  0  0  0  0  0
   -5.4706   -1.2124   -0.6994 C   0  0  0  0  0  0  0  0  0  0  0  0
   -4.4706   -0.9063    0.2138 C   0  0  0  0  0  0  0  0  0  0  0  0
   -4.9086    0.0996    1.0617 N   0  0  0  0  0  0  0  0  0  0  0  0
   -6.1361    0.3927    0.6796 C   0  0  0  0  0  0  0  0  0  0  0  0
   -6.5135   -0.3840   -0.3873 N   0  0  0  0  0  0  0  0  0  0  0  0
   -7.7879   -0.3265   -1.0684 C   0  0  0  0  0  0  0  0  0  0  0  0
   -8.0624    1.0339   -1.7041 C   0  0  0  0  0  0  0  0  0  0  0  0
   -8.4777    2.1158   -0.7042 C   0  0  0  0  0  0  0  0  0  0  0  0
   -7.3963    2.5268    0.2978 C   0  0  0  0  0  0  0  0  0  0  0  0
   -7.0179    1.4273    1.2881 C   0  0  0  0  0  0  0  0  0  0  0  0
   -0.8591   -1.6406    0.1643 C   0  0  0  0  0  0  0  0  0  0  0  0
    3.1228    1.3024    0.5808 C   0  0  0  0  0  0  0  0  0  0  0  0
    4.3606    1.0869   -0.3102 C   0  0  0  0  0  0  0  0  0  0  0  0
    7.0559    0.5568   -1.3506 C   0  0  0  0  0  0  0  0  0  0  0  0
    7.4322    2.2646   -3.5961 H   0  0  0  0  0  0  0  0  0  0  0  0
    7.2119    0.5644   -4.1701 H   0  0  0  0  0  0  0  0  0  0  0  0
    8.4805    1.5907   -4.8522 H   0  0  0  0  0  0  0  0  0  0  0  0
   10.4180    0.1099   -1.1362 H   0  0  0  0  0  0  0  0  0  0  0  0
    9.7645   -0.6023    1.1470 H   0  0  0  0  0  0  0  0  0  0  0  0
    7.4188   -0.5747    1.8291 H   0  0  0  0  0  0  0  0  0  0  0  0
    5.3926   -1.6214    1.5017 H   0  0  0  0  0  0  0  0  0  0  0  0
    4.9067   -0.1347    2.3440 H   0  0  0  0  0  0  0  0  0  0  0  0
    3.2825   -1.7633    0.3078 H   0  0  0  0  0  0  0  0  0  0  0  0
    2.9694   -1.6455    2.0463 H   0  0  0  0  0  0  0  0  0  0  0  0
    1.1058   -2.2099    0.7326 H   0  0  0  0  0  0  0  0  0  0  0  0
   -0.1845   -2.5210    2.7451 H   0  0  0  0  0  0  0  0  0  0  0  0
    1.0059   -1.2823    3.1045 H   0  0  0  0  0  0  0  0  0  0  0  0
   -1.4206   -0.9067    3.8755 H   0  0  0  0  0  0  0  0  0  0  0  0
   -0.5898    0.4484    3.1516 H   0  0  0  0  0  0  0  0  0  0  0  0
   -2.0403    0.5803    1.3876 H   0  0  0  0  0  0  0  0  0  0  0  0
   -3.0607   -0.3756    2.4778 H   0  0  0  0  0  0  0  0  0  0  0  0
   -4.1253   -3.5106   -2.4718 H   0  0  0  0  0  0  0  0  0  0  0  0
   -8.5630   -0.5977   -0.3419 H   0  0  0  0  0  0  0  0  0  0  0  0
   -7.7922   -1.0956   -1.8493 H   0  0  0  0  0  0  0  0  0  0  0  0
   -8.8843    0.9110   -2.4209 H   0  0  0  0  0  0  0  0  0  0  0  0
   -7.1918    1.3724   -2.2787 H   0  0  0  0  0  0  0  0  0  0  0  0
   -9.3751    1.7889   -0.1645 H   0  0  0  0  0  0  0  0  0  0  0  0
   -8.7684    3.0079   -1.2737 H   0  0  0  0  0  0  0  0  0  0  0  0
   -7.7862    3.3777    0.8701 H   0  0  0  0  0  0  0  0  0  0  0  0
   -6.5097    2.8881   -0.2374 H   0  0  0  0  0  0  0  0  0  0  0  0
   -6.4809    1.8826    2.1299 H   0  0  0  0  0  0  0  0  0  0  0  0
   -7.9146    0.9563    1.7083 H   0  0  0  0  0  0  0  0  0  0  0  0
   -0.8081   -2.6788   -0.1895 H   0  0  0  0  0  0  0  0  0  0  0  0
   -0.8641   -1.0037   -0.7290 H   0  0  0  0  0  0  0  0  0  0  0  0
    2.4411    2.0098    0.0976 H   0  0  0  0  0  0  0  0  0  0  0  0
    3.4258    1.7454    1.5386 H   0  0  0  0  0  0  0  0  0  0  0  0
    4.0378    0.6988   -1.2846 H   0  0  0  0  0  0  0  0  0  0  0  0
    4.8399    2.0611   -0.4646 H   0  0  0  0  0  0  0  0  0  0  0  0
    6.2945    0.8628   -2.0592 H   0  0  0  0  0  0  0  0  0  0  0  0
  1  2  1  0
  2  3  1  0
  3  4  2  0
  4  5  1  0
  5  6  2  0
  6  7  1  0
  7  8  1  0
  8  9  1  0
  9 10  1  0
 10 11  1  0
 11 12  1  0
 12 13  2  0
 12 14  1  0
 14 15  1  0
 15 16  1  0
 16 17  1  0
 17 18  1  0
 18 19  1  0
 19 20  2  0
 20 21  1  0
 21 22  2  0
 22 23  1  0
 23 24  2  0
 24 25  1  0
 25 26  2  0
 26 27  1  0
 27 28  1  0
 28 29  1  0
 29 30  1  0
 30 31  1  0
 31 32  1  0
 18 33  1  0
 11 34  1  0
 34 35  1  0
  7 36  2  0
 36  3  1  0
 35  8  1  0
 33 14  1  0
 24 19  1  0
 32 26  1  0
 27 23  1  0
  1 37  1  0
  1 38  1  0
  1 39  1  0
  4 40  1  0
  5 41  1  0
  6 42  1  0
  9 43  1  0
  9 44  1  0
 10 45  1  0
 10 46  1  0
 14 47  1  0
 15 48  1  0
 15 49  1  0
 16 50  1  0
 16 51  1  0
 17 52  1  0
 17 53  1  0
 21 54  1  0
 28 55  1  0
 28 56  1  0
 29 57  1  0
 29 58  1  0
 30 59  1  0
 30 60  1  0
 31 61  1  0
 31 62  1  0
 32 63  1  0
 32 64  1  0
 33 65  1  0
 33 66  1  0
 34 67  1  0
 34 68  1  0
 35 69  1  0
 35 70  1  0
 36 71  1  0
M  END
$$$$
