
     RDKit          3D

 45 47  0  0  0  0  0  0  0  0999 V2000
    2.3279    1.6390   -0.7424 O   0  0  0  0  0  0  0  0  0  0  0  0
    2.0527    0.5887   -0.1660 C   0  0  0  0  0  0  0  0  0  0  0  0
    2.9892   -0.4065    0.0407 N   0  0  0  0  0  0  0  0  0  0  0  0
    4.3295   -0.0818   -0.2578 N   0  0  0  0  0  0  0  0  0  0  0  0
    5.3114   -0.5707    0.5939 C   0  0  0  0  0  0  0  0  0  0  0  0
    5.0180   -1.4160    1.4434 O   0  0  0  0  0  0  0  0  0  0  0  0
    6.6398   -0.0042    0.4012 C   0  0  0  0  0  0  0  0  0  0  0  0
    7.1206    0.8405   -0.5858 C   0  0  0  0  0  0  0  0  0  0  0  0
    8.4982    1.1675   -0.4072 C   0  0  0  0  0  0  0  0  0  0  0  0
    9.0314    0.5604    0.7056 C   0  0  0  0  0  0  0  0  0  0  0  0
    7.8796   -0.3976    1.5252 S   0  0  0  0  0  0  0  0  0  0  0  0
    0.6847    0.3473    0.3711 C   0  0  0  0  0  0  0  0  0  0  0  0
    0.2001   -0.9421    0.6355 C   0  0  0  0  0  0  0  0  0  0  0  0
   -1.0959   -1.1157    1.1317 C   0  0  0  0  0  0  0  0  0  0  0  0
   -1.9149   -0.0012    1.3409 C   0  0  0  0  0  0  0  0  0  0  0  0
   -3.5579   -0.2201    2.0026 S   0  0  0  0  0  6  0  0  0  0  0  0
   -3.9146    1.0106    2.6762 O   0  0  0  0  0  0  0  0  0  0  0  0
   -3.5737   -1.4886    2.7002 O   0  0  0  0  0  0  0  0  0  0  0  0
   -4.5144   -0.3639    0.6100 N   0  0  0  0  0  0  0  0  0  0  0  0
   -4.7939    0.8719   -0.1563 C   0  0  0  0  0  0  0  0  0  0  0  0
   -5.7111    0.5623   -1.3336 C   0  0  0  0  0  0  0  0  0  0  0  0
   -5.0677   -0.4270   -2.3045 C   0  0  0  0  0  0  0  0  0  0  0  0
   -4.0557   -1.3444   -1.6203 C   0  0  0  0  0  0  0  0  0  0  0  0
   -4.4342   -1.6205   -0.1712 C   0  0  0  0  0  0  0  0  0  0  0  0
   -1.4353    1.2883    1.0951 C   0  0  0  0  0  0  0  0  0  0  0  0
   -0.1411    1.4585    0.5983 C   0  0  0  0  0  0  0  0  0  0  0  0
    2.8760   -1.1016    0.7795 H   0  0  0  0  0  0  0  0  0  0  0  0
    4.4541    0.7971   -0.7563 H   0  0  0  0  0  0  0  0  0  0  0  0
    6.5286    1.2128   -1.4127 H   0  0  0  0  0  0  0  0  0  0  0  0
    9.0688    1.8125   -1.0649 H   0  0  0  0  0  0  0  0  0  0  0  0
   10.0446    0.6292    1.0779 H   0  0  0  0  0  0  0  0  0  0  0  0
    0.8060   -1.8252    0.4496 H   0  0  0  0  0  0  0  0  0  0  0  0
   -1.4574   -2.1185    1.3520 H   0  0  0  0  0  0  0  0  0  0  0  0
   -5.2939    1.5963    0.4952 H   0  0  0  0  0  0  0  0  0  0  0  0
   -3.8631    1.3178   -0.5202 H   0  0  0  0  0  0  0  0  0  0  0  0
   -6.6506    0.1371   -0.9574 H   0  0  0  0  0  0  0  0  0  0  0  0
   -5.9746    1.4836   -1.8652 H   0  0  0  0  0  0  0  0  0  0  0  0
   -5.8571   -1.0247   -2.7765 H   0  0  0  0  0  0  0  0  0  0  0  0
   -4.5652    0.1144   -3.1153 H   0  0  0  0  0  0  0  0  0  0  0  0
   -3.0647   -0.8738   -1.6531 H   0  0  0  0  0  0  0  0  0  0  0  0
   -3.9739   -2.2838   -2.1783 H   0  0  0  0  0  0  0  0  0  0  0  0
   -3.7095   -2.3169    0.2602 H   0  0  0  0  0  0  0  0  0  0  0  0
   -5.4112   -2.1153   -0.1204 H   0  0  0  0  0  0  0  0  0  0  0  0
   -2.0569    2.1605    1.2880 H   0  0  0  0  0  0  0  0  0  0  0  0
    0.2270    2.4640    0.3981 H   0  0  0  0  0  0  0  0  0  0  0  0
  1  2  2  0
  2  3  1  0
  3  4  1  0
  4  5  1  0
  5  6  2  0
  5  7  1  0
  7  8  2  0
  8  9  1  0
  9 10  2  0
 10 11  1  0
  2 12  1  0
 12 13  2  0
 13 14  1  0
 14 15  2  0
 15 16  1  0
 16 17  2  0
 16 18  2  0
 16 19  1  0
 19 20  1  0
 20 21  1  0
 21 22  1  0
 22 23  1  0
 23 24  1  0
 15 25  1  0
 25 26  2  0
 11  7  1  0
 26 12  1  0
 24 19  1  0
  3 27  1  0
  4 28  1  0
  8 29  1  0
  9 30  1  0
 10 31  1  0
 13 32  1  0
 14 33  1  0
 20 34  1  0
 20 35  1  0
 21 36  1  0
 21 37  1  0
 22 38  1  0
 22 39  1  0
 23 40  1  0
 23 41  1  0
 24 42  1  0
 24 43  1  0
 25 44  1  0
 26 45  1  0
M  END
$$$$
