
     RDKit          3D

 37 38  0  0  0  0  0  0  0  0999 V2000
   -2.9934    2.6873    1.4495 C   0  0  0  0  0  0  0  0  0  0  0  0
   -1.9564    1.7152    1.4317 O   0  0  0  0  0  0  0  0  0  0  0  0
   -2.1909    0.5498    0.7481 C   0  0  0  0  0  0  0  0  0  0  0  0
   -3.3720    0.2653    0.0473 C   0  0  0  0  0  0  0  0  0  0  0  0
   -3.5514   -0.9588   -0.6074 C   0  0  0  0  0  0  0  0  0  0  0  0
   -4.6904   -1.1792   -1.3944 N   0  0  0  0  0  0  0  0  0  0  0  0
   -2.4889   -1.8591   -0.6481 C   0  0  0  0  0  0  0  0  0  0  0  0
   -1.3085   -1.5928    0.0462 C   0  0  0  0  0  0  0  0  0  0  0  0
   -1.1494   -0.3954    0.7626 C   0  0  0  0  0  0  0  0  0  0  0  0
    0.1546   -0.1501    1.4972 C   0  0  0  0  0  0  0  0  0  0  0  0
    1.3002    0.2658    0.5949 C   0  0  0  0  0  0  0  0  0  0  0  0
    1.3479    1.5888    0.1266 C   0  0  0  0  0  0  0  0  0  0  0  0
    2.3819    2.0149   -0.7078 C   0  0  0  0  0  0  0  0  0  0  0  0
    3.4126    1.1455   -1.0573 C   0  0  0  0  0  0  0  0  0  0  0  0
    4.3880    1.5458   -1.9809 N   0  0  0  0  0  0  0  0  0  0  0  0
    3.3333   -0.1909   -0.6487 C   0  0  0  0  0  0  0  0  0  0  0  0
    2.2973   -0.6375    0.1850 C   0  0  0  0  0  0  0  0  0  0  0  0
    2.1743   -1.9238    0.6463 O   0  0  0  0  0  0  0  0  0  0  0  0
    3.0827   -2.8909    0.1380 C   0  0  0  0  0  0  0  0  0  0  0  0
   -2.6454    3.5353    2.0478 H   0  0  0  0  0  0  0  0  0  0  0  0
   -3.8968    2.2936    1.9267 H   0  0  0  0  0  0  0  0  0  0  0  0
   -3.2047    3.0578    0.4408 H   0  0  0  0  0  0  0  0  0  0  0  0
   -4.1752    0.9908   -0.0076 H   0  0  0  0  0  0  0  0  0  0  0  0
   -5.5147   -0.6846   -1.0692 H   0  0  0  0  0  0  0  0  0  0  0  0
   -4.8770   -2.1615   -1.5704 H   0  0  0  0  0  0  0  0  0  0  0  0
   -2.5675   -2.7785   -1.2217 H   0  0  0  0  0  0  0  0  0  0  0  0
   -0.4982   -2.3186    0.0120 H   0  0  0  0  0  0  0  0  0  0  0  0
    0.0288    0.6139    2.2756 H   0  0  0  0  0  0  0  0  0  0  0  0
    0.4108   -1.0529    2.0665 H   0  0  0  0  0  0  0  0  0  0  0  0
    0.5634    2.2919    0.3996 H   0  0  0  0  0  0  0  0  0  0  0  0
    2.3724    3.0357   -1.0801 H   0  0  0  0  0  0  0  0  0  0  0  0
    4.5593    2.5465   -1.9819 H   0  0  0  0  0  0  0  0  0  0  0  0
    5.2467    1.0076   -1.9331 H   0  0  0  0  0  0  0  0  0  0  0  0
    4.1024   -0.8724   -0.9943 H   0  0  0  0  0  0  0  0  0  0  0  0
    3.0161   -2.9643   -0.9524 H   0  0  0  0  0  0  0  0  0  0  0  0
    4.1068   -2.6765    0.4606 H   0  0  0  0  0  0  0  0  0  0  0  0
    2.8014   -3.8638    0.5521 H   0  0  0  0  0  0  0  0  0  0  0  0
  1  2  1  0
  2  3  1  0
  3  4  2  0
  4  5  1  0
  5  6  1  0
  5  7  2  0
  7  8  1  0
  8  9  2  0
  9 10  1  0
 10 11  1  0
 11 12  2  0
 12 13  1  0
 13 14  2  0
 14 15  1  0
 14 16  1  0
 16 17  2  0
 17 18  1  0
 18 19  1  0
  9  3  1  0
 17 11  1  0
  1 20  1  0
  1 21  1  0
  1 22  1  0
  4 23  1  0
  6 24  1  0
  6 25  1  0
  7 26  1  0
  8 27  1  0
 10 28  1  0
 10 29  1  0
 12 30  1  0
 13 31  1  0
 15 32  1  0
 15 33  1  0
 16 34  1  0
 19 35  1  0
 19 36  1  0
 19 37  1  0
M  END
$$$$
