
     RDKit          3D

 43 45  0  0  0  0  0  0  0  0999 V2000
    5.6934   -3.1612   -0.8418 C   0  0  0  0  0  0  0  0  0  0  0  0
    5.9232   -1.8749   -0.2804 O   0  0  0  0  0  0  0  0  0  0  0  0
    4.8632   -1.0123   -0.2589 C   0  0  0  0  0  0  0  0  0  0  0  0
    3.5761   -1.2796   -0.7199 C   0  0  0  0  0  0  0  0  0  0  0  0
    2.5784   -0.2990   -0.6348 C   0  0  0  0  0  0  0  0  0  0  0  0
    2.8489    0.9648   -0.0979 C   0  0  0  0  0  0  0  0  0  0  0  0
    1.8642    1.9726    0.0499 N   0  0  0  0  0  0  0  0  0  0  0  0
    0.5145    1.8829   -0.0502 C   0  0  0  0  0  0  0  0  0  0  0  0
   -0.3016    2.8128   -0.7210 C   0  0  0  0  0  0  0  0  0  0  0  0
   -1.6087    2.3933   -0.5978 C   0  0  0  0  0  0  0  0  0  0  0  0
   -2.7024    3.0024   -1.0576 O   0  0  0  0  0  0  0  0  0  0  0  0
   -1.6174    1.2186    0.1568 N   0  0  0  0  0  0  0  0  0  0  0  0
   -2.7620    0.4113    0.4230 C   0  0  0  0  0  0  0  0  0  0  0  0
   -3.5567    0.0380   -0.6768 C   0  0  0  0  0  0  0  0  0  0  0  0
   -4.6572   -0.8057   -0.4818 C   0  0  0  0  0  0  0  0  0  0  0  0
   -5.4754   -1.2132   -1.6303 N   0  0  0  0  0  4  0  0  0  0  0  0
   -5.2416   -0.6762   -2.7221 O   0  0  0  0  0  0  0  0  0  0  0  0
   -6.3566   -2.0630   -1.4386 O   0  0  0  0  0  1  0  0  0  0  0  0
   -4.9782   -1.2723    0.7955 C   0  0  0  0  0  0  0  0  0  0  0  0
   -4.1981   -0.8803    1.8853 C   0  0  0  0  0  0  0  0  0  0  0  0
   -3.0937   -0.0221    1.7235 C   0  0  0  0  0  0  0  0  0  0  0  0
   -2.3573    0.3971    2.9686 C   0  0  0  0  0  0  0  0  0  0  0  0
   -0.3057    0.9304    0.5218 C   0  0  0  0  0  0  0  0  0  0  0  0
    0.0085   -0.1274    1.2703 O   0  0  0  0  0  0  0  0  0  0  0  0
    4.1440    1.2192    0.3693 C   0  0  0  0  0  0  0  0  0  0  0  0
    5.1401    0.2414    0.2865 C   0  0  0  0  0  0  0  0  0  0  0  0
    4.9439   -3.7146   -0.2664 H   0  0  0  0  0  0  0  0  0  0  0  0
    5.4076   -3.0867   -1.8962 H   0  0  0  0  0  0  0  0  0  0  0  0
    6.6323   -3.7209   -0.7902 H   0  0  0  0  0  0  0  0  0  0  0  0
    3.3098   -2.2372   -1.1547 H   0  0  0  0  0  0  0  0  0  0  0  0
    1.5891   -0.5347   -1.0204 H   0  0  0  0  0  0  0  0  0  0  0  0
    2.2796    2.8734   -0.1862 H   0  0  0  0  0  0  0  0  0  0  0  0
    0.0100    3.7011   -1.2534 H   0  0  0  0  0  0  0  0  0  0  0  0
   -3.4911    2.6309   -0.6255 H   0  0  0  0  0  0  0  0  0  0  0  0
   -3.2865    0.3619   -1.6821 H   0  0  0  0  0  0  0  0  0  0  0  0
   -5.8261   -1.9340    0.9619 H   0  0  0  0  0  0  0  0  0  0  0  0
   -4.4641   -1.2428    2.8781 H   0  0  0  0  0  0  0  0  0  0  0  0
   -1.8719    1.3701    2.8504 H   0  0  0  0  0  0  0  0  0  0  0  0
   -1.6146   -0.3562    3.2459 H   0  0  0  0  0  0  0  0  0  0  0  0
   -3.0574    0.5085    3.8048 H   0  0  0  0  0  0  0  0  0  0  0  0
    0.9689   -0.0552    1.4350 H   0  0  0  0  0  0  0  0  0  0  0  0
    4.3888    2.1798    0.8155 H   0  0  0  0  0  0  0  0  0  0  0  0
    6.1397    0.4590    0.6550 H   0  0  0  0  0  0  0  0  0  0  0  0
  1  2  1  0
  2  3  1  0
  3  4  2  0
  4  5  1  0
  5  6  2  0
  6  7  1  0
  7  8  1  0
  8  9  1  0
  9 10  2  0
 10 11  1  0
 10 12  1  0
 12 13  1  0
 13 14  2  0
 14 15  1  0
 15 16  1  0
 16 17  2  0
 16 18  1  0
 15 19  2  0
 19 20  1  0
 20 21  2  0
 21 22  1  0
 12 23  1  0
 23 24  1  0
  6 25  1  0
 25 26  2  0
 26  3  1  0
 23  8  2  0
 21 13  1  0
  1 27  1  0
  1 28  1  0
  1 29  1  0
  4 30  1  0
  5 31  1  0
  7 32  1  0
  9 33  1  0
 11 34  1  0
 14 35  1  0
 19 36  1  0
 20 37  1  0
 22 38  1  0
 22 39  1  0
 22 40  1  0
 24 41  1  0
 25 42  1  0
 26 43  1  0
M  CHG  2  16   1  18  -1
M  END
$$$$
