
     RDKit          3D

 50 51  0  0  0  0  0  0  0  0999 V2000
    8.8679   -2.0396    1.4119 C   0  0  0  0  0  0  0  0  0  0  0  0
    7.6349   -1.3198    1.3725 O   0  0  0  0  0  0  0  0  0  0  0  0
    7.3774   -0.7348    0.1755 C   0  0  0  0  0  0  0  0  0  0  0  0
    8.0953   -0.7845   -0.8110 O   0  0  0  0  0  0  0  0  0  0  0  0
    6.0801   -0.0058    0.2145 C   0  0  0  0  0  0  0  0  0  0  0  0
    5.2679    0.0250    1.3558 C   0  0  0  0  0  0  0  0  0  0  0  0
    4.0566    0.7238    1.3402 C   0  0  0  0  0  0  0  0  0  0  0  0
    3.6441    1.4079    0.1884 C   0  0  0  0  0  0  0  0  0  0  0  0
    2.3285    2.1432    0.1586 C   0  0  0  0  0  0  0  0  0  0  0  0
    1.2769    1.2896   -0.3359 N   0  0  0  0  0  0  0  0  0  0  0  0
    0.8718    1.3008   -1.6504 C   0  0  0  0  0  0  0  0  0  0  0  0
    1.3045    2.0910   -2.4855 O   0  0  0  0  0  0  0  0  0  0  0  0
   -0.1569    0.2234   -2.0036 C   0  0  0  0  0  0  0  0  0  0  0  0
   -1.4427    0.4278   -1.4166 O   0  0  0  0  0  0  0  0  0  0  0  0
   -1.5730    0.0184   -0.1276 C   0  0  0  0  0  0  0  0  0  0  0  0
   -0.6722   -0.4558    0.5536 O   0  0  0  0  0  0  0  0  0  0  0  0
   -2.9809    0.2397    0.3608 C   0  0  0  0  0  0  0  0  0  0  0  0
   -3.9391   -0.7692   -0.2648 C   0  0  0  0  0  0  0  0  0  0  0  0
   -5.3598   -0.6493    0.2867 C   0  0  0  0  0  0  0  0  0  0  0  0
   -6.0481    0.6763   -0.0329 C   0  0  0  0  0  0  0  0  0  0  0  0
   -7.5345    0.3881    0.1560 C   0  0  0  0  0  0  0  0  0  0  0  0
   -7.7003   -1.1234    0.0003 C   0  0  0  0  0  0  0  0  0  0  0  0
   -6.3159   -1.6654   -0.3349 C   0  0  0  0  0  0  0  0  0  0  0  0
    4.4541    1.3646   -0.9548 C   0  0  0  0  0  0  0  0  0  0  0  0
    5.6643    0.6666   -0.9414 C   0  0  0  0  0  0  0  0  0  0  0  0
    8.9809   -2.4629    2.4139 H   0  0  0  0  0  0  0  0  0  0  0  0
    8.8554   -2.8609    0.6884 H   0  0  0  0  0  0  0  0  0  0  0  0
    9.7111   -1.3678    1.2229 H   0  0  0  0  0  0  0  0  0  0  0  0
    5.5626   -0.4930    2.2651 H   0  0  0  0  0  0  0  0  0  0  0  0
    3.4363    0.7293    2.2343 H   0  0  0  0  0  0  0  0  0  0  0  0
    2.0465    2.4607    1.1685 H   0  0  0  0  0  0  0  0  0  0  0  0
    2.4115    3.0481   -0.4539 H   0  0  0  0  0  0  0  0  0  0  0  0
    0.9415    0.5386    0.2659 H   0  0  0  0  0  0  0  0  0  0  0  0
    0.2438   -0.7667   -1.7532 H   0  0  0  0  0  0  0  0  0  0  0  0
   -0.2944    0.2364   -3.0905 H   0  0  0  0  0  0  0  0  0  0  0  0
   -3.2679    1.2727    0.1353 H   0  0  0  0  0  0  0  0  0  0  0  0
   -2.9785    0.1414    1.4527 H   0  0  0  0  0  0  0  0  0  0  0  0
   -3.9473   -0.6424   -1.3549 H   0  0  0  0  0  0  0  0  0  0  0  0
   -3.5664   -1.7852   -0.0806 H   0  0  0  0  0  0  0  0  0  0  0  0
   -5.3428   -0.7945    1.3754 H   0  0  0  0  0  0  0  0  0  0  0  0
   -5.7104    1.4914    0.6144 H   0  0  0  0  0  0  0  0  0  0  0  0
   -5.8587    0.9720   -1.0721 H   0  0  0  0  0  0  0  0  0  0  0  0
   -8.1387    0.9396   -0.5716 H   0  0  0  0  0  0  0  0  0  0  0  0
   -7.8617    0.6975    1.1551 H   0  0  0  0  0  0  0  0  0  0  0  0
   -8.4288   -1.3767   -0.7766 H   0  0  0  0  0  0  0  0  0  0  0  0
   -8.0601   -1.5555    0.9415 H   0  0  0  0  0  0  0  0  0  0  0  0
   -6.1651   -2.6752    0.0593 H   0  0  0  0  0  0  0  0  0  0  0  0
   -6.1885   -1.7065   -1.4238 H   0  0  0  0  0  0  0  0  0  0  0  0
    4.1401    1.8730   -1.8661 H   0  0  0  0  0  0  0  0  0  0  0  0
    6.2787    0.6480   -1.8397 H   0  0  0  0  0  0  0  0  0  0  0  0
  1  2  1  0
  2  3  1  0
  3  4  2  0
  3  5  1  0
  5  6  2  0
  6  7  1  0
  7  8  2  0
  8  9  1  0
  9 10  1  0
 10 11  1  0
 11 12  2  0
 11 13  1  0
 13 14  1  0
 14 15  1  0
 15 16  2  0
 15 17  1  0
 17 18  1  0
 18 19  1  0
 19 20  1  0
 20 21  1  0
 21 22  1  0
 22 23  1  0
  8 24  1  0
 24 25  2  0
 25  5  1  0
 23 19  1  0
  1 26  1  0
  1 27  1  0
  1 28  1  0
  6 29  1  0
  7 30  1  0
  9 31  1  0
  9 32  1  0
 10 33  1  0
 13 34  1  0
 13 35  1  0
 17 36  1  0
 17 37  1  0
 18 38  1  0
 18 39  1  0
 19 40  1  0
 20 41  1  0
 20 42  1  0
 21 43  1  0
 21 44  1  0
 22 45  1  0
 22 46  1  0
 23 47  1  0
 23 48  1  0
 24 49  1  0
 25 50  1  0
M  END
$$$$
