
     RDKit          3D

 66 68  0  0  0  0  0  0  0  0999 V2000
   -2.0001   -5.3674    0.9519 C   0  0  0  0  0  0  0  0  0  0  0  0
   -1.4982   -3.9457    0.7199 C   0  0  0  0  0  0  0  0  0  0  0  0
   -2.4558   -3.1291   -0.0284 N   0  0  0  0  0  0  0  0  0  0  0  0
   -3.7457   -2.8780    0.6187 C   0  0  0  0  0  0  0  0  0  0  0  0
   -3.7357   -2.5116    2.1018 C   0  0  0  0  0  0  0  0  0  0  0  0
   -1.8439   -1.9553   -0.6684 C   0  0  0  0  0  0  0  0  0  0  0  0
   -1.3780   -0.8297    0.2689 C   0  0  0  0  0  0  0  0  0  0  0  0
   -0.6364    0.2991   -0.4965 C   0  0  0  0  0  0  0  0  0  0  0  0
    0.7244   -0.1342   -1.0340 C   0  0  0  0  0  0  0  0  0  0  0  0
    1.0242    0.0177   -2.3907 C   0  0  0  0  0  0  0  0  0  0  0  0
    2.2732   -0.3665   -2.9032 C   0  0  0  0  0  0  0  0  0  0  0  0
    3.2783   -0.9258   -2.0973 C   0  0  0  0  0  0  0  0  0  0  0  0
    4.5295   -1.2958   -2.6084 N   0  0  0  0  0  0  0  0  0  0  0  0
    4.7051   -1.3782   -4.0570 C   0  0  0  0  0  0  0  0  0  0  0  0
    5.3691   -2.1953   -1.8191 C   0  0  0  0  0  0  0  0  0  0  0  0
    2.9634   -1.0460   -0.7328 C   0  0  0  0  0  0  0  0  0  0  0  0
    1.7182   -0.6639   -0.2088 C   0  0  0  0  0  0  0  0  0  0  0  0
   -0.5471    1.6419    0.2413 C   0  0  0  0  0  0  0  0  0  0  0  0
   -0.2891    1.7682    1.6158 C   0  0  0  0  0  0  0  0  0  0  0  0
   -0.0876    0.6351    2.3613 O   0  0  0  0  0  0  0  0  0  0  0  0
   -0.8709    0.5876    3.5539 C   0  0  0  0  0  0  0  0  0  0  0  0
   -0.1479    3.0321    2.2153 C   0  0  0  0  0  0  0  0  0  0  0  0
   -0.2942    4.2058    1.4702 C   0  0  0  0  0  0  0  0  0  0  0  0
   -0.1807    5.4717    1.9874 O   0  0  0  0  0  0  0  0  0  0  0  0
    0.2101    5.5970    3.3492 C   0  0  0  0  0  0  0  0  0  0  0  0
   -0.5735    4.1120    0.0993 C   0  0  0  0  0  0  0  0  0  0  0  0
   -0.7334    5.2901   -0.7516 C   0  0  0  0  0  0  0  0  0  0  0  0
   -0.9769    5.1600   -2.0584 C   0  0  0  0  0  0  0  0  0  0  0  0
   -1.1012    3.8464   -2.7013 C   0  0  0  0  0  0  0  0  0  0  0  0
   -1.3310    3.7473   -3.9007 O   0  0  0  0  0  0  0  0  0  0  0  0
   -0.9543    2.7425   -1.8777 O   0  0  0  0  0  0  0  0  0  0  0  0
   -0.6868    2.8437   -0.4859 C   0  0  0  0  0  0  0  0  0  0  0  0
   -1.2198   -5.9629    1.4377 H   0  0  0  0  0  0  0  0  0  0  0  0
   -2.8840   -5.3939    1.5953 H   0  0  0  0  0  0  0  0  0  0  0  0
   -2.2509   -5.8540    0.0030 H   0  0  0  0  0  0  0  0  0  0  0  0
   -1.2289   -3.4838    1.6770 H   0  0  0  0  0  0  0  0  0  0  0  0
   -0.5659   -4.0333    0.1472 H   0  0  0  0  0  0  0  0  0  0  0  0
   -4.3576   -3.7824    0.5056 H   0  0  0  0  0  0  0  0  0  0  0  0
   -4.2941   -2.1032    0.0666 H   0  0  0  0  0  0  0  0  0  0  0  0
   -3.3735   -3.3375    2.7216 H   0  0  0  0  0  0  0  0  0  0  0  0
   -4.7556   -2.2857    2.4302 H   0  0  0  0  0  0  0  0  0  0  0  0
   -3.1210   -1.6339    2.3120 H   0  0  0  0  0  0  0  0  0  0  0  0
   -2.5592   -1.5415   -1.3917 H   0  0  0  0  0  0  0  0  0  0  0  0
   -1.0025   -2.3025   -1.2810 H   0  0  0  0  0  0  0  0  0  0  0  0
   -2.2586   -0.3909    0.7514 H   0  0  0  0  0  0  0  0  0  0  0  0
   -0.7491   -1.2587    1.0537 H   0  0  0  0  0  0  0  0  0  0  0  0
   -1.2857    0.4741   -1.3660 H   0  0  0  0  0  0  0  0  0  0  0  0
    0.2922    0.4446   -3.0740 H   0  0  0  0  0  0  0  0  0  0  0  0
    2.4306   -0.2067   -3.9652 H   0  0  0  0  0  0  0  0  0  0  0  0
    4.5352   -0.4075   -4.5343 H   0  0  0  0  0  0  0  0  0  0  0  0
    4.0352   -2.1267   -4.4934 H   0  0  0  0  0  0  0  0  0  0  0  0
    5.7316   -1.6617   -4.3149 H   0  0  0  0  0  0  0  0  0  0  0  0
    5.6737   -1.7284   -0.8759 H   0  0  0  0  0  0  0  0  0  0  0  0
    6.2982   -2.4364   -2.3471 H   0  0  0  0  0  0  0  0  0  0  0  0
    4.8524   -3.1396   -1.6129 H   0  0  0  0  0  0  0  0  0  0  0  0
    3.6888   -1.4349   -0.0251 H   0  0  0  0  0  0  0  0  0  0  0  0
    1.5489   -0.7787    0.8589 H   0  0  0  0  0  0  0  0  0  0  0  0
   -1.8859    0.9687    3.3942 H   0  0  0  0  0  0  0  0  0  0  0  0
   -0.9510   -0.4611    3.8562 H   0  0  0  0  0  0  0  0  0  0  0  0
   -0.3739    1.1321    4.3623 H   0  0  0  0  0  0  0  0  0  0  0  0
    0.1051    3.0764    3.2681 H   0  0  0  0  0  0  0  0  0  0  0  0
   -0.5465    5.1722    4.0166 H   0  0  0  0  0  0  0  0  0  0  0  0
    1.1923    5.1452    3.5225 H   0  0  0  0  0  0  0  0  0  0  0  0
    0.2909    6.6643    3.5762 H   0  0  0  0  0  0  0  0  0  0  0  0
   -0.6445    6.2736   -0.3024 H   0  0  0  0  0  0  0  0  0  0  0  0
   -1.0941    6.0188   -2.7071 H   0  0  0  0  0  0  0  0  0  0  0  0
  1  2  1  0
  2  3  1  0
  3  4  1  0
  4  5  1  0
  3  6  1  0
  6  7  1  0
  7  8  1  0
  8  9  1  0
  9 10  2  0
 10 11  1  0
 11 12  2  0
 12 13  1  0
 13 14  1  0
 13 15  1  0
 12 16  1  0
 16 17  2  0
  8 18  1  0
 18 19  2  0
 19 20  1  0
 20 21  1  0
 19 22  1  0
 22 23  2  0
 23 24  1  0
 24 25  1  0
 23 26  1  0
 26 27  1  0
 27 28  2  0
 28 29  1  0
 29 30  2  0
 29 31  1  0
 31 32  1  0
 17  9  1  0
 32 18  1  0
 32 26  2  0
  1 33  1  0
  1 34  1  0
  1 35  1  0
  2 36  1  0
  2 37  1  0
  4 38  1  0
  4 39  1  0
  5 40  1  0
  5 41  1  0
  5 42  1  0
  6 43  1  0
  6 44  1  0
  7 45  1  0
  7 46  1  0
  8 47  1  0
 10 48  1  0
 11 49  1  0
 14 50  1  0
 14 51  1  0
 14 52  1  0
 15 53  1  0
 15 54  1  0
 15 55  1  0
 16 56  1  0
 17 57  1  0
 21 58  1  0
 21 59  1  0
 21 60  1  0
 22 61  1  0
 25 62  1  0
 25 63  1  0
 25 64  1  0
 27 65  1  0
 28 66  1  0
M  END
$$$$
