
     RDKit          3D

 40 43  0  0  0  0  0  0  0  0999 V2000
    6.4755    1.2462    0.3693 O   0  0  0  0  0  0  0  0  0  0  0  0
    5.9150    0.2400    0.8284 N   0  0  0  0  0  4  0  0  0  0  0  0
    6.4753   -0.6174    1.5264 O   0  0  0  0  0  1  0  0  0  0  0  0
    4.4928    0.0515    0.5216 C   0  0  0  0  0  0  0  0  0  0  0  0
    3.8223   -1.0772    0.9938 C   0  0  0  0  0  0  0  0  0  0  0  0
    2.4651   -1.2428    0.6931 C   0  0  0  0  0  0  0  0  0  0  0  0
    1.7469   -0.3054   -0.0745 C   0  0  0  0  0  0  0  0  0  0  0  0
    0.3966   -0.5027   -0.3523 N   0  0  0  0  0  0  0  0  0  0  0  0
   -0.2554   -1.6169    0.1000 N   0  0  0  0  0  0  0  0  0  0  0  0
   -1.4392   -1.6094   -0.4332 C   0  0  0  0  0  0  0  0  0  0  0  0
   -2.4316   -2.6148   -0.1751 C   0  0  0  0  0  0  0  0  0  0  0  0
   -3.7180   -2.7924   -0.6526 C   0  0  0  0  0  0  0  0  0  0  0  0
   -4.2235   -3.9667   -0.0423 C   0  0  0  0  0  0  0  0  0  0  0  0
   -3.2198   -4.4361    0.7694 C   0  0  0  0  0  0  0  0  0  0  0  0
   -2.1337   -3.6272    0.6965 O   0  0  0  0  0  0  0  0  0  0  0  0
   -1.7022   -0.4853   -1.3899 C   0  0  0  0  0  0  0  0  0  0  0  0
   -0.4664    0.3784   -1.1421 C   0  0  0  0  0  0  0  0  0  0  0  0
   -0.8416    1.6668   -0.4251 C   0  0  0  0  0  0  0  0  0  0  0  0
   -1.0183    1.7236    0.9672 C   0  0  0  0  0  0  0  0  0  0  0  0
   -1.3878    2.9162    1.5912 C   0  0  0  0  0  0  0  0  0  0  0  0
   -1.5935    4.0665    0.8334 C   0  0  0  0  0  0  0  0  0  0  0  0
   -1.4309    4.0261   -0.5493 C   0  0  0  0  0  0  0  0  0  0  0  0
   -1.0605    2.8346   -1.1759 C   0  0  0  0  0  0  0  0  0  0  0  0
    2.4549    0.8181   -0.5332 C   0  0  0  0  0  0  0  0  0  0  0  0
    3.8136    1.0038   -0.2429 C   0  0  0  0  0  0  0  0  0  0  0  0
    4.3259   -1.8333    1.5915 H   0  0  0  0  0  0  0  0  0  0  0  0
    1.9549   -2.1283    1.0710 H   0  0  0  0  0  0  0  0  0  0  0  0
   -4.2337   -2.1536   -1.3558 H   0  0  0  0  0  0  0  0  0  0  0  0
   -5.1976   -4.4159   -0.1760 H   0  0  0  0  0  0  0  0  0  0  0  0
   -3.1233   -5.2870    1.4297 H   0  0  0  0  0  0  0  0  0  0  0  0
   -2.6562    0.0098   -1.1875 H   0  0  0  0  0  0  0  0  0  0  0  0
   -1.7084   -0.8893   -2.4081 H   0  0  0  0  0  0  0  0  0  0  0  0
    0.0099    0.6134   -2.1026 H   0  0  0  0  0  0  0  0  0  0  0  0
   -0.8579    0.8375    1.5804 H   0  0  0  0  0  0  0  0  0  0  0  0
   -1.5116    2.9457    2.6710 H   0  0  0  0  0  0  0  0  0  0  0  0
   -1.8791    4.9945    1.3219 H   0  0  0  0  0  0  0  0  0  0  0  0
   -1.5923    4.9246   -1.1397 H   0  0  0  0  0  0  0  0  0  0  0  0
   -0.9419    2.8272   -2.2574 H   0  0  0  0  0  0  0  0  0  0  0  0
    1.9597    1.5842   -1.1233 H   0  0  0  0  0  0  0  0  0  0  0  0
    4.3162    1.8930   -0.6170 H   0  0  0  0  0  0  0  0  0  0  0  0
  1  2  2  0
  2  3  1  0
  2  4  1  0
  4  5  2  0
  5  6  1  0
  6  7  2  0
  7  8  1  0
  8  9  1  0
  9 10  2  0
 10 11  1  0
 11 12  2  0
 12 13  1  0
 13 14  2  0
 14 15  1  0
 10 16  1  0
 16 17  1  0
 17 18  1  0
 18 19  2  0
 19 20  1  0
 20 21  2  0
 21 22  1  0
 22 23  2  0
  7 24  1  0
 24 25  2  0
 25  4  1  0
 17  8  1  0
 23 18  1  0
 15 11  1  0
  5 26  1  0
  6 27  1  0
 12 28  1  0
 13 29  1  0
 14 30  1  0
 16 31  1  0
 16 32  1  0
 17 33  1  0
 19 34  1  0
 20 35  1  0
 21 36  1  0
 22 37  1  0
 23 38  1  0
 24 39  1  0
 25 40  1  0
M  CHG  2   2   1   3  -1
M  END
$$$$
