
     RDKit          3D

 35 37  0  0  0  0  0  0  0  0999 V2000
   -3.8253    0.6091   -2.6793 C   0  0  0  0  0  0  0  0  0  0  0  0
   -3.0994   -0.1765   -1.7442 O   0  0  0  0  0  0  0  0  0  0  0  0
   -3.9019   -0.5435   -0.6215 C   0  0  0  0  0  0  0  0  0  0  0  0
   -3.0825   -1.4005    0.3545 C   0  0  0  0  0  0  0  0  0  0  0  0
   -1.9349   -0.6689    0.9195 N   0  0  0  0  0  0  0  0  0  0  0  0
   -2.0995    0.2116    2.0064 C   0  0  0  0  0  0  0  0  0  0  0  0
   -3.5187    0.4952    2.8635 S   0  0  0  0  0  0  0  0  0  0  0  0
   -0.9963    0.9153    2.4233 N   0  0  0  0  0  0  0  0  0  0  0  0
    0.1922    0.7481    1.7886 C   0  0  0  0  0  0  0  0  0  0  0  0
    1.5275    1.6315    2.2899 S   0  0  0  0  0  0  0  0  0  0  0  0
    2.4861    0.8920    1.0834 C   0  0  0  0  0  0  0  0  0  0  0  0
    1.7769   -0.0316    0.3270 C   0  0  0  0  0  0  0  0  0  0  0  0
    0.4077   -0.1011    0.7474 C   0  0  0  0  0  0  0  0  0  0  0  0
   -0.7020   -0.8956    0.2557 C   0  0  0  0  0  0  0  0  0  0  0  0
   -0.5410   -1.7161   -0.6444 O   0  0  0  0  0  0  0  0  0  0  0  0
    2.4165   -0.7954   -0.7958 C   0  0  0  0  0  0  0  0  0  0  0  0
    3.9513   -0.7197   -0.7383 C   0  0  0  0  0  0  0  0  0  0  0  0
    4.4440    0.7044   -0.4439 C   0  0  0  0  0  0  0  0  0  0  0  0
    3.9391    1.2109    0.9160 C   0  0  0  0  0  0  0  0  0  0  0  0
   -4.6814    0.0490   -3.0674 H   0  0  0  0  0  0  0  0  0  0  0  0
   -4.1630    1.5410   -2.2158 H   0  0  0  0  0  0  0  0  0  0  0  0
   -3.1611    0.8542   -3.5123 H   0  0  0  0  0  0  0  0  0  0  0  0
   -4.7620   -1.1262   -0.9711 H   0  0  0  0  0  0  0  0  0  0  0  0
   -4.2714    0.3648   -0.1352 H   0  0  0  0  0  0  0  0  0  0  0  0
   -3.7273   -1.7541    1.1654 H   0  0  0  0  0  0  0  0  0  0  0  0
   -2.7291   -2.2952   -0.1701 H   0  0  0  0  0  0  0  0  0  0  0  0
   -1.0716    1.5656    3.1960 H   0  0  0  0  0  0  0  0  0  0  0  0
    2.0676   -0.3737   -1.7464 H   0  0  0  0  0  0  0  0  0  0  0  0
    2.1114   -1.8471   -0.7684 H   0  0  0  0  0  0  0  0  0  0  0  0
    4.3217   -1.3945    0.0442 H   0  0  0  0  0  0  0  0  0  0  0  0
    4.3693   -1.0721   -1.6880 H   0  0  0  0  0  0  0  0  0  0  0  0
    4.0950    1.3755   -1.2393 H   0  0  0  0  0  0  0  0  0  0  0  0
    5.5394    0.7323   -0.4595 H   0  0  0  0  0  0  0  0  0  0  0  0
    4.1180    2.2893    0.9922 H   0  0  0  0  0  0  0  0  0  0  0  0
    4.5047    0.7221    1.7187 H   0  0  0  0  0  0  0  0  0  0  0  0
  1  2  1  0
  2  3  1  0
  3  4  1  0
  4  5  1  0
  5  6  1  0
  6  7  2  0
  6  8  1  0
  8  9  1  0
  9 10  1  0
 10 11  1  0
 11 12  2  0
 12 13  1  0
 13 14  1  0
 14 15  2  0
 12 16  1  0
 16 17  1  0
 17 18  1  0
 18 19  1  0
 14  5  1  0
 13  9  2  0
 19 11  1  0
  1 20  1  0
  1 21  1  0
  1 22  1  0
  3 23  1  0
  3 24  1  0
  4 25  1  0
  4 26  1  0
  8 27  1  0
 16 28  1  0
 16 29  1  0
 17 30  1  0
 17 31  1  0
 18 32  1  0
 18 33  1  0
 19 34  1  0
 19 35  1  0
M  END
$$$$
