
     RDKit          3D

 48 50  0  0  0  0  0  0  0  0999 V2000
    3.0701    1.4130    0.7914 C   0  0  0  0  0  0  0  0  0  0  0  0
    1.7438    1.2366    0.6986 C   0  0  0  0  0  0  0  0  0  0  0  0
    0.7521    1.9745    1.4773 C   0  0  0  0  0  0  0  0  0  0  0  0
    1.0288    3.0967    2.3855 C   0  0  0  0  0  0  0  0  0  0  0  0
    1.8228    3.9952    2.1432 O   0  0  0  0  0  0  0  0  0  0  0  0
    0.3293    2.9531    3.5412 O   0  0  0  0  0  0  0  0  0  0  0  0
    0.5421    4.0029    4.4830 C   0  0  0  0  0  0  0  0  0  0  0  0
   -0.4702    1.5032    1.1736 C   0  0  0  0  0  0  0  0  0  0  0  0
   -1.6567    2.0213    1.6129 O   0  0  0  0  0  0  0  0  0  0  0  0
   -0.3569    0.4144    0.1915 C   0  0  0  0  0  0  0  0  0  0  0  0
   -1.3411   -0.3254   -0.3588 C   0  0  0  0  0  0  0  0  0  0  0  0
   -2.7736   -0.3004   -0.0628 C   0  0  0  0  0  0  0  0  0  0  0  0
   -3.6690    0.1961   -1.0160 C   0  0  0  0  0  0  0  0  0  0  0  0
   -5.0362    0.2328   -0.7381 C   0  0  0  0  0  0  0  0  0  0  0  0
   -5.5040   -0.2313    0.4861 C   0  0  0  0  0  0  0  0  0  0  0  0
   -6.8464   -0.1733    0.7146 O   0  0  0  0  0  0  0  0  0  0  0  0
   -4.6272   -0.7365    1.4407 C   0  0  0  0  0  0  0  0  0  0  0  0
   -3.2589   -0.7740    1.1631 C   0  0  0  0  0  0  0  0  0  0  0  0
    1.0246    0.3178   -0.0819 N   0  0  0  0  0  0  0  0  0  0  0  0
    1.6254   -0.6412   -0.9396 C   0  0  0  0  0  0  0  0  0  0  0  0
    2.3814   -0.2302   -2.0482 C   0  0  0  0  0  0  0  0  0  0  0  0
    2.9916   -1.1632   -2.8967 C   0  0  0  0  0  0  0  0  0  0  0  0
    3.7705   -0.7030   -4.0931 C   0  0  0  0  0  0  0  0  0  0  0  0
    2.8175   -2.5293   -2.6449 C   0  0  0  0  0  0  0  0  0  0  0  0
    2.0591   -2.9662   -1.5522 C   0  0  0  0  0  0  0  0  0  0  0  0
    1.9180   -4.4309   -1.2613 C   0  0  0  0  0  0  0  0  0  0  0  0
    1.4820   -2.0164   -0.6989 C   0  0  0  0  0  0  0  0  0  0  0  0
    3.5105    2.1559    1.4485 H   0  0  0  0  0  0  0  0  0  0  0  0
    3.7646    0.8134    0.2139 H   0  0  0  0  0  0  0  0  0  0  0  0
   -0.0847    3.8066    5.3573 H   0  0  0  0  0  0  0  0  0  0  0  0
    0.2490    4.9678    4.0574 H   0  0  0  0  0  0  0  0  0  0  0  0
    1.5881    4.0223    4.8046 H   0  0  0  0  0  0  0  0  0  0  0  0
   -2.3684    1.7290    1.0208 H   0  0  0  0  0  0  0  0  0  0  0  0
   -1.0884   -1.0586   -1.1221 H   0  0  0  0  0  0  0  0  0  0  0  0
   -3.3113    0.5597   -1.9769 H   0  0  0  0  0  0  0  0  0  0  0  0
   -5.7347    0.6202   -1.4749 H   0  0  0  0  0  0  0  0  0  0  0  0
   -7.0288   -0.5318    1.5988 H   0  0  0  0  0  0  0  0  0  0  0  0
   -4.9849   -1.1025    2.3981 H   0  0  0  0  0  0  0  0  0  0  0  0
   -2.5733   -1.1681    1.9110 H   0  0  0  0  0  0  0  0  0  0  0  0
    2.4863    0.8337   -2.2524 H   0  0  0  0  0  0  0  0  0  0  0  0
    3.1051   -0.6003   -4.9557 H   0  0  0  0  0  0  0  0  0  0  0  0
    4.5640   -1.4160   -4.3408 H   0  0  0  0  0  0  0  0  0  0  0  0
    4.2508    0.2618   -3.8990 H   0  0  0  0  0  0  0  0  0  0  0  0
    3.2794   -3.2608   -3.3059 H   0  0  0  0  0  0  0  0  0  0  0  0
    2.7303   -4.7623   -0.6073 H   0  0  0  0  0  0  0  0  0  0  0  0
    1.9456   -5.0175   -2.1857 H   0  0  0  0  0  0  0  0  0  0  0  0
    0.9609   -4.6413   -0.7726 H   0  0  0  0  0  0  0  0  0  0  0  0
    0.9214   -2.3473    0.1729 H   0  0  0  0  0  0  0  0  0  0  0  0
  1  2  2  0
  2  3  1  0
  3  4  1  0
  4  5  2  0
  4  6  1  0
  6  7  1  0
  3  8  2  0
  8  9  1  0
  8 10  1  0
 10 11  2  3
 11 12  1  0
 12 13  2  0
 13 14  1  0
 14 15  2  0
 15 16  1  0
 15 17  1  0
 17 18  2  0
 10 19  1  0
 19 20  1  0
 20 21  2  0
 21 22  1  0
 22 23  1  0
 22 24  2  0
 24 25  1  0
 25 26  1  0
 25 27  2  0
 19  2  1  0
 27 20  1  0
 18 12  1  0
  1 28  1  0
  1 29  1  0
  7 30  1  0
  7 31  1  0
  7 32  1  0
  9 33  1  0
 11 34  1  0
 13 35  1  0
 14 36  1  0
 16 37  1  0
 17 38  1  0
 18 39  1  0
 21 40  1  0
 23 41  1  0
 23 42  1  0
 23 43  1  0
 24 44  1  0
 26 45  1  0
 26 46  1  0
 26 47  1  0
 27 48  1  0
M  END
$$$$
