
     RDKit          3D

 58 62  0  0  0  0  0  0  0  0999 V2000
    3.4730   -2.9549    4.0711 C   0  0  0  0  0  0  0  0  0  0  0  0
    3.7989   -2.5805    2.7322 O   0  0  0  0  0  0  0  0  0  0  0  0
    3.4136   -1.3230    2.4005 C   0  0  0  0  0  0  0  0  0  0  0  0
    2.8354   -0.5395    3.1399 O   0  0  0  0  0  0  0  0  0  0  0  0
    3.7594   -0.9986    0.9901 C   0  0  0  0  0  0  0  0  0  0  0  0
    4.7048   -1.6970    0.3440 C   0  0  0  0  0  0  0  0  0  0  0  0
    5.1914   -1.4188   -0.9059 O   0  0  0  0  0  0  0  0  0  0  0  0
    4.9160   -0.0958   -1.3899 C   0  0  0  0  0  0  0  0  0  0  0  0
    5.9381    0.8853   -0.8081 C   0  0  0  0  0  0  0  0  0  0  0  0
    3.4620    0.3419   -1.1471 C   0  0  0  0  0  0  0  0  0  0  0  0
    2.5005   -0.4327   -2.0643 C   0  0  0  0  0  0  0  0  0  0  0  0
    1.1256    0.0957   -2.0117 N   0  0  0  0  0  0  0  0  0  0  0  0
    0.1743   -0.9456   -2.4785 C   0  0  0  0  0  0  0  0  0  0  0  0
   -1.2874   -0.4565   -2.5865 C   0  0  0  0  0  0  0  0  0  0  0  0
   -1.6724    0.2292   -1.3281 C   0  0  0  0  0  0  0  0  0  0  0  0
   -0.7069    0.7462   -0.4918 C   0  0  0  0  0  0  0  0  0  0  0  0
   -1.3443    1.3354    0.5666 N   0  0  0  0  0  0  0  0  0  0  0  0
   -2.7098    1.1885    0.4340 C   0  0  0  0  0  0  0  0  0  0  0  0
   -3.7460    1.6179    1.2747 C   0  0  0  0  0  0  0  0  0  0  0  0
   -5.0657    1.3359    0.8890 C   0  0  0  0  0  0  0  0  0  0  0  0
   -6.1718    1.7006    1.6229 O   0  0  0  0  0  0  0  0  0  0  0  0
   -5.9551    2.3912    2.8441 C   0  0  0  0  0  0  0  0  0  0  0  0
   -5.3302    0.6442   -0.3104 C   0  0  0  0  0  0  0  0  0  0  0  0
   -6.6582    0.4217   -0.5937 O   0  0  0  0  0  0  0  0  0  0  0  0
   -6.9688   -0.2487   -1.8061 C   0  0  0  0  0  0  0  0  0  0  0  0
   -4.2724    0.2253   -1.1329 C   0  0  0  0  0  0  0  0  0  0  0  0
   -2.9426    0.4987   -0.7552 C   0  0  0  0  0  0  0  0  0  0  0  0
    0.7763    0.7027   -0.7000 C   0  0  0  0  0  0  0  0  0  0  0  0
    1.5046    0.0097    0.4556 C   0  0  0  0  0  0  0  0  0  0  0  0
    3.0405    0.1599    0.3338 C   0  0  0  0  0  0  0  0  0  0  0  0
    2.3891   -2.9343    4.2220 H   0  0  0  0  0  0  0  0  0  0  0  0
    3.8253   -3.9775    4.2321 H   0  0  0  0  0  0  0  0  0  0  0  0
    3.9775   -2.2981    4.7866 H   0  0  0  0  0  0  0  0  0  0  0  0
    5.2133   -2.5668    0.7445 H   0  0  0  0  0  0  0  0  0  0  0  0
    5.0975   -0.1288   -2.4714 H   0  0  0  0  0  0  0  0  0  0  0  0
    6.9558    0.5416   -1.0235 H   0  0  0  0  0  0  0  0  0  0  0  0
    5.8112    1.8842   -1.2366 H   0  0  0  0  0  0  0  0  0  0  0  0
    5.8600    0.9649    0.2808 H   0  0  0  0  0  0  0  0  0  0  0  0
    3.3841    1.4067   -1.4109 H   0  0  0  0  0  0  0  0  0  0  0  0
    2.8452   -0.3678   -3.1035 H   0  0  0  0  0  0  0  0  0  0  0  0
    2.5215   -1.4961   -1.7899 H   0  0  0  0  0  0  0  0  0  0  0  0
    0.4808   -1.3023   -3.4698 H   0  0  0  0  0  0  0  0  0  0  0  0
    0.2102   -1.8096   -1.8001 H   0  0  0  0  0  0  0  0  0  0  0  0
   -1.3837    0.2442   -3.4245 H   0  0  0  0  0  0  0  0  0  0  0  0
   -1.9465   -1.3091   -2.7827 H   0  0  0  0  0  0  0  0  0  0  0  0
   -0.8917    1.8034    1.3397 H   0  0  0  0  0  0  0  0  0  0  0  0
   -3.5084    2.1495    2.1868 H   0  0  0  0  0  0  0  0  0  0  0  0
   -5.3883    1.7766    3.5512 H   0  0  0  0  0  0  0  0  0  0  0  0
   -6.9329    2.5943    3.2915 H   0  0  0  0  0  0  0  0  0  0  0  0
   -5.4632    3.3542    2.6718 H   0  0  0  0  0  0  0  0  0  0  0  0
   -8.0581   -0.3274   -1.8749 H   0  0  0  0  0  0  0  0  0  0  0  0
   -6.5623   -1.2653   -1.8109 H   0  0  0  0  0  0  0  0  0  0  0  0
   -6.6225    0.3218   -2.6742 H   0  0  0  0  0  0  0  0  0  0  0  0
   -4.4404   -0.3085   -2.0594 H   0  0  0  0  0  0  0  0  0  0  0  0
    1.1101    1.7495   -0.7351 H   0  0  0  0  0  0  0  0  0  0  0  0
    1.1830    0.4388    1.4132 H   0  0  0  0  0  0  0  0  0  0  0  0
    1.2134   -1.0501    0.4904 H   0  0  0  0  0  0  0  0  0  0  0  0
    3.3378    1.0734    0.8683 H   0  0  0  0  0  0  0  0  0  0  0  0
  1  2  1  0
  2  3  1  0
  3  4  2  0
  3  5  1  0
  5  6  2  0
  6  7  1  0
  7  8  1  0
  8  9  1  0
  8 10  1  0
 10 11  1  0
 11 12  1  0
 12 13  1  0
 13 14  1  0
 14 15  1  0
 15 16  2  0
 16 17  1  0
 17 18  1  0
 18 19  2  0
 19 20  1  0
 20 21  1  0
 21 22  1  0
 20 23  2  0
 23 24  1  0
 24 25  1  0
 23 26  1  0
 26 27  2  0
 16 28  1  0
 28 29  1  0
 29 30  1  0
 30  5  1  0
 30 10  1  0
 28 12  1  0
 27 15  1  0
 27 18  1  0
  1 31  1  0
  1 32  1  0
  1 33  1  0
  6 34  1  0
  8 35  1  0
  9 36  1  0
  9 37  1  0
  9 38  1  0
 10 39  1  0
 11 40  1  0
 11 41  1  0
 13 42  1  0
 13 43  1  0
 14 44  1  0
 14 45  1  0
 17 46  1  0
 19 47  1  0
 22 48  1  0
 22 49  1  0
 22 50  1  0
 25 51  1  0
 25 52  1  0
 25 53  1  0
 26 54  1  0
 28 55  1  0
 29 56  1  0
 29 57  1  0
 30 58  1  0
M  END
$$$$
