
     RDKit          3D

 40 41  0  0  0  0  0  0  0  0999 V2000
   -0.5901    2.4065   -3.0573 C   0  0  0  0  0  0  0  0  0  0  0  0
    0.0322    2.4231   -1.6671 C   0  0  0  0  0  0  0  0  0  0  0  0
   -0.5293    1.3367   -0.7736 C   0  0  0  0  0  0  0  0  0  0  0  0
   -1.6251    1.5964    0.0504 C   0  0  0  0  0  0  0  0  0  0  0  0
   -2.2772    2.9476    0.1344 C   0  0  0  0  0  0  0  0  0  0  0  0
   -2.1808    0.6581    0.8491 N   0  0  0  0  0  0  0  0  0  0  0  0
   -1.7103   -0.6042    0.8707 C   0  0  0  0  0  0  0  0  0  0  0  0
   -2.3232   -1.5637    1.7046 C   0  0  0  0  0  0  0  0  0  0  0  0
   -3.3847   -1.1054    2.4585 O   0  0  0  0  0  0  0  0  0  0  0  0
   -4.0525   -2.0290    3.3042 C   0  0  0  0  0  0  0  0  0  0  0  0
   -1.8669   -2.8860    1.7469 C   0  0  0  0  0  0  0  0  0  0  0  0
   -0.7961   -3.2729    0.9567 C   0  0  0  0  0  0  0  0  0  0  0  0
   -0.1806   -2.3376    0.1308 C   0  0  0  0  0  0  0  0  0  0  0  0
   -0.6146   -0.9864    0.0713 C   0  0  0  0  0  0  0  0  0  0  0  0
   -0.0174    0.0199   -0.7492 C   0  0  0  0  0  0  0  0  0  0  0  0
    1.4169   -0.3985   -1.7827 S   0  0  0  0  0  0  0  0  0  0  0  0
    2.7311   -0.0991   -0.5501 C   0  0  0  0  0  0  0  0  0  0  0  0
    4.0930   -0.3540   -1.1797 C   0  0  0  0  0  0  0  0  0  0  0  0
    5.1837   -0.1080   -0.1778 C   0  0  0  0  0  0  0  0  0  0  0  0
    5.0585    0.2546    0.9788 O   0  0  0  0  0  0  0  0  0  0  0  0
    6.4059   -0.3358   -0.6970 O   0  0  0  0  0  0  0  0  0  0  0  0
   -0.1674    3.2106   -3.6682 H   0  0  0  0  0  0  0  0  0  0  0  0
   -0.4047    1.4592   -3.5731 H   0  0  0  0  0  0  0  0  0  0  0  0
   -1.6743    2.5524   -3.0115 H   0  0  0  0  0  0  0  0  0  0  0  0
    1.1217    2.3443   -1.7438 H   0  0  0  0  0  0  0  0  0  0  0  0
   -0.1248    3.4095   -1.2165 H   0  0  0  0  0  0  0  0  0  0  0  0
   -1.5840    3.6799    0.5592 H   0  0  0  0  0  0  0  0  0  0  0  0
   -3.1598    2.9131    0.7827 H   0  0  0  0  0  0  0  0  0  0  0  0
   -2.6095    3.2820   -0.8525 H   0  0  0  0  0  0  0  0  0  0  0  0
   -3.3788   -2.4176    4.0749 H   0  0  0  0  0  0  0  0  0  0  0  0
   -4.8615   -1.4940    3.8109 H   0  0  0  0  0  0  0  0  0  0  0  0
   -4.5041   -2.8410    2.7250 H   0  0  0  0  0  0  0  0  0  0  0  0
   -2.3279   -3.6341    2.3821 H   0  0  0  0  0  0  0  0  0  0  0  0
   -0.4400   -4.2997    0.9793 H   0  0  0  0  0  0  0  0  0  0  0  0
    0.6504   -2.6835   -0.4796 H   0  0  0  0  0  0  0  0  0  0  0  0
    2.5781   -0.7602    0.3099 H   0  0  0  0  0  0  0  0  0  0  0  0
    2.6622    0.9347   -0.1938 H   0  0  0  0  0  0  0  0  0  0  0  0
    4.1717   -1.3939   -1.5171 H   0  0  0  0  0  0  0  0  0  0  0  0
    4.2565    0.3189   -2.0292 H   0  0  0  0  0  0  0  0  0  0  0  0
    7.0236   -0.1431    0.0397 H   0  0  0  0  0  0  0  0  0  0  0  0
  1  2  1  0
  2  3  1  0
  3  4  2  0
  4  5  1  0
  4  6  1  0
  6  7  2  0
  7  8  1  0
  8  9  1  0
  9 10  1  0
  8 11  2  0
 11 12  1  0
 12 13  2  0
 13 14  1  0
 14 15  2  0
 15 16  1  0
 16 17  1  0
 17 18  1  0
 18 19  1  0
 19 20  2  0
 19 21  1  0
 15  3  1  0
 14  7  1  0
  1 22  1  0
  1 23  1  0
  1 24  1  0
  2 25  1  0
  2 26  1  0
  5 27  1  0
  5 28  1  0
  5 29  1  0
 10 30  1  0
 10 31  1  0
 10 32  1  0
 11 33  1  0
 12 34  1  0
 13 35  1  0
 17 36  1  0
 17 37  1  0
 18 38  1  0
 18 39  1  0
 21 40  1  0
M  END
$$$$
