
     RDKit          3D

 58 61  0  0  0  0  0  0  0  0999 V2000
   -1.2185   -0.4172    2.0935 O   0  0  0  0  0  0  0  0  0  0  0  0
   -0.5330   -0.2192    1.0975 C   0  0  0  0  0  0  0  0  0  0  0  0
   -0.9482   -0.4795   -0.1910 N   0  0  0  0  0  0  0  0  0  0  0  0
   -2.3210   -0.8850   -0.4811 C   0  0  0  0  0  0  0  0  0  0  0  0
   -3.1785    0.2488   -1.1262 C   0  0  0  0  0  0  0  0  0  0  0  0
   -3.2926    1.4661   -0.2206 C   0  0  0  0  0  0  0  0  0  0  0  0
   -3.6539    1.5440    1.1131 C   0  0  0  0  0  0  0  0  0  0  0  0
   -3.6173    2.8750    1.6189 C   0  0  0  0  0  0  0  0  0  0  0  0
   -3.2179    3.7783    0.6619 C   0  0  0  0  0  0  0  0  0  0  0  0
   -2.8778    3.0226   -0.8309 S   0  0  0  0  0  0  0  0  0  0  0  0
   -4.4658   -0.2695   -1.6501 N   0  0  0  0  0  0  0  0  0  0  0  0
   -5.1540    0.6882   -2.5391 C   0  0  0  0  0  0  0  0  0  0  0  0
   -6.4076    0.0541   -3.1645 C   0  0  0  0  0  0  0  0  0  0  0  0
   -7.3161   -0.4065   -2.1558 O   0  0  0  0  0  0  0  0  0  0  0  0
   -6.6668   -1.3606   -1.3058 C   0  0  0  0  0  0  0  0  0  0  0  0
   -5.4188   -0.7569   -0.6364 C   0  0  0  0  0  0  0  0  0  0  0  0
    0.8276    0.3618    1.2480 C   0  0  0  0  0  0  0  0  0  0  0  0
    1.0673    1.2191    2.3265 C   0  0  0  0  0  0  0  0  0  0  0  0
    2.3315    1.7867    2.5068 C   0  0  0  0  0  0  0  0  0  0  0  0
    3.3752    1.4976    1.6199 C   0  0  0  0  0  0  0  0  0  0  0  0
    4.8941    2.2491    1.9430 Cl  0  0  0  0  0  0  0  0  0  0  0  0
    3.1404    0.6246    0.5546 C   0  0  0  0  0  0  0  0  0  0  0  0
    4.4163    0.2095   -0.6019 S   0  0  0  0  0  6  0  0  0  0  0  0
    3.9045   -0.8306   -1.4728 O   0  0  0  0  0  0  0  0  0  0  0  0
    4.9251    1.4436   -1.1561 O   0  0  0  0  0  0  0  0  0  0  0  0
    5.6143   -0.5148    0.3590 N   0  0  0  0  0  0  0  0  0  0  0  0
    6.9646   -0.5372   -0.2905 C   0  0  0  0  0  0  0  0  0  0  0  0
    7.8918   -1.5093    0.4439 C   0  0  0  0  0  0  0  0  0  0  0  0
    7.4294   -2.8675    0.4052 O   0  0  0  0  0  0  0  0  0  0  0  0
    6.0026   -2.9800    0.3074 C   0  0  0  0  0  0  0  0  0  0  0  0
    5.2636   -1.8263    0.9915 C   0  0  0  0  0  0  0  0  0  0  0  0
    1.8678    0.0561    0.3652 C   0  0  0  0  0  0  0  0  0  0  0  0
   -0.3895   -0.1635   -0.9721 H   0  0  0  0  0  0  0  0  0  0  0  0
   -2.7858   -1.2668    0.4338 H   0  0  0  0  0  0  0  0  0  0  0  0
   -2.2406   -1.7220   -1.1849 H   0  0  0  0  0  0  0  0  0  0  0  0
   -2.5971    0.5511   -2.0106 H   0  0  0  0  0  0  0  0  0  0  0  0
   -3.9188    0.6793    1.7107 H   0  0  0  0  0  0  0  0  0  0  0  0
   -3.8645    3.1515    2.6363 H   0  0  0  0  0  0  0  0  0  0  0  0
   -3.1006    4.8478    0.7696 H   0  0  0  0  0  0  0  0  0  0  0  0
   -4.4854    1.0050   -3.3475 H   0  0  0  0  0  0  0  0  0  0  0  0
   -5.4616    1.5785   -1.9776 H   0  0  0  0  0  0  0  0  0  0  0  0
   -6.9358    0.7976   -3.7700 H   0  0  0  0  0  0  0  0  0  0  0  0
   -6.1434   -0.7831   -3.8219 H   0  0  0  0  0  0  0  0  0  0  0  0
   -7.3873   -1.6631   -0.5391 H   0  0  0  0  0  0  0  0  0  0  0  0
   -6.4113   -2.2518   -1.8917 H   0  0  0  0  0  0  0  0  0  0  0  0
   -5.7454    0.0641    0.0115 H   0  0  0  0  0  0  0  0  0  0  0  0
   -4.9646   -1.5305   -0.0099 H   0  0  0  0  0  0  0  0  0  0  0  0
    0.2659    1.4532    3.0264 H   0  0  0  0  0  0  0  0  0  0  0  0
    2.4940    2.4580    3.3484 H   0  0  0  0  0  0  0  0  0  0  0  0
    7.3897    0.4711   -0.2553 H   0  0  0  0  0  0  0  0  0  0  0  0
    6.8651   -0.8497   -1.3366 H   0  0  0  0  0  0  0  0  0  0  0  0
    8.8908   -1.4909   -0.0029 H   0  0  0  0  0  0  0  0  0  0  0  0
    7.9975   -1.2218    1.4965 H   0  0  0  0  0  0  0  0  0  0  0  0
    5.7404   -3.0365   -0.7552 H   0  0  0  0  0  0  0  0  0  0  0  0
    5.7192   -3.9330    0.7652 H   0  0  0  0  0  0  0  0  0  0  0  0
    4.1851   -2.0077    0.9663 H   0  0  0  0  0  0  0  0  0  0  0  0
    5.5548   -1.7627    2.0468 H   0  0  0  0  0  0  0  0  0  0  0  0
    1.7010   -0.6397   -0.4539 H   0  0  0  0  0  0  0  0  0  0  0  0
  1  2  2  0
  2  3  1  0
  3  4  1  0
  4  5  1  0
  5  6  1  0
  6  7  2  0
  7  8  1  0
  8  9  2  0
  9 10  1  0
  5 11  1  0
 11 12  1  0
 12 13  1  0
 13 14  1  0
 14 15  1  0
 15 16  1  0
  2 17  1  0
 17 18  2  0
 18 19  1  0
 19 20  2  0
 20 21  1  0
 20 22  1  0
 22 23  1  0
 23 24  2  0
 23 25  2  0
 23 26  1  0
 26 27  1  0
 27 28  1  0
 28 29  1  0
 29 30  1  0
 30 31  1  0
 22 32  2  0
 10  6  1  0
 16 11  1  0
 32 17  1  0
 31 26  1  0
  3 33  1  0
  4 34  1  0
  4 35  1  0
  5 36  1  0
  7 37  1  0
  8 38  1  0
  9 39  1  0
 12 40  1  0
 12 41  1  0
 13 42  1  0
 13 43  1  0
 15 44  1  0
 15 45  1  0
 16 46  1  0
 16 47  1  0
 18 48  1  0
 19 49  1  0
 27 50  1  0
 27 51  1  0
 28 52  1  0
 28 53  1  0
 30 54  1  0
 30 55  1  0
 31 56  1  0
 31 57  1  0
 32 58  1  0
M  END
$$$$
