
     RDKit          3D

 63 67  0  0  0  0  0  0  0  0999 V2000
   -1.0606   -1.4228   -0.0280 O   0  0  0  0  0  0  0  0  0  0  0  0
   -1.5944   -0.3691    0.2973 C   0  0  0  0  0  0  0  0  0  0  0  0
   -2.8967   -0.0404    0.0099 N   0  0  0  0  0  0  0  0  0  0  0  0
   -3.7626   -0.9234   -0.7599 C   0  0  0  0  0  0  0  0  0  0  0  0
   -3.5171   -0.6826   -2.2580 C   0  0  0  0  0  0  0  0  0  0  0  0
   -4.6020   -1.3319   -3.1040 C   0  0  0  0  0  0  0  0  0  0  0  0
   -5.9547   -0.7008   -2.7910 C   0  0  0  0  0  0  0  0  0  0  0  0
   -6.2456   -0.6520   -1.3115 C   0  0  0  0  0  0  0  0  0  0  0  0
   -7.5744   -0.4839   -0.8902 C   0  0  0  0  0  0  0  0  0  0  0  0
   -7.8917   -0.4403    0.4663 C   0  0  0  0  0  0  0  0  0  0  0  0
   -6.8859   -0.5658    1.4181 C   0  0  0  0  0  0  0  0  0  0  0  0
   -5.5605   -0.7195    1.0124 C   0  0  0  0  0  0  0  0  0  0  0  0
   -5.2168   -0.7371   -0.3529 C   0  0  0  0  0  0  0  0  0  0  0  0
   -0.8227    0.6308    1.0761 C   0  0  0  0  0  0  0  0  0  0  0  0
   -0.9880    2.0083    0.8821 C   0  0  0  0  0  0  0  0  0  0  0  0
   -0.2199    2.9144    1.6178 C   0  0  0  0  0  0  0  0  0  0  0  0
    0.7267    2.4491    2.5314 C   0  0  0  0  0  0  0  0  0  0  0  0
    0.9113    1.0727    2.6973 C   0  0  0  0  0  0  0  0  0  0  0  0
    2.1119    0.4707    3.8669 S   0  0  0  0  0  6  0  0  0  0  0  0
    1.5994   -0.7712    4.4039 O   0  0  0  0  0  0  0  0  0  0  0  0
    2.4558    1.5757    4.7376 O   0  0  0  0  0  0  0  0  0  0  0  0
    3.4624    0.1256    2.9122 N   0  0  0  0  0  0  0  0  0  0  0  0
    4.2331    1.2872    2.3860 C   0  0  0  0  0  0  0  0  0  0  0  0
    5.2572    0.8714    1.3138 C   0  0  0  0  0  0  0  0  0  0  0  0
    4.5882    0.2075    0.1842 N   0  0  0  0  0  0  0  0  0  0  0  0
    5.1483    0.1762   -1.0843 C   0  0  0  0  0  0  0  0  0  0  0  0
    4.3871   -0.1705   -2.2142 C   0  0  0  0  0  0  0  0  0  0  0  0
    4.9363   -0.2002   -3.5018 C   0  0  0  0  0  0  0  0  0  0  0  0
    6.2732    0.1217   -3.6956 C   0  0  0  0  0  0  0  0  0  0  0  0
    7.0535    0.4740   -2.6018 C   0  0  0  0  0  0  0  0  0  0  0  0
    6.4943    0.5016   -1.3178 C   0  0  0  0  0  0  0  0  0  0  0  0
    3.4288   -0.6455    0.5075 C   0  0  0  0  0  0  0  0  0  0  0  0
    3.4048   -1.0477    1.9941 C   0  0  0  0  0  0  0  0  0  0  0  0
    0.1227    0.1606    1.9927 C   0  0  0  0  0  0  0  0  0  0  0  0
   -3.2971    0.8242    0.3460 H   0  0  0  0  0  0  0  0  0  0  0  0
   -3.4947   -1.9635   -0.5311 H   0  0  0  0  0  0  0  0  0  0  0  0
   -3.4895    0.3946   -2.4716 H   0  0  0  0  0  0  0  0  0  0  0  0
   -2.5345   -1.0779   -2.5423 H   0  0  0  0  0  0  0  0  0  0  0  0
   -4.6316   -2.4105   -2.9043 H   0  0  0  0  0  0  0  0  0  0  0  0
   -4.3757   -1.2067   -4.1687 H   0  0  0  0  0  0  0  0  0  0  0  0
   -5.9827    0.3245   -3.1806 H   0  0  0  0  0  0  0  0  0  0  0  0
   -6.7353   -1.2732   -3.3066 H   0  0  0  0  0  0  0  0  0  0  0  0
   -8.3737   -0.3958   -1.6232 H   0  0  0  0  0  0  0  0  0  0  0  0
   -8.9254   -0.3197    0.7791 H   0  0  0  0  0  0  0  0  0  0  0  0
   -7.1324   -0.5502    2.4766 H   0  0  0  0  0  0  0  0  0  0  0  0
   -4.7893   -0.8349    1.7723 H   0  0  0  0  0  0  0  0  0  0  0  0
   -1.6916    2.3896    0.1467 H   0  0  0  0  0  0  0  0  0  0  0  0
   -0.3528    3.9844    1.4725 H   0  0  0  0  0  0  0  0  0  0  0  0
    1.3181    3.1621    3.1027 H   0  0  0  0  0  0  0  0  0  0  0  0
    3.5486    2.0214    1.9483 H   0  0  0  0  0  0  0  0  0  0  0  0
    4.7641    1.7621    3.2182 H   0  0  0  0  0  0  0  0  0  0  0  0
    6.0046    0.1950    1.7458 H   0  0  0  0  0  0  0  0  0  0  0  0
    5.7694    1.7833    0.9845 H   0  0  0  0  0  0  0  0  0  0  0  0
    3.3307   -0.4061   -2.1163 H   0  0  0  0  0  0  0  0  0  0  0  0
    4.3123   -0.4710   -4.3493 H   0  0  0  0  0  0  0  0  0  0  0  0
    6.7034    0.0994   -4.6924 H   0  0  0  0  0  0  0  0  0  0  0  0
    8.1017    0.7247   -2.7394 H   0  0  0  0  0  0  0  0  0  0  0  0
    7.1533    0.7634   -0.4953 H   0  0  0  0  0  0  0  0  0  0  0  0
    2.5139   -0.1005    0.2519 H   0  0  0  0  0  0  0  0  0  0  0  0
    3.4466   -1.5726   -0.0782 H   0  0  0  0  0  0  0  0  0  0  0  0
    2.5258   -1.6683    2.1895 H   0  0  0  0  0  0  0  0  0  0  0  0
    4.2753   -1.6761    2.2201 H   0  0  0  0  0  0  0  0  0  0  0  0
    0.2371   -0.9105    2.1484 H   0  0  0  0  0  0  0  0  0  0  0  0
  1  2  2  0
  2  3  1  0
  3  4  1  0
  4  5  1  0
  5  6  1  0
  6  7  1  0
  7  8  1  0
  8  9  2  0
  9 10  1  0
 10 11  2  0
 11 12  1  0
 12 13  2  0
  2 14  1  0
 14 15  2  0
 15 16  1  0
 16 17  2  0
 17 18  1  0
 18 19  1  0
 19 20  2  0
 19 21  2  0
 19 22  1  0
 22 23  1  0
 23 24  1  0
 24 25  1  0
 25 26  1  0
 26 27  2  0
 27 28  1  0
 28 29  2  0
 29 30  1  0
 30 31  2  0
 25 32  1  0
 32 33  1  0
 18 34  2  0
 13  4  1  0
 34 14  1  0
 13  8  1  0
 33 22  1  0
 31 26  1  0
  3 35  1  0
  4 36  1  0
  5 37  1  0
  5 38  1  0
  6 39  1  0
  6 40  1  0
  7 41  1  0
  7 42  1  0
  9 43  1  0
 10 44  1  0
 11 45  1  0
 12 46  1  0
 15 47  1  0
 16 48  1  0
 17 49  1  0
 23 50  1  0
 23 51  1  0
 24 52  1  0
 24 53  1  0
 27 54  1  0
 28 55  1  0
 29 56  1  0
 30 57  1  0
 31 58  1  0
 32 59  1  0
 32 60  1  0
 33 61  1  0
 33 62  1  0
 34 63  1  0
M  END
$$$$
