
     RDKit          3D

 64 68  0  0  0  0  0  0  0  0999 V2000
    1.1427   -2.5129   -1.5987 O   0  0  0  0  0  0  0  0  0  0  0  0
    1.3827   -1.4409   -1.0371 C   0  0  0  0  0  0  0  0  0  0  0  0
    0.2388   -0.5471   -0.5374 C   0  0  0  0  0  0  0  0  0  0  0  0
   -1.0979   -0.9807   -1.1571 C   0  0  0  0  0  0  0  0  0  0  0  0
   -2.2655   -0.1505   -0.6268 C   0  0  0  0  0  0  0  0  0  0  0  0
   -2.3007   -0.0280    0.9125 C   0  0  0  0  0  0  0  0  0  0  0  0
   -3.6771   -0.4029    1.4975 C   0  0  0  0  0  0  0  0  0  0  0  0
   -4.5970    0.7440    1.5810 N   0  0  0  0  0  0  0  0  0  0  0  0
   -5.3038    1.1884    0.4678 C   0  0  0  0  0  0  0  0  0  0  0  0
   -4.6486    2.0381   -0.3765 N   0  0  0  0  0  0  0  0  0  0  0  0
   -5.1697    2.6075   -1.5068 C   0  0  0  0  0  0  0  0  0  0  0  0
   -4.1856    3.6379   -2.3925 S   0  0  0  0  0  0  0  0  0  0  0  0
   -6.4590    2.3090   -1.8497 N   0  0  0  0  0  0  0  0  0  0  0  0
   -7.1200    1.5193   -1.0643 C   0  0  0  0  0  0  0  0  0  0  0  0
   -8.5322    1.1890   -1.4090 C   0  0  0  0  0  0  0  0  0  0  0  0
   -9.2596    0.3802   -0.6262 C   0  0  0  0  0  0  0  0  0  0  0  0
   -8.7228   -0.2131    0.5747 C   0  0  0  0  0  0  0  0  0  0  0  0
   -7.4610    0.0194    0.9636 C   0  0  0  0  0  0  0  0  0  0  0  0
   -6.5903    0.8881    0.1911 C   0  0  0  0  0  0  0  0  0  0  0  0
   -1.2023   -0.8840    1.5645 C   0  0  0  0  0  0  0  0  0  0  0  0
    0.1794   -0.5525    1.0019 C   0  0  0  0  0  0  0  0  0  0  0  0
    2.6901   -1.0310   -0.7863 N   0  0  0  0  0  0  0  0  0  0  0  0
    3.0738    0.3630   -0.5208 C   0  0  0  0  0  0  0  0  0  0  0  0
    4.4144    0.4903    0.2286 C   0  0  0  0  0  0  0  0  0  0  0  0
    5.4736   -0.3002   -0.4424 N   0  0  0  0  0  0  0  0  0  0  0  0
    6.7663   -0.0135    0.0273 C   0  0  0  0  0  0  0  0  0  0  0  0
    7.2849    1.2852   -0.1374 C   0  0  0  0  0  0  0  0  0  0  0  0
    8.5664    1.6262    0.3050 C   0  0  0  0  0  0  0  0  0  0  0  0
    9.3521    0.6649    0.9185 C   0  0  0  0  0  0  0  0  0  0  0  0
   10.5801    0.9856    1.3479 F   0  0  0  0  0  0  0  0  0  0  0  0
    8.8853   -0.6309    1.0819 C   0  0  0  0  0  0  0  0  0  0  0  0
    7.6027   -0.9675    0.6326 C   0  0  0  0  0  0  0  0  0  0  0  0
    5.0929   -1.7210   -0.6009 C   0  0  0  0  0  0  0  0  0  0  0  0
    3.7659   -1.8450   -1.3685 C   0  0  0  0  0  0  0  0  0  0  0  0
    0.4291    0.4734   -0.8935 H   0  0  0  0  0  0  0  0  0  0  0  0
   -1.0499   -0.8836   -2.2489 H   0  0  0  0  0  0  0  0  0  0  0  0
   -1.2908   -2.0428   -0.9581 H   0  0  0  0  0  0  0  0  0  0  0  0
   -3.1993   -0.5744   -1.0167 H   0  0  0  0  0  0  0  0  0  0  0  0
   -2.1886    0.8567   -1.0571 H   0  0  0  0  0  0  0  0  0  0  0  0
   -2.0862    1.0192    1.1694 H   0  0  0  0  0  0  0  0  0  0  0  0
   -4.1414   -1.2318    0.9491 H   0  0  0  0  0  0  0  0  0  0  0  0
   -3.5442   -0.7585    2.5269 H   0  0  0  0  0  0  0  0  0  0  0  0
   -5.2554    0.5525    2.3346 H   0  0  0  0  0  0  0  0  0  0  0  0
   -3.7094    2.3075   -0.1228 H   0  0  0  0  0  0  0  0  0  0  0  0
   -8.9319    1.6326   -2.3139 H   0  0  0  0  0  0  0  0  0  0  0  0
  -10.2877    0.1462   -0.8889 H   0  0  0  0  0  0  0  0  0  0  0  0
   -9.3726   -0.8644    1.1527 H   0  0  0  0  0  0  0  0  0  0  0  0
   -7.0848   -0.4535    1.8631 H   0  0  0  0  0  0  0  0  0  0  0  0
   -1.1909   -0.7160    2.6483 H   0  0  0  0  0  0  0  0  0  0  0  0
   -1.4154   -1.9505    1.4187 H   0  0  0  0  0  0  0  0  0  0  0  0
    0.4689    0.4422    1.3671 H   0  0  0  0  0  0  0  0  0  0  0  0
    0.9078   -1.2536    1.4292 H   0  0  0  0  0  0  0  0  0  0  0  0
    3.1399    0.8615   -1.4960 H   0  0  0  0  0  0  0  0  0  0  0  0
    2.3063    0.8805    0.0559 H   0  0  0  0  0  0  0  0  0  0  0  0
    4.2907    0.1281    1.2579 H   0  0  0  0  0  0  0  0  0  0  0  0
    4.6659    1.5556    0.2817 H   0  0  0  0  0  0  0  0  0  0  0  0
    6.6946    2.0433   -0.6458 H   0  0  0  0  0  0  0  0  0  0  0  0
    8.9500    2.6318    0.1681 H   0  0  0  0  0  0  0  0  0  0  0  0
    9.5155   -1.3725    1.5602 H   0  0  0  0  0  0  0  0  0  0  0  0
    7.2710   -1.9902    0.7856 H   0  0  0  0  0  0  0  0  0  0  0  0
    4.9799   -2.1912    0.3848 H   0  0  0  0  0  0  0  0  0  0  0  0
    5.8616   -2.2655   -1.1622 H   0  0  0  0  0  0  0  0  0  0  0  0
    3.8971   -1.5054   -2.4044 H   0  0  0  0  0  0  0  0  0  0  0  0
    3.4708   -2.8999   -1.4031 H   0  0  0  0  0  0  0  0  0  0  0  0
  1  2  2  0
  2  3  1  0
  3  4  1  0
  4  5  1  0
  5  6  1  0
  6  7  1  0
  7  8  1  0
  8  9  1  0
  9 10  1  0
 10 11  1  0
 11 12  2  0
 11 13  1  0
 13 14  2  0
 14 15  1  0
 15 16  2  0
 16 17  1  0
 17 18  2  0
 18 19  1  0
  6 20  1  0
 20 21  1  0
  2 22  1  0
 22 23  1  0
 23 24  1  0
 24 25  1  0
 25 26  1  0
 26 27  2  0
 27 28  1  0
 28 29  2  0
 29 30  1  0
 29 31  1  0
 31 32  2  0
 25 33  1  0
 33 34  1  0
 21  3  1  0
 34 22  1  0
 19  9  2  0
 32 26  1  0
 19 14  1  0
  3 35  1  0
  4 36  1  0
  4 37  1  0
  5 38  1  0
  5 39  1  0
  6 40  1  0
  7 41  1  0
  7 42  1  0
  8 43  1  0
 10 44  1  0
 15 45  1  0
 16 46  1  0
 17 47  1  0
 18 48  1  0
 20 49  1  0
 20 50  1  0
 21 51  1  0
 21 52  1  0
 23 53  1  0
 23 54  1  0
 24 55  1  0
 24 56  1  0
 27 57  1  0
 28 58  1  0
 31 59  1  0
 32 60  1  0
 33 61  1  0
 33 62  1  0
 34 63  1  0
 34 64  1  0
M  END
$$$$
