
     RDKit          3D

 48 49  0  0  0  0  0  0  0  0999 V2000
    2.6277   -0.5903   -3.0586 C   0  0  0  0  0  0  0  0  0  0  0  0
    2.3228    0.4494   -2.1263 O   0  0  0  0  0  0  0  0  0  0  0  0
    1.6735   -0.0769   -1.0410 C   0  0  0  0  0  0  0  0  0  0  0  0
    0.2799   -0.1658   -1.0630 C   0  0  0  0  0  0  0  0  0  0  0  0
   -0.4146   -0.6526    0.0500 C   0  0  0  0  0  0  0  0  0  0  0  0
   -1.8169   -0.6950   -0.0314 N   0  0  0  0  0  0  0  0  0  0  0  0
   -2.7281   -1.0167    0.9634 C   0  0  0  0  0  0  0  0  0  0  0  0
   -2.4719   -1.3308    2.1217 O   0  0  0  0  0  0  0  0  0  0  0  0
   -4.1884   -0.8819    0.4786 C   0  0  0  0  0  0  0  0  0  0  0  0
   -4.6270    0.5884    0.5782 C   0  0  0  0  0  0  0  0  0  0  0  0
   -6.0255    0.7902    0.0044 C   0  0  0  0  0  0  0  0  0  0  0  0
   -6.1244    0.1986   -1.4017 C   0  0  0  0  0  0  0  0  0  0  0  0
   -5.6520   -1.2467   -1.4254 C   0  0  0  0  0  0  0  0  0  0  0  0
   -4.2810   -1.3664   -0.9241 N   0  0  0  0  0  0  0  0  0  0  0  0
    0.3073   -1.0636    1.1714 C   0  0  0  0  0  0  0  0  0  0  0  0
    1.7030   -0.9726    1.1929 C   0  0  0  0  0  0  0  0  0  0  0  0
    2.3814   -0.4489    0.0997 C   0  0  0  0  0  0  0  0  0  0  0  0
    3.7444   -0.3664    0.1734 O   0  0  0  0  0  0  0  0  0  0  0  0
    4.1488    0.9875    0.4067 C   0  0  0  0  0  0  0  0  0  0  0  0
    5.5646    0.9939    0.9999 C   0  0  0  0  0  0  0  0  0  0  0  0
    5.6305    0.1881    2.3002 C   0  0  0  0  0  0  0  0  0  0  0  0
    6.0332    2.4272    1.2431 C   0  0  0  0  0  0  0  0  0  0  0  0
    3.3517   -0.1868   -3.7762 H   0  0  0  0  0  0  0  0  0  0  0  0
    1.7203   -0.8823   -3.6110 H   0  0  0  0  0  0  0  0  0  0  0  0
    3.0711   -1.4736   -2.5752 H   0  0  0  0  0  0  0  0  0  0  0  0
   -0.2527    0.1677   -1.9468 H   0  0  0  0  0  0  0  0  0  0  0  0
   -2.2480   -0.4853   -0.9251 H   0  0  0  0  0  0  0  0  0  0  0  0
   -4.8092   -1.5190    1.1213 H   0  0  0  0  0  0  0  0  0  0  0  0
   -3.9188    1.2357    0.0384 H   0  0  0  0  0  0  0  0  0  0  0  0
   -4.6066    0.9166    1.6274 H   0  0  0  0  0  0  0  0  0  0  0  0
   -6.2603    1.8568   -0.0278 H   0  0  0  0  0  0  0  0  0  0  0  0
   -6.7696    0.3127    0.6616 H   0  0  0  0  0  0  0  0  0  0  0  0
   -7.1599    0.2570   -1.7565 H   0  0  0  0  0  0  0  0  0  0  0  0
   -5.5142    0.7991   -2.0903 H   0  0  0  0  0  0  0  0  0  0  0  0
   -6.3295   -1.8777   -0.8371 H   0  0  0  0  0  0  0  0  0  0  0  0
   -5.6848   -1.6187   -2.4510 H   0  0  0  0  0  0  0  0  0  0  0  0
   -4.0231   -2.3559   -0.9313 H   0  0  0  0  0  0  0  0  0  0  0  0
   -0.1874   -1.4677    2.0469 H   0  0  0  0  0  0  0  0  0  0  0  0
    2.2536   -1.2961    2.0710 H   0  0  0  0  0  0  0  0  0  0  0  0
    3.4586    1.4937    1.0932 H   0  0  0  0  0  0  0  0  0  0  0  0
    4.1551    1.5295   -0.5440 H   0  0  0  0  0  0  0  0  0  0  0  0
    6.2451    0.5185    0.2840 H   0  0  0  0  0  0  0  0  0  0  0  0
    4.9182    0.5720    3.0383 H   0  0  0  0  0  0  0  0  0  0  0  0
    5.4016   -0.8674    2.1241 H   0  0  0  0  0  0  0  0  0  0  0  0
    6.6328    0.2406    2.7379 H   0  0  0  0  0  0  0  0  0  0  0  0
    5.4124    2.9259    1.9954 H   0  0  0  0  0  0  0  0  0  0  0  0
    5.9861    3.0163    0.3212 H   0  0  0  0  0  0  0  0  0  0  0  0
    7.0702    2.4399    1.5995 H   0  0  0  0  0  0  0  0  0  0  0  0
  1  2  1  0
  2  3  1  0
  3  4  2  0
  4  5  1  0
  5  6  1  0
  6  7  1  0
  7  8  2  0
  7  9  1  0
  9 10  1  0
 10 11  1  0
 11 12  1  0
 12 13  1  0
 13 14  1  0
  5 15  2  0
 15 16  1  0
 16 17  2  0
 17 18  1  0
 18 19  1  0
 19 20  1  0
 20 21  1  0
 20 22  1  0
 17  3  1  0
 14  9  1  0
  1 23  1  0
  1 24  1  0
  1 25  1  0
  4 26  1  0
  6 27  1  0
  9 28  1  0
 10 29  1  0
 10 30  1  0
 11 31  1  0
 11 32  1  0
 12 33  1  0
 12 34  1  0
 13 35  1  0
 13 36  1  0
 14 37  1  0
 15 38  1  0
 16 39  1  0
 19 40  1  0
 19 41  1  0
 20 42  1  0
 21 43  1  0
 21 44  1  0
 21 45  1  0
 22 46  1  0
 22 47  1  0
 22 48  1  0
M  END
$$$$
