
     RDKit          3D

 69 72  0  0  0  0  0  0  0  0999 V2000
  -10.9906    0.9330    1.3494 C   0  0  0  0  0  0  0  0  0  0  0  0
   -9.5449    0.7271    1.0071 C   0  0  0  0  0  0  0  0  0  0  0  0
   -8.7485   -0.1336    1.7667 C   0  0  0  0  0  0  0  0  0  0  0  0
   -7.3957   -0.3046    1.4574 C   0  0  0  0  0  0  0  0  0  0  0  0
   -6.8060    0.4041    0.3974 C   0  0  0  0  0  0  0  0  0  0  0  0
   -5.4224    0.1888    0.1093 N   0  0  0  0  0  0  0  0  0  0  0  0
   -4.8163   -0.9182    0.6185 N   0  0  0  0  0  0  0  0  0  0  0  0
   -3.6377   -0.9856   -0.0043 C   0  0  0  0  0  0  0  0  0  0  0  0
   -2.6490   -2.0484    0.1266 C   0  0  0  0  0  0  0  0  0  0  0  0
   -2.8037   -3.0394    0.8371 O   0  0  0  0  0  0  0  0  0  0  0  0
   -1.4936   -1.8128   -0.6487 N   0  0  0  0  0  0  0  0  0  0  0  0
   -0.4152   -2.7969   -0.6341 C   0  0  0  0  0  0  0  0  0  0  0  0
    0.5105   -2.6455    0.5764 C   0  0  0  0  0  0  0  0  0  0  0  0
    1.3399   -1.3621    0.5647 C   0  0  0  0  0  0  0  0  0  0  0  0
    2.3991   -1.3466   -0.5213 C   0  0  0  0  0  0  0  0  0  0  0  0
    2.6748   -2.3170   -1.2192 O   0  0  0  0  0  0  0  0  0  0  0  0
    3.0423   -0.1303   -0.6234 N   0  0  0  0  0  0  0  0  0  0  0  0
    4.2418    0.0024   -1.4323 C   0  0  0  0  0  0  0  0  0  0  0  0
    5.4955   -0.4455   -0.6545 C   0  0  0  0  0  0  0  0  0  0  0  0
    5.6405    0.2648    0.6372 N   0  0  0  0  0  0  0  0  0  0  0  0
    6.1416    1.6487    0.4750 C   0  0  0  0  0  0  0  0  0  0  0  0
    7.6388    1.7707    0.0955 C   0  0  0  0  0  0  0  0  0  0  0  0
    8.5149    1.0279    1.0175 N   0  0  0  0  0  0  0  0  0  0  0  0
    9.9078    1.0883    0.5841 C   0  0  0  0  0  0  0  0  0  0  0  0
    8.0598   -0.3681    1.1425 C   0  0  0  0  0  0  0  0  0  0  0  0
    6.5675   -0.4572    1.5386 C   0  0  0  0  0  0  0  0  0  0  0  0
   -1.2741   -0.6824   -1.4437 N   0  0  0  0  0  0  0  0  0  0  0  0
   -2.1737    0.2551   -1.5453 C   0  0  0  0  0  0  0  0  0  0  0  0
   -1.8768    1.4354   -2.4256 C   0  0  0  0  0  0  0  0  0  0  0  0
   -3.4095    0.1330   -0.8124 C   0  0  0  0  0  0  0  0  0  0  0  0
   -4.5215    0.9435   -0.6525 C   0  0  0  0  0  0  0  0  0  0  0  0
   -4.7576    2.3386   -1.1051 C   0  0  0  0  0  0  0  0  0  0  0  0
   -7.6078    1.2579   -0.3677 C   0  0  0  0  0  0  0  0  0  0  0  0
   -8.9631    1.4249   -0.0563 C   0  0  0  0  0  0  0  0  0  0  0  0
  -11.3922    0.0756    1.8996 H   0  0  0  0  0  0  0  0  0  0  0  0
  -11.5908    1.0449    0.4401 H   0  0  0  0  0  0  0  0  0  0  0  0
  -11.1054    1.8306    1.9653 H   0  0  0  0  0  0  0  0  0  0  0  0
   -9.1728   -0.6860    2.6023 H   0  0  0  0  0  0  0  0  0  0  0  0
   -6.8085   -0.9916    2.0659 H   0  0  0  0  0  0  0  0  0  0  0  0
   -0.8687   -3.7949   -0.6050 H   0  0  0  0  0  0  0  0  0  0  0  0
    0.1348   -2.7283   -1.5785 H   0  0  0  0  0  0  0  0  0  0  0  0
    1.1806   -3.5130    0.6140 H   0  0  0  0  0  0  0  0  0  0  0  0
   -0.0840   -2.6667    1.4976 H   0  0  0  0  0  0  0  0  0  0  0  0
    0.6994   -0.4800    0.4621 H   0  0  0  0  0  0  0  0  0  0  0  0
    1.8643   -1.2774    1.5247 H   0  0  0  0  0  0  0  0  0  0  0  0
    3.0125    0.4682    0.1930 H   0  0  0  0  0  0  0  0  0  0  0  0
    4.3144    1.0517   -1.7340 H   0  0  0  0  0  0  0  0  0  0  0  0
    4.1367   -0.6003   -2.3412 H   0  0  0  0  0  0  0  0  0  0  0  0
    6.3805   -0.3367   -1.2903 H   0  0  0  0  0  0  0  0  0  0  0  0
    5.3822   -1.5195   -0.4575 H   0  0  0  0  0  0  0  0  0  0  0  0
    5.5358    2.1983   -0.2534 H   0  0  0  0  0  0  0  0  0  0  0  0
    5.9850    2.1709    1.4285 H   0  0  0  0  0  0  0  0  0  0  0  0
    7.7827    1.4259   -0.9365 H   0  0  0  0  0  0  0  0  0  0  0  0
    7.9095    2.8335    0.1195 H   0  0  0  0  0  0  0  0  0  0  0  0
   10.0560    0.6344   -0.4023 H   0  0  0  0  0  0  0  0  0  0  0  0
   10.5557    0.5724    1.3013 H   0  0  0  0  0  0  0  0  0  0  0  0
   10.2512    2.1278    0.5405 H   0  0  0  0  0  0  0  0  0  0  0  0
    8.2227   -0.9151    0.2045 H   0  0  0  0  0  0  0  0  0  0  0  0
    8.6485   -0.8732    1.9181 H   0  0  0  0  0  0  0  0  0  0  0  0
    6.4472   -0.0416    2.5481 H   0  0  0  0  0  0  0  0  0  0  0  0
    6.2709   -1.5099    1.6225 H   0  0  0  0  0  0  0  0  0  0  0  0
   -2.7271    1.6446   -3.0792 H   0  0  0  0  0  0  0  0  0  0  0  0
   -1.0008    1.2338   -3.0493 H   0  0  0  0  0  0  0  0  0  0  0  0
   -1.6655    2.3092   -1.8039 H   0  0  0  0  0  0  0  0  0  0  0  0
   -5.4055    2.8902   -0.4173 H   0  0  0  0  0  0  0  0  0  0  0  0
   -3.8203    2.9016   -1.1368 H   0  0  0  0  0  0  0  0  0  0  0  0
   -5.1919    2.3526   -2.1094 H   0  0  0  0  0  0  0  0  0  0  0  0
   -7.2350    1.7758   -1.2428 H   0  0  0  0  0  0  0  0  0  0  0  0
   -9.5693    2.0940   -0.6644 H   0  0  0  0  0  0  0  0  0  0  0  0
  1  2  1  0
  2  3  2  0
  3  4  1  0
  4  5  2  0
  5  6  1  0
  6  7  1  0
  7  8  2  0
  8  9  1  0
  9 10  2  0
  9 11  1  0
 11 12  1  0
 12 13  1  0
 13 14  1  0
 14 15  1  0
 15 16  2  0
 15 17  1  0
 17 18  1  0
 18 19  1  0
 19 20  1  0
 20 21  1  0
 21 22  1  0
 22 23  1  0
 23 24  1  0
 23 25  1  0
 25 26  1  0
 11 27  1  0
 27 28  2  0
 28 29  1  0
 28 30  1  0
 30 31  2  0
 31 32  1  0
  5 33  1  0
 33 34  2  0
 34  2  1  0
 31  6  1  0
 30  8  1  0
 26 20  1  0
  1 35  1  0
  1 36  1  0
  1 37  1  0
  3 38  1  0
  4 39  1  0
 12 40  1  0
 12 41  1  0
 13 42  1  0
 13 43  1  0
 14 44  1  0
 14 45  1  0
 17 46  1  0
 18 47  1  0
 18 48  1  0
 19 49  1  0
 19 50  1  0
 21 51  1  0
 21 52  1  0
 22 53  1  0
 22 54  1  0
 24 55  1  0
 24 56  1  0
 24 57  1  0
 25 58  1  0
 25 59  1  0
 26 60  1  0
 26 61  1  0
 29 62  1  0
 29 63  1  0
 29 64  1  0
 32 65  1  0
 32 66  1  0
 32 67  1  0
 33 68  1  0
 34 69  1  0
M  END
$$$$
