
     RDKit          3D

 41 42  0  0  0  0  0  0  0  0999 V2000
   -5.3026   -1.0056    0.4164 C   0  0  0  0  0  0  0  0  0  0  0  0
   -4.0438   -0.6516   -0.1454 O   0  0  0  0  0  0  0  0  0  0  0  0
   -3.5142   -1.4992   -1.0835 C   0  0  0  0  0  0  0  0  0  0  0  0
   -3.9843   -2.7936   -1.3390 C   0  0  0  0  0  0  0  0  0  0  0  0
   -3.3541   -3.5997   -2.2916 C   0  0  0  0  0  0  0  0  0  0  0  0
   -2.2492   -3.1236   -2.9928 C   0  0  0  0  0  0  0  0  0  0  0  0
   -1.7753   -1.8361   -2.7467 C   0  0  0  0  0  0  0  0  0  0  0  0
   -2.4086   -1.0077   -1.8039 C   0  0  0  0  0  0  0  0  0  0  0  0
   -1.8660    0.3804   -1.5720 C   0  0  0  0  0  0  0  0  0  0  0  0
   -0.9844    0.4061   -0.4262 N   0  0  0  0  0  0  0  0  0  0  0  0
   -0.1149    1.4628   -0.2347 C   0  0  0  0  0  0  0  0  0  0  0  0
    0.0511    2.3446   -1.0754 O   0  0  0  0  0  0  0  0  0  0  0  0
    0.6069    1.4276    1.1175 C   0  0  0  0  0  0  0  0  0  0  0  0
    1.7240    2.3107    1.1908 O   0  0  0  0  0  0  0  0  0  0  0  0
    2.8835    1.6359    0.9214 C   0  0  0  0  0  0  0  0  0  0  0  0
    3.3474    1.6041   -0.3944 C   0  0  0  0  0  0  0  0  0  0  0  0
    4.5168    0.9043   -0.6976 C   0  0  0  0  0  0  0  0  0  0  0  0
    5.2203    0.2445    0.3125 C   0  0  0  0  0  0  0  0  0  0  0  0
    4.7686    0.2984    1.6345 C   0  0  0  0  0  0  0  0  0  0  0  0
    3.6148    1.0174    1.9434 C   0  0  0  0  0  0  0  0  0  0  0  0
    3.2154    1.0271    3.2537 O   0  0  0  0  0  0  0  0  0  0  0  0
    3.2880    2.3484    3.8001 C   0  0  0  0  0  0  0  0  0  0  0  0
   -5.6119   -0.1853    1.0705 H   0  0  0  0  0  0  0  0  0  0  0  0
   -5.2206   -1.9057    1.0353 H   0  0  0  0  0  0  0  0  0  0  0  0
   -6.0729   -1.1319   -0.3514 H   0  0  0  0  0  0  0  0  0  0  0  0
   -4.8373   -3.2102   -0.8094 H   0  0  0  0  0  0  0  0  0  0  0  0
   -3.7264   -4.6031   -2.4890 H   0  0  0  0  0  0  0  0  0  0  0  0
   -1.7563   -3.7523   -3.7310 H   0  0  0  0  0  0  0  0  0  0  0  0
   -0.9116   -1.4739   -3.2993 H   0  0  0  0  0  0  0  0  0  0  0  0
   -2.6782    1.0958   -1.3958 H   0  0  0  0  0  0  0  0  0  0  0  0
   -1.3275    0.7347   -2.4579 H   0  0  0  0  0  0  0  0  0  0  0  0
   -1.2691   -0.1461    0.3734 H   0  0  0  0  0  0  0  0  0  0  0  0
    0.8707    0.3916    1.3701 H   0  0  0  0  0  0  0  0  0  0  0  0
   -0.1161    1.7671    1.8677 H   0  0  0  0  0  0  0  0  0  0  0  0
    2.7899    2.1086   -1.1800 H   0  0  0  0  0  0  0  0  0  0  0  0
    4.8745    0.8717   -1.7223 H   0  0  0  0  0  0  0  0  0  0  0  0
    6.1243   -0.3044    0.0717 H   0  0  0  0  0  0  0  0  0  0  0  0
    5.3153   -0.2113    2.4220 H   0  0  0  0  0  0  0  0  0  0  0  0
    3.4155    2.2498    4.8824 H   0  0  0  0  0  0  0  0  0  0  0  0
    2.3556    2.8892    3.6220 H   0  0  0  0  0  0  0  0  0  0  0  0
    4.1429    2.9203    3.4117 H   0  0  0  0  0  0  0  0  0  0  0  0
  1  2  1  0
  2  3  1  0
  3  4  2  0
  4  5  1  0
  5  6  2  0
  6  7  1  0
  7  8  2  0
  8  9  1  0
  9 10  1  0
 10 11  1  0
 11 12  2  0
 11 13  1  0
 13 14  1  0
 14 15  1  0
 15 16  2  0
 16 17  1  0
 17 18  2  0
 18 19  1  0
 19 20  2  0
 20 21  1  0
 21 22  1  0
  8  3  1  0
 20 15  1  0
  1 23  1  0
  1 24  1  0
  1 25  1  0
  4 26  1  0
  5 27  1  0
  6 28  1  0
  7 29  1  0
  9 30  1  0
  9 31  1  0
 10 32  1  0
 13 33  1  0
 13 34  1  0
 16 35  1  0
 17 36  1  0
 18 37  1  0
 19 38  1  0
 22 39  1  0
 22 40  1  0
 22 41  1  0
M  END
$$$$
