
     RDKit          3D

 43 45  0  0  0  0  0  0  0  0999 V2000
    2.9765    1.0895    0.2824 O   0  0  0  0  0  0  0  0  0  0  0  0
    2.3331    0.1136    0.6664 C   0  0  0  0  0  0  0  0  0  0  0  0
    1.7427    0.0538    2.0750 C   0  0  0  0  0  0  0  0  0  0  0  0
    0.3228    0.3532    2.0570 N   0  0  0  0  0  0  0  0  0  0  0  0
   -0.6249   -0.6123    1.8017 C   0  0  0  0  0  0  0  0  0  0  0  0
   -0.3012   -1.7463    1.4576 O   0  0  0  0  0  0  0  0  0  0  0  0
   -2.0756   -0.1295    1.8948 C   0  0  0  0  0  0  0  0  0  0  0  0
   -2.9723   -1.2769    2.3497 C   0  0  0  0  0  0  0  0  0  0  0  0
   -4.3492   -0.8760    2.3563 O   0  0  0  0  0  0  0  0  0  0  0  0
   -4.5090    0.3542    2.9404 C   0  0  0  0  0  0  0  0  0  0  0  0
   -5.8060    0.7065    3.3107 C   0  0  0  0  0  0  0  0  0  0  0  0
   -6.0419    1.9317    3.9372 C   0  0  0  0  0  0  0  0  0  0  0  0
   -4.9820    2.8084    4.1812 C   0  0  0  0  0  0  0  0  0  0  0  0
   -3.6854    2.4646    3.7930 C   0  0  0  0  0  0  0  0  0  0  0  0
   -3.4502    1.2417    3.1674 C   0  0  0  0  0  0  0  0  0  0  0  0
   -2.1538    0.9754    2.8041 O   0  0  0  0  0  0  0  0  0  0  0  0
    2.0192   -1.0154   -0.0904 N   0  0  0  0  0  0  0  0  0  0  0  0
    2.2416   -1.1202   -1.4428 N   0  0  0  0  0  0  0  0  0  0  0  0
    3.3769   -0.6868   -1.8918 C   0  0  0  0  0  0  0  0  0  0  0  0
    3.6999   -0.7045   -3.3326 C   0  0  0  0  0  0  0  0  0  0  0  0
    4.9871   -0.3365   -3.7391 C   0  0  0  0  0  0  0  0  0  0  0  0
    5.3175   -0.3490   -5.0951 C   0  0  0  0  0  0  0  0  0  0  0  0
    4.3580   -0.7144   -6.0407 C   0  0  0  0  0  0  0  0  0  0  0  0
    3.0799   -1.0802   -5.6254 C   0  0  0  0  0  0  0  0  0  0  0  0
    2.1777   -1.4326   -6.5853 O   0  0  0  0  0  0  0  0  0  0  0  0
    2.7399   -1.0851   -4.2756 C   0  0  0  0  0  0  0  0  0  0  0  0
    2.2392    0.7980    2.7026 H   0  0  0  0  0  0  0  0  0  0  0  0
    1.9132   -0.9365    2.5082 H   0  0  0  0  0  0  0  0  0  0  0  0
    0.0055    1.2607    2.3887 H   0  0  0  0  0  0  0  0  0  0  0  0
   -2.3682    0.2295    0.8974 H   0  0  0  0  0  0  0  0  0  0  0  0
   -2.8878   -2.1327    1.6704 H   0  0  0  0  0  0  0  0  0  0  0  0
   -2.7060   -1.6252    3.3568 H   0  0  0  0  0  0  0  0  0  0  0  0
   -6.6303    0.0196    3.1282 H   0  0  0  0  0  0  0  0  0  0  0  0
   -7.0522    2.2040    4.2386 H   0  0  0  0  0  0  0  0  0  0  0  0
   -5.1680    3.7615    4.6712 H   0  0  0  0  0  0  0  0  0  0  0  0
   -2.8653    3.1528    3.9737 H   0  0  0  0  0  0  0  0  0  0  0  0
    1.1994   -1.5456    0.2290 H   0  0  0  0  0  0  0  0  0  0  0  0
    4.1695   -0.3037   -1.2269 H   0  0  0  0  0  0  0  0  0  0  0  0
    5.7390   -0.0475   -3.0114 H   0  0  0  0  0  0  0  0  0  0  0  0
    6.3220   -0.0843   -5.4191 H   0  0  0  0  0  0  0  0  0  0  0  0
    4.6057   -0.7245   -7.0994 H   0  0  0  0  0  0  0  0  0  0  0  0
    1.3163   -1.5787   -6.1579 H   0  0  0  0  0  0  0  0  0  0  0  0
    1.7466   -1.3741   -3.9492 H   0  0  0  0  0  0  0  0  0  0  0  0
  1  2  2  0
  2  3  1  0
  3  4  1  0
  4  5  1  0
  5  6  2  0
  5  7  1  0
  7  8  1  0
  8  9  1  0
  9 10  1  0
 10 11  2  0
 11 12  1  0
 12 13  2  0
 13 14  1  0
 14 15  2  0
 15 16  1  0
  2 17  1  0
 17 18  1  0
 18 19  2  3
 19 20  1  0
 20 21  2  0
 21 22  1  0
 22 23  2  0
 23 24  1  0
 24 25  1  0
 24 26  2  0
 16  7  1  0
 26 20  1  0
 15 10  1  0
  3 27  1  0
  3 28  1  0
  4 29  1  0
  7 30  1  0
  8 31  1  0
  8 32  1  0
 11 33  1  0
 12 34  1  0
 13 35  1  0
 14 36  1  0
 17 37  1  0
 19 38  1  0
 21 39  1  0
 22 40  1  0
 23 41  1  0
 25 42  1  0
 26 43  1  0
M  END
$$$$
