
     RDKit          3D

 54 56  0  0  0  0  0  0  0  0999 V2000
   -3.6181    1.5420    2.7812 C   0  0  0  0  0  0  0  0  0  0  0  0
   -3.9547    0.9283    1.4451 C   0  0  0  0  0  0  0  0  0  0  0  0
   -5.0087    1.5331    0.7382 C   0  0  0  0  0  0  0  0  0  0  0  0
   -5.4752    0.9940   -0.4508 C   0  0  0  0  0  0  0  0  0  0  0  0
   -4.9057   -0.1720   -0.9473 C   0  0  0  0  0  0  0  0  0  0  0  0
   -3.8422   -0.8139   -0.2815 C   0  0  0  0  0  0  0  0  0  0  0  0
   -3.2364   -2.0740   -0.9063 C   0  0  0  0  0  0  0  0  0  0  0  0
   -2.0461   -1.7037   -1.7972 C   0  0  0  0  0  0  0  0  0  0  0  0
   -4.2243   -2.9502   -1.6933 C   0  0  0  0  0  0  0  0  0  0  0  0
   -3.3192   -0.2134    0.9024 C   0  0  0  0  0  0  0  0  0  0  0  0
   -2.1988   -0.8219    1.5253 N   0  0  0  0  0  0  0  0  0  0  0  0
   -1.1120   -0.1570    2.0806 C   0  0  0  0  0  0  0  0  0  0  0  0
   -0.9325    1.0567    2.0949 O   0  0  0  0  0  0  0  0  0  0  0  0
   -0.0734   -1.1146    2.6534 C   0  0  0  0  0  0  0  0  0  0  0  0
    0.9942   -1.3570    1.6298 C   0  0  0  0  0  0  0  0  0  0  0  0
    1.0380   -2.3207    0.6412 C   0  0  0  0  0  0  0  0  0  0  0  0
    2.2006   -2.2023   -0.1733 C   0  0  0  0  0  0  0  0  0  0  0  0
    3.0177   -1.1632    0.2252 C   0  0  0  0  0  0  0  0  0  0  0  0
    4.5582   -0.5502   -0.4133 S   0  0  0  0  0  6  0  0  0  0  0  0
    4.5425   -0.9008   -1.8180 O   0  0  0  0  0  0  0  0  0  0  0  0
    5.5678   -1.0740    0.4806 O   0  0  0  0  0  0  0  0  0  0  0  0
    4.5767    1.1457   -0.3115 N   0  0  0  0  0  0  0  0  0  0  0  0
    3.5512    1.8609   -1.1364 C   0  0  0  0  0  0  0  0  0  0  0  0
    4.1988    2.5568   -2.3371 C   0  0  0  0  0  0  0  0  0  0  0  0
    5.1681    3.5451   -1.9601 O   0  0  0  0  0  0  0  0  0  0  0  0
    5.8471    3.2374   -0.7344 C   0  0  0  0  0  0  0  0  0  0  0  0
    5.9435    1.7346   -0.4605 C   0  0  0  0  0  0  0  0  0  0  0  0
    2.3935   -0.3681    1.6015 S   0  0  0  0  0  0  0  0  0  0  0  0
   -2.9329    2.3867    2.6561 H   0  0  0  0  0  0  0  0  0  0  0  0
   -4.5278    1.9163    3.2685 H   0  0  0  0  0  0  0  0  0  0  0  0
   -3.1962    0.8099    3.4749 H   0  0  0  0  0  0  0  0  0  0  0  0
   -5.4847    2.4295    1.1305 H   0  0  0  0  0  0  0  0  0  0  0  0
   -6.2909    1.4743   -0.9837 H   0  0  0  0  0  0  0  0  0  0  0  0
   -5.3010   -0.5610   -1.8814 H   0  0  0  0  0  0  0  0  0  0  0  0
   -2.8839   -2.7300   -0.1033 H   0  0  0  0  0  0  0  0  0  0  0  0
   -2.3615   -1.0878   -2.6465 H   0  0  0  0  0  0  0  0  0  0  0  0
   -1.5629   -2.6023   -2.1960 H   0  0  0  0  0  0  0  0  0  0  0  0
   -1.2888   -1.1389   -1.2424 H   0  0  0  0  0  0  0  0  0  0  0  0
   -5.1182   -3.1693   -1.0984 H   0  0  0  0  0  0  0  0  0  0  0  0
   -4.5396   -2.4829   -2.6324 H   0  0  0  0  0  0  0  0  0  0  0  0
   -3.7559   -3.9058   -1.9548 H   0  0  0  0  0  0  0  0  0  0  0  0
   -1.9960   -1.7712    1.2528 H   0  0  0  0  0  0  0  0  0  0  0  0
    0.3283   -0.6789    3.5757 H   0  0  0  0  0  0  0  0  0  0  0  0
   -0.5488   -2.0610    2.9389 H   0  0  0  0  0  0  0  0  0  0  0  0
    0.2695   -3.0686    0.4916 H   0  0  0  0  0  0  0  0  0  0  0  0
    2.4359   -2.8390   -1.0187 H   0  0  0  0  0  0  0  0  0  0  0  0
    3.0695    2.5998   -0.4835 H   0  0  0  0  0  0  0  0  0  0  0  0
    2.7687    1.1773   -1.4820 H   0  0  0  0  0  0  0  0  0  0  0  0
    4.6948    1.8279   -2.9877 H   0  0  0  0  0  0  0  0  0  0  0  0
    3.4350    3.0626   -2.9363 H   0  0  0  0  0  0  0  0  0  0  0  0
    6.8480    3.6754   -0.7976 H   0  0  0  0  0  0  0  0  0  0  0  0
    5.3179    3.7463    0.0796 H   0  0  0  0  0  0  0  0  0  0  0  0
    6.4672    1.2467   -1.2910 H   0  0  0  0  0  0  0  0  0  0  0  0
    6.5037    1.5664    0.4645 H   0  0  0  0  0  0  0  0  0  0  0  0
  1  2  1  0
  2  3  2  0
  3  4  1  0
  4  5  2  0
  5  6  1  0
  6  7  1  0
  7  8  1  0
  7  9  1  0
  6 10  2  0
 10 11  1  0
 11 12  1  0
 12 13  2  0
 12 14  1  0
 14 15  1  0
 15 16  2  0
 16 17  1  0
 17 18  2  0
 18 19  1  0
 19 20  2  0
 19 21  2  0
 19 22  1  0
 22 23  1  0
 23 24  1  0
 24 25  1  0
 25 26  1  0
 26 27  1  0
 18 28  1  0
 10  2  1  0
 28 15  1  0
 27 22  1  0
  1 29  1  0
  1 30  1  0
  1 31  1  0
  3 32  1  0
  4 33  1  0
  5 34  1  0
  7 35  1  0
  8 36  1  0
  8 37  1  0
  8 38  1  0
  9 39  1  0
  9 40  1  0
  9 41  1  0
 11 42  1  0
 14 43  1  0
 14 44  1  0
 16 45  1  0
 17 46  1  0
 23 47  1  0
 23 48  1  0
 24 49  1  0
 24 50  1  0
 26 51  1  0
 26 52  1  0
 27 53  1  0
 27 54  1  0
M  END
$$$$
