
     RDKit          3D

 45 48  0  0  0  0  0  0  0  0999 V2000
   -0.3534   -3.5163   -0.3470 C   0  0  0  0  0  0  0  0  0  0  0  0
   -0.7456   -2.3243    0.3217 O   0  0  0  0  0  0  0  0  0  0  0  0
   -2.0614   -1.9455    0.2170 C   0  0  0  0  0  0  0  0  0  0  0  0
   -3.0882   -2.8298   -0.1448 C   0  0  0  0  0  0  0  0  0  0  0  0
   -4.4166   -2.4022   -0.1793 C   0  0  0  0  0  0  0  0  0  0  0  0
   -4.7344   -1.0923    0.1556 C   0  0  0  0  0  0  0  0  0  0  0  0
   -3.7208   -0.2071    0.5233 C   0  0  0  0  0  0  0  0  0  0  0  0
   -2.3683   -0.6086    0.5577 C   0  0  0  0  0  0  0  0  0  0  0  0
   -1.3369    0.3692    0.9361 C   0  0  0  0  0  0  0  0  0  0  0  0
   -1.5954    1.1488    2.0131 N   0  0  0  0  0  0  0  0  0  0  0  0
   -0.6432    2.0610    2.3322 C   0  0  0  0  0  0  0  0  0  0  0  0
   -0.9056    2.9199    3.5205 C   0  0  0  0  0  0  0  0  0  0  0  0
   -2.0817    2.6766    4.1774 N   0  0  0  0  0  0  0  0  0  0  0  0
   -0.1234    3.7852    3.8933 O   0  0  0  0  0  0  0  0  0  0  0  0
    0.5026    2.1966    1.6061 C   0  0  0  0  0  0  0  0  0  0  0  0
    1.5932    3.0430    1.7208 N   0  0  0  0  0  0  0  0  0  0  0  0
    2.4922    2.7579    0.6837 C   0  0  0  0  0  0  0  0  0  0  0  0
    3.5490    3.3506    0.5397 O   0  0  0  0  0  0  0  0  0  0  0  0
    1.9140    1.6937   -0.0746 N   0  0  0  0  0  0  0  0  0  0  0  0
    2.4626    1.0643   -1.2263 C   0  0  0  0  0  0  0  0  0  0  0  0
    3.6120    1.5857   -1.8421 C   0  0  0  0  0  0  0  0  0  0  0  0
    4.1785    0.9872   -2.9738 C   0  0  0  0  0  0  0  0  0  0  0  0
    3.6082   -0.1548   -3.5226 C   0  0  0  0  0  0  0  0  0  0  0  0
    2.4620   -0.7002   -2.9464 C   0  0  0  0  0  0  0  0  0  0  0  0
    1.8564   -1.9567   -3.4996 C   0  0  0  0  0  0  0  0  0  0  0  0
    1.9112   -0.0947   -1.8007 C   0  0  0  0  0  0  0  0  0  0  0  0
    0.6695    1.3678    0.5237 C   0  0  0  0  0  0  0  0  0  0  0  0
   -0.2400    0.4627    0.1548 N   0  0  0  0  0  0  0  0  0  0  0  0
   -0.6678   -3.5111   -1.3962 H   0  0  0  0  0  0  0  0  0  0  0  0
    0.7399   -3.5652   -0.3288 H   0  0  0  0  0  0  0  0  0  0  0  0
   -0.7338   -4.3992    0.1765 H   0  0  0  0  0  0  0  0  0  0  0  0
   -2.8864   -3.8681   -0.3862 H   0  0  0  0  0  0  0  0  0  0  0  0
   -5.2038   -3.0983   -0.4590 H   0  0  0  0  0  0  0  0  0  0  0  0
   -5.7690   -0.7583    0.1344 H   0  0  0  0  0  0  0  0  0  0  0  0
   -3.9881    0.8170    0.7798 H   0  0  0  0  0  0  0  0  0  0  0  0
   -2.6866    1.9195    3.8786 H   0  0  0  0  0  0  0  0  0  0  0  0
   -2.2982    3.1953    5.0169 H   0  0  0  0  0  0  0  0  0  0  0  0
    1.7223    3.7545    2.4307 H   0  0  0  0  0  0  0  0  0  0  0  0
    4.1002    2.4820   -1.4712 H   0  0  0  0  0  0  0  0  0  0  0  0
    5.0683    1.4210   -3.4224 H   0  0  0  0  0  0  0  0  0  0  0  0
    4.0626   -0.6139   -4.3971 H   0  0  0  0  0  0  0  0  0  0  0  0
    2.2865   -2.8293   -2.9988 H   0  0  0  0  0  0  0  0  0  0  0  0
    0.7709   -1.9634   -3.3548 H   0  0  0  0  0  0  0  0  0  0  0  0
    2.0408   -2.0389   -4.5760 H   0  0  0  0  0  0  0  0  0  0  0  0
    1.0453   -0.5812   -1.3653 H   0  0  0  0  0  0  0  0  0  0  0  0
  1  2  1  0
  2  3  1  0
  3  4  2  0
  4  5  1  0
  5  6  2  0
  6  7  1  0
  7  8  2  0
  8  9  1  0
  9 10  2  0
 10 11  1  0
 11 12  1  0
 12 13  1  0
 12 14  2  0
 11 15  2  0
 15 16  1  0
 16 17  1  0
 17 18  2  0
 17 19  1  0
 19 20  1  0
 20 21  2  0
 21 22  1  0
 22 23  2  0
 23 24  1  0
 24 25  1  0
 24 26  2  0
 19 27  1  0
 27 28  2  0
  8  3  1  0
 28  9  1  0
 27 15  1  0
 26 20  1  0
  1 29  1  0
  1 30  1  0
  1 31  1  0
  4 32  1  0
  5 33  1  0
  6 34  1  0
  7 35  1  0
 13 36  1  0
 13 37  1  0
 16 38  1  0
 21 39  1  0
 22 40  1  0
 23 41  1  0
 25 42  1  0
 25 43  1  0
 25 44  1  0
 26 45  1  0
M  END
$$$$
