
     RDKit          3D

 38 40  0  0  0  0  0  0  0  0999 V2000
   -7.4423    1.5371    0.6703 C   0  0  0  0  0  0  0  0  0  0  0  0
   -6.5041    0.6380    1.2469 O   0  0  0  0  0  0  0  0  0  0  0  0
   -5.2289    0.6772    0.7572 C   0  0  0  0  0  0  0  0  0  0  0  0
   -4.3447   -0.2231    1.3485 C   0  0  0  0  0  0  0  0  0  0  0  0
   -3.0056   -0.2896    0.9418 C   0  0  0  0  0  0  0  0  0  0  0  0
   -2.5142    0.5451   -0.0647 C   0  0  0  0  0  0  0  0  0  0  0  0
   -1.1872    0.5297   -0.5319 N   0  0  0  0  0  0  0  0  0  0  0  0
   -0.1568   -0.2738   -0.1752 C   0  0  0  0  0  0  0  0  0  0  0  0
   -0.1705   -1.2794    0.6703 N   0  0  0  0  0  0  0  0  0  0  0  0
    1.0671   -1.8478    0.7578 C   0  0  0  0  0  0  0  0  0  0  0  0
    1.2089   -2.9020    1.5752 N   0  0  0  0  0  0  0  0  0  0  0  0
    2.0646   -1.2793   -0.0004 C   0  0  0  0  0  0  0  0  0  0  0  0
    3.4431   -1.7000   -0.1278 C   0  0  0  0  0  0  0  0  0  0  0  0
    3.8039   -2.8680    0.0254 O   0  0  0  0  0  0  0  0  0  0  0  0
    4.5100   -0.7131   -0.4467 C   0  0  0  0  0  0  0  0  0  0  0  0
    4.5754    0.5272    0.2058 C   0  0  0  0  0  0  0  0  0  0  0  0
    5.6031    1.4204   -0.1047 C   0  0  0  0  0  0  0  0  0  0  0  0
    6.5617    1.0657   -1.0489 C   0  0  0  0  0  0  0  0  0  0  0  0
    7.5456    1.9253   -1.3425 F   0  0  0  0  0  0  0  0  0  0  0  0
    6.5200   -0.1701   -1.6858 C   0  0  0  0  0  0  0  0  0  0  0  0
    5.4955   -1.0675   -1.3799 C   0  0  0  0  0  0  0  0  0  0  0  0
    1.3889    0.0081   -0.9069 S   0  0  0  0  0  0  0  0  0  0  0  0
   -3.4186    1.4453   -0.6538 C   0  0  0  0  0  0  0  0  0  0  0  0
   -4.7598    1.5145   -0.2500 C   0  0  0  0  0  0  0  0  0  0  0  0
   -7.1466    2.5780    0.8386 H   0  0  0  0  0  0  0  0  0  0  0  0
   -8.4047    1.3802    1.1669 H   0  0  0  0  0  0  0  0  0  0  0  0
   -7.5810    1.3327   -0.3965 H   0  0  0  0  0  0  0  0  0  0  0  0
   -4.6951   -0.8851    2.1367 H   0  0  0  0  0  0  0  0  0  0  0  0
   -2.3634   -1.0091    1.4405 H   0  0  0  0  0  0  0  0  0  0  0  0
   -0.9842    1.2401   -1.2224 H   0  0  0  0  0  0  0  0  0  0  0  0
    0.3572   -3.3745    1.8607 H   0  0  0  0  0  0  0  0  0  0  0  0
    1.9860   -3.5432    1.4179 H   0  0  0  0  0  0  0  0  0  0  0  0
    3.8470    0.8010    0.9658 H   0  0  0  0  0  0  0  0  0  0  0  0
    5.6689    2.3853    0.3891 H   0  0  0  0  0  0  0  0  0  0  0  0
    7.2871   -0.4288   -2.4092 H   0  0  0  0  0  0  0  0  0  0  0  0
    5.4670   -2.0410   -1.8658 H   0  0  0  0  0  0  0  0  0  0  0  0
   -3.0883    2.1124   -1.4466 H   0  0  0  0  0  0  0  0  0  0  0  0
   -5.4051    2.2318   -0.7452 H   0  0  0  0  0  0  0  0  0  0  0  0
  1  2  1  0
  2  3  1  0
  3  4  2  0
  4  5  1  0
  5  6  2  0
  6  7  1  0
  7  8  1  0
  8  9  2  0
  9 10  1  0
 10 11  1  0
 10 12  2  0
 12 13  1  0
 13 14  2  0
 13 15  1  0
 15 16  2  0
 16 17  1  0
 17 18  2  0
 18 19  1  0
 18 20  1  0
 20 21  2  0
 12 22  1  0
  6 23  1  0
 23 24  2  0
 24  3  1  0
 22  8  1  0
 21 15  1  0
  1 25  1  0
  1 26  1  0
  1 27  1  0
  4 28  1  0
  5 29  1  0
  7 30  1  0
 11 31  1  0
 11 32  1  0
 16 33  1  0
 17 34  1  0
 20 35  1  0
 21 36  1  0
 23 37  1  0
 24 38  1  0
M  END
$$$$
