
     RDKit          3D

 69 71  0  0  0  0  0  0  0  0999 V2000
   -6.5816    2.3629   -0.5536 C   0  0  0  0  0  0  0  0  0  0  0  0
   -5.7878    3.4296   -1.2924 C   0  0  0  0  0  0  0  0  0  0  0  0
   -4.4237    2.9352   -1.7773 C   0  0  0  0  0  0  0  0  0  0  0  0
   -3.4953    2.5887   -0.6947 N   0  0  0  0  0  0  0  0  0  0  0  0
   -2.9508    3.6892    0.1082 C   0  0  0  0  0  0  0  0  0  0  0  0
   -3.5783    3.7737    1.5015 C   0  0  0  0  0  0  0  0  0  0  0  0
   -2.9820    4.9164    2.3076 C   0  0  0  0  0  0  0  0  0  0  0  0
   -3.0263    1.2996   -0.4221 C   0  0  0  0  0  0  0  0  0  0  0  0
   -2.2060    1.0925    0.4765 O   0  0  0  0  0  0  0  0  0  0  0  0
   -3.5823    0.1497   -1.2754 C   0  0  0  0  0  0  0  0  0  0  0  0
   -3.0695   -1.1449   -0.8243 N   0  0  0  0  0  0  0  0  0  0  0  0
   -1.8705   -1.5910   -1.3921 C   0  0  0  0  0  0  0  0  0  0  0  0
   -1.3248   -0.9595   -2.3026 O   0  0  0  0  0  0  0  0  0  0  0  0
   -1.3277   -2.7859   -0.9012 N   0  0  0  0  0  0  0  0  0  0  0  0
   -0.0664   -3.2481   -1.4724 C   0  0  0  0  0  0  0  0  0  0  0  0
    1.1522   -2.9210   -0.5960 C   0  0  0  0  0  0  0  0  0  0  0  0
    1.4190   -1.4180   -0.4681 C   0  0  0  0  0  0  0  0  0  0  0  0
    2.6418   -1.0892    0.3943 C   0  0  0  0  0  0  0  0  0  0  0  0
    3.9642   -1.5257   -0.2355 C   0  0  0  0  0  0  0  0  0  0  0  0
    5.1741   -1.0695    0.5701 C   0  0  0  0  0  0  0  0  0  0  0  0
    5.0652   -0.4603    1.6271 O   0  0  0  0  0  0  0  0  0  0  0  0
    6.3569   -1.4424   -0.0508 N   0  0  0  0  0  0  0  0  0  0  0  0
    7.6745   -1.2025    0.3910 C   0  0  0  0  0  0  0  0  0  0  0  0
    7.9939   -0.5257    1.5690 C   0  0  0  0  0  0  0  0  0  0  0  0
    9.3300   -0.3305    1.9351 C   0  0  0  0  0  0  0  0  0  0  0  0
   10.3576   -0.8099    1.1267 C   0  0  0  0  0  0  0  0  0  0  0  0
   10.0507   -1.4861   -0.0505 C   0  0  0  0  0  0  0  0  0  0  0  0
    8.7159   -1.6811   -0.4160 C   0  0  0  0  0  0  0  0  0  0  0  0
   -1.8903   -3.5714    0.1136 C   0  0  0  0  0  0  0  0  0  0  0  0
   -1.3881   -4.6319    0.4849 O   0  0  0  0  0  0  0  0  0  0  0  0
   -3.0975   -3.0201    0.6602 C   0  0  0  0  0  0  0  0  0  0  0  0
   -3.9634   -3.7474    1.9265 S   0  0  0  0  0  0  0  0  0  0  0  0
   -5.1143   -2.4794    1.9280 C   0  0  0  0  0  0  0  0  0  0  0  0
   -4.8342   -1.5287    0.9674 C   0  0  0  0  0  0  0  0  0  0  0  0
   -3.6616   -1.8523    0.2224 C   0  0  0  0  0  0  0  0  0  0  0  0
   -6.0604    2.0255    0.3471 H   0  0  0  0  0  0  0  0  0  0  0  0
   -7.5543    2.7618   -0.2486 H   0  0  0  0  0  0  0  0  0  0  0  0
   -6.7608    1.4943   -1.1949 H   0  0  0  0  0  0  0  0  0  0  0  0
   -5.6716    4.3087   -0.6499 H   0  0  0  0  0  0  0  0  0  0  0  0
   -6.3694    3.7550   -2.1632 H   0  0  0  0  0  0  0  0  0  0  0  0
   -3.9426    3.7188   -2.3752 H   0  0  0  0  0  0  0  0  0  0  0  0
   -4.5705    2.0896   -2.4528 H   0  0  0  0  0  0  0  0  0  0  0  0
   -1.8677    3.5415    0.2021 H   0  0  0  0  0  0  0  0  0  0  0  0
   -3.0950    4.6313   -0.4335 H   0  0  0  0  0  0  0  0  0  0  0  0
   -3.4291    2.8351    2.0468 H   0  0  0  0  0  0  0  0  0  0  0  0
   -4.6606    3.9186    1.4234 H   0  0  0  0  0  0  0  0  0  0  0  0
   -3.4440    4.9626    3.2988 H   0  0  0  0  0  0  0  0  0  0  0  0
   -3.1496    5.8768    1.8098 H   0  0  0  0  0  0  0  0  0  0  0  0
   -1.9040    4.7812    2.4415 H   0  0  0  0  0  0  0  0  0  0  0  0
   -3.2885    0.3164   -2.3169 H   0  0  0  0  0  0  0  0  0  0  0  0
   -4.6743    0.1366   -1.2266 H   0  0  0  0  0  0  0  0  0  0  0  0
   -0.1229   -4.3364   -1.5990 H   0  0  0  0  0  0  0  0  0  0  0  0
    0.0790   -2.8302   -2.4748 H   0  0  0  0  0  0  0  0  0  0  0  0
    1.0239   -3.3524    0.4037 H   0  0  0  0  0  0  0  0  0  0  0  0
    2.0224   -3.4121   -1.0453 H   0  0  0  0  0  0  0  0  0  0  0  0
    1.5421   -0.9754   -1.4637 H   0  0  0  0  0  0  0  0  0  0  0  0
    0.5499   -0.9331   -0.0084 H   0  0  0  0  0  0  0  0  0  0  0  0
    2.6630   -0.0039    0.5565 H   0  0  0  0  0  0  0  0  0  0  0  0
    2.5313   -1.5470    1.3852 H   0  0  0  0  0  0  0  0  0  0  0  0
    4.0078   -2.6178   -0.3088 H   0  0  0  0  0  0  0  0  0  0  0  0
    4.0483   -1.1068   -1.2453 H   0  0  0  0  0  0  0  0  0  0  0  0
    6.2700   -1.9465   -0.9236 H   0  0  0  0  0  0  0  0  0  0  0  0
    7.2264   -0.1351    2.2296 H   0  0  0  0  0  0  0  0  0  0  0  0
    9.5624    0.1983    2.8561 H   0  0  0  0  0  0  0  0  0  0  0  0
   11.3939   -0.6562    1.4152 H   0  0  0  0  0  0  0  0  0  0  0  0
   10.8491   -1.8622   -0.6847 H   0  0  0  0  0  0  0  0  0  0  0  0
    8.5054   -2.2125   -1.3401 H   0  0  0  0  0  0  0  0  0  0  0  0
   -5.9340   -2.4903    2.6337 H   0  0  0  0  0  0  0  0  0  0  0  0
   -5.4493   -0.6494    0.8289 H   0  0  0  0  0  0  0  0  0  0  0  0
  1  2  1  0
  2  3  1  0
  3  4  1  0
  4  5  1  0
  5  6  1  0
  6  7  1  0
  4  8  1  0
  8  9  2  0
  8 10  1  0
 10 11  1  0
 11 12  1  0
 12 13  2  0
 12 14  1  0
 14 15  1  0
 15 16  1  0
 16 17  1  0
 17 18  1  0
 18 19  1  0
 19 20  1  0
 20 21  2  0
 20 22  1  0
 22 23  1  0
 23 24  2  0
 24 25  1  0
 25 26  2  0
 26 27  1  0
 27 28  2  0
 14 29  1  0
 29 30  2  0
 29 31  1  0
 31 32  1  0
 32 33  1  0
 33 34  2  0
 34 35  1  0
 35 11  1  0
 28 23  1  0
 35 31  2  0
  1 36  1  0
  1 37  1  0
  1 38  1  0
  2 39  1  0
  2 40  1  0
  3 41  1  0
  3 42  1  0
  5 43  1  0
  5 44  1  0
  6 45  1  0
  6 46  1  0
  7 47  1  0
  7 48  1  0
  7 49  1  0
 10 50  1  0
 10 51  1  0
 15 52  1  0
 15 53  1  0
 16 54  1  0
 16 55  1  0
 17 56  1  0
 17 57  1  0
 18 58  1  0
 18 59  1  0
 19 60  1  0
 19 61  1  0
 22 62  1  0
 24 63  1  0
 25 64  1  0
 26 65  1  0
 27 66  1  0
 28 67  1  0
 33 68  1  0
 34 69  1  0
M  END
$$$$
