
     RDKit          3D

 47 48  0  0  0  0  0  0  0  0999 V2000
   -4.1905   -2.2237   -1.7956 C   0  0  0  0  0  0  0  0  0  0  0  0
   -3.2114   -1.0999   -2.8242 S   0  0  0  0  0  0  0  0  0  0  0  0
   -1.7126   -0.9686   -1.7937 C   0  0  0  0  0  0  0  0  0  0  0  0
   -1.9430   -0.0900   -0.5640 C   0  0  0  0  0  0  0  0  0  0  0  0
   -0.6513    0.0778    0.2520 C   0  0  0  0  0  0  0  0  0  0  0  0
    0.2817    0.9470   -0.4727 N   0  0  0  0  0  0  0  0  0  0  0  0
    1.8749    1.0658    0.0213 S   0  0  0  0  0  6  0  0  0  0  0  0
    2.4389    2.1543   -0.7462 O   0  0  0  0  0  0  0  0  0  0  0  0
    1.9137    1.0591    1.4641 O   0  0  0  0  0  0  0  0  0  0  0  0
    2.5630   -0.4484   -0.5884 C   0  0  0  0  0  0  0  0  0  0  0  0
    2.8796   -0.5604   -1.9443 C   0  0  0  0  0  0  0  0  0  0  0  0
    3.4226   -1.7522   -2.4266 C   0  0  0  0  0  0  0  0  0  0  0  0
    3.6474   -2.8318   -1.5611 C   0  0  0  0  0  0  0  0  0  0  0  0
    4.2652   -4.0991   -2.0763 C   0  0  0  0  0  0  0  0  0  0  0  0
    3.3491   -2.6944   -0.1982 C   0  0  0  0  0  0  0  0  0  0  0  0
    2.8062   -1.5054    0.2913 C   0  0  0  0  0  0  0  0  0  0  0  0
   -0.9987    0.4824    1.6884 C   0  0  0  0  0  0  0  0  0  0  0  0
   -1.0811   -0.4022    2.5495 O   0  0  0  0  0  0  0  0  0  0  0  0
   -1.3098    1.7900    1.9897 N   0  0  0  0  0  0  0  0  0  0  0  0
   -1.6172    2.1640    3.3621 C   0  0  0  0  0  0  0  0  0  0  0  0
   -1.5545    3.6844    3.3776 C   0  0  0  0  0  0  0  0  0  0  0  0
   -1.9446    4.0535    1.9539 C   0  0  0  0  0  0  0  0  0  0  0  0
   -1.2703    2.9636    1.1328 C   0  0  0  0  0  0  0  0  0  0  0  0
   -3.6287   -3.1370   -1.5837 H   0  0  0  0  0  0  0  0  0  0  0  0
   -4.4801   -1.7404   -0.8598 H   0  0  0  0  0  0  0  0  0  0  0  0
   -5.1015   -2.4963   -2.3353 H   0  0  0  0  0  0  0  0  0  0  0  0
   -1.3799   -1.9724   -1.5091 H   0  0  0  0  0  0  0  0  0  0  0  0
   -0.9312   -0.5349   -2.4263 H   0  0  0  0  0  0  0  0  0  0  0  0
   -2.3272    0.8889   -0.8744 H   0  0  0  0  0  0  0  0  0  0  0  0
   -2.7123   -0.5432    0.0730 H   0  0  0  0  0  0  0  0  0  0  0  0
   -0.1783   -0.9101    0.3358 H   0  0  0  0  0  0  0  0  0  0  0  0
   -0.0524    1.7355   -1.0207 H   0  0  0  0  0  0  0  0  0  0  0  0
    2.7120    0.2714   -2.6246 H   0  0  0  0  0  0  0  0  0  0  0  0
    3.6743   -1.8339   -3.4822 H   0  0  0  0  0  0  0  0  0  0  0  0
    5.3558   -4.0359   -2.0132 H   0  0  0  0  0  0  0  0  0  0  0  0
    3.9800   -4.2767   -3.1185 H   0  0  0  0  0  0  0  0  0  0  0  0
    3.9258   -4.9631   -1.4953 H   0  0  0  0  0  0  0  0  0  0  0  0
    3.5421   -3.5140    0.4915 H   0  0  0  0  0  0  0  0  0  0  0  0
    2.5792   -1.4138    1.3518 H   0  0  0  0  0  0  0  0  0  0  0  0
   -0.9118    1.7085    4.0641 H   0  0  0  0  0  0  0  0  0  0  0  0
   -2.6270    1.8038    3.5881 H   0  0  0  0  0  0  0  0  0  0  0  0
   -2.2115    4.1262    4.1317 H   0  0  0  0  0  0  0  0  0  0  0  0
   -0.5285    4.0157    3.5784 H   0  0  0  0  0  0  0  0  0  0  0  0
   -1.6222    5.0581    1.6675 H   0  0  0  0  0  0  0  0  0  0  0  0
   -3.0336    3.9934    1.8393 H   0  0  0  0  0  0  0  0  0  0  0  0
   -0.2219    3.2174    0.9470 H   0  0  0  0  0  0  0  0  0  0  0  0
   -1.7785    2.7869    0.1836 H   0  0  0  0  0  0  0  0  0  0  0  0
  1  2  1  0
  2  3  1  0
  3  4  1  0
  4  5  1  0
  5  6  1  0
  6  7  1  0
  7  8  2  0
  7  9  2  0
  7 10  1  0
 10 11  2  0
 11 12  1  0
 12 13  2  0
 13 14  1  0
 13 15  1  0
 15 16  2  0
  5 17  1  0
 17 18  2  0
 17 19  1  0
 19 20  1  0
 20 21  1  0
 21 22  1  0
 22 23  1  0
 16 10  1  0
 23 19  1  0
  1 24  1  0
  1 25  1  0
  1 26  1  0
  3 27  1  0
  3 28  1  0
  4 29  1  0
  4 30  1  0
  5 31  1  0
  6 32  1  0
 11 33  1  0
 12 34  1  0
 14 35  1  0
 14 36  1  0
 14 37  1  0
 15 38  1  0
 16 39  1  0
 20 40  1  0
 20 41  1  0
 21 42  1  0
 21 43  1  0
 22 44  1  0
 22 45  1  0
 23 46  1  0
 23 47  1  0
M  END
$$$$
