
     RDKit          3D

 45 47  0  0  0  0  0  0  0  0999 V2000
    2.2167   -0.4710   -2.0219 O   0  0  0  0  0  0  0  0  0  0  0  0
    1.7367    0.3206   -1.2089 C   0  0  0  0  0  0  0  0  0  0  0  0
    2.3410    1.6979   -0.9346 C   0  0  0  0  0  0  0  0  0  0  0  0
    3.9326    1.9782   -1.7766 S   0  0  0  0  0  0  0  0  0  0  0  0
    5.0007    1.0542   -0.6899 C   0  0  0  0  0  0  0  0  0  0  0  0
    5.2912   -0.2869   -0.9560 C   0  0  0  0  0  0  0  0  0  0  0  0
    6.1299   -1.0098   -0.1040 C   0  0  0  0  0  0  0  0  0  0  0  0
    6.6853   -0.3853    1.0108 C   0  0  0  0  0  0  0  0  0  0  0  0
    7.8203   -1.3606    2.1653 Br  0  0  0  0  0  0  0  0  0  0  0  0
    6.4123    0.9550    1.2792 C   0  0  0  0  0  0  0  0  0  0  0  0
    5.5717    1.6750    0.4260 C   0  0  0  0  0  0  0  0  0  0  0  0
    0.5648    0.0043   -0.5110 N   0  0  0  0  0  0  0  0  0  0  0  0
    0.1019   -1.3901   -0.5759 C   0  0  0  0  0  0  0  0  0  0  0  0
   -1.4108   -1.5298   -0.3586 C   0  0  0  0  0  0  0  0  0  0  0  0
   -1.8093   -0.8286    0.8940 N   0  0  0  0  0  0  0  0  0  0  0  0
   -3.3270   -1.2227    1.5444 S   0  0  0  0  0  6  0  0  0  0  0  0
   -3.4540   -2.6645    1.5401 O   0  0  0  0  0  0  0  0  0  0  0  0
   -3.4953   -0.4612    2.7644 O   0  0  0  0  0  0  0  0  0  0  0  0
   -4.4732   -0.5769    0.3451 C   0  0  0  0  0  0  0  0  0  0  0  0
   -4.9118   -1.3939   -0.7018 C   0  0  0  0  0  0  0  0  0  0  0  0
   -5.8252   -0.8913   -1.6282 C   0  0  0  0  0  0  0  0  0  0  0  0
   -6.3075    0.4122   -1.4975 C   0  0  0  0  0  0  0  0  0  0  0  0
   -5.8871    1.2154   -0.4359 C   0  0  0  0  0  0  0  0  0  0  0  0
   -4.9735    0.7206    0.4946 C   0  0  0  0  0  0  0  0  0  0  0  0
   -1.4507    0.6130    0.8479 C   0  0  0  0  0  0  0  0  0  0  0  0
    0.0645    0.7720    0.6394 C   0  0  0  0  0  0  0  0  0  0  0  0
    2.4863    1.8392    0.1402 H   0  0  0  0  0  0  0  0  0  0  0  0
    1.6396    2.4532   -1.3027 H   0  0  0  0  0  0  0  0  0  0  0  0
    4.8629   -0.7806   -1.8269 H   0  0  0  0  0  0  0  0  0  0  0  0
    6.3419   -2.0531   -0.3224 H   0  0  0  0  0  0  0  0  0  0  0  0
    6.8508    1.4483    2.1425 H   0  0  0  0  0  0  0  0  0  0  0  0
    5.3736    2.7232    0.6363 H   0  0  0  0  0  0  0  0  0  0  0  0
    0.6459   -1.9380    0.2036 H   0  0  0  0  0  0  0  0  0  0  0  0
    0.3678   -1.8391   -1.5387 H   0  0  0  0  0  0  0  0  0  0  0  0
   -1.9444   -1.0913   -1.2094 H   0  0  0  0  0  0  0  0  0  0  0  0
   -1.6574   -2.5944   -0.3019 H   0  0  0  0  0  0  0  0  0  0  0  0
   -4.5553   -2.4171   -0.7977 H   0  0  0  0  0  0  0  0  0  0  0  0
   -6.1712   -1.5183   -2.4469 H   0  0  0  0  0  0  0  0  0  0  0  0
   -7.0253    0.7984   -2.2179 H   0  0  0  0  0  0  0  0  0  0  0  0
   -6.2822    2.2230   -0.3290 H   0  0  0  0  0  0  0  0  0  0  0  0
   -4.6661    1.3439    1.3312 H   0  0  0  0  0  0  0  0  0  0  0  0
   -1.7253    1.1122    1.7821 H   0  0  0  0  0  0  0  0  0  0  0  0
   -1.9851    1.0976    0.0228 H   0  0  0  0  0  0  0  0  0  0  0  0
    0.6093    0.4125    1.5207 H   0  0  0  0  0  0  0  0  0  0  0  0
    0.2898    1.8347    0.5185 H   0  0  0  0  0  0  0  0  0  0  0  0
  1  2  2  0
  2  3  1  0
  3  4  1  0
  4  5  1  0
  5  6  2  0
  6  7  1  0
  7  8  2  0
  8  9  1  0
  8 10  1  0
 10 11  2  0
  2 12  1  0
 12 13  1  0
 13 14  1  0
 14 15  1  0
 15 16  1  0
 16 17  2  0
 16 18  2  0
 16 19  1  0
 19 20  2  0
 20 21  1  0
 21 22  2  0
 22 23  1  0
 23 24  2  0
 15 25  1  0
 25 26  1  0
 11  5  1  0
 26 12  1  0
 24 19  1  0
  3 27  1  0
  3 28  1  0
  6 29  1  0
  7 30  1  0
 10 31  1  0
 11 32  1  0
 13 33  1  0
 13 34  1  0
 14 35  1  0
 14 36  1  0
 20 37  1  0
 21 38  1  0
 22 39  1  0
 23 40  1  0
 24 41  1  0
 25 42  1  0
 25 43  1  0
 26 44  1  0
 26 45  1  0
M  END
$$$$
