
     RDKit          3D

 55 57  0  0  0  0  0  0  0  0999 V2000
   -2.3679   -2.7551    1.8156 C   0  0  0  0  0  0  0  0  0  0  0  0
   -2.8904   -2.2895    0.4597 C   0  0  0  0  0  0  0  0  0  0  0  0
   -1.8344   -2.2208   -0.6810 C   0  0  0  0  0  0  0  0  0  0  0  0
   -1.1408   -3.5815   -0.8580 C   0  0  0  0  0  0  0  0  0  0  0  0
   -2.5895   -1.8632   -1.9777 C   0  0  0  0  0  0  0  0  0  0  0  0
   -0.8608   -1.1679   -0.3602 N   0  0  0  0  0  0  0  0  0  0  0  0
    0.2006   -0.7800   -1.1590 C   0  0  0  0  0  0  0  0  0  0  0  0
    0.4255   -1.2765   -2.2625 O   0  0  0  0  0  0  0  0  0  0  0  0
    1.1068    0.3353   -0.5516 C   0  0  0  0  0  0  0  0  0  0  0  0
    1.4766    1.5012   -1.4795 C   0  0  0  0  0  0  0  0  0  0  0  0
    2.6292    2.2610   -1.1885 C   0  0  0  0  0  0  0  0  0  0  0  0
    3.0174    3.3273   -2.0045 C   0  0  0  0  0  0  0  0  0  0  0  0
    2.2624    3.6577   -3.1263 C   0  0  0  0  0  0  0  0  0  0  0  0
    1.1164    2.9255   -3.4253 C   0  0  0  0  0  0  0  0  0  0  0  0
    0.7315    1.8641   -2.6066 C   0  0  0  0  0  0  0  0  0  0  0  0
   -0.4026    1.2235   -2.9183 F   0  0  0  0  0  0  0  0  0  0  0  0
    0.7786    0.7854    0.8470 N   0  0  0  0  0  0  0  0  0  0  0  0
    1.6284    0.3623    1.9093 C   0  0  0  0  0  0  0  0  0  0  0  0
    1.8659    1.0226    2.9198 O   0  0  0  0  0  0  0  0  0  0  0  0
    2.2521   -0.9813    1.8166 C   0  0  0  0  0  0  0  0  0  0  0  0
    3.4121   -1.4135    2.5172 C   0  0  0  0  0  0  0  0  0  0  0  0
    3.6058   -2.7195    2.1430 C   0  0  0  0  0  0  0  0  0  0  0  0
    2.5838   -3.0187    1.2955 N   0  0  0  0  0  0  0  0  0  0  0  0
    1.7399   -1.9943    1.0935 N   0  0  0  0  0  0  0  0  0  0  0  0
   -0.2433    1.8073    1.0382 C   0  0  0  0  0  0  0  0  0  0  0  0
   -0.2968    2.6344    2.1722 C   0  0  0  0  0  0  0  0  0  0  0  0
   -1.3008    3.5988    2.3463 C   0  0  0  0  0  0  0  0  0  0  0  0
   -2.2930    3.7603    1.3909 C   0  0  0  0  0  0  0  0  0  0  0  0
   -2.2803    2.9516    0.2653 C   0  0  0  0  0  0  0  0  0  0  0  0
   -1.2730    1.9909    0.0980 C   0  0  0  0  0  0  0  0  0  0  0  0
   -1.5593   -2.1184    2.1856 H   0  0  0  0  0  0  0  0  0  0  0  0
   -3.1764   -2.7224    2.5535 H   0  0  0  0  0  0  0  0  0  0  0  0
   -2.0070   -3.7863    1.7748 H   0  0  0  0  0  0  0  0  0  0  0  0
   -3.7032   -2.9667    0.1658 H   0  0  0  0  0  0  0  0  0  0  0  0
   -3.3437   -1.2981    0.5937 H   0  0  0  0  0  0  0  0  0  0  0  0
   -0.4917   -3.8196   -0.0085 H   0  0  0  0  0  0  0  0  0  0  0  0
   -0.5095   -3.6024   -1.7528 H   0  0  0  0  0  0  0  0  0  0  0  0
   -1.8759   -4.3879   -0.9616 H   0  0  0  0  0  0  0  0  0  0  0  0
   -1.9280   -1.8435   -2.8498 H   0  0  0  0  0  0  0  0  0  0  0  0
   -3.3796   -2.5921   -2.1902 H   0  0  0  0  0  0  0  0  0  0  0  0
   -3.0539   -0.8738   -1.9013 H   0  0  0  0  0  0  0  0  0  0  0  0
   -0.7546   -0.9138    0.6164 H   0  0  0  0  0  0  0  0  0  0  0  0
    2.0728   -0.1850   -0.4982 H   0  0  0  0  0  0  0  0  0  0  0  0
    3.2344    2.0264   -0.3146 H   0  0  0  0  0  0  0  0  0  0  0  0
    3.9084    3.9017   -1.7611 H   0  0  0  0  0  0  0  0  0  0  0  0
    2.5608    4.4870   -3.7615 H   0  0  0  0  0  0  0  0  0  0  0  0
    0.5104    3.1753   -4.2907 H   0  0  0  0  0  0  0  0  0  0  0  0
    4.0195   -0.8275    3.1950 H   0  0  0  0  0  0  0  0  0  0  0  0
    4.3605   -3.4484    2.4042 H   0  0  0  0  0  0  0  0  0  0  0  0
    2.3970   -3.8989    0.8236 H   0  0  0  0  0  0  0  0  0  0  0  0
    0.4455    2.5956    2.9612 H   0  0  0  0  0  0  0  0  0  0  0  0
   -1.2966    4.2213    3.2383 H   0  0  0  0  0  0  0  0  0  0  0  0
   -3.0713    4.5050    1.5263 H   0  0  0  0  0  0  0  0  0  0  0  0
   -3.0551    3.0549   -0.4908 H   0  0  0  0  0  0  0  0  0  0  0  0
   -1.3627    1.3702   -0.7867 H   0  0  0  0  0  0  0  0  0  0  0  0
  1  2  1  0
  2  3  1  0
  3  4  1  0
  3  5  1  0
  3  6  1  0
  6  7  1  0
  7  8  2  0
  7  9  1  0
  9 10  1  0
 10 11  2  0
 11 12  1  0
 12 13  2  0
 13 14  1  0
 14 15  2  0
 15 16  1  0
  9 17  1  0
 17 18  1  0
 18 19  2  0
 18 20  1  0
 20 21  1  0
 21 22  2  0
 22 23  1  0
 23 24  1  0
 17 25  1  0
 25 26  2  0
 26 27  1  0
 27 28  2  0
 28 29  1  0
 29 30  2  0
 15 10  1  0
 24 20  2  0
 30 25  1  0
  1 31  1  0
  1 32  1  0
  1 33  1  0
  2 34  1  0
  2 35  1  0
  4 36  1  0
  4 37  1  0
  4 38  1  0
  5 39  1  0
  5 40  1  0
  5 41  1  0
  6 42  1  0
  9 43  1  0
 11 44  1  0
 12 45  1  0
 13 46  1  0
 14 47  1  0
 21 48  1  0
 22 49  1  0
 23 50  1  0
 26 51  1  0
 27 52  1  0
 28 53  1  0
 29 54  1  0
 30 55  1  0
M  END
$$$$
