
     RDKit          3D

 49 51  0  0  0  0  0  0  0  0999 V2000
   -1.0714    2.3506    1.3165 O   0  0  0  0  0  0  0  0  0  0  0  0
   -0.6722    1.3065    0.8138 C   0  0  0  0  0  0  0  0  0  0  0  0
   -1.6032    0.3292    0.1153 C   0  0  0  0  0  0  0  0  0  0  0  0
   -3.0559    0.8102    0.1458 C   0  0  0  0  0  0  0  0  0  0  0  0
   -3.9666   -0.0123   -0.6814 N   0  0  0  0  0  0  0  0  0  0  0  0
   -5.2858    0.6428   -0.7537 C   0  0  0  0  0  0  0  0  0  0  0  0
   -6.2530   -0.1308   -1.6499 C   0  0  0  0  0  0  0  0  0  0  0  0
   -6.4008   -1.5739   -1.1866 C   0  0  0  0  0  0  0  0  0  0  0  0
   -5.0318   -2.2246   -1.0451 C   0  0  0  0  0  0  0  0  0  0  0  0
   -4.0992   -1.3852   -0.1681 C   0  0  0  0  0  0  0  0  0  0  0  0
    0.6354    0.8571    0.7921 N   0  0  0  0  0  0  0  0  0  0  0  0
    1.7901    1.4551    1.3526 C   0  0  0  0  0  0  0  0  0  0  0  0
    1.7433    2.6752    2.0378 C   0  0  0  0  0  0  0  0  0  0  0  0
    2.8963    3.2220    2.6105 C   0  0  0  0  0  0  0  0  0  0  0  0
    4.1079    2.5488    2.5102 C   0  0  0  0  0  0  0  0  0  0  0  0
    5.6575    3.2790    3.3080 Br  0  0  0  0  0  0  0  0  0  0  0  0
    4.1879    1.3392    1.8253 C   0  0  0  0  0  0  0  0  0  0  0  0
    3.0389    0.7991    1.2224 C   0  0  0  0  0  0  0  0  0  0  0  0
    3.1438   -0.4870    0.4684 C   0  0  0  0  0  0  0  0  0  0  0  0
    2.1687   -1.2341    0.3976 O   0  0  0  0  0  0  0  0  0  0  0  0
    4.3902   -0.8853   -0.2269 C   0  0  0  0  0  0  0  0  0  0  0  0
    4.7968   -2.2221   -0.1553 C   0  0  0  0  0  0  0  0  0  0  0  0
    5.9601   -2.6310   -0.8075 C   0  0  0  0  0  0  0  0  0  0  0  0
    6.7071   -1.7105   -1.5431 C   0  0  0  0  0  0  0  0  0  0  0  0
    6.2892   -0.3820   -1.6364 C   0  0  0  0  0  0  0  0  0  0  0  0
    5.1261    0.0327   -0.9855 C   0  0  0  0  0  0  0  0  0  0  0  0
   -1.2651    0.2190   -0.9214 H   0  0  0  0  0  0  0  0  0  0  0  0
   -1.5060   -0.6379    0.6207 H   0  0  0  0  0  0  0  0  0  0  0  0
   -3.0769    1.8392   -0.2360 H   0  0  0  0  0  0  0  0  0  0  0  0
   -3.4107    0.8539    1.1837 H   0  0  0  0  0  0  0  0  0  0  0  0
   -5.1772    1.6517   -1.1701 H   0  0  0  0  0  0  0  0  0  0  0  0
   -5.7203    0.7501    0.2485 H   0  0  0  0  0  0  0  0  0  0  0  0
   -7.2330    0.3591   -1.6452 H   0  0  0  0  0  0  0  0  0  0  0  0
   -5.8912   -0.1116   -2.6855 H   0  0  0  0  0  0  0  0  0  0  0  0
   -7.0145   -2.1371   -1.8979 H   0  0  0  0  0  0  0  0  0  0  0  0
   -6.9208   -1.5986   -0.2211 H   0  0  0  0  0  0  0  0  0  0  0  0
   -5.1423   -3.2262   -0.6150 H   0  0  0  0  0  0  0  0  0  0  0  0
   -4.5845   -2.3511   -2.0386 H   0  0  0  0  0  0  0  0  0  0  0  0
   -3.1267   -1.8873   -0.1652 H   0  0  0  0  0  0  0  0  0  0  0  0
   -4.4684   -1.3815    0.8648 H   0  0  0  0  0  0  0  0  0  0  0  0
    0.7919   -0.0712    0.3882 H   0  0  0  0  0  0  0  0  0  0  0  0
    0.8161    3.2289    2.1545 H   0  0  0  0  0  0  0  0  0  0  0  0
    2.8261    4.1684    3.1419 H   0  0  0  0  0  0  0  0  0  0  0  0
    5.1400    0.8180    1.7803 H   0  0  0  0  0  0  0  0  0  0  0  0
    4.2097   -2.9447    0.4074 H   0  0  0  0  0  0  0  0  0  0  0  0
    6.2796   -3.6688   -0.7489 H   0  0  0  0  0  0  0  0  0  0  0  0
    7.6112   -2.0316   -2.0554 H   0  0  0  0  0  0  0  0  0  0  0  0
    6.8649    0.3263   -2.2277 H   0  0  0  0  0  0  0  0  0  0  0  0
    4.7986    1.0638   -1.0931 H   0  0  0  0  0  0  0  0  0  0  0  0
  1  2  2  0
  2  3  1  0
  3  4  1  0
  4  5  1  0
  5  6  1  0
  6  7  1  0
  7  8  1  0
  8  9  1  0
  9 10  1  0
  2 11  1  0
 11 12  1  0
 12 13  2  0
 13 14  1  0
 14 15  2  0
 15 16  1  0
 15 17  1  0
 17 18  2  0
 18 19  1  0
 19 20  2  0
 19 21  1  0
 21 22  2  0
 22 23  1  0
 23 24  2  0
 24 25  1  0
 25 26  2  0
 10  5  1  0
 18 12  1  0
 26 21  1  0
  3 27  1  0
  3 28  1  0
  4 29  1  0
  4 30  1  0
  6 31  1  0
  6 32  1  0
  7 33  1  0
  7 34  1  0
  8 35  1  0
  8 36  1  0
  9 37  1  0
  9 38  1  0
 10 39  1  0
 10 40  1  0
 11 41  1  0
 13 42  1  0
 14 43  1  0
 17 44  1  0
 22 45  1  0
 23 46  1  0
 24 47  1  0
 25 48  1  0
 26 49  1  0
M  END
$$$$
