
     RDKit          3D

 53 56  0  0  0  0  0  0  0  0999 V2000
   -0.0596   -3.9333    0.6744 C   0  0  0  0  0  0  0  0  0  0  0  0
   -0.8073   -3.4048   -0.5217 C   0  0  0  0  0  0  0  0  0  0  0  0
   -0.5820   -3.8162   -1.6592 O   0  0  0  0  0  0  0  0  0  0  0  0
   -1.8174   -2.3490   -0.2757 C   0  0  0  0  0  0  0  0  0  0  0  0
   -1.4387   -1.0496   -0.2855 C   0  0  0  0  0  0  0  0  0  0  0  0
   -0.1743   -0.5483   -0.5987 N   0  0  0  0  0  0  0  0  0  0  0  0
    0.6470    0.1151    0.4385 C   0  0  0  0  0  0  0  0  0  0  0  0
    1.5383    1.2166   -0.1755 C   0  0  0  0  0  0  0  0  0  0  0  0
    2.3725    0.7927   -1.3224 N   0  0  0  0  0  0  0  0  0  0  0  0
    3.4808   -0.0942   -0.9269 C   0  0  0  0  0  0  0  0  0  0  0  0
    4.5207    0.5888   -0.0625 C   0  0  0  0  0  0  0  0  0  0  0  0
    4.8890    0.0434    1.1763 C   0  0  0  0  0  0  0  0  0  0  0  0
    5.8582    0.6671    1.9646 C   0  0  0  0  0  0  0  0  0  0  0  0
    6.4716    1.8379    1.5224 C   0  0  0  0  0  0  0  0  0  0  0  0
    6.1191    2.3861    0.2908 C   0  0  0  0  0  0  0  0  0  0  0  0
    5.1516    1.7637   -0.4989 C   0  0  0  0  0  0  0  0  0  0  0  0
    1.4972    0.1346   -2.3204 C   0  0  0  0  0  0  0  0  0  0  0  0
    0.6091   -1.0063   -1.7692 C   0  0  0  0  0  0  0  0  0  0  0  0
   -2.3925   -0.1148    0.0428 N   0  0  0  0  0  0  0  0  0  0  0  0
   -3.7114   -0.4272    0.2336 C   0  0  0  0  0  0  0  0  0  0  0  0
   -4.7145    0.6700    0.4121 C   0  0  0  0  0  0  0  0  0  0  0  0
   -6.0661    0.4170    0.1446 C   0  0  0  0  0  0  0  0  0  0  0  0
   -7.0151    1.4294    0.2978 C   0  0  0  0  0  0  0  0  0  0  0  0
   -6.6203    2.6963    0.7243 C   0  0  0  0  0  0  0  0  0  0  0  0
   -5.2782    2.9521    1.0040 C   0  0  0  0  0  0  0  0  0  0  0  0
   -4.3247    1.9420    0.8512 C   0  0  0  0  0  0  0  0  0  0  0  0
   -4.1314   -1.6560    0.2579 N   0  0  0  0  0  0  0  0  0  0  0  0
   -3.2334   -2.6965    0.1005 C   0  0  0  0  0  0  0  0  0  0  0  0
   -3.7656   -4.2894    0.3362 S   0  0  0  0  0  0  0  0  0  0  0  0
    1.0016   -3.6932    0.5683 H   0  0  0  0  0  0  0  0  0  0  0  0
   -0.4269   -3.4834    1.6013 H   0  0  0  0  0  0  0  0  0  0  0  0
   -0.1954   -5.0162    0.7356 H   0  0  0  0  0  0  0  0  0  0  0  0
    1.2591   -0.6387    0.9475 H   0  0  0  0  0  0  0  0  0  0  0  0
    0.0063    0.5747    1.2007 H   0  0  0  0  0  0  0  0  0  0  0  0
    2.1517    1.6702    0.6114 H   0  0  0  0  0  0  0  0  0  0  0  0
    0.8849    2.0261   -0.5287 H   0  0  0  0  0  0  0  0  0  0  0  0
    4.0092   -0.4410   -1.8252 H   0  0  0  0  0  0  0  0  0  0  0  0
    3.1145   -0.9965   -0.4233 H   0  0  0  0  0  0  0  0  0  0  0  0
    4.4266   -0.8726    1.5359 H   0  0  0  0  0  0  0  0  0  0  0  0
    6.1382    0.2376    2.9231 H   0  0  0  0  0  0  0  0  0  0  0  0
    7.2267    2.3220    2.1361 H   0  0  0  0  0  0  0  0  0  0  0  0
    6.5974    3.2980   -0.0566 H   0  0  0  0  0  0  0  0  0  0  0  0
    4.8804    2.2001   -1.4584 H   0  0  0  0  0  0  0  0  0  0  0  0
    2.0967   -0.2391   -3.1596 H   0  0  0  0  0  0  0  0  0  0  0  0
    0.8429    0.9064   -2.7478 H   0  0  0  0  0  0  0  0  0  0  0  0
   -0.0655   -1.3274   -2.5716 H   0  0  0  0  0  0  0  0  0  0  0  0
    1.2371   -1.8583   -1.4877 H   0  0  0  0  0  0  0  0  0  0  0  0
   -2.1284    0.8246   -0.2245 H   0  0  0  0  0  0  0  0  0  0  0  0
   -6.3869   -0.5685   -0.1874 H   0  0  0  0  0  0  0  0  0  0  0  0
   -8.0621    1.2262    0.0865 H   0  0  0  0  0  0  0  0  0  0  0  0
   -7.3613    3.4826    0.8462 H   0  0  0  0  0  0  0  0  0  0  0  0
   -4.9767    3.9381    1.3497 H   0  0  0  0  0  0  0  0  0  0  0  0
   -3.2925    2.1610    1.1050 H   0  0  0  0  0  0  0  0  0  0  0  0
  1  2  1  0
  2  3  2  0
  2  4  1  0
  4  5  2  0
  5  6  1  0
  6  7  1  0
  7  8  1  0
  8  9  1  0
  9 10  1  0
 10 11  1  0
 11 12  2  0
 12 13  1  0
 13 14  2  0
 14 15  1  0
 15 16  2  0
  9 17  1  0
 17 18  1  0
  5 19  1  0
 19 20  1  0
 20 21  1  0
 21 22  2  0
 22 23  1  0
 23 24  2  0
 24 25  1  0
 25 26  2  0
 20 27  2  0
 27 28  1  0
 28 29  2  0
 28  4  1  0
 18  6  1  0
 26 21  1  0
 16 11  1  0
  1 30  1  0
  1 31  1  0
  1 32  1  0
  7 33  1  0
  7 34  1  0
  8 35  1  0
  8 36  1  0
 10 37  1  0
 10 38  1  0
 12 39  1  0
 13 40  1  0
 14 41  1  0
 15 42  1  0
 16 43  1  0
 17 44  1  0
 17 45  1  0
 18 46  1  0
 18 47  1  0
 19 48  1  0
 22 49  1  0
 23 50  1  0
 24 51  1  0
 25 52  1  0
 26 53  1  0
M  END
$$$$
