
     RDKit          3D

 42 46  0  0  0  0  0  0  0  0999 V2000
   -2.1214    0.8616   -1.6026 O   0  0  0  0  0  0  0  0  0  0  0  0
   -2.0943   -0.1274   -0.8697 C   0  0  0  0  0  0  0  0  0  0  0  0
   -3.3932   -0.7215   -0.4606 C   0  0  0  0  0  0  0  0  0  0  0  0
   -4.4512    0.1503   -0.1815 C   0  0  0  0  0  0  0  0  0  0  0  0
   -5.6987   -0.3607    0.1761 C   0  0  0  0  0  0  0  0  0  0  0  0
   -5.8926   -1.7429    0.2553 C   0  0  0  0  0  0  0  0  0  0  0  0
   -4.8450   -2.6100   -0.0294 C   0  0  0  0  0  0  0  0  0  0  0  0
   -3.5928   -2.1054   -0.3945 C   0  0  0  0  0  0  0  0  0  0  0  0
   -0.8045   -0.7503   -0.2836 C   0  0  0  0  0  0  0  0  0  0  0  0
   -0.7128   -0.5095    1.1255 O   0  0  0  0  0  0  0  0  0  0  0  0
   -0.2315    0.7246    1.4712 C   0  0  0  0  0  0  0  0  0  0  0  0
   -0.4884    1.1354    2.7793 C   0  0  0  0  0  0  0  0  0  0  0  0
   -0.0600    2.3876    3.2170 C   0  0  0  0  0  0  0  0  0  0  0  0
    0.6248    3.2254    2.3431 C   0  0  0  0  0  0  0  0  0  0  0  0
    0.9093    2.8032    1.0432 C   0  0  0  0  0  0  0  0  0  0  0  0
    0.5027    1.5368    0.6001 C   0  0  0  0  0  0  0  0  0  0  0  0
    0.8149    1.0640   -0.7978 C   0  0  0  0  0  0  0  0  0  0  0  0
    2.2979    1.0370   -1.1503 C   0  0  0  0  0  0  0  0  0  0  0  0
    2.5682   -0.4395   -1.0351 C   0  0  0  0  0  0  0  0  0  0  0  0
    3.9182   -0.9565   -1.0737 C   0  0  0  0  0  0  0  0  0  0  0  0
    5.1069   -0.2540   -1.1720 C   0  0  0  0  0  0  0  0  0  0  0  0
    6.2483   -1.1081   -1.2019 C   0  0  0  0  0  0  0  0  0  0  0  0
    5.8972   -2.4384   -1.1257 C   0  0  0  0  0  0  0  0  0  0  0  0
    4.2061   -2.6485   -1.0033 S   0  0  0  0  0  0  0  0  0  0  0  0
    1.5042   -1.1823   -0.9377 N   0  0  0  0  0  0  0  0  0  0  0  0
    0.4146   -0.3262   -0.9616 N   0  0  0  0  0  0  0  0  0  0  0  0
   -4.3007    1.2300   -0.2370 H   0  0  0  0  0  0  0  0  0  0  0  0
   -6.5233    0.3200    0.3837 H   0  0  0  0  0  0  0  0  0  0  0  0
   -6.8671   -2.1396    0.5285 H   0  0  0  0  0  0  0  0  0  0  0  0
   -5.0092   -3.6879    0.0205 H   0  0  0  0  0  0  0  0  0  0  0  0
   -2.8050   -2.8091   -0.6455 H   0  0  0  0  0  0  0  0  0  0  0  0
   -0.8610   -1.8353   -0.4331 H   0  0  0  0  0  0  0  0  0  0  0  0
   -1.0296    0.4861    3.4569 H   0  0  0  0  0  0  0  0  0  0  0  0
   -0.2751    2.7119    4.2334 H   0  0  0  0  0  0  0  0  0  0  0  0
    0.9399    4.2096    2.6714 H   0  0  0  0  0  0  0  0  0  0  0  0
    1.4472    3.4704    0.3747 H   0  0  0  0  0  0  0  0  0  0  0  0
    0.2594    1.6825   -1.5124 H   0  0  0  0  0  0  0  0  0  0  0  0
    2.9455    1.6252   -0.4964 H   0  0  0  0  0  0  0  0  0  0  0  0
    2.4625    1.3299   -2.1940 H   0  0  0  0  0  0  0  0  0  0  0  0
    5.1687    0.8250   -1.2370 H   0  0  0  0  0  0  0  0  0  0  0  0
    7.2726   -0.7624   -1.2904 H   0  0  0  0  0  0  0  0  0  0  0  0
    6.5482   -3.3009   -1.1322 H   0  0  0  0  0  0  0  0  0  0  0  0
  1  2  2  0
  2  3  1  0
  3  4  2  0
  4  5  1  0
  5  6  2  0
  6  7  1  0
  7  8  2  0
  2  9  1  0
  9 10  1  0
 10 11  1  0
 11 12  2  0
 12 13  1  0
 13 14  2  0
 14 15  1  0
 15 16  2  0
 16 17  1  0
 17 18  1  0
 18 19  1  0
 19 20  1  0
 20 21  2  0
 21 22  1  0
 22 23  2  0
 23 24  1  0
 19 25  2  0
 25 26  1  0
  8  3  1  0
 26  9  1  0
 16 11  1  0
 26 17  1  0
 24 20  1  0
  4 27  1  0
  5 28  1  0
  6 29  1  0
  7 30  1  0
  8 31  1  0
  9 32  1  0
 12 33  1  0
 13 34  1  0
 14 35  1  0
 15 36  1  0
 17 37  1  0
 18 38  1  0
 18 39  1  0
 21 40  1  0
 22 41  1  0
 23 42  1  0
M  END
$$$$
