
     RDKit          3D

 67 72  0  0  0  0  0  0  0  0999 V2000
    7.1332   -0.5008    0.7744 C   0  0  0  0  0  0  0  0  0  0  0  0
    6.2134    0.7240    0.6528 C   0  0  0  0  0  0  0  0  0  0  0  0
    6.1496    1.4238    2.0148 C   0  0  0  0  0  0  0  0  0  0  0  0
    6.7674    1.6437   -0.4408 C   0  0  0  0  0  0  0  0  0  0  0  0
    4.9234    0.1761    0.2796 O   0  0  0  0  0  0  0  0  0  0  0  0
    3.8500    0.9826    0.0799 C   0  0  0  0  0  0  0  0  0  0  0  0
    3.8676    2.2017    0.1925 O   0  0  0  0  0  0  0  0  0  0  0  0
    2.7184    0.2670   -0.2731 N   0  0  0  0  0  0  0  0  0  0  0  0
    2.6582   -1.2022   -0.1424 C   0  0  0  0  0  0  0  0  0  0  0  0
    1.5198   -1.8657   -0.9616 C   0  0  0  0  0  0  0  0  0  0  0  0
    0.2840   -1.1344   -0.7417 N   0  0  0  0  0  0  0  0  0  0  0  0
    0.4332    0.2868   -1.1956 C   0  0  2  0  0  0  0  0  0  0  0  0
    1.4306    0.9833   -0.2788 C   0  0  0  0  0  0  0  0  0  0  0  0
   -0.9799    0.7177   -1.1801 C   0  0  0  0  0  0  0  0  0  0  0  0
   -1.8237   -0.4139   -1.2444 C   0  0  0  0  0  0  0  0  0  0  0  0
   -3.1237    0.0204   -1.2577 C   0  0  0  0  0  0  0  0  0  0  0  0
   -4.2809   -0.6284   -1.3028 O   0  0  0  0  0  0  0  0  0  0  0  0
   -3.0738    1.4062   -1.1891 N   0  0  0  0  0  0  0  0  0  0  0  0
   -4.2405    2.2802   -1.1811 C   0  0  0  0  0  0  0  0  0  0  0  0
   -4.7170    2.5646    0.2230 C   0  0  0  0  0  0  0  0  0  0  0  0
   -5.6658    1.7339    0.8368 C   0  0  0  0  0  0  0  0  0  0  0  0
   -6.0991    1.9924    2.1383 C   0  0  0  0  0  0  0  0  0  0  0  0
   -5.5856    3.0804    2.8416 C   0  0  0  0  0  0  0  0  0  0  0  0
   -4.6360    3.9084    2.2461 C   0  0  0  0  0  0  0  0  0  0  0  0
   -4.2019    3.6511    0.9448 C   0  0  0  0  0  0  0  0  0  0  0  0
   -1.7560    1.8437   -1.1751 C   0  0  0  0  0  0  0  0  0  0  0  0
   -1.4576    3.1363   -1.1644 O   0  0  0  0  0  0  0  0  0  0  0  0
   -1.0001   -1.6524   -1.2640 C   0  0  1  0  0  0  0  0  0  0  0  0
   -0.9219   -2.3165   -2.6672 C   0  0  0  0  0  0  0  0  0  0  0  0
   -0.4230   -1.8815   -3.6944 O   0  0  0  0  0  0  0  0  0  0  0  0
   -1.5281   -3.5711   -2.5464 N   0  0  0  0  0  0  0  0  0  0  0  0
   -1.9592   -3.8024   -1.2462 C   0  0  0  0  0  0  0  0  0  0  0  0
   -2.5869   -4.9336   -0.7698 C   0  0  0  0  0  0  0  0  0  0  0  0
   -2.9317   -4.9537    0.5839 C   0  0  0  0  0  0  0  0  0  0  0  0
   -2.6415   -3.8585    1.4186 C   0  0  0  0  0  0  0  0  0  0  0  0
   -2.0027   -2.7225    0.9139 C   0  0  0  0  0  0  0  0  0  0  0  0
   -1.6693   -2.7035   -0.4311 C   0  0  0  0  0  0  0  0  0  0  0  0
    8.1527   -0.2184    1.0573 H   0  0  0  0  0  0  0  0  0  0  0  0
    6.7484   -1.2040    1.5223 H   0  0  0  0  0  0  0  0  0  0  0  0
    7.1766   -1.0510   -0.1729 H   0  0  0  0  0  0  0  0  0  0  0  0
    5.6705    0.7794    2.7607 H   0  0  0  0  0  0  0  0  0  0  0  0
    5.5628    2.3464    1.9743 H   0  0  0  0  0  0  0  0  0  0  0  0
    7.1500    1.6885    2.3741 H   0  0  0  0  0  0  0  0  0  0  0  0
    7.8080    1.9202   -0.2393 H   0  0  0  0  0  0  0  0  0  0  0  0
    6.7201    1.1548   -1.4203 H   0  0  0  0  0  0  0  0  0  0  0  0
    6.1940    2.5716   -0.5254 H   0  0  0  0  0  0  0  0  0  0  0  0
    3.6152   -1.6437   -0.4400 H   0  0  0  0  0  0  0  0  0  0  0  0
    2.5167   -1.4132    0.9252 H   0  0  0  0  0  0  0  0  0  0  0  0
    1.7952   -1.8694   -2.0230 H   0  0  0  0  0  0  0  0  0  0  0  0
    1.4209   -2.9084   -0.6400 H   0  0  0  0  0  0  0  0  0  0  0  0
    0.7973    0.3158   -2.2327 H   0  0  0  0  0  0  0  0  0  0  0  0
    1.0710    1.0186    0.7578 H   0  0  0  0  0  0  0  0  0  0  0  0
    1.5807    2.0196   -0.6017 H   0  0  0  0  0  0  0  0  0  0  0  0
   -4.0857   -1.5799   -1.2295 H   0  0  0  0  0  0  0  0  0  0  0  0
   -3.9805    3.2089   -1.7023 H   0  0  0  0  0  0  0  0  0  0  0  0
   -5.0301    1.8057   -1.7756 H   0  0  0  0  0  0  0  0  0  0  0  0
   -6.0660    0.8745    0.3024 H   0  0  0  0  0  0  0  0  0  0  0  0
   -6.8339    1.3414    2.6039 H   0  0  0  0  0  0  0  0  0  0  0  0
   -5.9210    3.2800    3.8557 H   0  0  0  0  0  0  0  0  0  0  0  0
   -4.2286    4.7527    2.7957 H   0  0  0  0  0  0  0  0  0  0  0  0
   -3.4512    4.2985    0.4956 H   0  0  0  0  0  0  0  0  0  0  0  0
   -0.4884    3.2197   -1.1777 H   0  0  0  0  0  0  0  0  0  0  0  0
   -1.6067   -4.2138   -3.3203 H   0  0  0  0  0  0  0  0  0  0  0  0
   -2.8069   -5.7798   -1.4107 H   0  0  0  0  0  0  0  0  0  0  0  0
   -3.4280   -5.8271    1.0021 H   0  0  0  0  0  0  0  0  0  0  0  0
   -2.9171   -3.8964    2.4708 H   0  0  0  0  0  0  0  0  0  0  0  0
   -1.7792   -1.8746    1.5557 H   0  0  0  0  0  0  0  0  0  0  0  0
  1  2  1  0
  2  3  1  0
  2  4  1  0
  2  5  1  0
  5  6  1  0
  6  7  2  0
  6  8  1  0
  8  9  1  0
  9 10  1  0
 10 11  1  0
 11 12  1  0
 12 13  1  0
 12 14  1  0
 14 15  1  0
 15 16  2  0
 16 17  1  0
 16 18  1  0
 18 19  1  0
 19 20  1  0
 20 21  2  0
 21 22  1  0
 22 23  2  0
 23 24  1  0
 24 25  2  0
 18 26  1  0
 26 27  1  0
 15 28  1  0
 28 29  1  0
 29 30  2  0
 29 31  1  0
 31 32  1  0
 32 33  2  0
 33 34  1  0
 34 35  2  0
 35 36  1  0
 36 37  2  0
 13  8  1  0
 26 14  2  0
 37 28  1  0
 28 11  1  1
 37 32  1  0
 25 20  1  0
  1 38  1  0
  1 39  1  0
  1 40  1  0
  3 41  1  0
  3 42  1  0
  3 43  1  0
  4 44  1  0
  4 45  1  0
  4 46  1  0
  9 47  1  0
  9 48  1  0
 10 49  1  0
 10 50  1  0
 12 51  1  6
 13 52  1  0
 13 53  1  0
 17 54  1  0
 19 55  1  0
 19 56  1  0
 21 57  1  0
 22 58  1  0
 23 59  1  0
 24 60  1  0
 25 61  1  0
 27 62  1  0
 31 63  1  0
 33 64  1  0
 34 65  1  0
 35 66  1  0
 36 67  1  0
M  END
$$$$
