
     RDKit          3D

 41 42  0  0  0  0  0  0  0  0999 V2000
   -3.3010    0.0773   -2.6734 C   0  0  0  0  0  0  0  0  0  0  0  0
   -3.1615   -1.2154   -2.0813 O   0  0  0  0  0  0  0  0  0  0  0  0
   -2.6856   -1.1160   -0.8001 C   0  0  0  0  0  0  0  0  0  0  0  0
   -3.5140   -0.6117    0.2070 C   0  0  0  0  0  0  0  0  0  0  0  0
   -3.0531   -0.5442    1.5203 C   0  0  0  0  0  0  0  0  0  0  0  0
   -1.7732   -0.9974    1.8294 C   0  0  0  0  0  0  0  0  0  0  0  0
   -0.9555   -1.5229    0.8264 C   0  0  0  0  0  0  0  0  0  0  0  0
   -1.3996   -1.5895   -0.5064 C   0  0  0  0  0  0  0  0  0  0  0  0
   -0.4983   -2.1576   -1.5760 C   0  0  0  0  0  0  0  0  0  0  0  0
    0.7349   -1.4085   -1.6835 N   0  0  0  0  0  0  0  0  0  0  0  0
    0.8417   -0.2959   -2.4912 C   0  0  0  0  0  0  0  0  0  0  0  0
    0.0223    0.0209   -3.3488 O   0  0  0  0  0  0  0  0  0  0  0  0
    2.1209    0.5114   -2.2514 C   0  0  0  0  0  0  0  0  0  0  0  0
    2.6145    0.4477   -0.9195 O   0  0  0  0  0  0  0  0  0  0  0  0
    1.9041    1.0740    0.0767 C   0  0  0  0  0  0  0  0  0  0  0  0
    0.8441    1.9610   -0.1378 C   0  0  0  0  0  0  0  0  0  0  0  0
    0.1791    2.5377    0.9459 C   0  0  0  0  0  0  0  0  0  0  0  0
    0.5700    2.2370    2.2469 C   0  0  0  0  0  0  0  0  0  0  0  0
    1.6274    1.3547    2.4731 C   0  0  0  0  0  0  0  0  0  0  0  0
    2.3007    0.7695    1.3953 C   0  0  0  0  0  0  0  0  0  0  0  0
    3.3279   -0.1339    1.5213 O   0  0  0  0  0  0  0  0  0  0  0  0
    3.8853   -0.3091    2.8166 C   0  0  0  0  0  0  0  0  0  0  0  0
   -3.3345   -0.0534   -3.7591 H   0  0  0  0  0  0  0  0  0  0  0  0
   -4.2422    0.5393   -2.3582 H   0  0  0  0  0  0  0  0  0  0  0  0
   -2.4584    0.7364   -2.4353 H   0  0  0  0  0  0  0  0  0  0  0  0
   -4.5221   -0.2830   -0.0278 H   0  0  0  0  0  0  0  0  0  0  0  0
   -3.6948   -0.1477    2.3021 H   0  0  0  0  0  0  0  0  0  0  0  0
   -1.4099   -0.9466    2.8524 H   0  0  0  0  0  0  0  0  0  0  0  0
    0.0381   -1.8769    1.0920 H   0  0  0  0  0  0  0  0  0  0  0  0
   -0.9836   -2.1878   -2.5564 H   0  0  0  0  0  0  0  0  0  0  0  0
   -0.2338   -3.1872   -1.3104 H   0  0  0  0  0  0  0  0  0  0  0  0
    1.3814   -1.4497   -0.9026 H   0  0  0  0  0  0  0  0  0  0  0  0
    2.8904    0.0764   -2.8995 H   0  0  0  0  0  0  0  0  0  0  0  0
    1.9876    1.5488   -2.5767 H   0  0  0  0  0  0  0  0  0  0  0  0
    0.5013    2.2252   -1.1327 H   0  0  0  0  0  0  0  0  0  0  0  0
   -0.6497    3.2194    0.7709 H   0  0  0  0  0  0  0  0  0  0  0  0
    0.0464    2.6855    3.0874 H   0  0  0  0  0  0  0  0  0  0  0  0
    1.8940    1.1366    3.5015 H   0  0  0  0  0  0  0  0  0  0  0  0
    3.1693   -0.7931    3.4886 H   0  0  0  0  0  0  0  0  0  0  0  0
    4.2388    0.6410    3.2311 H   0  0  0  0  0  0  0  0  0  0  0  0
    4.7505   -0.9722    2.7211 H   0  0  0  0  0  0  0  0  0  0  0  0
  1  2  1  0
  2  3  1  0
  3  4  2  0
  4  5  1  0
  5  6  2  0
  6  7  1  0
  7  8  2  0
  8  9  1  0
  9 10  1  0
 10 11  1  0
 11 12  2  0
 11 13  1  0
 13 14  1  0
 14 15  1  0
 15 16  2  0
 16 17  1  0
 17 18  2  0
 18 19  1  0
 19 20  2  0
 20 21  1  0
 21 22  1  0
  8  3  1  0
 20 15  1  0
  1 23  1  0
  1 24  1  0
  1 25  1  0
  4 26  1  0
  5 27  1  0
  6 28  1  0
  7 29  1  0
  9 30  1  0
  9 31  1  0
 10 32  1  0
 13 33  1  0
 13 34  1  0
 16 35  1  0
 17 36  1  0
 18 37  1  0
 19 38  1  0
 22 39  1  0
 22 40  1  0
 22 41  1  0
M  END
$$$$
