
     RDKit          3D

 37 39  0  0  0  0  0  0  0  0999 V2000
   -4.1437   -2.5706   -0.5931 C   0  0  0  0  0  0  0  0  0  0  0  0
   -4.2915   -1.5125   -1.5333 O   0  0  0  0  0  0  0  0  0  0  0  0
   -3.2280   -0.6555   -1.6722 C   0  0  0  0  0  0  0  0  0  0  0  0
   -2.0131   -0.7400   -0.9936 C   0  0  0  0  0  0  0  0  0  0  0  0
   -1.0059    0.2098   -1.2269 C   0  0  0  0  0  0  0  0  0  0  0  0
    0.2983    0.1321   -0.5490 C   0  0  0  0  0  0  0  0  0  0  0  0
    0.4213   -0.0926    0.7696 C   0  0  0  0  0  0  0  0  0  0  0  0
    1.6558   -0.1760    1.4841 C   0  0  0  0  0  0  0  0  0  0  0  0
    1.7210   -0.4319    2.7770 N   0  0  0  0  0  0  0  0  0  0  0  0
    3.0323   -0.4555    3.2189 C   0  0  0  0  0  0  0  0  0  0  0  0
    3.4556   -0.6985    4.5414 C   0  0  0  0  0  0  0  0  0  0  0  0
    4.8206   -0.6926    4.8470 C   0  0  0  0  0  0  0  0  0  0  0  0
    5.7632   -0.4483    3.8533 C   0  0  0  0  0  0  0  0  0  0  0  0
    5.3672   -0.2045    2.5344 C   0  0  0  0  0  0  0  0  0  0  0  0
    3.9933   -0.2131    2.2406 C   0  0  0  0  0  0  0  0  0  0  0  0
    3.2025    0.0482    0.7395 S   0  0  0  0  0  0  0  0  0  0  0  0
   -1.2165    1.2329   -2.1664 C   0  0  0  0  0  0  0  0  0  0  0  0
   -2.4282    1.3328   -2.8548 C   0  0  0  0  0  0  0  0  0  0  0  0
   -2.7329    2.2944   -3.7808 O   0  0  0  0  0  0  0  0  0  0  0  0
   -1.7583    3.2950   -4.0353 C   0  0  0  0  0  0  0  0  0  0  0  0
   -3.4218    0.3822   -2.5953 C   0  0  0  0  0  0  0  0  0  0  0  0
   -4.6231    0.4564   -3.2604 O   0  0  0  0  0  0  0  0  0  0  0  0
   -3.3326   -3.2459   -0.8846 H   0  0  0  0  0  0  0  0  0  0  0  0
   -3.9922   -2.1813    0.4191 H   0  0  0  0  0  0  0  0  0  0  0  0
   -5.0732   -3.1480   -0.5921 H   0  0  0  0  0  0  0  0  0  0  0  0
   -1.8231   -1.5423   -0.2883 H   0  0  0  0  0  0  0  0  0  0  0  0
    1.1577    0.2903   -1.1948 H   0  0  0  0  0  0  0  0  0  0  0  0
   -0.4661   -0.2199    1.3845 H   0  0  0  0  0  0  0  0  0  0  0  0
    2.7161   -0.8882    5.3129 H   0  0  0  0  0  0  0  0  0  0  0  0
    5.1433   -0.8803    5.8684 H   0  0  0  0  0  0  0  0  0  0  0  0
    6.8221   -0.4463    4.1038 H   0  0  0  0  0  0  0  0  0  0  0  0
    6.1035   -0.0138    1.7596 H   0  0  0  0  0  0  0  0  0  0  0  0
   -0.4190    1.9487   -2.3395 H   0  0  0  0  0  0  0  0  0  0  0  0
   -2.1718    3.9841   -4.7780 H   0  0  0  0  0  0  0  0  0  0  0  0
   -0.8467    2.8595   -4.4575 H   0  0  0  0  0  0  0  0  0  0  0  0
   -1.5390    3.8730   -3.1314 H   0  0  0  0  0  0  0  0  0  0  0  0
   -5.1472   -0.2957   -2.9270 H   0  0  0  0  0  0  0  0  0  0  0  0
  1  2  1  0
  2  3  1  0
  3  4  2  0
  4  5  1  0
  5  6  1  0
  6  7  2  3
  7  8  1  0
  8  9  2  0
  9 10  1  0
 10 11  2  0
 11 12  1  0
 12 13  2  0
 13 14  1  0
 14 15  2  0
 15 16  1  0
  5 17  2  0
 17 18  1  0
 18 19  1  0
 19 20  1  0
 18 21  2  0
 21 22  1  0
 21  3  1  0
 16  8  1  0
 15 10  1  0
  1 23  1  0
  1 24  1  0
  1 25  1  0
  4 26  1  0
  6 27  1  0
  7 28  1  0
 11 29  1  0
 12 30  1  0
 13 31  1  0
 14 32  1  0
 17 33  1  0
 20 34  1  0
 20 35  1  0
 20 36  1  0
 22 37  1  0
M  END
$$$$
