
     RDKit          3D

 37 39  0  0  0  0  0  0  0  0999 V2000
   -2.9472    1.9559   -1.4249 O   0  0  0  0  0  0  0  0  0  0  0  0
   -2.0656    1.6686   -2.2187 C   0  0  0  0  0  0  0  0  0  0  0  0
   -1.6057    2.5928   -3.0881 O   0  0  0  0  0  0  0  0  0  0  0  0
   -1.4025    0.3329   -2.3789 C   0  0  0  0  0  0  0  0  0  0  0  0
   -0.5521   -0.0770   -1.1687 C   0  0  0  0  0  0  0  0  0  0  0  0
   -1.3198   -0.2398    0.1393 C   0  0  0  0  0  0  0  0  0  0  0  0
   -2.4177   -1.1179    0.2047 C   0  0  0  0  0  0  0  0  0  0  0  0
   -3.1136   -1.3090    1.3994 C   0  0  0  0  0  0  0  0  0  0  0  0
   -2.7169   -0.6378    2.5514 C   0  0  0  0  0  0  0  0  0  0  0  0
   -1.6225    0.2240    2.5110 C   0  0  0  0  0  0  0  0  0  0  0  0
   -0.9248    0.4356    1.3114 C   0  0  0  0  0  0  0  0  0  0  0  0
    0.2755    1.3465    1.3110 C   0  0  0  0  0  0  0  0  0  0  0  0
    0.5758    1.8887   -0.0780 C   0  0  0  0  0  0  0  0  0  0  0  0
    0.6373    0.8079   -1.0786 N   0  0  0  0  0  0  0  0  0  0  0  0
    2.1353    0.2146   -1.5722 S   0  0  0  0  0  6  0  0  0  0  0  0
    1.9134   -0.6614   -2.7034 O   0  0  0  0  0  0  0  0  0  0  0  0
    3.0477    1.3361   -1.6447 O   0  0  0  0  0  0  0  0  0  0  0  0
    2.7714   -0.8656   -0.2999 C   0  0  0  0  0  0  0  0  0  0  0  0
    2.1629   -1.7174    0.6057 C   0  0  0  0  0  0  0  0  0  0  0  0
    3.1010   -2.3994    1.4347 C   0  0  0  0  0  0  0  0  0  0  0  0
    4.3994   -2.0659    1.1210 C   0  0  0  0  0  0  0  0  0  0  0  0
    4.4801   -0.9464   -0.1692 S   0  0  0  0  0  0  0  0  0  0  0  0
   -2.1282    3.3972   -2.8900 H   0  0  0  0  0  0  0  0  0  0  0  0
   -2.1950   -0.3964   -2.5839 H   0  0  0  0  0  0  0  0  0  0  0  0
   -0.7783    0.3566   -3.2815 H   0  0  0  0  0  0  0  0  0  0  0  0
   -0.1926   -1.0920   -1.3862 H   0  0  0  0  0  0  0  0  0  0  0  0
   -2.7430   -1.6676   -0.6761 H   0  0  0  0  0  0  0  0  0  0  0  0
   -3.9688   -1.9807    1.4299 H   0  0  0  0  0  0  0  0  0  0  0  0
   -3.2604   -0.7850    3.4825 H   0  0  0  0  0  0  0  0  0  0  0  0
   -1.3192    0.7366    3.4219 H   0  0  0  0  0  0  0  0  0  0  0  0
    1.1371    0.7911    1.6976 H   0  0  0  0  0  0  0  0  0  0  0  0
    0.1021    2.1931    1.9863 H   0  0  0  0  0  0  0  0  0  0  0  0
    1.5038    2.4685   -0.0544 H   0  0  0  0  0  0  0  0  0  0  0  0
   -0.2037    2.5970   -0.3828 H   0  0  0  0  0  0  0  0  0  0  0  0
    1.0908   -1.8462    0.6804 H   0  0  0  0  0  0  0  0  0  0  0  0
    2.8353   -3.1032    2.2145 H   0  0  0  0  0  0  0  0  0  0  0  0
    5.3086   -2.4351    1.5771 H   0  0  0  0  0  0  0  0  0  0  0  0
  1  2  2  0
  2  3  1  0
  2  4  1  0
  4  5  1  0
  5  6  1  0
  6  7  2  0
  7  8  1  0
  8  9  2  0
  9 10  1  0
 10 11  2  0
 11 12  1  0
 12 13  1  0
 13 14  1  0
 14 15  1  0
 15 16  2  0
 15 17  2  0
 15 18  1  0
 18 19  2  0
 19 20  1  0
 20 21  2  0
 21 22  1  0
 14  5  1  0
 22 18  1  0
 11  6  1  0
  3 23  1  0
  4 24  1  0
  4 25  1  0
  5 26  1  0
  7 27  1  0
  8 28  1  0
  9 29  1  0
 10 30  1  0
 12 31  1  0
 12 32  1  0
 13 33  1  0
 13 34  1  0
 19 35  1  0
 20 36  1  0
 21 37  1  0
M  END
$$$$
