
     RDKit          3D

 57 60  0  0  0  0  0  0  0  0999 V2000
    6.1473    2.9533    1.0262 C   0  0  0  0  0  0  0  0  0  0  0  0
    4.9012    2.3014    0.8193 O   0  0  0  0  0  0  0  0  0  0  0  0
    4.9301    1.0012    0.3843 C   0  0  0  0  0  0  0  0  0  0  0  0
    6.0945    0.3007    0.0550 C   0  0  0  0  0  0  0  0  0  0  0  0
    6.0251   -1.0298   -0.3628 C   0  0  0  0  0  0  0  0  0  0  0  0
    4.7927   -1.6769   -0.4401 C   0  0  0  0  0  0  0  0  0  0  0  0
    3.6118   -0.9996   -0.1057 C   0  0  0  0  0  0  0  0  0  0  0  0
    2.3375   -1.7726   -0.1979 C   0  0  0  0  0  0  0  0  0  0  0  0
    2.2730   -2.7678   -0.9122 O   0  0  0  0  0  0  0  0  0  0  0  0
    1.2796   -1.3172    0.5529 N   0  0  0  0  0  0  0  0  0  0  0  0
   -0.0652   -1.8331    0.3995 C   0  0  0  0  0  0  0  0  0  0  0  0
   -0.7642   -1.8888    1.7776 C   0  0  0  0  0  0  0  0  0  0  0  0
   -2.3185   -1.9358    1.6993 C   0  0  0  0  0  0  0  0  0  0  0  0
   -2.7885   -3.2277    1.0001 C   0  0  0  0  0  0  0  0  0  0  0  0
   -2.8876   -1.9372    3.1309 C   0  0  0  0  0  0  0  0  0  0  0  0
   -2.8602   -0.6781    0.9474 C   0  0  0  0  0  0  0  0  0  0  0  0
   -2.0550   -0.3897   -0.2765 C   0  0  0  0  0  0  0  0  0  0  0  0
   -0.8061   -0.9297   -0.5292 C   0  0  0  0  0  0  0  0  0  0  0  0
   -0.5016   -0.5222   -1.8322 C   0  0  0  0  0  0  0  0  0  0  0  0
   -1.4415    0.2652   -2.3490 N   0  0  0  0  0  0  0  0  0  0  0  0
   -2.3891    0.3925   -1.3746 N   0  0  0  0  0  0  0  0  0  0  0  0
   -3.5032    1.2563   -1.6116 C   0  0  0  0  0  0  0  0  0  0  0  0
   -4.3865    1.6528   -0.5986 C   0  0  0  0  0  0  0  0  0  0  0  0
   -5.4623    2.5044   -0.8845 C   0  0  0  0  0  0  0  0  0  0  0  0
   -5.6608    2.9725   -2.1803 C   0  0  0  0  0  0  0  0  0  0  0  0
   -4.7780    2.5942   -3.1819 C   0  0  0  0  0  0  0  0  0  0  0  0
   -4.9638    3.0497   -4.4278 F   0  0  0  0  0  0  0  0  0  0  0  0
   -3.7055    1.7507   -2.9124 C   0  0  0  0  0  0  0  0  0  0  0  0
    3.6837    0.3530    0.2724 C   0  0  0  0  0  0  0  0  0  0  0  0
    2.5287    1.0379    0.5856 O   0  0  0  0  0  0  0  0  0  0  0  0
    2.1454    1.8891   -0.5008 C   0  0  0  0  0  0  0  0  0  0  0  0
    6.7495    2.4289    1.7756 H   0  0  0  0  0  0  0  0  0  0  0  0
    6.6941    3.0645    0.0842 H   0  0  0  0  0  0  0  0  0  0  0  0
    5.9396    3.9568    1.4099 H   0  0  0  0  0  0  0  0  0  0  0  0
    7.0756    0.7612    0.1112 H   0  0  0  0  0  0  0  0  0  0  0  0
    6.9346   -1.5674   -0.6214 H   0  0  0  0  0  0  0  0  0  0  0  0
    4.7550   -2.7184   -0.7561 H   0  0  0  0  0  0  0  0  0  0  0  0
    1.3853   -0.4090    0.9953 H   0  0  0  0  0  0  0  0  0  0  0  0
   -0.0299   -2.8397   -0.0335 H   0  0  0  0  0  0  0  0  0  0  0  0
   -0.3798   -2.7518    2.3375 H   0  0  0  0  0  0  0  0  0  0  0  0
   -0.4779   -1.0040    2.3658 H   0  0  0  0  0  0  0  0  0  0  0  0
   -3.8821   -3.3004    1.0061 H   0  0  0  0  0  0  0  0  0  0  0  0
   -2.3953   -4.1138    1.5110 H   0  0  0  0  0  0  0  0  0  0  0  0
   -2.4667   -3.2789   -0.0446 H   0  0  0  0  0  0  0  0  0  0  0  0
   -2.5462   -2.8147    3.6915 H   0  0  0  0  0  0  0  0  0  0  0  0
   -2.5720   -1.0461    3.6850 H   0  0  0  0  0  0  0  0  0  0  0  0
   -3.9833   -1.9517    3.1204 H   0  0  0  0  0  0  0  0  0  0  0  0
   -3.9141   -0.8390    0.6943 H   0  0  0  0  0  0  0  0  0  0  0  0
   -2.7924    0.1919    1.6125 H   0  0  0  0  0  0  0  0  0  0  0  0
    0.3660   -0.7727   -2.4306 H   0  0  0  0  0  0  0  0  0  0  0  0
   -4.2610    1.3566    0.4344 H   0  0  0  0  0  0  0  0  0  0  0  0
   -6.1395    2.8091   -0.0898 H   0  0  0  0  0  0  0  0  0  0  0  0
   -6.4891    3.6333   -2.4146 H   0  0  0  0  0  0  0  0  0  0  0  0
   -3.0456    1.4829   -3.7342 H   0  0  0  0  0  0  0  0  0  0  0  0
    1.1154    2.2117   -0.3208 H   0  0  0  0  0  0  0  0  0  0  0  0
    2.1711    1.3594   -1.4599 H   0  0  0  0  0  0  0  0  0  0  0  0
    2.7754    2.7826   -0.5428 H   0  0  0  0  0  0  0  0  0  0  0  0
  1  2  1  0
  2  3  1  0
  3  4  2  0
  4  5  1  0
  5  6  2  0
  6  7  1  0
  7  8  1  0
  8  9  2  0
  8 10  1  0
 10 11  1  0
 11 12  1  0
 12 13  1  0
 13 14  1  0
 13 15  1  0
 13 16  1  0
 16 17  1  0
 17 18  2  0
 18 19  1  0
 19 20  2  0
 20 21  1  0
 21 22  1  0
 22 23  2  0
 23 24  1  0
 24 25  2  0
 25 26  1  0
 26 27  1  0
 26 28  2  0
  7 29  2  0
 29 30  1  0
 30 31  1  0
 29  3  1  0
 18 11  1  0
 28 22  1  0
 21 17  1  0
  1 32  1  0
  1 33  1  0
  1 34  1  0
  4 35  1  0
  5 36  1  0
  6 37  1  0
 10 38  1  0
 11 39  1  0
 12 40  1  0
 12 41  1  0
 14 42  1  0
 14 43  1  0
 14 44  1  0
 15 45  1  0
 15 46  1  0
 15 47  1  0
 16 48  1  0
 16 49  1  0
 19 50  1  0
 23 51  1  0
 24 52  1  0
 25 53  1  0
 28 54  1  0
 31 55  1  0
 31 56  1  0
 31 57  1  0
M  END
$$$$
