
     RDKit          3D

 46 50  0  0  0  0  0  0  0  0999 V2000
   -5.9689    1.1513    2.6225 C   0  0  0  0  0  0  0  0  0  0  0  0
   -4.8312    0.6352    1.7778 C   0  0  0  0  0  0  0  0  0  0  0  0
   -3.5483    0.5590    2.3483 C   0  0  0  0  0  0  0  0  0  0  0  0
   -2.4473    0.0787    1.6346 C   0  0  0  0  0  0  0  0  0  0  0  0
   -2.6812   -0.3276    0.3211 C   0  0  0  0  0  0  0  0  0  0  0  0
   -3.9411   -0.2746   -0.2864 C   0  0  0  0  0  0  0  0  0  0  0  0
   -3.8886   -0.7403   -1.5908 N   0  0  0  0  0  0  0  0  0  0  0  0
   -2.6360   -1.0596   -1.7518 C   0  0  0  0  0  0  0  0  0  0  0  0
   -1.7656   -1.7346   -3.0688 S   0  0  0  0  0  0  0  0  0  0  0  0
   -0.2762   -1.6592   -2.1263 C   0  0  0  0  0  0  0  0  0  0  0  0
    0.8903   -2.0396   -2.6668 C   0  0  0  0  0  0  0  0  0  0  0  0
    2.1443   -1.9284   -2.0148 C   0  0  0  0  0  0  0  0  0  0  0  0
    3.2298   -2.7942   -2.0671 C   0  0  0  0  0  0  0  0  0  0  0  0
    4.2648   -2.2408   -1.2749 C   0  0  0  0  0  0  0  0  0  0  0  0
    3.7849   -1.0391   -0.8078 C   0  0  0  0  0  0  0  0  0  0  0  0
    4.3138    0.0011    0.0598 C   0  0  0  0  0  0  0  0  0  0  0  0
    4.8757   -0.3795    1.2914 C   0  0  0  0  0  0  0  0  0  0  0  0
    5.3538    0.5760    2.1922 C   0  0  0  0  0  0  0  0  0  0  0  0
    5.2803    1.9295    1.8772 C   0  0  0  0  0  0  0  0  0  0  0  0
    4.7375    2.3272    0.6560 C   0  0  0  0  0  0  0  0  0  0  0  0
    4.2559    1.3706   -0.2557 C   0  0  0  0  0  0  0  0  0  0  0  0
    3.7618    1.8426   -1.5706 C   0  0  0  0  0  0  0  0  0  0  0  0
    3.9622    1.3413   -2.6607 O   0  0  0  0  0  0  0  0  0  0  0  0
    3.0360    2.9705   -1.4434 O   0  0  0  0  0  0  0  0  0  0  0  0
    2.5121   -0.8511   -1.2469 O   0  0  0  0  0  0  0  0  0  0  0  0
   -0.5294   -1.1598   -0.7339 C   0  0  0  0  0  0  0  0  0  0  0  0
    0.1982   -1.0663    0.2352 O   0  0  0  0  0  0  0  0  0  0  0  0
   -1.8679   -0.8366   -0.6607 N   0  0  0  0  0  0  0  0  0  0  0  0
   -5.0534    0.2073    0.4406 C   0  0  0  0  0  0  0  0  0  0  0  0
   -6.4224    0.2755   -0.1769 C   0  0  0  0  0  0  0  0  0  0  0  0
   -6.6667    0.3395    2.8483 H   0  0  0  0  0  0  0  0  0  0  0  0
   -6.4984    1.9571    2.1051 H   0  0  0  0  0  0  0  0  0  0  0  0
   -5.6108    1.5599    3.5730 H   0  0  0  0  0  0  0  0  0  0  0  0
   -3.3928    0.8810    3.3775 H   0  0  0  0  0  0  0  0  0  0  0  0
   -1.4603    0.0268    2.0852 H   0  0  0  0  0  0  0  0  0  0  0  0
    0.9120   -2.4412   -3.6771 H   0  0  0  0  0  0  0  0  0  0  0  0
    3.2627   -3.7293   -2.6102 H   0  0  0  0  0  0  0  0  0  0  0  0
    5.2440   -2.6572   -1.0842 H   0  0  0  0  0  0  0  0  0  0  0  0
    4.9202   -1.4312    1.5705 H   0  0  0  0  0  0  0  0  0  0  0  0
    5.7735    0.2613    3.1446 H   0  0  0  0  0  0  0  0  0  0  0  0
    5.6481    2.6747    2.5779 H   0  0  0  0  0  0  0  0  0  0  0  0
    4.6974    3.3868    0.4117 H   0  0  0  0  0  0  0  0  0  0  0  0
    2.7507    3.1611   -2.3608 H   0  0  0  0  0  0  0  0  0  0  0  0
   -6.7446    1.3177   -0.2691 H   0  0  0  0  0  0  0  0  0  0  0  0
   -6.4335   -0.1672   -1.1778 H   0  0  0  0  0  0  0  0  0  0  0  0
   -7.1457   -0.2745    0.4334 H   0  0  0  0  0  0  0  0  0  0  0  0
  1  2  1  0
  2  3  2  0
  3  4  1  0
  4  5  2  0
  5  6  1  0
  6  7  1  0
  7  8  2  0
  8  9  1  0
  9 10  1  0
 10 11  2  3
 11 12  1  0
 12 13  2  0
 13 14  1  0
 14 15  2  0
 15 16  1  0
 16 17  2  0
 17 18  1  0
 18 19  2  0
 19 20  1  0
 20 21  2  0
 21 22  1  0
 22 23  2  0
 22 24  1  0
 15 25  1  0
 10 26  1  0
 26 27  2  0
 26 28  1  0
  6 29  2  0
 29 30  1  0
 29  2  1  0
 28  5  1  0
 28  8  1  0
 25 12  1  0
 21 16  1  0
  1 31  1  0
  1 32  1  0
  1 33  1  0
  3 34  1  0
  4 35  1  0
 11 36  1  0
 13 37  1  0
 14 38  1  0
 17 39  1  0
 18 40  1  0
 19 41  1  0
 20 42  1  0
 24 43  1  0
 30 44  1  0
 30 45  1  0
 30 46  1  0
M  END
$$$$
