
     RDKit          3D

 51 53  0  0  0  0  0  0  0  0999 V2000
   -1.0512    1.5571   -4.1317 C   0  0  0  0  0  0  0  0  0  0  0  0
   -2.2402    1.7311   -3.3709 O   0  0  0  0  0  0  0  0  0  0  0  0
   -2.7295    0.5238   -2.7911 C   0  0  0  0  0  0  0  0  0  0  0  0
   -1.9325    0.1406   -1.5491 C   0  0  0  0  0  0  0  0  0  0  0  0
   -2.5941   -1.0228   -0.8129 C   0  0  0  0  0  0  0  0  0  0  0  0
   -1.8449   -1.4487    0.3523 N   0  0  0  0  0  0  0  0  0  0  0  0
   -0.8031   -2.3392    0.3691 C   0  0  0  0  0  0  0  0  0  0  0  0
   -0.0920   -3.0373   -1.0453 S   0  0  0  0  0  0  0  0  0  0  0  0
    1.4801   -3.6424   -0.3649 C   0  0  0  0  0  0  0  0  0  0  0  0
    2.3799   -2.5596    0.1926 C   0  0  0  0  0  0  0  0  0  0  0  0
    3.1988   -2.7717    1.0828 O   0  0  0  0  0  0  0  0  0  0  0  0
    2.2500   -1.3743   -0.4674 O   0  0  0  0  0  0  0  0  0  0  0  0
    3.0614   -0.2873    0.0095 C   0  0  0  0  0  0  0  0  0  0  0  0
    2.3931    0.3647    1.2297 C   0  0  0  0  0  0  0  0  0  0  0  0
    2.7596    1.8412    1.4094 C   0  0  0  0  0  0  0  0  0  0  0  0
    4.1013    2.1866    0.7678 C   0  0  0  0  0  0  0  0  0  0  0  0
    4.1019    1.8999   -0.7361 C   0  0  0  0  0  0  0  0  0  0  0  0
    3.2062    0.7235   -1.1280 C   0  0  0  0  0  0  0  0  0  0  0  0
   -0.4342   -2.5793    1.6044 N   0  0  0  0  0  0  0  0  0  0  0  0
   -1.2530   -1.8467    2.4254 N   0  0  0  0  0  0  0  0  0  0  0  0
   -2.0905   -1.1532    1.6766 C   0  0  0  0  0  0  0  0  0  0  0  0
   -3.1008   -0.3024    2.2400 C   0  0  0  0  0  0  0  0  0  0  0  0
   -3.8353   -0.5793    3.3802 C   0  0  0  0  0  0  0  0  0  0  0  0
   -4.7452    0.4607    3.7185 C   0  0  0  0  0  0  0  0  0  0  0  0
   -4.6563    1.5185    2.8427 C   0  0  0  0  0  0  0  0  0  0  0  0
   -3.4843    1.2506    1.6292 S   0  0  0  0  0  0  0  0  0  0  0  0
   -0.2228    1.2228   -3.4983 H   0  0  0  0  0  0  0  0  0  0  0  0
   -1.2178    0.8453   -4.9470 H   0  0  0  0  0  0  0  0  0  0  0  0
   -0.7750    2.5228   -4.5647 H   0  0  0  0  0  0  0  0  0  0  0  0
   -3.7714    0.7104   -2.5124 H   0  0  0  0  0  0  0  0  0  0  0  0
   -2.7317   -0.2846   -3.5334 H   0  0  0  0  0  0  0  0  0  0  0  0
   -0.9050   -0.1247   -1.8331 H   0  0  0  0  0  0  0  0  0  0  0  0
   -1.8303    1.0159   -0.8968 H   0  0  0  0  0  0  0  0  0  0  0  0
   -3.6125   -0.7732   -0.4985 H   0  0  0  0  0  0  0  0  0  0  0  0
   -2.6971   -1.8890   -1.4756 H   0  0  0  0  0  0  0  0  0  0  0  0
    2.0250   -4.1508   -1.1649 H   0  0  0  0  0  0  0  0  0  0  0  0
    1.2711   -4.3705    0.4288 H   0  0  0  0  0  0  0  0  0  0  0  0
    4.0652   -0.6563    0.2692 H   0  0  0  0  0  0  0  0  0  0  0  0
    2.6831   -0.1974    2.1273 H   0  0  0  0  0  0  0  0  0  0  0  0
    1.3011    0.2733    1.1724 H   0  0  0  0  0  0  0  0  0  0  0  0
    1.9788    2.4654    0.9560 H   0  0  0  0  0  0  0  0  0  0  0  0
    2.7766    2.0902    2.4779 H   0  0  0  0  0  0  0  0  0  0  0  0
    4.3486    3.2426    0.9405 H   0  0  0  0  0  0  0  0  0  0  0  0
    4.8943    1.5943    1.2505 H   0  0  0  0  0  0  0  0  0  0  0  0
    3.7804    2.7934   -1.2879 H   0  0  0  0  0  0  0  0  0  0  0  0
    5.1345    1.6994   -1.0524 H   0  0  0  0  0  0  0  0  0  0  0  0
    2.2100    1.0942   -1.4128 H   0  0  0  0  0  0  0  0  0  0  0  0
    3.6000    0.2363   -2.0283 H   0  0  0  0  0  0  0  0  0  0  0  0
   -3.7196   -1.4967    3.9472 H   0  0  0  0  0  0  0  0  0  0  0  0
   -5.4168    0.4397    4.5686 H   0  0  0  0  0  0  0  0  0  0  0  0
   -5.2140    2.4433    2.8642 H   0  0  0  0  0  0  0  0  0  0  0  0
  1  2  1  0
  2  3  1  0
  3  4  1  0
  4  5  1  0
  5  6  1  0
  6  7  1  0
  7  8  1  0
  8  9  1  0
  9 10  1  0
 10 11  2  0
 10 12  1  0
 12 13  1  0
 13 14  1  0
 14 15  1  0
 15 16  1  0
 16 17  1  0
 17 18  1  0
  7 19  2  0
 19 20  1  0
 20 21  2  0
 21 22  1  0
 22 23  2  0
 23 24  1  0
 24 25  2  0
 25 26  1  0
 21  6  1  0
 26 22  1  0
 18 13  1  0
  1 27  1  0
  1 28  1  0
  1 29  1  0
  3 30  1  0
  3 31  1  0
  4 32  1  0
  4 33  1  0
  5 34  1  0
  5 35  1  0
  9 36  1  0
  9 37  1  0
 13 38  1  0
 14 39  1  0
 14 40  1  0
 15 41  1  0
 15 42  1  0
 16 43  1  0
 16 44  1  0
 17 45  1  0
 17 46  1  0
 18 47  1  0
 18 48  1  0
 23 49  1  0
 24 50  1  0
 25 51  1  0
M  END
$$$$
