
     RDKit          3D

 59 62  0  0  0  0  0  0  0  0999 V2000
    7.4048    5.1336   -0.7063 C   0  0  0  0  0  0  0  0  0  0  0  0
    6.8025    3.7558   -0.9305 C   0  0  0  0  0  0  0  0  0  0  0  0
    6.7570    3.0844    0.3272 O   0  0  0  0  0  0  0  0  0  0  0  0
    6.2904    1.7984    0.3305 C   0  0  0  0  0  0  0  0  0  0  0  0
    6.3029    1.1773    1.5810 C   0  0  0  0  0  0  0  0  0  0  0  0
    5.8535   -0.1367    1.7308 C   0  0  0  0  0  0  0  0  0  0  0  0
    5.3811   -0.8503    0.6242 C   0  0  0  0  0  0  0  0  0  0  0  0
    4.8656   -2.2634    0.7780 C   0  0  0  0  0  0  0  0  0  0  0  0
    3.4723   -2.3220    1.4159 C   0  0  0  0  0  0  0  0  0  0  0  0
    2.4632   -1.6169    0.6478 N   0  0  0  0  0  0  0  0  0  0  0  0
    1.9245   -2.1457   -0.5055 C   0  0  0  0  0  0  0  0  0  0  0  0
    2.1966   -3.2677   -0.9257 O   0  0  0  0  0  0  0  0  0  0  0  0
    0.9623   -1.2179   -1.2242 C   0  0  0  0  0  0  0  0  0  0  0  0
   -0.4350   -1.2791   -0.6602 C   0  0  0  0  0  0  0  0  0  0  0  0
   -1.2568   -2.3816   -0.9334 C   0  0  0  0  0  0  0  0  0  0  0  0
   -2.5496   -2.4473   -0.4085 C   0  0  0  0  0  0  0  0  0  0  0  0
   -3.0440   -1.4133    0.3889 C   0  0  0  0  0  0  0  0  0  0  0  0
   -4.3326   -1.4979    0.9321 N   0  0  0  0  0  0  0  0  0  0  0  0
   -5.3289   -0.9348    0.3337 C   0  0  0  0  0  0  0  0  0  0  0  0
   -6.6083   -1.0045    0.8195 N   0  0  0  0  0  0  0  0  0  0  0  0
   -7.6527   -0.7428   -0.1603 C   0  0  0  0  0  0  0  0  0  0  0  0
   -8.9357   -0.2371    0.4833 C   0  0  0  0  0  0  0  0  0  0  0  0
   -8.9852    1.5168    0.1847 S   0  0  0  0  0  6  0  0  0  0  0  0
   -9.1009    2.2186    1.4450 O   0  0  0  0  0  0  0  0  0  0  0  0
   -9.8972    1.7526   -0.9166 O   0  0  0  0  0  0  0  0  0  0  0  0
   -7.3309    1.6837   -0.4372 C   0  0  0  0  0  0  0  0  0  0  0  0
   -7.0793    0.3363   -1.0945 C   0  0  0  0  0  0  0  0  0  0  0  0
   -5.2971   -0.0339   -1.1826 S   0  0  0  0  0  0  0  0  0  0  0  0
   -2.2156   -0.3287    0.6889 C   0  0  0  0  0  0  0  0  0  0  0  0
   -0.9229   -0.2554    0.1635 C   0  0  0  0  0  0  0  0  0  0  0  0
    5.3698   -0.2252   -0.6292 C   0  0  0  0  0  0  0  0  0  0  0  0
    5.8222    1.0905   -0.7763 C   0  0  0  0  0  0  0  0  0  0  0  0
    7.4287    5.7059   -1.6386 H   0  0  0  0  0  0  0  0  0  0  0  0
    8.4285    5.0444   -0.3220 H   0  0  0  0  0  0  0  0  0  0  0  0
    6.8298    5.6941    0.0409 H   0  0  0  0  0  0  0  0  0  0  0  0
    7.4355    3.2027   -1.6364 H   0  0  0  0  0  0  0  0  0  0  0  0
    5.7888    3.8653   -1.3361 H   0  0  0  0  0  0  0  0  0  0  0  0
    6.6675    1.7226    2.4477 H   0  0  0  0  0  0  0  0  0  0  0  0
    5.8771   -0.5952    2.7166 H   0  0  0  0  0  0  0  0  0  0  0  0
    4.8543   -2.7602   -0.2000 H   0  0  0  0  0  0  0  0  0  0  0  0
    5.5730   -2.8315    1.3952 H   0  0  0  0  0  0  0  0  0  0  0  0
    3.4790   -1.8749    2.4168 H   0  0  0  0  0  0  0  0  0  0  0  0
    3.1629   -3.3692    1.5161 H   0  0  0  0  0  0  0  0  0  0  0  0
    2.3228   -0.6342    0.8482 H   0  0  0  0  0  0  0  0  0  0  0  0
    1.3511   -0.1935   -1.1863 H   0  0  0  0  0  0  0  0  0  0  0  0
    0.9460   -1.4896   -2.2865 H   0  0  0  0  0  0  0  0  0  0  0  0
   -0.8907   -3.2030   -1.5473 H   0  0  0  0  0  0  0  0  0  0  0  0
   -3.1733   -3.3119   -0.6155 H   0  0  0  0  0  0  0  0  0  0  0  0
   -6.7340   -1.7651    1.4815 H   0  0  0  0  0  0  0  0  0  0  0  0
   -7.8486   -1.6741   -0.7067 H   0  0  0  0  0  0  0  0  0  0  0  0
   -9.8169   -0.6702    0.0001 H   0  0  0  0  0  0  0  0  0  0  0  0
   -8.9797   -0.4212    1.5601 H   0  0  0  0  0  0  0  0  0  0  0  0
   -6.6798    1.8846    0.4203 H   0  0  0  0  0  0  0  0  0  0  0  0
   -7.2863    2.5177   -1.1410 H   0  0  0  0  0  0  0  0  0  0  0  0
   -7.5439    0.2858   -2.0857 H   0  0  0  0  0  0  0  0  0  0  0  0
   -2.5838    0.4620    1.3371 H   0  0  0  0  0  0  0  0  0  0  0  0
   -0.3044    0.6054    0.4083 H   0  0  0  0  0  0  0  0  0  0  0  0
    5.0054   -0.7614   -1.5026 H   0  0  0  0  0  0  0  0  0  0  0  0
    5.7952    1.5293   -1.7682 H   0  0  0  0  0  0  0  0  0  0  0  0
  1  2  1  0
  2  3  1  0
  3  4  1  0
  4  5  2  0
  5  6  1  0
  6  7  2  0
  7  8  1  0
  8  9  1  0
  9 10  1  0
 10 11  1  0
 11 12  2  0
 11 13  1  0
 13 14  1  0
 14 15  2  0
 15 16  1  0
 16 17  2  0
 17 18  1  0
 18 19  2  3
 19 20  1  0
 20 21  1  0
 21 22  1  0
 22 23  1  0
 23 24  2  0
 23 25  2  0
 23 26  1  0
 26 27  1  0
 27 28  1  0
 17 29  1  0
 29 30  2  0
  7 31  1  0
 31 32  2  0
 32  4  1  0
 30 14  1  0
 28 19  1  0
 27 21  1  0
  1 33  1  0
  1 34  1  0
  1 35  1  0
  2 36  1  0
  2 37  1  0
  5 38  1  0
  6 39  1  0
  8 40  1  0
  8 41  1  0
  9 42  1  0
  9 43  1  0
 10 44  1  0
 13 45  1  0
 13 46  1  0
 15 47  1  0
 16 48  1  0
 20 49  1  0
 21 50  1  0
 22 51  1  0
 22 52  1  0
 26 53  1  0
 26 54  1  0
 27 55  1  0
 29 56  1  0
 30 57  1  0
 31 58  1  0
 32 59  1  0
M  END
$$$$
