
     RDKit          3D

 45 47  0  0  0  0  0  0  0  0999 V2000
   -0.0539    3.3685    0.9490 C   0  0  0  0  0  0  0  0  0  0  0  0
    0.4103    1.9648    0.7238 C   0  0  0  0  0  0  0  0  0  0  0  0
   -0.3324    0.8525    0.8822 C   0  0  0  0  0  0  0  0  0  0  0  0
   -1.6531    0.7086    1.2569 N   0  0  0  0  0  0  0  0  0  0  0  0
   -2.4735   -0.4943    1.0933 C   0  0  0  0  0  0  0  0  0  0  0  0
   -3.7311   -0.3356    1.9552 C   0  0  0  0  0  0  0  0  0  0  0  0
   -2.8681   -0.7342   -0.3571 C   0  0  0  0  0  0  0  0  0  0  0  0
   -3.0247    0.3195   -1.2763 C   0  0  0  0  0  0  0  0  0  0  0  0
   -3.3921    0.0718   -2.6018 C   0  0  0  0  0  0  0  0  0  0  0  0
   -3.6204   -1.2329   -3.0308 C   0  0  0  0  0  0  0  0  0  0  0  0
   -3.4891   -2.2910   -2.1343 C   0  0  0  0  0  0  0  0  0  0  0  0
   -3.1229   -2.0365   -0.8113 C   0  0  0  0  0  0  0  0  0  0  0  0
   -3.0293   -3.0768    0.0712 O   0  0  0  0  0  0  0  0  0  0  0  0
    0.6169   -0.2841    0.5501 C   0  0  0  0  0  0  0  0  0  0  0  0
    0.3309   -1.4701    0.6263 O   0  0  0  0  0  0  0  0  0  0  0  0
    1.8491    0.3083    0.2297 N   0  0  0  0  0  0  0  0  0  0  0  0
    3.1174   -0.3252    0.3209 C   0  0  0  0  0  0  0  0  0  0  0  0
    4.2772    0.4080    0.6184 C   0  0  0  0  0  0  0  0  0  0  0  0
    5.5264   -0.2154    0.7039 C   0  0  0  0  0  0  0  0  0  0  0  0
    5.6363   -1.5864    0.4946 C   0  0  0  0  0  0  0  0  0  0  0  0
    4.4977   -2.3323    0.2054 C   0  0  0  0  0  0  0  0  0  0  0  0
    3.2491   -1.7063    0.1220 C   0  0  0  0  0  0  0  0  0  0  0  0
    1.7216    1.7233    0.2902 N   0  0  0  0  0  0  0  0  0  0  0  0
    2.1693    2.4028   -0.9384 C   0  0  0  0  0  0  0  0  0  0  0  0
    0.6693    3.9120    1.5661 H   0  0  0  0  0  0  0  0  0  0  0  0
   -1.0168    3.4113    1.4663 H   0  0  0  0  0  0  0  0  0  0  0  0
   -0.1621    3.8963   -0.0037 H   0  0  0  0  0  0  0  0  0  0  0  0
   -2.1777    1.5733    1.2910 H   0  0  0  0  0  0  0  0  0  0  0  0
   -1.9173   -1.3521    1.4848 H   0  0  0  0  0  0  0  0  0  0  0  0
   -4.3387    0.5171    1.6295 H   0  0  0  0  0  0  0  0  0  0  0  0
   -3.4622   -0.1667    3.0040 H   0  0  0  0  0  0  0  0  0  0  0  0
   -4.3617   -1.2302    1.9093 H   0  0  0  0  0  0  0  0  0  0  0  0
   -2.8543    1.3477   -0.9698 H   0  0  0  0  0  0  0  0  0  0  0  0
   -3.4995    0.8995   -3.2979 H   0  0  0  0  0  0  0  0  0  0  0  0
   -3.9071   -1.4244   -4.0613 H   0  0  0  0  0  0  0  0  0  0  0  0
   -3.6867   -3.3023   -2.4757 H   0  0  0  0  0  0  0  0  0  0  0  0
   -2.9555   -3.9032   -0.4335 H   0  0  0  0  0  0  0  0  0  0  0  0
    4.2204    1.4734    0.8238 H   0  0  0  0  0  0  0  0  0  0  0  0
    6.4091    0.3710    0.9451 H   0  0  0  0  0  0  0  0  0  0  0  0
    6.6048   -2.0744    0.5639 H   0  0  0  0  0  0  0  0  0  0  0  0
    4.5738   -3.4047    0.0447 H   0  0  0  0  0  0  0  0  0  0  0  0
    2.3861   -2.3216   -0.1192 H   0  0  0  0  0  0  0  0  0  0  0  0
    1.4940    2.1834   -1.7737 H   0  0  0  0  0  0  0  0  0  0  0  0
    3.1785    2.1006   -1.2322 H   0  0  0  0  0  0  0  0  0  0  0  0
    2.1922    3.4867   -0.7832 H   0  0  0  0  0  0  0  0  0  0  0  0
  1  2  1  0
  2  3  2  0
  3  4  1  0
  4  5  1  0
  5  6  1  0
  5  7  1  0
  7  8  2  0
  8  9  1  0
  9 10  2  0
 10 11  1  0
 11 12  2  0
 12 13  1  0
  3 14  1  0
 14 15  2  0
 14 16  1  0
 16 17  1  0
 17 18  2  0
 18 19  1  0
 19 20  2  0
 20 21  1  0
 21 22  2  0
 16 23  1  0
 23 24  1  0
 23  2  1  0
 12  7  1  0
 22 17  1  0
  1 25  1  0
  1 26  1  0
  1 27  1  0
  4 28  1  0
  5 29  1  0
  6 30  1  0
  6 31  1  0
  6 32  1  0
  8 33  1  0
  9 34  1  0
 10 35  1  0
 11 36  1  0
 13 37  1  0
 18 38  1  0
 19 39  1  0
 20 40  1  0
 21 41  1  0
 22 42  1  0
 24 43  1  0
 24 44  1  0
 24 45  1  0
M  END
$$$$
