
     RDKit          3D

 42 44  0  0  0  0  0  0  0  0999 V2000
    4.7930    0.9684    1.3009 C   0  0  0  0  0  0  0  0  0  0  0  0
    3.8197    0.0773    0.5457 C   0  0  0  0  0  0  0  0  0  0  0  0
    2.3709    0.3663    0.9447 C   0  0  0  0  0  0  0  0  0  0  0  0
    1.3949   -0.5268    0.1731 C   0  0  0  0  0  0  0  0  0  0  0  0
   -0.0878   -0.4211    0.6210 C   0  0  0  0  0  0  0  0  0  0  0  0
   -0.8791   -1.4869   -0.1152 C   0  0  0  0  0  0  0  0  0  0  0  0
   -1.6753   -1.1866   -1.1577 C   0  0  0  0  0  0  0  0  0  0  0  0
   -2.4805   -2.1931   -1.9266 C   0  0  0  0  0  0  0  0  0  0  0  0
   -2.7336   -3.4571   -1.1135 C   0  0  0  0  0  0  0  0  0  0  0  0
   -1.4471   -3.9761   -0.4930 C   0  0  0  0  0  0  0  0  0  0  0  0
   -0.7610   -2.9054    0.3281 C   0  0  0  0  0  0  0  0  0  0  0  0
   -0.0751   -3.1987    1.3051 O   0  0  0  0  0  0  0  0  0  0  0  0
   -1.8466    0.1226   -1.5917 O   0  0  0  0  0  0  0  0  0  0  0  0
   -1.4717    1.1556   -0.7407 C   0  0  0  0  0  0  0  0  0  0  0  0
   -0.6770    0.9443    0.3258 C   0  0  0  0  0  0  0  0  0  0  0  0
   -0.4834    2.0548    1.3032 C   0  0  0  0  0  0  0  0  0  0  0  0
    0.0896    1.8523    2.3721 O   0  0  0  0  0  0  0  0  0  0  0  0
   -1.0851    3.4111    0.9990 C   0  0  0  0  0  0  0  0  0  0  0  0
   -1.2532    3.6335   -0.4941 C   0  0  0  0  0  0  0  0  0  0  0  0
   -2.0376    2.4909   -1.1259 C   0  0  0  0  0  0  0  0  0  0  0  0
    4.6003    2.0256    1.0918 H   0  0  0  0  0  0  0  0  0  0  0  0
    5.8218    0.7451    1.0017 H   0  0  0  0  0  0  0  0  0  0  0  0
    4.7114    0.8112    2.3811 H   0  0  0  0  0  0  0  0  0  0  0  0
    3.9479    0.2358   -0.5314 H   0  0  0  0  0  0  0  0  0  0  0  0
    4.0612   -0.9721    0.7507 H   0  0  0  0  0  0  0  0  0  0  0  0
    2.1570    1.4208    0.7415 H   0  0  0  0  0  0  0  0  0  0  0  0
    2.2509    0.1992    2.0215 H   0  0  0  0  0  0  0  0  0  0  0  0
    1.4768   -0.2942   -0.8980 H   0  0  0  0  0  0  0  0  0  0  0  0
    1.7335   -1.5653    0.2823 H   0  0  0  0  0  0  0  0  0  0  0  0
   -0.1684   -0.6167    1.6979 H   0  0  0  0  0  0  0  0  0  0  0  0
   -1.9488   -2.4393   -2.8534 H   0  0  0  0  0  0  0  0  0  0  0  0
   -3.4466   -1.7607   -2.2127 H   0  0  0  0  0  0  0  0  0  0  0  0
   -3.4585   -3.2373   -0.3186 H   0  0  0  0  0  0  0  0  0  0  0  0
   -3.1820   -4.2276   -1.7507 H   0  0  0  0  0  0  0  0  0  0  0  0
   -0.7478   -4.3168   -1.2644 H   0  0  0  0  0  0  0  0  0  0  0  0
   -1.6785   -4.8232    0.1618 H   0  0  0  0  0  0  0  0  0  0  0  0
   -0.4233    4.1833    1.4061 H   0  0  0  0  0  0  0  0  0  0  0  0
   -2.0512    3.4761    1.5118 H   0  0  0  0  0  0  0  0  0  0  0  0
   -0.2648    3.7028   -0.9673 H   0  0  0  0  0  0  0  0  0  0  0  0
   -1.7635    4.5854   -0.6783 H   0  0  0  0  0  0  0  0  0  0  0  0
   -3.0890    2.5359   -0.8180 H   0  0  0  0  0  0  0  0  0  0  0  0
   -2.0124    2.6067   -2.2158 H   0  0  0  0  0  0  0  0  0  0  0  0
  1  2  1  0
  2  3  1  0
  3  4  1  0
  4  5  1  0
  5  6  1  0
  6  7  2  0
  7  8  1  0
  8  9  1  0
  9 10  1  0
 10 11  1  0
 11 12  2  0
  7 13  1  0
 13 14  1  0
 14 15  2  0
 15 16  1  0
 16 17  2  0
 16 18  1  0
 18 19  1  0
 19 20  1  0
 15  5  1  0
 11  6  1  0
 20 14  1  0
  1 21  1  0
  1 22  1  0
  1 23  1  0
  2 24  1  0
  2 25  1  0
  3 26  1  0
  3 27  1  0
  4 28  1  0
  4 29  1  0
  5 30  1  0
  8 31  1  0
  8 32  1  0
  9 33  1  0
  9 34  1  0
 10 35  1  0
 10 36  1  0
 18 37  1  0
 18 38  1  0
 19 39  1  0
 19 40  1  0
 20 41  1  0
 20 42  1  0
M  END
$$$$
