
     RDKit          3D

 45 46  0  0  0  0  0  0  0  0999 V2000
    5.1346    2.4201   -3.2935 C   0  0  0  0  0  0  0  0  0  0  0  0
    4.1632    1.4936   -2.8273 O   0  0  0  0  0  0  0  0  0  0  0  0
    3.9920    1.3866   -1.4707 C   0  0  0  0  0  0  0  0  0  0  0  0
    4.7516    2.0661   -0.5129 C   0  0  0  0  0  0  0  0  0  0  0  0
    4.4986    1.8820    0.8491 C   0  0  0  0  0  0  0  0  0  0  0  0
    3.4772    1.0277    1.2675 C   0  0  0  0  0  0  0  0  0  0  0  0
    2.6893    0.3481    0.3311 C   0  0  0  0  0  0  0  0  0  0  0  0
    1.6337   -0.5397    0.8386 C   0  0  0  0  0  0  0  0  0  0  0  0
    0.3588   -0.4619    0.4277 C   0  0  0  0  0  0  0  0  0  0  0  0
   -0.6482   -1.4188    0.9531 C   0  0  0  0  0  0  0  0  0  0  0  0
   -0.2957   -2.4739    1.4758 O   0  0  0  0  0  0  0  0  0  0  0  0
   -1.9754   -1.0641    0.8046 N   0  0  0  0  0  0  0  0  0  0  0  0
   -3.0061   -2.0429    1.1555 C   0  0  0  0  0  0  0  0  0  0  0  0
   -4.3151   -1.7479    0.4034 C   0  0  0  0  0  0  0  0  0  0  0  0
   -5.3942   -2.7653    0.7471 C   0  0  0  0  0  0  0  0  0  0  0  0
   -4.8455   -0.4377    0.6809 O   0  0  0  0  0  0  0  0  0  0  0  0
   -3.8590    0.5307    1.0694 C   0  0  0  0  0  0  0  0  0  0  0  0
   -4.3869    1.9069    0.6863 C   0  0  0  0  0  0  0  0  0  0  0  0
   -2.4723    0.2703    0.4494 C   0  0  0  0  0  0  0  0  0  0  0  0
    2.9759    0.5124   -1.0375 C   0  0  0  0  0  0  0  0  0  0  0  0
    2.2132   -0.1516   -1.9758 O   0  0  0  0  0  0  0  0  0  0  0  0
    2.8543   -1.3736   -2.3442 C   0  0  0  0  0  0  0  0  0  0  0  0
    6.1410    2.1322   -2.9707 H   0  0  0  0  0  0  0  0  0  0  0  0
    5.1189    2.3958   -4.3892 H   0  0  0  0  0  0  0  0  0  0  0  0
    4.8929    3.4408   -2.9811 H   0  0  0  0  0  0  0  0  0  0  0  0
    5.5522    2.7436   -0.7925 H   0  0  0  0  0  0  0  0  0  0  0  0
    5.0975    2.4107    1.5875 H   0  0  0  0  0  0  0  0  0  0  0  0
    3.2930    0.9064    2.3329 H   0  0  0  0  0  0  0  0  0  0  0  0
    1.9390   -1.2743    1.5811 H   0  0  0  0  0  0  0  0  0  0  0  0
    0.0500    0.2592   -0.3178 H   0  0  0  0  0  0  0  0  0  0  0  0
   -3.1553   -1.9686    2.2399 H   0  0  0  0  0  0  0  0  0  0  0  0
   -2.6489   -3.0532    0.9278 H   0  0  0  0  0  0  0  0  0  0  0  0
   -4.1288   -1.7881   -0.6784 H   0  0  0  0  0  0  0  0  0  0  0  0
   -5.0767   -3.7841    0.4970 H   0  0  0  0  0  0  0  0  0  0  0  0
   -6.3182   -2.5438    0.2008 H   0  0  0  0  0  0  0  0  0  0  0  0
   -5.6420   -2.7268    1.8139 H   0  0  0  0  0  0  0  0  0  0  0  0
   -3.7803    0.4875    2.1637 H   0  0  0  0  0  0  0  0  0  0  0  0
   -5.3690    2.0826    1.1425 H   0  0  0  0  0  0  0  0  0  0  0  0
   -4.5260    1.9889   -0.3979 H   0  0  0  0  0  0  0  0  0  0  0  0
   -3.7035    2.6968    1.0141 H   0  0  0  0  0  0  0  0  0  0  0  0
   -2.5273    0.3012   -0.6472 H   0  0  0  0  0  0  0  0  0  0  0  0
   -1.7642    1.0342    0.7881 H   0  0  0  0  0  0  0  0  0  0  0  0
    2.2160   -1.8771   -3.0759 H   0  0  0  0  0  0  0  0  0  0  0  0
    3.8264   -1.1916   -2.8123 H   0  0  0  0  0  0  0  0  0  0  0  0
    2.9697   -2.0393   -1.4815 H   0  0  0  0  0  0  0  0  0  0  0  0
  1  2  1  0
  2  3  1  0
  3  4  2  0
  4  5  1  0
  5  6  2  0
  6  7  1  0
  7  8  1  0
  8  9  2  3
  9 10  1  0
 10 11  2  0
 10 12  1  0
 12 13  1  0
 13 14  1  0
 14 15  1  0
 14 16  1  0
 16 17  1  0
 17 18  1  0
 17 19  1  0
  7 20  2  0
 20 21  1  0
 21 22  1  0
 20  3  1  0
 19 12  1  0
  1 23  1  0
  1 24  1  0
  1 25  1  0
  4 26  1  0
  5 27  1  0
  6 28  1  0
  8 29  1  0
  9 30  1  0
 13 31  1  0
 13 32  1  0
 14 33  1  0
 15 34  1  0
 15 35  1  0
 15 36  1  0
 17 37  1  0
 18 38  1  0
 18 39  1  0
 18 40  1  0
 19 41  1  0
 19 42  1  0
 22 43  1  0
 22 44  1  0
 22 45  1  0
M  END
$$$$
