
     RDKit          3D

 41 43  0  0  0  0  0  0  0  0999 V2000
   -3.8732   -1.9247   -1.1214 O   0  0  0  0  0  0  0  0  0  0  0  0
   -4.3660   -0.9062   -0.6604 C   0  0  0  0  0  0  0  0  0  0  0  0
   -3.6985    0.1778   -0.1214 O   0  0  0  0  0  0  0  0  0  0  0  0
   -2.3049    0.0587   -0.1088 C   0  0  0  0  0  0  0  0  0  0  0  0
   -1.6755   -0.8535    0.7389 C   0  0  0  0  0  0  0  0  0  0  0  0
   -0.2811   -0.9099    0.7667 C   0  0  0  0  0  0  0  0  0  0  0  0
    0.4664   -0.0435   -0.0401 C   0  0  0  0  0  0  0  0  0  0  0  0
    1.9418   -0.1239    0.0106 C   0  0  0  0  0  0  0  0  0  0  0  0
    2.6877    0.6628   -0.6980 N   0  0  0  0  0  0  0  0  0  0  0  0
    4.0468    0.5623   -0.5651 N   0  0  0  0  0  0  0  0  0  0  0  0
    4.7482    0.2354    0.5890 C   0  0  0  0  0  0  0  0  0  0  0  0
    4.2787   -0.1651    1.6496 O   0  0  0  0  0  0  0  0  0  0  0  0
    6.2266    0.4405    0.4453 C   0  0  0  0  0  0  0  0  0  0  0  0
    7.0774    0.1298    1.4993 C   0  0  0  0  0  0  0  0  0  0  0  0
    8.4421    0.3389    1.3248 C   0  0  0  0  0  0  0  0  0  0  0  0
    8.9055    0.8473    0.1149 C   0  0  0  0  0  0  0  0  0  0  0  0
    7.9833    1.1304   -0.8813 C   0  0  0  0  0  0  0  0  0  0  0  0
    6.6523    0.9419   -0.7502 N   0  0  0  0  0  0  0  0  0  0  0  0
   -0.1758    0.8829   -0.8707 C   0  0  0  0  0  0  0  0  0  0  0  0
   -1.5697    0.9389   -0.9011 C   0  0  0  0  0  0  0  0  0  0  0  0
   -5.8363   -0.6661   -0.6119 C   0  0  0  0  0  0  0  0  0  0  0  0
   -6.6814   -1.6472   -1.1525 C   0  0  0  0  0  0  0  0  0  0  0  0
   -8.0684   -1.4763   -1.1339 C   0  0  0  0  0  0  0  0  0  0  0  0
   -8.6142   -0.3232   -0.5738 C   0  0  0  0  0  0  0  0  0  0  0  0
  -10.4895   -0.0898   -0.5473 Br  0  0  0  0  0  0  0  0  0  0  0  0
   -7.7871    0.6598   -0.0322 C   0  0  0  0  0  0  0  0  0  0  0  0
   -6.3987    0.4900   -0.0503 C   0  0  0  0  0  0  0  0  0  0  0  0
   -2.2598   -1.5205    1.3656 H   0  0  0  0  0  0  0  0  0  0  0  0
    0.2116   -1.6262    1.4192 H   0  0  0  0  0  0  0  0  0  0  0  0
    2.3522   -0.9116    0.6639 H   0  0  0  0  0  0  0  0  0  0  0  0
    4.5894    1.0442   -1.2830 H   0  0  0  0  0  0  0  0  0  0  0  0
    6.6877   -0.2640    2.4327 H   0  0  0  0  0  0  0  0  0  0  0  0
    9.1381    0.1075    2.1268 H   0  0  0  0  0  0  0  0  0  0  0  0
    9.9642    1.0199   -0.0480 H   0  0  0  0  0  0  0  0  0  0  0  0
    8.3045    1.5290   -1.8402 H   0  0  0  0  0  0  0  0  0  0  0  0
    0.4049    1.5608   -1.4917 H   0  0  0  0  0  0  0  0  0  0  0  0
   -2.0723    1.6597   -1.5387 H   0  0  0  0  0  0  0  0  0  0  0  0
   -6.2621   -2.5512   -1.5924 H   0  0  0  0  0  0  0  0  0  0  0  0
   -8.7090   -2.2460   -1.5575 H   0  0  0  0  0  0  0  0  0  0  0  0
   -8.2113    1.5603    0.4059 H   0  0  0  0  0  0  0  0  0  0  0  0
   -5.7746    1.2701    0.3793 H   0  0  0  0  0  0  0  0  0  0  0  0
  1  2  2  0
  2  3  1  0
  3  4  1  0
  4  5  2  0
  5  6  1  0
  6  7  2  0
  7  8  1  0
  8  9  2  3
  9 10  1  0
 10 11  1  0
 11 12  2  0
 11 13  1  0
 13 14  2  0
 14 15  1  0
 15 16  2  0
 16 17  1  0
 17 18  2  0
  7 19  1  0
 19 20  2  0
  2 21  1  0
 21 22  2  0
 22 23  1  0
 23 24  2  0
 24 25  1  0
 24 26  1  0
 26 27  2  0
 20  4  1  0
 27 21  1  0
 18 13  1  0
  5 28  1  0
  6 29  1  0
  8 30  1  0
 10 31  1  0
 14 32  1  0
 15 33  1  0
 16 34  1  0
 17 35  1  0
 19 36  1  0
 20 37  1  0
 22 38  1  0
 23 39  1  0
 26 40  1  0
 27 41  1  0
M  END
$$$$
