
     RDKit          3D

 68 73  0  0  0  0  0  0  0  0999 V2000
   -3.6435    4.9925   -2.1932 C   0  0  0  0  0  0  0  0  0  0  0  0
   -2.8295    3.9006   -1.7785 O   0  0  0  0  0  0  0  0  0  0  0  0
   -2.9662    3.4787   -0.4834 C   0  0  0  0  0  0  0  0  0  0  0  0
   -3.8248    4.0428    0.4794 C   0  0  0  0  0  0  0  0  0  0  0  0
   -3.8902    3.5229    1.7780 C   0  0  0  0  0  0  0  0  0  0  0  0
   -3.0754    2.4521    2.0792 C   0  0  0  0  0  0  0  0  0  0  0  0
   -2.1980    1.8882    1.1495 C   0  0  0  0  0  0  0  0  0  0  0  0
   -2.1520    2.3895   -0.1452 C   0  0  0  0  0  0  0  0  0  0  0  0
   -1.4541    0.7525    1.8052 C   0  0  1  0  0  0  0  0  0  0  0  0
   -2.0993    0.7144    3.2282 C   0  0  0  0  0  0  0  0  0  0  0  0
   -1.8826   -0.0580    4.1507 O   0  0  0  0  0  0  0  0  0  0  0  0
   -3.0158    1.7678    3.2833 N   0  0  0  0  0  0  0  0  0  0  0  0
   -1.6958   -0.4749    1.0164 C   0  0  0  0  0  0  0  0  0  0  0  0
   -0.4989   -1.1395    0.7540 C   0  0  0  0  0  0  0  0  0  0  0  0
   -0.7704   -2.2796    0.0432 C   0  0  0  0  0  0  0  0  0  0  0  0
    0.0655   -3.1888   -0.4507 O   0  0  0  0  0  0  0  0  0  0  0  0
   -2.1699   -2.3319   -0.1594 N   0  0  0  0  0  0  0  0  0  0  0  0
   -2.8925   -3.3559   -0.8681 C   0  0  0  0  0  0  0  0  0  0  0  0
   -2.3634   -4.6483   -1.0017 C   0  0  0  0  0  0  0  0  0  0  0  0
   -3.0693   -5.6427   -1.6885 C   0  0  0  0  0  0  0  0  0  0  0  0
   -4.3093   -5.3618   -2.2520 C   0  0  0  0  0  0  0  0  0  0  0  0
   -4.8467   -4.0840   -2.1306 C   0  0  0  0  0  0  0  0  0  0  0  0
   -4.1451   -3.0880   -1.4416 C   0  0  0  0  0  0  0  0  0  0  0  0
   -2.7273   -1.1901    0.4605 C   0  0  0  0  0  0  0  0  0  0  0  0
   -4.0373   -0.9523    0.4952 O   0  0  0  0  0  0  0  0  0  0  0  0
    0.6617   -0.4205    1.3284 C   0  0  1  0  0  0  0  0  0  0  0  0
    1.7833   -0.1287    0.3098 C   0  0  0  0  0  0  0  0  0  0  0  0
    2.7510    0.8499    0.8167 N   0  0  0  0  0  0  0  0  0  0  0  0
    4.1093    0.7798    0.5878 C   0  0  0  0  0  0  0  0  0  0  0  0
    4.9113    1.5712    1.0646 O   0  0  0  0  0  0  0  0  0  0  0  0
    4.4386   -0.2653   -0.2139 O   0  0  0  0  0  0  0  0  0  0  0  0
    5.8213   -0.5425   -0.5526 C   0  0  0  0  0  0  0  0  0  0  0  0
    6.4352    0.5993   -1.3695 C   0  0  0  0  0  0  0  0  0  0  0  0
    6.6495   -0.8659    0.6973 C   0  0  0  0  0  0  0  0  0  0  0  0
    5.7609   -1.8003   -1.4362 C   0  0  0  0  0  0  0  0  0  0  0  0
    2.2313    1.9234    1.6599 C   0  0  0  0  0  0  0  0  0  0  0  0
    0.7010    2.0552    1.5659 C   0  0  0  0  0  0  0  0  0  0  0  0
    0.0336    0.8060    1.9325 N   0  0  0  0  0  0  0  0  0  0  0  0
   -4.7088    4.7473   -2.1084 H   0  0  0  0  0  0  0  0  0  0  0  0
   -3.4301    5.1874   -3.2489 H   0  0  0  0  0  0  0  0  0  0  0  0
   -3.4001    5.9010   -1.6313 H   0  0  0  0  0  0  0  0  0  0  0  0
   -4.4614    4.8900    0.2417 H   0  0  0  0  0  0  0  0  0  0  0  0
   -4.5628    3.9529    2.5132 H   0  0  0  0  0  0  0  0  0  0  0  0
   -1.4960    1.9450   -0.8904 H   0  0  0  0  0  0  0  0  0  0  0  0
   -3.5595    1.9639    4.1108 H   0  0  0  0  0  0  0  0  0  0  0  0
    0.9681   -2.9624   -0.1749 H   0  0  0  0  0  0  0  0  0  0  0  0
   -1.4178   -4.9297   -0.5492 H   0  0  0  0  0  0  0  0  0  0  0  0
   -2.6484   -6.6419   -1.7717 H   0  0  0  0  0  0  0  0  0  0  0  0
   -4.8552   -6.1356   -2.7841 H   0  0  0  0  0  0  0  0  0  0  0  0
   -5.8116   -3.8546   -2.5756 H   0  0  0  0  0  0  0  0  0  0  0  0
   -4.5920   -2.0993   -1.4021 H   0  0  0  0  0  0  0  0  0  0  0  0
   -4.1845   -0.1048    0.9489 H   0  0  0  0  0  0  0  0  0  0  0  0
    1.0804   -1.0036    2.1580 H   0  0  0  0  0  0  0  0  0  0  0  0
    2.2856   -1.0657    0.0426 H   0  0  0  0  0  0  0  0  0  0  0  0
    1.3710    0.2873   -0.6209 H   0  0  0  0  0  0  0  0  0  0  0  0
    5.7843    0.8764   -2.2069 H   0  0  0  0  0  0  0  0  0  0  0  0
    7.4159    0.3201   -1.7701 H   0  0  0  0  0  0  0  0  0  0  0  0
    6.5711    1.5022   -0.7655 H   0  0  0  0  0  0  0  0  0  0  0  0
    7.6444   -1.2391    0.4290 H   0  0  0  0  0  0  0  0  0  0  0  0
    6.1470   -1.6221    1.3118 H   0  0  0  0  0  0  0  0  0  0  0  0
    6.7925    0.0135    1.3359 H   0  0  0  0  0  0  0  0  0  0  0  0
    5.2904   -2.6319   -0.8981 H   0  0  0  0  0  0  0  0  0  0  0  0
    6.7574   -2.1198   -1.7593 H   0  0  0  0  0  0  0  0  0  0  0  0
    5.1473   -1.6234   -2.3279 H   0  0  0  0  0  0  0  0  0  0  0  0
    2.7080    2.8673    1.3690 H   0  0  0  0  0  0  0  0  0  0  0  0
    2.5353    1.7047    2.6923 H   0  0  0  0  0  0  0  0  0  0  0  0
    0.4610    2.3438    0.5355 H   0  0  0  0  0  0  0  0  0  0  0  0
    0.3725    2.8634    2.2307 H   0  0  0  0  0  0  0  0  0  0  0  0
  1  2  1  0
  2  3  1  0
  3  4  2  0
  4  5  1  0
  5  6  2  0
  6  7  1  0
  7  8  2  0
  7  9  1  0
  9 10  1  0
 10 11  2  0
 10 12  1  0
  9 13  1  0
 13 14  1  0
 14 15  2  0
 15 16  1  0
 15 17  1  0
 17 18  1  0
 18 19  2  0
 19 20  1  0
 20 21  2  0
 21 22  1  0
 22 23  2  0
 17 24  1  0
 24 25  1  0
 14 26  1  0
 26 27  1  0
 27 28  1  0
 28 29  1  0
 29 30  2  0
 29 31  1  0
 31 32  1  0
 32 33  1  0
 32 34  1  0
 32 35  1  0
 28 36  1  0
 36 37  1  0
 37 38  1  0
  8  3  1  0
  9 38  1  1
 12  6  1  0
 24 13  2  0
 38 26  1  0
 23 18  1  0
  1 39  1  0
  1 40  1  0
  1 41  1  0
  4 42  1  0
  5 43  1  0
  8 44  1  0
 12 45  1  0
 16 46  1  0
 19 47  1  0
 20 48  1  0
 21 49  1  0
 22 50  1  0
 23 51  1  0
 25 52  1  0
 26 53  1  1
 27 54  1  0
 27 55  1  0
 33 56  1  0
 33 57  1  0
 33 58  1  0
 34 59  1  0
 34 60  1  0
 34 61  1  0
 35 62  1  0
 35 63  1  0
 35 64  1  0
 36 65  1  0
 36 66  1  0
 37 67  1  0
 37 68  1  0
M  END
$$$$
