
     RDKit          3D

 38 40  0  0  0  0  0  0  0  0999 V2000
    2.7201   -2.4178   -0.2557 N   0  0  0  0  0  0  0  0  0  0  0  0
    2.7545   -1.2764    0.3689 C   0  0  0  0  0  0  0  0  0  0  0  0
    1.6034   -0.6105    0.7431 N   0  0  0  0  0  0  0  0  0  0  0  0
    0.5849   -0.7319   -0.2234 O   0  0  0  0  0  0  0  0  0  0  0  0
    0.1726    0.4888   -0.6905 C   0  0  0  0  0  0  0  0  0  0  0  0
    0.6031    1.5638   -0.2861 O   0  0  0  0  0  0  0  0  0  0  0  0
   -0.8520    0.3306   -1.7837 C   0  0  0  0  0  0  0  0  0  0  0  0
   -2.1652   -0.2393   -1.2946 C   0  0  0  0  0  0  0  0  0  0  0  0
   -2.4375   -1.5921   -1.5662 C   0  0  0  0  0  0  0  0  0  0  0  0
   -3.6177   -2.1784   -1.1272 C   0  0  0  0  0  0  0  0  0  0  0  0
   -4.5438   -1.4250   -0.4121 C   0  0  0  0  0  0  0  0  0  0  0  0
   -4.3042   -0.0755   -0.1223 C   0  0  0  0  0  0  0  0  0  0  0  0
   -5.2534    0.6643    0.6017 C   0  0  0  0  0  0  0  0  0  0  0  0
   -5.0381    2.0057    0.9055 C   0  0  0  0  0  0  0  0  0  0  0  0
   -3.8685    2.6248    0.4890 C   0  0  0  0  0  0  0  0  0  0  0  0
   -2.9148    1.9024   -0.2319 C   0  0  0  0  0  0  0  0  0  0  0  0
   -3.1039    0.5398   -0.5587 C   0  0  0  0  0  0  0  0  0  0  0  0
    4.0655   -0.6292    0.7035 C   0  0  0  0  0  0  0  0  0  0  0  0
    5.2709   -1.2584    0.4192 C   0  0  0  0  0  0  0  0  0  0  0  0
    6.4470   -0.5881    0.7386 C   0  0  0  0  0  0  0  0  0  0  0  0
    6.3749    0.6756    1.3208 C   0  0  0  0  0  0  0  0  0  0  0  0
    5.1230    1.2248    1.5657 C   0  0  0  0  0  0  0  0  0  0  0  0
    3.9604    0.6048    1.2728 N   0  0  0  0  0  0  0  0  0  0  0  0
    1.7244   -2.6567   -0.3484 H   0  0  0  0  0  0  0  0  0  0  0  0
    1.7924    0.3697    1.0017 H   0  0  0  0  0  0  0  0  0  0  0  0
   -0.4129   -0.2948   -2.5730 H   0  0  0  0  0  0  0  0  0  0  0  0
   -1.0175    1.3015   -2.2613 H   0  0  0  0  0  0  0  0  0  0  0  0
   -1.7254   -2.2018   -2.1203 H   0  0  0  0  0  0  0  0  0  0  0  0
   -3.8179   -3.2245   -1.3388 H   0  0  0  0  0  0  0  0  0  0  0  0
   -5.4605   -1.9025   -0.0774 H   0  0  0  0  0  0  0  0  0  0  0  0
   -6.1754    0.1961    0.9378 H   0  0  0  0  0  0  0  0  0  0  0  0
   -5.7833    2.5640    1.4673 H   0  0  0  0  0  0  0  0  0  0  0  0
   -3.6912    3.6697    0.7215 H   0  0  0  0  0  0  0  0  0  0  0  0
   -2.0153    2.4315   -0.5331 H   0  0  0  0  0  0  0  0  0  0  0  0
    5.2911   -2.2425   -0.0384 H   0  0  0  0  0  0  0  0  0  0  0  0
    7.4117   -1.0464    0.5328 H   0  0  0  0  0  0  0  0  0  0  0  0
    7.2751    1.2223    1.5781 H   0  0  0  0  0  0  0  0  0  0  0  0
    5.0235    2.2114    2.0142 H   0  0  0  0  0  0  0  0  0  0  0  0
  1  2  2  3
  2  3  1  0
  3  4  1  0
  4  5  1  0
  5  6  2  0
  5  7  1  0
  7  8  1  0
  8  9  2  0
  9 10  1  0
 10 11  2  0
 11 12  1  0
 12 13  2  0
 13 14  1  0
 14 15  2  0
 15 16  1  0
 16 17  2  0
  2 18  1  0
 18 19  2  0
 19 20  1  0
 20 21  2  0
 21 22  1  0
 22 23  2  0
 17  8  1  0
 23 18  1  0
 17 12  1  0
  1 24  1  0
  3 25  1  0
  7 26  1  0
  7 27  1  0
  9 28  1  0
 10 29  1  0
 11 30  1  0
 13 31  1  0
 14 32  1  0
 15 33  1  0
 16 34  1  0
 19 35  1  0
 20 36  1  0
 21 37  1  0
 22 38  1  0
M  END
$$$$
