
     RDKit          3D

 41 44  0  0  0  0  0  0  0  0999 V2000
    5.9928    0.4312   -1.5489 C   0  0  0  0  0  0  0  0  0  0  0  0
    4.7581   -0.1115   -2.2519 C   0  0  0  0  0  0  0  0  0  0  0  0
    3.5229    0.0193   -1.3971 C   0  0  0  0  0  0  0  0  0  0  0  0
    3.1625   -1.0026   -0.5109 C   0  0  0  0  0  0  0  0  0  0  0  0
    2.0288   -0.8736    0.2951 C   0  0  0  0  0  0  0  0  0  0  0  0
    1.2377    0.2791    0.2241 C   0  0  0  0  0  0  0  0  0  0  0  0
    0.0281    0.3788    1.0957 C   0  0  0  0  0  0  0  0  0  0  0  0
   -0.0157   -0.3192    2.1947 N   0  0  0  0  0  0  0  0  0  0  0  0
   -1.1265   -0.2245    2.9662 C   0  0  0  0  0  0  0  0  0  0  0  0
   -1.3294   -0.5878    4.2140 N   0  0  0  0  0  0  0  0  0  0  0  0
   -2.6425   -0.2749    4.4373 C   0  0  0  0  0  0  0  0  0  0  0  0
   -3.2903    0.2646    3.4004 N   0  0  0  0  0  0  0  0  0  0  0  0
   -2.3127    0.2611    2.4797 N   0  0  0  0  0  0  0  0  0  0  0  0
   -2.4556    0.8004    1.1401 C   0  0  0  0  0  0  0  0  0  0  0  0
   -3.0500   -0.2011    0.1637 C   0  0  0  0  0  0  0  0  0  0  0  0
   -2.7471   -1.5741    0.1722 C   0  0  0  0  0  0  0  0  0  0  0  0
   -3.3135   -2.4282   -0.7795 C   0  0  0  0  0  0  0  0  0  0  0  0
   -2.8937   -4.2715   -0.7482 Br  0  0  0  0  0  0  0  0  0  0  0  0
   -4.1790   -1.9362   -1.7549 C   0  0  0  0  0  0  0  0  0  0  0  0
   -4.4767   -0.5758   -1.7829 C   0  0  0  0  0  0  0  0  0  0  0  0
   -3.9112    0.2733   -0.8351 C   0  0  0  0  0  0  0  0  0  0  0  0
   -4.1893    1.5831   -0.9020 F   0  0  0  0  0  0  0  0  0  0  0  0
   -1.0950    1.3243    0.6740 C   0  0  0  0  0  0  0  0  0  0  0  0
    1.6041    1.3108   -0.6462 C   0  0  0  0  0  0  0  0  0  0  0  0
    2.7399    1.1793   -1.4515 C   0  0  0  0  0  0  0  0  0  0  0  0
    6.8722    0.3234   -2.1917 H   0  0  0  0  0  0  0  0  0  0  0  0
    6.1871   -0.1069   -0.6149 H   0  0  0  0  0  0  0  0  0  0  0  0
    5.8777    1.4932   -1.3068 H   0  0  0  0  0  0  0  0  0  0  0  0
    4.6079    0.4190   -3.2001 H   0  0  0  0  0  0  0  0  0  0  0  0
    4.9142   -1.1647   -2.5155 H   0  0  0  0  0  0  0  0  0  0  0  0
    3.7650   -1.9058   -0.4374 H   0  0  0  0  0  0  0  0  0  0  0  0
    1.7711   -1.6808    0.9783 H   0  0  0  0  0  0  0  0  0  0  0  0
   -3.1372   -0.4447    5.3852 H   0  0  0  0  0  0  0  0  0  0  0  0
   -3.1422    1.6517    1.2398 H   0  0  0  0  0  0  0  0  0  0  0  0
   -2.0738   -1.9947    0.9170 H   0  0  0  0  0  0  0  0  0  0  0  0
   -4.6199   -2.6002   -2.4939 H   0  0  0  0  0  0  0  0  0  0  0  0
   -5.1428   -0.1703   -2.5386 H   0  0  0  0  0  0  0  0  0  0  0  0
   -1.0956    1.4890   -0.4081 H   0  0  0  0  0  0  0  0  0  0  0  0
   -0.8859    2.2863    1.1608 H   0  0  0  0  0  0  0  0  0  0  0  0
    1.0387    2.2360   -0.7036 H   0  0  0  0  0  0  0  0  0  0  0  0
    3.0166    1.9936   -2.1185 H   0  0  0  0  0  0  0  0  0  0  0  0
  1  2  1  0
  2  3  1  0
  3  4  2  0
  4  5  1  0
  5  6  2  0
  6  7  1  0
  7  8  2  0
  8  9  1  0
  9 10  2  0
 10 11  1  0
 11 12  2  0
 12 13  1  0
 13 14  1  0
 14 15  1  0
 15 16  2  0
 16 17  1  0
 17 18  1  0
 17 19  2  0
 19 20  1  0
 20 21  2  0
 21 22  1  0
 14 23  1  0
  6 24  1  0
 24 25  2  0
 25  3  1  0
 23  7  1  0
 13  9  1  0
 21 15  1  0
  1 26  1  0
  1 27  1  0
  1 28  1  0
  2 29  1  0
  2 30  1  0
  4 31  1  0
  5 32  1  0
 11 33  1  0
 14 34  1  0
 16 35  1  0
 19 36  1  0
 20 37  1  0
 23 38  1  0
 23 39  1  0
 24 40  1  0
 25 41  1  0
M  END
$$$$
