
     RDKit          3D

 52 55  0  0  0  0  0  0  0  0999 V2000
    6.4049    1.3819    3.3154 N   0  0  0  0  0  0  0  0  0  0  0  0
    4.8280    1.7784    2.9028 S   0  0  0  0  0  6  0  0  0  0  0  0
    4.9091    2.9980    2.1342 O   0  0  0  0  0  0  0  0  0  0  0  0
    4.0588    1.6821    4.1214 O   0  0  0  0  0  0  0  0  0  0  0  0
    4.3784    0.4510    1.8251 C   0  0  0  0  0  0  0  0  0  0  0  0
    3.7368   -0.6736    2.3424 C   0  0  0  0  0  0  0  0  0  0  0  0
    3.3169   -1.6861    1.4763 C   0  0  0  0  0  0  0  0  0  0  0  0
    3.5108   -1.5703    0.0914 C   0  0  0  0  0  0  0  0  0  0  0  0
    3.0163   -2.6353   -0.8645 C   0  0  0  0  0  0  0  0  0  0  0  0
    1.5438   -3.0233   -0.6791 C   0  0  0  0  0  0  0  0  0  0  0  0
    0.6489   -1.8841   -0.7769 N   0  0  0  0  0  0  0  0  0  0  0  0
   -0.5142   -1.8151   -0.0419 C   0  0  0  0  0  0  0  0  0  0  0  0
   -0.8982   -2.6828    0.7320 O   0  0  0  0  0  0  0  0  0  0  0  0
   -1.3560   -0.6221   -0.2854 C   0  0  0  0  0  0  0  0  0  0  0  0
   -2.6806   -0.8764   -0.6477 C   0  0  0  0  0  0  0  0  0  0  0  0
   -3.5141    0.1936   -0.9216 C   0  0  0  0  0  0  0  0  0  0  0  0
   -4.9344    0.0412   -1.3118 C   0  0  0  0  0  0  0  0  0  0  0  0
   -5.5832    1.0382   -2.0659 C   0  0  0  0  0  0  0  0  0  0  0  0
   -6.9237    0.9181   -2.4457 C   0  0  0  0  0  0  0  0  0  0  0  0
   -7.6526   -0.2068   -2.0779 C   0  0  0  0  0  0  0  0  0  0  0  0
   -7.0425   -1.2060   -1.3269 C   0  0  0  0  0  0  0  0  0  0  0  0
   -5.7014   -1.0807   -0.9453 C   0  0  0  0  0  0  0  0  0  0  0  0
   -3.0543    1.4695   -0.8583 N   0  0  0  0  0  0  0  0  0  0  0  0
   -1.7876    1.7168   -0.4825 C   0  0  0  0  0  0  0  0  0  0  0  0
   -1.3732    3.0409   -0.4009 C   0  0  0  0  0  0  0  0  0  0  0  0
   -0.0833    3.3920    0.0067 C   0  0  0  0  0  0  0  0  0  0  0  0
    0.8187    2.3984    0.3543 C   0  0  0  0  0  0  0  0  0  0  0  0
    0.4273    1.0626    0.2768 C   0  0  0  0  0  0  0  0  0  0  0  0
   -0.8730    0.6990   -0.1615 C   0  0  0  0  0  0  0  0  0  0  0  0
    4.1769   -0.4408   -0.4089 C   0  0  0  0  0  0  0  0  0  0  0  0
    4.6017    0.5729    0.4523 C   0  0  0  0  0  0  0  0  0  0  0  0
    6.4627    1.2210    4.3209 H   0  0  0  0  0  0  0  0  0  0  0  0
    7.0448    2.1006    2.9780 H   0  0  0  0  0  0  0  0  0  0  0  0
    3.5456   -0.7639    3.4097 H   0  0  0  0  0  0  0  0  0  0  0  0
    2.8091   -2.5516    1.8953 H   0  0  0  0  0  0  0  0  0  0  0  0
    3.6469   -3.5254   -0.7491 H   0  0  0  0  0  0  0  0  0  0  0  0
    3.1520   -2.2873   -1.8968 H   0  0  0  0  0  0  0  0  0  0  0  0
    1.2493   -3.7278   -1.4649 H   0  0  0  0  0  0  0  0  0  0  0  0
    1.3924   -3.5296    0.2802 H   0  0  0  0  0  0  0  0  0  0  0  0
    0.8039   -1.2045   -1.5131 H   0  0  0  0  0  0  0  0  0  0  0  0
   -3.0270   -1.9009   -0.7296 H   0  0  0  0  0  0  0  0  0  0  0  0
   -5.0357    1.9306   -2.3659 H   0  0  0  0  0  0  0  0  0  0  0  0
   -7.3933    1.7082   -3.0242 H   0  0  0  0  0  0  0  0  0  0  0  0
   -8.6950   -0.3003   -2.3680 H   0  0  0  0  0  0  0  0  0  0  0  0
   -7.6098   -2.0813   -1.0260 H   0  0  0  0  0  0  0  0  0  0  0  0
   -5.2725   -1.8732   -0.3371 H   0  0  0  0  0  0  0  0  0  0  0  0
   -2.0822    3.8268   -0.6533 H   0  0  0  0  0  0  0  0  0  0  0  0
    0.2033    4.4389    0.0665 H   0  0  0  0  0  0  0  0  0  0  0  0
    1.8171    2.6596    0.6967 H   0  0  0  0  0  0  0  0  0  0  0  0
    1.1414    0.3033    0.5842 H   0  0  0  0  0  0  0  0  0  0  0  0
    4.3510   -0.3291   -1.4777 H   0  0  0  0  0  0  0  0  0  0  0  0
    5.0911    1.4545    0.0457 H   0  0  0  0  0  0  0  0  0  0  0  0
  1  2  1  0
  2  3  2  0
  2  4  2  0
  2  5  1  0
  5  6  2  0
  6  7  1  0
  7  8  2  0
  8  9  1  0
  9 10  1  0
 10 11  1  0
 11 12  1  0
 12 13  2  0
 12 14  1  0
 14 15  2  0
 15 16  1  0
 16 17  1  0
 17 18  2  0
 18 19  1  0
 19 20  2  0
 20 21  1  0
 21 22  2  0
 16 23  2  0
 23 24  1  0
 24 25  2  0
 25 26  1  0
 26 27  2  0
 27 28  1  0
 28 29  2  0
  8 30  1  0
 30 31  2  0
 31  5  1  0
 29 14  1  0
 22 17  1  0
 29 24  1  0
  1 32  1  0
  1 33  1  0
  6 34  1  0
  7 35  1  0
  9 36  1  0
  9 37  1  0
 10 38  1  0
 10 39  1  0
 11 40  1  0
 15 41  1  0
 18 42  1  0
 19 43  1  0
 20 44  1  0
 21 45  1  0
 22 46  1  0
 25 47  1  0
 26 48  1  0
 27 49  1  0
 28 50  1  0
 30 51  1  0
 31 52  1  0
M  END
$$$$
