
     RDKit          3D

 54 55  0  0  0  0  0  0  0  0999 V2000
   -0.3630   -3.4164   -2.1864 C   0  0  0  0  0  0  0  0  0  0  0  0
   -1.1430   -2.3924   -1.5839 O   0  0  0  0  0  0  0  0  0  0  0  0
   -0.5246   -1.2043   -1.2984 C   0  0  0  0  0  0  0  0  0  0  0  0
    0.8494   -0.9729   -1.4274 C   0  0  0  0  0  0  0  0  0  0  0  0
    1.3984    0.2899   -1.1436 C   0  0  0  0  0  0  0  0  0  0  0  0
    2.8852    0.5290   -1.2737 C   0  0  0  0  0  0  0  0  0  0  0  0
    3.4921    0.4787    0.0477 N   0  0  0  0  0  0  0  0  0  0  0  0
    4.8841    0.5111    0.1692 C   0  0  0  0  0  0  0  0  0  0  0  0
    5.4579    0.1024    1.3815 C   0  0  0  0  0  0  0  0  0  0  0  0
    6.8404    0.1635    1.5930 C   0  0  0  0  0  0  0  0  0  0  0  0
    7.6794    0.6667    0.5972 C   0  0  0  0  0  0  0  0  0  0  0  0
    9.1389    0.7117    0.8560 C   0  0  0  0  0  0  0  0  0  0  0  0
    9.6952    0.3401    1.8722 O   0  0  0  0  0  0  0  0  0  0  0  0
    9.8367    1.2161   -0.1764 O   0  0  0  0  0  0  0  0  0  0  0  0
    7.1208    1.1206   -0.5994 C   0  0  0  0  0  0  0  0  0  0  0  0
    5.7349    1.0546   -0.8008 C   0  0  0  0  0  0  0  0  0  0  0  0
    0.5556    1.3228   -0.7101 C   0  0  0  0  0  0  0  0  0  0  0  0
   -0.8142    1.1009   -0.5746 C   0  0  0  0  0  0  0  0  0  0  0  0
   -1.9093    2.5431   -0.0002 Br  0  0  0  0  0  0  0  0  0  0  0  0
   -1.3534   -0.1618   -0.8481 C   0  0  0  0  0  0  0  0  0  0  0  0
   -2.7125   -0.3316   -0.7329 O   0  0  0  0  0  0  0  0  0  0  0  0
   -3.0458   -1.2143    0.3465 C   0  0  0  0  0  0  0  0  0  0  0  0
   -4.3661   -0.7960    1.0020 C   0  0  0  0  0  0  0  0  0  0  0  0
   -4.8030   -1.3732    1.9942 O   0  0  0  0  0  0  0  0  0  0  0  0
   -4.9935    0.2613    0.3768 N   0  0  0  0  0  0  0  0  0  0  0  0
   -6.2119    0.9331    0.8389 C   0  0  0  0  0  0  0  0  0  0  0  0
   -6.5699    2.0250   -0.1863 C   0  0  0  0  0  0  0  0  0  0  0  0
   -5.9784    1.5979    2.2032 C   0  0  0  0  0  0  0  0  0  0  0  0
   -7.3894   -0.0504    0.9261 C   0  0  0  0  0  0  0  0  0  0  0  0
   -1.0304   -4.2518   -2.4161 H   0  0  0  0  0  0  0  0  0  0  0  0
    0.4030   -3.7825   -1.4953 H   0  0  0  0  0  0  0  0  0  0  0  0
    0.0806   -3.0769   -3.1284 H   0  0  0  0  0  0  0  0  0  0  0  0
    1.5200   -1.7629   -1.7516 H   0  0  0  0  0  0  0  0  0  0  0  0
    3.0431    1.5079   -1.7430 H   0  0  0  0  0  0  0  0  0  0  0  0
    3.3234   -0.2298   -1.9342 H   0  0  0  0  0  0  0  0  0  0  0  0
    3.0747   -0.2301    0.6460 H   0  0  0  0  0  0  0  0  0  0  0  0
    4.8261   -0.2720    2.1840 H   0  0  0  0  0  0  0  0  0  0  0  0
    7.2535   -0.1758    2.5402 H   0  0  0  0  0  0  0  0  0  0  0  0
   10.7673    1.1847    0.1335 H   0  0  0  0  0  0  0  0  0  0  0  0
    7.7498    1.5380   -1.3816 H   0  0  0  0  0  0  0  0  0  0  0  0
    5.3432    1.4445   -1.7347 H   0  0  0  0  0  0  0  0  0  0  0  0
    0.9790    2.2978   -0.4746 H   0  0  0  0  0  0  0  0  0  0  0  0
   -3.1820   -2.2294   -0.0435 H   0  0  0  0  0  0  0  0  0  0  0  0
   -2.2793   -1.2075    1.1347 H   0  0  0  0  0  0  0  0  0  0  0  0
   -4.4441    0.7178   -0.3491 H   0  0  0  0  0  0  0  0  0  0  0  0
   -5.7618    2.7618   -0.2774 H   0  0  0  0  0  0  0  0  0  0  0  0
   -6.7300    1.5929   -1.1820 H   0  0  0  0  0  0  0  0  0  0  0  0
   -7.4828    2.5614    0.0998 H   0  0  0  0  0  0  0  0  0  0  0  0
   -5.1316    2.2939    2.1648 H   0  0  0  0  0  0  0  0  0  0  0  0
   -6.8623    2.1612    2.5226 H   0  0  0  0  0  0  0  0  0  0  0  0
   -5.7579    0.8593    2.9824 H   0  0  0  0  0  0  0  0  0  0  0  0
   -7.2327   -0.8115    1.6985 H   0  0  0  0  0  0  0  0  0  0  0  0
   -8.3222    0.4722    1.1698 H   0  0  0  0  0  0  0  0  0  0  0  0
   -7.5377   -0.5748   -0.0272 H   0  0  0  0  0  0  0  0  0  0  0  0
  1  2  1  0
  2  3  1  0
  3  4  2  0
  4  5  1  0
  5  6  1  0
  6  7  1  0
  7  8  1  0
  8  9  2  0
  9 10  1  0
 10 11  2  0
 11 12  1  0
 12 13  2  0
 12 14  1  0
 11 15  1  0
 15 16  2  0
  5 17  2  0
 17 18  1  0
 18 19  1  0
 18 20  2  0
 20 21  1  0
 21 22  1  0
 22 23  1  0
 23 24  2  0
 23 25  1  0
 25 26  1  0
 26 27  1  0
 26 28  1  0
 26 29  1  0
 20  3  1  0
 16  8  1  0
  1 30  1  0
  1 31  1  0
  1 32  1  0
  4 33  1  0
  6 34  1  0
  6 35  1  0
  7 36  1  0
  9 37  1  0
 10 38  1  0
 14 39  1  0
 15 40  1  0
 16 41  1  0
 17 42  1  0
 22 43  1  0
 22 44  1  0
 25 45  1  0
 27 46  1  0
 27 47  1  0
 27 48  1  0
 28 49  1  0
 28 50  1  0
 28 51  1  0
 29 52  1  0
 29 53  1  0
 29 54  1  0
M  END
$$$$
