
     RDKit          3D

 38 40  0  0  0  0  0  0  0  0999 V2000
    0.5701    0.0028   -2.3308 N   0  0  0  0  0  0  0  0  0  0  0  0
    0.8426    0.0494   -1.2038 C   0  0  0  0  0  0  0  0  0  0  0  0
    1.0715    0.0770    0.1977 C   0  0  0  0  0  0  0  0  0  0  0  0
    2.3061    0.1785    0.7311 C   0  0  0  0  0  0  0  0  0  0  0  0
    3.5662    0.2803   -0.0186 C   0  0  0  0  0  0  0  0  0  0  0  0
    4.3777    1.4090    0.1789 C   0  0  0  0  0  0  0  0  0  0  0  0
    5.5909    1.5381   -0.5009 C   0  0  0  0  0  0  0  0  0  0  0  0
    5.9893    0.5342   -1.3693 C   0  0  0  0  0  0  0  0  0  0  0  0
    7.1745    0.6607   -2.0343 O   0  0  0  0  0  0  0  0  0  0  0  0
    5.1981   -0.5946   -1.5651 C   0  0  0  0  0  0  0  0  0  0  0  0
    5.6567   -1.5458   -2.4345 O   0  0  0  0  0  0  0  0  0  0  0  0
    3.9892   -0.7350   -0.8901 C   0  0  0  0  0  0  0  0  0  0  0  0
   -0.0947    0.0009    1.1538 C   0  0  0  0  0  0  0  0  0  0  0  0
    0.1173   -0.0294    2.3627 O   0  0  0  0  0  0  0  0  0  0  0  0
   -1.3442   -0.0295    0.5532 N   0  0  0  0  0  0  0  0  0  0  0  0
   -2.6218   -0.1065    1.1806 C   0  0  0  0  0  0  0  0  0  0  0  0
   -2.7534   -0.1695    2.5718 C   0  0  0  0  0  0  0  0  0  0  0  0
   -4.0098   -0.2448    3.1631 C   0  0  0  0  0  0  0  0  0  0  0  0
   -5.1498   -0.2582    2.3674 C   0  0  0  0  0  0  0  0  0  0  0  0
   -5.0741   -0.1984    0.9877 C   0  0  0  0  0  0  0  0  0  0  0  0
   -6.2360   -0.2180    0.3119 N   0  0  0  0  0  0  0  0  0  0  0  0
   -6.1986   -0.1609   -1.0331 C   0  0  0  0  0  0  0  0  0  0  0  0
   -5.0304   -0.0837   -1.7562 C   0  0  0  0  0  0  0  0  0  0  0  0
   -3.8288   -0.0640   -1.0534 C   0  0  0  0  0  0  0  0  0  0  0  0
   -3.8036   -0.1211    0.3642 C   0  0  0  0  0  0  0  0  0  0  0  0
    2.4343    0.2225    1.8131 H   0  0  0  0  0  0  0  0  0  0  0  0
    4.0721    2.2000    0.8612 H   0  0  0  0  0  0  0  0  0  0  0  0
    6.2185    2.4119   -0.3534 H   0  0  0  0  0  0  0  0  0  0  0  0
    7.2414   -0.1514   -2.5752 H   0  0  0  0  0  0  0  0  0  0  0  0
    4.9853   -2.2459   -2.5076 H   0  0  0  0  0  0  0  0  0  0  0  0
    3.3848   -1.6257   -1.0308 H   0  0  0  0  0  0  0  0  0  0  0  0
   -1.3778    0.0121   -0.4546 H   0  0  0  0  0  0  0  0  0  0  0  0
   -1.8976   -0.1627    3.2383 H   0  0  0  0  0  0  0  0  0  0  0  0
   -4.1007   -0.2930    4.2454 H   0  0  0  0  0  0  0  0  0  0  0  0
   -6.1285   -0.3172    2.8389 H   0  0  0  0  0  0  0  0  0  0  0  0
   -7.1664   -0.1797   -1.5256 H   0  0  0  0  0  0  0  0  0  0  0  0
   -5.0491   -0.0397   -2.8394 H   0  0  0  0  0  0  0  0  0  0  0  0
   -2.9211   -0.0029   -1.6444 H   0  0  0  0  0  0  0  0  0  0  0  0
  1  2  3  0
  2  3  1  0
  3  4  2  3
  4  5  1  0
  5  6  2  0
  6  7  1  0
  7  8  2  0
  8  9  1  0
  8 10  1  0
 10 11  1  0
 10 12  2  0
  3 13  1  0
 13 14  2  0
 13 15  1  0
 15 16  1  0
 16 17  2  0
 17 18  1  0
 18 19  2  0
 19 20  1  0
 20 21  2  0
 21 22  1  0
 22 23  2  0
 23 24  1  0
 24 25  2  0
 12  5  1  0
 25 16  1  0
 25 20  1  0
  4 26  1  0
  6 27  1  0
  7 28  1  0
  9 29  1  0
 11 30  1  0
 12 31  1  0
 15 32  1  0
 17 33  1  0
 18 34  1  0
 19 35  1  0
 22 36  1  0
 23 37  1  0
 24 38  1  0
M  END
$$$$
