
     RDKit          3D

 42 43  0  0  0  0  0  0  0  0999 V2000
    5.3719    2.1963   -2.8810 C   0  0  0  0  0  0  0  0  0  0  0  0
    4.6715    2.1793   -1.5591 C   0  0  0  0  0  0  0  0  0  0  0  0
    5.3402    3.0501   -0.2541 S   0  0  0  0  0  0  0  0  0  0  0  0
    4.0903    2.5805    0.7925 C   0  0  0  0  0  0  0  0  0  0  0  0
    4.0990    3.0091    2.0660 N   0  0  0  0  0  0  0  0  0  0  0  0
    3.0582    2.5672    2.7664 C   0  0  0  0  0  0  0  0  0  0  0  0
    2.0671    1.7811    2.3321 N   0  0  0  0  0  0  0  0  0  0  0  0
    2.0977    1.3659    1.0467 C   0  0  0  0  0  0  0  0  0  0  0  0
    0.7643    0.3502    0.4787 S   0  0  0  0  0  0  0  0  0  0  0  0
    0.2841   -0.4403    2.0492 C   0  0  0  0  0  0  0  0  0  0  0  0
   -0.8105   -1.4666    1.8151 C   0  0  0  0  0  0  0  0  0  0  0  0
   -0.6993   -2.6340    2.1821 O   0  0  0  0  0  0  0  0  0  0  0  0
   -1.9510   -0.9685    1.2168 N   0  0  0  0  0  0  0  0  0  0  0  0
   -3.1492   -1.7766    1.0087 C   0  0  0  0  0  0  0  0  0  0  0  0
   -4.0147   -1.7052    2.2697 C   0  0  0  0  0  0  0  0  0  0  0  0
   -3.8968   -1.3096   -0.2669 C   0  0  0  0  0  0  0  0  0  0  0  0
   -3.0125   -1.4727   -1.5114 C   0  0  0  0  0  0  0  0  0  0  0  0
   -5.2097   -2.0672   -0.4886 C   0  0  0  0  0  0  0  0  0  0  0  0
    3.1432    1.7628    0.1888 C   0  0  0  0  0  0  0  0  0  0  0  0
    3.4959    1.5242   -1.2098 C   0  0  0  0  0  0  0  0  0  0  0  0
    2.7072    0.6806   -2.1657 C   0  0  0  0  0  0  0  0  0  0  0  0
    5.6745    1.1814   -3.1601 H   0  0  0  0  0  0  0  0  0  0  0  0
    6.2704    2.8221   -2.8727 H   0  0  0  0  0  0  0  0  0  0  0  0
    4.7042    2.5847   -3.6572 H   0  0  0  0  0  0  0  0  0  0  0  0
    3.0077    2.8797    3.8051 H   0  0  0  0  0  0  0  0  0  0  0  0
    1.1505   -0.9496    2.4836 H   0  0  0  0  0  0  0  0  0  0  0  0
   -0.0908    0.3017    2.7619 H   0  0  0  0  0  0  0  0  0  0  0  0
   -1.9890    0.0235    1.0154 H   0  0  0  0  0  0  0  0  0  0  0  0
   -2.8340   -2.8196    0.8763 H   0  0  0  0  0  0  0  0  0  0  0  0
   -4.8547   -2.4041    2.2211 H   0  0  0  0  0  0  0  0  0  0  0  0
   -3.4316   -1.9622    3.1616 H   0  0  0  0  0  0  0  0  0  0  0  0
   -4.4121   -0.6947    2.4183 H   0  0  0  0  0  0  0  0  0  0  0  0
   -4.1364   -0.2423   -0.1695 H   0  0  0  0  0  0  0  0  0  0  0  0
   -2.1019   -0.8698   -1.4378 H   0  0  0  0  0  0  0  0  0  0  0  0
   -2.7177   -2.5184   -1.6528 H   0  0  0  0  0  0  0  0  0  0  0  0
   -3.5448   -1.1469   -2.4120 H   0  0  0  0  0  0  0  0  0  0  0  0
   -5.0445   -3.1500   -0.5037 H   0  0  0  0  0  0  0  0  0  0  0  0
   -5.6686   -1.7817   -1.4416 H   0  0  0  0  0  0  0  0  0  0  0  0
   -5.9385   -1.8409    0.2963 H   0  0  0  0  0  0  0  0  0  0  0  0
    1.7046    1.0953   -2.3057 H   0  0  0  0  0  0  0  0  0  0  0  0
    2.6303   -0.3467   -1.7973 H   0  0  0  0  0  0  0  0  0  0  0  0
    3.1753    0.6319   -3.1532 H   0  0  0  0  0  0  0  0  0  0  0  0
  1  2  1  0
  2  3  1  0
  3  4  1  0
  4  5  2  0
  5  6  1  0
  6  7  2  0
  7  8  1  0
  8  9  1  0
  9 10  1  0
 10 11  1  0
 11 12  2  0
 11 13  1  0
 13 14  1  0
 14 15  1  0
 14 16  1  0
 16 17  1  0
 16 18  1  0
  8 19  2  0
 19 20  1  0
 20 21  1  0
 20  2  2  0
 19  4  1  0
  1 22  1  0
  1 23  1  0
  1 24  1  0
  6 25  1  0
 10 26  1  0
 10 27  1  0
 13 28  1  0
 14 29  1  0
 15 30  1  0
 15 31  1  0
 15 32  1  0
 16 33  1  0
 17 34  1  0
 17 35  1  0
 17 36  1  0
 18 37  1  0
 18 38  1  0
 18 39  1  0
 21 40  1  0
 21 41  1  0
 21 42  1  0
M  END
$$$$
