
     RDKit          3D

 49 52  0  0  0  0  0  0  0  0999 V2000
    6.9824    0.3479   -3.1035 C   0  0  0  0  0  0  0  0  0  0  0  0
    5.6021   -0.0570   -2.6780 C   0  0  0  0  0  0  0  0  0  0  0  0
    4.4786    0.4419   -3.3478 C   0  0  0  0  0  0  0  0  0  0  0  0
    3.1937    0.0400   -2.9730 C   0  0  0  0  0  0  0  0  0  0  0  0
    3.0171   -0.8713   -1.9286 C   0  0  0  0  0  0  0  0  0  0  0  0
    1.6661   -1.2852   -1.5468 C   0  0  0  0  0  0  0  0  0  0  0  0
    1.0615   -0.8871   -0.4179 C   0  0  0  0  0  0  0  0  0  0  0  0
    1.6091    0.0391    0.6491 C   0  0  0  0  0  0  0  0  0  0  0  0
    0.4735    0.2124    1.6764 C   0  0  0  0  0  0  0  0  0  0  0  0
   -0.6142   -0.6586    1.1443 C   0  0  0  0  0  0  0  0  0  0  0  0
   -0.2634   -1.2484    0.0045 C   0  0  0  0  0  0  0  0  0  0  0  0
   -1.0725   -2.0654   -0.7694 O   0  0  0  0  0  0  0  0  0  0  0  0
   -2.2981   -2.3512   -0.2696 C   0  0  0  0  0  0  0  0  0  0  0  0
   -3.1751   -2.8486   -1.0794 N   0  0  0  0  0  0  0  0  0  0  0  0
   -2.6052   -2.1432    1.1975 C   0  0  0  0  0  0  0  0  0  0  0  0
   -2.1564   -3.3420    1.9275 C   0  0  0  0  0  0  0  0  0  0  0  0
   -1.7924   -4.2630    2.5338 N   0  0  0  0  0  0  0  0  0  0  0  0
   -1.9403   -0.8802    1.7854 C   0  0  0  0  0  0  0  0  0  0  0  0
   -2.8426    0.3434    1.6841 C   0  0  0  0  0  0  0  0  0  0  0  0
   -3.2049    0.9016    0.4486 C   0  0  0  0  0  0  0  0  0  0  0  0
   -4.0440    2.0176    0.3879 C   0  0  0  0  0  0  0  0  0  0  0  0
   -4.5477    2.5938    1.5577 C   0  0  0  0  0  0  0  0  0  0  0  0
   -5.4214    3.8111    1.4911 C   0  0  0  0  0  0  0  0  0  0  0  0
   -4.1777    2.0525    2.7921 C   0  0  0  0  0  0  0  0  0  0  0  0
   -3.3391    0.9366    2.8551 C   0  0  0  0  0  0  0  0  0  0  0  0
    4.1376   -1.3861   -1.2700 C   0  0  0  0  0  0  0  0  0  0  0  0
    5.4222   -0.9844   -1.6452 C   0  0  0  0  0  0  0  0  0  0  0  0
    7.3511   -0.3342   -3.8756 H   0  0  0  0  0  0  0  0  0  0  0  0
    7.6739    0.3292   -2.2545 H   0  0  0  0  0  0  0  0  0  0  0  0
    6.9849    1.3682   -3.5014 H   0  0  0  0  0  0  0  0  0  0  0  0
    4.5960    1.1482   -4.1666 H   0  0  0  0  0  0  0  0  0  0  0  0
    2.3338    0.4449   -3.5012 H   0  0  0  0  0  0  0  0  0  0  0  0
    1.1627   -1.9382   -2.2551 H   0  0  0  0  0  0  0  0  0  0  0  0
    1.8907    1.0104    0.2269 H   0  0  0  0  0  0  0  0  0  0  0  0
    2.4880   -0.3983    1.1362 H   0  0  0  0  0  0  0  0  0  0  0  0
    0.1564    1.2589    1.7332 H   0  0  0  0  0  0  0  0  0  0  0  0
    0.7941   -0.1122    2.6717 H   0  0  0  0  0  0  0  0  0  0  0  0
   -2.7312   -2.9202   -2.0041 H   0  0  0  0  0  0  0  0  0  0  0  0
   -3.6960   -2.0752    1.3080 H   0  0  0  0  0  0  0  0  0  0  0  0
   -1.7504   -1.0582    2.8543 H   0  0  0  0  0  0  0  0  0  0  0  0
   -2.8360    0.4859   -0.4864 H   0  0  0  0  0  0  0  0  0  0  0  0
   -4.3026    2.4344   -0.5834 H   0  0  0  0  0  0  0  0  0  0  0  0
   -4.8052    4.7152    1.5085 H   0  0  0  0  0  0  0  0  0  0  0  0
   -6.0235    3.8101    0.5764 H   0  0  0  0  0  0  0  0  0  0  0  0
   -6.1166    3.8399    2.3367 H   0  0  0  0  0  0  0  0  0  0  0  0
   -4.5422    2.4962    3.7163 H   0  0  0  0  0  0  0  0  0  0  0  0
   -3.0771    0.5389    3.8338 H   0  0  0  0  0  0  0  0  0  0  0  0
    4.0187   -2.1079   -0.4653 H   0  0  0  0  0  0  0  0  0  0  0  0
    6.2817   -1.4023   -1.1259 H   0  0  0  0  0  0  0  0  0  0  0  0
  1  2  1  0
  2  3  2  0
  3  4  1  0
  4  5  2  0
  5  6  1  0
  6  7  2  3
  7  8  1  0
  8  9  1  0
  9 10  1  0
 10 11  2  0
 11 12  1  0
 12 13  1  0
 13 14  2  3
 13 15  1  0
 15 16  1  0
 16 17  3  0
 15 18  1  0
 18 19  1  0
 19 20  2  0
 20 21  1  0
 21 22  2  0
 22 23  1  0
 22 24  1  0
 24 25  2  0
  5 26  1  0
 26 27  2  0
 27  2  1  0
 11  7  1  0
 25 19  1  0
 18 10  1  0
  1 28  1  0
  1 29  1  0
  1 30  1  0
  3 31  1  0
  4 32  1  0
  6 33  1  0
  8 34  1  0
  8 35  1  0
  9 36  1  0
  9 37  1  0
 14 38  1  0
 15 39  1  0
 18 40  1  0
 20 41  1  0
 21 42  1  0
 23 43  1  0
 23 44  1  0
 23 45  1  0
 24 46  1  0
 25 47  1  0
 26 48  1  0
 27 49  1  0
M  END
$$$$
