
     RDKit          3D

 61 64  0  0  0  0  0  0  0  0999 V2000
    8.9533   -1.7479   -1.2010 C   0  0  0  0  0  0  0  0  0  0  0  0
    7.6348   -2.3199   -0.7429 C   0  0  0  0  0  0  0  0  0  0  0  0
    7.2620   -3.4238   -1.1195 O   0  0  0  0  0  0  0  0  0  0  0  0
    6.9624   -1.4530    0.1008 N   0  0  0  0  0  0  0  0  0  0  0  0
    5.6972   -1.6400    0.6954 C   0  0  0  0  0  0  0  0  0  0  0  0
    5.2064   -0.5958    1.4933 C   0  0  0  0  0  0  0  0  0  0  0  0
    3.9547   -0.6941    2.1056 C   0  0  0  0  0  0  0  0  0  0  0  0
    3.1869   -1.8441    1.9175 C   0  0  0  0  0  0  0  0  0  0  0  0
    1.5850   -1.9439    2.6748 S   0  0  0  0  0  6  0  0  0  0  0  0
    1.7644   -1.7081    4.0911 O   0  0  0  0  0  0  0  0  0  0  0  0
    0.9073   -3.1257    2.1850 O   0  0  0  0  0  0  0  0  0  0  0  0
    0.7791   -0.5961    2.0142 N   0  0  0  0  0  0  0  0  0  0  0  0
    0.5359   -0.6504    0.5270 C   0  0  0  0  0  0  0  0  0  0  0  0
   -0.9400   -0.9236    0.1982 C   0  0  0  0  0  0  0  0  0  0  0  0
   -1.8356    0.1506    0.7107 N   0  0  0  0  0  0  0  0  0  0  0  0
   -2.1539    1.0858   -0.2291 C   0  0  0  0  0  0  0  0  0  0  0  0
   -1.3484    1.5892   -1.1358 N   0  0  0  0  0  0  0  0  0  0  0  0
   -2.0839    2.5324   -1.8010 C   0  0  0  0  0  0  0  0  0  0  0  0
   -1.6958    3.3876   -2.8441 C   0  0  0  0  0  0  0  0  0  0  0  0
   -2.6332    4.2880   -3.3639 C   0  0  0  0  0  0  0  0  0  0  0  0
   -3.9302    4.3400   -2.8504 C   0  0  0  0  0  0  0  0  0  0  0  0
   -4.3330    3.4957   -1.8100 C   0  0  0  0  0  0  0  0  0  0  0  0
   -3.3846    2.5933   -1.3097 C   0  0  0  0  0  0  0  0  0  0  0  0
   -3.4212    1.6161   -0.3360 N   0  0  0  0  0  0  0  0  0  0  0  0
   -4.5786    1.2561    0.4599 C   0  0  0  0  0  0  0  0  0  0  0  0
   -5.4579    0.1090   -0.0796 C   0  0  0  0  0  0  0  0  0  0  0  0
   -4.7301   -1.2335   -0.1279 C   0  0  0  0  0  0  0  0  0  0  0  0
   -6.0806    0.4191   -1.4401 C   0  0  0  0  0  0  0  0  0  0  0  0
   -1.3394    0.7524    1.9813 C   0  0  0  0  0  0  0  0  0  0  0  0
   -0.4566   -0.2199    2.7811 C   0  0  0  0  0  0  0  0  0  0  0  0
    3.6643   -2.8961    1.1371 C   0  0  0  0  0  0  0  0  0  0  0  0
    4.9197   -2.7892    0.5278 C   0  0  0  0  0  0  0  0  0  0  0  0
    9.5755   -1.4992   -0.3367 H   0  0  0  0  0  0  0  0  0  0  0  0
    9.4816   -2.4866   -1.8114 H   0  0  0  0  0  0  0  0  0  0  0  0
    8.7780   -0.8526   -1.8043 H   0  0  0  0  0  0  0  0  0  0  0  0
    7.4185   -0.5697    0.2933 H   0  0  0  0  0  0  0  0  0  0  0  0
    5.7875    0.3098    1.6469 H   0  0  0  0  0  0  0  0  0  0  0  0
    3.5812    0.1223    2.7193 H   0  0  0  0  0  0  0  0  0  0  0  0
    0.8576    0.3112    0.1101 H   0  0  0  0  0  0  0  0  0  0  0  0
    1.1559   -1.4176    0.0540 H   0  0  0  0  0  0  0  0  0  0  0  0
   -1.2534   -1.8684    0.6599 H   0  0  0  0  0  0  0  0  0  0  0  0
   -1.0634   -1.0613   -0.8841 H   0  0  0  0  0  0  0  0  0  0  0  0
   -0.6837    3.3437   -3.2328 H   0  0  0  0  0  0  0  0  0  0  0  0
   -2.3449    4.9514   -4.1744 H   0  0  0  0  0  0  0  0  0  0  0  0
   -4.6441    5.0481   -3.2706 H   0  0  0  0  0  0  0  0  0  0  0  0
   -5.3436    3.5417   -1.4212 H   0  0  0  0  0  0  0  0  0  0  0  0
   -4.2308    1.0079    1.4682 H   0  0  0  0  0  0  0  0  0  0  0  0
   -5.1862    2.1615    0.5750 H   0  0  0  0  0  0  0  0  0  0  0  0
   -6.2862   -0.0030    0.6331 H   0  0  0  0  0  0  0  0  0  0  0  0
   -5.4323   -2.0394   -0.3674 H   0  0  0  0  0  0  0  0  0  0  0  0
   -3.9475   -1.2432   -0.8919 H   0  0  0  0  0  0  0  0  0  0  0  0
   -4.2778   -1.4710    0.8394 H   0  0  0  0  0  0  0  0  0  0  0  0
   -6.6352    1.3615   -1.4105 H   0  0  0  0  0  0  0  0  0  0  0  0
   -5.3238    0.4846   -2.2278 H   0  0  0  0  0  0  0  0  0  0  0  0
   -6.7862   -0.3684   -1.7263 H   0  0  0  0  0  0  0  0  0  0  0  0
   -2.1988    1.0420    2.5964 H   0  0  0  0  0  0  0  0  0  0  0  0
   -0.7589    1.6632    1.7741 H   0  0  0  0  0  0  0  0  0  0  0  0
   -1.0350   -1.1192    3.0283 H   0  0  0  0  0  0  0  0  0  0  0  0
   -0.1503    0.2644    3.7156 H   0  0  0  0  0  0  0  0  0  0  0  0
    3.0750   -3.7985    0.9920 H   0  0  0  0  0  0  0  0  0  0  0  0
    5.2607   -3.6253   -0.0751 H   0  0  0  0  0  0  0  0  0  0  0  0
  1  2  1  0
  2  3  2  0
  2  4  1  0
  4  5  1  0
  5  6  2  0
  6  7  1  0
  7  8  2  0
  8  9  1  0
  9 10  2  0
  9 11  2  0
  9 12  1  0
 12 13  1  0
 13 14  1  0
 14 15  1  0
 15 16  1  0
 16 17  2  0
 17 18  1  0
 18 19  2  0
 19 20  1  0
 20 21  2  0
 21 22  1  0
 22 23  2  0
 23 24  1  0
 24 25  1  0
 25 26  1  0
 26 27  1  0
 26 28  1  0
 15 29  1  0
 29 30  1  0
  8 31  1  0
 31 32  2  0
 32  5  1  0
 30 12  1  0
 24 16  1  0
 23 18  1  0
  1 33  1  0
  1 34  1  0
  1 35  1  0
  4 36  1  0
  6 37  1  0
  7 38  1  0
 13 39  1  0
 13 40  1  0
 14 41  1  0
 14 42  1  0
 19 43  1  0
 20 44  1  0
 21 45  1  0
 22 46  1  0
 25 47  1  0
 25 48  1  0
 26 49  1  0
 27 50  1  0
 27 51  1  0
 27 52  1  0
 28 53  1  0
 28 54  1  0
 28 55  1  0
 29 56  1  0
 29 57  1  0
 30 58  1  0
 30 59  1  0
 31 60  1  0
 32 61  1  0
M  END
$$$$
