
     RDKit          3D

 51 53  0  0  0  0  0  0  0  0999 V2000
    9.2710   -0.3267   -0.3208 C   0  0  0  0  0  0  0  0  0  0  0  0
    8.3211   -1.1898   -0.9342 O   0  0  0  0  0  0  0  0  0  0  0  0
    7.0255   -1.0907   -0.3378 C   0  0  0  0  0  0  0  0  0  0  0  0
    6.2366    0.0930   -0.9063 C   0  0  0  0  0  0  0  0  0  0  0  0
    4.8598    0.1294   -0.4561 N   0  0  0  0  0  0  0  0  0  0  0  0
    4.5321    0.5216    0.8283 C   0  0  0  0  0  0  0  0  0  0  0  0
    5.3992    0.7876    1.6567 O   0  0  0  0  0  0  0  0  0  0  0  0
    3.1013    0.6157    1.0775 C   0  0  0  0  0  0  0  0  0  0  0  0
    2.5408    1.9585    1.9842 S   0  0  0  0  0  0  0  0  0  0  0  0
    0.9153    1.4985    1.8052 C   0  0  0  0  0  0  0  0  0  0  0  0
   -0.0904    2.2513    2.3171 N   0  0  0  0  0  0  0  0  0  0  0  0
   -1.2732    1.7689    2.1117 C   0  0  0  0  0  0  0  0  0  0  0  0
   -1.5578    0.5828    1.4634 N   0  0  0  0  0  0  0  0  0  0  0  0
   -2.9405    0.1725    1.2724 C   0  0  0  0  0  0  0  0  0  0  0  0
   -3.4980    0.7551   -0.0339 C   0  0  0  0  0  0  0  0  0  0  0  0
   -2.8541    1.5839   -0.6816 O   0  0  0  0  0  0  0  0  0  0  0  0
   -4.7845    0.3556   -0.4147 N   0  0  0  0  0  0  0  0  0  0  0  0
   -5.2358    0.7780   -1.7425 C   0  0  0  0  0  0  0  0  0  0  0  0
   -6.7544    0.8690   -1.8436 C   0  0  0  0  0  0  0  0  0  0  0  0
   -7.4185   -0.4193   -1.3743 C   0  0  0  0  0  0  0  0  0  0  0  0
   -6.9639   -0.7551    0.0402 C   0  0  0  0  0  0  0  0  0  0  0  0
   -5.4432   -0.8301    0.1383 C   0  0  0  0  0  0  0  0  0  0  0  0
   -0.5553   -0.1933    0.8883 C   0  0  0  0  0  0  0  0  0  0  0  0
   -0.7786   -1.2250    0.2590 O   0  0  0  0  0  0  0  0  0  0  0  0
    0.7905    0.3189    1.1055 C   0  0  0  0  0  0  0  0  0  0  0  0
    2.0623   -0.2309    0.7003 C   0  0  0  0  0  0  0  0  0  0  0  0
    2.2137   -1.5388   -0.0130 C   0  0  0  0  0  0  0  0  0  0  0  0
   10.2342   -0.4725   -0.8174 H   0  0  0  0  0  0  0  0  0  0  0  0
    8.9804    0.7212   -0.4336 H   0  0  0  0  0  0  0  0  0  0  0  0
    9.3861   -0.5751    0.7386 H   0  0  0  0  0  0  0  0  0  0  0  0
    6.4956   -2.0192   -0.5794 H   0  0  0  0  0  0  0  0  0  0  0  0
    7.1052   -1.0501    0.7546 H   0  0  0  0  0  0  0  0  0  0  0  0
    6.2238    0.0382   -2.0003 H   0  0  0  0  0  0  0  0  0  0  0  0
    6.7150    1.0416   -0.6408 H   0  0  0  0  0  0  0  0  0  0  0  0
    4.1249    0.1025   -1.1503 H   0  0  0  0  0  0  0  0  0  0  0  0
   -2.1584    2.3148    2.4766 H   0  0  0  0  0  0  0  0  0  0  0  0
   -3.5479    0.5454    2.1039 H   0  0  0  0  0  0  0  0  0  0  0  0
   -2.9854   -0.9199    1.2401 H   0  0  0  0  0  0  0  0  0  0  0  0
   -4.8029    1.7502   -2.0019 H   0  0  0  0  0  0  0  0  0  0  0  0
   -4.8485    0.0471   -2.4631 H   0  0  0  0  0  0  0  0  0  0  0  0
   -7.1101    1.7033   -1.2260 H   0  0  0  0  0  0  0  0  0  0  0  0
   -7.0461    1.0853   -2.8773 H   0  0  0  0  0  0  0  0  0  0  0  0
   -7.1604   -1.2408   -2.0535 H   0  0  0  0  0  0  0  0  0  0  0  0
   -8.5082   -0.3077   -1.3992 H   0  0  0  0  0  0  0  0  0  0  0  0
   -7.3324    0.0167    0.7276 H   0  0  0  0  0  0  0  0  0  0  0  0
   -7.4040   -1.7064    0.3593 H   0  0  0  0  0  0  0  0  0  0  0  0
   -5.1718   -0.9653    1.1884 H   0  0  0  0  0  0  0  0  0  0  0  0
   -5.0640   -1.6982   -0.4139 H   0  0  0  0  0  0  0  0  0  0  0  0
    1.9808   -1.4192   -1.0758 H   0  0  0  0  0  0  0  0  0  0  0  0
    3.2282   -1.9381    0.0782 H   0  0  0  0  0  0  0  0  0  0  0  0
    1.5446   -2.2944    0.4106 H   0  0  0  0  0  0  0  0  0  0  0  0
  1  2  1  0
  2  3  1  0
  3  4  1  0
  4  5  1  0
  5  6  1  0
  6  7  2  0
  6  8  1  0
  8  9  1  0
  9 10  1  0
 10 11  1  0
 11 12  2  0
 12 13  1  0
 13 14  1  0
 14 15  1  0
 15 16  2  0
 15 17  1  0
 17 18  1  0
 18 19  1  0
 19 20  1  0
 20 21  1  0
 21 22  1  0
 13 23  1  0
 23 24  2  0
 23 25  1  0
 25 26  1  0
 26 27  1  0
 26  8  2  0
 25 10  2  0
 22 17  1  0
  1 28  1  0
  1 29  1  0
  1 30  1  0
  3 31  1  0
  3 32  1  0
  4 33  1  0
  4 34  1  0
  5 35  1  0
 12 36  1  0
 14 37  1  0
 14 38  1  0
 18 39  1  0
 18 40  1  0
 19 41  1  0
 19 42  1  0
 20 43  1  0
 20 44  1  0
 21 45  1  0
 21 46  1  0
 22 47  1  0
 22 48  1  0
 27 49  1  0
 27 50  1  0
 27 51  1  0
M  END
$$$$
