
     RDKit          3D

 48 53  0  0  0  0  0  0  0  0999 V2000
    3.2195   -0.6594   -1.4624 O   0  0  0  0  0  0  0  0  0  0  0  0
    3.3441   -0.3848   -0.2733 C   0  0  0  0  0  0  0  0  0  0  0  0
    2.2898   -0.1585    0.5728 N   0  0  0  0  0  0  0  0  0  0  0  0
    1.0059   -0.2581    0.1387 N   0  0  0  0  0  0  0  0  0  0  0  0
    0.0596   -0.9389    0.8817 C   0  0  0  0  0  0  0  0  0  0  0  0
    0.3674   -1.7897    1.8580 O   0  0  0  0  0  0  0  0  0  0  0  0
   -1.1585   -0.5147    0.4140 C   0  0  0  0  0  0  0  0  0  0  0  0
   -0.9206    0.4185   -0.6674 C   0  0  0  0  0  0  0  0  0  0  0  0
    0.4362    0.5322   -0.8421 C   0  0  0  0  0  0  0  0  0  0  0  0
    1.1363    1.2226   -1.7391 O   0  0  0  0  0  0  0  0  0  0  0  0
   -2.1564    0.9848   -1.3259 C   0  0  0  0  0  0  0  0  0  0  0  0
   -2.8890    1.5713   -0.1045 C   0  0  0  0  0  0  0  0  0  0  0  0
   -3.3137    2.8908   -0.0012 C   0  0  0  0  0  0  0  0  0  0  0  0
   -3.9714    3.2948    1.1631 C   0  0  0  0  0  0  0  0  0  0  0  0
   -4.2032    2.3919    2.2133 C   0  0  0  0  0  0  0  0  0  0  0  0
   -3.7826    1.0627    2.1252 C   0  0  0  0  0  0  0  0  0  0  0  0
   -3.1261    0.6449    0.9734 C   0  0  0  0  0  0  0  0  0  0  0  0
   -2.6101   -0.7860    0.7345 C   0  0  0  0  0  0  0  0  0  0  0  0
   -3.1326   -1.2335   -0.6425 C   0  0  0  0  0  0  0  0  0  0  0  0
   -3.7942   -2.4325   -0.8814 C   0  0  0  0  0  0  0  0  0  0  0  0
   -4.2190   -2.7172   -2.1813 C   0  0  0  0  0  0  0  0  0  0  0  0
   -3.9863   -1.8152   -3.2319 C   0  0  0  0  0  0  0  0  0  0  0  0
   -3.3237   -0.6059   -3.0084 C   0  0  0  0  0  0  0  0  0  0  0  0
   -2.8947   -0.3076   -1.7203 C   0  0  0  0  0  0  0  0  0  0  0  0
    4.7057   -0.2628    0.3171 C   0  0  0  0  0  0  0  0  0  0  0  0
    5.7408   -1.0169   -0.2544 C   0  0  0  0  0  0  0  0  0  0  0  0
    7.0373   -0.9405    0.2614 C   0  0  0  0  0  0  0  0  0  0  0  0
    7.3025   -0.1029    1.3426 C   0  0  0  0  0  0  0  0  0  0  0  0
    8.8971   -0.0062    1.9790 Cl  0  0  0  0  0  0  0  0  0  0  0  0
    6.2839    0.6640    1.9079 C   0  0  0  0  0  0  0  0  0  0  0  0
    4.9844    0.5891    1.3948 C   0  0  0  0  0  0  0  0  0  0  0  0
    2.3751    0.1580    1.5271 H   0  0  0  0  0  0  0  0  0  0  0  0
    1.3023   -2.0390    1.7469 H   0  0  0  0  0  0  0  0  0  0  0  0
    1.9754    0.7332   -1.8837 H   0  0  0  0  0  0  0  0  0  0  0  0
   -1.9700    1.6858   -2.1411 H   0  0  0  0  0  0  0  0  0  0  0  0
   -3.1389    3.5981   -0.8060 H   0  0  0  0  0  0  0  0  0  0  0  0
   -4.3098    4.3240    1.2585 H   0  0  0  0  0  0  0  0  0  0  0  0
   -4.7184    2.7339    3.1079 H   0  0  0  0  0  0  0  0  0  0  0  0
   -3.9672    0.3741    2.9439 H   0  0  0  0  0  0  0  0  0  0  0  0
   -2.7821   -1.4883    1.5518 H   0  0  0  0  0  0  0  0  0  0  0  0
   -3.9777   -3.1391   -0.0781 H   0  0  0  0  0  0  0  0  0  0  0  0
   -4.7363   -3.6520   -2.3847 H   0  0  0  0  0  0  0  0  0  0  0  0
   -4.3260   -2.0635   -4.2348 H   0  0  0  0  0  0  0  0  0  0  0  0
   -3.1467    0.0820   -3.8292 H   0  0  0  0  0  0  0  0  0  0  0  0
    5.5409   -1.6684   -1.1040 H   0  0  0  0  0  0  0  0  0  0  0  0
    7.8319   -1.5318   -0.1870 H   0  0  0  0  0  0  0  0  0  0  0  0
    6.4984    1.3297    2.7408 H   0  0  0  0  0  0  0  0  0  0  0  0
    4.2206    1.2267    1.8305 H   0  0  0  0  0  0  0  0  0  0  0  0
  1  2  2  0
  2  3  1  0
  3  4  1  0
  4  5  1  0
  5  6  1  0
  5  7  2  0
  7  8  1  0
  8  9  2  0
  9 10  1  0
  8 11  1  0
 11 12  1  0
 12 13  2  0
 13 14  1  0
 14 15  2  0
 15 16  1  0
 16 17  2  0
 17 18  1  0
 18 19  1  0
 19 20  2  0
 20 21  1  0
 21 22  2  0
 22 23  1  0
 23 24  2  0
  2 25  1  0
 25 26  2  0
 26 27  1  0
 27 28  2  0
 28 29  1  0
 28 30  1  0
 30 31  2  0
  9  4  1  0
 24 11  1  0
 31 25  1  0
 18  7  1  0
 24 19  1  0
 17 12  1  0
  3 32  1  0
  6 33  1  0
 10 34  1  0
 11 35  1  0
 13 36  1  0
 14 37  1  0
 15 38  1  0
 16 39  1  0
 18 40  1  0
 20 41  1  0
 21 42  1  0
 22 43  1  0
 23 44  1  0
 26 45  1  0
 27 46  1  0
 30 47  1  0
 31 48  1  0
M  END
$$$$
