
     RDKit          3D

 46 48  0  0  0  0  0  0  0  0999 V2000
    3.8948   -0.1886    2.9204 O   0  0  0  0  0  0  0  0  0  0  0  0
    3.3637   -0.5672    1.8817 C   0  0  0  0  0  0  0  0  0  0  0  0
    4.1709   -1.2641    0.7951 C   0  0  0  0  0  0  0  0  0  0  0  0
    4.0875   -0.5805   -0.5512 C   0  0  0  0  0  0  0  0  0  0  0  0
    4.5843    0.7219   -0.7149 C   0  0  0  0  0  0  0  0  0  0  0  0
    4.4660    1.3728   -1.9443 C   0  0  0  0  0  0  0  0  0  0  0  0
    3.8578    0.7235   -3.0165 C   0  0  0  0  0  0  0  0  0  0  0  0
    3.6916    1.5335   -4.5248 Cl  0  0  0  0  0  0  0  0  0  0  0  0
    3.3748   -0.5750   -2.8723 C   0  0  0  0  0  0  0  0  0  0  0  0
    3.4920   -1.2280   -1.6436 C   0  0  0  0  0  0  0  0  0  0  0  0
    2.0277   -0.3716    1.5314 N   0  0  0  0  0  0  0  0  0  0  0  0
    0.9209   -0.1620    2.3253 C   0  0  0  0  0  0  0  0  0  0  0  0
    0.8514   -0.3005    3.9884 S   0  0  0  0  0  0  0  0  0  0  0  0
   -0.2490    0.1003    1.6666 N   0  0  0  0  0  0  0  0  0  0  0  0
   -0.5442    0.5534    0.3610 C   0  0  0  0  0  0  0  0  0  0  0  0
    0.3890    1.1321   -0.5025 C   0  0  0  0  0  0  0  0  0  0  0  0
   -0.0002    1.5535   -1.7751 C   0  0  0  0  0  0  0  0  0  0  0  0
   -1.3240    1.4156   -2.1838 C   0  0  0  0  0  0  0  0  0  0  0  0
   -2.2723    0.8768   -1.3129 C   0  0  0  0  0  0  0  0  0  0  0  0
   -1.9033    0.4564   -0.0276 C   0  0  0  0  0  0  0  0  0  0  0  0
   -2.8305   -0.0849    0.8936 N   0  0  0  0  0  0  0  0  0  0  0  0
   -3.2931   -1.4493    0.5384 C   0  0  0  0  0  0  0  0  0  0  0  0
   -4.7844   -1.4633    0.1670 C   0  0  0  0  0  0  0  0  0  0  0  0
   -5.6420   -0.9508    1.1988 O   0  0  0  0  0  0  0  0  0  0  0  0
   -5.0243    0.0674    2.0038 C   0  0  0  0  0  0  0  0  0  0  0  0
   -3.9264    0.8430    1.2600 C   0  0  0  0  0  0  0  0  0  0  0  0
    3.8179   -2.3004    0.7312 H   0  0  0  0  0  0  0  0  0  0  0  0
    5.2215   -1.3086    1.1069 H   0  0  0  0  0  0  0  0  0  0  0  0
    5.0581    1.2415    0.1177 H   0  0  0  0  0  0  0  0  0  0  0  0
    4.8474    2.3845   -2.0568 H   0  0  0  0  0  0  0  0  0  0  0  0
    2.9060   -1.0834   -3.7111 H   0  0  0  0  0  0  0  0  0  0  0  0
    3.1092   -2.2430   -1.5492 H   0  0  0  0  0  0  0  0  0  0  0  0
    1.7791   -0.6559    0.5956 H   0  0  0  0  0  0  0  0  0  0  0  0
   -1.0934   -0.0262    2.2259 H   0  0  0  0  0  0  0  0  0  0  0  0
    1.4116    1.3262   -0.1987 H   0  0  0  0  0  0  0  0  0  0  0  0
    0.7288    2.0086   -2.4419 H   0  0  0  0  0  0  0  0  0  0  0  0
   -1.6231    1.7491   -3.1744 H   0  0  0  0  0  0  0  0  0  0  0  0
   -3.3015    0.7941   -1.6487 H   0  0  0  0  0  0  0  0  0  0  0  0
   -2.6985   -1.8924   -0.2703 H   0  0  0  0  0  0  0  0  0  0  0  0
   -3.1442   -2.0761    1.4264 H   0  0  0  0  0  0  0  0  0  0  0  0
   -5.1074   -2.4878   -0.0456 H   0  0  0  0  0  0  0  0  0  0  0  0
   -4.9631   -0.8730   -0.7389 H   0  0  0  0  0  0  0  0  0  0  0  0
   -4.6152   -0.4176    2.8978 H   0  0  0  0  0  0  0  0  0  0  0  0
   -5.8144    0.7504    2.3319 H   0  0  0  0  0  0  0  0  0  0  0  0
   -4.3688    1.3122    0.3732 H   0  0  0  0  0  0  0  0  0  0  0  0
   -3.5288    1.6335    1.9069 H   0  0  0  0  0  0  0  0  0  0  0  0
  1  2  2  0
  2  3  1  0
  3  4  1  0
  4  5  2  0
  5  6  1  0
  6  7  2  0
  7  8  1  0
  7  9  1  0
  9 10  2  0
  2 11  1  0
 11 12  1  0
 12 13  2  0
 12 14  1  0
 14 15  1  0
 15 16  2  0
 16 17  1  0
 17 18  2  0
 18 19  1  0
 19 20  2  0
 20 21  1  0
 21 22  1  0
 22 23  1  0
 23 24  1  0
 24 25  1  0
 25 26  1  0
 10  4  1  0
 20 15  1  0
 26 21  1  0
  3 27  1  0
  3 28  1  0
  5 29  1  0
  6 30  1  0
  9 31  1  0
 10 32  1  0
 11 33  1  0
 14 34  1  0
 16 35  1  0
 17 36  1  0
 18 37  1  0
 19 38  1  0
 22 39  1  0
 22 40  1  0
 23 41  1  0
 23 42  1  0
 25 43  1  0
 25 44  1  0
 26 45  1  0
 26 46  1  0
M  END
$$$$
