
     RDKit          3D

 36 37  0  0  0  0  0  0  0  0999 V2000
    4.2489    0.5402    1.3737 C   0  0  0  0  0  0  0  0  0  0  0  0
    3.5398   -0.0928    0.2919 N   0  0  0  0  0  0  0  0  0  0  0  0
    3.5442    0.4404   -0.9812 C   0  0  0  0  0  0  0  0  0  0  0  0
    4.1114    1.4893   -1.2733 O   0  0  0  0  0  0  0  0  0  0  0  0
    2.8344   -0.4223   -2.0282 C   0  0  0  0  0  0  0  0  0  0  0  0
    1.8712   -1.3303   -1.4848 O   0  0  0  0  0  0  0  0  0  0  0  0
    0.6850   -0.7608   -1.1528 C   0  0  0  0  0  0  0  0  0  0  0  0
    0.4102    0.4243   -1.2742 O   0  0  0  0  0  0  0  0  0  0  0  0
   -0.2533   -1.7637   -0.5642 C   0  0  0  0  0  0  0  0  0  0  0  0
    0.0498   -3.1361   -0.6472 C   0  0  0  0  0  0  0  0  0  0  0  0
   -0.8069   -4.0848   -0.0933 C   0  0  0  0  0  0  0  0  0  0  0  0
   -1.9701   -3.6721    0.5447 C   0  0  0  0  0  0  0  0  0  0  0  0
   -2.2859   -2.3123    0.6290 C   0  0  0  0  0  0  0  0  0  0  0  0
   -1.4434   -1.3382    0.0785 C   0  0  0  0  0  0  0  0  0  0  0  0
   -1.7440    0.0476    0.1424 N   0  0  0  0  0  0  0  0  0  0  0  0
   -2.8199    0.6852    0.7418 C   0  0  0  0  0  0  0  0  0  0  0  0
   -3.7093    0.1009    1.3541 O   0  0  0  0  0  0  0  0  0  0  0  0
   -2.8072    2.1363    0.5899 C   0  0  0  0  0  0  0  0  0  0  0  0
   -1.9470    3.0295   -0.0315 C   0  0  0  0  0  0  0  0  0  0  0  0
   -2.4787    4.3280    0.1703 C   0  0  0  0  0  0  0  0  0  0  0  0
   -3.6288    4.1590    0.8999 C   0  0  0  0  0  0  0  0  0  0  0  0
   -3.8369    2.8450    1.1585 O   0  0  0  0  0  0  0  0  0  0  0  0
    5.3067    0.2752    1.2994 H   0  0  0  0  0  0  0  0  0  0  0  0
    3.8411    0.1731    2.3182 H   0  0  0  0  0  0  0  0  0  0  0  0
    4.1404    1.6266    1.3169 H   0  0  0  0  0  0  0  0  0  0  0  0
    3.2108   -1.0433    0.4093 H   0  0  0  0  0  0  0  0  0  0  0  0
    3.5999   -1.0234   -2.5299 H   0  0  0  0  0  0  0  0  0  0  0  0
    2.3723    0.2247   -2.7830 H   0  0  0  0  0  0  0  0  0  0  0  0
    0.9497   -3.4856   -1.1477 H   0  0  0  0  0  0  0  0  0  0  0  0
   -0.5698   -5.1440   -0.1609 H   0  0  0  0  0  0  0  0  0  0  0  0
   -2.6449   -4.4071    0.9788 H   0  0  0  0  0  0  0  0  0  0  0  0
   -3.2120   -2.0519    1.1331 H   0  0  0  0  0  0  0  0  0  0  0  0
   -1.0714    0.6488   -0.3309 H   0  0  0  0  0  0  0  0  0  0  0  0
   -1.0400    2.7899   -0.5701 H   0  0  0  0  0  0  0  0  0  0  0  0
   -2.0725    5.2688   -0.1740 H   0  0  0  0  0  0  0  0  0  0  0  0
   -4.3738    4.8358    1.2950 H   0  0  0  0  0  0  0  0  0  0  0  0
  1  2  1  0
  2  3  1  0
  3  4  2  0
  3  5  1  0
  5  6  1  0
  6  7  1  0
  7  8  2  0
  7  9  1  0
  9 10  2  0
 10 11  1  0
 11 12  2  0
 12 13  1  0
 13 14  2  0
 14 15  1  0
 15 16  1  0
 16 17  2  0
 16 18  1  0
 18 19  2  0
 19 20  1  0
 20 21  2  0
 21 22  1  0
 14  9  1  0
 22 18  1  0
  1 23  1  0
  1 24  1  0
  1 25  1  0
  2 26  1  0
  5 27  1  0
  5 28  1  0
 10 29  1  0
 11 30  1  0
 12 31  1  0
 13 32  1  0
 15 33  1  0
 19 34  1  0
 20 35  1  0
 21 36  1  0
M  END
$$$$
