
     RDKit          3D

 34 36  0  0  0  0  0  0  0  0999 V2000
    1.3075   -2.9773    0.1093 S   0  0  0  0  0  0  0  0  0  0  0  0
    1.6558   -1.3885    0.5355 C   0  0  0  0  0  0  0  0  0  0  0  0
    0.7121   -0.4049    0.6353 N   0  0  0  0  0  0  0  0  0  0  0  0
    0.4725    0.3553   -0.3851 C   0  0  0  0  0  0  0  0  0  0  0  0
    1.3443    0.3092   -1.9565 S   0  0  0  0  0  0  0  0  0  0  0  0
    0.3610    1.6041   -2.5875 C   0  0  0  0  0  0  0  0  0  0  0  0
   -0.5255    2.0216   -1.6763 C   0  0  0  0  0  0  0  0  0  0  0  0
   -0.4808    1.3660   -0.4543 N   0  0  0  0  0  0  0  0  0  0  0  0
   -1.4274    1.5981    0.6280 C   0  0  0  0  0  0  0  0  0  0  0  0
   -2.7593    0.9381    0.3477 C   0  0  0  0  0  0  0  0  0  0  0  0
   -3.8639    1.6983   -0.0656 C   0  0  0  0  0  0  0  0  0  0  0  0
   -5.0879    1.0820   -0.3325 C   0  0  0  0  0  0  0  0  0  0  0  0
   -5.2203   -0.2982   -0.1929 C   0  0  0  0  0  0  0  0  0  0  0  0
   -4.1299   -1.0645    0.2130 C   0  0  0  0  0  0  0  0  0  0  0  0
   -2.9057   -0.4510    0.4818 C   0  0  0  0  0  0  0  0  0  0  0  0
    2.8991   -0.9387    0.9189 N   0  0  0  0  0  0  0  0  0  0  0  0
    4.1090   -1.6944    0.9595 C   0  0  0  0  0  0  0  0  0  0  0  0
    5.4388   -1.0002    0.8327 C   0  0  0  0  0  0  0  0  0  0  0  0
    4.9449   -1.8795   -0.2768 C   0  0  0  0  0  0  0  0  0  0  0  0
    0.4669    1.9876   -3.5923 H   0  0  0  0  0  0  0  0  0  0  0  0
   -1.2631    2.8001   -1.8232 H   0  0  0  0  0  0  0  0  0  0  0  0
   -1.0411    1.2371    1.5895 H   0  0  0  0  0  0  0  0  0  0  0  0
   -1.5680    2.6783    0.7647 H   0  0  0  0  0  0  0  0  0  0  0  0
   -3.7797    2.7759   -0.1841 H   0  0  0  0  0  0  0  0  0  0  0  0
   -5.9391    1.6778   -0.6519 H   0  0  0  0  0  0  0  0  0  0  0  0
   -6.1724   -0.7783   -0.4032 H   0  0  0  0  0  0  0  0  0  0  0  0
   -4.2291   -2.1421    0.3174 H   0  0  0  0  0  0  0  0  0  0  0  0
   -2.0626   -1.0663    0.7927 H   0  0  0  0  0  0  0  0  0  0  0  0
    2.9237    0.0263    1.2212 H   0  0  0  0  0  0  0  0  0  0  0  0
    4.0704   -2.5242    1.6625 H   0  0  0  0  0  0  0  0  0  0  0  0
    6.2589   -1.3644    1.4406 H   0  0  0  0  0  0  0  0  0  0  0  0
    5.4571    0.0684    0.6557 H   0  0  0  0  0  0  0  0  0  0  0  0
    5.4200   -2.8429   -0.4205 H   0  0  0  0  0  0  0  0  0  0  0  0
    4.6137   -1.4087   -1.1953 H   0  0  0  0  0  0  0  0  0  0  0  0
  1  2  2  0
  2  3  1  0
  3  4  2  3
  4  5  1  0
  5  6  1  0
  6  7  2  0
  7  8  1  0
  8  9  1  0
  9 10  1  0
 10 11  2  0
 11 12  1  0
 12 13  2  0
 13 14  1  0
 14 15  2  0
  2 16  1  0
 16 17  1  0
 17 18  1  0
 18 19  1  0
  8  4  1  0
 15 10  1  0
 19 17  1  0
  6 20  1  0
  7 21  1  0
  9 22  1  0
  9 23  1  0
 11 24  1  0
 12 25  1  0
 13 26  1  0
 14 27  1  0
 15 28  1  0
 16 29  1  0
 17 30  1  0
 18 31  1  0
 18 32  1  0
 19 33  1  0
 19 34  1  0
M  END
$$$$
