
     RDKit          3D

 49 50  0  0  0  0  0  0  0  0999 V2000
   -5.4534   -2.8357    1.5485 C   0  0  0  0  0  0  0  0  0  0  0  0
   -6.1308   -1.5961    1.3978 O   0  0  0  0  0  0  0  0  0  0  0  0
   -5.4291   -0.5451    0.8605 C   0  0  0  0  0  0  0  0  0  0  0  0
   -4.1024   -0.6211    0.4172 C   0  0  0  0  0  0  0  0  0  0  0  0
   -3.4548    0.5040   -0.1115 C   0  0  0  0  0  0  0  0  0  0  0  0
   -2.0721    0.3657   -0.5884 C   0  0  0  0  0  0  0  0  0  0  0  0
   -1.1369    1.3196   -0.4642 C   0  0  0  0  0  0  0  0  0  0  0  0
    0.2328    1.0733   -0.9576 C   0  0  0  0  0  0  0  0  0  0  0  0
    0.6252    0.0378   -1.4695 O   0  0  0  0  0  0  0  0  0  0  0  0
    0.9598    2.2008   -0.7618 O   0  0  0  0  0  0  0  0  0  0  0  0
    2.3373    2.0531   -1.1000 C   0  0  0  0  0  0  0  0  0  0  0  0
    3.1133    1.2107   -0.0826 C   0  0  0  0  0  0  0  0  0  0  0  0
    2.7460    1.0645    1.0807 O   0  0  0  0  0  0  0  0  0  0  0  0
    4.2774    0.6621   -0.5811 N   0  0  0  0  0  0  0  0  0  0  0  0
    5.0356   -0.2962    0.2057 C   0  0  0  0  0  0  0  0  0  0  0  0
    6.4244   -0.5143   -0.3906 C   0  0  0  0  0  0  0  0  0  0  0  0
    7.2459   -1.5492    0.3581 C   0  0  0  0  0  0  0  0  0  0  0  0
    8.1806   -2.0328   -0.7221 C   0  0  0  0  0  0  0  0  0  0  0  0
    7.2779   -2.0420   -1.9374 C   0  0  0  0  0  0  0  0  0  0  0  0
    6.3104   -0.9976   -1.7483 O   0  0  0  0  0  0  0  0  0  0  0  0
   -4.1638    1.7044   -0.2170 C   0  0  0  0  0  0  0  0  0  0  0  0
   -5.4896    1.7918    0.2205 C   0  0  0  0  0  0  0  0  0  0  0  0
   -6.1289    0.6738    0.7632 C   0  0  0  0  0  0  0  0  0  0  0  0
   -7.4236    0.6577    1.2185 O   0  0  0  0  0  0  0  0  0  0  0  0
   -8.1620    1.8770    1.1802 C   0  0  0  0  0  0  0  0  0  0  0  0
   -9.5109    1.6685    1.7331 C   0  0  0  0  0  0  0  0  0  0  0  0
  -10.5837    1.5445    2.1615 N   0  0  0  0  0  0  0  0  0  0  0  0
   -4.5945   -2.7380    2.2205 H   0  0  0  0  0  0  0  0  0  0  0  0
   -6.1516   -3.5451    2.0032 H   0  0  0  0  0  0  0  0  0  0  0  0
   -5.1534   -3.2418    0.5769 H   0  0  0  0  0  0  0  0  0  0  0  0
   -3.5474   -1.5520    0.4825 H   0  0  0  0  0  0  0  0  0  0  0  0
   -1.8180   -0.5916   -1.0420 H   0  0  0  0  0  0  0  0  0  0  0  0
   -1.3252    2.2756    0.0076 H   0  0  0  0  0  0  0  0  0  0  0  0
    2.7825    3.0539   -1.1009 H   0  0  0  0  0  0  0  0  0  0  0  0
    2.4435    1.6466   -2.1128 H   0  0  0  0  0  0  0  0  0  0  0  0
    4.3487    0.5362   -1.5858 H   0  0  0  0  0  0  0  0  0  0  0  0
    5.1053    0.0579    1.2398 H   0  0  0  0  0  0  0  0  0  0  0  0
    4.4581   -1.2279    0.1971 H   0  0  0  0  0  0  0  0  0  0  0  0
    6.9667    0.4383   -0.4417 H   0  0  0  0  0  0  0  0  0  0  0  0
    6.6165   -2.3803    0.6989 H   0  0  0  0  0  0  0  0  0  0  0  0
    7.7638   -1.1329    1.2266 H   0  0  0  0  0  0  0  0  0  0  0  0
    8.6262   -3.0090   -0.5143 H   0  0  0  0  0  0  0  0  0  0  0  0
    8.9914   -1.3083   -0.8635 H   0  0  0  0  0  0  0  0  0  0  0  0
    7.8255   -1.8725   -2.8687 H   0  0  0  0  0  0  0  0  0  0  0  0
    6.7331   -2.9884   -2.0191 H   0  0  0  0  0  0  0  0  0  0  0  0
   -3.6998    2.5863   -0.6530 H   0  0  0  0  0  0  0  0  0  0  0  0
   -5.9883    2.7490    0.1129 H   0  0  0  0  0  0  0  0  0  0  0  0
   -7.6513    2.6422    1.7768 H   0  0  0  0  0  0  0  0  0  0  0  0
   -8.2563    2.2225    0.1440 H   0  0  0  0  0  0  0  0  0  0  0  0
  1  2  1  0
  2  3  1  0
  3  4  2  0
  4  5  1  0
  5  6  1  0
  6  7  2  3
  7  8  1  0
  8  9  2  0
  8 10  1  0
 10 11  1  0
 11 12  1  0
 12 13  2  0
 12 14  1  0
 14 15  1  0
 15 16  1  0
 16 17  1  0
 17 18  1  0
 18 19  1  0
 19 20  1  0
  5 21  2  0
 21 22  1  0
 22 23  2  0
 23 24  1  0
 24 25  1  0
 25 26  1  0
 26 27  3  0
 23  3  1  0
 20 16  1  0
  1 28  1  0
  1 29  1  0
  1 30  1  0
  4 31  1  0
  6 32  1  0
  7 33  1  0
 11 34  1  0
 11 35  1  0
 14 36  1  0
 15 37  1  0
 15 38  1  0
 16 39  1  0
 17 40  1  0
 17 41  1  0
 18 42  1  0
 18 43  1  0
 19 44  1  0
 19 45  1  0
 21 46  1  0
 22 47  1  0
 25 48  1  0
 25 49  1  0
M  END
$$$$
