
     RDKit          3D

 38 42  0  0  0  0  0  0  0  0999 V2000
    0.7936   -2.0542    0.7425 O   0  0  0  0  0  0  0  0  0  0  0  0
    0.0868   -0.9299    0.7227 C   0  0  0  0  0  0  0  0  0  0  0  0
   -1.2365   -0.7448    0.4297 C   0  0  0  0  0  0  0  0  0  0  0  0
   -1.5270    0.6596    0.5020 C   0  0  0  0  0  0  0  0  0  0  0  0
   -0.3769    1.3060    0.8669 C   0  0  0  0  0  0  0  0  0  0  0  0
   -0.1126    2.5899    1.0727 O   0  0  0  0  0  0  0  0  0  0  0  0
    0.6017    0.3293    1.0238 N   0  0  0  0  0  0  0  0  0  0  0  0
    1.9393    0.5992    1.5480 C   0  0  0  0  0  0  0  0  0  0  0  0
    3.0267    0.3877    0.5206 C   0  0  0  0  0  0  0  0  0  0  0  0
    4.1363   -0.4161    0.8260 C   0  0  0  0  0  0  0  0  0  0  0  0
    5.1521   -0.6090   -0.1119 C   0  0  0  0  0  0  0  0  0  0  0  0
    5.0767    0.0068   -1.3593 C   0  0  0  0  0  0  0  0  0  0  0  0
    3.9896    0.8212   -1.6686 C   0  0  0  0  0  0  0  0  0  0  0  0
    2.9730    1.0161   -0.7326 C   0  0  0  0  0  0  0  0  0  0  0  0
   -2.9756    0.9889    0.1550 C   0  0  0  0  0  0  0  0  0  0  0  0
   -3.8139    0.1098    1.1184 C   0  0  0  0  0  0  0  0  0  0  0  0
   -3.5358   -1.2189    1.0512 C   0  0  0  0  0  0  0  0  0  0  0  0
   -2.4332   -1.5958    0.0247 C   0  0  0  0  0  0  0  0  0  0  0  0
   -2.8609   -1.0524   -1.3787 C   0  0  0  0  0  0  0  0  0  0  0  0
   -4.2346   -0.5299   -1.7461 C   0  0  0  0  0  0  0  0  0  0  0  0
   -3.1771    0.4598   -1.3025 C   0  0  0  0  0  0  0  0  0  0  0  0
    1.7358   -1.8396    0.6365 H   0  0  0  0  0  0  0  0  0  0  0  0
   -0.9433    3.0769    0.9296 H   0  0  0  0  0  0  0  0  0  0  0  0
    1.9842    1.6260    1.9254 H   0  0  0  0  0  0  0  0  0  0  0  0
    2.0678   -0.0697    2.4077 H   0  0  0  0  0  0  0  0  0  0  0  0
    4.2211   -0.8976    1.7984 H   0  0  0  0  0  0  0  0  0  0  0  0
    6.0059   -1.2364    0.1318 H   0  0  0  0  0  0  0  0  0  0  0  0
    5.8682   -0.1428   -2.0891 H   0  0  0  0  0  0  0  0  0  0  0  0
    3.9327    1.3077   -2.6390 H   0  0  0  0  0  0  0  0  0  0  0  0
    2.1338    1.6612   -0.9891 H   0  0  0  0  0  0  0  0  0  0  0  0
   -3.2106    2.0517    0.2466 H   0  0  0  0  0  0  0  0  0  0  0  0
   -4.5475    0.5416    1.7844 H   0  0  0  0  0  0  0  0  0  0  0  0
   -4.0175   -1.9735    1.6570 H   0  0  0  0  0  0  0  0  0  0  0  0
   -2.2212   -2.6672    0.0102 H   0  0  0  0  0  0  0  0  0  0  0  0
   -2.1992   -1.3868   -2.1686 H   0  0  0  0  0  0  0  0  0  0  0  0
   -5.0801   -0.7421   -1.1037 H   0  0  0  0  0  0  0  0  0  0  0  0
   -4.5029   -0.5352   -2.7982 H   0  0  0  0  0  0  0  0  0  0  0  0
   -2.7187    1.1023   -2.0444 H   0  0  0  0  0  0  0  0  0  0  0  0
  1  2  1  0
  2  3  2  0
  3  4  1  0
  4  5  2  0
  5  6  1  0
  5  7  1  0
  7  8  1  0
  8  9  1  0
  9 10  2  0
 10 11  1  0
 11 12  2  0
 12 13  1  0
 13 14  2  0
  4 15  1  0
 15 16  1  0
 16 17  2  0
 17 18  1  0
 18 19  1  0
 19 20  1  0
 20 21  1  0
  7  2  1  0
 14  9  1  0
 21 15  1  0
 18  3  1  0
 21 19  1  0
  1 22  1  0
  6 23  1  0
  8 24  1  0
  8 25  1  0
 10 26  1  0
 11 27  1  0
 12 28  1  0
 13 29  1  0
 14 30  1  0
 15 31  1  0
 16 32  1  0
 17 33  1  0
 18 34  1  0
 19 35  1  0
 20 36  1  0
 20 37  1  0
 21 38  1  0
M  END
$$$$
