
     RDKit          3D

 46 48  0  0  0  0  0  0  0  0999 V2000
    4.2033    0.3075   -3.7146 C   0  0  0  0  0  0  0  0  0  0  0  0
    4.1012    0.5780   -2.3209 O   0  0  0  0  0  0  0  0  0  0  0  0
    4.0131   -0.6279   -1.5521 C   0  0  0  0  0  0  0  0  0  0  0  0
    3.8568   -0.2649   -0.0767 C   0  0  0  0  0  0  0  0  0  0  0  0
    2.5481    0.3033    0.1101 O   0  0  0  0  0  0  0  0  0  0  0  0
    2.4779    1.5436    0.6640 C   0  0  0  0  0  0  0  0  0  0  0  0
    3.4335    2.1571    1.1230 O   0  0  0  0  0  0  0  0  0  0  0  0
    1.1180    2.0586    0.6857 C   0  0  0  0  0  0  0  0  0  0  0  0
    0.7316    3.2348    1.3131 C   0  0  0  0  0  0  0  0  0  0  0  0
    1.4667    4.2651    2.0815 C   0  0  0  0  0  0  0  0  0  0  0  0
   -0.6066    3.4412    1.1694 O   0  0  0  0  0  0  0  0  0  0  0  0
   -1.0963    2.4087    0.4380 C   0  0  0  0  0  0  0  0  0  0  0  0
   -2.4295    2.2531    0.0659 C   0  0  0  0  0  0  0  0  0  0  0  0
   -2.7413    1.1193   -0.6922 C   0  0  0  0  0  0  0  0  0  0  0  0
   -1.7539    0.1964   -1.0486 C   0  0  0  0  0  0  0  0  0  0  0  0
   -2.1373   -0.9456   -1.8073 N   0  0  0  0  0  0  0  0  0  0  0  0
   -1.8513   -2.4992   -1.2166 S   0  0  0  0  0  6  0  0  0  0  0  0
   -0.4294   -2.7003   -1.0351 O   0  0  0  0  0  0  0  0  0  0  0  0
   -2.6329   -3.3924   -2.0465 O   0  0  0  0  0  0  0  0  0  0  0  0
   -2.6160   -2.4636    0.3924 C   0  0  0  0  0  0  0  0  0  0  0  0
   -3.9871   -2.7292    0.5075 C   0  0  0  0  0  0  0  0  0  0  0  0
   -4.5816   -2.7245    1.7691 C   0  0  0  0  0  0  0  0  0  0  0  0
   -3.8039   -2.4638    2.8943 C   0  0  0  0  0  0  0  0  0  0  0  0
   -4.3795   -2.4615    4.1029 F   0  0  0  0  0  0  0  0  0  0  0  0
   -2.4383   -2.2138    2.7856 C   0  0  0  0  0  0  0  0  0  0  0  0
   -1.8342   -2.2202    1.5284 C   0  0  0  0  0  0  0  0  0  0  0  0
   -0.4186    0.3935   -0.6709 C   0  0  0  0  0  0  0  0  0  0  0  0
   -0.0792    1.5224    0.1048 C   0  0  0  0  0  0  0  0  0  0  0  0
    5.0985   -0.2855   -3.9256 H   0  0  0  0  0  0  0  0  0  0  0  0
    4.2844    1.2614   -4.2460 H   0  0  0  0  0  0  0  0  0  0  0  0
    3.3087   -0.2176   -4.0709 H   0  0  0  0  0  0  0  0  0  0  0  0
    3.1464   -1.2087   -1.8943 H   0  0  0  0  0  0  0  0  0  0  0  0
    4.9282   -1.2124   -1.6938 H   0  0  0  0  0  0  0  0  0  0  0  0
    3.9079   -1.1701    0.5389 H   0  0  0  0  0  0  0  0  0  0  0  0
    4.6588    0.4167    0.2322 H   0  0  0  0  0  0  0  0  0  0  0  0
    1.9826    3.8125    2.9335 H   0  0  0  0  0  0  0  0  0  0  0  0
    2.2081    4.7594    1.4460 H   0  0  0  0  0  0  0  0  0  0  0  0
    0.7884    5.0324    2.4684 H   0  0  0  0  0  0  0  0  0  0  0  0
   -3.1810    2.9781    0.3550 H   0  0  0  0  0  0  0  0  0  0  0  0
   -3.7749    0.9659   -0.9928 H   0  0  0  0  0  0  0  0  0  0  0  0
   -2.9897   -0.8938   -2.3627 H   0  0  0  0  0  0  0  0  0  0  0  0
   -4.5904   -2.9487   -0.3709 H   0  0  0  0  0  0  0  0  0  0  0  0
   -5.6419   -2.9297    1.8856 H   0  0  0  0  0  0  0  0  0  0  0  0
   -1.8541   -2.0217    3.6804 H   0  0  0  0  0  0  0  0  0  0  0  0
   -0.7649   -2.0358    1.4432 H   0  0  0  0  0  0  0  0  0  0  0  0
    0.3518   -0.3065   -0.9802 H   0  0  0  0  0  0  0  0  0  0  0  0
  1  2  1  0
  2  3  1  0
  3  4  1  0
  4  5  1  0
  5  6  1  0
  6  7  2  0
  6  8  1  0
  8  9  2  0
  9 10  1  0
  9 11  1  0
 11 12  1  0
 12 13  2  0
 13 14  1  0
 14 15  2  0
 15 16  1  0
 16 17  1  0
 17 18  2  0
 17 19  2  0
 17 20  1  0
 20 21  2  0
 21 22  1  0
 22 23  2  0
 23 24  1  0
 23 25  1  0
 25 26  2  0
 15 27  1  0
 27 28  2  0
 28  8  1  0
 28 12  1  0
 26 20  1  0
  1 29  1  0
  1 30  1  0
  1 31  1  0
  3 32  1  0
  3 33  1  0
  4 34  1  0
  4 35  1  0
 10 36  1  0
 10 37  1  0
 10 38  1  0
 13 39  1  0
 14 40  1  0
 16 41  1  0
 21 42  1  0
 22 43  1  0
 25 44  1  0
 26 45  1  0
 27 46  1  0
M  END
$$$$
