
     RDKit          3D

 44 47  0  0  0  0  0  0  0  0999 V2000
    5.9644   -0.7962   -1.1949 C   0  0  0  0  0  0  0  0  0  0  0  0
    5.6868   -0.4529    0.2610 C   0  0  0  0  0  0  0  0  0  0  0  0
    4.2174   -0.3303    0.5310 C   0  0  0  0  0  0  0  0  0  0  0  0
    3.3280   -1.3251    0.8876 C   0  0  0  0  0  0  0  0  0  0  0  0
    2.0052   -0.8214    1.0596 C   0  0  0  0  0  0  0  0  0  0  0  0
    0.7951   -1.5290    1.4175 C   0  0  0  0  0  0  0  0  0  0  0  0
    0.8124   -2.7368    1.6391 O   0  0  0  0  0  0  0  0  0  0  0  0
   -0.3538   -0.7304    1.4745 N   0  0  0  0  0  0  0  0  0  0  0  0
   -1.6137   -1.4355    1.7353 C   0  0  0  0  0  0  0  0  0  0  0  0
   -2.3592   -1.7701    0.4574 C   0  0  0  0  0  0  0  0  0  0  0  0
   -1.8514   -2.7186   -0.4441 C   0  0  0  0  0  0  0  0  0  0  0  0
   -2.5271   -3.0072   -1.6316 C   0  0  0  0  0  0  0  0  0  0  0  0
   -3.7202   -2.3552   -1.9325 C   0  0  0  0  0  0  0  0  0  0  0  0
   -4.2435   -1.4224   -1.0413 C   0  0  0  0  0  0  0  0  0  0  0  0
   -3.5724   -1.1378    0.1494 C   0  0  0  0  0  0  0  0  0  0  0  0
   -0.2667    0.6429    1.2482 C   0  0  0  0  0  0  0  0  0  0  0  0
   -1.7080    1.6238    1.4201 S   0  0  0  0  0  0  0  0  0  0  0  0
   -1.7940    2.2801   -0.2683 C   0  0  0  0  0  0  0  0  0  0  0  0
   -1.0034    3.5585   -0.4437 C   0  0  0  0  0  0  0  0  0  0  0  0
   -1.7429    4.2264   -1.5745 C   0  0  0  0  0  0  0  0  0  0  0  0
   -3.1139    3.8790   -1.3846 O   0  0  0  0  0  0  0  0  0  0  0  0
   -3.1881    2.7444   -0.6192 C   0  0  0  0  0  0  0  0  0  0  0  0
   -4.2419    2.1981   -0.3318 O   0  0  0  0  0  0  0  0  0  0  0  0
    0.8133    1.2888    0.9337 N   0  0  0  0  0  0  0  0  0  0  0  0
    1.9258    0.5290    0.8378 C   0  0  0  0  0  0  0  0  0  0  0  0
    3.4371    1.1932    0.4157 S   0  0  0  0  0  0  0  0  0  0  0  0
    7.0417   -0.8947   -1.3617 H   0  0  0  0  0  0  0  0  0  0  0  0
    5.4895   -1.7420   -1.4772 H   0  0  0  0  0  0  0  0  0  0  0  0
    5.5871   -0.0176   -1.8665 H   0  0  0  0  0  0  0  0  0  0  0  0
    6.2075    0.4755    0.5246 H   0  0  0  0  0  0  0  0  0  0  0  0
    6.1074   -1.2373    0.9021 H   0  0  0  0  0  0  0  0  0  0  0  0
    3.6061   -2.3652    1.0172 H   0  0  0  0  0  0  0  0  0  0  0  0
   -1.4264   -2.3708    2.2772 H   0  0  0  0  0  0  0  0  0  0  0  0
   -2.2432   -0.8402    2.4051 H   0  0  0  0  0  0  0  0  0  0  0  0
   -0.9276   -3.2516   -0.2274 H   0  0  0  0  0  0  0  0  0  0  0  0
   -2.1227   -3.7448   -2.3202 H   0  0  0  0  0  0  0  0  0  0  0  0
   -4.2463   -2.5784   -2.8569 H   0  0  0  0  0  0  0  0  0  0  0  0
   -5.1762   -0.9108   -1.2691 H   0  0  0  0  0  0  0  0  0  0  0  0
   -4.0121   -0.4078    0.8276 H   0  0  0  0  0  0  0  0  0  0  0  0
   -1.5060    1.5216   -1.0054 H   0  0  0  0  0  0  0  0  0  0  0  0
    0.0523    3.3998   -0.6799 H   0  0  0  0  0  0  0  0  0  0  0  0
   -1.0633    4.1948    0.4487 H   0  0  0  0  0  0  0  0  0  0  0  0
   -1.4218    3.8599   -2.5554 H   0  0  0  0  0  0  0  0  0  0  0  0
   -1.6314    5.3142   -1.5491 H   0  0  0  0  0  0  0  0  0  0  0  0
  1  2  1  0
  2  3  1  0
  3  4  2  0
  4  5  1  0
  5  6  1  0
  6  7  2  0
  6  8  1  0
  8  9  1  0
  9 10  1  0
 10 11  2  0
 11 12  1  0
 12 13  2  0
 13 14  1  0
 14 15  2  0
  8 16  1  0
 16 17  1  0
 17 18  1  0
 18 19  1  0
 19 20  1  0
 20 21  1  0
 21 22  1  0
 22 23  2  0
 16 24  2  0
 24 25  1  0
 25 26  1  0
 26  3  1  0
 25  5  2  0
 15 10  1  0
 22 18  1  0
  1 27  1  0
  1 28  1  0
  1 29  1  0
  2 30  1  0
  2 31  1  0
  4 32  1  0
  9 33  1  0
  9 34  1  0
 11 35  1  0
 12 36  1  0
 13 37  1  0
 14 38  1  0
 15 39  1  0
 18 40  1  0
 19 41  1  0
 19 42  1  0
 20 43  1  0
 20 44  1  0
M  END
$$$$
