
     RDKit          3D

 37 39  0  0  0  0  0  0  0  0999 V2000
   -5.3444    1.9006    0.1792 C   0  0  0  0  0  0  0  0  0  0  0  0
   -4.5888    0.6049    0.1570 C   0  0  0  0  0  0  0  0  0  0  0  0
   -5.2205   -0.5753    0.2402 C   0  0  0  0  0  0  0  0  0  0  0  0
   -4.5254   -1.8714    0.2224 C   0  0  0  0  0  0  0  0  0  0  0  0
   -5.1536   -2.9205    0.3050 O   0  0  0  0  0  0  0  0  0  0  0  0
   -3.1466   -1.8400    0.1113 O   0  0  0  0  0  0  0  0  0  0  0  0
   -2.4503   -0.6173    0.0207 C   0  0  0  0  0  0  0  0  0  0  0  0
   -1.0583   -0.7109   -0.0891 C   0  0  0  0  0  0  0  0  0  0  0  0
   -0.3034    0.4533   -0.1817 C   0  0  0  0  0  0  0  0  0  0  0  0
    1.0548    0.5400   -0.2952 O   0  0  0  0  0  0  0  0  0  0  0  0
    1.8279   -0.6620   -0.3099 C   0  0  0  0  0  0  0  0  0  0  0  0
    1.7589   -1.4158   -1.6486 C   0  0  0  0  0  0  0  0  0  0  0  0
    1.3334   -1.0023   -2.7166 O   0  0  0  0  0  0  0  0  0  0  0  0
    2.2242   -2.6846   -1.5627 O   0  0  0  0  0  0  0  0  0  0  0  0
    3.2701   -0.2729   -0.0070 C   0  0  0  0  0  0  0  0  0  0  0  0
    3.8987    0.7689   -0.7099 C   0  0  0  0  0  0  0  0  0  0  0  0
    5.2257    1.1076   -0.4418 C   0  0  0  0  0  0  0  0  0  0  0  0
    5.9419    0.4086    0.5274 C   0  0  0  0  0  0  0  0  0  0  0  0
    5.3332   -0.6304    1.2288 C   0  0  0  0  0  0  0  0  0  0  0  0
    4.0057   -0.9717    0.9632 C   0  0  0  0  0  0  0  0  0  0  0  0
   -0.9592    1.6878   -0.1630 C   0  0  0  0  0  0  0  0  0  0  0  0
   -2.3537    1.7665   -0.0530 C   0  0  0  0  0  0  0  0  0  0  0  0
   -3.1246    0.6049    0.0410 C   0  0  0  0  0  0  0  0  0  0  0  0
   -5.1768    2.4647   -0.7445 H   0  0  0  0  0  0  0  0  0  0  0  0
   -6.4247    1.7404    0.2689 H   0  0  0  0  0  0  0  0  0  0  0  0
   -5.0369    2.5157    1.0316 H   0  0  0  0  0  0  0  0  0  0  0  0
   -6.2990   -0.6446    0.3269 H   0  0  0  0  0  0  0  0  0  0  0  0
   -0.6171   -1.7004   -0.1020 H   0  0  0  0  0  0  0  0  0  0  0  0
    1.4752   -1.3268    0.4889 H   0  0  0  0  0  0  0  0  0  0  0  0
    2.1482   -3.0236   -2.4800 H   0  0  0  0  0  0  0  0  0  0  0  0
    3.3521    1.3252   -1.4700 H   0  0  0  0  0  0  0  0  0  0  0  0
    5.6997    1.9180   -0.9897 H   0  0  0  0  0  0  0  0  0  0  0  0
    6.9752    0.6733    0.7357 H   0  0  0  0  0  0  0  0  0  0  0  0
    5.8939   -1.1767    1.9830 H   0  0  0  0  0  0  0  0  0  0  0  0
    3.5522   -1.7903    1.5182 H   0  0  0  0  0  0  0  0  0  0  0  0
   -0.3770    2.6044   -0.2376 H   0  0  0  0  0  0  0  0  0  0  0  0
   -2.8107    2.7523   -0.0454 H   0  0  0  0  0  0  0  0  0  0  0  0
  1  2  1  0
  2  3  2  0
  3  4  1  0
  4  5  2  0
  4  6  1  0
  6  7  1  0
  7  8  2  0
  8  9  1  0
  9 10  1  0
 10 11  1  0
 11 12  1  0
 12 13  2  0
 12 14  1  0
 11 15  1  0
 15 16  2  0
 16 17  1  0
 17 18  2  0
 18 19  1  0
 19 20  2  0
  9 21  2  0
 21 22  1  0
 22 23  2  0
 23  2  1  0
 23  7  1  0
 20 15  1  0
  1 24  1  0
  1 25  1  0
  1 26  1  0
  3 27  1  0
  8 28  1  0
 11 29  1  0
 14 30  1  0
 16 31  1  0
 17 32  1  0
 18 33  1  0
 19 34  1  0
 20 35  1  0
 21 36  1  0
 22 37  1  0
M  END
$$$$
