
     RDKit          3D

 42 44  0  0  0  0  0  0  0  0999 V2000
   -5.5723    0.5870    0.7158 C   0  0  0  0  0  0  0  0  0  0  0  0
   -4.8954    0.2022   -0.6123 C   0  0  0  0  0  0  0  0  0  0  0  0
   -5.4266   -1.1726   -1.0470 C   0  0  0  0  0  0  0  0  0  0  0  0
   -5.2535    1.2631   -1.6646 C   0  0  0  0  0  0  0  0  0  0  0  0
   -3.4486    0.1563   -0.3871 N   0  0  0  0  0  0  0  0  0  0  0  0
   -2.4883   -0.1523   -1.3358 C   0  0  0  0  0  0  0  0  0  0  0  0
   -2.7459   -0.4290   -2.5026 O   0  0  0  0  0  0  0  0  0  0  0  0
   -1.1101   -0.1139   -0.7927 C   0  0  0  0  0  0  0  0  0  0  0  0
    0.0110   -0.3817   -1.5374 N   0  0  0  0  0  0  0  0  0  0  0  0
    1.0043   -0.2391   -0.6933 C   0  0  0  0  0  0  0  0  0  0  0  0
    2.3415   -0.3868   -0.9106 N   0  0  0  0  0  0  0  0  0  0  0  0
    3.1370   -0.1805    0.0990 C   0  0  0  0  0  0  0  0  0  0  0  0
    4.6090   -0.3270   -0.0972 C   0  0  0  0  0  0  0  0  0  0  0  0
    5.0676   -1.2681   -1.0288 C   0  0  0  0  0  0  0  0  0  0  0  0
    6.4366   -1.4369   -1.2434 C   0  0  0  0  0  0  0  0  0  0  0  0
    7.3535   -0.6608   -0.5369 C   0  0  0  0  0  0  0  0  0  0  0  0
    6.9042    0.2905    0.3782 C   0  0  0  0  0  0  0  0  0  0  0  0
    5.5347    0.4629    0.5968 C   0  0  0  0  0  0  0  0  0  0  0  0
    2.6700    0.1749    1.4786 C   0  0  0  0  0  0  0  0  0  0  0  0
    1.3398    0.3097    1.6435 C   0  0  0  0  0  0  0  0  0  0  0  0
    0.6939    0.6499    2.9299 C   0  0  0  0  0  0  0  0  0  0  0  0
    1.6140    0.8187    3.9196 F   0  0  0  0  0  0  0  0  0  0  0  0
   -0.0071    1.8087    2.8701 F   0  0  0  0  0  0  0  0  0  0  0  0
   -0.1487   -0.3195    3.3631 F   0  0  0  0  0  0  0  0  0  0  0  0
    0.4954    0.1100    0.5607 N   0  0  0  0  0  0  0  0  0  0  0  0
   -0.8547    0.1915    0.4960 N   0  0  0  0  0  0  0  0  0  0  0  0
   -6.6618    0.6379    0.6109 H   0  0  0  0  0  0  0  0  0  0  0  0
   -5.2222    1.5642    1.0686 H   0  0  0  0  0  0  0  0  0  0  0  0
   -5.3436   -0.1427    1.5014 H   0  0  0  0  0  0  0  0  0  0  0  0
   -5.1513   -1.9475   -0.3222 H   0  0  0  0  0  0  0  0  0  0  0  0
   -5.0251   -1.4780   -2.0186 H   0  0  0  0  0  0  0  0  0  0  0  0
   -6.5191   -1.1654   -1.1335 H   0  0  0  0  0  0  0  0  0  0  0  0
   -6.3395    1.3611   -1.7739 H   0  0  0  0  0  0  0  0  0  0  0  0
   -4.8482    1.0146   -2.6507 H   0  0  0  0  0  0  0  0  0  0  0  0
   -4.8532    2.2445   -1.3852 H   0  0  0  0  0  0  0  0  0  0  0  0
   -3.0808    0.3628    0.5379 H   0  0  0  0  0  0  0  0  0  0  0  0
    4.3622   -1.8753   -1.5934 H   0  0  0  0  0  0  0  0  0  0  0  0
    6.7854   -2.1702   -1.9666 H   0  0  0  0  0  0  0  0  0  0  0  0
    8.4196   -0.7900   -0.7088 H   0  0  0  0  0  0  0  0  0  0  0  0
    7.6231    0.9063    0.9137 H   0  0  0  0  0  0  0  0  0  0  0  0
    5.2173    1.2362    1.2897 H   0  0  0  0  0  0  0  0  0  0  0  0
    3.3761    0.2842    2.2924 H   0  0  0  0  0  0  0  0  0  0  0  0
  1  2  1  0
  2  3  1  0
  2  4  1  0
  2  5  1  0
  5  6  1  0
  6  7  2  0
  6  8  1  0
  8  9  1  0
  9 10  2  0
 10 11  1  0
 11 12  2  0
 12 13  1  0
 13 14  2  0
 14 15  1  0
 15 16  2  0
 16 17  1  0
 17 18  2  0
 12 19  1  0
 19 20  2  0
 20 21  1  0
 21 22  1  0
 21 23  1  0
 21 24  1  0
 20 25  1  0
 25 26  1  0
 26  8  2  0
 25 10  1  0
 18 13  1  0
  1 27  1  0
  1 28  1  0
  1 29  1  0
  3 30  1  0
  3 31  1  0
  3 32  1  0
  4 33  1  0
  4 34  1  0
  4 35  1  0
  5 36  1  0
 14 37  1  0
 15 38  1  0
 16 39  1  0
 17 40  1  0
 18 41  1  0
 19 42  1  0
M  END
$$$$
