
     RDKit          3D

 40 41  0  0  0  0  0  0  0  0999 V2000
   -4.9012    0.1474    0.0946 C   0  0  0  0  0  0  0  0  0  0  0  0
   -3.8849    1.0870   -0.5599 C   0  0  0  0  0  0  0  0  0  0  0  0
   -3.2763    0.4723   -1.8268 C   0  0  0  0  0  0  0  0  0  0  0  0
   -2.2846   -0.6521   -1.5286 C   0  0  0  0  0  0  0  0  0  0  0  0
   -1.1756   -0.1952   -0.5655 C   0  0  0  0  0  0  0  0  0  0  0  0
   -0.3027   -1.3530   -0.3166 N   0  0  0  0  0  0  0  0  0  0  0  0
    0.9484   -1.0437    0.4075 C   0  0  0  0  0  0  0  0  0  0  0  0
    1.9541   -0.2269   -0.4411 C   0  0  0  0  0  0  0  0  0  0  0  0
    2.0848   -0.8512   -1.7241 O   0  0  0  0  0  0  0  0  0  0  0  0
    3.2984   -0.1160    0.2455 C   0  0  0  0  0  0  0  0  0  0  0  0
    3.5242    0.9109    1.1763 C   0  0  0  0  0  0  0  0  0  0  0  0
    4.7472    1.0123    1.8425 C   0  0  0  0  0  0  0  0  0  0  0  0
    5.7582    0.0875    1.5900 C   0  0  0  0  0  0  0  0  0  0  0  0
    5.5477   -0.9385    0.6715 C   0  0  0  0  0  0  0  0  0  0  0  0
    4.3252   -1.0410    0.0052 C   0  0  0  0  0  0  0  0  0  0  0  0
   -1.7855    0.3819    0.7219 C   0  0  0  0  0  0  0  0  0  0  0  0
   -2.7825    1.5029    0.4225 C   0  0  0  0  0  0  0  0  0  0  0  0
   -5.3606    0.6259    0.9662 H   0  0  0  0  0  0  0  0  0  0  0  0
   -4.4488   -0.7906    0.4290 H   0  0  0  0  0  0  0  0  0  0  0  0
   -5.7037   -0.1003   -0.6084 H   0  0  0  0  0  0  0  0  0  0  0  0
   -4.4327    1.9917   -0.8544 H   0  0  0  0  0  0  0  0  0  0  0  0
   -4.0690    0.0976   -2.4852 H   0  0  0  0  0  0  0  0  0  0  0  0
   -2.7550    1.2601   -2.3862 H   0  0  0  0  0  0  0  0  0  0  0  0
   -1.8404   -0.9906   -2.4736 H   0  0  0  0  0  0  0  0  0  0  0  0
   -2.8227   -1.5134   -1.1124 H   0  0  0  0  0  0  0  0  0  0  0  0
   -0.6094    0.5924   -1.0765 H   0  0  0  0  0  0  0  0  0  0  0  0
   -0.8218   -2.0484    0.2233 H   0  0  0  0  0  0  0  0  0  0  0  0
    1.4058   -2.0143    0.6403 H   0  0  0  0  0  0  0  0  0  0  0  0
    0.7547   -0.5614    1.3713 H   0  0  0  0  0  0  0  0  0  0  0  0
    1.5704    0.7827   -0.6267 H   0  0  0  0  0  0  0  0  0  0  0  0
    1.1981   -1.2290   -1.8953 H   0  0  0  0  0  0  0  0  0  0  0  0
    2.7474    1.6428    1.3860 H   0  0  0  0  0  0  0  0  0  0  0  0
    4.9121    1.8144    2.5571 H   0  0  0  0  0  0  0  0  0  0  0  0
    6.7112    0.1677    2.1059 H   0  0  0  0  0  0  0  0  0  0  0  0
    6.3356   -1.6591    0.4692 H   0  0  0  0  0  0  0  0  0  0  0  0
    4.1763   -1.8454   -0.7129 H   0  0  0  0  0  0  0  0  0  0  0  0
   -1.0005    0.7903    1.3682 H   0  0  0  0  0  0  0  0  0  0  0  0
   -2.2828   -0.4102    1.2953 H   0  0  0  0  0  0  0  0  0  0  0  0
   -3.2254    1.8595    1.3601 H   0  0  0  0  0  0  0  0  0  0  0  0
   -2.2338    2.3530   -0.0037 H   0  0  0  0  0  0  0  0  0  0  0  0
  1  2  1  0
  2  3  1  0
  3  4  1  0
  4  5  1  0
  5  6  1  0
  6  7  1  0
  7  8  1  0
  8  9  1  0
  8 10  1  0
 10 11  2  0
 11 12  1  0
 12 13  2  0
 13 14  1  0
 14 15  2  0
  5 16  1  0
 16 17  1  0
 17  2  1  0
 15 10  1  0
  1 18  1  0
  1 19  1  0
  1 20  1  0
  2 21  1  0
  3 22  1  0
  3 23  1  0
  4 24  1  0
  4 25  1  0
  5 26  1  0
  6 27  1  0
  7 28  1  0
  7 29  1  0
  8 30  1  0
  9 31  1  0
 11 32  1  0
 12 33  1  0
 13 34  1  0
 14 35  1  0
 15 36  1  0
 16 37  1  0
 16 38  1  0
 17 39  1  0
 17 40  1  0
M  END
$$$$
