
     RDKit          3D

 38 40  0  0  0  0  0  0  0  0999 V2000
   -7.2578   -0.8180    0.9997 C   0  0  0  0  0  0  0  0  0  0  0  0
   -6.7260   -0.1060   -0.1106 O   0  0  0  0  0  0  0  0  0  0  0  0
   -5.3676    0.0362   -0.1568 C   0  0  0  0  0  0  0  0  0  0  0  0
   -4.8887    0.7420   -1.2583 C   0  0  0  0  0  0  0  0  0  0  0  0
   -3.5162    0.9577   -1.4249 C   0  0  0  0  0  0  0  0  0  0  0  0
   -2.5827    0.4716   -0.4959 C   0  0  0  0  0  0  0  0  0  0  0  0
   -1.2186    0.7318   -0.7207 N   0  0  0  0  0  0  0  0  0  0  0  0
   -0.1437    0.4238    0.0435 C   0  0  0  0  0  0  0  0  0  0  0  0
   -0.1290   -0.1577    1.2218 N   0  0  0  0  0  0  0  0  0  0  0  0
    1.1521   -0.2915    1.6728 C   0  0  0  0  0  0  0  0  0  0  0  0
    1.3304   -0.8572    2.8763 N   0  0  0  0  0  0  0  0  0  0  0  0
    2.1515    0.1635    0.8437 C   0  0  0  0  0  0  0  0  0  0  0  0
    3.5777    0.1822    1.0872 C   0  0  0  0  0  0  0  0  0  0  0  0
    4.0631    0.2419    2.2181 O   0  0  0  0  0  0  0  0  0  0  0  0
    4.5412    0.1182   -0.0448 C   0  0  0  0  0  0  0  0  0  0  0  0
    4.3745   -0.7982   -1.0939 C   0  0  0  0  0  0  0  0  0  0  0  0
    5.3105   -0.8440   -2.1294 C   0  0  0  0  0  0  0  0  0  0  0  0
    6.4083    0.0108   -2.1036 C   0  0  0  0  0  0  0  0  0  0  0  0
    7.3034   -0.0377   -3.0983 F   0  0  0  0  0  0  0  0  0  0  0  0
    6.5958    0.9078   -1.0573 C   0  0  0  0  0  0  0  0  0  0  0  0
    5.6641    0.9585   -0.0191 C   0  0  0  0  0  0  0  0  0  0  0  0
    1.4288    0.8396   -0.5548 S   0  0  0  0  0  0  0  0  0  0  0  0
   -3.0807   -0.2316    0.6055 C   0  0  0  0  0  0  0  0  0  0  0  0
   -4.4567   -0.4504    0.7762 C   0  0  0  0  0  0  0  0  0  0  0  0
   -7.0294   -0.3085    1.9418 H   0  0  0  0  0  0  0  0  0  0  0  0
   -6.9011   -1.8532    1.0125 H   0  0  0  0  0  0  0  0  0  0  0  0
   -8.3463   -0.8426    0.8905 H   0  0  0  0  0  0  0  0  0  0  0  0
   -5.5883    1.1299   -1.9944 H   0  0  0  0  0  0  0  0  0  0  0  0
   -3.1873    1.5168   -2.2972 H   0  0  0  0  0  0  0  0  0  0  0  0
   -1.0285    1.2049   -1.5944 H   0  0  0  0  0  0  0  0  0  0  0  0
    2.1982   -0.6737    3.3794 H   0  0  0  0  0  0  0  0  0  0  0  0
    0.5201   -0.8964    3.4860 H   0  0  0  0  0  0  0  0  0  0  0  0
    3.5350   -1.4895   -1.1077 H   0  0  0  0  0  0  0  0  0  0  0  0
    5.1970   -1.5455   -2.9505 H   0  0  0  0  0  0  0  0  0  0  0  0
    7.4674    1.5552   -1.0533 H   0  0  0  0  0  0  0  0  0  0  0  0
    5.8144    1.6494    0.8084 H   0  0  0  0  0  0  0  0  0  0  0  0
   -2.4114   -0.6340    1.3603 H   0  0  0  0  0  0  0  0  0  0  0  0
   -4.7733   -1.0060    1.6524 H   0  0  0  0  0  0  0  0  0  0  0  0
  1  2  1  0
  2  3  1  0
  3  4  2  0
  4  5  1  0
  5  6  2  0
  6  7  1  0
  7  8  1  0
  8  9  2  0
  9 10  1  0
 10 11  1  0
 10 12  2  0
 12 13  1  0
 13 14  2  0
 13 15  1  0
 15 16  2  0
 16 17  1  0
 17 18  2  0
 18 19  1  0
 18 20  1  0
 20 21  2  0
 12 22  1  0
  6 23  1  0
 23 24  2  0
 24  3  1  0
 22  8  1  0
 21 15  1  0
  1 25  1  0
  1 26  1  0
  1 27  1  0
  4 28  1  0
  5 29  1  0
  7 30  1  0
 11 31  1  0
 11 32  1  0
 16 33  1  0
 17 34  1  0
 20 35  1  0
 21 36  1  0
 23 37  1  0
 24 38  1  0
M  END
$$$$
