
     RDKit          3D

 50 52  0  0  0  0  0  0  0  0999 V2000
    4.8224   -1.1972   -3.6764 O   0  0  0  0  0  0  0  0  0  0  0  0
    4.3939   -0.0802   -3.4574 C   0  0  0  0  0  0  0  0  0  0  0  0
    4.3263    0.8496   -4.4235 O   0  0  0  0  0  0  0  0  0  0  0  0
    3.9002    0.4145   -2.1504 C   0  0  0  0  0  0  0  0  0  0  0  0
    3.3652    1.6996   -1.9990 C   0  0  0  0  0  0  0  0  0  0  0  0
    2.9113    2.1203   -0.7496 C   0  0  0  0  0  0  0  0  0  0  0  0
    2.3020    3.3960   -0.5895 N   0  0  0  0  0  0  0  0  0  0  0  0
    0.8056    3.6921   -1.3205 S   0  0  0  0  0  6  0  0  0  0  0  0
    0.2743    4.8834   -0.6952 O   0  0  0  0  0  0  0  0  0  0  0  0
    0.9450    3.5845   -2.7556 O   0  0  0  0  0  0  0  0  0  0  0  0
   -0.1804    2.3214   -0.7607 C   0  0  0  0  0  0  0  0  0  0  0  0
   -0.4016    1.2302   -1.6009 C   0  0  0  0  0  0  0  0  0  0  0  0
   -1.1435    0.1332   -1.1399 C   0  0  0  0  0  0  0  0  0  0  0  0
   -1.6986    0.0929    0.1535 C   0  0  0  0  0  0  0  0  0  0  0  0
   -2.4242   -1.0175    0.5839 N   0  0  0  0  0  0  0  0  0  0  0  0
   -2.0701   -2.3546    0.0877 C   0  0  0  0  0  0  0  0  0  0  0  0
   -2.7622   -3.4131    0.9415 C   0  0  0  0  0  0  0  0  0  0  0  0
   -4.2847   -3.2863    0.8761 C   0  0  0  0  0  0  0  0  0  0  0  0
   -4.7429   -1.8902    0.4571 C   0  0  0  0  0  0  0  0  0  0  0  0
   -3.8236   -0.7991    1.0015 C   0  0  0  0  0  0  0  0  0  0  0  0
   -1.4594    1.2311    0.9537 C   0  0  0  0  0  0  0  0  0  0  0  0
   -1.8854    1.2573    2.3359 N   0  0  0  0  0  4  0  0  0  0  0  0
   -2.9694    1.8057    2.5794 O   0  0  0  0  0  0  0  0  0  0  0  0
   -1.0991    0.7980    3.1760 O   0  0  0  0  0  1  0  0  0  0  0  0
   -0.7211    2.3438    0.5209 C   0  0  0  0  0  0  0  0  0  0  0  0
    2.9862    1.2685    0.3526 C   0  0  0  0  0  0  0  0  0  0  0  0
    3.5105   -0.0211    0.2037 C   0  0  0  0  0  0  0  0  0  0  0  0
    3.5784   -0.9702    1.3402 C   0  0  0  0  0  0  0  0  0  0  0  0
    3.9782   -2.1170    1.2864 O   0  0  0  0  0  0  0  0  0  0  0  0
    3.1311   -0.4297    2.4857 O   0  0  0  0  0  0  0  0  0  0  0  0
    3.9681   -0.4471   -1.0484 C   0  0  0  0  0  0  0  0  0  0  0  0
    4.6805    0.4015   -5.2205 H   0  0  0  0  0  0  0  0  0  0  0  0
    3.3045    2.3734   -2.8517 H   0  0  0  0  0  0  0  0  0  0  0  0
    2.3874    3.8646    0.3124 H   0  0  0  0  0  0  0  0  0  0  0  0
    0.0017    1.2140   -2.6123 H   0  0  0  0  0  0  0  0  0  0  0  0
   -1.2982   -0.6915   -1.8325 H   0  0  0  0  0  0  0  0  0  0  0  0
   -0.9855   -2.5042    0.1545 H   0  0  0  0  0  0  0  0  0  0  0  0
   -2.3662   -2.4764   -0.9613 H   0  0  0  0  0  0  0  0  0  0  0  0
   -2.4596   -4.4174    0.6246 H   0  0  0  0  0  0  0  0  0  0  0  0
   -2.4395   -3.3021    1.9849 H   0  0  0  0  0  0  0  0  0  0  0  0
   -4.7051   -3.5402    1.8567 H   0  0  0  0  0  0  0  0  0  0  0  0
   -4.6908   -4.0192    0.1688 H   0  0  0  0  0  0  0  0  0  0  0  0
   -4.7601   -1.8322   -0.6390 H   0  0  0  0  0  0  0  0  0  0  0  0
   -5.7720   -1.7220    0.7942 H   0  0  0  0  0  0  0  0  0  0  0  0
   -4.1980    0.1701    0.6492 H   0  0  0  0  0  0  0  0  0  0  0  0
   -3.8714   -0.8014    2.0966 H   0  0  0  0  0  0  0  0  0  0  0  0
   -0.5583    3.1926    1.1819 H   0  0  0  0  0  0  0  0  0  0  0  0
    2.6202    1.5973    1.3222 H   0  0  0  0  0  0  0  0  0  0  0  0
    3.2017   -1.1545    3.1435 H   0  0  0  0  0  0  0  0  0  0  0  0
    4.3763   -1.4512   -1.1662 H   0  0  0  0  0  0  0  0  0  0  0  0
  1  2  2  0
  2  3  1  0
  2  4  1  0
  4  5  2  0
  5  6  1  0
  6  7  1  0
  7  8  1  0
  8  9  2  0
  8 10  2  0
  8 11  1  0
 11 12  2  0
 12 13  1  0
 13 14  2  0
 14 15  1  0
 15 16  1  0
 16 17  1  0
 17 18  1  0
 18 19  1  0
 19 20  1  0
 14 21  1  0
 21 22  1  0
 22 23  2  0
 22 24  1  0
 21 25  2  0
  6 26  2  0
 26 27  1  0
 27 28  1  0
 28 29  2  0
 28 30  1  0
 27 31  2  0
 31  4  1  0
 25 11  1  0
 20 15  1  0
  3 32  1  0
  5 33  1  0
  7 34  1  0
 12 35  1  0
 13 36  1  0
 16 37  1  0
 16 38  1  0
 17 39  1  0
 17 40  1  0
 18 41  1  0
 18 42  1  0
 19 43  1  0
 19 44  1  0
 20 45  1  0
 20 46  1  0
 25 47  1  0
 26 48  1  0
 30 49  1  0
 31 50  1  0
M  CHG  2  22   1  24  -1
M  END
$$$$
