
     RDKit          3D

 51 52  0  0  0  0  0  0  0  0999 V2000
    4.1815    0.1454    0.9207 C   0  0  0  0  0  0  0  0  0  0  0  0
    3.5544   -0.9831    0.2027 N   0  0  0  0  0  0  0  0  0  0  0  0
    4.0776   -2.2862    0.6644 C   0  0  0  0  0  0  0  0  0  0  0  0
    3.5184   -0.7854   -1.4759 S   0  0  0  0  0  6  0  0  0  0  0  0
    4.7452   -1.3114   -2.0258 O   0  0  0  0  0  0  0  0  0  0  0  0
    3.0809    0.5545   -1.7887 O   0  0  0  0  0  0  0  0  0  0  0  0
    2.2809   -1.8540   -1.9108 N   0  0  0  0  0  0  0  0  0  0  0  0
    0.9748   -1.5499   -1.4145 C   0  0  0  0  0  0  0  0  0  0  0  0
    0.4463   -2.3403   -0.4001 C   0  0  0  0  0  0  0  0  0  0  0  0
   -0.8271   -2.0687    0.1090 C   0  0  0  0  0  0  0  0  0  0  0  0
   -1.5818   -0.9911   -0.3702 C   0  0  0  0  0  0  0  0  0  0  0  0
   -2.8826   -0.7520    0.2060 N   0  0  0  0  0  0  0  0  0  0  0  0
   -2.9292   -0.2130    1.8055 S   0  0  0  0  0  6  0  0  0  0  0  0
   -1.7714    0.6199    2.0422 O   0  0  0  0  0  0  0  0  0  0  0  0
   -4.2642    0.2707    2.0625 O   0  0  0  0  0  0  0  0  0  0  0  0
   -2.7354   -1.6692    2.6549 N   0  0  0  0  0  0  0  0  0  0  0  0
   -3.8673   -2.6118    2.5171 C   0  0  0  0  0  0  0  0  0  0  0  0
   -2.3623   -1.4690    4.0734 C   0  0  0  0  0  0  0  0  0  0  0  0
   -1.0335   -0.2027   -1.3917 C   0  0  0  0  0  0  0  0  0  0  0  0
   -1.8982    1.1682   -2.1092 S   0  0  0  0  0  6  0  0  0  0  0  0
   -1.8544    0.9573   -3.5473 O   0  0  0  0  0  0  0  0  0  0  0  0
   -3.1793    1.2866   -1.4331 O   0  0  0  0  0  0  0  0  0  0  0  0
   -0.9781    2.6415   -1.7408 C   0  0  0  0  0  0  0  0  0  0  0  0
   -0.8776    3.0742   -0.4185 C   0  0  0  0  0  0  0  0  0  0  0  0
   -0.1506    4.2274   -0.1280 C   0  0  0  0  0  0  0  0  0  0  0  0
    0.4636    4.9439   -1.1542 C   0  0  0  0  0  0  0  0  0  0  0  0
    0.3511    4.5130   -2.4747 C   0  0  0  0  0  0  0  0  0  0  0  0
   -0.3731    3.3604   -2.7743 C   0  0  0  0  0  0  0  0  0  0  0  0
    0.2334   -0.4905   -1.9259 C   0  0  0  0  0  0  0  0  0  0  0  0
    5.2186    0.2845    0.6015 H   0  0  0  0  0  0  0  0  0  0  0  0
    4.1736   -0.0419    1.9992 H   0  0  0  0  0  0  0  0  0  0  0  0
    3.6155    1.0669    0.7513 H   0  0  0  0  0  0  0  0  0  0  0  0
    5.1693   -2.3188    0.5970 H   0  0  0  0  0  0  0  0  0  0  0  0
    3.7859   -2.4453    1.7073 H   0  0  0  0  0  0  0  0  0  0  0  0
    3.6577   -3.1133    0.0857 H   0  0  0  0  0  0  0  0  0  0  0  0
    2.3010   -1.9292   -2.9294 H   0  0  0  0  0  0  0  0  0  0  0  0
    1.0163   -3.1748   -0.0023 H   0  0  0  0  0  0  0  0  0  0  0  0
   -1.2204   -2.7175    0.8863 H   0  0  0  0  0  0  0  0  0  0  0  0
   -3.4446   -0.0727   -0.3327 H   0  0  0  0  0  0  0  0  0  0  0  0
   -4.7520   -2.2481    3.0471 H   0  0  0  0  0  0  0  0  0  0  0  0
   -3.5857   -3.5836    2.9360 H   0  0  0  0  0  0  0  0  0  0  0  0
   -4.1162   -2.7796    1.4657 H   0  0  0  0  0  0  0  0  0  0  0  0
   -1.4043   -0.9478    4.1422 H   0  0  0  0  0  0  0  0  0  0  0  0
   -3.1298   -0.9007    4.6078 H   0  0  0  0  0  0  0  0  0  0  0  0
   -2.2381   -2.4374    4.5705 H   0  0  0  0  0  0  0  0  0  0  0  0
   -1.3594    2.5333    0.3913 H   0  0  0  0  0  0  0  0  0  0  0  0
   -0.0670    4.5660    0.8998 H   0  0  0  0  0  0  0  0  0  0  0  0
    1.0293    5.8431   -0.9229 H   0  0  0  0  0  0  0  0  0  0  0  0
    0.8267    5.0758   -3.2721 H   0  0  0  0  0  0  0  0  0  0  0  0
   -0.4584    3.0357   -3.8076 H   0  0  0  0  0  0  0  0  0  0  0  0
    0.6401    0.1209   -2.7288 H   0  0  0  0  0  0  0  0  0  0  0  0
  1  2  1  0
  2  3  1  0
  2  4  1  0
  4  5  2  0
  4  6  2  0
  4  7  1  0
  7  8  1  0
  8  9  2  0
  9 10  1  0
 10 11  2  0
 11 12  1  0
 12 13  1  0
 13 14  2  0
 13 15  2  0
 13 16  1  0
 16 17  1  0
 16 18  1  0
 11 19  1  0
 19 20  1  0
 20 21  2  0
 20 22  2  0
 20 23  1  0
 23 24  2  0
 24 25  1  0
 25 26  2  0
 26 27  1  0
 27 28  2  0
 19 29  2  0
 29  8  1  0
 28 23  1  0
  1 30  1  0
  1 31  1  0
  1 32  1  0
  3 33  1  0
  3 34  1  0
  3 35  1  0
  7 36  1  0
  9 37  1  0
 10 38  1  0
 12 39  1  0
 17 40  1  0
 17 41  1  0
 17 42  1  0
 18 43  1  0
 18 44  1  0
 18 45  1  0
 24 46  1  0
 25 47  1  0
 26 48  1  0
 27 49  1  0
 28 50  1  0
 29 51  1  0
M  END
$$$$
