
     RDKit          3D

 80 84  0  0  0  0  0  0  0  0999 V2000
    0.9259    0.3161   -4.1084 C   0  0  0  0  0  0  0  0  0  0  0  0
    0.4103    0.1644   -2.7935 O   0  0  0  0  0  0  0  0  0  0  0  0
    1.2810   -0.1263   -1.7755 C   0  0  0  0  0  0  0  0  0  0  0  0
    2.6588   -0.3004   -1.9569 C   0  0  0  0  0  0  0  0  0  0  0  0
    3.5101   -0.5950   -0.8800 C   0  0  0  0  0  0  0  0  0  0  0  0
    4.8600   -0.7801   -1.0288 O   0  0  0  0  0  0  0  0  0  0  0  0
    5.4500   -0.5724   -2.3038 C   0  0  0  0  0  0  0  0  0  0  0  0
    2.9809   -0.7291    0.4192 C   0  0  0  0  0  0  0  0  0  0  0  0
    3.7944   -1.0166    1.6291 C   0  0  0  0  0  0  0  0  0  0  0  0
    5.2643   -1.1528    1.7110 C   0  0  0  0  0  0  0  0  0  0  0  0
    5.8656   -2.4169    1.6450 C   0  0  0  0  0  0  0  0  0  0  0  0
    7.2523   -2.5416    1.7489 C   0  0  0  0  0  0  0  0  0  0  0  0
    8.0446   -1.4071    1.9223 C   0  0  0  0  0  0  0  0  0  0  0  0
    7.4535   -0.1457    1.9900 C   0  0  0  0  0  0  0  0  0  0  0  0
    6.0673   -0.0176    1.8865 C   0  0  0  0  0  0  0  0  0  0  0  0
    3.1748   -1.1484    2.8131 C   0  0  0  0  0  0  0  0  0  0  0  0
    1.7278   -1.0298    2.9831 C   0  0  0  0  0  0  0  0  0  0  0  0
    1.2017   -1.1895    4.0782 O   0  0  0  0  0  0  0  0  0  0  0  0
    1.0037   -0.7364    1.8491 O   0  0  0  0  0  0  0  0  0  0  0  0
    1.5939   -0.5697    0.5740 C   0  0  0  0  0  0  0  0  0  0  0  0
    0.7205   -0.2568   -0.4916 C   0  0  0  0  0  0  0  0  0  0  0  0
   -0.7905   -0.0477   -0.2732 C   0  0  0  0  0  0  0  0  0  0  0  0
   -1.4726   -1.3671    0.1734 C   0  0  0  0  0  0  0  0  0  0  0  0
   -3.0052   -1.3655    0.0186 C   0  0  0  0  0  0  0  0  0  0  0  0
   -3.4931   -1.1778   -1.3577 N   0  0  0  0  0  0  0  0  0  0  0  0
   -3.0030   -2.2150   -2.2774 C   0  0  0  0  0  0  0  0  0  0  0  0
   -3.8313   -2.2924   -3.5576 C   0  0  0  0  0  0  0  0  0  0  0  0
   -5.2849   -2.6620   -3.2641 C   0  0  0  0  0  0  0  0  0  0  0  0
   -5.7199   -2.2445   -1.8509 C   0  0  0  0  0  0  0  0  0  0  0  0
   -7.2300   -2.0234   -1.7925 C   0  0  0  0  0  0  0  0  0  0  0  0
   -4.9540   -0.9935   -1.3974 C   0  0  0  0  0  0  0  0  0  0  0  0
   -1.0733    1.1994    0.5668 C   0  0  0  0  0  0  0  0  0  0  0  0
   -0.9761    2.4581   -0.0382 C   0  0  0  0  0  0  0  0  0  0  0  0
   -1.1934    3.6371    0.6917 C   0  0  0  0  0  0  0  0  0  0  0  0
   -1.5010    3.6265    2.0615 C   0  0  0  0  0  0  0  0  0  0  0  0
   -1.7215    4.8049    2.7884 N   0  0  0  0  0  0  0  0  0  0  0  0
   -1.2815    6.0751    2.2151 C   0  0  0  0  0  0  0  0  0  0  0  0
   -1.7126    4.7376    4.2488 C   0  0  0  0  0  0  0  0  0  0  0  0
   -1.6137    2.3536    2.6451 C   0  0  0  0  0  0  0  0  0  0  0  0
   -1.4008    1.1673    1.9228 C   0  0  0  0  0  0  0  0  0  0  0  0
    1.3790   -0.6149   -4.4640 H   0  0  0  0  0  0  0  0  0  0  0  0
    0.0867    0.5505   -4.7705 H   0  0  0  0  0  0  0  0  0  0  0  0
    1.6338    1.1497   -4.1613 H   0  0  0  0  0  0  0  0  0  0  0  0
    3.0757   -0.2070   -2.9509 H   0  0  0  0  0  0  0  0  0  0  0  0
    5.2876    0.4523   -2.6539 H   0  0  0  0  0  0  0  0  0  0  0  0
    5.0829   -1.3049   -3.0305 H   0  0  0  0  0  0  0  0  0  0  0  0
    6.5293   -0.7206   -2.2003 H   0  0  0  0  0  0  0  0  0  0  0  0
    5.2576   -3.3072    1.5051 H   0  0  0  0  0  0  0  0  0  0  0  0
    7.7140   -3.5240    1.6938 H   0  0  0  0  0  0  0  0  0  0  0  0
    9.1241   -1.5058    2.0031 H   0  0  0  0  0  0  0  0  0  0  0  0
    8.0713    0.7384    2.1226 H   0  0  0  0  0  0  0  0  0  0  0  0
    5.6161    0.9706    1.9364 H   0  0  0  0  0  0  0  0  0  0  0  0
    3.7147   -1.3504    3.7327 H   0  0  0  0  0  0  0  0  0  0  0  0
   -1.2428    0.1794   -1.2459 H   0  0  0  0  0  0  0  0  0  0  0  0
   -1.2428   -1.6016    1.2184 H   0  0  0  0  0  0  0  0  0  0  0  0
   -1.0578   -2.2056   -0.4014 H   0  0  0  0  0  0  0  0  0  0  0  0
   -3.3966   -2.3085    0.4235 H   0  0  0  0  0  0  0  0  0  0  0  0
   -3.4054   -0.5676    0.6559 H   0  0  0  0  0  0  0  0  0  0  0  0
   -1.9648   -1.9949   -2.5515 H   0  0  0  0  0  0  0  0  0  0  0  0
   -3.0121   -3.2030   -1.7973 H   0  0  0  0  0  0  0  0  0  0  0  0
   -3.3964   -3.0244   -4.2478 H   0  0  0  0  0  0  0  0  0  0  0  0
   -3.7975   -1.3234   -4.0728 H   0  0  0  0  0  0  0  0  0  0  0  0
   -5.9235   -2.2043   -4.0295 H   0  0  0  0  0  0  0  0  0  0  0  0
   -5.4169   -3.7465   -3.3655 H   0  0  0  0  0  0  0  0  0  0  0  0
   -5.4824   -3.0640   -1.1583 H   0  0  0  0  0  0  0  0  0  0  0  0
   -7.5479   -1.7821   -0.7729 H   0  0  0  0  0  0  0  0  0  0  0  0
   -7.5377   -1.2001   -2.4457 H   0  0  0  0  0  0  0  0  0  0  0  0
   -7.7663   -2.9250   -2.1061 H   0  0  0  0  0  0  0  0  0  0  0  0
   -5.1619   -0.1750   -2.0999 H   0  0  0  0  0  0  0  0  0  0  0  0
   -5.3392   -0.6455   -0.4307 H   0  0  0  0  0  0  0  0  0  0  0  0
   -0.7299    2.5348   -1.0957 H   0  0  0  0  0  0  0  0  0  0  0  0
   -1.1110    4.5695    0.1430 H   0  0  0  0  0  0  0  0  0  0  0  0
   -0.2009    6.0730    2.0331 H   0  0  0  0  0  0  0  0  0  0  0  0
   -1.8123    6.2956    1.2828 H   0  0  0  0  0  0  0  0  0  0  0  0
   -1.5010    6.9112    2.8889 H   0  0  0  0  0  0  0  0  0  0  0  0
   -2.5233    4.1031    4.6224 H   0  0  0  0  0  0  0  0  0  0  0  0
   -1.8786    5.7262    4.6920 H   0  0  0  0  0  0  0  0  0  0  0  0
   -0.7513    4.3667    4.6211 H   0  0  0  0  0  0  0  0  0  0  0  0
   -1.8688    2.2399    3.6941 H   0  0  0  0  0  0  0  0  0  0  0  0
   -1.4869    0.2264    2.4595 H   0  0  0  0  0  0  0  0  0  0  0  0
  1  2  1  0
  2  3  1  0
  3  4  2  0
  4  5  1  0
  5  6  1  0
  6  7  1  0
  5  8  2  0
  8  9  1  0
  9 10  1  0
 10 11  2  0
 11 12  1  0
 12 13  2  0
 13 14  1  0
 14 15  2  0
  9 16  2  0
 16 17  1  0
 17 18  2  0
 17 19  1  0
 19 20  1  0
 20 21  2  0
 21 22  1  0
 22 23  1  0
 23 24  1  0
 24 25  1  0
 25 26  1  0
 26 27  1  0
 27 28  1  0
 28 29  1  0
 29 30  1  0
 29 31  1  0
 22 32  1  0
 32 33  2  0
 33 34  1  0
 34 35  2  0
 35 36  1  0
 36 37  1  0
 36 38  1  0
 35 39  1  0
 39 40  2  0
 21  3  1  0
 31 25  1  0
 40 32  1  0
 20  8  1  0
 15 10  1  0
  1 41  1  0
  1 42  1  0
  1 43  1  0
  4 44  1  0
  7 45  1  0
  7 46  1  0
  7 47  1  0
 11 48  1  0
 12 49  1  0
 13 50  1  0
 14 51  1  0
 15 52  1  0
 16 53  1  0
 22 54  1  0
 23 55  1  0
 23 56  1  0
 24 57  1  0
 24 58  1  0
 26 59  1  0
 26 60  1  0
 27 61  1  0
 27 62  1  0
 28 63  1  0
 28 64  1  0
 29 65  1  0
 30 66  1  0
 30 67  1  0
 30 68  1  0
 31 69  1  0
 31 70  1  0
 33 71  1  0
 34 72  1  0
 37 73  1  0
 37 74  1  0
 37 75  1  0
 38 76  1  0
 38 77  1  0
 38 78  1  0
 39 79  1  0
 40 80  1  0
M  END
$$$$
