
     RDKit          3D

 30 31  0  0  0  0  0  0  0  0999 V2000
   -4.8937   -1.0045   -0.5721 C   0  0  0  0  0  0  0  0  0  0  0  0
   -4.1576    0.1818    0.0194 C   0  0  0  0  0  0  0  0  0  0  0  0
   -2.7523   -0.0640   -0.0918 O   0  0  0  0  0  0  0  0  0  0  0  0
   -1.9645    0.9334    0.4069 C   0  0  0  0  0  0  0  0  0  0  0  0
   -2.3955    1.9638    0.9128 O   0  0  0  0  0  0  0  0  0  0  0  0
   -0.5639    0.5962    0.2513 C   0  0  0  0  0  0  0  0  0  0  0  0
   -0.2178   -0.6018   -0.3282 O   0  0  0  0  0  0  0  0  0  0  0  0
    1.1297   -0.6533   -0.3370 C   0  0  0  0  0  0  0  0  0  0  0  0
    1.6848    0.4764    0.2139 C   0  0  0  0  0  0  0  0  0  0  0  0
    0.5894    1.3010    0.6028 C   0  0  0  0  0  0  0  0  0  0  0  0
    0.6388    2.6372    1.2529 C   0  0  0  0  0  0  0  0  0  0  0  0
    3.1305    0.6075    0.2983 C   0  0  0  0  0  0  0  0  0  0  0  0
    3.6783    1.5809    0.8080 O   0  0  0  0  0  0  0  0  0  0  0  0
    3.9450   -0.5123   -0.3568 C   0  0  0  0  0  0  0  0  0  0  0  0
    3.2406   -1.8798   -0.3008 C   0  0  0  0  0  0  0  0  0  0  0  0
    1.8212   -1.8366   -0.8919 C   0  0  0  0  0  0  0  0  0  0  0  0
   -4.6152   -1.1467   -1.6216 H   0  0  0  0  0  0  0  0  0  0  0  0
   -5.9762   -0.8626   -0.5099 H   0  0  0  0  0  0  0  0  0  0  0  0
   -4.6267   -1.9261   -0.0442 H   0  0  0  0  0  0  0  0  0  0  0  0
   -4.4194    1.0915   -0.5326 H   0  0  0  0  0  0  0  0  0  0  0  0
   -4.4312    0.2976    1.0741 H   0  0  0  0  0  0  0  0  0  0  0  0
    1.6591    3.0212    1.3284 H   0  0  0  0  0  0  0  0  0  0  0  0
    0.2245    2.5821    2.2648 H   0  0  0  0  0  0  0  0  0  0  0  0
    0.0560    3.3646    0.6785 H   0  0  0  0  0  0  0  0  0  0  0  0
    4.1305   -0.2256   -1.3983 H   0  0  0  0  0  0  0  0  0  0  0  0
    4.9101   -0.5821    0.1568 H   0  0  0  0  0  0  0  0  0  0  0  0
    3.1798   -2.1989    0.7485 H   0  0  0  0  0  0  0  0  0  0  0  0
    3.8386   -2.6304   -0.8294 H   0  0  0  0  0  0  0  0  0  0  0  0
    1.8729   -1.7514   -1.9830 H   0  0  0  0  0  0  0  0  0  0  0  0
    1.2842   -2.7590   -0.6484 H   0  0  0  0  0  0  0  0  0  0  0  0
  1  2  1  0
  2  3  1  0
  3  4  1  0
  4  5  2  0
  4  6  1  0
  6  7  1  0
  7  8  1  0
  8  9  2  0
  9 10  1  0
 10 11  1  0
  9 12  1  0
 12 13  2  0
 12 14  1  0
 14 15  1  0
 15 16  1  0
 10  6  2  0
 16  8  1  0
  1 17  1  0
  1 18  1  0
  1 19  1  0
  2 20  1  0
  2 21  1  0
 11 22  1  0
 11 23  1  0
 11 24  1  0
 14 25  1  0
 14 26  1  0
 15 27  1  0
 15 28  1  0
 16 29  1  0
 16 30  1  0
M  END
$$$$
