
     RDKit          3D

 59 63  0  0  0  0  0  0  0  0999 V2000
   -4.0726   -2.8678   -1.1292 C   0  0  0  0  0  0  0  0  0  0  0  0
   -4.1474   -1.6273   -0.4411 O   0  0  0  0  0  0  0  0  0  0  0  0
   -3.7438   -1.6136    0.8708 C   0  0  0  0  0  0  0  0  0  0  0  0
   -3.5839   -2.7642    1.6527 C   0  0  0  0  0  0  0  0  0  0  0  0
   -3.1908   -2.6649    2.9903 C   0  0  0  0  0  0  0  0  0  0  0  0
   -2.9590   -1.4177    3.5618 C   0  0  0  0  0  0  0  0  0  0  0  0
   -3.1206   -0.2644    2.7957 C   0  0  0  0  0  0  0  0  0  0  0  0
   -3.5152   -0.3481    1.4493 C   0  0  0  0  0  0  0  0  0  0  0  0
   -3.6470    0.8910    0.6683 C   0  0  0  0  0  0  0  0  0  0  0  0
   -4.9994    1.8961    0.9585 S   0  0  0  0  0  0  0  0  0  0  0  0
   -4.5203    3.0364   -0.2344 C   0  0  0  0  0  0  0  0  0  0  0  0
   -5.1956    4.2218   -0.5886 C   0  0  0  0  0  0  0  0  0  0  0  0
   -4.6576    5.0380   -1.5854 C   0  0  0  0  0  0  0  0  0  0  0  0
   -3.4742    4.6883   -2.2181 C   0  0  0  0  0  0  0  0  0  0  0  0
   -2.8080    3.5118   -1.8632 C   0  0  0  0  0  0  0  0  0  0  0  0
   -3.3288    2.6573   -0.8561 C   0  0  0  0  0  0  0  0  0  0  0  0
   -2.8287    1.4102   -0.3222 C   0  0  0  0  0  0  0  0  0  0  0  0
   -1.6112    0.7281   -0.7450 C   0  0  0  0  0  0  0  0  0  0  0  0
   -1.5679    0.0753   -1.9790 C   0  0  0  0  0  0  0  0  0  0  0  0
   -0.3994   -0.5741   -2.3837 C   0  0  0  0  0  0  0  0  0  0  0  0
    0.7354   -0.5791   -1.5671 C   0  0  0  0  0  0  0  0  0  0  0  0
    1.8050   -1.2495   -2.0916 O   0  0  0  0  0  0  0  0  0  0  0  0
    2.9749   -1.4153   -1.2838 C   0  0  0  0  0  0  0  0  0  0  0  0
    3.9361   -0.2261   -1.4682 C   0  0  0  0  0  0  0  0  0  0  0  0
    5.1860   -0.2211   -0.6940 N   0  0  0  0  0  0  0  0  0  0  0  0
    4.9697   -0.0956    0.7581 C   0  0  0  0  0  0  0  0  0  0  0  0
    6.3112   -0.0306    1.5078 C   0  0  0  0  0  0  0  0  0  0  0  0
    7.1134   -1.1877    1.2333 O   0  0  0  0  0  0  0  0  0  0  0  0
    7.3641   -1.2883   -0.1758 C   0  0  0  0  0  0  0  0  0  0  0  0
    6.0486   -1.3842   -0.9670 C   0  0  0  0  0  0  0  0  0  0  0  0
    0.6937    0.0828   -0.3396 C   0  0  0  0  0  0  0  0  0  0  0  0
   -0.4756    0.7342    0.0705 C   0  0  0  0  0  0  0  0  0  0  0  0
   -3.0741   -3.3116   -1.0513 H   0  0  0  0  0  0  0  0  0  0  0  0
   -4.2675   -2.6736   -2.1883 H   0  0  0  0  0  0  0  0  0  0  0  0
   -4.8421   -3.5592   -0.7719 H   0  0  0  0  0  0  0  0  0  0  0  0
   -3.7695   -3.7550    1.2520 H   0  0  0  0  0  0  0  0  0  0  0  0
   -3.0713   -3.5657    3.5872 H   0  0  0  0  0  0  0  0  0  0  0  0
   -2.6554   -1.3416    4.6025 H   0  0  0  0  0  0  0  0  0  0  0  0
   -2.9349    0.7061    3.2504 H   0  0  0  0  0  0  0  0  0  0  0  0
   -6.1224    4.4974   -0.0936 H   0  0  0  0  0  0  0  0  0  0  0  0
   -5.1719    5.9541   -1.8653 H   0  0  0  0  0  0  0  0  0  0  0  0
   -3.0604    5.3289   -2.9929 H   0  0  0  0  0  0  0  0  0  0  0  0
   -1.8795    3.2508   -2.3658 H   0  0  0  0  0  0  0  0  0  0  0  0
   -2.4441    0.0587   -2.6228 H   0  0  0  0  0  0  0  0  0  0  0  0
   -0.3751   -1.0842   -3.3435 H   0  0  0  0  0  0  0  0  0  0  0  0
    3.4591   -2.3272   -1.6505 H   0  0  0  0  0  0  0  0  0  0  0  0
    2.7193   -1.6132   -0.2378 H   0  0  0  0  0  0  0  0  0  0  0  0
    3.4022    0.7114   -1.2687 H   0  0  0  0  0  0  0  0  0  0  0  0
    4.1890   -0.1565   -2.5349 H   0  0  0  0  0  0  0  0  0  0  0  0
    4.3985    0.8134    0.9773 H   0  0  0  0  0  0  0  0  0  0  0  0
    4.4021   -0.9544    1.1355 H   0  0  0  0  0  0  0  0  0  0  0  0
    6.8740    0.8719    1.2405 H   0  0  0  0  0  0  0  0  0  0  0  0
    6.1312   -0.0025    2.5871 H   0  0  0  0  0  0  0  0  0  0  0  0
    7.9618   -2.1902   -0.3407 H   0  0  0  0  0  0  0  0  0  0  0  0
    7.9626   -0.4283   -0.4995 H   0  0  0  0  0  0  0  0  0  0  0  0
    5.5400   -2.3121   -0.6790 H   0  0  0  0  0  0  0  0  0  0  0  0
    6.2811   -1.4385   -2.0362 H   0  0  0  0  0  0  0  0  0  0  0  0
    1.5497    0.1222    0.3243 H   0  0  0  0  0  0  0  0  0  0  0  0
   -0.4933    1.2469    1.0294 H   0  0  0  0  0  0  0  0  0  0  0  0
  1  2  1  0
  2  3  1  0
  3  4  2  0
  4  5  1  0
  5  6  2  0
  6  7  1  0
  7  8  2  0
  8  9  1  0
  9 10  1  0
 10 11  1  0
 11 12  2  0
 12 13  1  0
 13 14  2  0
 14 15  1  0
 15 16  2  0
 16 17  1  0
 17 18  1  0
 18 19  2  0
 19 20  1  0
 20 21  2  0
 21 22  1  0
 22 23  1  0
 23 24  1  0
 24 25  1  0
 25 26  1  0
 26 27  1  0
 27 28  1  0
 28 29  1  0
 29 30  1  0
 21 31  1  0
 31 32  2  0
  8  3  1  0
 17  9  2  0
 32 18  1  0
 16 11  1  0
 30 25  1  0
  1 33  1  0
  1 34  1  0
  1 35  1  0
  4 36  1  0
  5 37  1  0
  6 38  1  0
  7 39  1  0
 12 40  1  0
 13 41  1  0
 14 42  1  0
 15 43  1  0
 19 44  1  0
 20 45  1  0
 23 46  1  0
 23 47  1  0
 24 48  1  0
 24 49  1  0
 26 50  1  0
 26 51  1  0
 27 52  1  0
 27 53  1  0
 29 54  1  0
 29 55  1  0
 30 56  1  0
 30 57  1  0
 31 58  1  0
 32 59  1  0
M  END
$$$$
