
     RDKit          3D

 42 45  0  0  0  0  0  0  0  0999 V2000
   -1.4898    0.6333   -0.5496 O   0  0  0  0  0  0  0  0  0  0  0  0
   -1.8187    1.0995    0.5310 C   0  0  0  0  0  0  0  0  0  0  0  0
   -0.8808    1.7129    1.5161 C   0  0  0  0  0  0  0  0  0  0  0  0
    0.4456    1.8955    1.4548 C   0  0  0  0  0  0  0  0  0  0  0  0
    1.3058    1.5710    0.3726 C   0  0  0  0  0  0  0  0  0  0  0  0
    1.1634    1.6968   -1.0026 C   0  0  0  0  0  0  0  0  0  0  0  0
    2.3604    1.2499   -1.6132 C   0  0  0  0  0  0  0  0  0  0  0  0
    3.2051    0.8827   -0.5915 C   0  0  0  0  0  0  0  0  0  0  0  0
    4.5662    0.3585   -0.5049 C   0  0  0  0  0  0  0  0  0  0  0  0
    5.3994    0.8216    0.5325 C   0  0  0  0  0  0  0  0  0  0  0  0
    6.7173    0.3757    0.6634 C   0  0  0  0  0  0  0  0  0  0  0  0
    7.2303   -0.5468   -0.2411 C   0  0  0  0  0  0  0  0  0  0  0  0
    6.4231   -1.0252   -1.2718 C   0  0  0  0  0  0  0  0  0  0  0  0
    5.0998   -0.5801   -1.4059 C   0  0  0  0  0  0  0  0  0  0  0  0
    4.1806   -1.2795   -2.6960 Cl  0  0  0  0  0  0  0  0  0  0  0  0
    2.5816    1.1016    0.6024 O   0  0  0  0  0  0  0  0  0  0  0  0
   -1.7717    2.1781    2.9287 S   0  0  0  0  0  0  0  0  0  0  0  0
   -3.3097    1.6468    2.2717 C   0  0  0  0  0  0  0  0  0  0  0  0
   -4.7348    1.8165    3.1203 S   0  0  0  0  0  0  0  0  0  0  0  0
   -3.1178    1.1089    1.0182 N   0  0  0  0  0  0  0  0  0  0  0  0
   -4.1855    0.5501    0.1838 C   0  0  0  0  0  0  0  0  0  0  0  0
   -4.5768   -0.8976    0.5411 C   0  0  0  0  0  0  0  0  0  0  0  0
   -3.4947   -1.9413    0.3010 C   0  0  0  0  0  0  0  0  0  0  0  0
   -3.7272   -2.3347   -1.1353 C   0  0  0  0  0  0  0  0  0  0  0  0
   -5.2359   -2.2897   -1.2267 C   0  0  0  0  0  0  0  0  0  0  0  0
   -5.6804   -1.2773   -0.3107 O   0  0  0  0  0  0  0  0  0  0  0  0
    0.9592    2.3007    2.3244 H   0  0  0  0  0  0  0  0  0  0  0  0
    0.2905    2.0730   -1.5184 H   0  0  0  0  0  0  0  0  0  0  0  0
    2.5755    1.2170   -2.6718 H   0  0  0  0  0  0  0  0  0  0  0  0
    5.0208    1.5482    1.2503 H   0  0  0  0  0  0  0  0  0  0  0  0
    7.3390    0.7515    1.4726 H   0  0  0  0  0  0  0  0  0  0  0  0
    8.2544   -0.8979   -0.1425 H   0  0  0  0  0  0  0  0  0  0  0  0
    6.8287   -1.7547   -1.9691 H   0  0  0  0  0  0  0  0  0  0  0  0
   -3.8970    0.6079   -0.8729 H   0  0  0  0  0  0  0  0  0  0  0  0
   -5.0725    1.1896    0.2687 H   0  0  0  0  0  0  0  0  0  0  0  0
   -4.9201   -0.9461    1.5792 H   0  0  0  0  0  0  0  0  0  0  0  0
   -3.6859   -2.8118    0.9417 H   0  0  0  0  0  0  0  0  0  0  0  0
   -2.4769   -1.6065    0.5071 H   0  0  0  0  0  0  0  0  0  0  0  0
   -3.3153   -3.3135   -1.3944 H   0  0  0  0  0  0  0  0  0  0  0  0
   -3.2850   -1.5896   -1.8063 H   0  0  0  0  0  0  0  0  0  0  0  0
   -5.5894   -2.0550   -2.2345 H   0  0  0  0  0  0  0  0  0  0  0  0
   -5.6806   -3.2402   -0.9130 H   0  0  0  0  0  0  0  0  0  0  0  0
  1  2  2  0
  2  3  1  0
  3  4  2  3
  4  5  1  0
  5  6  2  0
  6  7  1  0
  7  8  2  0
  8  9  1  0
  9 10  2  0
 10 11  1  0
 11 12  2  0
 12 13  1  0
 13 14  2  0
 14 15  1  0
  8 16  1  0
  3 17  1  0
 17 18  1  0
 18 19  2  0
 18 20  1  0
 20 21  1  0
 21 22  1  0
 22 23  1  0
 23 24  1  0
 24 25  1  0
 25 26  1  0
 20  2  1  0
 26 22  1  0
 16  5  1  0
 14  9  1  0
  4 27  1  0
  6 28  1  0
  7 29  1  0
 10 30  1  0
 11 31  1  0
 12 32  1  0
 13 33  1  0
 21 34  1  0
 21 35  1  0
 22 36  1  0
 23 37  1  0
 23 38  1  0
 24 39  1  0
 24 40  1  0
 25 41  1  0
 25 42  1  0
M  END
$$$$
