
     RDKit          3D

 57 59  0  0  0  0  0  0  0  0999 V2000
   -3.2874   -2.3906    1.2378 C   0  0  0  0  0  0  0  0  0  0  0  0
   -4.0981   -1.2440    1.8317 C   0  0  0  0  0  0  0  0  0  0  0  0
   -3.9528    0.0149    1.0835 N   0  0  0  0  0  0  0  0  0  0  0  0
   -2.7032    0.6492    1.1866 C   0  0  0  0  0  0  0  0  0  0  0  0
   -1.8402    0.2554    1.9773 O   0  0  0  0  0  0  0  0  0  0  0  0
   -2.4298    1.8660    0.2870 C   0  0  0  0  0  0  0  0  0  0  0  0
   -1.0530    2.2488    0.3073 O   0  0  0  0  0  0  0  0  0  0  0  0
   -0.2518    1.4374   -0.4214 C   0  0  0  0  0  0  0  0  0  0  0  0
   -0.5964    0.5094   -1.1338 O   0  0  0  0  0  0  0  0  0  0  0  0
    1.1566    1.7795   -0.1619 C   0  0  0  0  0  0  0  0  0  0  0  0
    1.9924    0.7469    0.2867 C   0  0  0  0  0  0  0  0  0  0  0  0
    3.3486    1.0024    0.5436 C   0  0  0  0  0  0  0  0  0  0  0  0
    4.3629   -0.3341    1.1175 S   0  0  0  0  0  6  0  0  0  0  0  0
    4.9599    0.0840    2.3661 O   0  0  0  0  0  0  0  0  0  0  0  0
    3.5836   -1.5528    1.0408 O   0  0  0  0  0  0  0  0  0  0  0  0
    5.5738   -0.4527   -0.0730 N   0  0  0  0  0  0  0  0  0  0  0  0
    6.7502   -1.2767    0.3589 C   0  0  0  0  0  0  0  0  0  0  0  0
    7.8566   -1.1768   -0.6979 C   0  0  0  0  0  0  0  0  0  0  0  0
    7.3913   -1.6147   -1.9843 O   0  0  0  0  0  0  0  0  0  0  0  0
    6.2802   -0.8154   -2.4142 C   0  0  0  0  0  0  0  0  0  0  0  0
    5.1131   -0.9093   -1.4229 C   0  0  0  0  0  0  0  0  0  0  0  0
    3.8679    2.2867    0.3556 C   0  0  0  0  0  0  0  0  0  0  0  0
    5.5165    2.7166    0.6317 Cl  0  0  0  0  0  0  0  0  0  0  0  0
    3.0276    3.3086   -0.1091 C   0  0  0  0  0  0  0  0  0  0  0  0
    1.6769    3.0592   -0.3758 C   0  0  0  0  0  0  0  0  0  0  0  0
    0.7382    4.3581   -1.0209 Cl  0  0  0  0  0  0  0  0  0  0  0  0
   -5.0474    0.5017    0.2111 C   0  0  0  0  0  0  0  0  0  0  0  0
   -5.1201   -0.2248   -1.1405 C   0  0  0  0  0  0  0  0  0  0  0  0
   -6.0989   -1.3784   -1.0036 C   0  0  0  0  0  0  0  0  0  0  0  0
   -7.3865   -0.7711    0.0602 S   0  0  0  0  0  6  0  0  0  0  0  0
   -7.7020   -1.7937    1.0338 O   0  0  0  0  0  0  0  0  0  0  0  0
   -8.4014   -0.1483   -0.7640 O   0  0  0  0  0  0  0  0  0  0  0  0
   -6.4433    0.5174    0.8483 C   0  0  0  0  0  0  0  0  0  0  0  0
   -3.5482   -2.5732    0.1910 H   0  0  0  0  0  0  0  0  0  0  0  0
   -2.2123   -2.1883    1.2734 H   0  0  0  0  0  0  0  0  0  0  0  0
   -3.4726   -3.3096    1.8036 H   0  0  0  0  0  0  0  0  0  0  0  0
   -5.1490   -1.5312    1.8885 H   0  0  0  0  0  0  0  0  0  0  0  0
   -3.7654   -1.0679    2.8622 H   0  0  0  0  0  0  0  0  0  0  0  0
   -3.0034    2.7144    0.6763 H   0  0  0  0  0  0  0  0  0  0  0  0
   -2.7466    1.6727   -0.7443 H   0  0  0  0  0  0  0  0  0  0  0  0
    1.5740   -0.2488    0.4424 H   0  0  0  0  0  0  0  0  0  0  0  0
    6.4344   -2.3208    0.4724 H   0  0  0  0  0  0  0  0  0  0  0  0
    7.1402   -0.9131    1.3148 H   0  0  0  0  0  0  0  0  0  0  0  0
    8.2283   -0.1487   -0.7860 H   0  0  0  0  0  0  0  0  0  0  0  0
    8.6995   -1.8156   -0.4161 H   0  0  0  0  0  0  0  0  0  0  0  0
    6.6132    0.2229   -2.5383 H   0  0  0  0  0  0  0  0  0  0  0  0
    5.9665   -1.1860   -3.3950 H   0  0  0  0  0  0  0  0  0  0  0  0
    4.2918   -0.2820   -1.7790 H   0  0  0  0  0  0  0  0  0  0  0  0
    4.7717   -1.9490   -1.3578 H   0  0  0  0  0  0  0  0  0  0  0  0
    3.4322    4.3074   -0.2730 H   0  0  0  0  0  0  0  0  0  0  0  0
   -4.8187    1.5493   -0.0014 H   0  0  0  0  0  0  0  0  0  0  0  0
   -4.1415   -0.5657   -1.4925 H   0  0  0  0  0  0  0  0  0  0  0  0
   -5.5112    0.4741   -1.8904 H   0  0  0  0  0  0  0  0  0  0  0  0
   -5.6476   -2.2459   -0.5207 H   0  0  0  0  0  0  0  0  0  0  0  0
   -6.5276   -1.6801   -1.9610 H   0  0  0  0  0  0  0  0  0  0  0  0
   -6.4383    0.3663    1.9301 H   0  0  0  0  0  0  0  0  0  0  0  0
   -6.9534    1.4602    0.6241 H   0  0  0  0  0  0  0  0  0  0  0  0
  1  2  1  0
  2  3  1  0
  3  4  1  0
  4  5  2  0
  4  6  1  0
  6  7  1  0
  7  8  1  0
  8  9  2  0
  8 10  1  0
 10 11  2  0
 11 12  1  0
 12 13  1  0
 13 14  2  0
 13 15  2  0
 13 16  1  0
 16 17  1  0
 17 18  1  0
 18 19  1  0
 19 20  1  0
 20 21  1  0
 12 22  2  0
 22 23  1  0
 22 24  1  0
 24 25  2  0
 25 26  1  0
  3 27  1  0
 27 28  1  0
 28 29  1  0
 29 30  1  0
 30 31  2  0
 30 32  2  0
 30 33  1  0
 25 10  1  0
 33 27  1  0
 21 16  1  0
  1 34  1  0
  1 35  1  0
  1 36  1  0
  2 37  1  0
  2 38  1  0
  6 39  1  0
  6 40  1  0
 11 41  1  0
 17 42  1  0
 17 43  1  0
 18 44  1  0
 18 45  1  0
 20 46  1  0
 20 47  1  0
 21 48  1  0
 21 49  1  0
 24 50  1  0
 27 51  1  0
 28 52  1  0
 28 53  1  0
 29 54  1  0
 29 55  1  0
 33 56  1  0
 33 57  1  0
M  END
$$$$
