
     RDKit          3D

 35 37  0  0  0  0  0  0  0  0999 V2000
    0.0968   -1.8613    0.2411 O   0  0  0  0  0  0  0  0  0  0  0  0
    0.1062   -0.7556    0.7751 C   0  0  0  0  0  0  0  0  0  0  0  0
    1.1637   -0.2826    1.5206 N   0  0  0  0  0  0  0  0  0  0  0  0
    2.4182   -0.9813    1.6187 C   0  0  0  0  0  0  0  0  0  0  0  0
    3.4027   -0.4642    0.6008 C   0  0  0  0  0  0  0  0  0  0  0  0
    4.2893    0.5748    0.9263 C   0  0  0  0  0  0  0  0  0  0  0  0
    5.1820    1.0643   -0.0286 C   0  0  0  0  0  0  0  0  0  0  0  0
    5.1838    0.5224   -1.3085 C   0  0  0  0  0  0  0  0  0  0  0  0
    6.0408    0.9949   -2.2232 F   0  0  0  0  0  0  0  0  0  0  0  0
    4.3076   -0.4988   -1.6543 C   0  0  0  0  0  0  0  0  0  0  0  0
    3.4144   -0.9903   -0.7016 C   0  0  0  0  0  0  0  0  0  0  0  0
   -1.0118    0.1868    0.6657 C   0  0  0  0  0  0  0  0  0  0  0  0
   -0.9652    1.4074    1.2452 N   0  0  0  0  0  0  0  0  0  0  0  0
   -2.1670    2.0313    0.9324 O   0  0  0  0  0  0  0  0  0  0  0  0
   -2.9042    1.1911    0.1790 C   0  0  0  0  0  0  0  0  0  0  0  0
   -2.2396    0.0103   -0.0183 C   0  0  0  0  0  0  0  0  0  0  0  0
   -2.8076   -1.0993   -0.8219 C   0  0  0  0  0  0  0  0  0  0  0  0
   -4.3246   -0.8885   -1.0405 C   0  0  0  0  0  0  0  0  0  0  0  0
   -4.6824    0.5740   -1.3926 C   0  0  0  0  0  0  0  0  0  0  0  0
   -4.2473    1.5726   -0.2978 C   0  0  0  0  0  0  0  0  0  0  0  0
    1.1072    0.6868    1.8149 H   0  0  0  0  0  0  0  0  0  0  0  0
    2.2691   -2.0594    1.4903 H   0  0  0  0  0  0  0  0  0  0  0  0
    2.8029   -0.8263    2.6327 H   0  0  0  0  0  0  0  0  0  0  0  0
    4.2885    1.0085    1.9239 H   0  0  0  0  0  0  0  0  0  0  0  0
    5.8725    1.8653    0.2154 H   0  0  0  0  0  0  0  0  0  0  0  0
    4.3216   -0.9026   -2.6614 H   0  0  0  0  0  0  0  0  0  0  0  0
    2.7205   -1.7832   -0.9776 H   0  0  0  0  0  0  0  0  0  0  0  0
   -2.3026   -1.1294   -1.7948 H   0  0  0  0  0  0  0  0  0  0  0  0
   -2.6413   -2.0640   -0.3309 H   0  0  0  0  0  0  0  0  0  0  0  0
   -4.8632   -1.1697   -0.1260 H   0  0  0  0  0  0  0  0  0  0  0  0
   -4.6732   -1.5586   -1.8345 H   0  0  0  0  0  0  0  0  0  0  0  0
   -4.1892    0.8360   -2.3379 H   0  0  0  0  0  0  0  0  0  0  0  0
   -5.7615    0.6648   -1.5605 H   0  0  0  0  0  0  0  0  0  0  0  0
   -4.2536    2.5925   -0.6951 H   0  0  0  0  0  0  0  0  0  0  0  0
   -4.9536    1.5312    0.5390 H   0  0  0  0  0  0  0  0  0  0  0  0
  1  2  2  0
  2  3  1  0
  3  4  1  0
  4  5  1  0
  5  6  2  0
  6  7  1  0
  7  8  2  0
  8  9  1  0
  8 10  1  0
 10 11  2  0
  2 12  1  0
 12 13  2  0
 13 14  1  0
 14 15  1  0
 15 16  2  0
 16 17  1  0
 17 18  1  0
 18 19  1  0
 19 20  1  0
 11  5  1  0
 16 12  1  0
 20 15  1  0
  3 21  1  0
  4 22  1  0
  4 23  1  0
  6 24  1  0
  7 25  1  0
 10 26  1  0
 11 27  1  0
 17 28  1  0
 17 29  1  0
 18 30  1  0
 18 31  1  0
 19 32  1  0
 19 33  1  0
 20 34  1  0
 20 35  1  0
M  END
$$$$
