
     RDKit          3D

 50 52  0  0  0  0  0  0  0  0999 V2000
   -3.9038   -2.9561    0.3934 C   0  0  0  0  0  0  0  0  0  0  0  0
   -2.9038   -1.9791    1.0030 C   0  0  0  0  0  0  0  0  0  0  0  0
   -2.7266   -0.6725    0.1980 C   0  0  0  0  0  0  0  0  0  0  0  0
   -4.0021    0.1588    0.0723 C   0  0  0  0  0  0  0  0  0  0  0  0
   -4.6607    0.6202    1.2280 C   0  0  0  0  0  0  0  0  0  0  0  0
   -5.8343    1.3729    1.1418 C   0  0  0  0  0  0  0  0  0  0  0  0
   -6.3749    1.6812   -0.1021 C   0  0  0  0  0  0  0  0  0  0  0  0
   -5.7406    1.2398   -1.2592 C   0  0  0  0  0  0  0  0  0  0  0  0
   -4.5658    0.4869   -1.1741 C   0  0  0  0  0  0  0  0  0  0  0  0
   -2.1002   -0.9500   -1.0828 N   0  0  0  0  0  0  0  0  0  0  0  0
   -0.8118   -0.4866   -1.1603 C   0  0  0  0  0  0  0  0  0  0  0  0
   -0.0690   -0.6887   -2.1067 O   0  0  0  0  0  0  0  0  0  0  0  0
   -0.5300    0.2068   -0.0300 N   0  0  0  0  0  0  0  0  0  0  0  0
    0.7726    0.7457    0.2803 C   0  0  0  0  0  0  0  0  0  0  0  0
    1.6400   -0.3510    0.9176 C   0  0  0  0  0  0  0  0  0  0  0  0
    1.1606   -1.4495    1.2146 O   0  0  0  0  0  0  0  0  0  0  0  0
    2.9763   -0.0441    1.1673 N   0  0  0  0  0  0  0  0  0  0  0  0
    3.8283   -1.0728    1.7491 C   0  0  0  0  0  0  0  0  0  0  0  0
    3.6435    1.1823    0.7267 C   0  0  0  0  0  0  0  0  0  0  0  0
    4.5250    0.9985   -0.4884 C   0  0  0  0  0  0  0  0  0  0  0  0
    5.7988    1.5884   -0.5166 C   0  0  0  0  0  0  0  0  0  0  0  0
    6.6200    1.4606   -1.6388 C   0  0  0  0  0  0  0  0  0  0  0  0
    6.1761    0.7493   -2.7507 C   0  0  0  0  0  0  0  0  0  0  0  0
    4.9110    0.1674   -2.7421 C   0  0  0  0  0  0  0  0  0  0  0  0
    4.0882    0.2939   -1.6209 C   0  0  0  0  0  0  0  0  0  0  0  0
   -1.5754    0.1469    0.8475 C   0  0  0  0  0  0  0  0  0  0  0  0
   -1.5838    0.6380    1.9709 O   0  0  0  0  0  0  0  0  0  0  0  0
   -3.6059   -3.2575   -0.6152 H   0  0  0  0  0  0  0  0  0  0  0  0
   -4.9083   -2.5252    0.3439 H   0  0  0  0  0  0  0  0  0  0  0  0
   -3.9613   -3.8608    1.0075 H   0  0  0  0  0  0  0  0  0  0  0  0
   -1.9369   -2.4929    1.0933 H   0  0  0  0  0  0  0  0  0  0  0  0
   -3.2178   -1.7557    2.0303 H   0  0  0  0  0  0  0  0  0  0  0  0
   -4.2577    0.4060    2.2174 H   0  0  0  0  0  0  0  0  0  0  0  0
   -6.3223    1.7207    2.0489 H   0  0  0  0  0  0  0  0  0  0  0  0
   -7.2869    2.2681   -0.1697 H   0  0  0  0  0  0  0  0  0  0  0  0
   -6.1587    1.4833   -2.2329 H   0  0  0  0  0  0  0  0  0  0  0  0
   -4.1009    0.1671   -2.1035 H   0  0  0  0  0  0  0  0  0  0  0  0
   -2.4683   -1.5683   -1.7913 H   0  0  0  0  0  0  0  0  0  0  0  0
    0.6645    1.5695    0.9923 H   0  0  0  0  0  0  0  0  0  0  0  0
    1.2312    1.0917   -0.6495 H   0  0  0  0  0  0  0  0  0  0  0  0
    4.4753   -0.6188    2.5054 H   0  0  0  0  0  0  0  0  0  0  0  0
    3.2441   -1.8644    2.2257 H   0  0  0  0  0  0  0  0  0  0  0  0
    4.4414   -1.5181    0.9605 H   0  0  0  0  0  0  0  0  0  0  0  0
    4.2381    1.5377    1.5775 H   0  0  0  0  0  0  0  0  0  0  0  0
    2.9197    1.9724    0.5103 H   0  0  0  0  0  0  0  0  0  0  0  0
    6.1651    2.1530    0.3384 H   0  0  0  0  0  0  0  0  0  0  0  0
    7.6062    1.9177   -1.6459 H   0  0  0  0  0  0  0  0  0  0  0  0
    6.8144    0.6492   -3.6245 H   0  0  0  0  0  0  0  0  0  0  0  0
    4.5607   -0.3874   -3.6092 H   0  0  0  0  0  0  0  0  0  0  0  0
    3.1066   -0.1748   -1.6457 H   0  0  0  0  0  0  0  0  0  0  0  0
  1  2  1  0
  2  3  1  0
  3  4  1  0
  4  5  2  0
  5  6  1  0
  6  7  2  0
  7  8  1  0
  8  9  2  0
  3 10  1  0
 10 11  1  0
 11 12  2  0
 11 13  1  0
 13 14  1  0
 14 15  1  0
 15 16  2  0
 15 17  1  0
 17 18  1  0
 17 19  1  0
 19 20  1  0
 20 21  2  0
 21 22  1  0
 22 23  2  0
 23 24  1  0
 24 25  2  0
 13 26  1  0
 26 27  2  0
 26  3  1  0
  9  4  1  0
 25 20  1  0
  1 28  1  0
  1 29  1  0
  1 30  1  0
  2 31  1  0
  2 32  1  0
  5 33  1  0
  6 34  1  0
  7 35  1  0
  8 36  1  0
  9 37  1  0
 10 38  1  0
 14 39  1  0
 14 40  1  0
 18 41  1  0
 18 42  1  0
 18 43  1  0
 19 44  1  0
 19 45  1  0
 21 46  1  0
 22 47  1  0
 23 48  1  0
 24 49  1  0
 25 50  1  0
M  END
$$$$
