
     RDKit          3D

 69 72  0  0  0  0  0  0  0  0999 V2000
    8.3076    3.1337    0.0808 C   0  0  0  0  0  0  0  0  0  0  0  0
    7.6199    1.8485    0.4400 C   0  0  0  0  0  0  0  0  0  0  0  0
    8.3333    0.6403    0.4154 C   0  0  0  0  0  0  0  0  0  0  0  0
    7.7208   -0.5588    0.7884 C   0  0  0  0  0  0  0  0  0  0  0  0
    6.3847   -0.5656    1.1824 C   0  0  0  0  0  0  0  0  0  0  0  0
    5.6652    0.6327    1.1995 C   0  0  0  0  0  0  0  0  0  0  0  0
    4.2553    0.6078    1.6419 C   0  0  0  0  0  0  0  0  0  0  0  0
    4.0088    0.1331    2.7490 O   0  0  0  0  0  0  0  0  0  0  0  0
    3.2636    1.1048    0.7831 N   0  0  0  0  0  0  0  0  0  0  0  0
    3.4093    1.0869   -0.6754 C   0  0  0  0  0  0  0  0  0  0  0  0
    3.1022   -0.2892   -1.2504 C   0  0  0  0  0  0  0  0  0  0  0  0
    1.6208   -0.4765   -1.5048 C   0  0  0  0  0  0  0  0  0  0  0  0
    1.2293   -0.7058   -2.6491 O   0  0  0  0  0  0  0  0  0  0  0  0
    0.7468   -0.3776   -0.4288 N   0  0  0  0  0  0  0  0  0  0  0  0
   -0.7065   -0.6221   -0.6436 C   0  0  0  0  0  0  0  0  0  0  0  0
   -1.3077    0.3139   -1.7279 C   0  0  0  0  0  0  0  0  0  0  0  0
   -2.7210    0.4743   -1.5880 O   0  0  0  0  0  0  0  0  0  0  0  0
   -3.0796    1.5124   -0.6829 C   0  0  0  0  0  0  0  0  0  0  0  0
   -4.5690    1.4537   -0.4667 C   0  0  0  0  0  0  0  0  0  0  0  0
   -5.4338    2.2616   -1.2157 C   0  0  0  0  0  0  0  0  0  0  0  0
   -6.8136    2.1901   -1.0236 C   0  0  0  0  0  0  0  0  0  0  0  0
   -7.3443    1.3047   -0.0856 C   0  0  0  0  0  0  0  0  0  0  0  0
   -6.4996    0.4790    0.6720 C   0  0  0  0  0  0  0  0  0  0  0  0
   -7.0788   -0.4967    1.6657 C   0  0  0  0  0  0  0  0  0  0  0  0
   -8.1694    0.0006    2.3171 F   0  0  0  0  0  0  0  0  0  0  0  0
   -6.2040   -0.8586    2.6472 F   0  0  0  0  0  0  0  0  0  0  0  0
   -7.4928   -1.6577    1.0857 F   0  0  0  0  0  0  0  0  0  0  0  0
   -5.1129    0.5546    0.4637 C   0  0  0  0  0  0  0  0  0  0  0  0
   -0.9821   -2.1164   -0.9410 C   0  0  0  0  0  0  0  0  0  0  0  0
   -2.2993   -2.6023   -0.3803 C   0  0  0  0  0  0  0  0  0  0  0  0
   -3.4604   -2.5806   -1.1631 C   0  0  0  0  0  0  0  0  0  0  0  0
   -4.6770   -3.0169   -0.6367 C   0  0  0  0  0  0  0  0  0  0  0  0
   -4.7455   -3.4791    0.6762 C   0  0  0  0  0  0  0  0  0  0  0  0
   -3.5971   -3.5039    1.4646 C   0  0  0  0  0  0  0  0  0  0  0  0
   -2.3795   -3.0666    0.9404 C   0  0  0  0  0  0  0  0  0  0  0  0
    1.2169   -0.2971    0.9665 C   0  0  0  0  0  0  0  0  0  0  0  0
    1.8896    1.0467    1.2794 C   0  0  0  0  0  0  0  0  0  0  0  0
    6.2818    1.8409    0.8525 C   0  0  0  0  0  0  0  0  0  0  0  0
    8.9275    2.9943   -0.8090 H   0  0  0  0  0  0  0  0  0  0  0  0
    7.5818    3.9216   -0.1460 H   0  0  0  0  0  0  0  0  0  0  0  0
    8.9389    3.4661    0.9114 H   0  0  0  0  0  0  0  0  0  0  0  0
    9.3802    0.6300    0.1161 H   0  0  0  0  0  0  0  0  0  0  0  0
    8.2888   -1.4856    0.7825 H   0  0  0  0  0  0  0  0  0  0  0  0
    5.9080   -1.4963    1.4835 H   0  0  0  0  0  0  0  0  0  0  0  0
    2.7518    1.8588   -1.0924 H   0  0  0  0  0  0  0  0  0  0  0  0
    4.4309    1.3590   -0.9493 H   0  0  0  0  0  0  0  0  0  0  0  0
    3.6022   -0.3777   -2.2234 H   0  0  0  0  0  0  0  0  0  0  0  0
    3.4757   -1.1083   -0.6274 H   0  0  0  0  0  0  0  0  0  0  0  0
   -1.2004   -0.3649    0.3006 H   0  0  0  0  0  0  0  0  0  0  0  0
   -0.8247    1.2994   -1.7085 H   0  0  0  0  0  0  0  0  0  0  0  0
   -1.1433   -0.0981   -2.7282 H   0  0  0  0  0  0  0  0  0  0  0  0
   -2.7897    2.4825   -1.1040 H   0  0  0  0  0  0  0  0  0  0  0  0
   -2.5656    1.3976    0.2788 H   0  0  0  0  0  0  0  0  0  0  0  0
   -5.0355    2.9455   -1.9622 H   0  0  0  0  0  0  0  0  0  0  0  0
   -7.4758    2.8212   -1.6105 H   0  0  0  0  0  0  0  0  0  0  0  0
   -8.4230    1.2557    0.0523 H   0  0  0  0  0  0  0  0  0  0  0  0
   -4.4479   -0.1036    1.0250 H   0  0  0  0  0  0  0  0  0  0  0  0
   -0.1892   -2.7363   -0.4974 H   0  0  0  0  0  0  0  0  0  0  0  0
   -0.9391   -2.3177   -2.0174 H   0  0  0  0  0  0  0  0  0  0  0  0
   -3.4279   -2.2072   -2.1848 H   0  0  0  0  0  0  0  0  0  0  0  0
   -5.5735   -2.9877   -1.2504 H   0  0  0  0  0  0  0  0  0  0  0  0
   -5.6951   -3.8175    1.0825 H   0  0  0  0  0  0  0  0  0  0  0  0
   -3.6486   -3.8691    2.4861 H   0  0  0  0  0  0  0  0  0  0  0  0
   -1.4915   -3.0997    1.5665 H   0  0  0  0  0  0  0  0  0  0  0  0
    0.3625   -0.4245    1.6390 H   0  0  0  0  0  0  0  0  0  0  0  0
    1.8964   -1.1381    1.1471 H   0  0  0  0  0  0  0  0  0  0  0  0
    1.3308    1.8803    0.8374 H   0  0  0  0  0  0  0  0  0  0  0  0
    1.8957    1.2026    2.3642 H   0  0  0  0  0  0  0  0  0  0  0  0
    5.7175    2.7689    0.9098 H   0  0  0  0  0  0  0  0  0  0  0  0
  1  2  1  0
  2  3  2  0
  3  4  1  0
  4  5  2  0
  5  6  1  0
  6  7  1  0
  7  8  2  0
  7  9  1  0
  9 10  1  0
 10 11  1  0
 11 12  1  0
 12 13  2  0
 12 14  1  0
 14 15  1  0
 15 16  1  0
 16 17  1  0
 17 18  1  0
 18 19  1  0
 19 20  2  0
 20 21  1  0
 21 22  2  0
 22 23  1  0
 23 24  1  0
 24 25  1  0
 24 26  1  0
 24 27  1  0
 23 28  2  0
 15 29  1  0
 29 30  1  0
 30 31  2  0
 31 32  1  0
 32 33  2  0
 33 34  1  0
 34 35  2  0
 14 36  1  0
 36 37  1  0
  6 38  2  0
 38  2  1  0
 37  9  1  0
 28 19  1  0
 35 30  1  0
  1 39  1  0
  1 40  1  0
  1 41  1  0
  3 42  1  0
  4 43  1  0
  5 44  1  0
 10 45  1  0
 10 46  1  0
 11 47  1  0
 11 48  1  0
 15 49  1  0
 16 50  1  0
 16 51  1  0
 18 52  1  0
 18 53  1  0
 20 54  1  0
 21 55  1  0
 22 56  1  0
 28 57  1  0
 29 58  1  0
 29 59  1  0
 31 60  1  0
 32 61  1  0
 33 62  1  0
 34 63  1  0
 35 64  1  0
 36 65  1  0
 36 66  1  0
 37 67  1  0
 37 68  1  0
 38 69  1  0
M  END
$$$$
