
     RDKit          3D

 52 54  0  0  0  0  0  0  0  0999 V2000
    3.6515    1.5950    1.0844 C   0  0  0  0  0  0  0  0  0  0  0  0
    3.1607    0.4133    0.2495 C   0  0  0  0  0  0  0  0  0  0  0  0
    3.4755    0.5760   -1.2521 C   0  0  0  0  0  0  0  0  0  0  0  0
    4.8147   -0.0381   -1.6807 C   0  0  0  0  0  0  0  0  0  0  0  0
    6.0367    0.6884   -1.1814 C   0  0  0  0  0  0  0  0  0  0  0  0
    6.8820    0.0899   -0.2372 C   0  0  0  0  0  0  0  0  0  0  0  0
    8.0127    0.7633    0.2280 C   0  0  0  0  0  0  0  0  0  0  0  0
    8.3116    2.0382   -0.2484 C   0  0  0  0  0  0  0  0  0  0  0  0
    7.4819    2.6401   -1.1924 C   0  0  0  0  0  0  0  0  0  0  0  0
    6.3508    1.9684   -1.6587 C   0  0  0  0  0  0  0  0  0  0  0  0
    1.7182    0.2728    0.4481 N   0  0  0  0  0  0  0  0  0  0  0  0
    1.0810   -0.9360    0.2467 C   0  0  0  0  0  0  0  0  0  0  0  0
    1.6697   -1.9695   -0.0508 O   0  0  0  0  0  0  0  0  0  0  0  0
   -0.4039   -0.9298    0.3637 C   0  0  0  0  0  0  0  0  0  0  0  0
   -1.1306   -1.9042   -0.3273 C   0  0  0  0  0  0  0  0  0  0  0  0
   -2.5266   -1.9340   -0.2447 C   0  0  0  0  0  0  0  0  0  0  0  0
   -3.2165   -0.9980    0.5361 C   0  0  0  0  0  0  0  0  0  0  0  0
   -4.6238   -1.0928    0.5605 N   0  0  0  0  0  0  0  0  0  0  0  0
   -5.5033   -0.3216    1.2991 C   0  0  0  0  0  0  0  0  0  0  0  0
   -5.2161    0.5480    2.1122 O   0  0  0  0  0  0  0  0  0  0  0  0
   -6.9443   -0.6336    1.0846 C   0  0  0  0  0  0  0  0  0  0  0  0
   -7.8159   -0.5460    2.1785 C   0  0  0  0  0  0  0  0  0  0  0  0
   -9.1734   -0.8286    2.0194 C   0  0  0  0  0  0  0  0  0  0  0  0
   -9.6666   -1.1891    0.7655 C   0  0  0  0  0  0  0  0  0  0  0  0
   -8.8008   -1.2561   -0.3261 C   0  0  0  0  0  0  0  0  0  0  0  0
   -9.4776   -1.7238   -2.0288 Br  0  0  0  0  0  0  0  0  0  0  0  0
   -7.4421   -0.9765   -0.1785 C   0  0  0  0  0  0  0  0  0  0  0  0
   -2.4858   -0.0348    1.2349 C   0  0  0  0  0  0  0  0  0  0  0  0
   -1.0870   -0.0021    1.1562 C   0  0  0  0  0  0  0  0  0  0  0  0
    3.3680    1.4659    2.1352 H   0  0  0  0  0  0  0  0  0  0  0  0
    4.7373    1.7007    1.0496 H   0  0  0  0  0  0  0  0  0  0  0  0
    3.2060    2.5356    0.7412 H   0  0  0  0  0  0  0  0  0  0  0  0
    3.6274   -0.5045    0.6274 H   0  0  0  0  0  0  0  0  0  0  0  0
    2.7013    0.0664   -1.8413 H   0  0  0  0  0  0  0  0  0  0  0  0
    3.4175    1.6327   -1.5415 H   0  0  0  0  0  0  0  0  0  0  0  0
    4.8614   -0.0509   -2.7778 H   0  0  0  0  0  0  0  0  0  0  0  0
    4.8480   -1.0918   -1.3756 H   0  0  0  0  0  0  0  0  0  0  0  0
    6.6632   -0.9049    0.1452 H   0  0  0  0  0  0  0  0  0  0  0  0
    8.6609    0.2913    0.9617 H   0  0  0  0  0  0  0  0  0  0  0  0
    9.1930    2.5608    0.1134 H   0  0  0  0  0  0  0  0  0  0  0  0
    7.7174    3.6323   -1.5682 H   0  0  0  0  0  0  0  0  0  0  0  0
    5.7165    2.4488   -2.4001 H   0  0  0  0  0  0  0  0  0  0  0  0
    1.1626    1.1174    0.4330 H   0  0  0  0  0  0  0  0  0  0  0  0
   -0.6110   -2.6437   -0.9340 H   0  0  0  0  0  0  0  0  0  0  0  0
   -3.0596   -2.7033   -0.7977 H   0  0  0  0  0  0  0  0  0  0  0  0
   -5.0175   -1.8544    0.0233 H   0  0  0  0  0  0  0  0  0  0  0  0
   -7.4359   -0.2576    3.1575 H   0  0  0  0  0  0  0  0  0  0  0  0
   -9.8454   -0.7627    2.8720 H   0  0  0  0  0  0  0  0  0  0  0  0
  -10.7258   -1.4049    0.6483 H   0  0  0  0  0  0  0  0  0  0  0  0
   -6.7907   -0.9969   -1.0473 H   0  0  0  0  0  0  0  0  0  0  0  0
   -2.9738    0.7059    1.8614 H   0  0  0  0  0  0  0  0  0  0  0  0
   -0.5534    0.7390    1.7445 H   0  0  0  0  0  0  0  0  0  0  0  0
  1  2  1  0
  2  3  1  0
  3  4  1  0
  4  5  1  0
  5  6  2  0
  6  7  1  0
  7  8  2  0
  8  9  1  0
  9 10  2  0
  2 11  1  0
 11 12  1  0
 12 13  2  0
 12 14  1  0
 14 15  2  0
 15 16  1  0
 16 17  2  0
 17 18  1  0
 18 19  1  0
 19 20  2  0
 19 21  1  0
 21 22  2  0
 22 23  1  0
 23 24  2  0
 24 25  1  0
 25 26  1  0
 25 27  2  0
 17 28  1  0
 28 29  2  0
 10  5  1  0
 29 14  1  0
 27 21  1  0
  1 30  1  0
  1 31  1  0
  1 32  1  0
  2 33  1  0
  3 34  1  0
  3 35  1  0
  4 36  1  0
  4 37  1  0
  6 38  1  0
  7 39  1  0
  8 40  1  0
  9 41  1  0
 10 42  1  0
 11 43  1  0
 15 44  1  0
 16 45  1  0
 18 46  1  0
 22 47  1  0
 23 48  1  0
 24 49  1  0
 27 50  1  0
 28 51  1  0
 29 52  1  0
M  END
$$$$
