
     RDKit          3D

 52 55  0  0  0  0  0  0  0  0999 V2000
    8.8253   -0.1212   -0.9031 C   0  0  0  0  0  0  0  0  0  0  0  0
    8.3471   -0.5165    0.4831 C   0  0  0  0  0  0  0  0  0  0  0  0
    7.4131    0.4357    0.9846 O   0  0  0  0  0  0  0  0  0  0  0  0
    6.0865    0.2783    0.7025 C   0  0  0  0  0  0  0  0  0  0  0  0
    5.5199   -0.6979   -0.1118 C   0  0  0  0  0  0  0  0  0  0  0  0
    4.1321   -0.7314   -0.3100 C   0  0  0  0  0  0  0  0  0  0  0  0
    3.2914    0.2120    0.2955 C   0  0  0  0  0  0  0  0  0  0  0  0
    1.9066    0.0973    0.0465 N   0  0  0  0  0  0  0  0  0  0  0  0
    0.9070    0.9687    0.4246 C   0  0  0  0  0  0  0  0  0  0  0  0
    1.0998    2.0428    0.9885 O   0  0  0  0  0  0  0  0  0  0  0  0
   -0.3881    0.5382    0.1164 N   0  0  0  0  0  0  0  0  0  0  0  0
   -0.7211   -0.7260   -0.5408 C   0  0  0  0  0  0  0  0  0  0  0  0
   -2.2197   -0.9386   -0.7269 C   0  0  0  0  0  0  0  0  0  0  0  0
   -2.9583   -0.6799    0.5902 C   0  0  0  0  0  0  0  0  0  0  0  0
   -4.3893   -0.8871    0.4696 N   0  0  0  0  0  0  0  0  0  0  0  0
   -5.0789   -1.9847    1.0376 C   0  0  0  0  0  0  0  0  0  0  0  0
   -4.6168   -2.8996    1.6981 O   0  0  0  0  0  0  0  0  0  0  0  0
   -6.4272   -1.8379    0.6847 N   0  0  0  0  0  0  0  0  0  0  0  0
   -6.5694   -0.7024   -0.1019 C   0  0  0  0  0  0  0  0  0  0  0  0
   -7.7114   -0.1915   -0.6766 C   0  0  0  0  0  0  0  0  0  0  0  0
   -7.5676    0.9722   -1.4370 C   0  0  0  0  0  0  0  0  0  0  0  0
   -6.3045    1.5781   -1.6005 C   0  0  0  0  0  0  0  0  0  0  0  0
   -5.1587    1.0372   -1.0026 C   0  0  0  0  0  0  0  0  0  0  0  0
   -5.3142   -0.1083   -0.2509 C   0  0  0  0  0  0  0  0  0  0  0  0
   -2.5838    0.6628    1.2413 C   0  0  0  0  0  0  0  0  0  0  0  0
   -1.5073    1.4119    0.4626 C   0  0  0  0  0  0  0  0  0  0  0  0
    3.8643    1.1863    1.1098 C   0  0  0  0  0  0  0  0  0  0  0  0
    5.2500    1.2177    1.3076 C   0  0  0  0  0  0  0  0  0  0  0  0
    9.6272   -0.7844   -1.2438 H   0  0  0  0  0  0  0  0  0  0  0  0
    8.0118   -0.1623   -1.6318 H   0  0  0  0  0  0  0  0  0  0  0  0
    9.1993    0.9083   -0.9025 H   0  0  0  0  0  0  0  0  0  0  0  0
    7.9655   -1.5434    0.5177 H   0  0  0  0  0  0  0  0  0  0  0  0
    9.2058   -0.4920    1.1643 H   0  0  0  0  0  0  0  0  0  0  0  0
    6.1212   -1.4477   -0.6127 H   0  0  0  0  0  0  0  0  0  0  0  0
    3.7228   -1.5068   -0.9527 H   0  0  0  0  0  0  0  0  0  0  0  0
    1.6410   -0.6636   -0.5532 H   0  0  0  0  0  0  0  0  0  0  0  0
   -0.3007   -1.5366    0.0655 H   0  0  0  0  0  0  0  0  0  0  0  0
   -0.2257   -0.7477   -1.5176 H   0  0  0  0  0  0  0  0  0  0  0  0
   -2.5874   -0.2731   -1.5165 H   0  0  0  0  0  0  0  0  0  0  0  0
   -2.4083   -1.9610   -1.0765 H   0  0  0  0  0  0  0  0  0  0  0  0
   -2.6049   -1.4539    1.2860 H   0  0  0  0  0  0  0  0  0  0  0  0
   -7.1474   -2.4861    0.9580 H   0  0  0  0  0  0  0  0  0  0  0  0
   -8.6788   -0.6630   -0.5482 H   0  0  0  0  0  0  0  0  0  0  0  0
   -8.4400    1.4178   -1.9110 H   0  0  0  0  0  0  0  0  0  0  0  0
   -6.2215    2.4839   -2.1982 H   0  0  0  0  0  0  0  0  0  0  0  0
   -4.1994    1.5186   -1.1359 H   0  0  0  0  0  0  0  0  0  0  0  0
   -3.4533    1.3149    1.3797 H   0  0  0  0  0  0  0  0  0  0  0  0
   -2.2059    0.4582    2.2521 H   0  0  0  0  0  0  0  0  0  0  0  0
   -1.1806    2.2769    1.0482 H   0  0  0  0  0  0  0  0  0  0  0  0
   -1.9097    1.8071   -0.4770 H   0  0  0  0  0  0  0  0  0  0  0  0
    3.2648    1.9348    1.6182 H   0  0  0  0  0  0  0  0  0  0  0  0
    5.6772    1.9855    1.9496 H   0  0  0  0  0  0  0  0  0  0  0  0
  1  2  1  0
  2  3  1  0
  3  4  1  0
  4  5  2  0
  5  6  1  0
  6  7  2  0
  7  8  1  0
  8  9  1  0
  9 10  2  0
  9 11  1  0
 11 12  1  0
 12 13  1  0
 13 14  1  0
 14 15  1  0
 15 16  1  0
 16 17  2  0
 16 18  1  0
 18 19  1  0
 19 20  2  0
 20 21  1  0
 21 22  2  0
 22 23  1  0
 23 24  2  0
 14 25  1  0
 25 26  1  0
  7 27  1  0
 27 28  2  0
 28  4  1  0
 26 11  1  0
 24 15  1  0
 24 19  1  0
  1 29  1  0
  1 30  1  0
  1 31  1  0
  2 32  1  0
  2 33  1  0
  5 34  1  0
  6 35  1  0
  8 36  1  0
 12 37  1  0
 12 38  1  0
 13 39  1  0
 13 40  1  0
 14 41  1  0
 18 42  1  0
 20 43  1  0
 21 44  1  0
 22 45  1  0
 23 46  1  0
 25 47  1  0
 25 48  1  0
 26 49  1  0
 26 50  1  0
 27 51  1  0
 28 52  1  0
M  END
$$$$
