
     RDKit          3D

 57 61  0  0  0  0  0  0  0  0999 V2000
   -7.1739   -4.0411    1.0364 C   0  0  0  0  0  0  0  0  0  0  0  0
   -6.2748   -2.9122    0.6310 C   0  0  0  0  0  0  0  0  0  0  0  0
   -4.8907   -2.9969    0.7918 C   0  0  0  0  0  0  0  0  0  0  0  0
   -4.0623   -1.9338    0.4088 C   0  0  0  0  0  0  0  0  0  0  0  0
   -4.5879   -0.7555   -0.1533 C   0  0  0  0  0  0  0  0  0  0  0  0
   -3.7308    0.3781   -0.5714 C   0  0  0  0  0  0  0  0  0  0  0  0
   -2.4007    0.2351   -0.9278 C   0  0  0  0  0  0  0  0  0  0  0  0
   -1.6867    1.3778   -1.2875 C   0  0  0  0  0  0  0  0  0  0  0  0
   -0.2611    1.2002   -1.6188 C   0  0  0  0  0  0  0  0  0  0  0  0
    0.0429    1.0295   -2.7895 O   0  0  0  0  0  0  0  0  0  0  0  0
    0.5590    1.2499   -0.5099 N   0  0  0  0  0  0  0  0  0  0  0  0
    1.9605    1.1022   -0.4773 C   0  0  0  0  0  0  0  0  0  0  0  0
    2.5861    1.2290    0.7720 C   0  0  0  0  0  0  0  0  0  0  0  0
    3.9718    1.0953    0.8938 C   0  0  0  0  0  0  0  0  0  0  0  0
    4.7373    0.8170   -0.2394 C   0  0  0  0  0  0  0  0  0  0  0  0
    6.5033    0.6769   -0.1077 S   0  0  0  0  0  6  0  0  0  0  0  0
    6.9202    1.1475    1.1964 O   0  0  0  0  0  0  0  0  0  0  0  0
    7.0536    1.2783   -1.3084 O   0  0  0  0  0  0  0  0  0  0  0  0
    6.7772   -0.9564   -0.2500 N   0  0  0  0  0  0  0  0  0  0  0  0
    6.6783   -1.7174    0.9092 C   0  0  0  0  0  0  0  0  0  0  0  0
    7.6126   -2.6691    1.0055 N   0  0  0  0  0  0  0  0  0  0  0  0
    7.4810   -3.5007    2.0569 C   0  0  0  0  0  0  0  0  0  0  0  0
    6.4421   -3.4301    2.9576 C   0  0  0  0  0  0  0  0  0  0  0  0
    5.5150   -2.4435    2.7136 C   0  0  0  0  0  0  0  0  0  0  0  0
    5.5979   -1.5832    1.6823 N   0  0  0  0  0  0  0  0  0  0  0  0
    4.1296    0.6977   -1.4915 C   0  0  0  0  0  0  0  0  0  0  0  0
    2.7418    0.8383   -1.6061 C   0  0  0  0  0  0  0  0  0  0  0  0
   -2.2857    2.6491   -1.3175 C   0  0  0  0  0  0  0  0  0  0  0  0
   -1.6212    3.8453   -1.6836 C   0  0  0  0  0  0  0  0  0  0  0  0
   -2.2956    5.0655   -1.6765 C   0  0  0  0  0  0  0  0  0  0  0  0
   -3.6359    5.1034   -1.3136 C   0  0  0  0  0  0  0  0  0  0  0  0
   -4.2910    3.9214   -0.9581 C   0  0  0  0  0  0  0  0  0  0  0  0
   -3.6408    2.6933   -0.9507 C   0  0  0  0  0  0  0  0  0  0  0  0
   -4.3317    1.5981   -0.5859 N   0  0  0  0  0  0  0  0  0  0  0  0
   -5.9864   -0.6879   -0.2949 C   0  0  0  0  0  0  0  0  0  0  0  0
   -6.8179   -1.7465    0.0886 C   0  0  0  0  0  0  0  0  0  0  0  0
   -7.8596   -3.7140    1.8238 H   0  0  0  0  0  0  0  0  0  0  0  0
   -7.7543   -4.3878    0.1761 H   0  0  0  0  0  0  0  0  0  0  0  0
   -6.6027   -4.8939    1.4185 H   0  0  0  0  0  0  0  0  0  0  0  0
   -4.4417   -3.8903    1.2186 H   0  0  0  0  0  0  0  0  0  0  0  0
   -2.9936   -2.0444    0.5754 H   0  0  0  0  0  0  0  0  0  0  0  0
   -1.9151   -0.7353   -0.9497 H   0  0  0  0  0  0  0  0  0  0  0  0
    0.1110    1.4330    0.3808 H   0  0  0  0  0  0  0  0  0  0  0  0
    2.0056    1.4333    1.6691 H   0  0  0  0  0  0  0  0  0  0  0  0
    4.4422    1.1957    1.8695 H   0  0  0  0  0  0  0  0  0  0  0  0
    7.5950   -1.1800   -0.8076 H   0  0  0  0  0  0  0  0  0  0  0  0
    8.2570   -4.2511    2.1604 H   0  0  0  0  0  0  0  0  0  0  0  0
    6.3578   -4.1091    3.7965 H   0  0  0  0  0  0  0  0  0  0  0  0
    4.6485   -2.3139    3.3552 H   0  0  0  0  0  0  0  0  0  0  0  0
    4.7230    0.4980   -2.3816 H   0  0  0  0  0  0  0  0  0  0  0  0
    2.3004    0.7332   -2.5932 H   0  0  0  0  0  0  0  0  0  0  0  0
   -0.5733    3.8306   -1.9863 H   0  0  0  0  0  0  0  0  0  0  0  0
   -1.7778    5.9780   -1.9608 H   0  0  0  0  0  0  0  0  0  0  0  0
   -4.1761    6.0471   -1.3056 H   0  0  0  0  0  0  0  0  0  0  0  0
   -5.3426    3.9590   -0.6795 H   0  0  0  0  0  0  0  0  0  0  0  0
   -6.4455    0.2069   -0.7144 H   0  0  0  0  0  0  0  0  0  0  0  0
   -7.8932   -1.6495   -0.0414 H   0  0  0  0  0  0  0  0  0  0  0  0
  1  2  1  0
  2  3  2  0
  3  4  1  0
  4  5  2  0
  5  6  1  0
  6  7  2  0
  7  8  1  0
  8  9  1  0
  9 10  2  0
  9 11  1  0
 11 12  1  0
 12 13  2  0
 13 14  1  0
 14 15  2  0
 15 16  1  0
 16 17  2  0
 16 18  2  0
 16 19  1  0
 19 20  1  0
 20 21  2  0
 21 22  1  0
 22 23  2  0
 23 24  1  0
 24 25  2  0
 15 26  1  0
 26 27  2  0
  8 28  2  0
 28 29  1  0
 29 30  2  0
 30 31  1  0
 31 32  2  0
 32 33  1  0
 33 34  2  0
  5 35  1  0
 35 36  2  0
 36  2  1  0
 34  6  1  0
 27 12  1  0
 33 28  1  0
 25 20  1  0
  1 37  1  0
  1 38  1  0
  1 39  1  0
  3 40  1  0
  4 41  1  0
  7 42  1  0
 11 43  1  0
 13 44  1  0
 14 45  1  0
 19 46  1  0
 22 47  1  0
 23 48  1  0
 24 49  1  0
 26 50  1  0
 27 51  1  0
 29 52  1  0
 30 53  1  0
 31 54  1  0
 32 55  1  0
 35 56  1  0
 36 57  1  0
M  END
$$$$
