
     RDKit          3D

 40 41  0  0  0  0  0  0  0  0999 V2000
    0.7560    1.0690    2.7469 C   0  0  0  0  0  0  0  0  0  0  0  0
    0.7310   -0.3172    2.1149 C   0  0  0  0  0  0  0  0  0  0  0  0
    0.5363   -0.3244    0.5883 C   0  0  0  0  0  0  0  0  0  0  0  0
    1.6532    0.3910   -0.1953 C   0  0  0  0  0  0  0  0  0  0  0  0
    2.9959   -0.2894   -0.1026 C   0  0  0  0  0  0  0  0  0  0  0  0
    3.2177   -1.5045   -0.7658 C   0  0  0  0  0  0  0  0  0  0  0  0
    4.4548   -2.1439   -0.6768 C   0  0  0  0  0  0  0  0  0  0  0  0
    5.4817   -1.5751    0.0737 C   0  0  0  0  0  0  0  0  0  0  0  0
    5.2730   -0.3657    0.7340 C   0  0  0  0  0  0  0  0  0  0  0  0
    4.0363    0.2757    0.6461 C   0  0  0  0  0  0  0  0  0  0  0  0
   -0.7268    0.3236    0.3139 O   0  0  0  0  0  0  0  0  0  0  0  0
   -1.3544   -0.0728   -0.8186 C   0  0  0  0  0  0  0  0  0  0  0  0
   -0.9525   -0.8586   -1.6582 O   0  0  0  0  0  0  0  0  0  0  0  0
   -2.6413    0.6345   -0.9108 C   0  0  0  0  0  0  0  0  0  0  0  0
   -2.6426    2.0373   -0.9323 C   0  0  0  0  0  0  0  0  0  0  0  0
   -3.8408    2.7300   -1.1119 C   0  0  0  0  0  0  0  0  0  0  0  0
   -5.0350    2.0281   -1.2777 C   0  0  0  0  0  0  0  0  0  0  0  0
   -5.0368    0.6313   -1.2539 C   0  0  0  0  0  0  0  0  0  0  0  0
   -3.8374   -0.0721   -1.0672 C   0  0  0  0  0  0  0  0  0  0  0  0
   -3.8629   -1.5430   -0.9539 C   0  0  0  0  0  0  0  0  0  0  0  0
   -3.2078   -2.2171   -0.1837 O   0  0  0  0  0  0  0  0  0  0  0  0
   -4.7370   -2.0910   -1.8161 O   0  0  0  0  0  0  0  0  0  0  0  0
   -0.1528    1.6323    2.5141 H   0  0  0  0  0  0  0  0  0  0  0  0
    0.8233    0.9798    3.8362 H   0  0  0  0  0  0  0  0  0  0  0  0
    1.6190    1.6500    2.4111 H   0  0  0  0  0  0  0  0  0  0  0  0
   -0.1034   -0.8675    2.5684 H   0  0  0  0  0  0  0  0  0  0  0  0
    1.6470   -0.8552    2.3832 H   0  0  0  0  0  0  0  0  0  0  0  0
    0.4733   -1.3771    0.2811 H   0  0  0  0  0  0  0  0  0  0  0  0
    1.7277    1.4397    0.1183 H   0  0  0  0  0  0  0  0  0  0  0  0
    1.3803    0.4556   -1.2570 H   0  0  0  0  0  0  0  0  0  0  0  0
    2.4254   -1.9586   -1.3588 H   0  0  0  0  0  0  0  0  0  0  0  0
    4.6162   -3.0857   -1.1947 H   0  0  0  0  0  0  0  0  0  0  0  0
    6.4449   -2.0734    0.1423 H   0  0  0  0  0  0  0  0  0  0  0  0
    6.0746    0.0790    1.3179 H   0  0  0  0  0  0  0  0  0  0  0  0
    3.8918    1.2188    1.1676 H   0  0  0  0  0  0  0  0  0  0  0  0
   -1.7117    2.5899   -0.8243 H   0  0  0  0  0  0  0  0  0  0  0  0
   -3.8426    3.8177   -1.1313 H   0  0  0  0  0  0  0  0  0  0  0  0
   -5.9679    2.5692   -1.4209 H   0  0  0  0  0  0  0  0  0  0  0  0
   -5.9768    0.0954   -1.3685 H   0  0  0  0  0  0  0  0  0  0  0  0
   -4.6288   -3.0559   -1.6779 H   0  0  0  0  0  0  0  0  0  0  0  0
  1  2  1  0
  2  3  1  0
  3  4  1  0
  4  5  1  0
  5  6  2  0
  6  7  1  0
  7  8  2  0
  8  9  1  0
  9 10  2  0
  3 11  1  0
 11 12  1  0
 12 13  2  0
 12 14  1  0
 14 15  2  0
 15 16  1  0
 16 17  2  0
 17 18  1  0
 18 19  2  0
 19 20  1  0
 20 21  2  0
 20 22  1  0
 10  5  1  0
 19 14  1  0
  1 23  1  0
  1 24  1  0
  1 25  1  0
  2 26  1  0
  2 27  1  0
  3 28  1  0
  4 29  1  0
  4 30  1  0
  6 31  1  0
  7 32  1  0
  8 33  1  0
  9 34  1  0
 10 35  1  0
 15 36  1  0
 16 37  1  0
 17 38  1  0
 18 39  1  0
 22 40  1  0
M  END
$$$$
