
     RDKit          3D

 49 51  0  0  0  0  0  0  0  0999 V2000
   -3.3287    2.5476   -1.1620 C   0  0  0  0  0  0  0  0  0  0  0  0
   -3.7606    1.9188    0.1569 C   0  0  0  0  0  0  0  0  0  0  0  0
   -2.6584    1.3728    0.9204 N   0  0  0  0  0  0  0  0  0  0  0  0
   -1.8329    2.0466    1.7811 C   0  0  0  0  0  0  0  0  0  0  0  0
   -1.8071    3.7641    1.9802 S   0  0  0  0  0  0  0  0  0  0  0  0
   -0.1444    3.9986    2.6876 C   0  0  0  0  0  0  0  0  0  0  0  0
    0.9335    3.6963    1.6571 C   0  0  0  0  0  0  0  0  0  0  0  0
    1.3492    4.5591    0.8859 O   0  0  0  0  0  0  0  0  0  0  0  0
    1.3554    2.3739    1.6849 N   0  0  0  0  0  0  0  0  0  0  0  0
    2.2746    1.9263    0.7804 N   0  0  0  0  0  0  0  0  0  0  0  0
    2.3751    0.6393    0.6945 C   0  0  0  0  0  0  0  0  0  0  0  0
    3.3278   -0.0477   -0.2235 C   0  0  0  0  0  0  0  0  0  0  0  0
    4.3169    0.8132   -0.9561 C   0  0  0  0  0  0  0  0  0  0  0  0
    3.2069   -1.3899   -0.2733 C   0  0  0  0  0  0  0  0  0  0  0  0
    4.0037   -2.2375   -1.0957 C   0  0  0  0  0  0  0  0  0  0  0  0
    4.0328   -3.6297   -1.1120 C   0  0  0  0  0  0  0  0  0  0  0  0
    4.9833   -4.0416   -2.0753 C   0  0  0  0  0  0  0  0  0  0  0  0
    5.4850   -2.8866   -2.6191 C   0  0  0  0  0  0  0  0  0  0  0  0
    4.8994   -1.8063   -2.0494 O   0  0  0  0  0  0  0  0  0  0  0  0
   -1.0355    1.2013    2.3924 N   0  0  0  0  0  0  0  0  0  0  0  0
   -1.3093   -0.0506    1.9099 N   0  0  0  0  0  0  0  0  0  0  0  0
   -2.2922    0.0442    1.0254 C   0  0  0  0  0  0  0  0  0  0  0  0
   -2.9111   -1.0822    0.3349 C   0  0  0  0  0  0  0  0  0  0  0  0
   -3.5403   -2.0860    1.0844 C   0  0  0  0  0  0  0  0  0  0  0  0
   -4.1388   -3.1754    0.4481 C   0  0  0  0  0  0  0  0  0  0  0  0
   -4.1050   -3.2751   -0.9431 C   0  0  0  0  0  0  0  0  0  0  0  0
   -3.4634   -2.2905   -1.6969 C   0  0  0  0  0  0  0  0  0  0  0  0
   -2.8628   -1.2006   -1.0604 C   0  0  0  0  0  0  0  0  0  0  0  0
   -4.1943    2.9934   -1.6673 H   0  0  0  0  0  0  0  0  0  0  0  0
   -2.8954    1.8022   -1.8357 H   0  0  0  0  0  0  0  0  0  0  0  0
   -2.5809    3.3345   -1.0141 H   0  0  0  0  0  0  0  0  0  0  0  0
   -4.2711    2.6581    0.7875 H   0  0  0  0  0  0  0  0  0  0  0  0
   -4.4901    1.1190   -0.0282 H   0  0  0  0  0  0  0  0  0  0  0  0
   -0.0130    3.3861    3.5884 H   0  0  0  0  0  0  0  0  0  0  0  0
   -0.0351    5.0436    2.9969 H   0  0  0  0  0  0  0  0  0  0  0  0
    0.7599    1.6859    2.1511 H   0  0  0  0  0  0  0  0  0  0  0  0
    1.7390   -0.0208    1.3086 H   0  0  0  0  0  0  0  0  0  0  0  0
    5.3146    0.3634   -0.9621 H   0  0  0  0  0  0  0  0  0  0  0  0
    4.4444    1.7931   -0.4867 H   0  0  0  0  0  0  0  0  0  0  0  0
    3.9903    0.9746   -1.9864 H   0  0  0  0  0  0  0  0  0  0  0  0
    2.4566   -1.8945    0.3329 H   0  0  0  0  0  0  0  0  0  0  0  0
    3.4370   -4.2740   -0.4793 H   0  0  0  0  0  0  0  0  0  0  0  0
    5.2704   -5.0516   -2.3351 H   0  0  0  0  0  0  0  0  0  0  0  0
    6.2305   -2.6705   -3.3732 H   0  0  0  0  0  0  0  0  0  0  0  0
   -3.5615   -2.0259    2.1718 H   0  0  0  0  0  0  0  0  0  0  0  0
   -4.6243   -3.9498    1.0391 H   0  0  0  0  0  0  0  0  0  0  0  0
   -4.5697   -4.1268   -1.4364 H   0  0  0  0  0  0  0  0  0  0  0  0
   -3.4211   -2.3797   -2.7810 H   0  0  0  0  0  0  0  0  0  0  0  0
   -2.3396   -0.4625   -1.6628 H   0  0  0  0  0  0  0  0  0  0  0  0
  1  2  1  0
  2  3  1  0
  3  4  1  0
  4  5  1  0
  5  6  1  0
  6  7  1  0
  7  8  2  0
  7  9  1  0
  9 10  1  0
 10 11  2  3
 11 12  1  0
 12 13  1  0
 12 14  2  3
 14 15  1  0
 15 16  2  0
 16 17  1  0
 17 18  2  0
 18 19  1  0
  4 20  2  0
 20 21  1  0
 21 22  2  0
 22 23  1  0
 23 24  2  0
 24 25  1  0
 25 26  2  0
 26 27  1  0
 27 28  2  0
 22  3  1  0
 28 23  1  0
 19 15  1  0
  1 29  1  0
  1 30  1  0
  1 31  1  0
  2 32  1  0
  2 33  1  0
  6 34  1  0
  6 35  1  0
  9 36  1  0
 11 37  1  0
 13 38  1  0
 13 39  1  0
 13 40  1  0
 14 41  1  0
 16 42  1  0
 17 43  1  0
 18 44  1  0
 24 45  1  0
 25 46  1  0
 26 47  1  0
 27 48  1  0
 28 49  1  0
M  END
$$$$
