
     RDKit          3D

 40 41  0  0  0  0  0  0  0  0999 V2000
   -3.3504   -0.6352   -1.5965 C   0  0  0  0  0  0  0  0  0  0  0  0
   -3.2872    0.2310   -0.3913 C   0  0  0  0  0  0  0  0  0  0  0  0
   -3.8622    1.4376   -0.4137 N   0  0  0  0  0  0  0  0  0  0  0  0
   -3.6963    1.9111    0.8325 N   0  0  0  0  0  0  0  0  0  0  0  0
   -4.2385    3.2069    1.1728 C   0  0  0  0  0  0  0  0  0  0  0  0
   -2.9913    1.0639    1.6491 C   0  0  0  0  0  0  0  0  0  0  0  0
   -2.6726    1.3837    3.0641 C   0  0  0  0  0  0  0  0  0  0  0  0
   -2.6804   -0.0354    0.8654 C   0  0  0  0  0  0  0  0  0  0  0  0
   -1.9418   -1.2001    1.2970 C   0  0  0  0  0  0  0  0  0  0  0  0
   -0.8994   -1.6937    0.6999 N   0  0  0  0  0  0  0  0  0  0  0  0
   -0.3558   -1.0207   -0.3571 N   0  0  0  0  0  0  0  0  0  0  0  0
    0.7532   -1.5426   -1.0046 C   0  0  0  0  0  0  0  0  0  0  0  0
    1.2582   -2.6390   -0.7808 O   0  0  0  0  0  0  0  0  0  0  0  0
    1.2618   -0.6280   -2.0970 C   0  0  0  0  0  0  0  0  0  0  0  0
    2.6892   -0.9809   -2.4919 C   0  0  0  0  0  0  0  0  0  0  0  0
    3.6475   -0.6522   -1.4497 N   0  0  0  0  0  0  0  0  0  0  0  0
    4.3922   -1.5244   -0.7099 C   0  0  0  0  0  0  0  0  0  0  0  0
    5.1501   -0.7437    0.1376 C   0  0  0  0  0  0  0  0  0  0  0  0
    6.0913   -1.1866    1.1160 N   0  0  0  0  0  4  0  0  0  0  0  0
    6.6269   -0.3108    1.8076 O   0  0  0  0  0  0  0  0  0  0  0  0
    6.3039   -2.4030    1.1912 O   0  0  0  0  0  1  0  0  0  0  0  0
    4.7929    0.5804   -0.1710 C   0  0  0  0  0  0  0  0  0  0  0  0
    3.8757    0.6435   -1.1435 N   0  0  0  0  0  0  0  0  0  0  0  0
   -2.5571   -0.3655   -2.3007 H   0  0  0  0  0  0  0  0  0  0  0  0
   -3.2356   -1.6912   -1.3331 H   0  0  0  0  0  0  0  0  0  0  0  0
   -4.3132   -0.5248   -2.1065 H   0  0  0  0  0  0  0  0  0  0  0  0
   -3.4048    3.8981    1.3178 H   0  0  0  0  0  0  0  0  0  0  0  0
   -4.8261    3.1102    2.0888 H   0  0  0  0  0  0  0  0  0  0  0  0
   -4.8802    3.5590    0.3608 H   0  0  0  0  0  0  0  0  0  0  0  0
   -2.1621    2.3492    3.1385 H   0  0  0  0  0  0  0  0  0  0  0  0
   -2.0167    0.6270    3.5057 H   0  0  0  0  0  0  0  0  0  0  0  0
   -3.5878    1.4256    3.6631 H   0  0  0  0  0  0  0  0  0  0  0  0
   -2.2965   -1.6973    2.2153 H   0  0  0  0  0  0  0  0  0  0  0  0
   -0.6416   -0.0603   -0.5257 H   0  0  0  0  0  0  0  0  0  0  0  0
    0.6018   -0.7545   -2.9629 H   0  0  0  0  0  0  0  0  0  0  0  0
    1.1931    0.4154   -1.7687 H   0  0  0  0  0  0  0  0  0  0  0  0
    2.7997   -2.0447   -2.7304 H   0  0  0  0  0  0  0  0  0  0  0  0
    2.9885   -0.4105   -3.3789 H   0  0  0  0  0  0  0  0  0  0  0  0
    4.3111   -2.5971   -0.8298 H   0  0  0  0  0  0  0  0  0  0  0  0
    5.1605    1.4997    0.2684 H   0  0  0  0  0  0  0  0  0  0  0  0
  1  2  1  0
  2  3  2  0
  3  4  1  0
  4  5  1  0
  4  6  1  0
  6  7  1  0
  6  8  2  0
  8  9  1  0
  9 10  2  3
 10 11  1  0
 11 12  1  0
 12 13  2  0
 12 14  1  0
 14 15  1  0
 15 16  1  0
 16 17  1  0
 17 18  2  0
 18 19  1  0
 19 20  2  0
 19 21  1  0
 18 22  1  0
 22 23  2  0
  8  2  1  0
 23 16  1  0
  1 24  1  0
  1 25  1  0
  1 26  1  0
  5 27  1  0
  5 28  1  0
  5 29  1  0
  7 30  1  0
  7 31  1  0
  7 32  1  0
  9 33  1  0
 11 34  1  0
 14 35  1  0
 14 36  1  0
 15 37  1  0
 15 38  1  0
 17 39  1  0
 22 40  1  0
M  CHG  2  19   1  21  -1
M  END
$$$$
