
     RDKit          3D

 36 38  0  0  0  0  0  0  0  0999 V2000
    2.9961   -2.3335   -1.8008 C   0  0  0  0  0  0  0  0  0  0  0  0
    2.1573   -1.1032   -2.1420 C   0  0  0  0  0  0  0  0  0  0  0  0
    2.9821    0.0436   -2.0436 O   0  0  0  0  0  0  0  0  0  0  0  0
    2.9064    0.7055   -0.8500 C   0  0  0  0  0  0  0  0  0  0  0  0
    3.9246    1.6409   -0.6382 C   0  0  0  0  0  0  0  0  0  0  0  0
    3.9495    2.4010    0.5266 C   0  0  0  0  0  0  0  0  0  0  0  0
    2.9463    2.2341    1.4743 C   0  0  0  0  0  0  0  0  0  0  0  0
    1.9208    1.3062    1.2588 C   0  0  0  0  0  0  0  0  0  0  0  0
    1.8874    0.5217    0.0957 C   0  0  0  0  0  0  0  0  0  0  0  0
    0.8483   -0.4161   -0.1627 N   0  0  0  0  0  0  0  0  0  0  0  0
   -0.3256   -0.5369    0.6969 C   0  0  0  0  0  0  0  0  0  0  0  0
   -1.4024    0.4920    0.3513 C   0  0  0  0  0  0  0  0  0  0  0  0
   -1.1462    1.5912   -0.1393 O   0  0  0  0  0  0  0  0  0  0  0  0
   -2.8264    0.1695    0.6681 C   0  0  0  0  0  0  0  0  0  0  0  0
   -3.1862   -0.8455    1.5665 C   0  0  0  0  0  0  0  0  0  0  0  0
   -4.5360   -1.0977    1.8313 C   0  0  0  0  0  0  0  0  0  0  0  0
   -5.5175   -0.3364    1.2062 C   0  0  0  0  0  0  0  0  0  0  0  0
   -6.8076   -0.5826    1.4665 F   0  0  0  0  0  0  0  0  0  0  0  0
   -5.1780    0.6779    0.3204 C   0  0  0  0  0  0  0  0  0  0  0  0
   -3.8316    0.9336    0.0526 C   0  0  0  0  0  0  0  0  0  0  0  0
    0.8545   -1.1490   -1.3408 C   0  0  0  0  0  0  0  0  0  0  0  0
   -0.0847   -1.8696   -1.6876 O   0  0  0  0  0  0  0  0  0  0  0  0
    2.4295   -3.2582   -1.9504 H   0  0  0  0  0  0  0  0  0  0  0  0
    3.3292   -2.3071   -0.7571 H   0  0  0  0  0  0  0  0  0  0  0  0
    3.8974   -2.3689   -2.4221 H   0  0  0  0  0  0  0  0  0  0  0  0
    1.8629   -1.1664   -3.1970 H   0  0  0  0  0  0  0  0  0  0  0  0
    4.6978    1.7768   -1.3901 H   0  0  0  0  0  0  0  0  0  0  0  0
    4.7407    3.1284    0.6870 H   0  0  0  0  0  0  0  0  0  0  0  0
    2.9497    2.8370    2.3793 H   0  0  0  0  0  0  0  0  0  0  0  0
    1.1507    1.2420    2.0192 H   0  0  0  0  0  0  0  0  0  0  0  0
   -0.0504   -0.4522    1.7516 H   0  0  0  0  0  0  0  0  0  0  0  0
   -0.7384   -1.5426    0.5609 H   0  0  0  0  0  0  0  0  0  0  0  0
   -2.4437   -1.4475    2.0815 H   0  0  0  0  0  0  0  0  0  0  0  0
   -4.8296   -1.8816    2.5234 H   0  0  0  0  0  0  0  0  0  0  0  0
   -5.9586    1.2632   -0.1557 H   0  0  0  0  0  0  0  0  0  0  0  0
   -3.5683    1.7301   -0.6422 H   0  0  0  0  0  0  0  0  0  0  0  0
  1  2  1  0
  2  3  1  0
  3  4  1  0
  4  5  2  0
  5  6  1  0
  6  7  2  0
  7  8  1  0
  8  9  2  0
  9 10  1  0
 10 11  1  0
 11 12  1  0
 12 13  2  0
 12 14  1  0
 14 15  2  0
 15 16  1  0
 16 17  2  0
 17 18  1  0
 17 19  1  0
 19 20  2  0
 10 21  1  0
 21 22  2  0
 21  2  1  0
  9  4  1  0
 20 14  1  0
  1 23  1  0
  1 24  1  0
  1 25  1  0
  2 26  1  0
  5 27  1  0
  6 28  1  0
  7 29  1  0
  8 30  1  0
 11 31  1  0
 11 32  1  0
 15 33  1  0
 16 34  1  0
 19 35  1  0
 20 36  1  0
M  END
$$$$
