
     RDKit          3D

 35 36  0  0  0  0  0  0  0  0999 V2000
    2.9428   -1.8147   -1.4630 C   0  0  0  0  0  0  0  0  0  0  0  0
    2.2198   -0.8861   -0.6644 O   0  0  0  0  0  0  0  0  0  0  0  0
    2.9445   -0.1339    0.2319 C   0  0  0  0  0  0  0  0  0  0  0  0
    4.3177   -0.2658    0.4599 C   0  0  0  0  0  0  0  0  0  0  0  0
    4.9530    0.5480    1.4001 C   0  0  0  0  0  0  0  0  0  0  0  0
    4.2219    1.4934    2.1145 C   0  0  0  0  0  0  0  0  0  0  0  0
    2.8500    1.6321    1.8950 C   0  0  0  0  0  0  0  0  0  0  0  0
    2.2035    0.8245    0.9574 C   0  0  0  0  0  0  0  0  0  0  0  0
    0.8243    0.9074    0.6833 N   0  0  0  0  0  0  0  0  0  0  0  0
   -0.1285    1.7371    1.2405 C   0  0  0  0  0  0  0  0  0  0  0  0
    0.0581    2.6055    2.0875 O   0  0  0  0  0  0  0  0  0  0  0  0
   -1.5233    1.4967    0.6412 C   0  0  0  0  0  0  0  0  0  0  0  0
   -1.6698    0.0923    0.2053 N   0  0  0  0  0  0  0  0  0  0  0  0
   -2.8676   -0.3201   -0.3912 C   0  0  0  0  0  0  0  0  0  0  0  0
   -3.1240   -1.7002   -0.4686 C   0  0  0  0  0  0  0  0  0  0  0  0
   -4.2610   -2.1954   -1.1127 C   0  0  0  0  0  0  0  0  0  0  0  0
   -5.1446   -1.3112   -1.7150 C   0  0  0  0  0  0  0  0  0  0  0  0
   -6.2303   -1.8009   -2.3312 F   0  0  0  0  0  0  0  0  0  0  0  0
   -4.8936    0.0561   -1.6883 C   0  0  0  0  0  0  0  0  0  0  0  0
   -5.9707    1.1593   -2.4578 Cl  0  0  0  0  0  0  0  0  0  0  0  0
   -3.7537    0.5480   -1.0422 C   0  0  0  0  0  0  0  0  0  0  0  0
    2.2303   -2.2996   -2.1371 H   0  0  0  0  0  0  0  0  0  0  0  0
    3.3982   -2.5946   -0.8441 H   0  0  0  0  0  0  0  0  0  0  0  0
    3.6921   -1.3078   -2.0799 H   0  0  0  0  0  0  0  0  0  0  0  0
    4.9222   -0.9913   -0.0731 H   0  0  0  0  0  0  0  0  0  0  0  0
    6.0210    0.4441    1.5757 H   0  0  0  0  0  0  0  0  0  0  0  0
    4.7172    2.1273    2.8460 H   0  0  0  0  0  0  0  0  0  0  0  0
    2.3132    2.3799    2.4697 H   0  0  0  0  0  0  0  0  0  0  0  0
    0.4852    0.2599   -0.0289 H   0  0  0  0  0  0  0  0  0  0  0  0
   -1.6225    2.1869   -0.2031 H   0  0  0  0  0  0  0  0  0  0  0  0
   -2.2708    1.7280    1.4078 H   0  0  0  0  0  0  0  0  0  0  0  0
   -1.3959   -0.5511    0.9504 H   0  0  0  0  0  0  0  0  0  0  0  0
   -2.4289   -2.4096   -0.0233 H   0  0  0  0  0  0  0  0  0  0  0  0
   -4.4543   -3.2626   -1.1547 H   0  0  0  0  0  0  0  0  0  0  0  0
   -3.5756    1.6183   -1.0623 H   0  0  0  0  0  0  0  0  0  0  0  0
  1  2  1  0
  2  3  1  0
  3  4  2  0
  4  5  1  0
  5  6  2  0
  6  7  1  0
  7  8  2  0
  8  9  1  0
  9 10  1  0
 10 11  2  0
 10 12  1  0
 12 13  1  0
 13 14  1  0
 14 15  2  0
 15 16  1  0
 16 17  2  0
 17 18  1  0
 17 19  1  0
 19 20  1  0
 19 21  2  0
  8  3  1  0
 21 14  1  0
  1 22  1  0
  1 23  1  0
  1 24  1  0
  4 25  1  0
  5 26  1  0
  6 27  1  0
  7 28  1  0
  9 29  1  0
 12 30  1  0
 12 31  1  0
 13 32  1  0
 15 33  1  0
 16 34  1  0
 21 35  1  0
M  END
$$$$
