
     RDKit          3D

 40 40  0  0  0  0  0  0  0  0999 V2000
   -3.9088    2.3205    2.5394 C   0  0  0  0  0  0  0  0  0  0  0  0
   -3.3917    3.0379    1.3021 C   0  0  0  0  0  0  0  0  0  0  0  0
   -1.9794    2.6138    0.8964 C   0  0  0  0  0  0  0  0  0  0  0  0
   -1.8858    1.1511    0.4590 C   0  0  0  0  0  0  0  0  0  0  0  0
   -0.5203    0.9066   -0.0033 N   0  0  0  0  0  0  0  0  0  0  0  0
   -0.2715   -0.1956   -0.6494 C   0  0  0  0  0  0  0  0  0  0  0  0
    0.9957   -0.4714   -1.1522 N   0  0  0  0  0  0  0  0  0  0  0  0
    1.9495    0.5211   -1.1904 N   0  0  0  0  0  0  0  0  0  0  0  0
    3.3256    0.2575   -1.0076 C   0  0  0  0  0  0  0  0  0  0  0  0
    3.8631   -1.0326   -1.1055 C   0  0  0  0  0  0  0  0  0  0  0  0
    5.2406   -1.2471   -0.9891 C   0  0  0  0  0  0  0  0  0  0  0  0
    6.0947   -0.1647   -0.7972 C   0  0  0  0  0  0  0  0  0  0  0  0
    7.9562   -0.4518   -0.6425 Br  0  0  0  0  0  0  0  0  0  0  0  0
    5.5853    1.1286   -0.7282 C   0  0  0  0  0  0  0  0  0  0  0  0
    4.2074    1.3360   -0.8443 C   0  0  0  0  0  0  0  0  0  0  0  0
   -1.3401   -1.2674   -0.9292 C   0  0  0  0  0  0  0  0  0  0  0  0
   -1.6764   -1.5494   -2.0654 O   0  0  0  0  0  0  0  0  0  0  0  0
   -1.7278   -1.8467    0.2234 O   0  0  0  0  0  0  0  0  0  0  0  0
   -2.6973   -2.8945    0.0940 C   0  0  0  0  0  0  0  0  0  0  0  0
   -2.0021   -4.2231   -0.1364 C   0  0  0  0  0  0  0  0  0  0  0  0
   -3.2189    2.4407    3.3807 H   0  0  0  0  0  0  0  0  0  0  0  0
   -4.8786    2.7335    2.8349 H   0  0  0  0  0  0  0  0  0  0  0  0
   -4.0474    1.2512    2.3546 H   0  0  0  0  0  0  0  0  0  0  0  0
   -3.3870    4.1162    1.5008 H   0  0  0  0  0  0  0  0  0  0  0  0
   -4.0846    2.8726    0.4689 H   0  0  0  0  0  0  0  0  0  0  0  0
   -1.6485    3.2565    0.0705 H   0  0  0  0  0  0  0  0  0  0  0  0
   -1.2839    2.7968    1.7252 H   0  0  0  0  0  0  0  0  0  0  0  0
   -2.6147    0.9679   -0.3390 H   0  0  0  0  0  0  0  0  0  0  0  0
   -2.1103    0.4988    1.3089 H   0  0  0  0  0  0  0  0  0  0  0  0
    1.0103   -1.1218   -1.9386 H   0  0  0  0  0  0  0  0  0  0  0  0
    1.6548    1.3580   -0.6699 H   0  0  0  0  0  0  0  0  0  0  0  0
    3.2156   -1.8898   -1.2624 H   0  0  0  0  0  0  0  0  0  0  0  0
    5.6321   -2.2586   -1.0543 H   0  0  0  0  0  0  0  0  0  0  0  0
    6.2459    1.9804   -0.5922 H   0  0  0  0  0  0  0  0  0  0  0  0
    3.8241    2.3531   -0.8079 H   0  0  0  0  0  0  0  0  0  0  0  0
   -3.2589   -2.9299    1.0332 H   0  0  0  0  0  0  0  0  0  0  0  0
   -3.4165   -2.6760   -0.7038 H   0  0  0  0  0  0  0  0  0  0  0  0
   -2.7291   -5.0389   -0.1803 H   0  0  0  0  0  0  0  0  0  0  0  0
   -1.2885   -4.4283    0.6684 H   0  0  0  0  0  0  0  0  0  0  0  0
   -1.4328   -4.2112   -1.0712 H   0  0  0  0  0  0  0  0  0  0  0  0
  1  2  1  0
  2  3  1  0
  3  4  1  0
  4  5  1  0
  5  6  2  3
  6  7  1  0
  7  8  1  0
  8  9  1  0
  9 10  2  0
 10 11  1  0
 11 12  2  0
 12 13  1  0
 12 14  1  0
 14 15  2  0
  6 16  1  0
 16 17  2  0
 16 18  1  0
 18 19  1  0
 19 20  1  0
 15  9  1  0
  1 21  1  0
  1 22  1  0
  1 23  1  0
  2 24  1  0
  2 25  1  0
  3 26  1  0
  3 27  1  0
  4 28  1  0
  4 29  1  0
  7 30  1  0
  8 31  1  0
 10 32  1  0
 11 33  1  0
 14 34  1  0
 15 35  1  0
 19 36  1  0
 19 37  1  0
 20 38  1  0
 20 39  1  0
 20 40  1  0
M  END
$$$$
