
     RDKit          3D

 39 41  0  0  0  0  0  0  0  0999 V2000
    4.3079   -1.8633    0.2010 C   0  0  0  0  0  0  0  0  0  0  0  0
    3.9749   -1.2560    1.5533 C   0  0  0  0  0  0  0  0  0  0  0  0
    2.4203   -1.9263    2.2337 S   0  0  0  0  0  0  0  0  0  0  0  0
    1.1947   -1.0635    1.2569 C   0  0  0  0  0  0  0  0  0  0  0  0
   -0.1120   -1.4995    1.3127 C   0  0  0  0  0  0  0  0  0  0  0  0
   -1.0463   -0.8147    0.5648 C   0  0  0  0  0  0  0  0  0  0  0  0
   -2.3703   -1.1855    0.5437 N   0  0  0  0  0  0  0  0  0  0  0  0
   -3.3324   -0.4010   -0.2217 C   0  0  0  0  0  0  0  0  0  0  0  0
   -4.6556   -1.1031    0.0666 C   0  0  0  0  0  0  0  0  0  0  0  0
   -4.4905   -1.5416    1.5129 C   0  0  0  0  0  0  0  0  0  0  0  0
   -3.0205   -1.9547    1.5986 C   0  0  0  0  0  0  0  0  0  0  0  0
   -0.6689    0.2258   -0.1976 N   0  0  0  0  0  0  0  0  0  0  0  0
    0.6251    0.5930   -0.1925 C   0  0  0  0  0  0  0  0  0  0  0  0
    1.0172    1.7440   -1.0335 C   0  0  0  0  0  0  0  0  0  0  0  0
    2.3479    2.2082   -1.0737 C   0  0  0  0  0  0  0  0  0  0  0  0
    2.7213    3.2976   -1.8700 C   0  0  0  0  0  0  0  0  0  0  0  0
    1.7660    3.9463   -2.6451 C   0  0  0  0  0  0  0  0  0  0  0  0
    2.2212    5.2848   -3.6245 Cl  0  0  0  0  0  0  0  0  0  0  0  0
    0.4438    3.5156   -2.6305 C   0  0  0  0  0  0  0  0  0  0  0  0
    0.0765    2.4258   -1.8321 C   0  0  0  0  0  0  0  0  0  0  0  0
    1.5833   -0.0147    0.5211 N   0  0  0  0  0  0  0  0  0  0  0  0
    4.3978   -2.9531    0.2638 H   0  0  0  0  0  0  0  0  0  0  0  0
    5.2681   -1.4736   -0.1531 H   0  0  0  0  0  0  0  0  0  0  0  0
    3.5567   -1.6214   -0.5570 H   0  0  0  0  0  0  0  0  0  0  0  0
    3.9402   -0.1634    1.5007 H   0  0  0  0  0  0  0  0  0  0  0  0
    4.7712   -1.5120    2.2603 H   0  0  0  0  0  0  0  0  0  0  0  0
   -0.3828   -2.3576    1.9121 H   0  0  0  0  0  0  0  0  0  0  0  0
   -3.3674    0.6337    0.1408 H   0  0  0  0  0  0  0  0  0  0  0  0
   -3.1136   -0.4028   -1.2948 H   0  0  0  0  0  0  0  0  0  0  0  0
   -5.5193   -0.4499   -0.0846 H   0  0  0  0  0  0  0  0  0  0  0  0
   -4.7676   -1.9815   -0.5805 H   0  0  0  0  0  0  0  0  0  0  0  0
   -4.6788   -0.6932    2.1821 H   0  0  0  0  0  0  0  0  0  0  0  0
   -5.1694   -2.3520    1.7929 H   0  0  0  0  0  0  0  0  0  0  0  0
   -2.9070   -3.0258    1.3984 H   0  0  0  0  0  0  0  0  0  0  0  0
   -2.6289   -1.7332    2.5976 H   0  0  0  0  0  0  0  0  0  0  0  0
    3.1135    1.7167   -0.4750 H   0  0  0  0  0  0  0  0  0  0  0  0
    3.7561    3.6292   -1.8767 H   0  0  0  0  0  0  0  0  0  0  0  0
   -0.3077    4.0174   -3.2339 H   0  0  0  0  0  0  0  0  0  0  0  0
   -0.9648    2.1051   -1.8371 H   0  0  0  0  0  0  0  0  0  0  0  0
  1  2  1  0
  2  3  1  0
  3  4  1  0
  4  5  2  0
  5  6  1  0
  6  7  1  0
  7  8  1  0
  8  9  1  0
  9 10  1  0
 10 11  1  0
  6 12  2  0
 12 13  1  0
 13 14  1  0
 14 15  2  0
 15 16  1  0
 16 17  2  0
 17 18  1  0
 17 19  1  0
 19 20  2  0
 13 21  2  0
 21  4  1  0
 11  7  1  0
 20 14  1  0
  1 22  1  0
  1 23  1  0
  1 24  1  0
  2 25  1  0
  2 26  1  0
  5 27  1  0
  8 28  1  0
  8 29  1  0
  9 30  1  0
  9 31  1  0
 10 32  1  0
 10 33  1  0
 11 34  1  0
 11 35  1  0
 15 36  1  0
 16 37  1  0
 19 38  1  0
 20 39  1  0
M  END
$$$$
