
     RDKit          3D

 39 40  0  0  0  0  0  0  0  0999 V2000
    0.6000    3.0475   -0.2569 C   0  0  0  0  0  0  0  0  0  0  0  0
    0.3637    1.9210    0.7436 C   0  0  0  0  0  0  0  0  0  0  0  0
    0.9232    0.5475    0.3313 C   0  0  0  0  0  0  0  0  0  0  0  0
    2.7377    0.5384    0.0705 S   0  0  0  0  0  0  0  0  0  0  0  0
    3.3128    0.5634    1.6969 C   0  0  0  0  0  0  0  0  0  0  0  0
    2.5932    0.4828    2.7926 N   0  0  0  0  0  0  0  0  0  0  0  0
    3.4554    0.5388    3.8649 N   0  0  0  0  0  0  0  0  0  0  0  0
    4.6746    0.6472    3.3876 C   0  0  0  0  0  0  0  0  0  0  0  0
    4.6331    0.6650    2.0255 N   0  0  0  0  0  0  0  0  0  0  0  0
    5.7654    0.7711    1.1458 C   0  0  0  0  0  0  0  0  0  0  0  0
    0.1981    0.0260   -0.9236 C   0  0  0  0  0  0  0  0  0  0  0  0
    0.6788    0.0978   -2.0514 O   0  0  0  0  0  0  0  0  0  0  0  0
   -1.0543   -0.4868   -0.6208 N   0  0  0  0  0  0  0  0  0  0  0  0
   -2.0211   -1.0286   -1.4973 C   0  0  0  0  0  0  0  0  0  0  0  0
   -1.8475   -1.1291   -2.8787 C   0  0  0  0  0  0  0  0  0  0  0  0
   -2.8546   -1.6778   -3.6756 C   0  0  0  0  0  0  0  0  0  0  0  0
   -4.0387   -2.1279   -3.0976 C   0  0  0  0  0  0  0  0  0  0  0  0
   -4.2251   -2.0329   -1.7173 C   0  0  0  0  0  0  0  0  0  0  0  0
   -3.2226   -1.4855   -0.9111 C   0  0  0  0  0  0  0  0  0  0  0  0
   -3.3008   -1.3425    0.4564 O   0  0  0  0  0  0  0  0  0  0  0  0
   -4.4883   -1.8076    1.0869 C   0  0  0  0  0  0  0  0  0  0  0  0
    1.6649    3.2601   -0.3871 H   0  0  0  0  0  0  0  0  0  0  0  0
    0.1243    3.9665    0.1016 H   0  0  0  0  0  0  0  0  0  0  0  0
    0.1697    2.8123   -1.2349 H   0  0  0  0  0  0  0  0  0  0  0  0
    0.7831    2.2204    1.7113 H   0  0  0  0  0  0  0  0  0  0  0  0
   -0.7189    1.8348    0.9013 H   0  0  0  0  0  0  0  0  0  0  0  0
    0.7125   -0.1741    1.1308 H   0  0  0  0  0  0  0  0  0  0  0  0
    5.5830    0.7128    3.9698 H   0  0  0  0  0  0  0  0  0  0  0  0
    6.6824    0.8385    1.7375 H   0  0  0  0  0  0  0  0  0  0  0  0
    5.8057   -0.1196    0.5137 H   0  0  0  0  0  0  0  0  0  0  0  0
    5.6575    1.6738    0.5392 H   0  0  0  0  0  0  0  0  0  0  0  0
   -1.3497   -0.4994    0.3518 H   0  0  0  0  0  0  0  0  0  0  0  0
   -0.9396   -0.7901   -3.3667 H   0  0  0  0  0  0  0  0  0  0  0  0
   -2.7093   -1.7519   -4.7507 H   0  0  0  0  0  0  0  0  0  0  0  0
   -4.8188   -2.5539   -3.7237 H   0  0  0  0  0  0  0  0  0  0  0  0
   -5.1615   -2.3939   -1.3063 H   0  0  0  0  0  0  0  0  0  0  0  0
   -5.3638   -1.2494    0.7397 H   0  0  0  0  0  0  0  0  0  0  0  0
   -4.3861   -1.6299    2.1619 H   0  0  0  0  0  0  0  0  0  0  0  0
   -4.6184   -2.8846    0.9390 H   0  0  0  0  0  0  0  0  0  0  0  0
  1  2  1  0
  2  3  1  0
  3  4  1  0
  4  5  1  0
  5  6  2  0
  6  7  1  0
  7  8  2  0
  8  9  1  0
  9 10  1  0
  3 11  1  0
 11 12  2  0
 11 13  1  0
 13 14  1  0
 14 15  2  0
 15 16  1  0
 16 17  2  0
 17 18  1  0
 18 19  2  0
 19 20  1  0
 20 21  1  0
  9  5  1  0
 19 14  1  0
  1 22  1  0
  1 23  1  0
  1 24  1  0
  2 25  1  0
  2 26  1  0
  3 27  1  0
  8 28  1  0
 10 29  1  0
 10 30  1  0
 10 31  1  0
 13 32  1  0
 15 33  1  0
 16 34  1  0
 17 35  1  0
 18 36  1  0
 21 37  1  0
 21 38  1  0
 21 39  1  0
M  END
$$$$
