
     RDKit          3D

 43 45  0  0  0  0  0  0  0  0999 V2000
   -5.8360   -0.7845    0.0507 C   0  0  0  0  0  0  0  0  0  0  0  0
   -4.8073   -0.4967    1.0488 N   0  0  0  0  0  0  0  0  0  0  0  0
   -4.0808    0.7533    0.7385 C   0  0  0  0  0  0  0  0  0  0  0  0
   -3.1314    0.6839   -0.4797 C   0  0  0  0  0  0  0  0  0  0  0  0
   -2.1982   -0.4635   -0.3934 N   0  0  0  0  0  0  0  0  0  0  0  0
   -0.9134   -0.1601    0.0514 C   0  0  0  0  0  0  0  0  0  0  0  0
   -0.5173   -0.3649    1.3801 C   0  0  0  0  0  0  0  0  0  0  0  0
    0.7795   -0.0549    1.8172 C   0  0  0  0  0  0  0  0  0  0  0  0
    1.7297    0.4575    0.9279 C   0  0  0  0  0  0  0  0  0  0  0  0
    3.0842    0.7765    1.4439 C   0  0  0  0  0  0  0  0  0  0  0  0
    3.1991    1.1848    2.5960 O   0  0  0  0  0  0  0  0  0  0  0  0
    4.2985    0.6195    0.6040 C   0  0  0  0  0  0  0  0  0  0  0  0
    5.3560    1.5192    0.7895 C   0  0  0  0  0  0  0  0  0  0  0  0
    6.5204    1.4002    0.0272 C   0  0  0  0  0  0  0  0  0  0  0  0
    6.6299    0.3740   -0.9099 C   0  0  0  0  0  0  0  0  0  0  0  0
    8.2053    0.2106   -1.9414 Br  0  0  0  0  0  0  0  0  0  0  0  0
    5.5902   -0.5390   -1.0866 C   0  0  0  0  0  0  0  0  0  0  0  0
    4.4243   -0.4221   -0.3242 C   0  0  0  0  0  0  0  0  0  0  0  0
    1.3706    0.6958   -0.3963 C   0  0  0  0  0  0  0  0  0  0  0  0
    0.0655    0.3816   -0.8063 C   0  0  0  0  0  0  0  0  0  0  0  0
   -0.2337    0.5768   -2.2090 N   0  0  0  0  0  4  0  0  0  0  0  0
   -0.7978    1.6335   -2.5267 O   0  0  0  0  0  0  0  0  0  0  0  0
    0.1735   -0.2925   -2.9929 O   0  0  0  0  0  1  0  0  0  0  0  0
   -2.8270   -1.7420   -0.0014 C   0  0  0  0  0  0  0  0  0  0  0  0
   -3.8368   -1.6044    1.1630 C   0  0  0  0  0  0  0  0  0  0  0  0
   -6.3998   -1.6799    0.3355 H   0  0  0  0  0  0  0  0  0  0  0  0
   -5.4346   -0.9435   -0.9550 H   0  0  0  0  0  0  0  0  0  0  0  0
   -6.5606    0.0360    0.0030 H   0  0  0  0  0  0  0  0  0  0  0  0
   -3.4925    1.0259    1.6245 H   0  0  0  0  0  0  0  0  0  0  0  0
   -4.7952    1.5737    0.5972 H   0  0  0  0  0  0  0  0  0  0  0  0
   -3.7163    0.5774   -1.4008 H   0  0  0  0  0  0  0  0  0  0  0  0
   -2.5971    1.6381   -0.5610 H   0  0  0  0  0  0  0  0  0  0  0  0
   -1.2165   -0.7510    2.1155 H   0  0  0  0  0  0  0  0  0  0  0  0
    1.0426   -0.2150    2.8625 H   0  0  0  0  0  0  0  0  0  0  0  0
    5.2754    2.3140    1.5292 H   0  0  0  0  0  0  0  0  0  0  0  0
    7.3332    2.1066    0.1765 H   0  0  0  0  0  0  0  0  0  0  0  0
    5.6818   -1.3484   -1.8071 H   0  0  0  0  0  0  0  0  0  0  0  0
    3.6378   -1.1611   -0.4545 H   0  0  0  0  0  0  0  0  0  0  0  0
    2.0745    1.1232   -1.1059 H   0  0  0  0  0  0  0  0  0  0  0  0
   -3.3551   -2.1283   -0.8819 H   0  0  0  0  0  0  0  0  0  0  0  0
   -2.0698   -2.4959    0.2477 H   0  0  0  0  0  0  0  0  0  0  0  0
   -4.3679   -2.5558    1.2937 H   0  0  0  0  0  0  0  0  0  0  0  0
   -3.2867   -1.4586    2.0995 H   0  0  0  0  0  0  0  0  0  0  0  0
  1  2  1  0
  2  3  1  0
  3  4  1  0
  4  5  1  0
  5  6  1  0
  6  7  2  0
  7  8  1  0
  8  9  2  0
  9 10  1  0
 10 11  2  0
 10 12  1  0
 12 13  2  0
 13 14  1  0
 14 15  2  0
 15 16  1  0
 15 17  1  0
 17 18  2  0
  9 19  1  0
 19 20  2  0
 20 21  1  0
 21 22  2  0
 21 23  1  0
  5 24  1  0
 24 25  1  0
 25  2  1  0
 20  6  1  0
 18 12  1  0
  1 26  1  0
  1 27  1  0
  1 28  1  0
  3 29  1  0
  3 30  1  0
  4 31  1  0
  4 32  1  0
  7 33  1  0
  8 34  1  0
 13 35  1  0
 14 36  1  0
 17 37  1  0
 18 38  1  0
 19 39  1  0
 24 40  1  0
 24 41  1  0
 25 42  1  0
 25 43  1  0
M  CHG  2  21   1  23  -1
M  END
$$$$
