
     RDKit          3D

 40 41  0  0  0  0  0  0  0  0999 V2000
   -0.7460    2.1176   -2.5498 O   0  0  0  0  0  0  0  0  0  0  0  0
   -0.1971    2.5378   -1.5446 C   0  0  0  0  0  0  0  0  0  0  0  0
    0.9103    3.2986   -1.6283 O   0  0  0  0  0  0  0  0  0  0  0  0
   -0.6390    2.3260   -0.1227 C   0  0  0  0  0  0  0  0  0  0  0  0
   -1.5276    1.0799   -0.0283 C   0  0  0  0  0  0  0  0  0  0  0  0
   -2.1946    0.9226    1.2953 N   0  0  0  0  0  0  0  0  0  0  0  0
   -1.2615    0.7976    2.4190 C   0  0  0  0  0  0  0  0  0  0  0  0
   -2.0044    0.4786    3.6688 C   0  0  0  0  0  0  0  0  0  0  0  0
   -2.9999    1.1246    4.3736 C   0  0  0  0  0  0  0  0  0  0  0  0
   -3.2910    0.3089    5.4928 C   0  0  0  0  0  0  0  0  0  0  0  0
   -2.4572   -0.7800    5.3995 C   0  0  0  0  0  0  0  0  0  0  0  0
   -1.6727   -0.6873    4.2960 O   0  0  0  0  0  0  0  0  0  0  0  0
   -0.8191   -0.2298   -0.4274 C   0  0  0  0  0  0  0  0  0  0  0  0
   -1.4166   -1.2777   -0.6516 O   0  0  0  0  0  0  0  0  0  0  0  0
    0.5355   -0.0991   -0.4284 O   0  0  0  0  0  0  0  0  0  0  0  0
    1.2745   -1.2554   -0.8667 C   0  0  0  0  0  0  0  0  0  0  0  0
    1.3447   -1.2881   -2.4008 C   0  0  0  0  0  0  0  0  0  0  0  0
    1.9999   -2.5563   -2.9314 C   0  0  0  0  0  0  0  0  0  0  0  0
    3.4452   -2.1507   -3.0765 C   0  0  0  0  0  0  0  0  0  0  0  0
    3.3159   -0.7121   -3.5220 C   0  0  0  0  0  0  0  0  0  0  0  0
    2.1649   -0.1835   -2.8511 O   0  0  0  0  0  0  0  0  0  0  0  0
    1.1227    3.3050   -2.5865 H   0  0  0  0  0  0  0  0  0  0  0  0
    0.2522    2.2276    0.5091 H   0  0  0  0  0  0  0  0  0  0  0  0
   -1.1916    3.2189    0.1899 H   0  0  0  0  0  0  0  0  0  0  0  0
   -2.3372    1.1974   -0.7632 H   0  0  0  0  0  0  0  0  0  0  0  0
   -2.7545    0.0652    1.2554 H   0  0  0  0  0  0  0  0  0  0  0  0
   -0.7267    1.7405    2.5773 H   0  0  0  0  0  0  0  0  0  0  0  0
   -0.5175    0.0159    2.2298 H   0  0  0  0  0  0  0  0  0  0  0  0
   -3.4584    2.0646    4.1011 H   0  0  0  0  0  0  0  0  0  0  0  0
   -4.0201    0.4895    6.2699 H   0  0  0  0  0  0  0  0  0  0  0  0
   -2.3078   -1.6637    6.0049 H   0  0  0  0  0  0  0  0  0  0  0  0
    2.2769   -1.1554   -0.4367 H   0  0  0  0  0  0  0  0  0  0  0  0
    0.8281   -2.1707   -0.4589 H   0  0  0  0  0  0  0  0  0  0  0  0
    0.3463   -1.1539   -2.8302 H   0  0  0  0  0  0  0  0  0  0  0  0
    1.8551   -3.4339   -2.2939 H   0  0  0  0  0  0  0  0  0  0  0  0
    1.5893   -2.7922   -3.9196 H   0  0  0  0  0  0  0  0  0  0  0  0
    3.9442   -2.2023   -2.1015 H   0  0  0  0  0  0  0  0  0  0  0  0
    4.0039   -2.7692   -3.7840 H   0  0  0  0  0  0  0  0  0  0  0  0
    3.1338   -0.6480   -4.6000 H   0  0  0  0  0  0  0  0  0  0  0  0
    4.1974   -0.1075   -3.2785 H   0  0  0  0  0  0  0  0  0  0  0  0
  1  2  2  0
  2  3  1  0
  2  4  1  0
  4  5  1  0
  5  6  1  0
  6  7  1  0
  7  8  1  0
  8  9  2  0
  9 10  1  0
 10 11  2  0
 11 12  1  0
  5 13  1  0
 13 14  2  0
 13 15  1  0
 15 16  1  0
 16 17  1  0
 17 18  1  0
 18 19  1  0
 19 20  1  0
 20 21  1  0
 12  8  1  0
 21 17  1  0
  3 22  1  0
  4 23  1  0
  4 24  1  0
  5 25  1  0
  6 26  1  0
  7 27  1  0
  7 28  1  0
  9 29  1  0
 10 30  1  0
 11 31  1  0
 16 32  1  0
 16 33  1  0
 17 34  1  0
 18 35  1  0
 18 36  1  0
 19 37  1  0
 19 38  1  0
 20 39  1  0
 20 40  1  0
M  END
$$$$
