
     RDKit          3D

 57 59  0  0  0  0  0  0  0  0999 V2000
    8.6402   -1.5767   -0.2153 C   0  0  0  0  0  0  0  0  0  0  0  0
    7.1774   -1.9872   -0.0309 C   0  0  0  0  0  0  0  0  0  0  0  0
    6.9669   -3.4035   -0.5730 C   0  0  0  0  0  0  0  0  0  0  0  0
    6.2546   -0.9636   -0.7185 C   0  0  0  0  0  0  0  0  0  0  0  0
    4.8097   -1.1559   -0.4005 C   0  0  0  0  0  0  0  0  0  0  0  0
    4.1268   -0.8387    0.7964 C   0  0  0  0  0  0  0  0  0  0  0  0
    2.8278   -1.2134    0.5555 C   0  0  0  0  0  0  0  0  0  0  0  0
    1.5776   -1.1657    1.3376 C   0  0  0  0  0  0  0  0  0  0  0  0
    0.7652   -0.0749    0.8441 N   0  0  0  0  0  0  0  0  0  0  0  0
   -0.3262    0.3561    1.5571 C   0  0  0  0  0  0  0  0  0  0  0  0
   -0.6142   -0.1012    2.6599 O   0  0  0  0  0  0  0  0  0  0  0  0
   -1.1889    1.4153    0.8898 C   0  0  0  0  0  0  0  0  0  0  0  0
   -0.3858    2.6048    0.3810 C   0  0  0  0  0  0  0  0  0  0  0  0
   -1.3444    3.6583   -0.1415 C   0  0  0  0  0  0  0  0  0  0  0  0
   -2.3464    3.1355   -1.1533 C   0  0  0  0  0  0  0  0  0  0  0  0
   -2.8625    3.9146   -1.9550 O   0  0  0  0  0  0  0  0  0  0  0  0
   -2.7065    1.7995   -1.0637 N   0  0  0  0  0  0  0  0  0  0  0  0
   -3.7239    1.2859   -1.9802 C   0  0  0  0  0  0  0  0  0  0  0  0
   -5.0331    1.0221   -1.2727 C   0  0  0  0  0  0  0  0  0  0  0  0
   -5.8222    2.0937   -0.8321 C   0  0  0  0  0  0  0  0  0  0  0  0
   -7.0262    1.8633   -0.1678 C   0  0  0  0  0  0  0  0  0  0  0  0
   -7.4577    0.5576    0.0629 C   0  0  0  0  0  0  0  0  0  0  0  0
   -6.6917   -0.5326   -0.3755 C   0  0  0  0  0  0  0  0  0  0  0  0
   -7.1466   -1.9459   -0.1066 C   0  0  0  0  0  0  0  0  0  0  0  0
   -6.7290   -2.8295   -1.0569 F   0  0  0  0  0  0  0  0  0  0  0  0
   -8.5018   -2.0741   -0.0524 F   0  0  0  0  0  0  0  0  0  0  0  0
   -6.6770   -2.4246    1.0782 F   0  0  0  0  0  0  0  0  0  0  0  0
   -5.4753   -0.2883   -1.0362 C   0  0  0  0  0  0  0  0  0  0  0  0
   -1.9785    0.8149   -0.2628 C   0  0  0  0  0  0  0  0  0  0  0  0
    2.7355   -1.7208   -0.7033 O   0  0  0  0  0  0  0  0  0  0  0  0
    3.9764   -1.6769   -1.3100 N   0  0  0  0  0  0  0  0  0  0  0  0
    9.3090   -2.2809    0.2909 H   0  0  0  0  0  0  0  0  0  0  0  0
    8.9153   -1.5498   -1.2752 H   0  0  0  0  0  0  0  0  0  0  0  0
    8.8219   -0.5830    0.2079 H   0  0  0  0  0  0  0  0  0  0  0  0
    6.9657   -2.0002    1.0462 H   0  0  0  0  0  0  0  0  0  0  0  0
    7.6583   -4.1071   -0.0966 H   0  0  0  0  0  0  0  0  0  0  0  0
    7.1364   -3.4443   -1.6544 H   0  0  0  0  0  0  0  0  0  0  0  0
    5.9512   -3.7594   -0.3739 H   0  0  0  0  0  0  0  0  0  0  0  0
    6.5358    0.0493   -0.4008 H   0  0  0  0  0  0  0  0  0  0  0  0
    6.4075   -0.9943   -1.8054 H   0  0  0  0  0  0  0  0  0  0  0  0
    4.5248   -0.4005    1.6995 H   0  0  0  0  0  0  0  0  0  0  0  0
    1.0064   -2.0935    1.2264 H   0  0  0  0  0  0  0  0  0  0  0  0
    1.7813   -1.0157    2.4032 H   0  0  0  0  0  0  0  0  0  0  0  0
    0.8593    0.1644   -0.1348 H   0  0  0  0  0  0  0  0  0  0  0  0
   -1.8914    1.7773    1.6536 H   0  0  0  0  0  0  0  0  0  0  0  0
    0.2326    3.0249    1.1828 H   0  0  0  0  0  0  0  0  0  0  0  0
    0.2972    2.3039   -0.4229 H   0  0  0  0  0  0  0  0  0  0  0  0
   -0.7683    4.4616   -0.6147 H   0  0  0  0  0  0  0  0  0  0  0  0
   -1.9141    4.0980    0.6857 H   0  0  0  0  0  0  0  0  0  0  0  0
   -3.3356    0.3709   -2.4442 H   0  0  0  0  0  0  0  0  0  0  0  0
   -3.9075    1.9870   -2.8026 H   0  0  0  0  0  0  0  0  0  0  0  0
   -5.4954    3.1183   -1.0070 H   0  0  0  0  0  0  0  0  0  0  0  0
   -7.6267    2.7042    0.1710 H   0  0  0  0  0  0  0  0  0  0  0  0
   -8.3985    0.3924    0.5861 H   0  0  0  0  0  0  0  0  0  0  0  0
   -4.8705   -1.1317   -1.3687 H   0  0  0  0  0  0  0  0  0  0  0  0
   -2.6938    0.0840    0.1318 H   0  0  0  0  0  0  0  0  0  0  0  0
   -1.3210    0.2758   -0.9558 H   0  0  0  0  0  0  0  0  0  0  0  0
  1  2  1  0
  2  3  1  0
  2  4  1  0
  4  5  1  0
  5  6  1  0
  6  7  2  0
  7  8  1  0
  8  9  1  0
  9 10  1  0
 10 11  2  0
 10 12  1  0
 12 13  1  0
 13 14  1  0
 14 15  1  0
 15 16  2  0
 15 17  1  0
 17 18  1  0
 18 19  1  0
 19 20  2  0
 20 21  1  0
 21 22  2  0
 22 23  1  0
 23 24  1  0
 24 25  1  0
 24 26  1  0
 24 27  1  0
 23 28  2  0
 17 29  1  0
  7 30  1  0
 30 31  1  0
 31  5  2  0
 29 12  1  0
 28 19  1  0
  1 32  1  0
  1 33  1  0
  1 34  1  0
  2 35  1  0
  3 36  1  0
  3 37  1  0
  3 38  1  0
  4 39  1  0
  4 40  1  0
  6 41  1  0
  8 42  1  0
  8 43  1  0
  9 44  1  0
 12 45  1  0
 13 46  1  0
 13 47  1  0
 14 48  1  0
 14 49  1  0
 18 50  1  0
 18 51  1  0
 20 52  1  0
 21 53  1  0
 22 54  1  0
 28 55  1  0
 29 56  1  0
 29 57  1  0
M  END
$$$$
