
     RDKit          3D

 52 55  0  0  0  0  0  0  0  0999 V2000
    6.3979    2.4114   -2.9531 C   0  0  0  0  0  0  0  0  0  0  0  0
    6.2316    2.4581   -1.4419 C   0  0  0  0  0  0  0  0  0  0  0  0
    4.9552    1.7896   -0.9975 C   0  0  0  0  0  0  0  0  0  0  0  0
    3.7648    2.5212   -0.9099 C   0  0  0  0  0  0  0  0  0  0  0  0
    2.5787    1.8982   -0.5143 C   0  0  0  0  0  0  0  0  0  0  0  0
    2.5658    0.5332   -0.2064 C   0  0  0  0  0  0  0  0  0  0  0  0
    1.2905   -0.0968    0.2082 C   0  0  0  0  0  0  0  0  0  0  0  0
    0.1927    0.5735    0.3892 N   0  0  0  0  0  0  0  0  0  0  0  0
   -0.7765   -0.3230    0.7395 N   0  0  0  0  0  0  0  0  0  0  0  0
   -2.0374    0.1112    1.1436 C   0  0  0  0  0  0  0  0  0  0  0  0
   -3.0442   -0.7765    1.5594 C   0  0  0  0  0  0  0  0  0  0  0  0
   -4.3053   -0.3224    1.9656 C   0  0  0  0  0  0  0  0  0  0  0  0
   -4.5769    1.0444    1.9667 C   0  0  0  0  0  0  0  0  0  0  0  0
   -6.1691    1.6225    2.4836 S   0  0  0  0  0  6  0  0  0  0  0  0
   -5.9130    1.8715    4.1310 N   0  0  0  0  0  0  0  0  0  0  0  0
   -7.1204    0.5460    2.3430 O   0  0  0  0  0  0  0  0  0  0  0  0
   -6.3895    2.9350    1.9213 O   0  0  0  0  0  0  0  0  0  0  0  0
   -3.6112    1.9544    1.5465 C   0  0  0  0  0  0  0  0  0  0  0  0
   -2.3564    1.4830    1.1465 C   0  0  0  0  0  0  0  0  0  0  0  0
   -0.3255   -1.7140    0.6594 C   0  0  0  0  0  0  0  0  0  0  0  0
   -0.9382   -2.4838   -0.5040 C   0  0  0  0  0  0  0  0  0  0  0  0
   -1.2373   -1.8654   -1.7319 C   0  0  0  0  0  0  0  0  0  0  0  0
   -1.7768   -2.6021   -2.7877 C   0  0  0  0  0  0  0  0  0  0  0  0
   -2.0128   -3.9605   -2.6246 C   0  0  0  0  0  0  0  0  0  0  0  0
   -2.5278   -4.6685   -3.6382 F   0  0  0  0  0  0  0  0  0  0  0  0
   -1.7189   -4.5977   -1.4256 C   0  0  0  0  0  0  0  0  0  0  0  0
   -1.1800   -3.8632   -0.3675 C   0  0  0  0  0  0  0  0  0  0  0  0
    1.1878   -1.5716    0.4846 C   0  0  0  0  0  0  0  0  0  0  0  0
    3.7509   -0.2034   -0.2965 C   0  0  0  0  0  0  0  0  0  0  0  0
    4.9370    0.4225   -0.6929 C   0  0  0  0  0  0  0  0  0  0  0  0
    7.3317    2.9016   -3.2463 H   0  0  0  0  0  0  0  0  0  0  0  0
    6.4273    1.3791   -3.3180 H   0  0  0  0  0  0  0  0  0  0  0  0
    5.5726    2.9232   -3.4597 H   0  0  0  0  0  0  0  0  0  0  0  0
    7.0892    1.9737   -0.9594 H   0  0  0  0  0  0  0  0  0  0  0  0
    6.2403    3.5002   -1.0997 H   0  0  0  0  0  0  0  0  0  0  0  0
    3.7516    3.5824   -1.1502 H   0  0  0  0  0  0  0  0  0  0  0  0
    1.6653    2.4864   -0.4517 H   0  0  0  0  0  0  0  0  0  0  0  0
   -2.8717   -1.8488    1.5676 H   0  0  0  0  0  0  0  0  0  0  0  0
   -5.0630   -1.0413    2.2709 H   0  0  0  0  0  0  0  0  0  0  0  0
   -6.0108    2.8688    4.3290 H   0  0  0  0  0  0  0  0  0  0  0  0
   -5.0175    1.5067    4.4541 H   0  0  0  0  0  0  0  0  0  0  0  0
   -3.8160    3.0219    1.5191 H   0  0  0  0  0  0  0  0  0  0  0  0
   -1.6103    2.2057    0.8200 H   0  0  0  0  0  0  0  0  0  0  0  0
   -0.5332   -2.2365    1.6019 H   0  0  0  0  0  0  0  0  0  0  0  0
   -1.0605   -0.7990   -1.8686 H   0  0  0  0  0  0  0  0  0  0  0  0
   -2.0156   -2.1224   -3.7315 H   0  0  0  0  0  0  0  0  0  0  0  0
   -1.9116   -5.6610   -1.3238 H   0  0  0  0  0  0  0  0  0  0  0  0
   -0.9525   -4.3756    0.5650 H   0  0  0  0  0  0  0  0  0  0  0  0
    1.6041   -2.1741   -0.3271 H   0  0  0  0  0  0  0  0  0  0  0  0
    1.7129   -1.7898    1.4206 H   0  0  0  0  0  0  0  0  0  0  0  0
    3.7814   -1.2632   -0.0636 H   0  0  0  0  0  0  0  0  0  0  0  0
    5.8506   -0.1648   -0.7634 H   0  0  0  0  0  0  0  0  0  0  0  0
  1  2  1  0
  2  3  1  0
  3  4  2  0
  4  5  1  0
  5  6  2  0
  6  7  1  0
  7  8  2  0
  8  9  1  0
  9 10  1  0
 10 11  2  0
 11 12  1  0
 12 13  2  0
 13 14  1  0
 14 15  1  0
 14 16  2  0
 14 17  2  0
 13 18  1  0
 18 19  2  0
  9 20  1  0
 20 21  1  0
 21 22  2  0
 22 23  1  0
 23 24  2  0
 24 25  1  0
 24 26  1  0
 26 27  2  0
 20 28  1  0
  6 29  1  0
 29 30  2  0
 30  3  1  0
 28  7  1  0
 19 10  1  0
 27 21  1  0
  1 31  1  0
  1 32  1  0
  1 33  1  0
  2 34  1  0
  2 35  1  0
  4 36  1  0
  5 37  1  0
 11 38  1  0
 12 39  1  0
 15 40  1  0
 15 41  1  0
 18 42  1  0
 19 43  1  0
 20 44  1  0
 22 45  1  0
 23 46  1  0
 26 47  1  0
 27 48  1  0
 28 49  1  0
 28 50  1  0
 29 51  1  0
 30 52  1  0
M  END
$$$$
