
     RDKit          3D

 51 53  0  0  0  0  0  0  0  0999 V2000
   -5.9081   -2.3191   -1.8775 O   0  0  0  0  0  0  0  0  0  0  0  0
   -5.1823   -2.0724   -0.9185 C   0  0  0  0  0  0  0  0  0  0  0  0
   -3.9082   -2.8886   -0.6672 C   0  0  0  0  0  0  0  0  0  0  0  0
   -2.7075   -2.2228   -1.0646 O   0  0  0  0  0  0  0  0  0  0  0  0
   -2.2362   -1.3018   -0.1829 C   0  0  0  0  0  0  0  0  0  0  0  0
   -2.7807   -1.0178    0.8754 O   0  0  0  0  0  0  0  0  0  0  0  0
   -0.9646   -0.6896   -0.7029 C   0  0  0  0  0  0  0  0  0  0  0  0
   -0.5246    0.4636    0.1944 C   0  0  0  0  0  0  0  0  0  0  0  0
    0.6951    1.1067   -0.3017 N   0  0  0  0  0  0  0  0  0  0  0  0
    1.9194    0.5656    0.0547 C   0  0  0  0  0  0  0  0  0  0  0  0
    2.0826   -0.4362    0.7371 O   0  0  0  0  0  0  0  0  0  0  0  0
    3.0289    1.3597   -0.5383 C   0  0  0  0  0  0  0  0  0  0  0  0
    4.3150    1.0670   -0.2987 C   0  0  0  0  0  0  0  0  0  0  0  0
    5.4717    1.7706   -0.8238 C   0  0  0  0  0  0  0  0  0  0  0  0
    6.7564    1.4892   -0.5513 C   0  0  0  0  0  0  0  0  0  0  0  0
    7.2289    0.4256    0.3370 C   0  0  0  0  0  0  0  0  0  0  0  0
    7.5279   -0.8387   -0.1767 C   0  0  0  0  0  0  0  0  0  0  0  0
    7.9796   -1.8523    0.6719 C   0  0  0  0  0  0  0  0  0  0  0  0
    8.1227   -1.6074    2.0371 C   0  0  0  0  0  0  0  0  0  0  0  0
    7.8203   -0.3479    2.5555 C   0  0  0  0  0  0  0  0  0  0  0  0
    7.3746    0.6671    1.7070 C   0  0  0  0  0  0  0  0  0  0  0  0
    2.3914    2.6267   -1.5080 S   0  0  0  0  0  0  0  0  0  0  0  0
    0.7247    2.1860   -1.1615 C   0  0  0  0  0  0  0  0  0  0  0  0
   -0.5669    3.0049   -1.8282 S   0  0  0  0  0  0  0  0  0  0  0  0
   -5.3911   -1.0834    0.0240 N   0  0  0  0  0  0  0  0  0  0  0  0
   -6.4658   -0.1710    0.0992 C   0  0  0  0  0  0  0  0  0  0  0  0
   -7.5646   -0.1747   -0.7597 C   0  0  0  0  0  0  0  0  0  0  0  0
   -8.5760    0.7708   -0.5878 C   0  0  0  0  0  0  0  0  0  0  0  0
   -9.6320    0.7602   -1.4122 F   0  0  0  0  0  0  0  0  0  0  0  0
   -8.5172    1.7253    0.4247 C   0  0  0  0  0  0  0  0  0  0  0  0
   -7.4255    1.7373    1.2877 C   0  0  0  0  0  0  0  0  0  0  0  0
   -6.4150    0.7937    1.1186 C   0  0  0  0  0  0  0  0  0  0  0  0
   -5.3676    0.8147    1.9583 F   0  0  0  0  0  0  0  0  0  0  0  0
   -3.9806   -3.8116   -1.2540 H   0  0  0  0  0  0  0  0  0  0  0  0
   -3.8618   -3.2010    0.3841 H   0  0  0  0  0  0  0  0  0  0  0  0
   -0.1927   -1.4660   -0.7357 H   0  0  0  0  0  0  0  0  0  0  0  0
   -1.1412   -0.3284   -1.7219 H   0  0  0  0  0  0  0  0  0  0  0  0
   -0.3326    0.0908    1.2090 H   0  0  0  0  0  0  0  0  0  0  0  0
   -1.3238    1.2076    0.2842 H   0  0  0  0  0  0  0  0  0  0  0  0
    4.5268    0.2186    0.3545 H   0  0  0  0  0  0  0  0  0  0  0  0
    5.2842    2.6021   -1.5025 H   0  0  0  0  0  0  0  0  0  0  0  0
    7.5447    2.0845   -1.0068 H   0  0  0  0  0  0  0  0  0  0  0  0
    7.4128   -1.0438   -1.2376 H   0  0  0  0  0  0  0  0  0  0  0  0
    8.2162   -2.8331    0.2695 H   0  0  0  0  0  0  0  0  0  0  0  0
    8.4691   -2.3972    2.6972 H   0  0  0  0  0  0  0  0  0  0  0  0
    7.9356   -0.1550    3.6185 H   0  0  0  0  0  0  0  0  0  0  0  0
    7.1440    1.6456    2.1204 H   0  0  0  0  0  0  0  0  0  0  0  0
   -4.6576   -0.9476    0.7254 H   0  0  0  0  0  0  0  0  0  0  0  0
   -7.6757   -0.8928   -1.5639 H   0  0  0  0  0  0  0  0  0  0  0  0
   -9.3210    2.4471    0.5311 H   0  0  0  0  0  0  0  0  0  0  0  0
   -7.3520    2.4691    2.0856 H   0  0  0  0  0  0  0  0  0  0  0  0
  1  2  2  0
  2  3  1  0
  3  4  1  0
  4  5  1  0
  5  6  2  0
  5  7  1  0
  7  8  1  0
  8  9  1  0
  9 10  1  0
 10 11  2  0
 10 12  1  0
 12 13  2  3
 13 14  1  0
 14 15  2  3
 15 16  1  0
 16 17  2  0
 17 18  1  0
 18 19  2  0
 19 20  1  0
 20 21  2  0
 12 22  1  0
 22 23  1  0
 23 24  2  0
  2 25  1  0
 25 26  1  0
 26 27  2  0
 27 28  1  0
 28 29  1  0
 28 30  2  0
 30 31  1  0
 31 32  2  0
 32 33  1  0
 23  9  1  0
 32 26  1  0
 21 16  1  0
  3 34  1  0
  3 35  1  0
  7 36  1  0
  7 37  1  0
  8 38  1  0
  8 39  1  0
 13 40  1  0
 14 41  1  0
 15 42  1  0
 17 43  1  0
 18 44  1  0
 19 45  1  0
 20 46  1  0
 21 47  1  0
 25 48  1  0
 27 49  1  0
 30 50  1  0
 31 51  1  0
M  END
$$$$
