
     RDKit          3D

 47 50  0  0  0  0  0  0  0  0999 V2000
    1.0932    6.1400   -4.7372 C   0  0  0  0  0  0  0  0  0  0  0  0
    0.4850    5.1960   -3.7406 C   0  0  0  0  0  0  0  0  0  0  0  0
   -0.9018    5.1611   -3.5607 C   0  0  0  0  0  0  0  0  0  0  0  0
   -1.5015    4.2707   -2.6634 C   0  0  0  0  0  0  0  0  0  0  0  0
   -0.6655    3.4026   -1.9542 C   0  0  0  0  0  0  0  0  0  0  0  0
   -0.9782    2.4344   -1.0220 N   0  0  0  0  0  0  0  0  0  0  0  0
    0.1658    1.8269   -0.5933 C   0  0  0  0  0  0  0  0  0  0  0  0
    0.3075    0.7728    0.3658 C   0  0  0  0  0  0  0  0  0  0  0  0
   -0.6447    0.2811    0.9664 O   0  0  0  0  0  0  0  0  0  0  0  0
    1.6459    0.3801    0.5499 N   0  0  0  0  0  0  0  0  0  0  0  0
    1.9239   -0.7056    1.4721 C   0  0  0  0  0  0  0  0  0  0  0  0
    1.5756   -2.0606    0.8503 C   0  0  0  0  0  0  0  0  0  0  0  0
    1.4579   -2.2603   -0.3560 O   0  0  0  0  0  0  0  0  0  0  0  0
    1.4388   -3.0743    1.7858 N   0  0  0  0  0  0  0  0  0  0  0  0
    0.9770   -4.3942    1.3924 C   0  0  0  0  0  0  0  0  0  0  0  0
   -0.5324   -4.4484    1.1253 C   0  0  0  0  0  0  0  0  0  0  0  0
   -1.3533   -4.1129    2.3503 C   0  0  0  0  0  0  0  0  0  0  0  0
   -1.8859   -2.8256    2.5125 C   0  0  0  0  0  0  0  0  0  0  0  0
   -2.6223   -2.5026    3.6538 C   0  0  0  0  0  0  0  0  0  0  0  0
   -2.8306   -3.4660    4.6375 C   0  0  0  0  0  0  0  0  0  0  0  0
   -3.7357   -3.0688    6.0459 Cl  0  0  0  0  0  0  0  0  0  0  0  0
   -2.3081   -4.7494    4.4900 C   0  0  0  0  0  0  0  0  0  0  0  0
   -1.5697   -5.0724    3.3493 C   0  0  0  0  0  0  0  0  0  0  0  0
    2.7503    0.9600   -0.1009 N   0  0  0  0  0  0  0  0  0  0  0  0
    2.5526    1.9132   -0.9667 C   0  0  0  0  0  0  0  0  0  0  0  0
    1.2291    2.3932   -1.2505 C   0  0  0  0  0  0  0  0  0  0  0  0
    0.7247    3.3966   -2.1163 C   0  0  0  0  0  0  0  0  0  0  0  0
    1.3035    4.3032   -3.0278 C   0  0  0  0  0  0  0  0  0  0  0  0
    2.1042    6.4310   -4.4332 H   0  0  0  0  0  0  0  0  0  0  0  0
    1.1425    5.6638   -5.7212 H   0  0  0  0  0  0  0  0  0  0  0  0
    0.5020    7.0583   -4.8169 H   0  0  0  0  0  0  0  0  0  0  0  0
   -1.5393    5.8381   -4.1270 H   0  0  0  0  0  0  0  0  0  0  0  0
   -2.5787    4.2574   -2.5317 H   0  0  0  0  0  0  0  0  0  0  0  0
   -1.9103    2.2020   -0.7045 H   0  0  0  0  0  0  0  0  0  0  0  0
    1.3301   -0.5580    2.3810 H   0  0  0  0  0  0  0  0  0  0  0  0
    2.9865   -0.7017    1.7366 H   0  0  0  0  0  0  0  0  0  0  0  0
    1.3011   -2.8141    2.7549 H   0  0  0  0  0  0  0  0  0  0  0  0
    1.5174   -4.6960    0.4882 H   0  0  0  0  0  0  0  0  0  0  0  0
    1.2571   -5.0819    2.1976 H   0  0  0  0  0  0  0  0  0  0  0  0
   -0.8001   -3.7689    0.3068 H   0  0  0  0  0  0  0  0  0  0  0  0
   -0.8045   -5.4546    0.7825 H   0  0  0  0  0  0  0  0  0  0  0  0
   -1.7297   -2.0638    1.7493 H   0  0  0  0  0  0  0  0  0  0  0  0
   -3.0287   -1.5008    3.7642 H   0  0  0  0  0  0  0  0  0  0  0  0
   -2.4728   -5.5015    5.2569 H   0  0  0  0  0  0  0  0  0  0  0  0
   -1.1678   -6.0779    3.2439 H   0  0  0  0  0  0  0  0  0  0  0  0
    3.4103    2.3668   -1.4875 H   0  0  0  0  0  0  0  0  0  0  0  0
    2.3797    4.3107   -3.1777 H   0  0  0  0  0  0  0  0  0  0  0  0
  1  2  1  0
  2  3  2  0
  3  4  1  0
  4  5  2  0
  5  6  1  0
  6  7  1  0
  7  8  1  0
  8  9  2  0
  8 10  1  0
 10 11  1  0
 11 12  1  0
 12 13  2  0
 12 14  1  0
 14 15  1  0
 15 16  1  0
 16 17  1  0
 17 18  2  0
 18 19  1  0
 19 20  2  0
 20 21  1  0
 20 22  1  0
 22 23  2  0
 10 24  1  0
 24 25  2  0
 25 26  1  0
 26 27  1  0
 27 28  2  0
 28  2  1  0
 27  5  1  0
 26  7  2  0
 23 17  1  0
  1 29  1  0
  1 30  1  0
  1 31  1  0
  3 32  1  0
  4 33  1  0
  6 34  1  0
 11 35  1  0
 11 36  1  0
 14 37  1  0
 15 38  1  0
 15 39  1  0
 16 40  1  0
 16 41  1  0
 18 42  1  0
 19 43  1  0
 22 44  1  0
 23 45  1  0
 25 46  1  0
 28 47  1  0
M  END
$$$$
