
     RDKit          3D

 52 55  0  0  0  0  0  0  0  0999 V2000
   -6.4366    2.2094   -0.7762 C   0  0  0  0  0  0  0  0  0  0  0  0
   -5.4534    1.7368    0.2596 C   0  0  0  0  0  0  0  0  0  0  0  0
   -5.2550    2.5454    1.3964 C   0  0  0  0  0  0  0  0  0  0  0  0
   -4.3766    2.1627    2.4136 C   0  0  0  0  0  0  0  0  0  0  0  0
   -3.6826    0.9546    2.3041 C   0  0  0  0  0  0  0  0  0  0  0  0
   -2.7675    0.5394    3.3752 N   0  0  0  0  0  4  0  0  0  0  0  0
   -2.0894   -0.4821    3.1860 O   0  0  0  0  0  0  0  0  0  0  0  0
   -2.7316    1.2306    4.4032 O   0  0  0  0  0  1  0  0  0  0  0  0
   -3.8524    0.1353    1.1823 C   0  0  0  0  0  0  0  0  0  0  0  0
   -4.7221    0.5357    0.1519 C   0  0  0  0  0  0  0  0  0  0  0  0
   -4.8522   -0.5516   -1.2680 S   0  0  0  0  0  6  0  0  0  0  0  0
   -5.5409   -1.7370   -0.8040 O   0  0  0  0  0  0  0  0  0  0  0  0
   -5.3239    0.1915   -2.4167 O   0  0  0  0  0  0  0  0  0  0  0  0
   -3.2677   -1.0224   -1.5708 N   0  0  0  0  0  0  0  0  0  0  0  0
   -2.1899   -0.1215   -1.8004 C   0  0  0  0  0  0  0  0  0  0  0  0
   -2.3457    1.1358   -2.3799 C   0  0  0  0  0  0  0  0  0  0  0  0
   -1.2353    1.9552   -2.5814 C   0  0  0  0  0  0  0  0  0  0  0  0
    0.0390    1.5108   -2.2233 C   0  0  0  0  0  0  0  0  0  0  0  0
    0.2362    0.2336   -1.6723 C   0  0  0  0  0  0  0  0  0  0  0  0
    1.5868   -0.2319   -1.3131 C   0  0  0  0  0  0  0  0  0  0  0  0
    2.0196   -1.5403   -1.4665 C   0  0  0  0  0  0  0  0  0  0  0  0
    3.3192   -1.8839   -1.0801 C   0  0  0  0  0  0  0  0  0  0  0  0
    4.1704   -0.9288   -0.5389 C   0  0  0  0  0  0  0  0  0  0  0  0
    5.4606   -1.2438   -0.1515 N   0  0  0  0  0  0  0  0  0  0  0  0
    6.2651   -0.1941    0.4702 C   0  0  0  0  0  0  0  0  0  0  0  0
    7.4883   -0.9550    0.9715 C   0  0  0  0  0  0  0  0  0  0  0  0
    6.8862   -2.2727    1.4317 C   0  0  0  0  0  0  0  0  0  0  0  0
    5.7956   -2.5564    0.3957 C   0  0  0  0  0  0  0  0  0  0  0  0
    3.7199    0.3403   -0.4374 N   0  0  0  0  0  0  0  0  0  0  0  0
    2.4309    0.6930   -0.8156 N   0  0  0  0  0  0  0  0  0  0  0  0
   -0.9029   -0.5704   -1.4722 C   0  0  0  0  0  0  0  0  0  0  0  0
   -7.1283    1.4069   -1.0525 H   0  0  0  0  0  0  0  0  0  0  0  0
   -7.0559    3.0293   -0.3936 H   0  0  0  0  0  0  0  0  0  0  0  0
   -5.9082    2.5818   -1.6591 H   0  0  0  0  0  0  0  0  0  0  0  0
   -5.7975    3.4864    1.5006 H   0  0  0  0  0  0  0  0  0  0  0  0
   -4.2545    2.8117    3.2792 H   0  0  0  0  0  0  0  0  0  0  0  0
   -3.3183   -0.8100    1.1079 H   0  0  0  0  0  0  0  0  0  0  0  0
   -3.0745   -1.9893   -1.3143 H   0  0  0  0  0  0  0  0  0  0  0  0
   -3.3148    1.5078   -2.6980 H   0  0  0  0  0  0  0  0  0  0  0  0
   -1.3601    2.9389   -3.0294 H   0  0  0  0  0  0  0  0  0  0  0  0
    0.8917    2.1690   -2.3913 H   0  0  0  0  0  0  0  0  0  0  0  0
    1.3773   -2.2988   -1.9005 H   0  0  0  0  0  0  0  0  0  0  0  0
    3.6578   -2.9044   -1.2268 H   0  0  0  0  0  0  0  0  0  0  0  0
    5.7380    0.2614    1.3184 H   0  0  0  0  0  0  0  0  0  0  0  0
    6.5485    0.5862   -0.2436 H   0  0  0  0  0  0  0  0  0  0  0  0
    8.1915   -1.1319    0.1485 H   0  0  0  0  0  0  0  0  0  0  0  0
    8.0162   -0.4261    1.7707 H   0  0  0  0  0  0  0  0  0  0  0  0
    6.4343   -2.1483    2.4234 H   0  0  0  0  0  0  0  0  0  0  0  0
    7.6223   -3.0789    1.4935 H   0  0  0  0  0  0  0  0  0  0  0  0
    4.9476   -3.0573    0.8765 H   0  0  0  0  0  0  0  0  0  0  0  0
    6.1805   -3.1990   -0.4043 H   0  0  0  0  0  0  0  0  0  0  0  0
   -0.7854   -1.5534   -1.0225 H   0  0  0  0  0  0  0  0  0  0  0  0
  1  2  1  0
  2  3  2  0
  3  4  1  0
  4  5  2  0
  5  6  1  0
  6  7  2  0
  6  8  1  0
  5  9  1  0
  9 10  2  0
 10 11  1  0
 11 12  2  0
 11 13  2  0
 11 14  1  0
 14 15  1  0
 15 16  2  0
 16 17  1  0
 17 18  2  0
 18 19  1  0
 19 20  1  0
 20 21  2  0
 21 22  1  0
 22 23  2  0
 23 24  1  0
 24 25  1  0
 25 26  1  0
 26 27  1  0
 27 28  1  0
 23 29  1  0
 29 30  2  0
 19 31  2  0
 10  2  1  0
 31 15  1  0
 30 20  1  0
 28 24  1  0
  1 32  1  0
  1 33  1  0
  1 34  1  0
  3 35  1  0
  4 36  1  0
  9 37  1  0
 14 38  1  0
 16 39  1  0
 17 40  1  0
 18 41  1  0
 21 42  1  0
 22 43  1  0
 25 44  1  0
 25 45  1  0
 26 46  1  0
 26 47  1  0
 27 48  1  0
 27 49  1  0
 28 50  1  0
 28 51  1  0
 31 52  1  0
M  CHG  2   6   1   8  -1
M  END
$$$$
