
     RDKit          3D

 31 33  0  0  0  0  0  0  0  0999 V2000
   -0.4268    3.5639   -0.0104 C   0  0  0  0  0  0  0  0  0  0  0  0
   -0.8770    2.1282   -0.0022 C   0  0  0  0  0  0  0  0  0  0  0  0
   -2.1265    1.8584    0.2203 N   0  0  0  0  0  0  0  0  0  0  0  0
   -2.5392    0.5092    0.2297 C   0  0  0  0  0  0  0  0  0  0  0  0
   -3.8901    0.2461    0.4729 C   0  0  0  0  0  0  0  0  0  0  0  0
   -4.3691   -1.0645    0.4981 C   0  0  0  0  0  0  0  0  0  0  0  0
   -3.4957   -2.1279    0.2792 C   0  0  0  0  0  0  0  0  0  0  0  0
   -2.1416   -1.8879    0.0342 C   0  0  0  0  0  0  0  0  0  0  0  0
   -1.6658   -0.5735    0.0096 C   0  0  0  0  0  0  0  0  0  0  0  0
   -0.3106   -0.2395   -0.2321 N   0  0  0  0  0  0  0  0  0  0  0  0
    0.8010   -1.0359   -0.4843 C   0  0  0  0  0  0  0  0  0  0  0  0
    0.7247   -2.3636   -0.5314 O   0  0  0  0  0  0  0  0  0  0  0  0
    1.9005   -0.2046   -0.6570 C   0  0  0  0  0  0  0  0  0  0  0  0
    3.3132   -0.5995   -0.9578 C   0  0  0  0  0  0  0  0  0  0  0  0
    4.1542   -0.7632    0.2863 C   0  0  0  0  0  0  0  0  0  0  0  0
    3.9489   -0.3198    1.4030 O   0  0  0  0  0  0  0  0  0  0  0  0
    5.2779   -1.4731    0.0420 O   0  0  0  0  0  0  0  0  0  0  0  0
    1.4368    1.1308   -0.5039 C   0  0  0  0  0  0  0  0  0  0  0  0
    0.0847    1.0824   -0.2432 C   0  0  0  0  0  0  0  0  0  0  0  0
    0.3353    3.7168    0.7591 H   0  0  0  0  0  0  0  0  0  0  0  0
   -1.2699    4.2309    0.1912 H   0  0  0  0  0  0  0  0  0  0  0  0
   -0.0060    3.8136   -0.9887 H   0  0  0  0  0  0  0  0  0  0  0  0
   -4.5715    1.0752    0.6446 H   0  0  0  0  0  0  0  0  0  0  0  0
   -5.4221   -1.2530    0.6891 H   0  0  0  0  0  0  0  0  0  0  0  0
   -3.8685   -3.1492    0.2995 H   0  0  0  0  0  0  0  0  0  0  0  0
   -1.4938   -2.7411   -0.1307 H   0  0  0  0  0  0  0  0  0  0  0  0
    1.6155   -2.7217   -0.6799 H   0  0  0  0  0  0  0  0  0  0  0  0
    3.3183   -1.5446   -1.5126 H   0  0  0  0  0  0  0  0  0  0  0  0
    3.7881    0.1618   -1.5871 H   0  0  0  0  0  0  0  0  0  0  0  0
    5.7387   -1.4852    0.9085 H   0  0  0  0  0  0  0  0  0  0  0  0
    2.0364    2.0306   -0.5709 H   0  0  0  0  0  0  0  0  0  0  0  0
  1  2  1  0
  2  3  2  0
  3  4  1  0
  4  5  2  0
  5  6  1  0
  6  7  2  0
  7  8  1  0
  8  9  2  0
  9 10  1  0
 10 11  1  0
 11 12  1  0
 11 13  2  0
 13 14  1  0
 14 15  1  0
 15 16  2  0
 15 17  1  0
 13 18  1  0
 18 19  2  0
 19  2  1  0
  9  4  1  0
 19 10  1  0
  1 20  1  0
  1 21  1  0
  1 22  1  0
  5 23  1  0
  6 24  1  0
  7 25  1  0
  8 26  1  0
 12 27  1  0
 14 28  1  0
 14 29  1  0
 17 30  1  0
 18 31  1  0
M  END
$$$$
