
     RDKit          3D

 46 49  0  0  0  0  0  0  0  0999 V2000
   -6.2380    0.4557    1.5174 C   0  0  0  0  0  0  0  0  0  0  0  0
   -4.8684    0.8353    1.5327 O   0  0  0  0  0  0  0  0  0  0  0  0
   -4.0092    0.1000    0.7623 C   0  0  0  0  0  0  0  0  0  0  0  0
   -4.3476   -1.0174    0.0024 C   0  0  0  0  0  0  0  0  0  0  0  0
   -3.3668   -1.6944   -0.7297 C   0  0  0  0  0  0  0  0  0  0  0  0
   -2.0419   -1.2514   -0.7100 C   0  0  0  0  0  0  0  0  0  0  0  0
   -1.0022   -1.8465   -1.3890 O   0  0  0  0  0  0  0  0  0  0  0  0
   -1.3033   -3.0158   -2.1394 C   0  0  0  0  0  0  0  0  0  0  0  0
   -1.6877   -0.1040    0.0371 C   0  0  0  0  0  0  0  0  0  0  0  0
   -0.3307    0.2823    0.0614 N   0  0  0  0  0  0  0  0  0  0  0  0
    0.2995    1.5280    0.3305 C   0  0  0  0  0  0  0  0  0  0  0  0
   -0.4405    2.6011    0.7107 N   0  0  0  0  0  0  0  0  0  0  0  0
    0.3297    3.7011    0.9185 C   0  0  0  0  0  0  0  0  0  0  0  0
   -0.0967    4.9076    1.2927 N   0  0  0  0  0  0  0  0  0  0  0  0
    1.0587    5.6845    1.3671 O   0  0  0  0  0  0  0  0  0  0  0  0
    2.2036    4.9575    1.0409 N   0  0  0  0  0  0  0  0  0  0  0  0
    1.7570    3.7324    0.7640 C   0  0  0  0  0  0  0  0  0  0  0  0
    2.5142    2.6642    0.3945 N   0  0  0  0  0  0  0  0  0  0  0  0
    1.7526    1.5553    0.1924 C   0  0  0  0  0  0  0  0  0  0  0  0
    2.4012    0.3413   -0.2119 N   0  0  0  0  0  0  0  0  0  0  0  0
    2.6105   -0.5221    0.9692 C   0  0  0  0  0  0  0  0  0  0  0  0
    3.1446   -1.8782    0.5043 C   0  0  0  0  0  0  0  0  0  0  0  0
    4.4173   -1.7189   -0.3260 C   0  0  0  0  0  0  0  0  0  0  0  0
    4.2042   -0.7266   -1.4682 C   0  0  0  0  0  0  0  0  0  0  0  0
    3.6523    0.6014   -0.9466 C   0  0  0  0  0  0  0  0  0  0  0  0
   -2.6822    0.5432    0.7794 C   0  0  0  0  0  0  0  0  0  0  0  0
   -6.7852    1.1519    2.1603 H   0  0  0  0  0  0  0  0  0  0  0  0
   -6.6587    0.5327    0.5093 H   0  0  0  0  0  0  0  0  0  0  0  0
   -6.3725   -0.5509    1.9266 H   0  0  0  0  0  0  0  0  0  0  0  0
   -5.3641   -1.3941   -0.0371 H   0  0  0  0  0  0  0  0  0  0  0  0
   -3.6725   -2.5635   -1.3019 H   0  0  0  0  0  0  0  0  0  0  0  0
   -0.3737   -3.3660   -2.5983 H   0  0  0  0  0  0  0  0  0  0  0  0
   -1.6761   -3.8162   -1.4918 H   0  0  0  0  0  0  0  0  0  0  0  0
   -2.0098   -2.7956   -2.9463 H   0  0  0  0  0  0  0  0  0  0  0  0
    0.2206   -0.2395   -0.6243 H   0  0  0  0  0  0  0  0  0  0  0  0
    3.3232   -0.0585    1.6647 H   0  0  0  0  0  0  0  0  0  0  0  0
    1.6779   -0.6916    1.5196 H   0  0  0  0  0  0  0  0  0  0  0  0
    2.3805   -2.3831   -0.1003 H   0  0  0  0  0  0  0  0  0  0  0  0
    3.3450   -2.5165    1.3719 H   0  0  0  0  0  0  0  0  0  0  0  0
    5.2312   -1.3645    0.3183 H   0  0  0  0  0  0  0  0  0  0  0  0
    4.7245   -2.6906   -0.7281 H   0  0  0  0  0  0  0  0  0  0  0  0
    3.5020   -1.1564   -2.1937 H   0  0  0  0  0  0  0  0  0  0  0  0
    5.1502   -0.5562   -1.9939 H   0  0  0  0  0  0  0  0  0  0  0  0
    4.4043    1.0802   -0.3053 H   0  0  0  0  0  0  0  0  0  0  0  0
    3.4609    1.2597   -1.8032 H   0  0  0  0  0  0  0  0  0  0  0  0
   -2.4383    1.4029    1.3967 H   0  0  0  0  0  0  0  0  0  0  0  0
  1  2  1  0
  2  3  1  0
  3  4  2  0
  4  5  1  0
  5  6  2  0
  6  7  1  0
  7  8  1  0
  6  9  1  0
  9 10  1  0
 10 11  1  0
 11 12  2  0
 12 13  1  0
 13 14  2  0
 14 15  1  0
 15 16  1  0
 16 17  2  0
 17 18  1  0
 18 19  2  0
 19 20  1  0
 20 21  1  0
 21 22  1  0
 22 23  1  0
 23 24  1  0
 24 25  1  0
  9 26  2  0
 26  3  1  0
 19 11  1  0
 25 20  1  0
 17 13  1  0
  1 27  1  0
  1 28  1  0
  1 29  1  0
  4 30  1  0
  5 31  1  0
  8 32  1  0
  8 33  1  0
  8 34  1  0
 10 35  1  0
 21 36  1  0
 21 37  1  0
 22 38  1  0
 22 39  1  0
 23 40  1  0
 23 41  1  0
 24 42  1  0
 24 43  1  0
 25 44  1  0
 25 45  1  0
 26 46  1  0
M  END
$$$$
