
     RDKit          3D

 37 39  0  0  0  0  0  0  0  0999 V2000
   -0.6705   -3.2610   -1.5530 C   0  0  0  0  0  0  0  0  0  0  0  0
   -1.2893   -2.5325   -2.6103 O   0  0  0  0  0  0  0  0  0  0  0  0
   -1.5380   -1.1890   -2.3424 C   0  0  0  0  0  0  0  0  0  0  0  0
   -2.4211   -0.5927   -3.2544 C   0  0  0  0  0  0  0  0  0  0  0  0
   -2.7809    0.7461   -3.1334 C   0  0  0  0  0  0  0  0  0  0  0  0
   -2.2753    1.5325   -2.0919 C   0  0  0  0  0  0  0  0  0  0  0  0
   -2.5868    2.8596   -1.9315 O   0  0  0  0  0  0  0  0  0  0  0  0
   -3.9349    3.2009   -2.2380 C   0  0  0  0  0  0  0  0  0  0  0  0
   -1.3520    0.9383   -1.2026 C   0  0  0  0  0  0  0  0  0  0  0  0
   -0.5411    1.6470    0.1418 S   0  0  0  0  0  0  0  0  0  0  0  0
    0.3009    0.1725    0.4571 C   0  0  0  0  0  0  0  0  0  0  0  0
    1.2251    0.0236    1.4525 N   0  0  0  0  0  0  0  0  0  0  0  0
    2.0528   -1.1823    1.4716 C   0  0  0  0  0  0  0  0  0  0  0  0
    3.4874   -0.8274    1.8592 C   0  0  0  0  0  0  0  0  0  0  0  0
    3.5694   -0.1454    3.2236 C   0  0  0  0  0  0  0  0  0  0  0  0
    2.2555    0.5167    3.6336 C   0  0  0  0  0  0  0  0  0  0  0  0
    1.4950    1.0738    2.4316 C   0  0  0  0  0  0  0  0  0  0  0  0
   -0.0330   -0.8029   -0.3579 N   0  0  0  0  0  0  0  0  0  0  0  0
   -0.9656   -0.3999   -1.3068 C   0  0  0  0  0  0  0  0  0  0  0  0
   -1.1957   -3.1214   -0.6000 H   0  0  0  0  0  0  0  0  0  0  0  0
    0.3932   -3.0097   -1.4771 H   0  0  0  0  0  0  0  0  0  0  0  0
   -0.7304   -4.3234   -1.8048 H   0  0  0  0  0  0  0  0  0  0  0  0
   -2.8313   -1.1895   -4.0661 H   0  0  0  0  0  0  0  0  0  0  0  0
   -3.4546    1.1669   -3.8724 H   0  0  0  0  0  0  0  0  0  0  0  0
   -4.1489    4.1657   -1.7666 H   0  0  0  0  0  0  0  0  0  0  0  0
   -4.6449    2.4648   -1.8428 H   0  0  0  0  0  0  0  0  0  0  0  0
   -4.0608    3.3252   -3.3183 H   0  0  0  0  0  0  0  0  0  0  0  0
    1.6299   -1.9023    2.1828 H   0  0  0  0  0  0  0  0  0  0  0  0
    2.0854   -1.6748    0.4923 H   0  0  0  0  0  0  0  0  0  0  0  0
    4.1173   -1.7248    1.8555 H   0  0  0  0  0  0  0  0  0  0  0  0
    3.9038   -0.1520    1.0995 H   0  0  0  0  0  0  0  0  0  0  0  0
    4.3717    0.6016    3.2002 H   0  0  0  0  0  0  0  0  0  0  0  0
    3.8518   -0.8765    3.9912 H   0  0  0  0  0  0  0  0  0  0  0  0
    2.4512    1.3122    4.3617 H   0  0  0  0  0  0  0  0  0  0  0  0
    1.6267   -0.2262    4.1441 H   0  0  0  0  0  0  0  0  0  0  0  0
    0.5601    1.5078    2.8073 H   0  0  0  0  0  0  0  0  0  0  0  0
    2.0780    1.8786    1.9649 H   0  0  0  0  0  0  0  0  0  0  0  0
  1  2  1  0
  2  3  1  0
  3  4  2  0
  4  5  1  0
  5  6  2  0
  6  7  1  0
  7  8  1  0
  6  9  1  0
  9 10  1  0
 10 11  1  0
 11 12  1  0
 12 13  1  0
 13 14  1  0
 14 15  1  0
 15 16  1  0
 16 17  1  0
 11 18  2  0
 18 19  1  0
 19  3  1  0
 19  9  2  0
 17 12  1  0
  1 20  1  0
  1 21  1  0
  1 22  1  0
  4 23  1  0
  5 24  1  0
  8 25  1  0
  8 26  1  0
  8 27  1  0
 13 28  1  0
 13 29  1  0
 14 30  1  0
 14 31  1  0
 15 32  1  0
 15 33  1  0
 16 34  1  0
 16 35  1  0
 17 36  1  0
 17 37  1  0
M  END
$$$$
