
     RDKit          3D

 59 63  0  0  0  0  0  0  0  0999 V2000
   -7.6349   -1.4166    1.0346 C   0  0  0  0  0  0  0  0  0  0  0  0
   -6.3397   -1.5452    0.2892 C   0  0  0  0  0  0  0  0  0  0  0  0
   -5.1912   -2.0088    0.9392 C   0  0  0  0  0  0  0  0  0  0  0  0
   -3.9928   -2.1589    0.2383 C   0  0  0  0  0  0  0  0  0  0  0  0
   -3.9254   -1.8636   -1.1296 C   0  0  0  0  0  0  0  0  0  0  0  0
   -2.6226   -1.9984   -1.8732 C   0  0  0  0  0  0  0  0  0  0  0  0
   -1.8194   -0.8073   -1.7147 N   0  0  0  0  0  0  0  0  0  0  0  0
   -0.8279   -0.7268   -0.7640 C   0  0  0  0  0  0  0  0  0  0  0  0
   -0.4712   -1.6953   -0.1024 O   0  0  0  0  0  0  0  0  0  0  0  0
   -0.2478    0.5875   -0.6166 C   0  0  0  0  0  0  0  0  0  0  0  0
   -0.1767    1.6338   -1.5225 C   0  0  0  0  0  0  0  0  0  0  0  0
    0.5387    2.6821   -0.8883 C   0  0  0  0  0  0  0  0  0  0  0  0
    0.9020    4.0005   -1.4244 C   0  0  0  0  0  0  0  0  0  0  0  0
    0.6106    4.3564   -2.7502 C   0  0  0  0  0  0  0  0  0  0  0  0
    0.9645    5.6153   -3.2478 C   0  0  0  0  0  0  0  0  0  0  0  0
    1.6141    6.5349   -2.4278 C   0  0  0  0  0  0  0  0  0  0  0  0
    1.9110    6.1985   -1.1101 C   0  0  0  0  0  0  0  0  0  0  0  0
    1.5576    4.9409   -0.6131 C   0  0  0  0  0  0  0  0  0  0  0  0
    0.8836    2.3071    0.3511 N   0  0  0  0  0  0  0  0  0  0  0  0
    0.3991    1.0591    0.4984 N   0  0  0  0  0  0  0  0  0  0  0  0
    0.5773    0.4218    1.7892 C   0  0  0  0  0  0  0  0  0  0  0  0
    2.0321    0.0922    2.0838 C   0  0  0  0  0  0  0  0  0  0  0  0
    2.6358   -0.9545    1.1744 C   0  0  0  0  0  0  0  0  0  0  0  0
    3.5684   -1.5692    2.1613 C   0  0  0  0  0  0  0  0  0  0  0  0
    4.6989   -2.4182    1.7464 C   0  0  0  0  0  0  0  0  0  0  0  0
    4.8941   -2.8112    0.4216 C   0  0  0  0  0  0  0  0  0  0  0  0
    5.9879   -3.6146    0.1018 C   0  0  0  0  0  0  0  0  0  0  0  0
    6.8473   -3.9978    1.1196 C   0  0  0  0  0  0  0  0  0  0  0  0
    6.6853   -3.6383    2.4106 N   0  0  0  0  0  0  0  0  0  0  0  0
    5.6121   -2.8586    2.6972 C   0  0  0  0  0  0  0  0  0  0  0  0
    3.2819   -1.3177    3.3999 N   0  0  0  0  0  0  0  0  0  0  0  0
    2.1349   -0.4882    3.3957 O   0  0  0  0  0  0  0  0  0  0  0  0
   -5.0779   -1.4053   -1.7804 C   0  0  0  0  0  0  0  0  0  0  0  0
   -6.2765   -1.2560   -1.0783 C   0  0  0  0  0  0  0  0  0  0  0  0
   -8.1968   -2.3537    0.9723 H   0  0  0  0  0  0  0  0  0  0  0  0
   -7.4578   -1.1793    2.0890 H   0  0  0  0  0  0  0  0  0  0  0  0
   -8.2458   -0.6085    0.6188 H   0  0  0  0  0  0  0  0  0  0  0  0
   -5.2205   -2.2541    1.9986 H   0  0  0  0  0  0  0  0  0  0  0  0
   -3.1074   -2.5093    0.7666 H   0  0  0  0  0  0  0  0  0  0  0  0
   -2.8086   -2.1232   -2.9455 H   0  0  0  0  0  0  0  0  0  0  0  0
   -2.0785   -2.8868   -1.5342 H   0  0  0  0  0  0  0  0  0  0  0  0
   -2.2149    0.0546   -2.0601 H   0  0  0  0  0  0  0  0  0  0  0  0
   -0.5677    1.6286   -2.5293 H   0  0  0  0  0  0  0  0  0  0  0  0
    0.1085    3.6657   -3.4208 H   0  0  0  0  0  0  0  0  0  0  0  0
    0.7330    5.8767   -4.2773 H   0  0  0  0  0  0  0  0  0  0  0  0
    1.8893    7.5126   -2.8149 H   0  0  0  0  0  0  0  0  0  0  0  0
    2.4179    6.9116   -0.4649 H   0  0  0  0  0  0  0  0  0  0  0  0
    1.7986    4.6983    0.4205 H   0  0  0  0  0  0  0  0  0  0  0  0
    0.1947    1.1216    2.5436 H   0  0  0  0  0  0  0  0  0  0  0  0
   -0.0621   -0.4602    1.8699 H   0  0  0  0  0  0  0  0  0  0  0  0
    2.6466    1.0020    2.0831 H   0  0  0  0  0  0  0  0  0  0  0  0
    1.9193   -1.7178    0.8608 H   0  0  0  0  0  0  0  0  0  0  0  0
    3.1355   -0.5140    0.3094 H   0  0  0  0  0  0  0  0  0  0  0  0
    4.2109   -2.5154   -0.3683 H   0  0  0  0  0  0  0  0  0  0  0  0
    6.1651   -3.9375   -0.9185 H   0  0  0  0  0  0  0  0  0  0  0  0
    7.7124   -4.6235    0.9182 H   0  0  0  0  0  0  0  0  0  0  0  0
    5.5124   -2.5917    3.7468 H   0  0  0  0  0  0  0  0  0  0  0  0
   -5.0544   -1.1657   -2.8407 H   0  0  0  0  0  0  0  0  0  0  0  0
   -7.1626   -0.9103   -1.6056 H   0  0  0  0  0  0  0  0  0  0  0  0
  1  2  1  0
  2  3  2  0
  3  4  1  0
  4  5  2  0
  5  6  1  0
  6  7  1  0
  7  8  1  0
  8  9  2  0
  8 10  1  0
 10 11  2  0
 11 12  1  0
 12 13  1  0
 13 14  2  0
 14 15  1  0
 15 16  2  0
 16 17  1  0
 17 18  2  0
 12 19  2  0
 19 20  1  0
 20 21  1  0
 21 22  1  0
 22 23  1  0
 23 24  1  0
 24 25  1  0
 25 26  2  0
 26 27  1  0
 27 28  2  0
 28 29  1  0
 29 30  2  0
 24 31  2  0
 31 32  1  0
  5 33  1  0
 33 34  2  0
 34  2  1  0
 20 10  1  0
 32 22  1  0
 18 13  1  0
 30 25  1  0
  1 35  1  0
  1 36  1  0
  1 37  1  0
  3 38  1  0
  4 39  1  0
  6 40  1  0
  6 41  1  0
  7 42  1  0
 11 43  1  0
 14 44  1  0
 15 45  1  0
 16 46  1  0
 17 47  1  0
 18 48  1  0
 21 49  1  0
 21 50  1  0
 22 51  1  0
 23 52  1  0
 23 53  1  0
 26 54  1  0
 27 55  1  0
 28 56  1  0
 30 57  1  0
 33 58  1  0
 34 59  1  0
M  END
$$$$
