
     RDKit          3D

 46 50  0  0  0  0  0  0  0  0999 V2000
    0.4376    1.5727   -1.8901 O   0  0  0  0  0  0  0  0  0  0  0  0
   -0.4143    1.1836   -1.0952 C   0  0  0  0  0  0  0  0  0  0  0  0
   -1.8051    1.6296   -1.2469 C   0  0  0  0  0  0  0  0  0  0  0  0
   -2.1135    2.7358   -2.0454 C   0  0  0  0  0  0  0  0  0  0  0  0
   -3.4396    3.1445   -2.1562 C   0  0  0  0  0  0  0  0  0  0  0  0
   -3.8374    4.5054   -3.1294 Cl  0  0  0  0  0  0  0  0  0  0  0  0
   -4.4490    2.4587   -1.4809 C   0  0  0  0  0  0  0  0  0  0  0  0
   -4.1294    1.3491   -0.6945 C   0  0  0  0  0  0  0  0  0  0  0  0
   -2.8048    0.9253   -0.5859 C   0  0  0  0  0  0  0  0  0  0  0  0
   -2.5915   -0.1775    0.1840 O   0  0  0  0  0  0  0  0  0  0  0  0
   -1.2874   -0.8156    0.1188 C   0  0  0  0  0  0  0  0  0  0  0  0
   -1.2209   -1.6563    1.4216 C   0  0  0  0  0  0  0  0  0  0  0  0
   -2.2654   -2.7738    1.4380 C   0  0  0  0  0  0  0  0  0  0  0  0
   -2.1391   -3.6460    0.2715 N   0  0  0  0  0  0  0  0  0  0  0  0
   -2.3072   -2.8888   -0.9658 C   0  0  0  0  0  0  0  0  0  0  0  0
   -1.2632   -1.7795   -1.0933 C   0  0  0  0  0  0  0  0  0  0  0  0
   -0.1401    0.2324    0.0645 C   0  0  0  0  0  0  0  0  0  0  0  0
    1.2685   -0.3397   -0.0217 C   0  0  0  0  0  0  0  0  0  0  0  0
    1.9632    0.6141    0.8897 C   0  0  0  0  0  0  0  0  0  0  0  0
    3.4412    0.6846    0.9772 C   0  0  0  0  0  0  0  0  0  0  0  0
    4.0250    1.6439    1.8144 C   0  0  0  0  0  0  0  0  0  0  0  0
    5.4141    1.7331    1.9226 C   0  0  0  0  0  0  0  0  0  0  0  0
    6.2265    0.8646    1.1964 C   0  0  0  0  0  0  0  0  0  0  0  0
    5.6521   -0.0936    0.3623 C   0  0  0  0  0  0  0  0  0  0  0  0
    4.2618   -0.1864    0.2513 C   0  0  0  0  0  0  0  0  0  0  0  0
    1.1761    1.3419    1.6165 N   0  0  0  0  0  0  0  0  0  0  0  0
   -0.1525    1.0189    1.2679 O   0  0  0  0  0  0  0  0  0  0  0  0
   -1.3249    3.2756   -2.5644 H   0  0  0  0  0  0  0  0  0  0  0  0
   -5.4843    2.7807   -1.5629 H   0  0  0  0  0  0  0  0  0  0  0  0
   -4.9168    0.8115   -0.1709 H   0  0  0  0  0  0  0  0  0  0  0  0
   -0.2321   -2.1082    1.5522 H   0  0  0  0  0  0  0  0  0  0  0  0
   -1.4021   -1.0165    2.2943 H   0  0  0  0  0  0  0  0  0  0  0  0
   -2.1339   -3.3771    2.3433 H   0  0  0  0  0  0  0  0  0  0  0  0
   -3.2799   -2.3608    1.4898 H   0  0  0  0  0  0  0  0  0  0  0  0
   -1.2300   -4.1075    0.2806 H   0  0  0  0  0  0  0  0  0  0  0  0
   -2.2087   -3.5758   -1.8138 H   0  0  0  0  0  0  0  0  0  0  0  0
   -3.3219   -2.4767   -1.0204 H   0  0  0  0  0  0  0  0  0  0  0  0
   -0.2724   -2.2390   -1.1950 H   0  0  0  0  0  0  0  0  0  0  0  0
   -1.4613   -1.2387   -2.0259 H   0  0  0  0  0  0  0  0  0  0  0  0
    1.6884   -0.3418   -1.0302 H   0  0  0  0  0  0  0  0  0  0  0  0
    1.3663   -1.3414    0.4033 H   0  0  0  0  0  0  0  0  0  0  0  0
    3.4028    2.3300    2.3860 H   0  0  0  0  0  0  0  0  0  0  0  0
    5.8597    2.4820    2.5726 H   0  0  0  0  0  0  0  0  0  0  0  0
    7.3083    0.9359    1.2798 H   0  0  0  0  0  0  0  0  0  0  0  0
    6.2891   -0.7689   -0.2041 H   0  0  0  0  0  0  0  0  0  0  0  0
    3.8480   -0.9444   -0.4060 H   0  0  0  0  0  0  0  0  0  0  0  0
  1  2  2  0
  2  3  1  0
  3  4  2  0
  4  5  1  0
  5  6  1  0
  5  7  2  0
  7  8  1  0
  8  9  2  0
  9 10  1  0
 10 11  1  0
 11 12  1  0
 12 13  1  0
 13 14  1  0
 14 15  1  0
 15 16  1  0
 11 17  1  0
 17 18  1  0
 18 19  1  0
 19 20  1  0
 20 21  2  0
 21 22  1  0
 22 23  2  0
 23 24  1  0
 24 25  2  0
 19 26  2  0
 26 27  1  0
 17  2  1  0
 25 20  1  0
  9  3  1  0
 16 11  1  0
 27 17  1  0
  4 28  1  0
  7 29  1  0
  8 30  1  0
 12 31  1  0
 12 32  1  0
 13 33  1  0
 13 34  1  0
 14 35  1  0
 15 36  1  0
 15 37  1  0
 16 38  1  0
 16 39  1  0
 18 40  1  0
 18 41  1  0
 21 42  1  0
 22 43  1  0
 23 44  1  0
 24 45  1  0
 25 46  1  0
M  END
$$$$
