
     RDKit          3D

 37 39  0  0  0  0  0  0  0  0999 V2000
    0.5570    1.6408    1.3084 O   0  0  0  0  0  0  0  0  0  0  0  0
    0.8332    0.6004    0.7238 C   0  0  0  0  0  0  0  0  0  0  0  0
    2.2201    0.2197    0.3401 C   0  0  0  0  0  0  0  0  0  0  0  0
    3.2583    1.0377    0.5622 C   0  0  0  0  0  0  0  0  0  0  0  0
    4.6558    0.7624    0.2153 C   0  0  0  0  0  0  0  0  0  0  0  0
    5.3881   -0.2212    0.8917 C   0  0  0  0  0  0  0  0  0  0  0  0
    6.7213   -0.4650    0.5543 C   0  0  0  0  0  0  0  0  0  0  0  0
    7.3321    0.2761   -0.4567 C   0  0  0  0  0  0  0  0  0  0  0  0
    6.6060    1.2608   -1.1242 C   0  0  0  0  0  0  0  0  0  0  0  0
    7.4345    2.2690   -2.4927 Br  0  0  0  0  0  0  0  0  0  0  0  0
    5.2739    1.5106   -0.7926 C   0  0  0  0  0  0  0  0  0  0  0  0
    2.2389   -1.3334   -0.3984 S   0  0  0  0  0  0  0  0  0  0  0  0
    0.5043   -1.5655   -0.1859 C   0  0  0  0  0  0  0  0  0  0  0  0
   -0.2427   -3.0164   -0.5487 S   0  0  0  0  0  0  0  0  0  0  0  0
   -0.0507   -0.3962    0.3200 N   0  0  0  0  0  0  0  0  0  0  0  0
   -1.3723   -0.2658    0.7085 N   0  0  0  0  0  0  0  0  0  0  0  0
   -2.2572   -0.3915   -0.2311 C   0  0  0  0  0  0  0  0  0  0  0  0
   -3.7029   -0.2981    0.0608 C   0  0  0  0  0  0  0  0  0  0  0  0
   -4.5963   -0.5304   -0.9911 C   0  0  0  0  0  0  0  0  0  0  0  0
   -5.9768   -0.4556   -0.7486 C   0  0  0  0  0  0  0  0  0  0  0  0
   -6.9192   -0.6970   -1.8491 N   0  0  0  0  0  4  0  0  0  0  0  0
   -6.4428   -0.9156   -2.9719 O   0  0  0  0  0  0  0  0  0  0  0  0
   -8.1299   -0.6657   -1.5905 O   0  0  0  0  0  1  0  0  0  0  0  0
   -6.4659   -0.1524    0.5290 C   0  0  0  0  0  0  0  0  0  0  0  0
   -5.5660    0.0794    1.5705 C   0  0  0  0  0  0  0  0  0  0  0  0
   -4.1929    0.0084    1.3374 C   0  0  0  0  0  0  0  0  0  0  0  0
   -3.3883    0.2590    2.4133 O   0  0  0  0  0  0  0  0  0  0  0  0
    3.0913    2.0106    1.0238 H   0  0  0  0  0  0  0  0  0  0  0  0
    4.9292   -0.8046    1.6873 H   0  0  0  0  0  0  0  0  0  0  0  0
    7.2834   -1.2323    1.0812 H   0  0  0  0  0  0  0  0  0  0  0  0
    8.3698    0.0806   -0.7141 H   0  0  0  0  0  0  0  0  0  0  0  0
    4.7188    2.2823   -1.3202 H   0  0  0  0  0  0  0  0  0  0  0  0
   -1.9710   -0.5548   -1.2865 H   0  0  0  0  0  0  0  0  0  0  0  0
   -4.2221   -0.7715   -1.9840 H   0  0  0  0  0  0  0  0  0  0  0  0
   -7.5341   -0.0916    0.7297 H   0  0  0  0  0  0  0  0  0  0  0  0
   -5.9326    0.3182    2.5668 H   0  0  0  0  0  0  0  0  0  0  0  0
   -2.4521    0.2087    2.1231 H   0  0  0  0  0  0  0  0  0  0  0  0
  1  2  2  0
  2  3  1  0
  3  4  2  3
  4  5  1  0
  5  6  2  0
  6  7  1  0
  7  8  2  0
  8  9  1  0
  9 10  1  0
  9 11  2  0
  3 12  1  0
 12 13  1  0
 13 14  2  0
 13 15  1  0
 15 16  1  0
 16 17  2  3
 17 18  1  0
 18 19  2  0
 19 20  1  0
 20 21  1  0
 21 22  2  0
 21 23  1  0
 20 24  2  0
 24 25  1  0
 25 26  2  0
 26 27  1  0
 15  2  1  0
 26 18  1  0
 11  5  1  0
  4 28  1  0
  6 29  1  0
  7 30  1  0
  8 31  1  0
 11 32  1  0
 17 33  1  0
 19 34  1  0
 24 35  1  0
 25 36  1  0
 27 37  1  0
M  CHG  2  21   1  23  -1
M  END
$$$$
