
     RDKit          3D

 59 63  0  0  0  0  0  0  0  0999 V2000
   -1.5390   -4.1545    3.4854 C   0  0  0  0  0  0  0  0  0  0  0  0
   -2.0131   -3.1919    2.4382 C   0  0  0  0  0  0  0  0  0  0  0  0
   -2.6559   -1.9991    2.7972 C   0  0  0  0  0  0  0  0  0  0  0  0
   -3.1181   -1.1221    1.8128 C   0  0  0  0  0  0  0  0  0  0  0  0
   -2.9620   -1.4300    0.4521 C   0  0  0  0  0  0  0  0  0  0  0  0
   -3.4242   -0.4605   -0.6036 C   0  0  0  0  0  0  0  0  0  0  0  0
   -2.3800    0.4978   -0.8730 N   0  0  0  0  0  0  0  0  0  0  0  0
   -2.4274    1.7906   -0.4149 C   0  0  0  0  0  0  0  0  0  0  0  0
   -3.4402    2.2839    0.0712 O   0  0  0  0  0  0  0  0  0  0  0  0
   -1.2010    2.5318   -0.5680 C   0  0  0  0  0  0  0  0  0  0  0  0
   -1.0482    3.8364   -0.9989 C   0  0  0  0  0  0  0  0  0  0  0  0
    0.3413    4.1221   -0.9475 C   0  0  0  0  0  0  0  0  0  0  0  0
    1.0300    5.3652   -1.3146 C   0  0  0  0  0  0  0  0  0  0  0  0
    2.4290    5.3966   -1.4245 C   0  0  0  0  0  0  0  0  0  0  0  0
    3.0960    6.5740   -1.7730 C   0  0  0  0  0  0  0  0  0  0  0  0
    2.3724    7.7390   -2.0148 C   0  0  0  0  0  0  0  0  0  0  0  0
    0.9841    7.7270   -1.9074 C   0  0  0  0  0  0  0  0  0  0  0  0
    0.3165    6.5482   -1.5600 C   0  0  0  0  0  0  0  0  0  0  0  0
    1.0120    3.0542   -0.4853 N   0  0  0  0  0  0  0  0  0  0  0  0
    0.0645    2.1349   -0.2240 N   0  0  0  0  0  0  0  0  0  0  0  0
    0.4663    0.9295    0.4799 C   0  0  0  0  0  0  0  0  0  0  0  0
    1.1582   -0.0650   -0.4400 C   0  0  0  0  0  0  0  0  0  0  0  0
    1.6003   -1.3053    0.3084 C   0  0  0  0  0  0  0  0  0  0  0  0
    1.2743   -2.3247   -0.7254 C   0  0  0  0  0  0  0  0  0  0  0  0
    1.7498   -3.7188   -0.6264 C   0  0  0  0  0  0  0  0  0  0  0  0
    2.5210   -4.1795    0.4439 C   0  0  0  0  0  0  0  0  0  0  0  0
    2.9303   -5.5127    0.4682 C   0  0  0  0  0  0  0  0  0  0  0  0
    2.5472   -6.3416   -0.5738 C   0  0  0  0  0  0  0  0  0  0  0  0
    1.7940   -5.9306   -1.6159 N   0  0  0  0  0  0  0  0  0  0  0  0
    1.4129   -4.6284   -1.6211 C   0  0  0  0  0  0  0  0  0  0  0  0
    0.5133   -1.8985   -1.6847 N   0  0  0  0  0  0  0  0  0  0  0  0
    0.2290   -0.5434   -1.4255 O   0  0  0  0  0  0  0  0  0  0  0  0
   -2.3181   -2.6216    0.0982 C   0  0  0  0  0  0  0  0  0  0  0  0
   -1.8528   -3.4984    1.0819 C   0  0  0  0  0  0  0  0  0  0  0  0
   -0.5225   -4.5015    3.2564 H   0  0  0  0  0  0  0  0  0  0  0  0
   -1.5086   -3.6866    4.4761 H   0  0  0  0  0  0  0  0  0  0  0  0
   -2.2101   -5.0178    3.5301 H   0  0  0  0  0  0  0  0  0  0  0  0
   -2.8060   -1.7448    3.8451 H   0  0  0  0  0  0  0  0  0  0  0  0
   -3.6056   -0.1933    2.1095 H   0  0  0  0  0  0  0  0  0  0  0  0
   -3.6446   -0.9860   -1.5399 H   0  0  0  0  0  0  0  0  0  0  0  0
   -4.3433    0.0377   -0.2845 H   0  0  0  0  0  0  0  0  0  0  0  0
   -1.5484    0.1479   -1.3382 H   0  0  0  0  0  0  0  0  0  0  0  0
   -1.8524    4.4848   -1.3212 H   0  0  0  0  0  0  0  0  0  0  0  0
    3.0116    4.4963   -1.2391 H   0  0  0  0  0  0  0  0  0  0  0  0
    4.1790    6.5779   -1.8543 H   0  0  0  0  0  0  0  0  0  0  0  0
    2.8909    8.6556   -2.2852 H   0  0  0  0  0  0  0  0  0  0  0  0
    0.4180    8.6366   -2.0913 H   0  0  0  0  0  0  0  0  0  0  0  0
   -0.7661    6.5763   -1.4768 H   0  0  0  0  0  0  0  0  0  0  0  0
   -0.4251    0.4977    0.9446 H   0  0  0  0  0  0  0  0  0  0  0  0
    1.1386    1.2424    1.2893 H   0  0  0  0  0  0  0  0  0  0  0  0
    1.9998    0.3939   -0.9730 H   0  0  0  0  0  0  0  0  0  0  0  0
    2.6613   -1.2708    0.5645 H   0  0  0  0  0  0  0  0  0  0  0  0
    0.9995   -1.5023    1.2027 H   0  0  0  0  0  0  0  0  0  0  0  0
    2.8127   -3.5268    1.2603 H   0  0  0  0  0  0  0  0  0  0  0  0
    3.5368   -5.8977    1.2806 H   0  0  0  0  0  0  0  0  0  0  0  0
    2.8442   -7.3881   -0.5987 H   0  0  0  0  0  0  0  0  0  0  0  0
    0.8095   -4.3375   -2.4760 H   0  0  0  0  0  0  0  0  0  0  0  0
   -2.1632   -2.8732   -0.9499 H   0  0  0  0  0  0  0  0  0  0  0  0
   -1.3682   -4.4252    0.7806 H   0  0  0  0  0  0  0  0  0  0  0  0
  1  2  1  0
  2  3  2  0
  3  4  1  0
  4  5  2  0
  5  6  1  0
  6  7  1  0
  7  8  1  0
  8  9  2  0
  8 10  1  0
 10 11  2  0
 11 12  1  0
 12 13  1  0
 13 14  2  0
 14 15  1  0
 15 16  2  0
 16 17  1  0
 17 18  2  0
 12 19  2  0
 19 20  1  0
 20 21  1  0
 21 22  1  0
 22 23  1  0
 23 24  1  0
 24 25  1  0
 25 26  2  0
 26 27  1  0
 27 28  2  0
 28 29  1  0
 29 30  2  0
 24 31  2  0
 31 32  1  0
  5 33  1  0
 33 34  2  0
 34  2  1  0
 20 10  1  0
 32 22  1  0
 18 13  1  0
 30 25  1  0
  1 35  1  0
  1 36  1  0
  1 37  1  0
  3 38  1  0
  4 39  1  0
  6 40  1  0
  6 41  1  0
  7 42  1  0
 11 43  1  0
 14 44  1  0
 15 45  1  0
 16 46  1  0
 17 47  1  0
 18 48  1  0
 21 49  1  0
 21 50  1  0
 22 51  1  0
 23 52  1  0
 23 53  1  0
 26 54  1  0
 27 55  1  0
 28 56  1  0
 30 57  1  0
 33 58  1  0
 34 59  1  0
M  END
$$$$
