
     RDKit          3D

 53 56  0  0  0  0  0  0  0  0999 V2000
    5.5565    3.5779    2.9893 C   0  0  0  0  0  0  0  0  0  0  0  0
    6.2682    3.7765    1.7721 O   0  0  0  0  0  0  0  0  0  0  0  0
    5.8600    3.0411    0.6943 C   0  0  0  0  0  0  0  0  0  0  0  0
    6.6132    3.2341   -0.4623 C   0  0  0  0  0  0  0  0  0  0  0  0
    6.3048    2.5441   -1.6389 C   0  0  0  0  0  0  0  0  0  0  0  0
    5.2315    1.6434   -1.6801 C   0  0  0  0  0  0  0  0  0  0  0  0
    4.8533    0.9609   -2.8081 O   0  0  0  0  0  0  0  0  0  0  0  0
    5.5404    1.2501   -4.0200 C   0  0  0  0  0  0  0  0  0  0  0  0
    4.4755    1.4259   -0.5084 C   0  0  0  0  0  0  0  0  0  0  0  0
    3.3633    0.4770   -0.4316 C   0  0  0  0  0  0  0  0  0  0  0  0
    3.3624   -0.7791   -1.0086 C   0  0  0  0  0  0  0  0  0  0  0  0
    1.9173   -1.6058   -0.6032 S   0  0  0  0  0  0  0  0  0  0  0  0
    1.4090   -0.2588    0.3012 C   0  0  0  0  0  0  0  0  0  0  0  0
    0.2144   -0.2032    0.9705 N   0  0  0  0  0  0  0  0  0  0  0  0
   -0.7333   -1.2069    1.0868 C   0  0  0  0  0  0  0  0  0  0  0  0
   -0.6384   -2.3504    0.6451 O   0  0  0  0  0  0  0  0  0  0  0  0
   -1.9357   -0.7628    1.9070 C   0  0  0  0  0  0  0  0  0  0  0  0
   -3.1948   -1.1486    1.2873 N   0  0  0  0  0  0  0  0  0  0  0  0
   -4.1099   -2.0366    1.8119 C   0  0  0  0  0  0  0  0  0  0  0  0
   -3.9032   -2.6214    2.9944 O   0  0  0  0  0  0  0  0  0  0  0  0
   -5.1531   -2.1412    0.9077 C   0  0  0  0  0  0  0  0  0  0  0  0
   -4.8623   -1.2657   -0.1862 C   0  0  0  0  0  0  0  0  0  0  0  0
   -3.6608   -0.6399    0.0939 C   0  0  0  0  0  0  0  0  0  0  0  0
   -2.9573    0.2715   -0.5727 O   0  0  0  0  0  0  0  0  0  0  0  0
   -5.7555   -1.1310   -1.3766 C   0  0  0  0  0  0  0  0  0  0  0  0
   -7.1625   -1.6871   -1.0951 C   0  0  0  0  0  0  0  0  0  0  0  0
   -7.1144   -3.0466   -0.3782 C   0  0  0  0  0  0  0  0  0  0  0  0
   -6.4064   -2.9539    0.9882 C   0  0  0  0  0  0  0  0  0  0  0  0
    2.2361    0.7614    0.3305 N   0  0  0  0  0  0  0  0  0  0  0  0
    4.7924    2.1430    0.6652 C   0  0  0  0  0  0  0  0  0  0  0  0
    6.0396    4.1881    3.7568 H   0  0  0  0  0  0  0  0  0  0  0  0
    4.5170    3.9130    2.8952 H   0  0  0  0  0  0  0  0  0  0  0  0
    5.6058    2.5338    3.3203 H   0  0  0  0  0  0  0  0  0  0  0  0
    7.4513    3.9305   -0.4477 H   0  0  0  0  0  0  0  0  0  0  0  0
    6.9275    2.7378   -2.5059 H   0  0  0  0  0  0  0  0  0  0  0  0
    5.0500    0.6894   -4.8193 H   0  0  0  0  0  0  0  0  0  0  0  0
    5.4703    2.3153   -4.2759 H   0  0  0  0  0  0  0  0  0  0  0  0
    6.5842    0.9225   -3.9669 H   0  0  0  0  0  0  0  0  0  0  0  0
    4.1194   -1.2484   -1.6209 H   0  0  0  0  0  0  0  0  0  0  0  0
    0.0527    0.6997    1.3935 H   0  0  0  0  0  0  0  0  0  0  0  0
   -1.9650    0.3288    2.0311 H   0  0  0  0  0  0  0  0  0  0  0  0
   -1.8568   -1.2136    2.9042 H   0  0  0  0  0  0  0  0  0  0  0  0
   -4.6341   -3.2536    3.1324 H   0  0  0  0  0  0  0  0  0  0  0  0
   -3.3980    0.3949   -1.4335 H   0  0  0  0  0  0  0  0  0  0  0  0
   -5.3118   -1.6870   -2.2107 H   0  0  0  0  0  0  0  0  0  0  0  0
   -5.8287   -0.0806   -1.6858 H   0  0  0  0  0  0  0  0  0  0  0  0
   -7.7155   -0.9753   -0.4744 H   0  0  0  0  0  0  0  0  0  0  0  0
   -7.7131   -1.7856   -2.0398 H   0  0  0  0  0  0  0  0  0  0  0  0
   -8.1331   -3.4317   -0.2374 H   0  0  0  0  0  0  0  0  0  0  0  0
   -6.5888   -3.7684   -1.0154 H   0  0  0  0  0  0  0  0  0  0  0  0
   -6.1896   -3.9649    1.3581 H   0  0  0  0  0  0  0  0  0  0  0  0
   -7.0808   -2.4792    1.7145 H   0  0  0  0  0  0  0  0  0  0  0  0
    4.1868    1.9668    1.5519 H   0  0  0  0  0  0  0  0  0  0  0  0
  1  2  1  0
  2  3  1  0
  3  4  2  0
  4  5  1  0
  5  6  2  0
  6  7  1  0
  7  8  1  0
  6  9  1  0
  9 10  1  0
 10 11  2  0
 11 12  1  0
 12 13  1  0
 13 14  1  0
 14 15  1  0
 15 16  2  0
 15 17  1  0
 17 18  1  0
 18 19  1  0
 19 20  1  0
 19 21  2  0
 21 22  1  0
 22 23  2  0
 23 24  1  0
 22 25  1  0
 25 26  1  0
 26 27  1  0
 27 28  1  0
 13 29  2  0
  9 30  2  0
 30  3  1  0
 29 10  1  0
 23 18  1  0
 28 21  1  0
  1 31  1  0
  1 32  1  0
  1 33  1  0
  4 34  1  0
  5 35  1  0
  8 36  1  0
  8 37  1  0
  8 38  1  0
 11 39  1  0
 14 40  1  0
 17 41  1  0
 17 42  1  0
 20 43  1  0
 24 44  1  0
 25 45  1  0
 25 46  1  0
 26 47  1  0
 26 48  1  0
 27 49  1  0
 27 50  1  0
 28 51  1  0
 28 52  1  0
 30 53  1  0
M  END
$$$$
