
     RDKit          3D

 59 62  0  0  0  0  0  0  0  0999 V2000
    8.7619    2.8815    2.6087 C   0  0  0  0  0  0  0  0  0  0  0  0
    7.6662    3.8222    2.1379 C   0  0  0  0  0  0  0  0  0  0  0  0
    6.3862    3.3647    2.5705 O   0  0  0  0  0  0  0  0  0  0  0  0
    5.6840    2.5104    1.7682 C   0  0  0  0  0  0  0  0  0  0  0  0
    4.3940    2.2231    2.2193 C   0  0  0  0  0  0  0  0  0  0  0  0
    3.5603    1.3621    1.5028 C   0  0  0  0  0  0  0  0  0  0  0  0
    4.0079    0.7728    0.3161 C   0  0  0  0  0  0  0  0  0  0  0  0
    3.1147   -0.1700   -0.4486 C   0  0  0  0  0  0  0  0  0  0  0  0
    3.2044   -1.6004    0.0879 C   0  0  0  0  0  0  0  0  0  0  0  0
    2.3648   -2.5164   -0.6632 N   0  0  0  0  0  0  0  0  0  0  0  0
    1.0021   -2.5871   -0.4450 C   0  0  0  0  0  0  0  0  0  0  0  0
    0.4359   -1.9318    0.4259 O   0  0  0  0  0  0  0  0  0  0  0  0
    0.2841   -3.5640   -1.3655 C   0  0  0  0  0  0  0  0  0  0  0  0
   -1.1014   -3.1051   -1.7510 C   0  0  0  0  0  0  0  0  0  0  0  0
   -2.2333   -3.6902   -1.1686 C   0  0  0  0  0  0  0  0  0  0  0  0
   -3.5117   -3.2383   -1.5027 C   0  0  0  0  0  0  0  0  0  0  0  0
   -3.6776   -2.1855   -2.4058 C   0  0  0  0  0  0  0  0  0  0  0  0
   -4.9516   -1.6920   -2.7123 N   0  0  0  0  0  0  0  0  0  0  0  0
   -5.5099   -0.9120   -1.8576 C   0  0  0  0  0  0  0  0  0  0  0  0
   -5.0658   -0.4268   -0.6426 N   0  0  0  0  0  0  0  0  0  0  0  0
   -5.8076    0.7415   -0.2229 C   0  0  0  0  0  0  0  0  0  0  0  0
   -5.8267    1.0815    1.2461 C   0  0  0  0  0  0  0  0  0  0  0  0
   -7.2878    2.1359    1.3464 S   0  0  0  0  0  6  0  0  0  0  0  0
   -6.8624    3.5167    1.2527 O   0  0  0  0  0  0  0  0  0  0  0  0
   -8.1269    1.6560    2.4236 O   0  0  0  0  0  0  0  0  0  0  0  0
   -8.0354    1.6621   -0.2298 C   0  0  0  0  0  0  0  0  0  0  0  0
   -7.2657    0.4069   -0.5555 C   0  0  0  0  0  0  0  0  0  0  0  0
   -7.1245   -0.2459   -2.2356 S   0  0  0  0  0  0  0  0  0  0  0  0
   -2.5530   -1.6196   -3.0079 C   0  0  0  0  0  0  0  0  0  0  0  0
   -1.2722   -2.0702   -2.6813 C   0  0  0  0  0  0  0  0  0  0  0  0
    5.3044    1.0524   -0.1299 C   0  0  0  0  0  0  0  0  0  0  0  0
    6.1371    1.9160    0.5918 C   0  0  0  0  0  0  0  0  0  0  0  0
    8.7192    2.7599    3.6965 H   0  0  0  0  0  0  0  0  0  0  0  0
    8.6482    1.8832    2.1741 H   0  0  0  0  0  0  0  0  0  0  0  0
    9.7481    3.2700    2.3366 H   0  0  0  0  0  0  0  0  0  0  0  0
    7.7061    4.0052    1.0585 H   0  0  0  0  0  0  0  0  0  0  0  0
    7.8220    4.7980    2.6120 H   0  0  0  0  0  0  0  0  0  0  0  0
    4.0331    2.6762    3.1395 H   0  0  0  0  0  0  0  0  0  0  0  0
    2.5603    1.1556    1.8784 H   0  0  0  0  0  0  0  0  0  0  0  0
    3.3834   -0.1533   -1.5130 H   0  0  0  0  0  0  0  0  0  0  0  0
    2.0805    0.1945   -0.4047 H   0  0  0  0  0  0  0  0  0  0  0  0
    2.9066   -1.6373    1.1424 H   0  0  0  0  0  0  0  0  0  0  0  0
    4.2308   -1.9773    0.0185 H   0  0  0  0  0  0  0  0  0  0  0  0
    2.7765   -3.0198   -1.4386 H   0  0  0  0  0  0  0  0  0  0  0  0
    0.8659   -3.7214   -2.2821 H   0  0  0  0  0  0  0  0  0  0  0  0
    0.2418   -4.5317   -0.8514 H   0  0  0  0  0  0  0  0  0  0  0  0
   -2.1300   -4.4937   -0.4425 H   0  0  0  0  0  0  0  0  0  0  0  0
   -4.3846   -3.6973   -1.0462 H   0  0  0  0  0  0  0  0  0  0  0  0
   -4.0555   -0.4281   -0.5315 H   0  0  0  0  0  0  0  0  0  0  0  0
   -5.4559    1.6149   -0.7936 H   0  0  0  0  0  0  0  0  0  0  0  0
   -5.9820    0.2060    1.8829 H   0  0  0  0  0  0  0  0  0  0  0  0
   -4.9454    1.6369    1.5724 H   0  0  0  0  0  0  0  0  0  0  0  0
   -7.8591    2.4703   -0.9454 H   0  0  0  0  0  0  0  0  0  0  0  0
   -9.1046    1.4911   -0.0921 H   0  0  0  0  0  0  0  0  0  0  0  0
   -7.6248   -0.4196    0.0743 H   0  0  0  0  0  0  0  0  0  0  0  0
   -2.6789   -0.8163   -3.7290 H   0  0  0  0  0  0  0  0  0  0  0  0
   -0.4113   -1.6002   -3.1508 H   0  0  0  0  0  0  0  0  0  0  0  0
    5.6804    0.6002   -1.0449 H   0  0  0  0  0  0  0  0  0  0  0  0
    7.1348    2.0937    0.2078 H   0  0  0  0  0  0  0  0  0  0  0  0
  1  2  1  0
  2  3  1  0
  3  4  1  0
  4  5  2  0
  5  6  1  0
  6  7  2  0
  7  8  1  0
  8  9  1  0
  9 10  1  0
 10 11  1  0
 11 12  2  0
 11 13  1  0
 13 14  1  0
 14 15  2  0
 15 16  1  0
 16 17  2  0
 17 18  1  0
 18 19  2  3
 19 20  1  0
 20 21  1  0
 21 22  1  0
 22 23  1  0
 23 24  2  0
 23 25  2  0
 23 26  1  0
 26 27  1  0
 27 28  1  0
 17 29  1  0
 29 30  2  0
  7 31  1  0
 31 32  2  0
 32  4  1  0
 30 14  1  0
 28 19  1  0
 27 21  1  0
  1 33  1  0
  1 34  1  0
  1 35  1  0
  2 36  1  0
  2 37  1  0
  5 38  1  0
  6 39  1  0
  8 40  1  0
  8 41  1  0
  9 42  1  0
  9 43  1  0
 10 44  1  0
 13 45  1  0
 13 46  1  0
 15 47  1  0
 16 48  1  0
 20 49  1  0
 21 50  1  0
 22 51  1  0
 22 52  1  0
 26 53  1  0
 26 54  1  0
 27 55  1  0
 29 56  1  0
 30 57  1  0
 31 58  1  0
 32 59  1  0
M  END
$$$$
