
     RDKit          3D

 48 50  0  0  0  0  0  0  0  0999 V2000
    1.0749   -4.1149   -0.5265 C   0  0  0  0  0  0  0  0  0  0  0  0
    1.0903   -2.9120   -1.4576 C   0  0  0  0  0  0  0  0  0  0  0  0
    1.7940   -1.7428   -0.8402 C   0  0  0  0  0  0  0  0  0  0  0  0
    1.2842   -0.6076   -0.3669 C   0  0  0  0  0  0  0  0  0  0  0  0
   -0.1342   -0.2613   -0.3176 C   0  0  0  0  0  0  0  0  0  0  0  0
   -0.9145   -0.6794    0.7700 C   0  0  0  0  0  0  0  0  0  0  0  0
   -2.2764   -0.3778    0.8230 C   0  0  0  0  0  0  0  0  0  0  0  0
   -3.1185   -0.7349    1.8440 O   0  0  0  0  0  0  0  0  0  0  0  0
   -2.6107   -1.6191    2.8335 C   0  0  0  0  0  0  0  0  0  0  0  0
   -2.8481    0.3579   -0.2289 C   0  0  0  0  0  0  0  0  0  0  0  0
   -4.2000    0.6252   -0.2067 O   0  0  0  0  0  0  0  0  0  0  0  0
   -4.4333    1.8808    0.4285 C   0  0  0  0  0  0  0  0  0  0  0  0
   -2.0885    0.7515   -1.3440 C   0  0  0  0  0  0  0  0  0  0  0  0
   -2.7588    1.4363   -2.3244 O   0  0  0  0  0  0  0  0  0  0  0  0
   -2.0536    1.7246   -3.5236 C   0  0  0  0  0  0  0  0  0  0  0  0
   -0.7285    0.4370   -1.3772 C   0  0  0  0  0  0  0  0  0  0  0  0
    2.3814    0.2634    0.1439 C   0  0  0  0  0  0  0  0  0  0  0  0
    2.5699    1.6135   -0.5744 C   0  0  0  0  0  0  0  0  0  0  0  0
    2.5487    2.6679    0.5306 C   0  0  0  0  0  0  0  0  0  0  0  0
    3.0204    1.9290    1.7705 C   0  0  0  0  0  0  0  0  0  0  0  0
    2.3312    0.5756    1.6485 C   0  0  0  0  0  0  0  0  0  0  0  0
    3.5658   -0.6613   -0.1558 C   0  0  0  0  0  0  0  0  0  0  0  0
    4.7364   -0.4042    0.1013 O   0  0  0  0  0  0  0  0  0  0  0  0
    3.1809   -1.8359   -0.7564 O   0  0  0  0  0  0  0  0  0  0  0  0
    0.5547   -3.8840    0.4093 H   0  0  0  0  0  0  0  0  0  0  0  0
    0.5573   -4.9538   -1.0027 H   0  0  0  0  0  0  0  0  0  0  0  0
    2.0907   -4.4421   -0.2806 H   0  0  0  0  0  0  0  0  0  0  0  0
    0.0595   -2.6559   -1.7259 H   0  0  0  0  0  0  0  0  0  0  0  0
    1.5939   -3.1799   -2.3940 H   0  0  0  0  0  0  0  0  0  0  0  0
   -0.4347   -1.2400    1.5662 H   0  0  0  0  0  0  0  0  0  0  0  0
   -1.8210   -1.1385    3.4202 H   0  0  0  0  0  0  0  0  0  0  0  0
   -3.4301   -1.8629    3.5165 H   0  0  0  0  0  0  0  0  0  0  0  0
   -2.2589   -2.5556    2.3878 H   0  0  0  0  0  0  0  0  0  0  0  0
   -4.0936    1.8714    1.4700 H   0  0  0  0  0  0  0  0  0  0  0  0
   -3.9548    2.7007   -0.1182 H   0  0  0  0  0  0  0  0  0  0  0  0
   -5.5126    2.0603    0.4279 H   0  0  0  0  0  0  0  0  0  0  0  0
   -1.6941    0.8082   -4.0032 H   0  0  0  0  0  0  0  0  0  0  0  0
   -1.2314    2.4231   -3.3371 H   0  0  0  0  0  0  0  0  0  0  0  0
   -2.7511    2.2094   -4.2134 H   0  0  0  0  0  0  0  0  0  0  0  0
   -0.1111    0.7208   -2.2232 H   0  0  0  0  0  0  0  0  0  0  0  0
    3.5320    1.6590   -1.0994 H   0  0  0  0  0  0  0  0  0  0  0  0
    1.7977    1.8338   -1.3168 H   0  0  0  0  0  0  0  0  0  0  0  0
    3.1804    3.5288    0.2929 H   0  0  0  0  0  0  0  0  0  0  0  0
    1.5241    3.0303    0.6778 H   0  0  0  0  0  0  0  0  0  0  0  0
    4.1098    1.8095    1.7534 H   0  0  0  0  0  0  0  0  0  0  0  0
    2.7481    2.4500    2.6929 H   0  0  0  0  0  0  0  0  0  0  0  0
    1.3012    0.6728    2.0092 H   0  0  0  0  0  0  0  0  0  0  0  0
    2.8310   -0.1771    2.2679 H   0  0  0  0  0  0  0  0  0  0  0  0
  1  2  1  0
  2  3  1  0
  3  4  2  0
  4  5  1  0
  5  6  2  0
  6  7  1  0
  7  8  1  0
  8  9  1  0
  7 10  2  0
 10 11  1  0
 11 12  1  0
 10 13  1  0
 13 14  1  0
 14 15  1  0
 13 16  2  0
  4 17  1  0
 17 18  1  0
 18 19  1  0
 19 20  1  0
 20 21  1  0
 17 22  1  0
 22 23  2  0
 22 24  1  0
 24  3  1  0
 16  5  1  0
 21 17  1  0
  1 25  1  0
  1 26  1  0
  1 27  1  0
  2 28  1  0
  2 29  1  0
  6 30  1  0
  9 31  1  0
  9 32  1  0
  9 33  1  0
 12 34  1  0
 12 35  1  0
 12 36  1  0
 15 37  1  0
 15 38  1  0
 15 39  1  0
 16 40  1  0
 18 41  1  0
 18 42  1  0
 19 43  1  0
 19 44  1  0
 20 45  1  0
 20 46  1  0
 21 47  1  0
 21 48  1  0
M  END
$$$$
