
     RDKit          3D

 49 51  0  0  0  0  0  0  0  0999 V2000
   -2.8773    0.5306    3.7324 C   0  0  0  0  0  0  0  0  0  0  0  0
   -2.6227    0.6606    2.2374 C   0  0  0  0  0  0  0  0  0  0  0  0
   -2.3189   -0.6840    1.5500 C   0  0  0  0  0  0  0  0  0  0  0  0
   -3.4848   -1.6773    1.6099 C   0  0  0  0  0  0  0  0  0  0  0  0
   -1.8566   -0.4652    0.1513 N   0  0  0  0  0  0  0  0  0  0  0  0
   -0.5321   -0.6864   -0.2706 C   0  0  0  0  0  0  0  0  0  0  0  0
   -0.2138   -0.5331   -1.4502 O   0  0  0  0  0  0  0  0  0  0  0  0
    0.4742   -1.1219    0.7719 C   0  0  0  0  0  0  0  0  0  0  0  0
    1.8153   -1.1759    0.2340 N   0  0  0  0  0  0  0  0  0  0  0  0
    2.3551   -2.3324   -0.1870 N   0  0  0  0  0  0  0  0  0  0  0  0
    3.6202   -2.0372   -0.4462 N   0  0  0  0  0  0  0  0  0  0  0  0
    3.8005   -0.7130   -0.1143 C   0  0  0  0  0  0  0  0  0  0  0  0
    5.0799   -0.0290   -0.2561 C   0  0  0  0  0  0  0  0  0  0  0  0
    6.2006   -0.7140   -0.7553 C   0  0  0  0  0  0  0  0  0  0  0  0
    7.4291   -0.0615   -0.8919 C   0  0  0  0  0  0  0  0  0  0  0  0
    7.5395    1.2756   -0.5308 C   0  0  0  0  0  0  0  0  0  0  0  0
    8.7171    1.8997   -0.6614 F   0  0  0  0  0  0  0  0  0  0  0  0
    6.4454    1.9744   -0.0360 C   0  0  0  0  0  0  0  0  0  0  0  0
    5.2164    1.3233    0.1011 C   0  0  0  0  0  0  0  0  0  0  0  0
    2.6803   -0.1496    0.3751 N   0  0  0  0  0  0  0  0  0  0  0  0
   -2.8429    0.0484   -0.8267 C   0  0  0  0  0  0  0  0  0  0  0  0
   -2.4852    1.4132   -1.4423 C   0  0  0  0  0  0  0  0  0  0  0  0
   -3.5836    1.7141   -2.4563 C   0  0  0  0  0  0  0  0  0  0  0  0
   -4.0861    0.1291   -3.1153 S   0  0  0  0  0  6  0  0  0  0  0  0
   -3.5677   -0.0159   -4.4581 O   0  0  0  0  0  0  0  0  0  0  0  0
   -5.4897   -0.0598   -2.8064 O   0  0  0  0  0  0  0  0  0  0  0  0
   -3.1344   -0.8876   -2.0010 C   0  0  0  0  0  0  0  0  0  0  0  0
   -3.7891   -0.0383    3.9355 H   0  0  0  0  0  0  0  0  0  0  0  0
   -2.0393    0.0353    4.2327 H   0  0  0  0  0  0  0  0  0  0  0  0
   -2.9993    1.5225    4.1795 H   0  0  0  0  0  0  0  0  0  0  0  0
   -3.4885    1.1464    1.7728 H   0  0  0  0  0  0  0  0  0  0  0  0
   -1.7717    1.3375    2.0896 H   0  0  0  0  0  0  0  0  0  0  0  0
   -1.5104   -1.1538    2.1145 H   0  0  0  0  0  0  0  0  0  0  0  0
   -3.6749   -1.9960    2.6397 H   0  0  0  0  0  0  0  0  0  0  0  0
   -4.4141   -1.2502    1.2209 H   0  0  0  0  0  0  0  0  0  0  0  0
   -3.2570   -2.5746    1.0241 H   0  0  0  0  0  0  0  0  0  0  0  0
    0.4904   -0.4101    1.6034 H   0  0  0  0  0  0  0  0  0  0  0  0
    0.2235   -2.1231    1.1363 H   0  0  0  0  0  0  0  0  0  0  0  0
    6.1257   -1.7613   -1.0434 H   0  0  0  0  0  0  0  0  0  0  0  0
    8.2962   -0.5881   -1.2780 H   0  0  0  0  0  0  0  0  0  0  0  0
    6.5530    3.0189    0.2383 H   0  0  0  0  0  0  0  0  0  0  0  0
    4.3636    1.8787    0.4872 H   0  0  0  0  0  0  0  0  0  0  0  0
   -3.7882    0.1984   -0.2908 H   0  0  0  0  0  0  0  0  0  0  0  0
   -1.5221    1.3875   -1.9611 H   0  0  0  0  0  0  0  0  0  0  0  0
   -2.4197    2.1990   -0.6826 H   0  0  0  0  0  0  0  0  0  0  0  0
   -4.4537    2.1637   -1.9691 H   0  0  0  0  0  0  0  0  0  0  0  0
   -3.2363    2.3587   -3.2665 H   0  0  0  0  0  0  0  0  0  0  0  0
   -2.2419   -1.2178   -2.5358 H   0  0  0  0  0  0  0  0  0  0  0  0
   -3.7239   -1.7583   -1.7042 H   0  0  0  0  0  0  0  0  0  0  0  0
  1  2  1  0
  2  3  1  0
  3  4  1  0
  3  5  1  0
  5  6  1  0
  6  7  2  0
  6  8  1  0
  8  9  1  0
  9 10  1  0
 10 11  2  0
 11 12  1  0
 12 13  1  0
 13 14  2  0
 14 15  1  0
 15 16  2  0
 16 17  1  0
 16 18  1  0
 18 19  2  0
 12 20  2  0
  5 21  1  0
 21 22  1  0
 22 23  1  0
 23 24  1  0
 24 25  2  0
 24 26  2  0
 24 27  1  0
 20  9  1  0
 27 21  1  0
 19 13  1  0
  1 28  1  0
  1 29  1  0
  1 30  1  0
  2 31  1  0
  2 32  1  0
  3 33  1  0
  4 34  1  0
  4 35  1  0
  4 36  1  0
  8 37  1  0
  8 38  1  0
 14 39  1  0
 15 40  1  0
 18 41  1  0
 19 42  1  0
 21 43  1  0
 22 44  1  0
 22 45  1  0
 23 46  1  0
 23 47  1  0
 27 48  1  0
 27 49  1  0
M  END
$$$$
