
     RDKit          3D

 41 42  0  0  0  0  0  0  0  0999 V2000
   -6.2836    0.3122   -2.8154 C   0  0  0  0  0  0  0  0  0  0  0  0
   -4.8510    1.1108   -3.5858 S   0  0  0  0  0  0  0  0  0  0  0  0
   -3.6595    0.9143   -2.2743 C   0  0  0  0  0  0  0  0  0  0  0  0
   -2.4948    0.1818   -2.5118 C   0  0  0  0  0  0  0  0  0  0  0  0
   -1.5409    0.0216   -1.5025 C   0  0  0  0  0  0  0  0  0  0  0  0
   -1.7282    0.6067   -0.2417 C   0  0  0  0  0  0  0  0  0  0  0  0
   -0.6938    0.4353    0.8510 C   0  0  0  0  0  0  0  0  0  0  0  0
    0.3726    1.4574    0.9469 N   0  0  0  0  0  0  0  0  0  0  0  0
   -0.1583    2.7828    1.2646 C   0  0  0  0  0  0  0  0  0  0  0  0
    1.2281    1.5317   -0.2630 C   0  0  0  0  0  0  0  0  0  0  0  0
    2.0670    0.2577   -0.4368 C   0  0  0  0  0  0  0  0  0  0  0  0
    2.2910   -0.2110   -1.5481 O   0  0  0  0  0  0  0  0  0  0  0  0
    2.5391   -0.2184    0.7751 N   0  0  0  0  0  0  0  0  0  0  0  0
    3.3620   -1.3318    1.0156 C   0  0  0  0  0  0  0  0  0  0  0  0
    3.6317   -1.6466    2.3545 C   0  0  0  0  0  0  0  0  0  0  0  0
    4.4411   -2.7369    2.6830 C   0  0  0  0  0  0  0  0  0  0  0  0
    4.9903   -3.5228    1.6732 C   0  0  0  0  0  0  0  0  0  0  0  0
    4.7261   -3.2107    0.3413 C   0  0  0  0  0  0  0  0  0  0  0  0
    5.4754   -4.2779   -1.0299 Br  0  0  0  0  0  0  0  0  0  0  0  0
    3.9175   -2.1214    0.0074 C   0  0  0  0  0  0  0  0  0  0  0  0
   -2.8983    1.3446   -0.0122 C   0  0  0  0  0  0  0  0  0  0  0  0
   -3.8528    1.5016   -1.0218 C   0  0  0  0  0  0  0  0  0  0  0  0
   -7.1000    0.2670   -3.5412 H   0  0  0  0  0  0  0  0  0  0  0  0
   -6.6269    0.8804   -1.9469 H   0  0  0  0  0  0  0  0  0  0  0  0
   -6.0354   -0.7076   -2.5085 H   0  0  0  0  0  0  0  0  0  0  0  0
   -2.3182   -0.2738   -3.4837 H   0  0  0  0  0  0  0  0  0  0  0  0
   -0.6457   -0.5615   -1.7147 H   0  0  0  0  0  0  0  0  0  0  0  0
   -0.2434   -0.5607    0.7510 H   0  0  0  0  0  0  0  0  0  0  0  0
   -1.2133    0.3843    1.8180 H   0  0  0  0  0  0  0  0  0  0  0  0
   -0.7307    3.2198    0.4395 H   0  0  0  0  0  0  0  0  0  0  0  0
    0.6619    3.4695    1.5032 H   0  0  0  0  0  0  0  0  0  0  0  0
   -0.7962    2.7448    2.1546 H   0  0  0  0  0  0  0  0  0  0  0  0
    0.6513    1.7227   -1.1733 H   0  0  0  0  0  0  0  0  0  0  0  0
    1.9531    2.3492   -0.1571 H   0  0  0  0  0  0  0  0  0  0  0  0
    2.1639    0.2770    1.5801 H   0  0  0  0  0  0  0  0  0  0  0  0
    3.2145   -1.0470    3.1600 H   0  0  0  0  0  0  0  0  0  0  0  0
    4.6425   -2.9714    3.7252 H   0  0  0  0  0  0  0  0  0  0  0  0
    5.6197   -4.3703    1.9310 H   0  0  0  0  0  0  0  0  0  0  0  0
    3.7374   -1.9065   -1.0407 H   0  0  0  0  0  0  0  0  0  0  0  0
   -3.0739    1.8080    0.9561 H   0  0  0  0  0  0  0  0  0  0  0  0
   -4.7408    2.0954   -0.8214 H   0  0  0  0  0  0  0  0  0  0  0  0
  1  2  1  0
  2  3  1  0
  3  4  2  0
  4  5  1  0
  5  6  2  0
  6  7  1  0
  7  8  1  0
  8  9  1  0
  8 10  1  0
 10 11  1  0
 11 12  2  0
 11 13  1  0
 13 14  1  0
 14 15  2  0
 15 16  1  0
 16 17  2  0
 17 18  1  0
 18 19  1  0
 18 20  2  0
  6 21  1  0
 21 22  2  0
 22  3  1  0
 20 14  1  0
  1 23  1  0
  1 24  1  0
  1 25  1  0
  4 26  1  0
  5 27  1  0
  7 28  1  0
  7 29  1  0
  9 30  1  0
  9 31  1  0
  9 32  1  0
 10 33  1  0
 10 34  1  0
 13 35  1  0
 15 36  1  0
 16 37  1  0
 17 38  1  0
 20 39  1  0
 21 40  1  0
 22 41  1  0
M  END
$$$$
