
     RDKit          3D

 44 46  0  0  0  0  0  0  0  0999 V2000
    3.6458    2.4608    0.3221 C   0  0  0  0  0  0  0  0  0  0  0  0
    2.5827    1.4140    0.3366 C   0  0  0  0  0  0  0  0  0  0  0  0
    1.2422    1.6006    0.6093 C   0  0  0  0  0  0  0  0  0  0  0  0
    0.5580    0.3760    0.4015 C   0  0  0  0  0  0  0  0  0  0  0  0
   -0.8846    0.1179    0.5437 C   0  0  0  0  0  0  0  0  0  0  0  0
   -1.3770   -0.9850    0.2940 O   0  0  0  0  0  0  0  0  0  0  0  0
   -1.7643    1.2669    1.0488 C   0  0  0  0  0  0  0  0  0  0  0  0
   -3.1556    0.9402    1.0105 O   0  0  0  0  0  0  0  0  0  0  0  0
   -3.6983    1.0126   -0.2365 C   0  0  0  0  0  0  0  0  0  0  0  0
   -3.1279    1.4319   -1.2311 O   0  0  0  0  0  0  0  0  0  0  0  0
   -5.0738    0.4918   -0.2108 C   0  0  0  0  0  0  0  0  0  0  0  0
   -5.3184   -0.7144    0.3372 C   0  0  0  0  0  0  0  0  0  0  0  0
   -6.6472   -1.2834    0.3286 C   0  0  0  0  0  0  0  0  0  0  0  0
   -7.6511   -0.6155   -0.2511 C   0  0  0  0  0  0  0  0  0  0  0  0
   -7.4238    0.6103   -0.8207 N   0  0  0  0  0  0  0  0  0  0  0  0
   -6.1958    1.2408   -0.8393 C   0  0  0  0  0  0  0  0  0  0  0  0
   -6.0675    2.3616   -1.3189 O   0  0  0  0  0  0  0  0  0  0  0  0
    1.5312   -0.5597    0.0536 C   0  0  0  0  0  0  0  0  0  0  0  0
    1.3590   -2.0367   -0.1295 C   0  0  0  0  0  0  0  0  0  0  0  0
    2.7642    0.0875   -0.0412 N   0  0  0  0  0  0  0  0  0  0  0  0
    3.9897   -0.4987   -0.4761 C   0  0  0  0  0  0  0  0  0  0  0  0
    5.1781   -0.2603    0.2282 C   0  0  0  0  0  0  0  0  0  0  0  0
    6.3736   -0.8343   -0.2099 C   0  0  0  0  0  0  0  0  0  0  0  0
    6.3768   -1.6363   -1.3454 C   0  0  0  0  0  0  0  0  0  0  0  0
    7.5258   -2.1837   -1.7624 F   0  0  0  0  0  0  0  0  0  0  0  0
    5.2059   -1.8795   -2.0537 C   0  0  0  0  0  0  0  0  0  0  0  0
    4.0065   -1.3114   -1.6200 C   0  0  0  0  0  0  0  0  0  0  0  0
    3.1969    3.4595    0.2769 H   0  0  0  0  0  0  0  0  0  0  0  0
    4.2471    2.4158    1.2347 H   0  0  0  0  0  0  0  0  0  0  0  0
    4.2988    2.3655   -0.5506 H   0  0  0  0  0  0  0  0  0  0  0  0
    0.8085    2.5515    0.8947 H   0  0  0  0  0  0  0  0  0  0  0  0
   -1.5077    1.4515    2.0974 H   0  0  0  0  0  0  0  0  0  0  0  0
   -1.5704    2.1863    0.4852 H   0  0  0  0  0  0  0  0  0  0  0  0
   -4.5215   -1.3088    0.7775 H   0  0  0  0  0  0  0  0  0  0  0  0
   -6.8023   -2.2556    0.7854 H   0  0  0  0  0  0  0  0  0  0  0  0
   -8.6656   -0.9986   -0.2939 H   0  0  0  0  0  0  0  0  0  0  0  0
   -8.1843    1.1241   -1.2499 H   0  0  0  0  0  0  0  0  0  0  0  0
    2.2799   -2.5924    0.0686 H   0  0  0  0  0  0  0  0  0  0  0  0
    1.0191   -2.2582   -1.1456 H   0  0  0  0  0  0  0  0  0  0  0  0
    0.6201   -2.4327    0.5742 H   0  0  0  0  0  0  0  0  0  0  0  0
    5.1870    0.3297    1.1401 H   0  0  0  0  0  0  0  0  0  0  0  0
    7.2998   -0.6680    0.3312 H   0  0  0  0  0  0  0  0  0  0  0  0
    5.2350   -2.5023   -2.9422 H   0  0  0  0  0  0  0  0  0  0  0  0
    3.1052   -1.4812   -2.2042 H   0  0  0  0  0  0  0  0  0  0  0  0
  1  2  1  0
  2  3  2  0
  3  4  1  0
  4  5  1  0
  5  6  2  0
  5  7  1  0
  7  8  1  0
  8  9  1  0
  9 10  2  0
  9 11  1  0
 11 12  2  0
 12 13  1  0
 13 14  2  0
 14 15  1  0
 15 16  1  0
 16 17  2  0
  4 18  2  0
 18 19  1  0
 18 20  1  0
 20 21  1  0
 21 22  2  0
 22 23  1  0
 23 24  2  0
 24 25  1  0
 24 26  1  0
 26 27  2  0
 20  2  1  0
 27 21  1  0
 16 11  1  0
  1 28  1  0
  1 29  1  0
  1 30  1  0
  3 31  1  0
  7 32  1  0
  7 33  1  0
 12 34  1  0
 13 35  1  0
 14 36  1  0
 15 37  1  0
 19 38  1  0
 19 39  1  0
 19 40  1  0
 22 41  1  0
 23 42  1  0
 26 43  1  0
 27 44  1  0
M  END
$$$$
