
     RDKit          3D

 48 51  0  0  0  0  0  0  0  0999 V2000
    8.8601    0.7174   -1.1627 C   0  0  0  0  0  0  0  0  0  0  0  0
    7.8101    1.0780   -0.1747 C   0  0  0  0  0  0  0  0  0  0  0  0
    7.5523    0.3968    0.9251 N   0  0  0  0  0  0  0  0  0  0  0  0
    6.5415    0.9734    1.6667 N   0  0  0  0  0  0  0  0  0  0  0  0
    6.0513    2.0489    1.0881 C   0  0  0  0  0  0  0  0  0  0  0  0
    4.7646    2.9993    1.7872 S   0  0  0  0  0  0  0  0  0  0  0  0
    4.0137    1.7855    2.9167 C   0  0  0  0  0  0  0  0  0  0  0  0
    3.1214    0.8191    2.1669 C   0  0  0  0  0  0  0  0  0  0  0  0
    3.5191   -0.4404    1.9286 C   0  0  0  0  0  0  0  0  0  0  0  0
    2.6066   -1.3282    1.2018 C   0  0  0  0  0  0  0  0  0  0  0  0
    2.9041   -2.4895    0.9492 O   0  0  0  0  0  0  0  0  0  0  0  0
    1.4228   -0.7603    0.8466 N   0  0  0  0  0  0  0  0  0  0  0  0
    1.0703    0.5235    1.1565 C   0  0  0  0  0  0  0  0  0  0  0  0
   -0.1494    0.9958    0.7917 N   0  0  0  0  0  0  0  0  0  0  0  0
   -1.2184    0.3200    0.2281 C   0  0  0  0  0  0  0  0  0  0  0  0
   -1.0896   -0.9651   -0.1394 N   0  0  0  0  0  0  0  0  0  0  0  0
   -2.1728   -1.5836   -0.6608 C   0  0  0  0  0  0  0  0  0  0  0  0
   -1.9705   -3.0217   -1.0439 C   0  0  0  0  0  0  0  0  0  0  0  0
   -3.4023   -0.9386   -0.8282 C   0  0  0  0  0  0  0  0  0  0  0  0
   -4.5778   -1.5318   -1.3517 C   0  0  0  0  0  0  0  0  0  0  0  0
   -5.7706   -0.8061   -1.4760 C   0  0  0  0  0  0  0  0  0  0  0  0
   -6.9981   -1.4865   -2.0171 C   0  0  0  0  0  0  0  0  0  0  0  0
   -5.7805    0.5430   -1.0919 C   0  0  0  0  0  0  0  0  0  0  0  0
   -7.0221    1.3906   -1.1687 C   0  0  0  0  0  0  0  0  0  0  0  0
   -4.6065    1.1100   -0.5620 C   0  0  0  0  0  0  0  0  0  0  0  0
   -3.4219    0.3972   -0.4245 C   0  0  0  0  0  0  0  0  0  0  0  0
   -2.3530    1.0173    0.0935 N   0  0  0  0  0  0  0  0  0  0  0  0
    1.8846    1.3083    1.8011 N   0  0  0  0  0  0  0  0  0  0  0  0
    6.8142    2.4603   -0.3921 S   0  0  0  0  0  0  0  0  0  0  0  0
    8.7077   -0.3099   -1.5140 H   0  0  0  0  0  0  0  0  0  0  0  0
    9.8481    0.7774   -0.6936 H   0  0  0  0  0  0  0  0  0  0  0  0
    8.8614    1.3769   -2.0370 H   0  0  0  0  0  0  0  0  0  0  0  0
    3.4091    2.3372    3.6473 H   0  0  0  0  0  0  0  0  0  0  0  0
    4.7860    1.2685    3.4973 H   0  0  0  0  0  0  0  0  0  0  0  0
    4.4814   -0.8397    2.2204 H   0  0  0  0  0  0  0  0  0  0  0  0
    0.7523   -1.3352    0.3516 H   0  0  0  0  0  0  0  0  0  0  0  0
   -0.3833    1.9353    1.0667 H   0  0  0  0  0  0  0  0  0  0  0  0
   -2.1606   -3.1643   -2.1132 H   0  0  0  0  0  0  0  0  0  0  0  0
   -2.6352   -3.6707   -0.4632 H   0  0  0  0  0  0  0  0  0  0  0  0
   -0.9399   -3.3327   -0.8432 H   0  0  0  0  0  0  0  0  0  0  0  0
   -4.5645   -2.5751   -1.6595 H   0  0  0  0  0  0  0  0  0  0  0  0
   -6.8202   -2.5514   -2.1991 H   0  0  0  0  0  0  0  0  0  0  0  0
   -7.8218   -1.4104   -1.3004 H   0  0  0  0  0  0  0  0  0  0  0  0
   -7.2959   -1.0355   -2.9685 H   0  0  0  0  0  0  0  0  0  0  0  0
   -7.6001    1.1718   -2.0747 H   0  0  0  0  0  0  0  0  0  0  0  0
   -7.6483    1.2184   -0.2864 H   0  0  0  0  0  0  0  0  0  0  0  0
   -6.7654    2.4559   -1.2134 H   0  0  0  0  0  0  0  0  0  0  0  0
   -4.6138    2.1509   -0.2402 H   0  0  0  0  0  0  0  0  0  0  0  0
  1  2  1  0
  2  3  2  0
  3  4  1  0
  4  5  2  0
  5  6  1  0
  6  7  1  0
  7  8  1  0
  8  9  2  0
  9 10  1  0
 10 11  2  0
 10 12  1  0
 12 13  1  0
 13 14  1  0
 14 15  1  0
 15 16  2  0
 16 17  1  0
 17 18  1  0
 17 19  2  0
 19 20  1  0
 20 21  2  0
 21 22  1  0
 21 23  1  0
 23 24  1  0
 23 25  2  0
 25 26  1  0
 26 27  2  0
 13 28  2  0
  5 29  1  0
 29  2  1  0
 28  8  1  0
 27 15  1  0
 26 19  1  0
  1 30  1  0
  1 31  1  0
  1 32  1  0
  7 33  1  0
  7 34  1  0
  9 35  1  0
 12 36  1  0
 14 37  1  0
 18 38  1  0
 18 39  1  0
 18 40  1  0
 20 41  1  0
 22 42  1  0
 22 43  1  0
 22 44  1  0
 24 45  1  0
 24 46  1  0
 24 47  1  0
 25 48  1  0
M  END
$$$$
