
     RDKit          3D

 33 35  0  0  0  0  0  0  0  0999 V2000
    5.0147   -0.8260    0.7834 O   0  0  0  0  0  0  0  0  0  0  0  0
    4.1736   -1.6445   -0.0261 C   0  0  0  0  0  0  0  0  0  0  0  0
    2.7100   -1.2631    0.2101 C   0  0  0  0  0  0  0  0  0  0  0  0
    2.5552    0.1465   -0.1266 N   0  0  0  0  0  0  0  0  0  0  0  0
    1.4139    0.7310   -0.2123 C   0  0  0  0  0  0  0  0  0  0  0  0
    1.4185    2.2001   -0.6484 C   0  0  0  0  0  0  0  0  0  0  0  0
    0.2517    2.5032   -1.5950 C   0  0  0  0  0  0  0  0  0  0  0  0
   -1.1029    2.1973   -0.9410 C   0  0  0  0  0  0  0  0  0  0  0  0
   -1.0821    0.8598   -0.2744 C   0  0  0  0  0  0  0  0  0  0  0  0
    0.0928    0.1978    0.0612 C   0  0  0  0  0  0  0  0  0  0  0  0
   -0.2761   -0.9643    0.6876 N   0  0  0  0  0  0  0  0  0  0  0  0
   -1.6478   -1.0810    0.7392 C   0  0  0  0  0  0  0  0  0  0  0  0
   -2.4440   -2.1000    1.2763 C   0  0  0  0  0  0  0  0  0  0  0  0
   -3.8315   -1.9459    1.1947 C   0  0  0  0  0  0  0  0  0  0  0  0
   -4.3884   -0.8155    0.6019 C   0  0  0  0  0  0  0  0  0  0  0  0
   -6.1023   -0.6578    0.5209 Cl  0  0  0  0  0  0  0  0  0  0  0  0
   -3.5824    0.1963    0.0716 C   0  0  0  0  0  0  0  0  0  0  0  0
   -2.1821    0.0585    0.1405 C   0  0  0  0  0  0  0  0  0  0  0  0
    4.6623    0.0785    0.6612 H   0  0  0  0  0  0  0  0  0  0  0  0
    4.4568   -1.4945   -1.0729 H   0  0  0  0  0  0  0  0  0  0  0  0
    4.3499   -2.6907    0.2396 H   0  0  0  0  0  0  0  0  0  0  0  0
    2.0752   -1.9007   -0.4133 H   0  0  0  0  0  0  0  0  0  0  0  0
    2.4793   -1.4135    1.2701 H   0  0  0  0  0  0  0  0  0  0  0  0
    1.3558    2.8233    0.2516 H   0  0  0  0  0  0  0  0  0  0  0  0
    2.3676    2.4279   -1.1466 H   0  0  0  0  0  0  0  0  0  0  0  0
    0.2823    3.5535   -1.9053 H   0  0  0  0  0  0  0  0  0  0  0  0
    0.3597    1.8940   -2.5021 H   0  0  0  0  0  0  0  0  0  0  0  0
   -1.3286    2.9629   -0.1888 H   0  0  0  0  0  0  0  0  0  0  0  0
   -1.8924    2.2368   -1.6997 H   0  0  0  0  0  0  0  0  0  0  0  0
    0.3530   -1.6443    1.0855 H   0  0  0  0  0  0  0  0  0  0  0  0
   -2.0087   -2.9791    1.7409 H   0  0  0  0  0  0  0  0  0  0  0  0
   -4.4765   -2.7208    1.6024 H   0  0  0  0  0  0  0  0  0  0  0  0
   -4.0267    1.0743   -0.3864 H   0  0  0  0  0  0  0  0  0  0  0  0
  1  2  1  0
  2  3  1  0
  3  4  1  0
  4  5  2  3
  5  6  1  0
  6  7  1  0
  7  8  1  0
  8  9  1  0
  9 10  2  0
 10 11  1  0
 11 12  1  0
 12 13  2  0
 13 14  1  0
 14 15  2  0
 15 16  1  0
 15 17  1  0
 17 18  2  0
 10  5  1  0
 18 12  1  0
 18  9  1  0
  1 19  1  0
  2 20  1  0
  2 21  1  0
  3 22  1  0
  3 23  1  0
  6 24  1  0
  6 25  1  0
  7 26  1  0
  7 27  1  0
  8 28  1  0
  8 29  1  0
 11 30  1  0
 13 31  1  0
 14 32  1  0
 17 33  1  0
M  END
$$$$
