
     RDKit          3D

 40 41  0  0  0  0  0  0  0  0999 V2000
   -5.5311    0.4074    0.6763 C   0  0  0  0  0  0  0  0  0  0  0  0
   -4.1660    0.2726    0.0068 C   0  0  0  0  0  0  0  0  0  0  0  0
   -3.0251    0.4661    1.0260 C   0  0  0  0  0  0  0  0  0  0  0  0
   -1.8096    1.1881    0.4436 C   0  0  0  0  0  0  0  0  0  0  0  0
   -1.5796    0.7957   -0.9431 N   0  0  0  0  0  0  0  0  0  0  0  0
   -0.3265    0.5500   -1.5033 C   0  0  0  0  0  0  0  0  0  0  0  0
   -0.1061    0.6082   -2.7113 O   0  0  0  0  0  0  0  0  0  0  0  0
    0.8009    0.1773   -0.6196 C   0  0  0  0  0  0  0  0  0  0  0  0
    2.0158    0.8577   -0.7519 C   0  0  0  0  0  0  0  0  0  0  0  0
    3.1037    0.4968    0.0455 C   0  0  0  0  0  0  0  0  0  0  0  0
    2.9740   -0.5427    0.9671 C   0  0  0  0  0  0  0  0  0  0  0  0
    4.1018   -0.9215    1.7510 N   0  0  0  0  0  0  0  0  0  0  0  0
    5.0770   -2.1696    1.1479 S   0  0  0  0  0  6  0  0  0  0  0  0
    6.3193   -1.2545    0.2615 C   0  0  0  0  0  0  0  0  0  0  0  0
    4.3263   -2.9842    0.2202 O   0  0  0  0  0  0  0  0  0  0  0  0
    5.7088   -2.7515    2.3137 O   0  0  0  0  0  0  0  0  0  0  0  0
    1.7734   -1.2473    1.0767 C   0  0  0  0  0  0  0  0  0  0  0  0
    0.6851   -0.8923    0.2765 C   0  0  0  0  0  0  0  0  0  0  0  0
   -2.6773    1.0526   -1.8715 C   0  0  0  0  0  0  0  0  0  0  0  0
   -4.0252    1.2404   -1.1727 C   0  0  0  0  0  0  0  0  0  0  0  0
   -5.6312   -0.3072    1.5000 H   0  0  0  0  0  0  0  0  0  0  0  0
   -5.6783    1.4150    1.0799 H   0  0  0  0  0  0  0  0  0  0  0  0
   -6.3357    0.2095   -0.0396 H   0  0  0  0  0  0  0  0  0  0  0  0
   -4.0937   -0.7498   -0.3892 H   0  0  0  0  0  0  0  0  0  0  0  0
   -3.3674    1.0178    1.9099 H   0  0  0  0  0  0  0  0  0  0  0  0
   -2.7185   -0.5245    1.3860 H   0  0  0  0  0  0  0  0  0  0  0  0
   -1.9802    2.2724    0.4417 H   0  0  0  0  0  0  0  0  0  0  0  0
   -0.9357    1.0275    1.0779 H   0  0  0  0  0  0  0  0  0  0  0  0
    2.1138    1.6598   -1.4802 H   0  0  0  0  0  0  0  0  0  0  0  0
    4.0419    1.0344   -0.0546 H   0  0  0  0  0  0  0  0  0  0  0  0
    3.8977   -1.1206    2.7327 H   0  0  0  0  0  0  0  0  0  0  0  0
    5.8568   -0.7511   -0.5885 H   0  0  0  0  0  0  0  0  0  0  0  0
    7.0678   -1.9657   -0.0951 H   0  0  0  0  0  0  0  0  0  0  0  0
    6.7849   -0.5376    0.9403 H   0  0  0  0  0  0  0  0  0  0  0  0
    1.6852   -2.0904    1.7567 H   0  0  0  0  0  0  0  0  0  0  0  0
   -0.2399   -1.4602    0.3373 H   0  0  0  0  0  0  0  0  0  0  0  0
   -2.4355    1.9440   -2.4624 H   0  0  0  0  0  0  0  0  0  0  0  0
   -2.7281    0.2056   -2.5666 H   0  0  0  0  0  0  0  0  0  0  0  0
   -4.8350    1.0981   -1.8977 H   0  0  0  0  0  0  0  0  0  0  0  0
   -4.1082    2.2735   -0.8103 H   0  0  0  0  0  0  0  0  0  0  0  0
  1  2  1  0
  2  3  1  0
  3  4  1  0
  4  5  1  0
  5  6  1  0
  6  7  2  0
  6  8  1  0
  8  9  2  0
  9 10  1  0
 10 11  2  0
 11 12  1  0
 12 13  1  0
 13 14  1  0
 13 15  2  0
 13 16  2  0
 11 17  1  0
 17 18  2  0
  5 19  1  0
 19 20  1  0
 20  2  1  0
 18  8  1  0
  1 21  1  0
  1 22  1  0
  1 23  1  0
  2 24  1  0
  3 25  1  0
  3 26  1  0
  4 27  1  0
  4 28  1  0
  9 29  1  0
 10 30  1  0
 12 31  1  0
 14 32  1  0
 14 33  1  0
 14 34  1  0
 17 35  1  0
 18 36  1  0
 19 37  1  0
 19 38  1  0
 20 39  1  0
 20 40  1  0
M  END
$$$$
