
     RDKit          3D

 71 74  0  0  0  0  0  0  0  0999 V2000
   -6.9983   -1.1124    3.3533 C   0  0  0  0  0  0  0  0  0  0  0  0
   -6.1927   -1.4390    2.1006 C   0  0  0  0  0  0  0  0  0  0  0  0
   -5.3894   -0.2352    1.5466 C   0  0  0  0  0  0  0  0  0  0  0  0
   -6.2766    0.9821    1.2055 C   0  0  0  0  0  0  0  0  0  0  0  0
   -7.1353    0.7461   -0.0307 C   0  0  0  0  0  0  0  0  0  0  0  0
   -6.2567    0.3324   -1.2031 C   0  0  0  0  0  0  0  0  0  0  0  0
   -5.3377   -0.8335   -0.8392 C   0  0  0  0  0  0  0  0  0  0  0  0
   -4.5420   -0.5454    0.3673 N   0  0  0  0  0  0  0  0  0  0  0  0
   -3.5428   -1.6078    0.5787 C   0  0  0  0  0  0  0  0  0  0  0  0
   -2.5283   -1.3449    1.7014 C   0  0  0  0  0  0  0  0  0  0  0  0
   -1.7663   -0.0259    1.5651 C   0  0  0  0  0  0  0  0  0  0  0  0
   -1.0243    0.0832    0.3246 N   0  0  0  0  0  0  0  0  0  0  0  0
    0.1669   -0.5903    0.1325 C   0  0  0  0  0  0  0  0  0  0  0  0
    0.7207   -1.2327    1.0217 O   0  0  0  0  0  0  0  0  0  0  0  0
    0.7624   -0.4003   -1.2680 C   0  0  0  0  0  0  0  0  0  0  0  0
    1.6982   -1.4670   -1.6022 N   0  0  0  0  0  0  0  0  0  0  0  0
    1.1770   -2.6202   -2.1735 C   0  0  0  0  0  0  0  0  0  0  0  0
   -0.0065   -2.7448   -2.4924 O   0  0  0  0  0  0  0  0  0  0  0  0
    2.1633   -3.7743   -2.3034 C   0  0  0  0  0  0  0  0  0  0  0  0
    3.5266   -3.4570   -2.5096 O   0  0  0  0  0  0  0  0  0  0  0  0
    3.9434   -2.4066   -1.7353 C   0  0  0  0  0  0  0  0  0  0  0  0
    5.3169   -2.3622   -1.4771 C   0  0  0  0  0  0  0  0  0  0  0  0
    5.8518   -1.3242   -0.7209 C   0  0  0  0  0  0  0  0  0  0  0  0
    5.0017   -0.3239   -0.2489 C   0  0  0  0  0  0  0  0  0  0  0  0
    5.6523    1.0128    0.7215 S   0  0  0  0  0  6  0  0  0  0  0  0
    4.7510    1.2201    1.8345 O   0  0  0  0  0  0  0  0  0  0  0  0
    7.0702    0.7950    0.9249 O   0  0  0  0  0  0  0  0  0  0  0  0
    5.4924    2.3421   -0.3362 N   0  0  0  0  0  0  0  0  0  0  0  0
    6.3681    2.3222   -1.5544 C   0  0  0  0  0  0  0  0  0  0  0  0
    7.5182    3.3247   -1.4235 C   0  0  0  0  0  0  0  0  0  0  0  0
    7.0628    4.6804   -1.3019 O   0  0  0  0  0  0  0  0  0  0  0  0
    5.8102    4.7983   -0.6145 C   0  0  0  0  0  0  0  0  0  0  0  0
    5.5466    3.6610    0.3768 C   0  0  0  0  0  0  0  0  0  0  0  0
    3.6241   -0.3584   -0.5099 C   0  0  0  0  0  0  0  0  0  0  0  0
    3.0792   -1.4022   -1.2669 C   0  0  0  0  0  0  0  0  0  0  0  0
   -6.3719   -0.6284    4.1085 H   0  0  0  0  0  0  0  0  0  0  0  0
   -7.4028   -2.0310    3.7886 H   0  0  0  0  0  0  0  0  0  0  0  0
   -7.8462   -0.4587    3.1281 H   0  0  0  0  0  0  0  0  0  0  0  0
   -5.5029   -2.2487    2.3686 H   0  0  0  0  0  0  0  0  0  0  0  0
   -6.8746   -1.8447    1.3445 H   0  0  0  0  0  0  0  0  0  0  0  0
   -4.7305    0.1093    2.3533 H   0  0  0  0  0  0  0  0  0  0  0  0
   -5.6292    1.8518    1.0246 H   0  0  0  0  0  0  0  0  0  0  0  0
   -6.9136    1.2602    2.0515 H   0  0  0  0  0  0  0  0  0  0  0  0
   -7.8815   -0.0314    0.1692 H   0  0  0  0  0  0  0  0  0  0  0  0
   -7.6862    1.6590   -0.2842 H   0  0  0  0  0  0  0  0  0  0  0  0
   -5.6487    1.1908   -1.5178 H   0  0  0  0  0  0  0  0  0  0  0  0
   -6.8844    0.0569   -2.0585 H   0  0  0  0  0  0  0  0  0  0  0  0
   -5.9270   -1.7505   -0.7185 H   0  0  0  0  0  0  0  0  0  0  0  0
   -4.6680   -1.0006   -1.6923 H   0  0  0  0  0  0  0  0  0  0  0  0
   -4.0297   -2.5745    0.7574 H   0  0  0  0  0  0  0  0  0  0  0  0
   -2.9700   -1.7366   -0.3494 H   0  0  0  0  0  0  0  0  0  0  0  0
   -1.8131   -2.1778    1.7111 H   0  0  0  0  0  0  0  0  0  0  0  0
   -3.0288   -1.3674    2.6761 H   0  0  0  0  0  0  0  0  0  0  0  0
   -1.0598    0.0683    2.3980 H   0  0  0  0  0  0  0  0  0  0  0  0
   -2.4448    0.8320    1.6104 H   0  0  0  0  0  0  0  0  0  0  0  0
   -1.5463    0.4019   -0.4838 H   0  0  0  0  0  0  0  0  0  0  0  0
    1.2425    0.5806   -1.3365 H   0  0  0  0  0  0  0  0  0  0  0  0
   -0.0564   -0.3994   -1.9969 H   0  0  0  0  0  0  0  0  0  0  0  0
    1.8459   -4.3801   -3.1600 H   0  0  0  0  0  0  0  0  0  0  0  0
    2.0740   -4.4006   -1.4066 H   0  0  0  0  0  0  0  0  0  0  0  0
    5.9648   -3.1472   -1.8600 H   0  0  0  0  0  0  0  0  0  0  0  0
    6.9177   -1.3050   -0.5072 H   0  0  0  0  0  0  0  0  0  0  0  0
    5.7331    2.5846   -2.4095 H   0  0  0  0  0  0  0  0  0  0  0  0
    6.7702    1.3230   -1.7451 H   0  0  0  0  0  0  0  0  0  0  0  0
    8.1402    3.0938   -0.5499 H   0  0  0  0  0  0  0  0  0  0  0  0
    8.1637    3.2762   -2.3073 H   0  0  0  0  0  0  0  0  0  0  0  0
    5.0157    4.8393   -1.3690 H   0  0  0  0  0  0  0  0  0  0  0  0
    5.8125    5.7599   -0.0927 H   0  0  0  0  0  0  0  0  0  0  0  0
    6.3411    3.6448    1.1339 H   0  0  0  0  0  0  0  0  0  0  0  0
    4.5835    3.8301    0.8722 H   0  0  0  0  0  0  0  0  0  0  0  0
    3.0044    0.4280   -0.0888 H   0  0  0  0  0  0  0  0  0  0  0  0
  1  2  1  0
  2  3  1  0
  3  4  1  0
  4  5  1  0
  5  6  1  0
  6  7  1  0
  7  8  1  0
  8  9  1  0
  9 10  1  0
 10 11  1  0
 11 12  1  0
 12 13  1  0
 13 14  2  0
 13 15  1  0
 15 16  1  0
 16 17  1  0
 17 18  2  0
 17 19  1  0
 19 20  1  0
 20 21  1  0
 21 22  2  0
 22 23  1  0
 23 24  2  0
 24 25  1  0
 25 26  2  0
 25 27  2  0
 25 28  1  0
 28 29  1  0
 29 30  1  0
 30 31  1  0
 31 32  1  0
 32 33  1  0
 24 34  1  0
 34 35  2  0
  8  3  1  0
 35 16  1  0
 35 21  1  0
 33 28  1  0
  1 36  1  0
  1 37  1  0
  1 38  1  0
  2 39  1  0
  2 40  1  0
  3 41  1  0
  4 42  1  0
  4 43  1  0
  5 44  1  0
  5 45  1  0
  6 46  1  0
  6 47  1  0
  7 48  1  0
  7 49  1  0
  9 50  1  0
  9 51  1  0
 10 52  1  0
 10 53  1  0
 11 54  1  0
 11 55  1  0
 12 56  1  0
 15 57  1  0
 15 58  1  0
 19 59  1  0
 19 60  1  0
 22 61  1  0
 23 62  1  0
 29 63  1  0
 29 64  1  0
 30 65  1  0
 30 66  1  0
 32 67  1  0
 32 68  1  0
 33 69  1  0
 33 70  1  0
 34 71  1  0
M  END
$$$$
