
     RDKit          3D

 46 48  0  0  0  0  0  0  0  0999 V2000
    7.9445   -1.9545    0.9534 C   0  0  0  0  0  0  0  0  0  0  0  0
    7.3480   -0.7313    0.5394 O   0  0  0  0  0  0  0  0  0  0  0  0
    5.9854   -0.7122    0.4350 C   0  0  0  0  0  0  0  0  0  0  0  0
    5.1260   -1.7767    0.6993 C   0  0  0  0  0  0  0  0  0  0  0  0
    3.7431   -1.6159    0.5502 C   0  0  0  0  0  0  0  0  0  0  0  0
    3.2035   -0.3907    0.1344 C   0  0  0  0  0  0  0  0  0  0  0  0
    1.7194   -0.2782   -0.0062 C   0  0  0  0  0  0  0  0  0  0  0  0
    1.0146   -1.2331    0.3235 O   0  0  0  0  0  0  0  0  0  0  0  0
    1.1425    1.0281   -0.5445 C   0  0  0  0  0  0  0  0  0  0  0  0
   -0.2845    0.8849   -0.7144 N   0  0  0  0  0  0  0  0  0  0  0  0
   -0.8767    0.3876   -1.8300 C   0  0  0  0  0  0  0  0  0  0  0  0
   -0.3331    0.0471   -2.8671 O   0  0  0  0  0  0  0  0  0  0  0  0
   -2.2335    0.3319   -1.6154 N   0  0  0  0  0  0  0  0  0  0  0  0
   -2.5993    0.6723   -0.2531 C   0  0  0  0  0  0  0  0  0  0  0  0
   -3.5618    1.8732   -0.2283 C   0  0  0  0  0  0  0  0  0  0  0  0
   -4.5364    1.8771    0.9496 C   0  0  0  0  0  0  0  0  0  0  0  0
   -5.6697    0.8449    0.8714 C   0  0  0  0  0  0  0  0  0  0  0  0
   -5.5059   -0.2799   -0.1483 C   0  0  0  0  0  0  0  0  0  0  0  0
   -4.3337   -1.2226    0.1037 C   0  0  0  0  0  0  0  0  0  0  0  0
   -3.0206   -0.5752    0.5375 C   0  0  0  0  0  0  0  0  0  0  0  0
   -1.2088    1.1081    0.2654 C   0  0  0  0  0  0  0  0  0  0  0  0
   -0.9792    1.5644    1.3785 O   0  0  0  0  0  0  0  0  0  0  0  0
    4.0678    0.6767   -0.1282 C   0  0  0  0  0  0  0  0  0  0  0  0
    5.4491    0.5102    0.0226 C   0  0  0  0  0  0  0  0  0  0  0  0
    9.0279   -1.8043    0.9844 H   0  0  0  0  0  0  0  0  0  0  0  0
    7.6176   -2.2316    1.9611 H   0  0  0  0  0  0  0  0  0  0  0  0
    7.7396   -2.7561    0.2360 H   0  0  0  0  0  0  0  0  0  0  0  0
    5.4932   -2.7452    1.0229 H   0  0  0  0  0  0  0  0  0  0  0  0
    3.0876   -2.4598    0.7618 H   0  0  0  0  0  0  0  0  0  0  0  0
    1.3385    1.8301    0.1735 H   0  0  0  0  0  0  0  0  0  0  0  0
    1.5907    1.2510   -1.5175 H   0  0  0  0  0  0  0  0  0  0  0  0
   -2.8390   -0.1058   -2.2973 H   0  0  0  0  0  0  0  0  0  0  0  0
   -4.1318    1.9353   -1.1641 H   0  0  0  0  0  0  0  0  0  0  0  0
   -2.9840    2.8068   -0.1917 H   0  0  0  0  0  0  0  0  0  0  0  0
   -3.9840    1.7494    1.8886 H   0  0  0  0  0  0  0  0  0  0  0  0
   -4.9925    2.8732    1.0209 H   0  0  0  0  0  0  0  0  0  0  0  0
   -5.8341    0.4185    1.8687 H   0  0  0  0  0  0  0  0  0  0  0  0
   -6.5957    1.3802    0.6234 H   0  0  0  0  0  0  0  0  0  0  0  0
   -5.4304    0.1389   -1.1585 H   0  0  0  0  0  0  0  0  0  0  0  0
   -6.4263   -0.8779   -0.1571 H   0  0  0  0  0  0  0  0  0  0  0  0
   -4.6230   -1.9469    0.8759 H   0  0  0  0  0  0  0  0  0  0  0  0
   -4.1637   -1.8108   -0.8069 H   0  0  0  0  0  0  0  0  0  0  0  0
   -2.2339   -1.3407    0.4742 H   0  0  0  0  0  0  0  0  0  0  0  0
   -3.0822   -0.3339    1.6067 H   0  0  0  0  0  0  0  0  0  0  0  0
    3.7072    1.6495   -0.4472 H   0  0  0  0  0  0  0  0  0  0  0  0
    6.1176    1.3439   -0.1830 H   0  0  0  0  0  0  0  0  0  0  0  0
  1  2  1  0
  2  3  1  0
  3  4  2  0
  4  5  1  0
  5  6  2  0
  6  7  1  0
  7  8  2  0
  7  9  1  0
  9 10  1  0
 10 11  1  0
 11 12  2  0
 11 13  1  0
 13 14  1  0
 14 15  1  0
 15 16  1  0
 16 17  1  0
 17 18  1  0
 18 19  1  0
 19 20  1  0
 14 21  1  0
 21 22  2  0
  6 23  1  0
 23 24  2  0
 24  3  1  0
 21 10  1  0
 20 14  1  0
  1 25  1  0
  1 26  1  0
  1 27  1  0
  4 28  1  0
  5 29  1  0
  9 30  1  0
  9 31  1  0
 13 32  1  0
 15 33  1  0
 15 34  1  0
 16 35  1  0
 16 36  1  0
 17 37  1  0
 17 38  1  0
 18 39  1  0
 18 40  1  0
 19 41  1  0
 19 42  1  0
 20 43  1  0
 20 44  1  0
 23 45  1  0
 24 46  1  0
M  END
$$$$
