
     RDKit          3D

 51 53  0  0  0  0  0  0  0  0999 V2000
    9.4777   -0.8209   -1.1372 C   0  0  0  0  0  0  0  0  0  0  0  0
    9.0536    0.2056   -0.2495 O   0  0  0  0  0  0  0  0  0  0  0  0
    7.6880    0.5785   -0.4353 C   0  0  0  0  0  0  0  0  0  0  0  0
    6.7196   -0.4274    0.1888 C   0  0  0  0  0  0  0  0  0  0  0  0
    5.3484    0.0428    0.1654 N   0  0  0  0  0  0  0  0  0  0  0  0
    4.2795   -0.8309    0.2484 C   0  0  0  0  0  0  0  0  0  0  0  0
    4.4516   -2.0461    0.1829 O   0  0  0  0  0  0  0  0  0  0  0  0
    2.9627   -0.2128    0.4277 C   0  0  0  0  0  0  0  0  0  0  0  0
    2.8227    1.4785    0.6902 S   0  0  0  0  0  0  0  0  0  0  0  0
    1.1350    1.4021    0.8423 C   0  0  0  0  0  0  0  0  0  0  0  0
    0.4063    2.5217    1.0775 N   0  0  0  0  0  0  0  0  0  0  0  0
   -0.8666    2.3144    1.1819 C   0  0  0  0  0  0  0  0  0  0  0  0
   -1.4888    1.0845    1.1085 N   0  0  0  0  0  0  0  0  0  0  0  0
   -2.9354    0.9911    1.2332 C   0  0  0  0  0  0  0  0  0  0  0  0
   -3.5936    1.1307   -0.1455 C   0  0  0  0  0  0  0  0  0  0  0  0
   -2.9973    1.6736   -1.0787 O   0  0  0  0  0  0  0  0  0  0  0  0
   -4.9034    0.6773   -0.2732 N   0  0  0  0  0  0  0  0  0  0  0  0
   -5.5342    0.7218   -1.5939 C   0  0  0  0  0  0  0  0  0  0  0  0
   -6.4685   -0.4635   -1.8065 C   0  0  0  0  0  0  0  0  0  0  0  0
   -7.5682   -0.5304   -0.7461 C   0  0  0  0  0  0  0  0  0  0  0  0
   -7.1843    0.1657    0.5589 C   0  0  0  0  0  0  0  0  0  0  0  0
   -5.6846    0.1016    0.8233 C   0  0  0  0  0  0  0  0  0  0  0  0
   -0.7764   -0.0818    0.8385 C   0  0  0  0  0  0  0  0  0  0  0  0
   -1.3136   -1.1834    0.7517 O   0  0  0  0  0  0  0  0  0  0  0  0
    0.6610    0.1170    0.6988 C   0  0  0  0  0  0  0  0  0  0  0  0
    1.7137   -0.8349    0.4263 C   0  0  0  0  0  0  0  0  0  0  0  0
    1.5029   -2.3005    0.1901 C   0  0  0  0  0  0  0  0  0  0  0  0
    9.3308   -0.5154   -2.1777 H   0  0  0  0  0  0  0  0  0  0  0  0
    8.9463   -1.7551   -0.9379 H   0  0  0  0  0  0  0  0  0  0  0  0
   10.5451   -0.9929   -0.9740 H   0  0  0  0  0  0  0  0  0  0  0  0
    7.4722    0.7331   -1.4994 H   0  0  0  0  0  0  0  0  0  0  0  0
    7.5599    1.5505    0.0545 H   0  0  0  0  0  0  0  0  0  0  0  0
    6.7825   -1.3908   -0.3278 H   0  0  0  0  0  0  0  0  0  0  0  0
    6.9890   -0.6148    1.2346 H   0  0  0  0  0  0  0  0  0  0  0  0
    5.1595    1.0060    0.4159 H   0  0  0  0  0  0  0  0  0  0  0  0
   -1.5480    3.1631    1.3550 H   0  0  0  0  0  0  0  0  0  0  0  0
   -3.1954    0.0299    1.6855 H   0  0  0  0  0  0  0  0  0  0  0  0
   -3.3020    1.8042    1.8687 H   0  0  0  0  0  0  0  0  0  0  0  0
   -6.0885    1.6654   -1.6586 H   0  0  0  0  0  0  0  0  0  0  0  0
   -4.7719    0.7342   -2.3800 H   0  0  0  0  0  0  0  0  0  0  0  0
   -6.9173   -0.4224   -2.8051 H   0  0  0  0  0  0  0  0  0  0  0  0
   -5.8803   -1.3891   -1.7643 H   0  0  0  0  0  0  0  0  0  0  0  0
   -7.8080   -1.5826   -0.5512 H   0  0  0  0  0  0  0  0  0  0  0  0
   -8.4875   -0.0744   -1.1326 H   0  0  0  0  0  0  0  0  0  0  0  0
   -7.4910    1.2183    0.5024 H   0  0  0  0  0  0  0  0  0  0  0  0
   -7.7386   -0.2770    1.3940 H   0  0  0  0  0  0  0  0  0  0  0  0
   -5.4548    0.6324    1.7524 H   0  0  0  0  0  0  0  0  0  0  0  0
   -5.3616   -0.9394    0.9429 H   0  0  0  0  0  0  0  0  0  0  0  0
    1.7344   -2.8657    1.0982 H   0  0  0  0  0  0  0  0  0  0  0  0
    0.4773   -2.5299   -0.1060 H   0  0  0  0  0  0  0  0  0  0  0  0
    2.1402   -2.6618   -0.6234 H   0  0  0  0  0  0  0  0  0  0  0  0
  1  2  1  0
  2  3  1  0
  3  4  1  0
  4  5  1  0
  5  6  1  0
  6  7  2  0
  6  8  1  0
  8  9  1  0
  9 10  1  0
 10 11  1  0
 11 12  2  0
 12 13  1  0
 13 14  1  0
 14 15  1  0
 15 16  2  0
 15 17  1  0
 17 18  1  0
 18 19  1  0
 19 20  1  0
 20 21  1  0
 21 22  1  0
 13 23  1  0
 23 24  2  0
 23 25  1  0
 25 26  1  0
 26 27  1  0
 26  8  2  0
 25 10  2  0
 22 17  1  0
  1 28  1  0
  1 29  1  0
  1 30  1  0
  3 31  1  0
  3 32  1  0
  4 33  1  0
  4 34  1  0
  5 35  1  0
 12 36  1  0
 14 37  1  0
 14 38  1  0
 18 39  1  0
 18 40  1  0
 19 41  1  0
 19 42  1  0
 20 43  1  0
 20 44  1  0
 21 45  1  0
 21 46  1  0
 22 47  1  0
 22 48  1  0
 27 49  1  0
 27 50  1  0
 27 51  1  0
M  END
$$$$
