
     RDKit          3D

 29 31  0  0  0  0  0  0  0  0999 V2000
   -3.3685    2.2842   -1.6734 O   0  0  0  0  0  0  0  0  0  0  0  0
   -3.5112    1.1350   -2.0577 C   0  0  0  0  0  0  0  0  0  0  0  0
   -4.4763    0.7250   -2.9330 N   0  0  0  0  0  0  0  0  0  0  0  0
   -4.5127   -0.5907   -3.2746 C   0  0  0  0  0  0  0  0  0  0  0  0
   -5.6173   -1.2391   -4.3221 S   0  0  0  0  0  0  0  0  0  0  0  0
   -3.2343   -1.4482   -2.4472 S   0  0  0  0  0  0  0  0  0  0  0  0
   -2.6676   -0.0260   -1.6538 C   0  0  0  0  0  0  0  0  0  0  0  0
   -1.6729    0.1437   -0.7747 C   0  0  0  0  0  0  0  0  0  0  0  0
   -0.7865   -0.8499   -0.2727 C   0  0  0  0  0  0  0  0  0  0  0  0
   -0.3698   -2.0824   -0.7607 C   0  0  0  0  0  0  0  0  0  0  0  0
    0.5454   -2.6371    0.1670 C   0  0  0  0  0  0  0  0  0  0  0  0
    0.6775   -1.7204    1.1826 C   0  0  0  0  0  0  0  0  0  0  0  0
    1.6663   -1.8486    2.6103 S   0  0  0  0  0  0  0  0  0  0  0  0
    1.7209   -0.1253    3.1796 C   0  0  0  0  0  0  0  0  0  0  0  0
    2.6813    0.6902    2.3935 C   0  0  0  0  0  0  0  0  0  0  0  0
    2.5768    1.4259    1.2300 C   0  0  0  0  0  0  0  0  0  0  0  0
    3.8536    1.9893    0.9951 C   0  0  0  0  0  0  0  0  0  0  0  0
    4.6540    1.5688    2.0305 C   0  0  0  0  0  0  0  0  0  0  0  0
    3.9513    0.7845    2.8870 O   0  0  0  0  0  0  0  0  0  0  0  0
   -0.1169   -0.6478    0.9169 O   0  0  0  0  0  0  0  0  0  0  0  0
   -5.1366    1.3897   -3.3073 H   0  0  0  0  0  0  0  0  0  0  0  0
   -1.5220    1.1378   -0.3554 H   0  0  0  0  0  0  0  0  0  0  0  0
   -0.6743   -2.5427   -1.6896 H   0  0  0  0  0  0  0  0  0  0  0  0
    1.0560   -3.5875    0.0971 H   0  0  0  0  0  0  0  0  0  0  0  0
    2.0301   -0.1375    4.2307 H   0  0  0  0  0  0  0  0  0  0  0  0
    0.7211    0.3204    3.1562 H   0  0  0  0  0  0  0  0  0  0  0  0
    1.6872    1.5345    0.6251 H   0  0  0  0  0  0  0  0  0  0  0  0
    4.1549    2.6231    0.1732 H   0  0  0  0  0  0  0  0  0  0  0  0
    5.6907    1.7310    2.2903 H   0  0  0  0  0  0  0  0  0  0  0  0
  1  2  2  0
  2  3  1  0
  3  4  1  0
  4  5  2  0
  4  6  1  0
  6  7  1  0
  7  8  2  3
  8  9  1  0
  9 10  2  0
 10 11  1  0
 11 12  2  0
 12 13  1  0
 13 14  1  0
 14 15  1  0
 15 16  2  0
 16 17  1  0
 17 18  2  0
 18 19  1  0
 12 20  1  0
  7  2  1  0
 20  9  1  0
 19 15  1  0
  3 21  1  0
  8 22  1  0
 10 23  1  0
 11 24  1  0
 14 25  1  0
 14 26  1  0
 16 27  1  0
 17 28  1  0
 18 29  1  0
M  END
$$$$
