
     RDKit          3D

 39 41  0  0  0  0  0  0  0  0999 V2000
   -6.8006    1.8070    1.6741 C   0  0  0  0  0  0  0  0  0  0  0  0
   -5.3984    1.2676    1.4546 C   0  0  0  0  0  0  0  0  0  0  0  0
   -5.0809    1.4180    0.0719 O   0  0  0  0  0  0  0  0  0  0  0  0
   -3.8627    0.9528   -0.3464 C   0  0  0  0  0  0  0  0  0  0  0  0
   -3.6490    1.0596   -1.7206 C   0  0  0  0  0  0  0  0  0  0  0  0
   -2.4520    0.6282   -2.3030 C   0  0  0  0  0  0  0  0  0  0  0  0
   -1.4428    0.0805   -1.4902 C   0  0  0  0  0  0  0  0  0  0  0  0
   -0.2131   -0.3828   -1.9221 N   0  0  0  0  0  0  0  0  0  0  0  0
    0.4730   -0.8142   -0.8997 C   0  0  0  0  0  0  0  0  0  0  0  0
    1.7316   -1.3456   -0.8591 N   0  0  0  0  0  0  0  0  0  0  0  0
    2.5367   -1.4292   -1.9713 C   0  0  0  0  0  0  0  0  0  0  0  0
    2.2644   -1.0797   -3.1149 O   0  0  0  0  0  0  0  0  0  0  0  0
    3.9064   -2.0001   -1.6659 C   0  0  0  0  0  0  0  0  0  0  0  0
    4.8513   -0.9134   -1.1726 C   0  0  0  0  0  0  0  0  0  0  0  0
    4.5653   -0.5025    0.1936 N   0  0  0  0  0  0  0  0  0  0  0  0
    3.9230    0.6510    0.5568 C   0  0  0  0  0  0  0  0  0  0  0  0
    3.7946    0.6506    1.9282 C   0  0  0  0  0  0  0  0  0  0  0  0
    4.3897   -0.5398    2.4080 C   0  0  0  0  0  0  0  0  0  0  0  0
    4.8617   -1.2329    1.3145 C   0  0  0  0  0  0  0  0  0  0  0  0
   -0.2784   -0.7156    0.6271 S   0  0  0  0  0  0  0  0  0  0  0  0
   -1.6702   -0.0171   -0.1156 C   0  0  0  0  0  0  0  0  0  0  0  0
   -2.8723    0.4116    0.4801 C   0  0  0  0  0  0  0  0  0  0  0  0
   -7.1051    1.6895    2.7183 H   0  0  0  0  0  0  0  0  0  0  0  0
   -7.5199    1.2849    1.0344 H   0  0  0  0  0  0  0  0  0  0  0  0
   -6.8502    2.8688    1.4101 H   0  0  0  0  0  0  0  0  0  0  0  0
   -4.6945    1.8389    2.0708 H   0  0  0  0  0  0  0  0  0  0  0  0
   -5.3744    0.2085    1.7366 H   0  0  0  0  0  0  0  0  0  0  0  0
   -4.4247    1.4846   -2.3542 H   0  0  0  0  0  0  0  0  0  0  0  0
   -2.2924    0.7126   -3.3734 H   0  0  0  0  0  0  0  0  0  0  0  0
    2.0854   -1.5785    0.0591 H   0  0  0  0  0  0  0  0  0  0  0  0
    4.2964   -2.4369   -2.5933 H   0  0  0  0  0  0  0  0  0  0  0  0
    3.8119   -2.8219   -0.9462 H   0  0  0  0  0  0  0  0  0  0  0  0
    5.8855   -1.2769   -1.1788 H   0  0  0  0  0  0  0  0  0  0  0  0
    4.8058   -0.0211   -1.8074 H   0  0  0  0  0  0  0  0  0  0  0  0
    3.6035    1.3768   -0.1819 H   0  0  0  0  0  0  0  0  0  0  0  0
    3.3298    1.4295    2.5192 H   0  0  0  0  0  0  0  0  0  0  0  0
    4.4748   -0.8526    3.4413 H   0  0  0  0  0  0  0  0  0  0  0  0
    5.3873   -2.1771    1.2507 H   0  0  0  0  0  0  0  0  0  0  0  0
   -2.9966    0.3167    1.5517 H   0  0  0  0  0  0  0  0  0  0  0  0
  1  2  1  0
  2  3  1  0
  3  4  1  0
  4  5  2  0
  5  6  1  0
  6  7  2  0
  7  8  1  0
  8  9  2  0
  9 10  1  0
 10 11  1  0
 11 12  2  0
 11 13  1  0
 13 14  1  0
 14 15  1  0
 15 16  1  0
 16 17  2  0
 17 18  1  0
 18 19  2  0
  9 20  1  0
 20 21  1  0
 21 22  2  0
 22  4  1  0
 21  7  1  0
 19 15  1  0
  1 23  1  0
  1 24  1  0
  1 25  1  0
  2 26  1  0
  2 27  1  0
  5 28  1  0
  6 29  1  0
 10 30  1  0
 13 31  1  0
 13 32  1  0
 14 33  1  0
 14 34  1  0
 16 35  1  0
 17 36  1  0
 18 37  1  0
 19 38  1  0
 22 39  1  0
M  END
$$$$
