
     RDKit          3D

 66 68  0  0  0  0  0  0  0  0999 V2000
    0.4369    3.3662    5.6803 C   0  0  0  0  0  0  0  0  0  0  0  0
    1.0129    2.8879    4.3596 C   0  0  0  0  0  0  0  0  0  0  0  0
    0.4908    1.5086    3.9817 C   0  0  0  0  0  0  0  0  0  0  0  0
    1.0678    1.1324    2.7379 O   0  0  0  0  0  0  0  0  0  0  0  0
    0.4610   -0.2016    2.0100 P   0  0  0  0  0  5  0  0  0  0  0  0
    0.0760   -1.2406    3.0380 O   0  0  0  0  0  0  0  0  0  0  0  0
    1.7004   -0.6679    0.8340 C   0  0  0  0  0  0  0  0  0  0  0  0
    2.1823   -1.9782    0.8120 C   0  0  0  0  0  0  0  0  0  0  0  0
    3.1501   -2.3761   -0.1218 C   0  0  0  0  0  0  0  0  0  0  0  0
    3.6720   -1.4939   -1.0821 C   0  0  0  0  0  0  0  0  0  0  0  0
    4.6442   -1.8809   -2.0149 N   0  0  0  0  0  0  0  0  0  0  0  0
    5.0626   -3.2804   -2.0698 C   0  0  0  0  0  0  0  0  0  0  0  0
    4.6819   -1.1657   -3.2906 C   0  0  0  0  0  0  0  0  0  0  0  0
    3.1912   -0.1737   -1.0239 C   0  0  0  0  0  0  0  0  0  0  0  0
    2.2267    0.2345   -0.0901 C   0  0  0  0  0  0  0  0  0  0  0  0
   -1.0474    0.4963    1.1473 C   0  0  0  0  0  0  0  0  0  0  0  0
   -0.7116    1.8816    0.7257 N   0  0  0  0  0  0  0  0  0  0  0  0
   -1.7127    2.8650    0.7320 C   0  0  0  0  0  0  0  0  0  0  0  0
   -3.0659    2.5997    0.4978 C   0  0  0  0  0  0  0  0  0  0  0  0
   -4.0078    3.6336    0.4444 C   0  0  0  0  0  0  0  0  0  0  0  0
   -3.6051    4.9572    0.5952 C   0  0  0  0  0  0  0  0  0  0  0  0
   -2.2583    5.2471    0.7827 C   0  0  0  0  0  0  0  0  0  0  0  0
   -1.3225    4.2098    0.8335 C   0  0  0  0  0  0  0  0  0  0  0  0
   -1.5245   -0.3908    0.0133 C   0  0  0  0  0  0  0  0  0  0  0  0
   -1.3015   -0.0923   -1.3316 C   0  0  0  0  0  0  0  0  0  0  0  0
   -1.7269   -0.9669   -2.3441 C   0  0  0  0  0  0  0  0  0  0  0  0
   -2.3737   -2.1834   -2.0679 C   0  0  0  0  0  0  0  0  0  0  0  0
   -2.8108   -3.0492   -3.0813 N   0  0  0  0  0  0  0  0  0  0  0  0
   -3.1096   -4.4372   -2.7317 C   0  0  0  0  0  0  0  0  0  0  0  0
   -2.3217   -2.8407   -4.4436 C   0  0  0  0  0  0  0  0  0  0  0  0
   -2.5961   -2.4562   -0.7076 C   0  0  0  0  0  0  0  0  0  0  0  0
   -2.1771   -1.5891    0.3130 C   0  0  0  0  0  0  0  0  0  0  0  0
   -0.6545    3.4388    5.6275 H   0  0  0  0  0  0  0  0  0  0  0  0
    0.8321    4.3561    5.9304 H   0  0  0  0  0  0  0  0  0  0  0  0
    0.6959    2.6800    6.4943 H   0  0  0  0  0  0  0  0  0  0  0  0
    0.7694    3.6052    3.5661 H   0  0  0  0  0  0  0  0  0  0  0  0
    2.1081    2.8637    4.4181 H   0  0  0  0  0  0  0  0  0  0  0  0
   -0.5998    1.5218    3.8932 H   0  0  0  0  0  0  0  0  0  0  0  0
    0.7763    0.7724    4.7395 H   0  0  0  0  0  0  0  0  0  0  0  0
    1.8033   -2.7059    1.5288 H   0  0  0  0  0  0  0  0  0  0  0  0
    3.4737   -3.4118   -0.0751 H   0  0  0  0  0  0  0  0  0  0  0  0
    5.4389   -3.6213   -1.0986 H   0  0  0  0  0  0  0  0  0  0  0  0
    4.2392   -3.9273   -2.3942 H   0  0  0  0  0  0  0  0  0  0  0  0
    5.8915   -3.4127   -2.7759 H   0  0  0  0  0  0  0  0  0  0  0  0
    5.0096   -0.1297   -3.1568 H   0  0  0  0  0  0  0  0  0  0  0  0
    3.7026   -1.1816   -3.7813 H   0  0  0  0  0  0  0  0  0  0  0  0
    5.4009   -1.6219   -3.9805 H   0  0  0  0  0  0  0  0  0  0  0  0
    3.5695    0.5850   -1.7034 H   0  0  0  0  0  0  0  0  0  0  0  0
    1.8912    1.2695   -0.1008 H   0  0  0  0  0  0  0  0  0  0  0  0
   -1.8127    0.5384    1.9333 H   0  0  0  0  0  0  0  0  0  0  0  0
    0.1009    2.2177    1.2504 H   0  0  0  0  0  0  0  0  0  0  0  0
   -3.4218    1.5870    0.3364 H   0  0  0  0  0  0  0  0  0  0  0  0
   -5.0540    3.3989    0.2672 H   0  0  0  0  0  0  0  0  0  0  0  0
   -4.3367    5.7591    0.5488 H   0  0  0  0  0  0  0  0  0  0  0  0
   -1.9301    6.2795    0.8749 H   0  0  0  0  0  0  0  0  0  0  0  0
   -0.2730    4.4652    0.9560 H   0  0  0  0  0  0  0  0  0  0  0  0
   -0.7982    0.8297   -1.6166 H   0  0  0  0  0  0  0  0  0  0  0  0
   -1.5266   -0.6566   -3.3649 H   0  0  0  0  0  0  0  0  0  0  0  0
   -3.4103   -5.0113   -3.6157 H   0  0  0  0  0  0  0  0  0  0  0  0
   -2.2337   -4.9323   -2.2977 H   0  0  0  0  0  0  0  0  0  0  0  0
   -3.9533   -4.5009   -2.0362 H   0  0  0  0  0  0  0  0  0  0  0  0
   -1.2316   -2.9532   -4.4935 H   0  0  0  0  0  0  0  0  0  0  0  0
   -2.7611   -3.5692   -5.1362 H   0  0  0  0  0  0  0  0  0  0  0  0
   -2.6107   -1.8544   -4.8257 H   0  0  0  0  0  0  0  0  0  0  0  0
   -3.1091   -3.3606   -0.3961 H   0  0  0  0  0  0  0  0  0  0  0  0
   -2.3696   -1.8723    1.3472 H   0  0  0  0  0  0  0  0  0  0  0  0
  1  2  1  0
  2  3  1  0
  3  4  1  0
  4  5  1  0
  5  6  2  0
  5  7  1  0
  7  8  2  0
  8  9  1  0
  9 10  2  0
 10 11  1  0
 11 12  1  0
 11 13  1  0
 10 14  1  0
 14 15  2  0
  5 16  1  0
 16 17  1  0
 17 18  1  0
 18 19  2  0
 19 20  1  0
 20 21  2  0
 21 22  1  0
 22 23  2  0
 16 24  1  0
 24 25  2  0
 25 26  1  0
 26 27  2  0
 27 28  1  0
 28 29  1  0
 28 30  1  0
 27 31  1  0
 31 32  2  0
 15  7  1  0
 23 18  1  0
 32 24  1  0
  1 33  1  0
  1 34  1  0
  1 35  1  0
  2 36  1  0
  2 37  1  0
  3 38  1  0
  3 39  1  0
  8 40  1  0
  9 41  1  0
 12 42  1  0
 12 43  1  0
 12 44  1  0
 13 45  1  0
 13 46  1  0
 13 47  1  0
 14 48  1  0
 15 49  1  0
 16 50  1  0
 17 51  1  0
 19 52  1  0
 20 53  1  0
 21 54  1  0
 22 55  1  0
 23 56  1  0
 25 57  1  0
 26 58  1  0
 29 59  1  0
 29 60  1  0
 29 61  1  0
 30 62  1  0
 30 63  1  0
 30 64  1  0
 31 65  1  0
 32 66  1  0
M  END
$$$$
