
     RDKit          3D

 60 61  0  0  0  0  0  0  0  0999 V2000
   -7.3077    0.5184    0.6907 C   0  0  0  0  0  0  0  0  0  0  0  0
   -6.3240    1.2295   -0.0500 O   0  0  0  0  0  0  0  0  0  0  0  0
   -5.0172    1.0683    0.3286 C   0  0  0  0  0  0  0  0  0  0  0  0
   -4.5702    0.3522    1.4427 C   0  0  0  0  0  0  0  0  0  0  0  0
   -3.2006    0.2596    1.7215 C   0  0  0  0  0  0  0  0  0  0  0  0
   -2.6741   -0.4456    2.7779 O   0  0  0  0  0  0  0  0  0  0  0  0
   -3.5711   -1.1412    3.6337 C   0  0  0  0  0  0  0  0  0  0  0  0
   -2.2750    0.9059    0.8738 C   0  0  0  0  0  0  0  0  0  0  0  0
   -0.8442    0.8169    1.1516 C   0  0  0  0  0  0  0  0  0  0  0  0
   -0.2812    1.5326    2.1377 N   0  0  0  0  0  0  0  0  0  0  0  0
    1.0642    1.2331    2.1038 O   0  0  0  0  0  0  0  0  0  0  0  0
    1.3170    0.3363    1.1085 C   0  0  0  0  0  0  0  0  0  0  0  0
    2.6537   -0.1766    0.9674 C   0  0  0  0  0  0  0  0  0  0  0  0
    2.9612   -1.2004    0.3706 O   0  0  0  0  0  0  0  0  0  0  0  0
    3.5314    0.6422    1.6110 O   0  0  0  0  0  0  0  0  0  0  0  0
    4.9518    0.3517    1.6291 C   0  0  0  0  0  0  0  0  0  0  0  0
    5.5419    0.3557    0.2137 C   0  0  0  0  0  0  0  0  0  0  0  0
    5.5752    1.5100    2.4235 C   0  0  0  0  0  0  0  0  0  0  0  0
    5.2402   -0.9605    2.3667 C   0  0  0  0  0  0  0  0  0  0  0  0
    0.1355    0.0641    0.4474 C   0  0  0  0  0  0  0  0  0  0  0  0
   -0.0580   -0.7924   -0.6951 C   0  0  0  0  0  0  0  0  0  0  0  0
   -1.0846   -1.4304   -0.8853 O   0  0  0  0  0  0  0  0  0  0  0  0
    1.0094   -0.7639   -1.5372 O   0  0  0  0  0  0  0  0  0  0  0  0
    1.0429   -1.5795   -2.7345 C   0  0  0  0  0  0  0  0  0  0  0  0
   -0.0529   -1.1598   -3.7207 C   0  0  0  0  0  0  0  0  0  0  0  0
    0.9703   -3.0731   -2.3944 C   0  0  0  0  0  0  0  0  0  0  0  0
    2.4132   -1.2874   -3.3671 C   0  0  0  0  0  0  0  0  0  0  0  0
   -2.7231    1.6237   -0.2555 C   0  0  0  0  0  0  0  0  0  0  0  0
   -1.7552    2.1981   -1.0454 O   0  0  0  0  0  0  0  0  0  0  0  0
   -2.1864    3.0128   -2.1296 C   0  0  0  0  0  0  0  0  0  0  0  0
   -4.0940    1.6995   -0.5125 C   0  0  0  0  0  0  0  0  0  0  0  0
   -8.2815    0.7177    0.2307 H   0  0  0  0  0  0  0  0  0  0  0  0
   -7.3502    0.8711    1.7265 H   0  0  0  0  0  0  0  0  0  0  0  0
   -7.1321   -0.5619    0.6448 H   0  0  0  0  0  0  0  0  0  0  0  0
   -5.2872   -0.1336    2.0925 H   0  0  0  0  0  0  0  0  0  0  0  0
   -4.2492   -0.4471    4.1431 H   0  0  0  0  0  0  0  0  0  0  0  0
   -2.9771   -1.6478    4.4014 H   0  0  0  0  0  0  0  0  0  0  0  0
   -4.1266   -1.9085    3.0824 H   0  0  0  0  0  0  0  0  0  0  0  0
    6.6362    0.3146    0.2382 H   0  0  0  0  0  0  0  0  0  0  0  0
    5.2387    1.2564   -0.3324 H   0  0  0  0  0  0  0  0  0  0  0  0
    5.1972   -0.4997   -0.3760 H   0  0  0  0  0  0  0  0  0  0  0  0
    5.3580    2.4722    1.9447 H   0  0  0  0  0  0  0  0  0  0  0  0
    5.1493    1.5644    3.4325 H   0  0  0  0  0  0  0  0  0  0  0  0
    6.6619    1.4054    2.5114 H   0  0  0  0  0  0  0  0  0  0  0  0
    6.3145   -1.0953    2.5339 H   0  0  0  0  0  0  0  0  0  0  0  0
    4.7306   -0.9826    3.3373 H   0  0  0  0  0  0  0  0  0  0  0  0
    4.8845   -1.8315    1.8059 H   0  0  0  0  0  0  0  0  0  0  0  0
   -1.0524   -1.4140   -3.3541 H   0  0  0  0  0  0  0  0  0  0  0  0
    0.0753   -1.6527   -4.6904 H   0  0  0  0  0  0  0  0  0  0  0  0
   -0.0427   -0.0748   -3.8763 H   0  0  0  0  0  0  0  0  0  0  0  0
   -0.0123   -3.3561   -2.0042 H   0  0  0  0  0  0  0  0  0  0  0  0
    1.7026   -3.3324   -1.6219 H   0  0  0  0  0  0  0  0  0  0  0  0
    1.1627   -3.6924   -3.2778 H   0  0  0  0  0  0  0  0  0  0  0  0
    3.2250   -1.5263   -2.6696 H   0  0  0  0  0  0  0  0  0  0  0  0
    2.5132   -0.2214   -3.6042 H   0  0  0  0  0  0  0  0  0  0  0  0
    2.5676   -1.8619   -4.2864 H   0  0  0  0  0  0  0  0  0  0  0  0
   -2.7914    3.8560   -1.7764 H   0  0  0  0  0  0  0  0  0  0  0  0
   -2.7251    2.4195   -2.8767 H   0  0  0  0  0  0  0  0  0  0  0  0
   -1.2945    3.4239   -2.6141 H   0  0  0  0  0  0  0  0  0  0  0  0
   -4.4836    2.2391   -1.3714 H   0  0  0  0  0  0  0  0  0  0  0  0
  1  2  1  0
  2  3  1  0
  3  4  2  0
  4  5  1  0
  5  6  1  0
  6  7  1  0
  5  8  2  0
  8  9  1  0
  9 10  2  0
 10 11  1  0
 11 12  1  0
 12 13  1  0
 13 14  2  0
 13 15  1  0
 15 16  1  0
 16 17  1  0
 16 18  1  0
 16 19  1  0
 12 20  2  0
 20 21  1  0
 21 22  2  0
 21 23  1  0
 23 24  1  0
 24 25  1  0
 24 26  1  0
 24 27  1  0
  8 28  1  0
 28 29  1  0
 29 30  1  0
 28 31  2  0
 31  3  1  0
 20  9  1  0
  1 32  1  0
  1 33  1  0
  1 34  1  0
  4 35  1  0
  7 36  1  0
  7 37  1  0
  7 38  1  0
 17 39  1  0
 17 40  1  0
 17 41  1  0
 18 42  1  0
 18 43  1  0
 18 44  1  0
 19 45  1  0
 19 46  1  0
 19 47  1  0
 25 48  1  0
 25 49  1  0
 25 50  1  0
 26 51  1  0
 26 52  1  0
 26 53  1  0
 27 54  1  0
 27 55  1  0
 27 56  1  0
 30 57  1  0
 30 58  1  0
 30 59  1  0
 31 60  1  0
M  END
$$$$
