
     RDKit          3D

 46 49  0  0  0  0  0  0  0  0999 V2000
    1.6338    2.3886    3.0539 C   0  0  0  0  0  0  0  0  0  0  0  0
    0.7960    1.6237    2.1874 O   0  0  0  0  0  0  0  0  0  0  0  0
   -0.1201    2.3666    1.4949 C   0  0  0  0  0  0  0  0  0  0  0  0
   -0.2611    3.5765    1.6416 O   0  0  0  0  0  0  0  0  0  0  0  0
   -0.9499    1.5515    0.6107 C   0  0  0  0  0  0  0  0  0  0  0  0
   -2.2196    1.8881    0.3047 N   0  0  0  0  0  0  0  0  0  0  0  0
   -2.6243    0.8689   -0.4924 N   0  0  0  0  0  0  0  0  0  0  0  0
   -3.9339    0.8126   -1.0363 C   0  0  0  0  0  0  0  0  0  0  0  0
   -4.3131   -0.2660   -1.8491 C   0  0  0  0  0  0  0  0  0  0  0  0
   -5.6036   -0.3179   -2.3798 C   0  0  0  0  0  0  0  0  0  0  0  0
   -6.5156    0.7005   -2.1033 C   0  0  0  0  0  0  0  0  0  0  0  0
   -6.1421    1.7750   -1.2963 C   0  0  0  0  0  0  0  0  0  0  0  0
   -4.8537    1.8351   -0.7614 C   0  0  0  0  0  0  0  0  0  0  0  0
   -1.7072   -0.1038   -0.7281 N   0  0  0  0  0  0  0  0  0  0  0  0
   -0.6472    0.3365   -0.0402 C   0  0  0  0  0  0  0  0  0  0  0  0
    0.6467   -0.3376   -0.0641 C   0  0  0  0  0  0  0  0  0  0  0  0
    1.7982    0.3102   -0.2754 N   0  0  0  0  0  0  0  0  0  0  0  0
    2.6954   -0.7077   -0.3145 N   0  0  0  0  0  0  0  0  0  0  0  0
    4.0811   -0.4789   -0.5179 C   0  0  0  0  0  0  0  0  0  0  0  0
    4.5608    0.8278   -0.6923 C   0  0  0  0  0  0  0  0  0  0  0  0
    5.9256    1.0478   -0.8896 C   0  0  0  0  0  0  0  0  0  0  0  0
    6.8119   -0.0288   -0.9135 C   0  0  0  0  0  0  0  0  0  0  0  0
    6.3386   -1.3295   -0.7414 C   0  0  0  0  0  0  0  0  0  0  0  0
    4.9756   -1.5589   -0.5436 C   0  0  0  0  0  0  0  0  0  0  0  0
    2.1910   -1.9530   -0.1329 N   0  0  0  0  0  0  0  0  0  0  0  0
    0.8726   -1.7269    0.0393 C   0  0  0  0  0  0  0  0  0  0  0  0
   -0.0744   -2.8074    0.3049 C   0  0  0  0  0  0  0  0  0  0  0  0
    0.0892   -3.9659   -0.0643 O   0  0  0  0  0  0  0  0  0  0  0  0
   -1.1380   -2.3991    1.0617 O   0  0  0  0  0  0  0  0  0  0  0  0
   -2.0916   -3.4264    1.3319 C   0  0  0  0  0  0  0  0  0  0  0  0
    2.1990    3.1331    2.4844 H   0  0  0  0  0  0  0  0  0  0  0  0
    2.3440    1.7050    3.5272 H   0  0  0  0  0  0  0  0  0  0  0  0
    1.0385    2.8670    3.8377 H   0  0  0  0  0  0  0  0  0  0  0  0
   -3.6174   -1.0702   -2.0803 H   0  0  0  0  0  0  0  0  0  0  0  0
   -5.8975   -1.1528   -3.0115 H   0  0  0  0  0  0  0  0  0  0  0  0
   -7.5194    0.6579   -2.5192 H   0  0  0  0  0  0  0  0  0  0  0  0
   -6.8545    2.5686   -1.0840 H   0  0  0  0  0  0  0  0  0  0  0  0
   -4.5825    2.6838   -0.1358 H   0  0  0  0  0  0  0  0  0  0  0  0
    3.8874    1.6824   -0.6799 H   0  0  0  0  0  0  0  0  0  0  0  0
    6.2978    2.0603   -1.0268 H   0  0  0  0  0  0  0  0  0  0  0  0
    7.8739    0.1457   -1.0688 H   0  0  0  0  0  0  0  0  0  0  0  0
    7.0316   -2.1672   -0.7626 H   0  0  0  0  0  0  0  0  0  0  0  0
    4.6274   -2.5822   -0.4134 H   0  0  0  0  0  0  0  0  0  0  0  0
   -2.5043   -3.8235    0.3992 H   0  0  0  0  0  0  0  0  0  0  0  0
   -1.6367   -4.2239    1.9276 H   0  0  0  0  0  0  0  0  0  0  0  0
   -2.9084   -2.9855    1.9100 H   0  0  0  0  0  0  0  0  0  0  0  0
  1  2  1  0
  2  3  1  0
  3  4  2  0
  3  5  1  0
  5  6  2  0
  6  7  1  0
  7  8  1  0
  8  9  2  0
  9 10  1  0
 10 11  2  0
 11 12  1  0
 12 13  2  0
  7 14  1  0
 14 15  2  0
 15 16  1  0
 16 17  2  0
 17 18  1  0
 18 19  1  0
 19 20  2  0
 20 21  1  0
 21 22  2  0
 22 23  1  0
 23 24  2  0
 18 25  1  0
 25 26  2  0
 26 27  1  0
 27 28  2  0
 27 29  1  0
 29 30  1  0
 15  5  1  0
 26 16  1  0
 13  8  1  0
 24 19  1  0
  1 31  1  0
  1 32  1  0
  1 33  1  0
  9 34  1  0
 10 35  1  0
 11 36  1  0
 12 37  1  0
 13 38  1  0
 20 39  1  0
 21 40  1  0
 22 41  1  0
 23 42  1  0
 24 43  1  0
 30 44  1  0
 30 45  1  0
 30 46  1  0
M  END
$$$$
