
     RDKit          3D

 45 47  0  0  0  0  0  0  0  0999 V2000
    6.4472    3.8677   -1.6990 C   0  0  0  0  0  0  0  0  0  0  0  0
    5.0037    3.4862   -1.9146 C   0  0  0  0  0  0  0  0  0  0  0  0
    4.2451    4.2240   -2.5327 O   0  0  0  0  0  0  0  0  0  0  0  0
    4.6873    2.2792   -1.3170 N   0  0  0  0  0  0  0  0  0  0  0  0
    3.4422    1.6180   -1.3270 C   0  0  0  0  0  0  0  0  0  0  0  0
    3.3467    0.4241   -0.5978 C   0  0  0  0  0  0  0  0  0  0  0  0
    2.1474   -0.2930   -0.5517 C   0  0  0  0  0  0  0  0  0  0  0  0
    1.0291    0.1920   -1.2303 C   0  0  0  0  0  0  0  0  0  0  0  0
   -0.4976   -0.7279   -1.1974 S   0  0  0  0  0  6  0  0  0  0  0  0
   -0.1619   -2.1088   -0.9272 O   0  0  0  0  0  0  0  0  0  0  0  0
   -1.2244   -0.3790   -2.4023 O   0  0  0  0  0  0  0  0  0  0  0  0
   -1.2940   -0.0473    0.0952 N   0  0  0  0  0  0  0  0  0  0  0  0
   -1.9938    1.2204   -0.1087 C   0  0  0  0  0  0  0  0  0  0  0  0
   -2.5375    1.4666    1.3014 C   0  0  0  0  0  0  0  0  0  0  0  0
   -1.8239    0.5429    2.2250 N   0  0  0  0  0  0  0  0  0  0  0  0
   -1.1807   -0.2858    1.4647 C   0  0  0  0  0  0  0  0  0  0  0  0
   -0.2308   -1.5585    2.1200 S   0  0  0  0  0  0  0  0  0  0  0  0
   -1.5442   -2.4667    2.9773 C   0  0  0  0  0  0  0  0  0  0  0  0
   -2.6684   -2.9066    2.0688 C   0  0  0  0  0  0  0  0  0  0  0  0
   -3.9514   -2.3524    2.2115 C   0  0  0  0  0  0  0  0  0  0  0  0
   -4.9885   -2.7433    1.3636 C   0  0  0  0  0  0  0  0  0  0  0  0
   -4.7460   -3.6857    0.3720 C   0  0  0  0  0  0  0  0  0  0  0  0
   -5.7430   -4.0568   -0.4418 F   0  0  0  0  0  0  0  0  0  0  0  0
   -3.4855   -4.2461    0.2121 C   0  0  0  0  0  0  0  0  0  0  0  0
   -2.4476   -3.8602    1.0612 C   0  0  0  0  0  0  0  0  0  0  0  0
    1.1183    1.3621   -1.9865 C   0  0  0  0  0  0  0  0  0  0  0  0
    2.3213    2.0755   -2.0249 C   0  0  0  0  0  0  0  0  0  0  0  0
    7.0970    2.9912   -1.7750 H   0  0  0  0  0  0  0  0  0  0  0  0
    6.5581    4.3247   -0.7121 H   0  0  0  0  0  0  0  0  0  0  0  0
    6.7528    4.5840   -2.4673 H   0  0  0  0  0  0  0  0  0  0  0  0
    5.4257    1.8266   -0.7925 H   0  0  0  0  0  0  0  0  0  0  0  0
    4.2044    0.0311   -0.0570 H   0  0  0  0  0  0  0  0  0  0  0  0
    2.1013   -1.2253    0.0065 H   0  0  0  0  0  0  0  0  0  0  0  0
   -1.3009    2.0174   -0.3913 H   0  0  0  0  0  0  0  0  0  0  0  0
   -2.8059    1.1452   -0.8357 H   0  0  0  0  0  0  0  0  0  0  0  0
   -2.3792    2.5053    1.6086 H   0  0  0  0  0  0  0  0  0  0  0  0
   -3.6117    1.2548    1.3495 H   0  0  0  0  0  0  0  0  0  0  0  0
   -1.1016   -3.3544    3.4434 H   0  0  0  0  0  0  0  0  0  0  0  0
   -1.9264   -1.8493    3.7981 H   0  0  0  0  0  0  0  0  0  0  0  0
   -4.1480   -1.6063    2.9792 H   0  0  0  0  0  0  0  0  0  0  0  0
   -5.9814   -2.3181    1.4677 H   0  0  0  0  0  0  0  0  0  0  0  0
   -3.3134   -4.9722   -0.5756 H   0  0  0  0  0  0  0  0  0  0  0  0
   -1.4587   -4.2928    0.9177 H   0  0  0  0  0  0  0  0  0  0  0  0
    0.2660    1.7278   -2.5552 H   0  0  0  0  0  0  0  0  0  0  0  0
    2.3529    2.9817   -2.6230 H   0  0  0  0  0  0  0  0  0  0  0  0
  1  2  1  0
  2  3  2  0
  2  4  1  0
  4  5  1  0
  5  6  2  0
  6  7  1  0
  7  8  2  0
  8  9  1  0
  9 10  2  0
  9 11  2  0
  9 12  1  0
 12 13  1  0
 13 14  1  0
 14 15  1  0
 15 16  2  0
 16 17  1  0
 17 18  1  0
 18 19  1  0
 19 20  2  0
 20 21  1  0
 21 22  2  0
 22 23  1  0
 22 24  1  0
 24 25  2  0
  8 26  1  0
 26 27  2  0
 27  5  1  0
 16 12  1  0
 25 19  1  0
  1 28  1  0
  1 29  1  0
  1 30  1  0
  4 31  1  0
  6 32  1  0
  7 33  1  0
 13 34  1  0
 13 35  1  0
 14 36  1  0
 14 37  1  0
 18 38  1  0
 18 39  1  0
 20 40  1  0
 21 41  1  0
 24 42  1  0
 25 43  1  0
 26 44  1  0
 27 45  1  0
M  END
$$$$
