
     RDKit          3D

 40 41  0  0  0  0  0  0  0  0999 V2000
   -5.8166   -1.1962   -0.0861 C   0  0  0  0  0  0  0  0  0  0  0  0
   -4.7101   -0.3019   -0.4148 N   0  0  0  0  0  0  0  0  0  0  0  0
   -3.9633   -0.8013   -1.5876 C   0  0  0  0  0  0  0  0  0  0  0  0
   -2.5169   -0.2825   -1.6612 C   0  0  0  0  0  0  0  0  0  0  0  0
   -1.7455   -0.6689   -0.4754 N   0  0  0  0  0  0  0  0  0  0  0  0
   -0.3707   -0.8512   -0.5931 C   0  0  0  0  0  0  0  0  0  0  0  0
    0.2113   -0.6205   -1.6542 O   0  0  0  0  0  0  0  0  0  0  0  0
    0.3555   -1.3234    0.6654 C   0  0  0  0  0  0  0  0  0  0  0  0
    2.0280   -1.9773    0.3293 S   0  0  0  0  0  0  0  0  0  0  0  0
    2.9703   -0.4588    0.3651 C   0  0  0  0  0  0  0  0  0  0  0  0
    3.1962    0.1985   -0.8512 C   0  0  0  0  0  0  0  0  0  0  0  0
    3.9666    1.3679   -0.9124 C   0  0  0  0  0  0  0  0  0  0  0  0
    4.5555    1.9047    0.2420 C   0  0  0  0  0  0  0  0  0  0  0  0
    5.3704    3.1752    0.1735 C   0  0  0  0  0  0  0  0  0  0  0  0
    5.9727    3.3622   -1.0321 F   0  0  0  0  0  0  0  0  0  0  0  0
    6.3666    3.2125    1.1004 F   0  0  0  0  0  0  0  0  0  0  0  0
    4.6108    4.2819    0.3938 F   0  0  0  0  0  0  0  0  0  0  0  0
    4.3432    1.2555    1.4663 C   0  0  0  0  0  0  0  0  0  0  0  0
    3.5607    0.0891    1.5112 C   0  0  0  0  0  0  0  0  0  0  0  0
    3.3826   -0.5331    2.8076 N   0  0  0  0  0  4  0  0  0  0  0  0
    2.2446   -0.5061    3.2969 O   0  0  0  0  0  0  0  0  0  0  0  0
    4.3943   -0.9923    3.3531 O   0  0  0  0  0  1  0  0  0  0  0  0
   -2.5141   -0.8315    0.7646 C   0  0  0  0  0  0  0  0  0  0  0  0
   -3.8386   -0.0441    0.7462 C   0  0  0  0  0  0  0  0  0  0  0  0
   -5.4662   -2.1782    0.2511 H   0  0  0  0  0  0  0  0  0  0  0  0
   -6.4679   -1.3399   -0.9555 H   0  0  0  0  0  0  0  0  0  0  0  0
   -6.4398   -0.7623    0.7036 H   0  0  0  0  0  0  0  0  0  0  0  0
   -3.9210   -1.8992   -1.5718 H   0  0  0  0  0  0  0  0  0  0  0  0
   -4.4995   -0.5096   -2.4978 H   0  0  0  0  0  0  0  0  0  0  0  0
   -2.5018    0.8126   -1.7188 H   0  0  0  0  0  0  0  0  0  0  0  0
   -2.0326   -0.6681   -2.5649 H   0  0  0  0  0  0  0  0  0  0  0  0
    0.4013   -0.4966    1.3790 H   0  0  0  0  0  0  0  0  0  0  0  0
   -0.2071   -2.1483    1.1122 H   0  0  0  0  0  0  0  0  0  0  0  0
    2.7698   -0.1938   -1.7756 H   0  0  0  0  0  0  0  0  0  0  0  0
    4.1088    1.8537   -1.8785 H   0  0  0  0  0  0  0  0  0  0  0  0
    4.7884    1.6534    2.3786 H   0  0  0  0  0  0  0  0  0  0  0  0
   -2.7127   -1.9032    0.8828 H   0  0  0  0  0  0  0  0  0  0  0  0
   -1.9107   -0.5056    1.6172 H   0  0  0  0  0  0  0  0  0  0  0  0
   -3.5904    1.0252    0.7206 H   0  0  0  0  0  0  0  0  0  0  0  0
   -4.3721   -0.1985    1.6923 H   0  0  0  0  0  0  0  0  0  0  0  0
  1  2  1  0
  2  3  1  0
  3  4  1  0
  4  5  1  0
  5  6  1  0
  6  7  2  0
  6  8  1  0
  8  9  1  0
  9 10  1  0
 10 11  2  0
 11 12  1  0
 12 13  2  0
 13 14  1  0
 14 15  1  0
 14 16  1  0
 14 17  1  0
 13 18  1  0
 18 19  2  0
 19 20  1  0
 20 21  2  0
 20 22  1  0
  5 23  1  0
 23 24  1  0
 24  2  1  0
 19 10  1  0
  1 25  1  0
  1 26  1  0
  1 27  1  0
  3 28  1  0
  3 29  1  0
  4 30  1  0
  4 31  1  0
  8 32  1  0
  8 33  1  0
 11 34  1  0
 12 35  1  0
 18 36  1  0
 23 37  1  0
 23 38  1  0
 24 39  1  0
 24 40  1  0
M  CHG  2  20   1  22  -1
M  END
$$$$
