
     RDKit          3D

 46 47  0  0  0  0  0  0  0  0999 V2000
   -1.6603   -0.8053    4.7071 C   0  0  0  0  0  0  0  0  0  0  0  0
   -1.9910    0.4329    3.4292 S   0  0  0  0  0  0  0  0  0  0  0  0
   -0.2848    0.9899    3.0908 C   0  0  0  0  0  0  0  0  0  0  0  0
    0.5548   -0.0053    2.2871 C   0  0  0  0  0  0  0  0  0  0  0  0
    0.3683    0.1055    0.7655 C   0  0  0  0  0  0  0  0  0  0  0  0
   -0.9889   -0.2360    0.3617 N   0  0  0  0  0  0  0  0  0  0  0  0
   -1.5830    0.3741   -0.7198 C   0  0  0  0  0  0  0  0  0  0  0  0
   -1.1314    1.3563   -1.2931 O   0  0  0  0  0  0  0  0  0  0  0  0
   -2.8169   -0.2791   -1.1984 C   0  0  0  0  0  0  0  0  0  0  0  0
   -2.7340   -1.6102   -1.6366 C   0  0  0  0  0  0  0  0  0  0  0  0
   -3.8736   -2.2590   -2.1123 C   0  0  0  0  0  0  0  0  0  0  0  0
   -5.0922   -1.5826   -2.1540 C   0  0  0  0  0  0  0  0  0  0  0  0
   -5.1737   -0.2565   -1.7209 C   0  0  0  0  0  0  0  0  0  0  0  0
   -4.0361    0.4024   -1.2431 C   0  0  0  0  0  0  0  0  0  0  0  0
   -4.2211    2.0259   -0.6865 Cl  0  0  0  0  0  0  0  0  0  0  0  0
    1.3163   -0.9058    0.0686 C   0  0  0  0  0  0  0  0  0  0  0  0
    0.8795   -2.0112   -0.2798 O   0  0  0  0  0  0  0  0  0  0  0  0
    2.6663   -0.5890   -0.0582 N   0  0  0  0  0  0  0  0  0  0  0  0
    3.5336   -1.5817   -0.6796 C   0  0  0  0  0  0  0  0  0  0  0  0
    3.2242    0.7586    0.0841 C   0  0  0  0  0  0  0  0  0  0  0  0
    3.3645    1.4209   -1.2542 C   0  0  0  0  0  0  0  0  0  0  0  0
    2.3758    1.8206   -2.1333 C   0  0  0  0  0  0  0  0  0  0  0  0
    2.9044    2.4261   -3.3100 C   0  0  0  0  0  0  0  0  0  0  0  0
    4.2792    2.4758   -3.2915 C   0  0  0  0  0  0  0  0  0  0  0  0
    4.9253    1.7982   -1.8622 S   0  0  0  0  0  0  0  0  0  0  0  0
   -2.6120   -1.1882    5.0856 H   0  0  0  0  0  0  0  0  0  0  0  0
   -1.1127   -0.3584    5.5408 H   0  0  0  0  0  0  0  0  0  0  0  0
   -1.0929   -1.6447    4.2990 H   0  0  0  0  0  0  0  0  0  0  0  0
   -0.3375    1.9515    2.5690 H   0  0  0  0  0  0  0  0  0  0  0  0
    0.1960    1.1830    4.0560 H   0  0  0  0  0  0  0  0  0  0  0  0
    1.6083    0.1979    2.5181 H   0  0  0  0  0  0  0  0  0  0  0  0
    0.3807   -1.0353    2.6209 H   0  0  0  0  0  0  0  0  0  0  0  0
    0.5791    1.1199    0.4200 H   0  0  0  0  0  0  0  0  0  0  0  0
   -1.3282   -1.1492    0.6408 H   0  0  0  0  0  0  0  0  0  0  0  0
   -1.7801   -2.1356   -1.6249 H   0  0  0  0  0  0  0  0  0  0  0  0
   -3.8092   -3.2887   -2.4567 H   0  0  0  0  0  0  0  0  0  0  0  0
   -5.9814   -2.0867   -2.5262 H   0  0  0  0  0  0  0  0  0  0  0  0
   -6.1308    0.2590   -1.7556 H   0  0  0  0  0  0  0  0  0  0  0  0
    3.5486   -1.4186   -1.7611 H   0  0  0  0  0  0  0  0  0  0  0  0
    4.5454   -1.4902   -0.2740 H   0  0  0  0  0  0  0  0  0  0  0  0
    3.1764   -2.5970   -0.4845 H   0  0  0  0  0  0  0  0  0  0  0  0
    4.1894    0.6618    0.5956 H   0  0  0  0  0  0  0  0  0  0  0  0
    2.6022    1.3823    0.7292 H   0  0  0  0  0  0  0  0  0  0  0  0
    1.3156    1.6859   -1.9516 H   0  0  0  0  0  0  0  0  0  0  0  0
    2.3015    2.8057   -4.1261 H   0  0  0  0  0  0  0  0  0  0  0  0
    4.9365    2.8801   -4.0490 H   0  0  0  0  0  0  0  0  0  0  0  0
  1  2  1  0
  2  3  1  0
  3  4  1  0
  4  5  1  0
  5  6  1  0
  6  7  1  0
  7  8  2  0
  7  9  1  0
  9 10  2  0
 10 11  1  0
 11 12  2  0
 12 13  1  0
 13 14  2  0
 14 15  1  0
  5 16  1  0
 16 17  2  0
 16 18  1  0
 18 19  1  0
 18 20  1  0
 20 21  1  0
 21 22  2  0
 22 23  1  0
 23 24  2  0
 24 25  1  0
 14  9  1  0
 25 21  1  0
  1 26  1  0
  1 27  1  0
  1 28  1  0
  3 29  1  0
  3 30  1  0
  4 31  1  0
  4 32  1  0
  5 33  1  0
  6 34  1  0
 10 35  1  0
 11 36  1  0
 12 37  1  0
 13 38  1  0
 19 39  1  0
 19 40  1  0
 19 41  1  0
 20 42  1  0
 20 43  1  0
 22 44  1  0
 23 45  1  0
 24 46  1  0
M  END
$$$$
