
     RDKit          3D

 30 31  0  0  0  0  0  0  0  0999 V2000
    0.0562   -0.0209   -2.1908 O   0  0  0  0  0  0  0  0  0  0  0  0
    0.7842    0.8629   -1.7378 C   0  0  0  0  0  0  0  0  0  0  0  0
    2.2307    0.5807   -1.3618 C   0  0  0  0  0  0  0  0  0  0  0  0
    2.2251   -0.4409   -0.2673 C   0  0  0  0  0  0  0  0  0  0  0  0
    2.5331   -0.2293    1.0209 C   0  0  0  0  0  0  0  0  0  0  0  0
    2.2527   -1.5138    1.6939 C   0  0  0  0  0  0  0  0  0  0  0  0
    2.4956   -1.7586    2.8603 O   0  0  0  0  0  0  0  0  0  0  0  0
    1.6814   -2.3472    0.7473 N   0  0  0  0  0  0  0  0  0  0  0  0
    1.8181   -1.7493   -0.5075 N   0  0  0  0  0  0  0  0  0  0  0  0
    0.3863    2.1680   -1.4397 N   0  0  0  0  0  0  0  0  0  0  0  0
   -0.8674    2.6240   -1.7573 N   0  0  0  0  0  0  0  0  0  0  0  0
   -1.9147    2.0023   -1.2891 C   0  0  0  0  0  0  0  0  0  0  0  0
   -1.9786    0.9470   -0.2531 C   0  0  0  0  0  0  0  0  0  0  0  0
   -1.2401    1.1183    0.9282 C   0  0  0  0  0  0  0  0  0  0  0  0
   -1.2693    0.1411    1.9201 C   0  0  0  0  0  0  0  0  0  0  0  0
   -2.0464   -1.0013    1.7405 C   0  0  0  0  0  0  0  0  0  0  0  0
   -2.8066   -1.1644    0.5756 C   0  0  0  0  0  0  0  0  0  0  0  0
   -3.7520   -2.6085    0.4496 Cl  0  0  0  0  0  0  0  0  0  0  0  0
   -2.7873   -0.1854   -0.4296 C   0  0  0  0  0  0  0  0  0  0  0  0
   -3.7301   -0.3815   -1.8728 Cl  0  0  0  0  0  0  0  0  0  0  0  0
    2.7585    0.2093   -2.2465 H   0  0  0  0  0  0  0  0  0  0  0  0
    2.7360    1.4975   -1.0389 H   0  0  0  0  0  0  0  0  0  0  0  0
    2.8723    0.6556    1.5239 H   0  0  0  0  0  0  0  0  0  0  0  0
    1.7664   -3.3527    0.8469 H   0  0  0  0  0  0  0  0  0  0  0  0
    0.9748   -1.7859   -1.0997 H   0  0  0  0  0  0  0  0  0  0  0  0
    1.0998    2.8825   -1.5583 H   0  0  0  0  0  0  0  0  0  0  0  0
   -2.8906    2.3357   -1.6830 H   0  0  0  0  0  0  0  0  0  0  0  0
   -0.6422    2.0143    1.0785 H   0  0  0  0  0  0  0  0  0  0  0  0
   -0.6866    0.2646    2.8308 H   0  0  0  0  0  0  0  0  0  0  0  0
   -2.0593   -1.7640    2.5167 H   0  0  0  0  0  0  0  0  0  0  0  0
  1  2  2  0
  2  3  1  0
  3  4  1  0
  4  5  2  0
  5  6  1  0
  6  7  2  0
  6  8  1  0
  8  9  1  0
  2 10  1  0
 10 11  1  0
 11 12  2  3
 12 13  1  0
 13 14  2  0
 14 15  1  0
 15 16  2  0
 16 17  1  0
 17 18  1  0
 17 19  2  0
 19 20  1  0
  9  4  1  0
 19 13  1  0
  3 21  1  0
  3 22  1  0
  5 23  1  0
  8 24  1  0
  9 25  1  0
 10 26  1  0
 12 27  1  0
 14 28  1  0
 15 29  1  0
 16 30  1  0
M  END
$$$$
