
     RDKit          3D

 33 35  0  0  0  0  0  0  0  0999 V2000
   -5.3591   -1.6165    2.2230 C   0  0  0  0  0  0  0  0  0  0  0  0
   -4.7877   -0.9529    1.0061 C   0  0  0  0  0  0  0  0  0  0  0  0
   -5.6284   -0.5199   -0.0111 C   0  0  0  0  0  0  0  0  0  0  0  0
   -5.0625    0.0904   -1.1230 C   0  0  0  0  0  0  0  0  0  0  0  0
   -3.6804    0.2510   -1.1888 C   0  0  0  0  0  0  0  0  0  0  0  0
   -2.9064   -0.2069   -0.1341 C   0  0  0  0  0  0  0  0  0  0  0  0
   -1.5185   -0.1100   -0.0721 N   0  0  0  0  0  0  0  0  0  0  0  0
   -0.6432    0.4289   -0.9847 C   0  0  0  0  0  0  0  0  0  0  0  0
   -0.9820    0.9333   -2.0519 O   0  0  0  0  0  0  0  0  0  0  0  0
    0.7666    0.3646   -0.5973 C   0  0  0  0  0  0  0  0  0  0  0  0
    1.8393    0.8323   -1.3318 C   0  0  0  0  0  0  0  0  0  0  0  0
    3.1069    0.6287   -0.6931 C   0  0  0  0  0  0  0  0  0  0  0  0
    4.4151    0.9641   -1.1206 C   0  0  0  0  0  0  0  0  0  0  0  0
    5.5148    0.6553   -0.3034 C   0  0  0  0  0  0  0  0  0  0  0  0
    6.8688    1.0060   -0.7530 N   0  0  0  0  0  4  0  0  0  0  0  0
    7.8160    0.7191   -0.0072 O   0  0  0  0  0  0  0  0  0  0  0  0
    6.9842    1.5679   -1.8512 O   0  0  0  0  0  1  0  0  0  0  0  0
    5.3384    0.0217    0.9265 C   0  0  0  0  0  0  0  0  0  0  0  0
    4.0534   -0.3152    1.3613 C   0  0  0  0  0  0  0  0  0  0  0  0
    2.9500   -0.0053    0.5410 C   0  0  0  0  0  0  0  0  0  0  0  0
    1.2926   -0.3256    0.8743 S   0  0  0  0  0  0  0  0  0  0  0  0
   -3.4420   -0.8027    0.9542 N   0  0  0  0  0  0  0  0  0  0  0  0
   -6.0450   -0.9365    2.7377 H   0  0  0  0  0  0  0  0  0  0  0  0
   -5.8983   -2.5259    1.9399 H   0  0  0  0  0  0  0  0  0  0  0  0
   -4.5655   -1.8950    2.9238 H   0  0  0  0  0  0  0  0  0  0  0  0
   -6.7032   -0.6530    0.0564 H   0  0  0  0  0  0  0  0  0  0  0  0
   -5.6906    0.4412   -1.9372 H   0  0  0  0  0  0  0  0  0  0  0  0
   -3.2514    0.7284   -2.0609 H   0  0  0  0  0  0  0  0  0  0  0  0
   -1.1433   -0.5031    0.7801 H   0  0  0  0  0  0  0  0  0  0  0  0
    1.7164    1.3069   -2.2999 H   0  0  0  0  0  0  0  0  0  0  0  0
    4.5482    1.4583   -2.0809 H   0  0  0  0  0  0  0  0  0  0  0  0
    6.1870   -0.2203    1.5646 H   0  0  0  0  0  0  0  0  0  0  0  0
    3.9097   -0.8094    2.3193 H   0  0  0  0  0  0  0  0  0  0  0  0
  1  2  1  0
  2  3  2  0
  3  4  1  0
  4  5  2  0
  5  6  1  0
  6  7  1  0
  7  8  1  0
  8  9  2  0
  8 10  1  0
 10 11  2  0
 11 12  1  0
 12 13  2  0
 13 14  1  0
 14 15  1  0
 15 16  2  0
 15 17  1  0
 14 18  2  0
 18 19  1  0
 19 20  2  0
 20 21  1  0
  6 22  2  0
 22  2  1  0
 21 10  1  0
 20 12  1  0
  1 23  1  0
  1 24  1  0
  1 25  1  0
  3 26  1  0
  4 27  1  0
  5 28  1  0
  7 29  1  0
 11 30  1  0
 13 31  1  0
 18 32  1  0
 19 33  1  0
M  CHG  2  15   1  17  -1
M  END
$$$$
