
     RDKit          3D

 57 60  0  0  0  0  0  0  0  0999 V2000
    7.0994    1.7129   -3.2095 C   0  0  0  0  0  0  0  0  0  0  0  0
    7.1443    0.4156   -2.4248 C   0  0  0  0  0  0  0  0  0  0  0  0
    5.8606    0.1456   -1.8414 O   0  0  0  0  0  0  0  0  0  0  0  0
    5.6320    0.7071   -0.6202 C   0  0  0  0  0  0  0  0  0  0  0  0
    6.4164    1.4302   -0.0230 O   0  0  0  0  0  0  0  0  0  0  0  0
    4.2393    0.3457   -0.1369 C   0  0  0  0  0  0  0  0  0  0  0  0
    4.0892   -1.1726    0.0043 C   0  0  0  0  0  0  0  0  0  0  0  0
    2.7161   -1.5423    0.5558 C   0  0  0  0  0  0  0  0  0  0  0  0
    2.5058   -0.8508    1.8479 N   0  0  0  0  0  0  0  0  0  0  0  0
    1.2905   -1.4866    2.8639 S   0  0  0  0  0  6  0  0  0  0  0  0
    1.4182   -2.9283    2.8789 O   0  0  0  0  0  0  0  0  0  0  0  0
    1.2879   -0.7244    4.0950 O   0  0  0  0  0  0  0  0  0  0  0  0
   -0.2135   -1.0909    1.9914 C   0  0  0  0  0  0  0  0  0  0  0  0
   -0.7229   -1.9964    1.0452 C   0  0  0  0  0  0  0  0  0  0  0  0
   -1.9103   -1.7075    0.3639 C   0  0  0  0  0  0  0  0  0  0  0  0
   -2.5761   -0.5269    0.6556 C   0  0  0  0  0  0  0  0  0  0  0  0
   -2.0777    0.3533    1.6192 C   0  0  0  0  0  0  0  0  0  0  0  0
   -0.9000    0.0874    2.3033 C   0  0  0  0  0  0  0  0  0  0  0  0
   -2.9778    1.5321    1.8011 C   0  0  0  0  0  0  0  0  0  0  0  0
   -4.0665    1.2703    0.7535 C   0  0  0  0  0  0  0  0  0  0  0  0
   -3.7741   -0.0234    0.1150 N   0  0  0  0  0  0  0  0  0  0  0  0
   -4.5496   -0.6317   -0.8688 C   0  0  0  0  0  0  0  0  0  0  0  0
   -4.2400   -1.7039   -1.4013 O   0  0  0  0  0  0  0  0  0  0  0  0
   -5.8509    0.1349   -1.2691 C   0  0  0  0  0  0  0  0  0  0  0  0
   -7.1063   -0.0966   -0.3827 C   0  0  0  0  0  0  0  0  0  0  0  0
   -7.5720   -1.1476   -1.4050 C   0  0  0  0  0  0  0  0  0  0  0  0
   -6.6930   -0.4346   -2.4465 C   0  0  0  0  0  0  0  0  0  0  0  0
    2.5636    0.6244    1.7314 C   0  0  0  0  0  0  0  0  0  0  0  0
    3.9330    1.0322    1.2003 C   0  0  0  0  0  0  0  0  0  0  0  0
    6.8785    2.5611   -2.5540 H   0  0  0  0  0  0  0  0  0  0  0  0
    6.3063    1.6788   -3.9637 H   0  0  0  0  0  0  0  0  0  0  0  0
    8.0546    1.8974   -3.7091 H   0  0  0  0  0  0  0  0  0  0  0  0
    7.9326    0.4330   -1.6637 H   0  0  0  0  0  0  0  0  0  0  0  0
    7.3688   -0.4158   -3.1008 H   0  0  0  0  0  0  0  0  0  0  0  0
    3.5305    0.7220   -0.8867 H   0  0  0  0  0  0  0  0  0  0  0  0
    4.8721   -1.5612    0.6691 H   0  0  0  0  0  0  0  0  0  0  0  0
    4.2305   -1.6653   -0.9649 H   0  0  0  0  0  0  0  0  0  0  0  0
    2.6801   -2.6281    0.6876 H   0  0  0  0  0  0  0  0  0  0  0  0
    1.9357   -1.2556   -0.1576 H   0  0  0  0  0  0  0  0  0  0  0  0
   -0.2050   -2.9311    0.8384 H   0  0  0  0  0  0  0  0  0  0  0  0
   -2.2902   -2.4153   -0.3657 H   0  0  0  0  0  0  0  0  0  0  0  0
   -0.5314    0.7699    3.0640 H   0  0  0  0  0  0  0  0  0  0  0  0
   -2.4551    2.4729    1.6033 H   0  0  0  0  0  0  0  0  0  0  0  0
   -3.4005    1.5506    2.8106 H   0  0  0  0  0  0  0  0  0  0  0  0
   -5.0617    1.2391    1.2090 H   0  0  0  0  0  0  0  0  0  0  0  0
   -4.0656    2.0510   -0.0154 H   0  0  0  0  0  0  0  0  0  0  0  0
   -5.6431    1.1996   -1.4380 H   0  0  0  0  0  0  0  0  0  0  0  0
   -6.9260   -0.4796    0.6254 H   0  0  0  0  0  0  0  0  0  0  0  0
   -7.7614    0.7796   -0.3152 H   0  0  0  0  0  0  0  0  0  0  0  0
   -7.2415   -2.1662   -1.1717 H   0  0  0  0  0  0  0  0  0  0  0  0
   -8.6439   -1.1617   -1.6173 H   0  0  0  0  0  0  0  0  0  0  0  0
   -6.1741   -1.0901   -3.1509 H   0  0  0  0  0  0  0  0  0  0  0  0
   -7.2236    0.3375   -3.0166 H   0  0  0  0  0  0  0  0  0  0  0  0
    1.7765    0.9808    1.0575 H   0  0  0  0  0  0  0  0  0  0  0  0
    2.4189    1.0958    2.7084 H   0  0  0  0  0  0  0  0  0  0  0  0
    4.7017    0.7695    1.9394 H   0  0  0  0  0  0  0  0  0  0  0  0
    3.9708    2.1219    1.0822 H   0  0  0  0  0  0  0  0  0  0  0  0
  1  2  1  0
  2  3  1  0
  3  4  1  0
  4  5  2  0
  4  6  1  0
  6  7  1  0
  7  8  1  0
  8  9  1  0
  9 10  1  0
 10 11  2  0
 10 12  2  0
 10 13  1  0
 13 14  2  0
 14 15  1  0
 15 16  2  0
 16 17  1  0
 17 18  2  0
 17 19  1  0
 19 20  1  0
 20 21  1  0
 21 22  1  0
 22 23  2  0
 22 24  1  0
 24 25  1  0
 25 26  1  0
 26 27  1  0
  9 28  1  0
 28 29  1  0
 29  6  1  0
 18 13  1  0
 27 24  1  0
 21 16  1  0
  1 30  1  0
  1 31  1  0
  1 32  1  0
  2 33  1  0
  2 34  1  0
  6 35  1  0
  7 36  1  0
  7 37  1  0
  8 38  1  0
  8 39  1  0
 14 40  1  0
 15 41  1  0
 18 42  1  0
 19 43  1  0
 19 44  1  0
 20 45  1  0
 20 46  1  0
 24 47  1  0
 25 48  1  0
 25 49  1  0
 26 50  1  0
 26 51  1  0
 27 52  1  0
 27 53  1  0
 28 54  1  0
 28 55  1  0
 29 56  1  0
 29 57  1  0
M  END
$$$$
