
     RDKit          3D

 46 49  0  0  0  0  0  0  0  0999 V2000
    9.0634   -0.9106    0.2243 O   0  0  0  0  0  0  0  0  0  0  0  0
    8.2498   -1.5722   -0.4365 N   0  0  0  0  0  4  0  0  0  0  0  0
    8.5593   -2.3992   -1.3064 O   0  0  0  0  0  1  0  0  0  0  0  0
    6.8216   -1.3636   -0.1691 C   0  0  0  0  0  0  0  0  0  0  0  0
    5.8667   -2.0890   -0.8923 C   0  0  0  0  0  0  0  0  0  0  0  0
    4.5085   -1.8854   -0.6357 C   0  0  0  0  0  0  0  0  0  0  0  0
    4.0968   -0.9692    0.3446 C   0  0  0  0  0  0  0  0  0  0  0  0
    2.6267   -0.7341    0.6012 C   0  0  0  0  0  0  0  0  0  0  0  0
    2.2030    0.3270   -0.2507 O   0  0  0  0  0  0  0  0  0  0  0  0
    0.8886    0.6958   -0.1817 C   0  0  0  0  0  0  0  0  0  0  0  0
   -0.0777    0.1430    0.6548 C   0  0  0  0  0  0  0  0  0  0  0  0
   -1.3952    0.6204    0.6211 C   0  0  0  0  0  0  0  0  0  0  0  0
   -1.7790    1.6478   -0.2526 C   0  0  0  0  0  0  0  0  0  0  0  0
   -3.1703    2.1265   -0.2726 C   0  0  0  0  0  0  0  0  0  0  0  0
   -3.4710    3.4408   -0.5526 N   0  0  0  0  0  0  0  0  0  0  0  0
   -4.7732    3.7549   -0.4539 N   0  0  0  0  0  0  0  0  0  0  0  0
   -5.3454    2.5868   -0.1655 C   0  0  0  0  0  0  0  0  0  0  0  0
   -4.4086    1.5324   -0.0570 C   0  0  0  0  0  0  0  0  0  0  0  0
   -4.6631    0.1287    0.1980 C   0  0  0  0  0  0  0  0  0  0  0  0
   -4.2238   -0.8504   -0.7034 C   0  0  0  0  0  0  0  0  0  0  0  0
   -4.4786   -2.2017   -0.4558 C   0  0  0  0  0  0  0  0  0  0  0  0
   -5.1787   -2.5747    0.6899 C   0  0  0  0  0  0  0  0  0  0  0  0
   -5.4881   -4.2386    0.9978 Cl  0  0  0  0  0  0  0  0  0  0  0  0
   -5.6297   -1.6090    1.5882 C   0  0  0  0  0  0  0  0  0  0  0  0
   -5.3753   -0.2571    1.3408 C   0  0  0  0  0  0  0  0  0  0  0  0
   -0.7839    2.2068   -1.0728 C   0  0  0  0  0  0  0  0  0  0  0  0
   -1.0981    3.2439   -1.9157 O   0  0  0  0  0  0  0  0  0  0  0  0
    0.5311    1.7341   -1.0433 C   0  0  0  0  0  0  0  0  0  0  0  0
    5.0651   -0.2401    1.0525 C   0  0  0  0  0  0  0  0  0  0  0  0
    6.4256   -0.4366    0.8031 C   0  0  0  0  0  0  0  0  0  0  0  0
    6.1600   -2.8060   -1.6564 H   0  0  0  0  0  0  0  0  0  0  0  0
    3.7697   -2.4414   -1.2108 H   0  0  0  0  0  0  0  0  0  0  0  0
    2.4807   -0.4681    1.6557 H   0  0  0  0  0  0  0  0  0  0  0  0
    2.0676   -1.6533    0.3852 H   0  0  0  0  0  0  0  0  0  0  0  0
    0.1502   -0.6563    1.3523 H   0  0  0  0  0  0  0  0  0  0  0  0
   -2.1167    0.1801    1.3057 H   0  0  0  0  0  0  0  0  0  0  0  0
   -2.8098    4.1624   -0.8217 H   0  0  0  0  0  0  0  0  0  0  0  0
   -6.4218    2.5432   -0.0591 H   0  0  0  0  0  0  0  0  0  0  0  0
   -3.6836   -0.5661   -1.6044 H   0  0  0  0  0  0  0  0  0  0  0  0
   -4.1321   -2.9528   -1.1603 H   0  0  0  0  0  0  0  0  0  0  0  0
   -6.1785   -1.8995    2.4801 H   0  0  0  0  0  0  0  0  0  0  0  0
   -5.7277    0.4886    2.0505 H   0  0  0  0  0  0  0  0  0  0  0  0
   -0.3377    3.4103   -2.4998 H   0  0  0  0  0  0  0  0  0  0  0  0
    1.2954    2.1691   -1.6811 H   0  0  0  0  0  0  0  0  0  0  0  0
    4.7615    0.4923    1.7989 H   0  0  0  0  0  0  0  0  0  0  0  0
    7.1564    0.1402    1.3663 H   0  0  0  0  0  0  0  0  0  0  0  0
  1  2  2  0
  2  3  1  0
  2  4  1  0
  4  5  2  0
  5  6  1  0
  6  7  2  0
  7  8  1  0
  8  9  1  0
  9 10  1  0
 10 11  2  0
 11 12  1  0
 12 13  2  0
 13 14  1  0
 14 15  1  0
 15 16  1  0
 16 17  2  0
 17 18  1  0
 18 19  1  0
 19 20  2  0
 20 21  1  0
 21 22  2  0
 22 23  1  0
 22 24  1  0
 24 25  2  0
 13 26  1  0
 26 27  1  0
 26 28  2  0
  7 29  1  0
 29 30  2  0
 30  4  1  0
 28 10  1  0
 18 14  2  0
 25 19  1  0
  5 31  1  0
  6 32  1  0
  8 33  1  0
  8 34  1  0
 11 35  1  0
 12 36  1  0
 15 37  1  0
 17 38  1  0
 20 39  1  0
 21 40  1  0
 24 41  1  0
 25 42  1  0
 27 43  1  0
 28 44  1  0
 29 45  1  0
 30 46  1  0
M  CHG  2   2   1   3  -1
M  END
$$$$
