
     RDKit          3D

 44 47  0  0  0  0  0  0  0  0999 V2000
    4.5183    0.9647    0.6563 C   0  0  0  0  0  0  0  0  0  0  0  0
    3.1347    0.2957    0.7350 C   0  0  0  0  0  0  0  0  0  0  0  0
    3.3345   -1.2253    0.6276 C   0  0  0  0  0  0  0  0  0  0  0  0
    2.2469    0.8663   -0.3855 C   0  0  0  0  0  0  0  0  0  0  0  0
    0.7617    0.4882   -0.2046 C   0  0  0  0  0  0  0  0  0  0  0  0
   -0.0612    1.3604   -1.1709 C   0  0  0  0  0  0  0  0  0  0  0  0
   -1.5293    0.9353   -1.2907 C   0  0  0  0  0  0  0  0  0  0  0  0
   -2.4204    1.5491   -0.2216 C   0  0  0  0  0  0  0  0  0  0  0  0
   -3.0445    0.9617    0.8669 C   0  0  0  0  0  0  0  0  0  0  0  0
   -3.7981    1.8919    1.6388 C   0  0  0  0  0  0  0  0  0  0  0  0
   -3.7499    3.1597    1.1087 C   0  0  0  0  0  0  0  0  0  0  0  0
   -2.8087    3.2248   -0.3135 S   0  0  0  0  0  0  0  0  0  0  0  0
   -1.6215   -0.5699   -1.3645 C   0  0  0  0  0  0  0  0  0  0  0  0
   -2.7933   -1.1806   -1.8494 C   0  0  0  0  0  0  0  0  0  0  0  0
   -2.8944   -2.5712   -1.9213 C   0  0  0  0  0  0  0  0  0  0  0  0
   -4.3568   -3.2642   -2.5178 Cl  0  0  0  0  0  0  0  0  0  0  0  0
   -1.8222   -3.3652   -1.5132 C   0  0  0  0  0  0  0  0  0  0  0  0
   -1.9132   -4.7281   -1.5807 O   0  0  0  0  0  0  0  0  0  0  0  0
   -0.6546   -2.7702   -1.0384 C   0  0  0  0  0  0  0  0  0  0  0  0
   -0.5573   -1.3772   -0.9615 C   0  0  0  0  0  0  0  0  0  0  0  0
    0.6378   -0.9052   -0.5079 O   0  0  0  0  0  0  0  0  0  0  0  0
    0.3756    0.6879    1.1785 N   0  0  0  0  0  0  0  0  0  0  0  0
    1.1994    0.6353    2.2461 C   0  0  0  0  0  0  0  0  0  0  0  0
    0.5919    0.6425    3.7907 S   0  0  0  0  0  0  0  0  0  0  0  0
    2.5330    0.6157    2.0230 N   0  0  0  0  0  0  0  0  0  0  0  0
    4.4403    2.0522    0.7705 H   0  0  0  0  0  0  0  0  0  0  0  0
    5.1793    0.6068    1.4544 H   0  0  0  0  0  0  0  0  0  0  0  0
    5.0047    0.7588   -0.3036 H   0  0  0  0  0  0  0  0  0  0  0  0
    4.0891   -1.5693    1.3455 H   0  0  0  0  0  0  0  0  0  0  0  0
    3.6727   -1.5123   -0.3738 H   0  0  0  0  0  0  0  0  0  0  0  0
    2.4243   -1.7858    0.8602 H   0  0  0  0  0  0  0  0  0  0  0  0
    2.3331    1.9625   -0.3720 H   0  0  0  0  0  0  0  0  0  0  0  0
    2.6139    0.5250   -1.3622 H   0  0  0  0  0  0  0  0  0  0  0  0
    0.0278    2.4211   -0.9055 H   0  0  0  0  0  0  0  0  0  0  0  0
    0.3808    1.2548   -2.1733 H   0  0  0  0  0  0  0  0  0  0  0  0
   -1.8853    1.3184   -2.2596 H   0  0  0  0  0  0  0  0  0  0  0  0
   -2.9650   -0.0912    1.1142 H   0  0  0  0  0  0  0  0  0  0  0  0
   -4.3506    1.6414    2.5365 H   0  0  0  0  0  0  0  0  0  0  0  0
   -4.2289    4.0528    1.4862 H   0  0  0  0  0  0  0  0  0  0  0  0
   -3.6337   -0.5656   -2.1672 H   0  0  0  0  0  0  0  0  0  0  0  0
   -1.0976   -5.1249   -1.2340 H   0  0  0  0  0  0  0  0  0  0  0  0
    0.1912   -3.3738   -0.7218 H   0  0  0  0  0  0  0  0  0  0  0  0
   -0.6017    0.5991    1.4161 H   0  0  0  0  0  0  0  0  0  0  0  0
    3.0973    0.5080    2.8593 H   0  0  0  0  0  0  0  0  0  0  0  0
  1  2  1  0
  2  3  1  0
  2  4  1  0
  4  5  1  0
  5  6  1  0
  6  7  1  0
  7  8  1  0
  8  9  2  0
  9 10  1  0
 10 11  2  0
 11 12  1  0
  7 13  1  0
 13 14  2  0
 14 15  1  0
 15 16  1  0
 15 17  2  0
 17 18  1  0
 17 19  1  0
 19 20  2  0
 20 21  1  0
  5 22  1  0
 22 23  1  0
 23 24  2  0
 23 25  1  0
 25  2  1  0
 21  5  1  0
 12  8  1  0
 20 13  1  0
  1 26  1  0
  1 27  1  0
  1 28  1  0
  3 29  1  0
  3 30  1  0
  3 31  1  0
  4 32  1  0
  4 33  1  0
  6 34  1  0
  6 35  1  0
  7 36  1  0
  9 37  1  0
 10 38  1  0
 11 39  1  0
 14 40  1  0
 18 41  1  0
 19 42  1  0
 22 43  1  0
 25 44  1  0
M  END
$$$$
