
     RDKit          3D

 52 55  0  0  0  0  0  0  0  0999 V2000
   -5.1934   -1.0620    3.1991 C   0  0  0  0  0  0  0  0  0  0  0  0
   -4.5624    0.2409    2.7325 C   0  0  0  0  0  0  0  0  0  0  0  0
   -4.7423    0.4393    1.2242 C   0  0  0  0  0  0  0  0  0  0  0  0
   -4.1856    1.7767    0.7273 C   0  0  0  0  0  0  0  0  0  0  0  0
   -2.6999    1.8501    0.7900 C   0  0  0  0  0  0  0  0  0  0  0  0
   -2.0542    2.4529    1.7739 N   0  0  0  0  0  0  0  0  0  0  0  0
   -0.7121    2.3614    1.5403 N   0  0  0  0  0  0  0  0  0  0  0  0
   -0.5511    1.6939    0.4211 C   0  0  0  0  0  0  0  0  0  0  0  0
    0.6760    1.3395   -0.2402 C   0  0  0  0  0  0  0  0  0  0  0  0
    1.9103    1.7152    0.3572 N   0  0  0  0  0  0  0  0  0  0  0  0
    2.0742    1.9401    1.8115 C   0  0  0  0  0  0  0  0  0  0  0  0
    3.3557    1.7581   -0.5362 S   0  0  0  0  0  6  0  0  0  0  0  0
    3.0861    1.9221   -1.9488 O   0  0  0  0  0  0  0  0  0  0  0  0
    4.2676    2.6711    0.1280 O   0  0  0  0  0  0  0  0  0  0  0  0
    3.9909    0.1102   -0.2946 C   0  0  0  0  0  0  0  0  0  0  0  0
    3.5830   -0.9167   -1.1488 C   0  0  0  0  0  0  0  0  0  0  0  0
    4.0944   -2.2037   -0.9745 C   0  0  0  0  0  0  0  0  0  0  0  0
    5.0163   -2.4695    0.0469 C   0  0  0  0  0  0  0  0  0  0  0  0
    5.5929   -3.8457    0.2075 C   0  0  0  0  0  0  0  0  0  0  0  0
    5.4457   -1.4221    0.8732 C   0  0  0  0  0  0  0  0  0  0  0  0
    4.9373   -0.1328    0.7044 C   0  0  0  0  0  0  0  0  0  0  0  0
    0.6423    0.6740   -1.3505 N   0  0  0  0  0  0  0  0  0  0  0  0
   -0.6003    0.3202   -1.9137 C   0  0  0  0  0  0  0  0  0  0  0  0
   -0.5784   -0.3769   -3.1242 C   0  0  0  0  0  0  0  0  0  0  0  0
   -1.7652   -0.7691   -3.7404 C   0  0  0  0  0  0  0  0  0  0  0  0
   -2.9873   -0.4650   -3.1463 C   0  0  0  0  0  0  0  0  0  0  0  0
   -3.0330    0.2354   -1.9372 C   0  0  0  0  0  0  0  0  0  0  0  0
   -1.8439    0.6305   -1.3216 C   0  0  0  0  0  0  0  0  0  0  0  0
   -1.7738    1.3475   -0.1073 N   0  0  0  0  0  0  0  0  0  0  0  0
   -4.7378   -1.9207    2.6955 H   0  0  0  0  0  0  0  0  0  0  0  0
   -6.2686   -1.0732    2.9936 H   0  0  0  0  0  0  0  0  0  0  0  0
   -5.0526   -1.1864    4.2774 H   0  0  0  0  0  0  0  0  0  0  0  0
   -5.0202    1.0757    3.2757 H   0  0  0  0  0  0  0  0  0  0  0  0
   -3.4977    0.2288    2.9904 H   0  0  0  0  0  0  0  0  0  0  0  0
   -4.2743   -0.3975    0.6930 H   0  0  0  0  0  0  0  0  0  0  0  0
   -5.8135    0.4062    0.9891 H   0  0  0  0  0  0  0  0  0  0  0  0
   -4.6005    2.5828    1.3470 H   0  0  0  0  0  0  0  0  0  0  0  0
   -4.5387    1.9959   -0.2842 H   0  0  0  0  0  0  0  0  0  0  0  0
    3.1027    1.7881    2.1492 H   0  0  0  0  0  0  0  0  0  0  0  0
    1.7830    2.9629    2.0661 H   0  0  0  0  0  0  0  0  0  0  0  0
    1.4683    1.2259    2.3781 H   0  0  0  0  0  0  0  0  0  0  0  0
    2.8764   -0.7218   -1.9525 H   0  0  0  0  0  0  0  0  0  0  0  0
    3.7739   -2.9977   -1.6459 H   0  0  0  0  0  0  0  0  0  0  0  0
    6.4963   -3.9461   -0.4019 H   0  0  0  0  0  0  0  0  0  0  0  0
    4.8712   -4.6099   -0.1000 H   0  0  0  0  0  0  0  0  0  0  0  0
    5.8475   -4.0423    1.2542 H   0  0  0  0  0  0  0  0  0  0  0  0
    6.1865   -1.6043    1.6494 H   0  0  0  0  0  0  0  0  0  0  0  0
    5.2911    0.6708    1.3460 H   0  0  0  0  0  0  0  0  0  0  0  0
    0.3761   -0.6093   -3.5914 H   0  0  0  0  0  0  0  0  0  0  0  0
   -1.7340   -1.3089   -4.6837 H   0  0  0  0  0  0  0  0  0  0  0  0
   -3.9121   -0.7731   -3.6304 H   0  0  0  0  0  0  0  0  0  0  0  0
   -4.0127    0.4388   -1.5296 H   0  0  0  0  0  0  0  0  0  0  0  0
  1  2  1  0
  2  3  1  0
  3  4  1  0
  4  5  1  0
  5  6  2  0
  6  7  1  0
  7  8  2  0
  8  9  1  0
  9 10  1  0
 10 11  1  0
 10 12  1  0
 12 13  2  0
 12 14  2  0
 12 15  1  0
 15 16  2  0
 16 17  1  0
 17 18  2  0
 18 19  1  0
 18 20  1  0
 20 21  2  0
  9 22  2  0
 22 23  1  0
 23 24  2  0
 24 25  1  0
 25 26  2  0
 26 27  1  0
 27 28  2  0
 28 29  1  0
 29  5  1  0
 29  8  1  0
 21 15  1  0
 28 23  1  0
  1 30  1  0
  1 31  1  0
  1 32  1  0
  2 33  1  0
  2 34  1  0
  3 35  1  0
  3 36  1  0
  4 37  1  0
  4 38  1  0
 11 39  1  0
 11 40  1  0
 11 41  1  0
 16 42  1  0
 17 43  1  0
 19 44  1  0
 19 45  1  0
 19 46  1  0
 20 47  1  0
 21 48  1  0
 24 49  1  0
 25 50  1  0
 26 51  1  0
 27 52  1  0
M  END
$$$$
