
     RDKit          3D

 35 36  0  0  0  0  0  0  0  0999 V2000
    2.4398    1.2522   -0.9513 O   0  0  0  0  0  0  0  0  0  0  0  0
    2.4026    0.3540   -0.1180 C   0  0  0  0  0  0  0  0  0  0  0  0
    1.2537   -0.0226    0.5502 N   0  0  0  0  0  0  0  0  0  0  0  0
    0.0057    0.7008    0.3665 C   0  0  0  0  0  0  0  0  0  0  0  0
   -0.6647    0.3579   -0.9630 C   0  0  0  0  0  0  0  0  0  0  0  0
   -1.9555    1.1433   -1.1892 C   0  0  0  0  0  0  0  0  0  0  0  0
   -3.0641    0.7003   -0.3598 N   0  0  0  0  0  0  0  0  0  0  0  0
   -3.7742   -0.5288   -0.6084 C   0  0  0  0  0  0  0  0  0  0  0  0
   -4.9678   -0.4281    0.3205 C   0  0  0  0  0  0  0  0  0  0  0  0
   -4.4362    0.3653    1.5083 C   0  0  0  0  0  0  0  0  0  0  0  0
   -3.3529    1.2188    0.8947 C   0  0  0  0  0  0  0  0  0  0  0  0
   -2.7965    2.1560    1.4419 O   0  0  0  0  0  0  0  0  0  0  0  0
    3.6465   -0.3658    0.2393 C   0  0  0  0  0  0  0  0  0  0  0  0
    4.8815    0.2675    0.0866 C   0  0  0  0  0  0  0  0  0  0  0  0
    6.0491   -0.4158    0.4191 C   0  0  0  0  0  0  0  0  0  0  0  0
    5.9392   -1.7159    0.8872 C   0  0  0  0  0  0  0  0  0  0  0  0
    4.7624   -2.3650    1.0330 N   0  0  0  0  0  0  0  0  0  0  0  0
    3.6431   -1.6773    0.6949 C   0  0  0  0  0  0  0  0  0  0  0  0
    1.3367   -0.5745    1.3936 H   0  0  0  0  0  0  0  0  0  0  0  0
   -0.6372    0.4217    1.2065 H   0  0  0  0  0  0  0  0  0  0  0  0
    0.2144    1.7744    0.4324 H   0  0  0  0  0  0  0  0  0  0  0  0
    0.0218    0.5902   -1.7859 H   0  0  0  0  0  0  0  0  0  0  0  0
   -0.8541   -0.7209   -1.0160 H   0  0  0  0  0  0  0  0  0  0  0  0
   -2.2732    1.0415   -2.2330 H   0  0  0  0  0  0  0  0  0  0  0  0
   -1.7819    2.2091   -1.0010 H   0  0  0  0  0  0  0  0  0  0  0  0
   -3.1276   -1.3711   -0.3417 H   0  0  0  0  0  0  0  0  0  0  0  0
   -4.0703   -0.5999   -1.6585 H   0  0  0  0  0  0  0  0  0  0  0  0
   -5.3704   -1.4043    0.6046 H   0  0  0  0  0  0  0  0  0  0  0  0
   -5.7711    0.1392   -0.1663 H   0  0  0  0  0  0  0  0  0  0  0  0
   -5.2137    0.9842    1.9623 H   0  0  0  0  0  0  0  0  0  0  0  0
   -3.9853   -0.2914    2.2585 H   0  0  0  0  0  0  0  0  0  0  0  0
    4.9330    1.2875   -0.2876 H   0  0  0  0  0  0  0  0  0  0  0  0
    7.0203    0.0551    0.3134 H   0  0  0  0  0  0  0  0  0  0  0  0
    6.8215   -2.2884    1.1606 H   0  0  0  0  0  0  0  0  0  0  0  0
    2.7255   -2.2492    0.7915 H   0  0  0  0  0  0  0  0  0  0  0  0
  1  2  2  0
  2  3  1  0
  3  4  1  0
  4  5  1  0
  5  6  1  0
  6  7  1  0
  7  8  1  0
  8  9  1  0
  9 10  1  0
 10 11  1  0
 11 12  2  0
  2 13  1  0
 13 14  2  0
 14 15  1  0
 15 16  2  0
 16 17  1  0
 17 18  2  0
 11  7  1  0
 18 13  1  0
  3 19  1  0
  4 20  1  0
  4 21  1  0
  5 22  1  0
  5 23  1  0
  6 24  1  0
  6 25  1  0
  8 26  1  0
  8 27  1  0
  9 28  1  0
  9 29  1  0
 10 30  1  0
 10 31  1  0
 14 32  1  0
 15 33  1  0
 16 34  1  0
 18 35  1  0
M  END
$$$$
