
     RDKit          3D

 50 51  0  0  0  0  0  0  0  0999 V2000
    8.8148   -1.4641    0.9256 C   0  0  0  0  0  0  0  0  0  0  0  0
    7.6022   -0.7825    0.6018 O   0  0  0  0  0  0  0  0  0  0  0  0
    6.6135   -0.9531    1.5146 C   0  0  0  0  0  0  0  0  0  0  0  0
    6.6919   -1.6176    2.5362 O   0  0  0  0  0  0  0  0  0  0  0  0
    5.3875   -0.2126    1.1095 C   0  0  0  0  0  0  0  0  0  0  0  0
    4.2703   -0.2722    1.9533 C   0  0  0  0  0  0  0  0  0  0  0  0
    3.0932    0.4032    1.6188 C   0  0  0  0  0  0  0  0  0  0  0  0
    3.0178    1.1538    0.4381 C   0  0  0  0  0  0  0  0  0  0  0  0
    1.7447    1.8648    0.0556 C   0  0  0  0  0  0  0  0  0  0  0  0
    0.9578    1.0530   -0.8415 N   0  0  0  0  0  0  0  0  0  0  0  0
    0.9817    1.2363   -2.2073 C   0  0  0  0  0  0  0  0  0  0  0  0
    1.6249    2.1239   -2.7611 O   0  0  0  0  0  0  0  0  0  0  0  0
    0.1913    0.1897   -2.9966 C   0  0  0  0  0  0  0  0  0  0  0  0
   -0.7766   -0.5240   -2.2220 O   0  0  0  0  0  0  0  0  0  0  0  0
   -1.9582    0.1355   -2.0460 C   0  0  0  0  0  0  0  0  0  0  0  0
   -2.2062    1.2545   -2.4669 O   0  0  0  0  0  0  0  0  0  0  0  0
   -2.8966   -0.7292   -1.2360 C   0  0  0  0  0  0  0  0  0  0  0  0
   -4.2618   -0.0648   -1.0479 C   0  0  0  0  0  0  0  0  0  0  0  0
   -5.2695   -0.9709   -0.3190 C   0  0  0  0  0  0  0  0  0  0  0  0
   -6.6578   -0.3293   -0.2520 C   0  0  0  0  0  0  0  0  0  0  0  0
   -6.6076    0.6024    0.9550 C   0  0  0  0  0  0  0  0  0  0  0  0
   -5.5066    0.0579    1.8637 C   0  0  0  0  0  0  0  0  0  0  0  0
   -4.9560   -1.1806    1.1634 C   0  0  0  0  0  0  0  0  0  0  0  0
    4.1350    1.2045   -0.4083 C   0  0  0  0  0  0  0  0  0  0  0  0
    5.3130    0.5295   -0.0755 C   0  0  0  0  0  0  0  0  0  0  0  0
    9.2252   -1.0889    1.8684 H   0  0  0  0  0  0  0  0  0  0  0  0
    9.5378   -1.2655    0.1298 H   0  0  0  0  0  0  0  0  0  0  0  0
    8.6455   -2.5441    0.9782 H   0  0  0  0  0  0  0  0  0  0  0  0
    4.3127   -0.8468    2.8771 H   0  0  0  0  0  0  0  0  0  0  0  0
    2.2386    0.3402    2.2892 H   0  0  0  0  0  0  0  0  0  0  0  0
    1.9720    2.8367   -0.3968 H   0  0  0  0  0  0  0  0  0  0  0  0
    1.1326    2.0559    0.9439 H   0  0  0  0  0  0  0  0  0  0  0  0
    0.5607    0.1928   -0.4872 H   0  0  0  0  0  0  0  0  0  0  0  0
    0.9108   -0.5465   -3.3702 H   0  0  0  0  0  0  0  0  0  0  0  0
   -0.2769    0.6654   -3.8662 H   0  0  0  0  0  0  0  0  0  0  0  0
   -2.4242   -0.9134   -0.2662 H   0  0  0  0  0  0  0  0  0  0  0  0
   -3.0202   -1.6822   -1.7623 H   0  0  0  0  0  0  0  0  0  0  0  0
   -4.1341    0.8865   -0.5167 H   0  0  0  0  0  0  0  0  0  0  0  0
   -4.6682    0.1907   -2.0355 H   0  0  0  0  0  0  0  0  0  0  0  0
   -5.3240   -1.9328   -0.8421 H   0  0  0  0  0  0  0  0  0  0  0  0
   -7.4121   -1.1068   -0.0768 H   0  0  0  0  0  0  0  0  0  0  0  0
   -6.9371    0.1985   -1.1691 H   0  0  0  0  0  0  0  0  0  0  0  0
   -6.3615    1.6236    0.6421 H   0  0  0  0  0  0  0  0  0  0  0  0
   -7.5748    0.6417    1.4663 H   0  0  0  0  0  0  0  0  0  0  0  0
   -5.8857   -0.1851    2.8615 H   0  0  0  0  0  0  0  0  0  0  0  0
   -4.7192    0.8103    1.9873 H   0  0  0  0  0  0  0  0  0  0  0  0
   -5.4939   -2.0661    1.5259 H   0  0  0  0  0  0  0  0  0  0  0  0
   -3.8962   -1.3359    1.3796 H   0  0  0  0  0  0  0  0  0  0  0  0
    4.0883    1.7718   -1.3379 H   0  0  0  0  0  0  0  0  0  0  0  0
    6.1611    0.5916   -0.7530 H   0  0  0  0  0  0  0  0  0  0  0  0
  1  2  1  0
  2  3  1  0
  3  4  2  0
  3  5  1  0
  5  6  2  0
  6  7  1  0
  7  8  2  0
  8  9  1  0
  9 10  1  0
 10 11  1  0
 11 12  2  0
 11 13  1  0
 13 14  1  0
 14 15  1  0
 15 16  2  0
 15 17  1  0
 17 18  1  0
 18 19  1  0
 19 20  1  0
 20 21  1  0
 21 22  1  0
 22 23  1  0
  8 24  1  0
 24 25  2  0
 25  5  1  0
 23 19  1  0
  1 26  1  0
  1 27  1  0
  1 28  1  0
  6 29  1  0
  7 30  1  0
  9 31  1  0
  9 32  1  0
 10 33  1  0
 13 34  1  0
 13 35  1  0
 17 36  1  0
 17 37  1  0
 18 38  1  0
 18 39  1  0
 19 40  1  0
 20 41  1  0
 20 42  1  0
 21 43  1  0
 21 44  1  0
 22 45  1  0
 22 46  1  0
 23 47  1  0
 23 48  1  0
 24 49  1  0
 25 50  1  0
M  END
$$$$
