
     RDKit          3D

 63 67  0  0  0  0  0  0  0  0999 V2000
   -2.7481    0.2376   -2.3214 O   0  0  0  0  0  0  0  0  0  0  0  0
   -2.7610   -0.3619   -1.2518 C   0  0  0  0  0  0  0  0  0  0  0  0
   -3.8481   -0.3783   -0.4090 N   0  0  0  0  0  0  0  0  0  0  0  0
   -5.1155    0.2373   -0.7794 C   0  0  0  0  0  0  0  0  0  0  0  0
   -5.9096   -0.6763   -1.7272 C   0  0  0  0  0  0  0  0  0  0  0  0
   -6.4945   -1.8666   -0.9733 C   0  0  0  0  0  0  0  0  0  0  0  0
   -7.4779   -1.3955    0.0946 C   0  0  0  0  0  0  0  0  0  0  0  0
   -6.9708   -0.2340    0.9143 C   0  0  0  0  0  0  0  0  0  0  0  0
   -7.6405    0.0984    2.1025 C   0  0  0  0  0  0  0  0  0  0  0  0
   -7.2360    1.1938    2.8659 C   0  0  0  0  0  0  0  0  0  0  0  0
   -6.1622    1.9739    2.4483 C   0  0  0  0  0  0  0  0  0  0  0  0
   -5.4933    1.6599    1.2657 C   0  0  0  0  0  0  0  0  0  0  0  0
   -5.8922    0.5621    0.4831 C   0  0  0  0  0  0  0  0  0  0  0  0
   -1.5495   -1.1032   -0.8003 C   0  0  0  0  0  0  0  0  0  0  0  0
   -1.6220   -2.1864    0.0889 C   0  0  0  0  0  0  0  0  0  0  0  0
   -0.4614   -2.8685    0.4688 C   0  0  0  0  0  0  0  0  0  0  0  0
    0.7772   -2.4802   -0.0398 C   0  0  0  0  0  0  0  0  0  0  0  0
    0.8464   -1.4063   -0.9311 C   0  0  0  0  0  0  0  0  0  0  0  0
    2.4086   -0.9110   -1.6161 S   0  0  0  0  0  6  0  0  0  0  0  0
    3.4326   -1.7751   -1.0701 O   0  0  0  0  0  0  0  0  0  0  0  0
    2.2237   -0.7835   -3.0443 O   0  0  0  0  0  0  0  0  0  0  0  0
    2.6136    0.6412   -0.9532 N   0  0  0  0  0  0  0  0  0  0  0  0
    2.8903    0.7173    0.5204 C   0  0  0  0  0  0  0  0  0  0  0  0
    4.3747    0.4632    0.8677 C   0  0  0  0  0  0  0  0  0  0  0  0
    5.2618    1.3429    0.0768 N   0  0  0  0  0  0  0  0  0  0  0  0
    6.6255    1.3701    0.4160 C   0  0  0  0  0  0  0  0  0  0  0  0
    7.2626    0.3695    1.1642 C   0  0  0  0  0  0  0  0  0  0  0  0
    8.6245    0.4498    1.4802 C   0  0  0  0  0  0  0  0  0  0  0  0
    9.3776    1.5420    1.0610 C   0  0  0  0  0  0  0  0  0  0  0  0
    8.7693    2.5521    0.3257 C   0  0  0  0  0  0  0  0  0  0  0  0
    7.4096    2.4639    0.0104 C   0  0  0  0  0  0  0  0  0  0  0  0
    5.0286    1.2282   -1.3856 C   0  0  0  0  0  0  0  0  0  0  0  0
    3.5542    1.5329   -1.7065 C   0  0  0  0  0  0  0  0  0  0  0  0
   -0.3081   -0.7209   -1.3219 C   0  0  0  0  0  0  0  0  0  0  0  0
   -3.7928   -0.8061    0.5028 H   0  0  0  0  0  0  0  0  0  0  0  0
   -4.8998    1.1686   -1.3183 H   0  0  0  0  0  0  0  0  0  0  0  0
   -5.2747   -1.0341   -2.5465 H   0  0  0  0  0  0  0  0  0  0  0  0
   -6.7286   -0.1063   -2.1860 H   0  0  0  0  0  0  0  0  0  0  0  0
   -5.6884   -2.4477   -0.5081 H   0  0  0  0  0  0  0  0  0  0  0  0
   -7.0079   -2.5383   -1.6711 H   0  0  0  0  0  0  0  0  0  0  0  0
   -7.7149   -2.2405    0.7524 H   0  0  0  0  0  0  0  0  0  0  0  0
   -8.4113   -1.0837   -0.3906 H   0  0  0  0  0  0  0  0  0  0  0  0
   -8.4903   -0.4944    2.4351 H   0  0  0  0  0  0  0  0  0  0  0  0
   -7.7642    1.4419    3.7830 H   0  0  0  0  0  0  0  0  0  0  0  0
   -5.8472    2.8293    3.0401 H   0  0  0  0  0  0  0  0  0  0  0  0
   -4.6550    2.2783    0.9491 H   0  0  0  0  0  0  0  0  0  0  0  0
   -2.5752   -2.5401    0.4714 H   0  0  0  0  0  0  0  0  0  0  0  0
   -0.5281   -3.7146    1.1497 H   0  0  0  0  0  0  0  0  0  0  0  0
    1.6735   -3.0253    0.2493 H   0  0  0  0  0  0  0  0  0  0  0  0
    2.6020    1.7223    0.8564 H   0  0  0  0  0  0  0  0  0  0  0  0
    2.2501    0.0172    1.0687 H   0  0  0  0  0  0  0  0  0  0  0  0
    4.6246   -0.5877    0.6971 H   0  0  0  0  0  0  0  0  0  0  0  0
    4.5067    0.6666    1.9373 H   0  0  0  0  0  0  0  0  0  0  0  0
    6.7225   -0.5102    1.5008 H   0  0  0  0  0  0  0  0  0  0  0  0
    9.0935   -0.3467    2.0519 H   0  0  0  0  0  0  0  0  0  0  0  0
   10.4334    1.6049    1.3082 H   0  0  0  0  0  0  0  0  0  0  0  0
    9.3445    3.4152    0.0012 H   0  0  0  0  0  0  0  0  0  0  0  0
    6.9508    3.2798   -0.5425 H   0  0  0  0  0  0  0  0  0  0  0  0
    5.2949    0.2200   -1.7269 H   0  0  0  0  0  0  0  0  0  0  0  0
    5.6425    1.9404   -1.9481 H   0  0  0  0  0  0  0  0  0  0  0  0
    3.3698    1.4659   -2.7848 H   0  0  0  0  0  0  0  0  0  0  0  0
    3.3208    2.5681   -1.4229 H   0  0  0  0  0  0  0  0  0  0  0  0
   -0.2412    0.1027   -2.0322 H   0  0  0  0  0  0  0  0  0  0  0  0
  1  2  2  0
  2  3  1  0
  3  4  1  0
  4  5  1  0
  5  6  1  0
  6  7  1  0
  7  8  1  0
  8  9  2  0
  9 10  1  0
 10 11  2  0
 11 12  1  0
 12 13  2  0
  2 14  1  0
 14 15  2  0
 15 16  1  0
 16 17  2  0
 17 18  1  0
 18 19  1  0
 19 20  2  0
 19 21  2  0
 19 22  1  0
 22 23  1  0
 23 24  1  0
 24 25  1  0
 25 26  1  0
 26 27  2  0
 27 28  1  0
 28 29  2  0
 29 30  1  0
 30 31  2  0
 25 32  1  0
 32 33  1  0
 18 34  2  0
 13  4  1  0
 34 14  1  0
 13  8  1  0
 33 22  1  0
 31 26  1  0
  3 35  1  0
  4 36  1  0
  5 37  1  0
  5 38  1  0
  6 39  1  0
  6 40  1  0
  7 41  1  0
  7 42  1  0
  9 43  1  0
 10 44  1  0
 11 45  1  0
 12 46  1  0
 15 47  1  0
 16 48  1  0
 17 49  1  0
 23 50  1  0
 23 51  1  0
 24 52  1  0
 24 53  1  0
 27 54  1  0
 28 55  1  0
 29 56  1  0
 30 57  1  0
 31 58  1  0
 32 59  1  0
 32 60  1  0
 33 61  1  0
 33 62  1  0
 34 63  1  0
M  END
$$$$
