
     RDKit          3D

 55 58  0  0  0  0  0  0  0  0999 V2000
    4.2065    2.3921    2.8430 C   0  0  0  0  0  0  0  0  0  0  0  0
    3.3513    1.7768    1.7498 C   0  0  0  0  0  0  0  0  0  0  0  0
    4.0314    0.6207    1.2623 O   0  0  0  0  0  0  0  0  0  0  0  0
    3.3319   -0.2032    0.4180 C   0  0  0  0  0  0  0  0  0  0  0  0
    2.1718    0.1746   -0.2689 C   0  0  0  0  0  0  0  0  0  0  0  0
    1.5046   -0.7255   -1.1128 C   0  0  0  0  0  0  0  0  0  0  0  0
    0.2873   -0.3585   -1.8559 C   0  0  0  0  0  0  0  0  0  0  0  0
   -0.8311    0.2411   -1.4007 C   0  0  0  0  0  0  0  0  0  0  0  0
   -1.9024    0.5123   -2.4067 C   0  0  0  0  0  0  0  0  0  0  0  0
   -2.1042    1.6769   -2.7522 O   0  0  0  0  0  0  0  0  0  0  0  0
   -2.6473   -0.5619   -2.8596 N   0  0  0  0  0  0  0  0  0  0  0  0
   -3.7508   -0.3231   -3.7949 C   0  0  0  0  0  0  0  0  0  0  0  0
   -4.9593   -1.2006   -3.4551 C   0  0  0  0  0  0  0  0  0  0  0  0
   -4.6753   -2.6062   -3.4572 O   0  0  0  0  0  0  0  0  0  0  0  0
   -3.3021   -2.9268   -3.2083 C   0  0  0  0  0  0  0  0  0  0  0  0
   -2.5966   -1.9194   -2.2950 C   0  0  0  0  0  0  0  0  0  0  0  0
   -1.0242    0.6866   -0.0677 C   0  0  0  0  0  0  0  0  0  0  0  0
   -0.6432    0.1778    1.0885 N   0  0  0  0  0  0  0  0  0  0  0  0
   -1.0820    1.0531    2.0511 C   0  0  0  0  0  0  0  0  0  0  0  0
   -0.9430    0.9972    3.4447 C   0  0  0  0  0  0  0  0  0  0  0  0
   -1.4836    2.0343    4.2161 C   0  0  0  0  0  0  0  0  0  0  0  0
   -2.1438    3.1061    3.6096 C   0  0  0  0  0  0  0  0  0  0  0  0
   -2.2905    3.1793    2.2193 C   0  0  0  0  0  0  0  0  0  0  0  0
   -1.7466    2.1289    1.4778 C   0  0  0  0  0  0  0  0  0  0  0  0
   -1.7060    1.8693    0.1330 N   0  0  0  0  0  0  0  0  0  0  0  0
    2.0492   -1.9980   -1.3162 C   0  0  0  0  0  0  0  0  0  0  0  0
    3.2199   -2.3770   -0.6579 C   0  0  0  0  0  0  0  0  0  0  0  0
    3.8477   -3.9594   -0.9523 Cl  0  0  0  0  0  0  0  0  0  0  0  0
    3.8503   -1.4930    0.2242 C   0  0  0  0  0  0  0  0  0  0  0  0
    5.0145   -1.8814    0.8445 O   0  0  0  0  0  0  0  0  0  0  0  0
    4.7603   -2.2382    2.2034 C   0  0  0  0  0  0  0  0  0  0  0  0
    3.7314    3.2887    3.2520 H   0  0  0  0  0  0  0  0  0  0  0  0
    4.3694    1.6746    3.6539 H   0  0  0  0  0  0  0  0  0  0  0  0
    5.1924    2.6629    2.4524 H   0  0  0  0  0  0  0  0  0  0  0  0
    2.3758    1.5054    2.1702 H   0  0  0  0  0  0  0  0  0  0  0  0
    3.2259    2.5065    0.9414 H   0  0  0  0  0  0  0  0  0  0  0  0
    1.7695    1.1761   -0.1563 H   0  0  0  0  0  0  0  0  0  0  0  0
    0.3330   -0.6331   -2.9101 H   0  0  0  0  0  0  0  0  0  0  0  0
   -4.0407    0.7315   -3.7990 H   0  0  0  0  0  0  0  0  0  0  0  0
   -3.3718   -0.5774   -4.7911 H   0  0  0  0  0  0  0  0  0  0  0  0
   -5.7674   -1.0280   -4.1734 H   0  0  0  0  0  0  0  0  0  0  0  0
   -5.3441   -0.9464   -2.4609 H   0  0  0  0  0  0  0  0  0  0  0  0
   -2.7935   -2.9851   -4.1783 H   0  0  0  0  0  0  0  0  0  0  0  0
   -3.2706   -3.9270   -2.7645 H   0  0  0  0  0  0  0  0  0  0  0  0
   -3.1012   -1.8759   -1.3230 H   0  0  0  0  0  0  0  0  0  0  0  0
   -1.5629   -2.2302   -2.1332 H   0  0  0  0  0  0  0  0  0  0  0  0
   -0.4290    0.1635    3.9084 H   0  0  0  0  0  0  0  0  0  0  0  0
   -1.3877    2.0010    5.2996 H   0  0  0  0  0  0  0  0  0  0  0  0
   -2.5552    3.9005    4.2307 H   0  0  0  0  0  0  0  0  0  0  0  0
   -2.8037    4.0114    1.7495 H   0  0  0  0  0  0  0  0  0  0  0  0
   -2.0826    2.4538   -0.6032 H   0  0  0  0  0  0  0  0  0  0  0  0
    1.5641   -2.7017   -1.9879 H   0  0  0  0  0  0  0  0  0  0  0  0
    4.6319   -1.3483    2.8254 H   0  0  0  0  0  0  0  0  0  0  0  0
    5.6336   -2.7822    2.5740 H   0  0  0  0  0  0  0  0  0  0  0  0
    3.8886   -2.8955    2.2995 H   0  0  0  0  0  0  0  0  0  0  0  0
  1  2  1  0
  2  3  1  0
  3  4  1  0
  4  5  2  0
  5  6  1  0
  6  7  1  0
  7  8  2  3
  8  9  1  0
  9 10  2  0
  9 11  1  0
 11 12  1  0
 12 13  1  0
 13 14  1  0
 14 15  1  0
 15 16  1  0
  8 17  1  0
 17 18  2  0
 18 19  1  0
 19 20  2  0
 20 21  1  0
 21 22  2  0
 22 23  1  0
 23 24  2  0
 24 25  1  0
  6 26  2  0
 26 27  1  0
 27 28  1  0
 27 29  2  0
 29 30  1  0
 30 31  1  0
 29  4  1  0
 16 11  1  0
 25 17  1  0
 24 19  1  0
  1 32  1  0
  1 33  1  0
  1 34  1  0
  2 35  1  0
  2 36  1  0
  5 37  1  0
  7 38  1  0
 12 39  1  0
 12 40  1  0
 13 41  1  0
 13 42  1  0
 15 43  1  0
 15 44  1  0
 16 45  1  0
 16 46  1  0
 20 47  1  0
 21 48  1  0
 22 49  1  0
 23 50  1  0
 25 51  1  0
 26 52  1  0
 31 53  1  0
 31 54  1  0
 31 55  1  0
M  END
$$$$
