
     RDKit          3D

 67 69  0  0  0  0  0  0  0  0999 V2000
   -0.3113    0.8480    2.3499 C   0  0  0  0  0  0  0  0  0  0  0  0
   -0.5448   -0.2633    1.3317 C   0  0  0  0  0  0  0  0  0  0  0  0
   -1.7657    0.0123    0.5758 N   0  0  0  0  0  0  0  0  0  0  0  0
   -3.0144   -0.2710    1.0725 C   0  0  0  0  0  0  0  0  0  0  0  0
   -3.1965   -0.8003    2.1636 O   0  0  0  0  0  0  0  0  0  0  0  0
   -4.1706    0.0838    0.2059 C   0  0  0  0  0  0  0  0  0  0  0  0
   -4.1173    1.1382   -0.7087 C   0  0  0  0  0  0  0  0  0  0  0  0
   -5.2405    1.4578   -1.4838 C   0  0  0  0  0  0  0  0  0  0  0  0
   -6.4430    0.7395   -1.3647 C   0  0  0  0  0  0  0  0  0  0  0  0
   -7.6958    1.0726   -2.1950 C   0  0  0  0  0  0  0  0  0  0  0  0
   -7.5016    2.2546   -3.1715 C   0  0  0  0  0  0  0  0  0  0  0  0
   -8.8591    1.4473   -1.2499 C   0  0  0  0  0  0  0  0  0  0  0  0
   -8.1027   -0.1558   -3.0372 C   0  0  0  0  0  0  0  0  0  0  0  0
   -6.4750   -0.3151   -0.4308 C   0  0  0  0  0  0  0  0  0  0  0  0
   -5.3582   -0.6357    0.3484 C   0  0  0  0  0  0  0  0  0  0  0  0
    0.6236   -0.3399    0.3210 C   0  0  0  0  0  0  0  0  0  0  0  0
    0.4857    0.1626   -0.8018 O   0  0  0  0  0  0  0  0  0  0  0  0
    1.8088   -0.9616    0.7003 N   0  0  0  0  0  0  0  0  0  0  0  0
    2.9657   -0.8221   -0.1897 C   0  0  0  0  0  0  0  0  0  0  0  0
    3.9471   -2.0023   -0.0962 C   0  0  0  0  0  0  0  0  0  0  0  0
    4.3164   -2.4179    1.2622 N   0  0  0  0  0  0  0  0  0  0  0  0
    5.4819   -1.7413    1.8227 C   0  0  0  0  0  0  0  0  0  0  0  0
    5.3364   -0.2850    2.1600 C   0  0  0  0  0  0  0  0  0  0  0  0
    5.9857    0.7540    1.6075 C   0  0  0  0  0  0  0  0  0  0  0  0
    6.9638    0.6523    0.5248 C   0  0  0  0  0  0  0  0  0  0  0  0
    8.2800    0.2593    0.7941 C   0  0  0  0  0  0  0  0  0  0  0  0
    9.2092    0.1616   -0.2434 C   0  0  0  0  0  0  0  0  0  0  0  0
    8.8282    0.4592   -1.5520 C   0  0  0  0  0  0  0  0  0  0  0  0
    7.5192    0.8556   -1.8247 C   0  0  0  0  0  0  0  0  0  0  0  0
    6.5891    0.9564   -0.7879 C   0  0  0  0  0  0  0  0  0  0  0  0
    3.1448   -2.5386    2.1317 C   0  0  0  0  0  0  0  0  0  0  0  0
    2.1279   -1.3811    2.0674 C   0  0  0  0  0  0  0  0  0  0  0  0
   -0.1833    1.8147    1.8498 H   0  0  0  0  0  0  0  0  0  0  0  0
    0.5808    0.6743    2.9550 H   0  0  0  0  0  0  0  0  0  0  0  0
   -1.1611    0.9408    3.0340 H   0  0  0  0  0  0  0  0  0  0  0  0
   -0.6775   -1.2313    1.8233 H   0  0  0  0  0  0  0  0  0  0  0  0
   -1.6347    0.2947   -0.3903 H   0  0  0  0  0  0  0  0  0  0  0  0
   -3.2223    1.7453   -0.8144 H   0  0  0  0  0  0  0  0  0  0  0  0
   -5.1460    2.2929   -2.1733 H   0  0  0  0  0  0  0  0  0  0  0  0
   -8.4182    2.4515   -3.7406 H   0  0  0  0  0  0  0  0  0  0  0  0
   -7.2490    3.1796   -2.6394 H   0  0  0  0  0  0  0  0  0  0  0  0
   -6.7077    2.0522   -3.8999 H   0  0  0  0  0  0  0  0  0  0  0  0
   -9.7527    1.7313   -1.8174 H   0  0  0  0  0  0  0  0  0  0  0  0
   -8.5898    2.2938   -0.6056 H   0  0  0  0  0  0  0  0  0  0  0  0
   -9.1458    0.6147   -0.5969 H   0  0  0  0  0  0  0  0  0  0  0  0
   -8.9660    0.0695   -3.6740 H   0  0  0  0  0  0  0  0  0  0  0  0
   -7.2824   -0.4791   -3.6872 H   0  0  0  0  0  0  0  0  0  0  0  0
   -8.3831   -1.0098   -2.4128 H   0  0  0  0  0  0  0  0  0  0  0  0
   -7.3798   -0.9035   -0.2891 H   0  0  0  0  0  0  0  0  0  0  0  0
   -5.4208   -1.4499    1.0679 H   0  0  0  0  0  0  0  0  0  0  0  0
    2.6331   -0.7260   -1.2289 H   0  0  0  0  0  0  0  0  0  0  0  0
    3.4579    0.1191    0.0733 H   0  0  0  0  0  0  0  0  0  0  0  0
    3.4684   -2.8681   -0.5733 H   0  0  0  0  0  0  0  0  0  0  0  0
    4.8375   -1.7953   -0.7018 H   0  0  0  0  0  0  0  0  0  0  0  0
    5.7719   -2.2617    2.7459 H   0  0  0  0  0  0  0  0  0  0  0  0
    6.3303   -1.9073    1.1491 H   0  0  0  0  0  0  0  0  0  0  0  0
    4.6627   -0.0596    2.9823 H   0  0  0  0  0  0  0  0  0  0  0  0
    5.7932    1.7648    1.9618 H   0  0  0  0  0  0  0  0  0  0  0  0
    8.5878    0.0268    1.8112 H   0  0  0  0  0  0  0  0  0  0  0  0
   10.2309   -0.1439   -0.0300 H   0  0  0  0  0  0  0  0  0  0  0  0
    9.5521    0.3825   -2.3594 H   0  0  0  0  0  0  0  0  0  0  0  0
    7.2245    1.0895   -2.8450 H   0  0  0  0  0  0  0  0  0  0  0  0
    5.5724    1.2705   -1.0121 H   0  0  0  0  0  0  0  0  0  0  0  0
    2.6185   -3.4533    1.8263 H   0  0  0  0  0  0  0  0  0  0  0  0
    3.4435   -2.7128    3.1726 H   0  0  0  0  0  0  0  0  0  0  0  0
    2.5158   -0.5003    2.5869 H   0  0  0  0  0  0  0  0  0  0  0  0
    1.2217   -1.6904    2.5931 H   0  0  0  0  0  0  0  0  0  0  0  0
  1  2  1  0
  2  3  1  0
  3  4  1  0
  4  5  2  0
  4  6  1  0
  6  7  2  0
  7  8  1  0
  8  9  2  0
  9 10  1  0
 10 11  1  0
 10 12  1  0
 10 13  1  0
  9 14  1  0
 14 15  2  0
  2 16  1  0
 16 17  2  0
 16 18  1  0
 18 19  1  0
 19 20  1  0
 20 21  1  0
 21 22  1  0
 22 23  1  0
 23 24  2  3
 24 25  1  0
 25 26  2  0
 26 27  1  0
 27 28  2  0
 28 29  1  0
 29 30  2  0
 21 31  1  0
 31 32  1  0
 15  6  1  0
 32 18  1  0
 30 25  1  0
  1 33  1  0
  1 34  1  0
  1 35  1  0
  2 36  1  0
  3 37  1  0
  7 38  1  0
  8 39  1  0
 11 40  1  0
 11 41  1  0
 11 42  1  0
 12 43  1  0
 12 44  1  0
 12 45  1  0
 13 46  1  0
 13 47  1  0
 13 48  1  0
 14 49  1  0
 15 50  1  0
 19 51  1  0
 19 52  1  0
 20 53  1  0
 20 54  1  0
 22 55  1  0
 22 56  1  0
 23 57  1  0
 24 58  1  0
 26 59  1  0
 27 60  1  0
 28 61  1  0
 29 62  1  0
 30 63  1  0
 31 64  1  0
 31 65  1  0
 32 66  1  0
 32 67  1  0
M  END
$$$$
