
     RDKit          3D

 49 51  0  0  0  0  0  0  0  0999 V2000
   -3.5912    3.1771    0.5844 C   0  0  0  0  0  0  0  0  0  0  0  0
   -2.5249    2.3221   -0.0910 C   0  0  0  0  0  0  0  0  0  0  0  0
   -2.2710    0.9921    0.6462 C   0  0  0  0  0  0  0  0  0  0  0  0
   -1.5326    1.1535    1.9772 C   0  0  0  0  0  0  0  0  0  0  0  0
   -1.6592   -0.0625   -0.2141 N   0  0  0  0  0  0  0  0  0  0  0  0
   -0.5363    0.0896   -1.0471 C   0  0  0  0  0  0  0  0  0  0  0  0
   -0.2635   -0.7778   -1.8836 O   0  0  0  0  0  0  0  0  0  0  0  0
    0.3132    1.3333   -0.9529 C   0  0  0  0  0  0  0  0  0  0  0  0
    1.7021    1.0313   -1.2258 N   0  0  0  0  0  0  0  0  0  0  0  0
    2.3176    1.4855   -2.3303 N   0  0  0  0  0  0  0  0  0  0  0  0
    3.5927    1.1705   -2.1576 N   0  0  0  0  0  0  0  0  0  0  0  0
    3.6975    0.5823   -0.9173 C   0  0  0  0  0  0  0  0  0  0  0  0
    4.9631    0.1085   -0.3709 C   0  0  0  0  0  0  0  0  0  0  0  0
    5.0213   -0.4796    0.9042 C   0  0  0  0  0  0  0  0  0  0  0  0
    6.2373   -0.9317    1.4238 C   0  0  0  0  0  0  0  0  0  0  0  0
    7.3967   -0.7974    0.6702 C   0  0  0  0  0  0  0  0  0  0  0  0
    8.5617   -1.2303    1.1688 F   0  0  0  0  0  0  0  0  0  0  0  0
    7.3644   -0.2204   -0.5933 C   0  0  0  0  0  0  0  0  0  0  0  0
    6.1490    0.2322   -1.1144 C   0  0  0  0  0  0  0  0  0  0  0  0
    2.5164    0.5266   -0.2741 N   0  0  0  0  0  0  0  0  0  0  0  0
   -2.3766   -1.3566   -0.3342 C   0  0  0  0  0  0  0  0  0  0  0  0
   -2.7932   -2.0055    0.9975 C   0  0  0  0  0  0  0  0  0  0  0  0
   -3.5936   -3.2397    0.6037 C   0  0  0  0  0  0  0  0  0  0  0  0
   -4.5820   -2.7161   -0.7885 S   0  0  0  0  0  6  0  0  0  0  0  0
   -5.8719   -2.2819   -0.2917 O   0  0  0  0  0  0  0  0  0  0  0  0
   -4.4506   -3.6946   -1.8461 O   0  0  0  0  0  0  0  0  0  0  0  0
   -3.6303   -1.2655   -1.2063 C   0  0  0  0  0  0  0  0  0  0  0  0
   -4.5396    2.6360    0.6614 H   0  0  0  0  0  0  0  0  0  0  0  0
   -3.2830    3.4816    1.5887 H   0  0  0  0  0  0  0  0  0  0  0  0
   -3.7687    4.0857   -0.0001 H   0  0  0  0  0  0  0  0  0  0  0  0
   -2.8521    2.1147   -1.1173 H   0  0  0  0  0  0  0  0  0  0  0  0
   -1.6125    2.9205   -0.1596 H   0  0  0  0  0  0  0  0  0  0  0  0
   -3.2697    0.6225    0.9027 H   0  0  0  0  0  0  0  0  0  0  0  0
   -2.1249    1.7479    2.6802 H   0  0  0  0  0  0  0  0  0  0  0  0
   -1.3526    0.1790    2.4433 H   0  0  0  0  0  0  0  0  0  0  0  0
   -0.5650    1.6469    1.8719 H   0  0  0  0  0  0  0  0  0  0  0  0
    0.2984    1.7893    0.0328 H   0  0  0  0  0  0  0  0  0  0  0  0
   -0.0329    2.0578   -1.6966 H   0  0  0  0  0  0  0  0  0  0  0  0
    4.1174   -0.5905    1.5003 H   0  0  0  0  0  0  0  0  0  0  0  0
    6.2848   -1.3868    2.4079 H   0  0  0  0  0  0  0  0  0  0  0  0
    8.2819   -0.1266   -1.1658 H   0  0  0  0  0  0  0  0  0  0  0  0
    6.1358    0.6811   -2.1063 H   0  0  0  0  0  0  0  0  0  0  0  0
   -1.7065   -2.0849   -0.8101 H   0  0  0  0  0  0  0  0  0  0  0  0
   -1.9252   -2.2709    1.6095 H   0  0  0  0  0  0  0  0  0  0  0  0
   -3.4289   -1.3454    1.5961 H   0  0  0  0  0  0  0  0  0  0  0  0
   -2.9365   -4.0465    0.2662 H   0  0  0  0  0  0  0  0  0  0  0  0
   -4.2427   -3.5958    1.4061 H   0  0  0  0  0  0  0  0  0  0  0  0
   -3.3937   -1.2734   -2.2730 H   0  0  0  0  0  0  0  0  0  0  0  0
   -4.2396   -0.3875   -0.9751 H   0  0  0  0  0  0  0  0  0  0  0  0
  1  2  1  0
  2  3  1  0
  3  4  1  0
  3  5  1  0
  5  6  1  0
  6  7  2  0
  6  8  1  0
  8  9  1  0
  9 10  1  0
 10 11  2  0
 11 12  1  0
 12 13  1  0
 13 14  2  0
 14 15  1  0
 15 16  2  0
 16 17  1  0
 16 18  1  0
 18 19  2  0
 12 20  2  0
  5 21  1  0
 21 22  1  0
 22 23  1  0
 23 24  1  0
 24 25  2  0
 24 26  2  0
 24 27  1  0
 20  9  1  0
 27 21  1  0
 19 13  1  0
  1 28  1  0
  1 29  1  0
  1 30  1  0
  2 31  1  0
  2 32  1  0
  3 33  1  0
  4 34  1  0
  4 35  1  0
  4 36  1  0
  8 37  1  0
  8 38  1  0
 14 39  1  0
 15 40  1  0
 18 41  1  0
 19 42  1  0
 21 43  1  0
 22 44  1  0
 22 45  1  0
 23 46  1  0
 23 47  1  0
 27 48  1  0
 27 49  1  0
M  END
$$$$
