
     RDKit          3D

 42 43  0  0  0  0  0  0  0  0999 V2000
    3.8520   -0.0075   -0.9351 C   0  0  0  0  0  0  0  0  0  0  0  0
    3.8747    0.3338    0.5408 C   0  0  0  0  0  0  0  0  0  0  0  0
    2.8049    0.5159    1.2586 N   0  0  0  0  0  0  0  0  0  0  0  0
    1.5803    0.4435    0.6733 N   0  0  0  0  0  0  0  0  0  0  0  0
    0.4368    0.5777    1.4520 C   0  0  0  0  0  0  0  0  0  0  0  0
    0.4173    0.7243    2.6702 O   0  0  0  0  0  0  0  0  0  0  0  0
   -0.8209    0.5239    0.6061 C   0  0  0  0  0  0  0  0  0  0  0  0
   -2.0898    0.6096    1.4548 C   0  0  0  0  0  0  0  0  0  0  0  0
   -3.3553    0.6253    0.5981 C   0  0  0  0  0  0  0  0  0  0  0  0
   -3.4914   -0.6426   -0.1121 N   0  0  0  0  0  0  0  0  0  0  0  0
   -4.5959   -0.8488   -0.9498 C   0  0  0  0  0  0  0  0  0  0  0  0
   -5.3520    0.1841   -1.5154 C   0  0  0  0  0  0  0  0  0  0  0  0
   -6.3996   -0.0868   -2.4037 C   0  0  0  0  0  0  0  0  0  0  0  0
   -6.6904   -1.3986   -2.7649 C   0  0  0  0  0  0  0  0  0  0  0  0
   -5.9252   -2.4379   -2.2475 C   0  0  0  0  0  0  0  0  0  0  0  0
   -4.8810   -2.1605   -1.3600 C   0  0  0  0  0  0  0  0  0  0  0  0
    5.2005    0.4673    1.2207 C   0  0  0  0  0  0  0  0  0  0  0  0
    5.2737    0.2509    2.5983 C   0  0  0  0  0  0  0  0  0  0  0  0
    6.5030    0.3831    3.2169 C   0  0  0  0  0  0  0  0  0  0  0  0
    7.6373    0.7137    2.5636 N   0  0  0  0  0  0  0  0  0  0  0  0
    7.5355    0.9364    1.2367 C   0  0  0  0  0  0  0  0  0  0  0  0
    6.3526    0.8305    0.5245 C   0  0  0  0  0  0  0  0  0  0  0  0
    4.8155   -0.3787   -1.2907 H   0  0  0  0  0  0  0  0  0  0  0  0
    3.5746    0.8818   -1.5077 H   0  0  0  0  0  0  0  0  0  0  0  0
    3.1237   -0.8024   -1.1223 H   0  0  0  0  0  0  0  0  0  0  0  0
    1.4992    0.3472   -0.3308 H   0  0  0  0  0  0  0  0  0  0  0  0
   -0.7894    1.3592   -0.1035 H   0  0  0  0  0  0  0  0  0  0  0  0
   -0.8066   -0.4126    0.0366 H   0  0  0  0  0  0  0  0  0  0  0  0
   -2.0645    1.5250    2.0590 H   0  0  0  0  0  0  0  0  0  0  0  0
   -2.1219   -0.2314    2.1590 H   0  0  0  0  0  0  0  0  0  0  0  0
   -3.2916    1.4636   -0.1049 H   0  0  0  0  0  0  0  0  0  0  0  0
   -4.2242    0.7831    1.2480 H   0  0  0  0  0  0  0  0  0  0  0  0
   -3.3575   -1.4464    0.4997 H   0  0  0  0  0  0  0  0  0  0  0  0
   -5.1481    1.2232   -1.2792 H   0  0  0  0  0  0  0  0  0  0  0  0
   -6.9811    0.7323   -2.8185 H   0  0  0  0  0  0  0  0  0  0  0  0
   -7.5012   -1.6083   -3.4569 H   0  0  0  0  0  0  0  0  0  0  0  0
   -6.1314   -3.4643   -2.5379 H   0  0  0  0  0  0  0  0  0  0  0  0
   -4.2827   -2.9883   -0.9871 H   0  0  0  0  0  0  0  0  0  0  0  0
    4.3956   -0.0129    3.1801 H   0  0  0  0  0  0  0  0  0  0  0  0
    6.6109    0.2236    4.2862 H   0  0  0  0  0  0  0  0  0  0  0  0
    8.4627    1.2180    0.7449 H   0  0  0  0  0  0  0  0  0  0  0  0
    6.3508    1.0512   -0.5354 H   0  0  0  0  0  0  0  0  0  0  0  0
  1  2  1  0
  2  3  2  3
  3  4  1  0
  4  5  1  0
  5  6  2  0
  5  7  1  0
  7  8  1  0
  8  9  1  0
  9 10  1  0
 10 11  1  0
 11 12  2  0
 12 13  1  0
 13 14  2  0
 14 15  1  0
 15 16  2  0
  2 17  1  0
 17 18  2  0
 18 19  1  0
 19 20  2  0
 20 21  1  0
 21 22  2  0
 16 11  1  0
 22 17  1  0
  1 23  1  0
  1 24  1  0
  1 25  1  0
  4 26  1  0
  7 27  1  0
  7 28  1  0
  8 29  1  0
  8 30  1  0
  9 31  1  0
  9 32  1  0
 10 33  1  0
 12 34  1  0
 13 35  1  0
 14 36  1  0
 15 37  1  0
 16 38  1  0
 18 39  1  0
 19 40  1  0
 21 41  1  0
 22 42  1  0
M  END
$$$$
