
     RDKit          3D

 41 42  0  0  0  0  0  0  0  0999 V2000
   -3.0505   -1.8132   -1.4585 C   0  0  0  0  0  0  0  0  0  0  0  0
   -2.4306   -1.0966   -0.2852 C   0  0  0  0  0  0  0  0  0  0  0  0
   -1.8990   -1.7063    0.7993 C   0  0  0  0  0  0  0  0  0  0  0  0
   -1.9178   -3.1951    1.0469 C   0  0  0  0  0  0  0  0  0  0  0  0
   -1.2218   -0.9325    1.9200 C   0  0  0  0  0  0  0  0  0  0  0  0
   -1.0015    0.5628    1.6601 C   0  0  0  0  0  0  0  0  0  0  0  0
    0.3722    0.8824    1.0538 C   0  0  0  0  0  0  0  0  0  0  0  0
    1.0301    1.8110    1.5181 O   0  0  0  0  0  0  0  0  0  0  0  0
    0.7416    0.1060   -0.0251 N   0  0  0  0  0  0  0  0  0  0  0  0
    1.9287    0.1847   -0.7834 C   0  0  0  0  0  0  0  0  0  0  0  0
    2.0419   -0.6985   -1.8682 C   0  0  0  0  0  0  0  0  0  0  0  0
    3.1765   -0.6984   -2.6843 C   0  0  0  0  0  0  0  0  0  0  0  0
    4.2198    0.1854   -2.4221 C   0  0  0  0  0  0  0  0  0  0  0  0
    4.1140    1.0650   -1.3378 C   0  0  0  0  0  0  0  0  0  0  0  0
    5.2156    1.9918   -1.0577 N   0  0  0  0  0  4  0  0  0  0  0  0
    6.0489    2.1771   -1.9571 O   0  0  0  0  0  0  0  0  0  0  0  0
    5.2525    2.5299    0.0571 O   0  0  0  0  0  1  0  0  0  0  0  0
    2.9753    1.0704   -0.5171 C   0  0  0  0  0  0  0  0  0  0  0  0
   -2.1670    1.1607    0.8724 C   0  0  0  0  0  0  0  0  0  0  0  0
   -1.9797    2.6466    0.6857 C   0  0  0  0  0  0  0  0  0  0  0  0
   -2.2982    3.5008    1.4972 O   0  0  0  0  0  0  0  0  0  0  0  0
   -1.3589    2.9889   -0.4547 O   0  0  0  0  0  0  0  0  0  0  0  0
   -2.4493    0.4146   -0.4330 C   0  0  0  0  0  0  0  0  0  0  0  0
   -2.6923   -1.3776   -2.3978 H   0  0  0  0  0  0  0  0  0  0  0  0
   -2.8011   -2.8749   -1.5011 H   0  0  0  0  0  0  0  0  0  0  0  0
   -4.1399   -1.7150   -1.4273 H   0  0  0  0  0  0  0  0  0  0  0  0
   -0.9076   -3.6038    0.9460 H   0  0  0  0  0  0  0  0  0  0  0  0
   -2.5782   -3.7441    0.3727 H   0  0  0  0  0  0  0  0  0  0  0  0
   -2.2741   -3.4028    2.0619 H   0  0  0  0  0  0  0  0  0  0  0  0
   -0.2623   -1.4088    2.1594 H   0  0  0  0  0  0  0  0  0  0  0  0
   -1.8554   -1.0360    2.8116 H   0  0  0  0  0  0  0  0  0  0  0  0
   -0.9751    1.0455    2.6493 H   0  0  0  0  0  0  0  0  0  0  0  0
    0.0874   -0.6069   -0.3206 H   0  0  0  0  0  0  0  0  0  0  0  0
    1.2427   -1.4004   -2.0968 H   0  0  0  0  0  0  0  0  0  0  0  0
    3.2449   -1.3903   -3.5206 H   0  0  0  0  0  0  0  0  0  0  0  0
    5.1013    0.1771   -3.0599 H   0  0  0  0  0  0  0  0  0  0  0  0
    2.9255    1.7660    0.3148 H   0  0  0  0  0  0  0  0  0  0  0  0
   -3.0750    1.0601    1.4871 H   0  0  0  0  0  0  0  0  0  0  0  0
   -1.2100    3.9547   -0.3610 H   0  0  0  0  0  0  0  0  0  0  0  0
   -1.7365    0.6908   -1.2190 H   0  0  0  0  0  0  0  0  0  0  0  0
   -3.4369    0.7289   -0.7959 H   0  0  0  0  0  0  0  0  0  0  0  0
  1  2  1  0
  2  3  2  0
  3  4  1  0
  3  5  1  0
  5  6  1  0
  6  7  1  0
  7  8  2  0
  7  9  1  0
  9 10  1  0
 10 11  2  0
 11 12  1  0
 12 13  2  0
 13 14  1  0
 14 15  1  0
 15 16  2  0
 15 17  1  0
 14 18  2  0
  6 19  1  0
 19 20  1  0
 20 21  2  0
 20 22  1  0
 19 23  1  0
 23  2  1  0
 18 10  1  0
  1 24  1  0
  1 25  1  0
  1 26  1  0
  4 27  1  0
  4 28  1  0
  4 29  1  0
  5 30  1  0
  5 31  1  0
  6 32  1  0
  9 33  1  0
 11 34  1  0
 12 35  1  0
 13 36  1  0
 18 37  1  0
 19 38  1  0
 22 39  1  0
 23 40  1  0
 23 41  1  0
M  CHG  2  15   1  17  -1
M  END
$$$$
