
     RDKit          3D

 56 61  0  0  0  0  0  0  0  0999 V2000
    0.3508    3.2217    1.7448 C   0  0  0  0  0  0  0  0  0  0  0  0
    1.0118    2.0517    1.1173 C   0  0  0  0  0  0  0  0  0  0  0  0
    2.2659    2.1596    0.6686 N   0  0  0  0  0  0  0  0  0  0  0  0
    2.5813    0.9322    0.1479 N   0  0  0  0  0  0  0  0  0  0  0  0
    3.8703    0.7246   -0.4366 C   0  0  0  0  0  0  0  0  0  0  0  0
    4.2459   -0.5056   -0.9950 C   0  0  0  0  0  0  0  0  0  0  0  0
    5.5170   -0.6713   -1.5606 C   0  0  0  0  0  0  0  0  0  0  0  0
    6.4198    0.3979   -1.5697 C   0  0  0  0  0  0  0  0  0  0  0  0
    7.7512    0.2243   -2.1629 N   0  0  0  0  0  4  0  0  0  0  0  0
    8.5221    1.1948   -2.1442 O   0  0  0  0  0  0  0  0  0  0  0  0
    8.0283   -0.8820   -2.6482 O   0  0  0  0  0  1  0  0  0  0  0  0
    6.0607    1.6318   -1.0178 C   0  0  0  0  0  0  0  0  0  0  0  0
    4.7899    1.7908   -0.4550 C   0  0  0  0  0  0  0  0  0  0  0  0
    1.5153    0.0504    0.3026 C   0  0  0  0  0  0  0  0  0  0  0  0
    0.4995    0.7622    0.8973 C   0  0  0  0  0  0  0  0  0  0  0  0
   -0.7904    0.0838    1.1980 C   0  0  0  0  0  0  0  0  0  0  0  0
   -1.8097    0.7786    0.2932 C   0  0  0  0  0  0  0  0  0  0  0  0
   -2.7449    1.6709    0.8430 C   0  0  0  0  0  0  0  0  0  0  0  0
   -3.6801    2.3150    0.0290 C   0  0  0  0  0  0  0  0  0  0  0  0
   -3.7092    2.0842   -1.3476 C   0  0  0  0  0  0  0  0  0  0  0  0
   -4.6724    2.7798   -2.0212 O   0  0  0  0  0  0  0  0  0  0  0  0
   -4.9242    2.3834   -3.3586 C   0  0  0  0  0  0  0  0  0  0  0  0
   -6.0280    3.0535   -3.7770 F   0  0  0  0  0  0  0  0  0  0  0  0
   -3.9002    2.7927   -4.1466 F   0  0  0  0  0  0  0  0  0  0  0  0
   -2.7775    1.2135   -1.9099 C   0  0  0  0  0  0  0  0  0  0  0  0
   -1.8404    0.5645   -1.0971 C   0  0  0  0  0  0  0  0  0  0  0  0
   -0.7441   -1.3747    0.9514 N   0  0  0  0  0  0  0  0  0  0  0  0
    0.3808   -1.9010    0.2870 C   0  0  0  0  0  0  0  0  0  0  0  0
    1.4715   -1.2584   -0.0508 N   0  0  0  0  0  0  0  0  0  0  0  0
    0.3782   -3.3973   -0.1091 C   0  0  0  0  0  0  0  0  0  0  0  0
    1.2773   -3.8961   -0.7716 O   0  0  0  0  0  0  0  0  0  0  0  0
   -0.6928   -4.1290    0.3289 N   0  0  0  0  0  0  0  0  0  0  0  0
   -1.7510   -3.5957    1.0693 C   0  0  0  0  0  0  0  0  0  0  0  0
   -2.7646   -4.4736    1.4724 C   0  0  0  0  0  0  0  0  0  0  0  0
   -3.8402   -3.9994    2.2141 C   0  0  0  0  0  0  0  0  0  0  0  0
   -3.8981   -2.6531    2.5512 C   0  0  0  0  0  0  0  0  0  0  0  0
   -2.8828   -1.7780    2.1442 C   0  0  0  0  0  0  0  0  0  0  0  0
   -1.7848   -2.2203    1.3868 C   0  0  0  0  0  0  0  0  0  0  0  0
   -0.2682    3.7466    1.0105 H   0  0  0  0  0  0  0  0  0  0  0  0
   -0.2871    2.9083    2.5771 H   0  0  0  0  0  0  0  0  0  0  0  0
    1.0863    3.9304    2.1396 H   0  0  0  0  0  0  0  0  0  0  0  0
    3.5784   -1.3627   -1.0138 H   0  0  0  0  0  0  0  0  0  0  0  0
    5.7791   -1.6381   -1.9871 H   0  0  0  0  0  0  0  0  0  0  0  0
    6.7480    2.4753   -1.0167 H   0  0  0  0  0  0  0  0  0  0  0  0
    4.5292    2.7604   -0.0317 H   0  0  0  0  0  0  0  0  0  0  0  0
   -1.0158    0.2687    2.2564 H   0  0  0  0  0  0  0  0  0  0  0  0
   -2.7546    1.8791    1.9110 H   0  0  0  0  0  0  0  0  0  0  0  0
   -4.3939    3.0057    0.4736 H   0  0  0  0  0  0  0  0  0  0  0  0
   -5.1012    1.3080   -3.4706 H   0  0  0  0  0  0  0  0  0  0  0  0
   -2.7286    1.0297   -2.9793 H   0  0  0  0  0  0  0  0  0  0  0  0
   -1.1183   -0.1024   -1.5667 H   0  0  0  0  0  0  0  0  0  0  0  0
   -0.6765   -5.1098    0.0846 H   0  0  0  0  0  0  0  0  0  0  0  0
   -2.7239   -5.5290    1.2155 H   0  0  0  0  0  0  0  0  0  0  0  0
   -4.6290   -4.6775    2.5303 H   0  0  0  0  0  0  0  0  0  0  0  0
   -4.7359   -2.2765    3.1342 H   0  0  0  0  0  0  0  0  0  0  0  0
   -2.9899   -0.7426    2.4482 H   0  0  0  0  0  0  0  0  0  0  0  0
  1  2  1  0
  2  3  2  0
  3  4  1  0
  4  5  1  0
  5  6  2  0
  6  7  1  0
  7  8  2  0
  8  9  1  0
  9 10  2  0
  9 11  1  0
  8 12  1  0
 12 13  2  0
  4 14  1  0
 14 15  2  0
 15 16  1  0
 16 17  1  0
 17 18  2  0
 18 19  1  0
 19 20  2  0
 20 21  1  0
 21 22  1  0
 22 23  1  0
 22 24  1  0
 20 25  1  0
 25 26  2  0
 16 27  1  0
 27 28  1  0
 28 29  2  0
 28 30  1  0
 30 31  2  0
 30 32  1  0
 32 33  1  0
 33 34  2  0
 34 35  1  0
 35 36  2  0
 36 37  1  0
 37 38  2  0
 15  2  1  0
 26 17  1  0
 38 27  1  0
 13  5  1  0
 29 14  1  0
 38 33  1  0
  1 39  1  0
  1 40  1  0
  1 41  1  0
  6 42  1  0
  7 43  1  0
 12 44  1  0
 13 45  1  0
 16 46  1  0
 18 47  1  0
 19 48  1  0
 22 49  1  0
 25 50  1  0
 26 51  1  0
 32 52  1  0
 34 53  1  0
 35 54  1  0
 36 55  1  0
 37 56  1  0
M  CHG  2   9   1  11  -1
M  END
$$$$
