
     RDKit          3D

 44 46  0  0  0  0  0  0  0  0999 V2000
    5.8712    0.1733   -0.9819 C   0  0  0  0  0  0  0  0  0  0  0  0
    4.5436    0.7089   -0.4137 C   0  0  0  0  0  0  0  0  0  0  0  0
    3.6570    1.1204   -1.5974 C   0  0  0  0  0  0  0  0  0  0  0  0
    4.8285    1.9403    0.4595 C   0  0  0  0  0  0  0  0  0  0  0  0
    3.9388   -0.3902    0.4911 C   0  0  0  0  0  0  0  0  0  0  0  0
    4.6415   -0.9470    1.3444 O   0  0  0  0  0  0  0  0  0  0  0  0
    2.4755   -0.7697    0.3685 C   0  0  0  0  0  0  0  0  0  0  0  0
    1.4399    0.4460    1.2358 S   0  0  0  0  0  0  0  0  0  0  0  0
   -0.1953   -0.1252    0.7703 C   0  0  0  0  0  0  0  0  0  0  0  0
   -0.2553   -1.4018    0.3068 N   0  0  0  0  0  0  0  0  0  0  0  0
   -1.4695   -1.8560   -0.0325 C   0  0  0  0  0  0  0  0  0  0  0  0
   -2.6398   -1.1190    0.0516 C   0  0  0  0  0  0  0  0  0  0  0  0
   -2.5861    0.1871    0.5194 C   0  0  0  0  0  0  0  0  0  0  0  0
   -3.8094    0.9834    0.6053 C   0  0  0  0  0  0  0  0  0  0  0  0
   -4.7092    1.0882    1.6471 C   0  0  0  0  0  0  0  0  0  0  0  0
   -5.7796    1.9810    1.3471 C   0  0  0  0  0  0  0  0  0  0  0  0
   -5.6615    2.5222    0.0852 C   0  0  0  0  0  0  0  0  0  0  0  0
   -4.2701    1.9536   -0.7311 S   0  0  0  0  0  0  0  0  0  0  0  0
   -1.3284    0.6997    0.8975 C   0  0  0  0  0  0  0  0  0  0  0  0
   -1.2117    2.0405    1.3914 C   0  0  0  0  0  0  0  0  0  0  0  0
   -1.1244    3.1359    1.7689 N   0  0  0  0  0  0  0  0  0  0  0  0
   -3.8150   -1.9438   -0.3719 C   0  0  0  0  0  0  0  0  0  0  0  0
   -3.1266   -3.0808   -1.1423 C   0  0  0  0  0  0  0  0  0  0  0  0
   -1.7390   -3.2538   -0.5138 C   0  0  0  0  0  0  0  0  0  0  0  0
    6.3705    0.9291   -1.5997 H   0  0  0  0  0  0  0  0  0  0  0  0
    5.7015   -0.7125   -1.6053 H   0  0  0  0  0  0  0  0  0  0  0  0
    6.5691   -0.1167   -0.1868 H   0  0  0  0  0  0  0  0  0  0  0  0
    4.1480    1.8886   -2.2083 H   0  0  0  0  0  0  0  0  0  0  0  0
    3.4428    0.2676   -2.2525 H   0  0  0  0  0  0  0  0  0  0  0  0
    2.7005    1.5398   -1.2677 H   0  0  0  0  0  0  0  0  0  0  0  0
    3.9051    2.3596    0.8745 H   0  0  0  0  0  0  0  0  0  0  0  0
    5.4791    1.6857    1.3063 H   0  0  0  0  0  0  0  0  0  0  0  0
    5.3236    2.7312   -0.1147 H   0  0  0  0  0  0  0  0  0  0  0  0
    2.3465   -1.7525    0.8356 H   0  0  0  0  0  0  0  0  0  0  0  0
    2.2025   -0.8714   -0.6843 H   0  0  0  0  0  0  0  0  0  0  0  0
   -4.6061    0.5598    2.5869 H   0  0  0  0  0  0  0  0  0  0  0  0
   -6.5920    2.2196    2.0251 H   0  0  0  0  0  0  0  0  0  0  0  0
   -6.3234    3.2282   -0.3971 H   0  0  0  0  0  0  0  0  0  0  0  0
   -4.3429   -2.3271    0.5088 H   0  0  0  0  0  0  0  0  0  0  0  0
   -4.5100   -1.3995   -1.0178 H   0  0  0  0  0  0  0  0  0  0  0  0
   -3.0117   -2.7839   -2.1943 H   0  0  0  0  0  0  0  0  0  0  0  0
   -3.7104   -4.0066   -1.1294 H   0  0  0  0  0  0  0  0  0  0  0  0
   -1.7697   -3.9405    0.3380 H   0  0  0  0  0  0  0  0  0  0  0  0
   -0.9982   -3.5916   -1.2429 H   0  0  0  0  0  0  0  0  0  0  0  0
  1  2  1  0
  2  3  1  0
  2  4  1  0
  2  5  1  0
  5  6  2  0
  5  7  1  0
  7  8  1  0
  8  9  1  0
  9 10  2  0
 10 11  1  0
 11 12  2  0
 12 13  1  0
 13 14  1  0
 14 15  2  0
 15 16  1  0
 16 17  2  0
 17 18  1  0
 13 19  2  0
 19 20  1  0
 20 21  3  0
 12 22  1  0
 22 23  1  0
 23 24  1  0
 19  9  1  0
 24 11  1  0
 18 14  1  0
  1 25  1  0
  1 26  1  0
  1 27  1  0
  3 28  1  0
  3 29  1  0
  3 30  1  0
  4 31  1  0
  4 32  1  0
  4 33  1  0
  7 34  1  0
  7 35  1  0
 15 36  1  0
 16 37  1  0
 17 38  1  0
 22 39  1  0
 22 40  1  0
 23 41  1  0
 23 42  1  0
 24 43  1  0
 24 44  1  0
M  END
$$$$
