
     RDKit          3D

 43 46  0  0  0  0  0  0  0  0999 V2000
   -3.2369    5.0266   -5.6924 N   0  0  0  0  0  0  0  0  0  0  0  0
   -2.5555    4.4443   -4.9564 C   0  0  0  0  0  0  0  0  0  0  0  0
   -1.7116    3.6937   -4.0241 C   0  0  0  0  0  0  0  0  0  0  0  0
   -2.2453    2.2797   -3.8590 C   0  0  0  0  0  0  0  0  0  0  0  0
   -1.4416    1.5157   -2.9253 N   0  0  0  0  0  0  0  0  0  0  0  0
   -1.8043    1.1018   -1.6791 C   0  0  0  0  0  0  0  0  0  0  0  0
   -0.7077    0.4471   -1.1648 C   0  0  0  0  0  0  0  0  0  0  0  0
   -0.6167   -0.2070    0.1047 C   0  0  0  0  0  0  0  0  0  0  0  0
   -1.1885    0.1433    1.2767 C   0  0  0  0  0  0  0  0  0  0  0  0
   -1.9783    1.3194    1.4382 C   0  0  0  0  0  0  0  0  0  0  0  0
   -2.6412    2.2678    1.5393 N   0  0  0  0  0  0  0  0  0  0  0  0
   -0.9365   -0.6542    2.4352 C   0  0  0  0  0  0  0  0  0  0  0  0
   -0.3111   -0.2515    3.5236 N   0  0  0  0  0  0  0  0  0  0  0  0
   -0.2530   -1.2655    4.4651 C   0  0  0  0  0  0  0  0  0  0  0  0
    0.3456   -1.1779    5.7380 C   0  0  0  0  0  0  0  0  0  0  0  0
    0.3324   -2.2874    6.5900 C   0  0  0  0  0  0  0  0  0  0  0  0
   -0.2687   -3.4758    6.1895 C   0  0  0  0  0  0  0  0  0  0  0  0
   -0.8697   -3.5864    4.9324 C   0  0  0  0  0  0  0  0  0  0  0  0
   -0.8505   -2.4661    4.0853 C   0  0  0  0  0  0  0  0  0  0  0  0
   -1.5010   -2.2914    2.5035 S   0  0  0  0  0  0  0  0  0  0  0  0
    0.2790    0.5016   -2.2004 C   0  0  0  0  0  0  0  0  0  0  0  0
    1.6404   -0.0325   -2.2061 C   0  0  0  0  0  0  0  0  0  0  0  0
    2.1023   -0.7576   -3.3159 C   0  0  0  0  0  0  0  0  0  0  0  0
    3.3976   -1.2783   -3.3310 C   0  0  0  0  0  0  0  0  0  0  0  0
    4.2323   -1.0665   -2.2410 C   0  0  0  0  0  0  0  0  0  0  0  0
    5.4749   -1.5657   -2.2550 F   0  0  0  0  0  0  0  0  0  0  0  0
    3.7990   -0.3399   -1.1379 C   0  0  0  0  0  0  0  0  0  0  0  0
    2.5029    0.1810   -1.1202 C   0  0  0  0  0  0  0  0  0  0  0  0
   -0.2014    1.1464   -3.2764 N   0  0  0  0  0  0  0  0  0  0  0  0
   -0.6805    3.6770   -4.3952 H   0  0  0  0  0  0  0  0  0  0  0  0
   -1.6882    4.2026   -3.0533 H   0  0  0  0  0  0  0  0  0  0  0  0
   -3.2758    2.2859   -3.4861 H   0  0  0  0  0  0  0  0  0  0  0  0
   -2.2427    1.7335   -4.8093 H   0  0  0  0  0  0  0  0  0  0  0  0
   -2.7938    1.2996   -1.2879 H   0  0  0  0  0  0  0  0  0  0  0  0
    0.0295   -1.0872    0.1035 H   0  0  0  0  0  0  0  0  0  0  0  0
    0.8123   -0.2484    6.0478 H   0  0  0  0  0  0  0  0  0  0  0  0
    0.7936   -2.2157    7.5731 H   0  0  0  0  0  0  0  0  0  0  0  0
   -0.2722   -4.3315    6.8626 H   0  0  0  0  0  0  0  0  0  0  0  0
   -1.3371   -4.5160    4.6218 H   0  0  0  0  0  0  0  0  0  0  0  0
    1.4512   -0.9163   -4.1732 H   0  0  0  0  0  0  0  0  0  0  0  0
    3.7587   -1.8409   -4.1858 H   0  0  0  0  0  0  0  0  0  0  0  0
    4.4741   -0.1765   -0.3043 H   0  0  0  0  0  0  0  0  0  0  0  0
    2.1839    0.7690   -0.2631 H   0  0  0  0  0  0  0  0  0  0  0  0
  1  2  3  0
  2  3  1  0
  3  4  1  0
  4  5  1  0
  5  6  1  0
  6  7  2  0
  7  8  1  0
  8  9  2  3
  9 10  1  0
 10 11  3  0
  9 12  1  0
 12 13  2  0
 13 14  1  0
 14 15  2  0
 15 16  1  0
 16 17  2  0
 17 18  1  0
 18 19  2  0
 19 20  1  0
  7 21  1  0
 21 22  1  0
 22 23  2  0
 23 24  1  0
 24 25  2  0
 25 26  1  0
 25 27  1  0
 27 28  2  0
 21 29  2  0
 29  5  1  0
 20 12  1  0
 28 22  1  0
 19 14  1  0
  3 30  1  0
  3 31  1  0
  4 32  1  0
  4 33  1  0
  6 34  1  0
  8 35  1  0
 15 36  1  0
 16 37  1  0
 17 38  1  0
 18 39  1  0
 23 40  1  0
 24 41  1  0
 27 42  1  0
 28 43  1  0
M  END
$$$$
