
     RDKit          3D

 42 44  0  0  0  0  0  0  0  0999 V2000
   -6.4377    2.0521    0.2102 C   0  0  0  0  0  0  0  0  0  0  0  0
   -5.1858    1.2310    0.1089 C   0  0  0  0  0  0  0  0  0  0  0  0
   -4.6125    0.6708    1.2550 C   0  0  0  0  0  0  0  0  0  0  0  0
   -3.4245   -0.0744    1.1821 C   0  0  0  0  0  0  0  0  0  0  0  0
   -2.8488   -0.6571    2.4459 C   0  0  0  0  0  0  0  0  0  0  0  0
   -2.7994   -0.2549   -0.0713 C   0  0  0  0  0  0  0  0  0  0  0  0
   -1.5795   -1.0414   -0.1654 C   0  0  0  0  0  0  0  0  0  0  0  0
   -1.5781   -2.3874   -0.4710 C   0  0  0  0  0  0  0  0  0  0  0  0
    0.0364   -2.9602   -0.4896 S   0  0  0  0  0  0  0  0  0  0  0  0
    0.5883   -1.3999   -0.0862 C   0  0  0  0  0  0  0  0  0  0  0  0
    1.9134   -1.0865    0.0711 N   0  0  0  0  0  0  0  0  0  0  0  0
    2.9773   -1.9453    0.0091 C   0  0  0  0  0  0  0  0  0  0  0  0
    2.9634   -3.1617   -0.1274 O   0  0  0  0  0  0  0  0  0  0  0  0
    4.2955   -1.2840    0.2114 C   0  0  0  0  0  0  0  0  0  0  0  0
    4.6089   -0.0932   -0.3217 C   0  0  0  0  0  0  0  0  0  0  0  0
    5.8914    0.5070   -0.1438 C   0  0  0  0  0  0  0  0  0  0  0  0
    7.0261    0.0697    0.5223 C   0  0  0  0  0  0  0  0  0  0  0  0
    8.1104    0.9940    0.4560 C   0  0  0  0  0  0  0  0  0  0  0  0
    7.7819    2.1199   -0.2598 C   0  0  0  0  0  0  0  0  0  0  0  0
    6.1806    2.0602   -0.8452 S   0  0  0  0  0  0  0  0  0  0  0  0
   -0.3360   -0.4788    0.0533 N   0  0  0  0  0  0  0  0  0  0  0  0
   -3.3521    0.3340   -1.2298 C   0  0  0  0  0  0  0  0  0  0  0  0
   -2.7014    0.1920   -2.5806 C   0  0  0  0  0  0  0  0  0  0  0  0
   -4.5434    1.0699   -1.1231 C   0  0  0  0  0  0  0  0  0  0  0  0
   -7.0250    1.9844   -0.7116 H   0  0  0  0  0  0  0  0  0  0  0  0
   -7.0742    1.6950    1.0266 H   0  0  0  0  0  0  0  0  0  0  0  0
   -6.1835    3.1008    0.3921 H   0  0  0  0  0  0  0  0  0  0  0  0
   -5.0974    0.8183    2.2186 H   0  0  0  0  0  0  0  0  0  0  0  0
   -1.8385   -0.2731    2.6195 H   0  0  0  0  0  0  0  0  0  0  0  0
   -3.4522   -0.3920    3.3208 H   0  0  0  0  0  0  0  0  0  0  0  0
   -2.8225   -1.7498    2.3859 H   0  0  0  0  0  0  0  0  0  0  0  0
   -2.4160   -3.0375   -0.6780 H   0  0  0  0  0  0  0  0  0  0  0  0
    2.0543   -0.1150    0.3066 H   0  0  0  0  0  0  0  0  0  0  0  0
    5.0036   -1.8915    0.7637 H   0  0  0  0  0  0  0  0  0  0  0  0
    3.8829    0.4414   -0.9308 H   0  0  0  0  0  0  0  0  0  0  0  0
    7.0921   -0.8786    1.0414 H   0  0  0  0  0  0  0  0  0  0  0  0
    9.0811    0.8370    0.9104 H   0  0  0  0  0  0  0  0  0  0  0  0
    8.4065    2.9775   -0.4692 H   0  0  0  0  0  0  0  0  0  0  0  0
   -2.7410   -0.8496   -2.9147 H   0  0  0  0  0  0  0  0  0  0  0  0
   -3.2096    0.8011   -3.3360 H   0  0  0  0  0  0  0  0  0  0  0  0
   -1.6601    0.5280   -2.5444 H   0  0  0  0  0  0  0  0  0  0  0  0
   -4.9750    1.5276   -2.0116 H   0  0  0  0  0  0  0  0  0  0  0  0
  1  2  1  0
  2  3  2  0
  3  4  1  0
  4  5  1  0
  4  6  2  0
  6  7  1  0
  7  8  2  0
  8  9  1  0
  9 10  1  0
 10 11  1  0
 11 12  1  0
 12 13  2  0
 12 14  1  0
 14 15  2  3
 15 16  1  0
 16 17  2  0
 17 18  1  0
 18 19  2  0
 19 20  1  0
 10 21  2  0
  6 22  1  0
 22 23  1  0
 22 24  2  0
 24  2  1  0
 21  7  1  0
 20 16  1  0
  1 25  1  0
  1 26  1  0
  1 27  1  0
  3 28  1  0
  5 29  1  0
  5 30  1  0
  5 31  1  0
  8 32  1  0
 11 33  1  0
 14 34  1  0
 15 35  1  0
 17 36  1  0
 18 37  1  0
 19 38  1  0
 23 39  1  0
 23 40  1  0
 23 41  1  0
 24 42  1  0
M  END
$$$$
