
     RDKit          3D

 61 63  0  0  0  0  0  0  0  0999 V2000
    6.9547    4.0486    0.5066 C   0  0  0  0  0  0  0  0  0  0  0  0
    6.0998    3.9129   -0.7471 C   0  0  0  0  0  0  0  0  0  0  0  0
    4.8222    3.1010   -0.5341 C   0  0  0  0  0  0  0  0  0  0  0  0
    5.0762    1.6663   -0.0731 C   0  0  0  0  0  0  0  0  0  0  0  0
    3.8341    0.9265    0.0128 N   0  0  0  0  0  0  0  0  0  0  0  0
    3.2942    0.2753   -1.0778 C   0  0  0  0  0  0  0  0  0  0  0  0
    3.8800    0.1728   -2.1555 O   0  0  0  0  0  0  0  0  0  0  0  0
    1.8624   -0.2458   -0.8512 C   0  0  0  0  0  0  0  0  0  0  0  0
    1.4975   -1.2916   -1.9132 C   0  0  0  0  0  0  0  0  0  0  0  0
    0.1682   -1.9679   -1.6528 C   0  0  0  0  0  0  0  0  0  0  0  0
   -0.9592   -1.6321   -2.4149 C   0  0  0  0  0  0  0  0  0  0  0  0
   -2.1874   -2.2542   -2.1794 C   0  0  0  0  0  0  0  0  0  0  0  0
   -2.3020   -3.2156   -1.1778 C   0  0  0  0  0  0  0  0  0  0  0  0
   -1.1876   -3.5573   -0.4119 C   0  0  0  0  0  0  0  0  0  0  0  0
    0.0428   -2.9391   -0.6491 C   0  0  0  0  0  0  0  0  0  0  0  0
    0.9614    0.9250   -0.9674 N   0  0  0  0  0  0  0  0  0  0  0  0
    0.4843    1.7412    0.4074 S   0  0  0  0  0  6  0  0  0  0  0  0
   -0.0168    3.0285   -0.0164 O   0  0  0  0  0  0  0  0  0  0  0  0
    1.5469    1.6162    1.3825 O   0  0  0  0  0  0  0  0  0  0  0  0
   -0.8981    0.7838    0.9526 C   0  0  0  0  0  0  0  0  0  0  0  0
   -0.8503    0.0938    2.1610 C   0  0  0  0  0  0  0  0  0  0  0  0
   -1.9537   -0.6659    2.5663 C   0  0  0  0  0  0  0  0  0  0  0  0
   -3.1093   -0.7477    1.7700 C   0  0  0  0  0  0  0  0  0  0  0  0
   -3.1359   -0.0357    0.5707 C   0  0  0  0  0  0  0  0  0  0  0  0
   -2.0422    0.7390    0.1596 C   0  0  0  0  0  0  0  0  0  0  0  0
   -4.3264   -0.1155   -0.2900 C   0  0  0  0  0  0  0  0  0  0  0  0
   -4.3647    0.5505   -1.3240 O   0  0  0  0  0  0  0  0  0  0  0  0
   -5.3438   -0.9552    0.1323 N   0  0  0  0  0  0  0  0  0  0  0  0
   -6.5271   -1.0582   -0.7047 C   0  0  0  0  0  0  0  0  0  0  0  0
   -5.3660   -1.6367    1.3451 C   0  0  0  0  0  0  0  0  0  0  0  0
   -6.3458   -2.3044    1.6888 O   0  0  0  0  0  0  0  0  0  0  0  0
   -4.2369   -1.5251    2.1481 N   0  0  0  0  0  0  0  0  0  0  0  0
   -4.2276   -2.2361    3.4221 C   0  0  0  0  0  0  0  0  0  0  0  0
    7.3977    3.0876    0.7886 H   0  0  0  0  0  0  0  0  0  0  0  0
    7.7776    4.7500    0.3273 H   0  0  0  0  0  0  0  0  0  0  0  0
    6.3640    4.4231    1.3525 H   0  0  0  0  0  0  0  0  0  0  0  0
    5.8161    4.9178   -1.0870 H   0  0  0  0  0  0  0  0  0  0  0  0
    6.6992    3.4628   -1.5525 H   0  0  0  0  0  0  0  0  0  0  0  0
    4.2612    3.0895   -1.4824 H   0  0  0  0  0  0  0  0  0  0  0  0
    4.1760    3.6109    0.1970 H   0  0  0  0  0  0  0  0  0  0  0  0
    5.7568    1.1552   -0.7615 H   0  0  0  0  0  0  0  0  0  0  0  0
    5.5158    1.6496    0.9271 H   0  0  0  0  0  0  0  0  0  0  0  0
    3.2071    1.1548    0.7899 H   0  0  0  0  0  0  0  0  0  0  0  0
    1.7991   -0.6971    0.1452 H   0  0  0  0  0  0  0  0  0  0  0  0
    2.2713   -2.0667   -1.9584 H   0  0  0  0  0  0  0  0  0  0  0  0
    1.4843   -0.8335   -2.9109 H   0  0  0  0  0  0  0  0  0  0  0  0
   -0.8920   -0.8842   -3.2017 H   0  0  0  0  0  0  0  0  0  0  0  0
   -3.0560   -1.9805   -2.7766 H   0  0  0  0  0  0  0  0  0  0  0  0
   -3.2590   -3.7004   -0.9970 H   0  0  0  0  0  0  0  0  0  0  0  0
   -1.2748   -4.3123    0.3644 H   0  0  0  0  0  0  0  0  0  0  0  0
    0.9046   -3.2351   -0.0538 H   0  0  0  0  0  0  0  0  0  0  0  0
    1.0326    1.5020   -1.8084 H   0  0  0  0  0  0  0  0  0  0  0  0
    0.0305    0.1391    2.7924 H   0  0  0  0  0  0  0  0  0  0  0  0
   -1.8776   -1.1900    3.5130 H   0  0  0  0  0  0  0  0  0  0  0  0
   -2.0799    1.2839   -0.7816 H   0  0  0  0  0  0  0  0  0  0  0  0
   -6.3495   -0.6903   -1.7187 H   0  0  0  0  0  0  0  0  0  0  0  0
   -6.8522   -2.1027   -0.7665 H   0  0  0  0  0  0  0  0  0  0  0  0
   -7.3286   -0.4677   -0.2477 H   0  0  0  0  0  0  0  0  0  0  0  0
   -3.4026   -2.9596    3.4294 H   0  0  0  0  0  0  0  0  0  0  0  0
   -5.1543   -2.7900    3.5977 H   0  0  0  0  0  0  0  0  0  0  0  0
   -4.1114   -1.5136    4.2390 H   0  0  0  0  0  0  0  0  0  0  0  0
  1  2  1  0
  2  3  1  0
  3  4  1  0
  4  5  1  0
  5  6  1  0
  6  7  2  0
  6  8  1  0
  8  9  1  0
  9 10  1  0
 10 11  2  0
 11 12  1  0
 12 13  2  0
 13 14  1  0
 14 15  2  0
  8 16  1  0
 16 17  1  0
 17 18  2  0
 17 19  2  0
 17 20  1  0
 20 21  2  0
 21 22  1  0
 22 23  2  0
 23 24  1  0
 24 25  2  0
 24 26  1  0
 26 27  2  0
 26 28  1  0
 28 29  1  0
 28 30  1  0
 30 31  2  0
 30 32  1  0
 32 33  1  0
 15 10  1  0
 25 20  1  0
 32 23  1  0
  1 34  1  0
  1 35  1  0
  1 36  1  0
  2 37  1  0
  2 38  1  0
  3 39  1  0
  3 40  1  0
  4 41  1  0
  4 42  1  0
  5 43  1  0
  8 44  1  0
  9 45  1  0
  9 46  1  0
 11 47  1  0
 12 48  1  0
 13 49  1  0
 14 50  1  0
 15 51  1  0
 16 52  1  0
 21 53  1  0
 22 54  1  0
 25 55  1  0
 29 56  1  0
 29 57  1  0
 29 58  1  0
 33 59  1  0
 33 60  1  0
 33 61  1  0
M  END
$$$$
