
     RDKit          3D

 56 59  0  0  0  0  0  0  0  0999 V2000
   -2.0261   -3.0887    0.4533 C   0  0  0  0  0  0  0  0  0  0  0  0
   -2.2227   -1.6809    0.4734 O   0  0  0  0  0  0  0  0  0  0  0  0
   -2.4789   -1.0518   -0.7154 C   0  0  0  0  0  0  0  0  0  0  0  0
   -2.6160   -1.7070   -1.9405 C   0  0  0  0  0  0  0  0  0  0  0  0
   -2.8752   -0.9803   -3.1086 C   0  0  0  0  0  0  0  0  0  0  0  0
   -2.9941    0.4127   -3.0710 C   0  0  0  0  0  0  0  0  0  0  0  0
   -3.2594    1.1410   -4.3482 C   0  0  0  0  0  0  0  0  0  0  0  0
   -3.1523    2.6416   -4.3696 C   0  0  0  0  0  0  0  0  0  0  0  0
   -3.5585    0.5100   -5.3599 O   0  0  0  0  0  0  0  0  0  0  0  0
   -2.8639    1.0731   -1.8463 C   0  0  0  0  0  0  0  0  0  0  0  0
   -2.6110    0.3502   -0.6592 C   0  0  0  0  0  0  0  0  0  0  0  0
   -2.4713    1.1063    0.6448 C   0  0  0  0  0  0  0  0  0  0  0  0
   -0.8871    1.9853    0.7696 S   0  0  0  0  0  0  0  0  0  0  0  0
    0.1585    0.6043    1.0262 C   0  0  0  0  0  0  0  0  0  0  0  0
    0.0042   -0.0239    2.1454 N   0  0  0  0  0  0  0  0  0  0  0  0
    0.7772   -1.1596    2.3904 C   0  0  0  0  0  0  0  0  0  0  0  0
    0.5932   -1.8561    3.5891 C   0  0  0  0  0  0  0  0  0  0  0  0
    1.3383   -3.0122    3.8624 C   0  0  0  0  0  0  0  0  0  0  0  0
    1.1603   -3.7848    5.1153 C   0  0  0  0  0  0  0  0  0  0  0  0
    1.7865   -4.7785    5.4321 O   0  0  0  0  0  0  0  0  0  0  0  0
    0.1904   -3.2876    5.8986 O   0  0  0  0  0  0  0  0  0  0  0  0
    2.2751   -3.4720    2.9285 C   0  0  0  0  0  0  0  0  0  0  0  0
    2.4587   -2.7824    1.7291 C   0  0  0  0  0  0  0  0  0  0  0  0
    1.7024   -1.6322    1.4688 C   0  0  0  0  0  0  0  0  0  0  0  0
    1.8551   -0.8854    0.2086 C   0  0  0  0  0  0  0  0  0  0  0  0
    2.6504   -1.3074   -0.6280 O   0  0  0  0  0  0  0  0  0  0  0  0
    1.0723    0.2550    0.0479 N   0  0  0  0  0  0  0  0  0  0  0  0
    1.2888    1.0232   -1.1834 C   0  0  0  0  0  0  0  0  0  0  0  0
    2.2534    2.1760   -0.9892 C   0  0  0  0  0  0  0  0  0  0  0  0
    1.8009    3.5046   -1.0249 C   0  0  0  0  0  0  0  0  0  0  0  0
    2.6851    4.5647   -0.8077 C   0  0  0  0  0  0  0  0  0  0  0  0
    4.0336    4.3117   -0.5627 C   0  0  0  0  0  0  0  0  0  0  0  0
    4.5014    2.9995   -0.5455 C   0  0  0  0  0  0  0  0  0  0  0  0
    3.6181    1.9381   -0.7603 C   0  0  0  0  0  0  0  0  0  0  0  0
   -1.8094   -3.4120    1.4770 H   0  0  0  0  0  0  0  0  0  0  0  0
   -2.9327   -3.6066    0.1260 H   0  0  0  0  0  0  0  0  0  0  0  0
   -1.1661   -3.3585   -0.1694 H   0  0  0  0  0  0  0  0  0  0  0  0
   -2.5313   -2.7873   -2.0277 H   0  0  0  0  0  0  0  0  0  0  0  0
   -2.9833   -1.5143   -4.0511 H   0  0  0  0  0  0  0  0  0  0  0  0
   -3.2066    2.9901   -5.4049 H   0  0  0  0  0  0  0  0  0  0  0  0
   -2.1895    2.9598   -3.9624 H   0  0  0  0  0  0  0  0  0  0  0  0
   -3.9773    3.0874   -3.8120 H   0  0  0  0  0  0  0  0  0  0  0  0
   -2.9570    2.1558   -1.7886 H   0  0  0  0  0  0  0  0  0  0  0  0
   -3.2706    1.8551    0.6950 H   0  0  0  0  0  0  0  0  0  0  0  0
   -2.6205    0.4648    1.5189 H   0  0  0  0  0  0  0  0  0  0  0  0
   -0.1428   -1.4882    4.3003 H   0  0  0  0  0  0  0  0  0  0  0  0
    0.1825   -3.8817    6.6767 H   0  0  0  0  0  0  0  0  0  0  0  0
    2.8614   -4.3678    3.1316 H   0  0  0  0  0  0  0  0  0  0  0  0
    3.1865   -3.1395    1.0041 H   0  0  0  0  0  0  0  0  0  0  0  0
    1.6863    0.3752   -1.9740 H   0  0  0  0  0  0  0  0  0  0  0  0
    0.3327    1.3864   -1.5724 H   0  0  0  0  0  0  0  0  0  0  0  0
    0.7520    3.7281   -1.2113 H   0  0  0  0  0  0  0  0  0  0  0  0
    2.3188    5.5888   -0.8241 H   0  0  0  0  0  0  0  0  0  0  0  0
    4.7195    5.1365   -0.3829 H   0  0  0  0  0  0  0  0  0  0  0  0
    5.5545    2.8003   -0.3590 H   0  0  0  0  0  0  0  0  0  0  0  0
    4.0056    0.9207   -0.7446 H   0  0  0  0  0  0  0  0  0  0  0  0
  1  2  1  0
  2  3  1  0
  3  4  2  0
  4  5  1  0
  5  6  2  0
  6  7  1  0
  7  8  1  0
  7  9  2  0
  6 10  1  0
 10 11  2  0
 11 12  1  0
 12 13  1  0
 13 14  1  0
 14 15  2  0
 15 16  1  0
 16 17  2  0
 17 18  1  0
 18 19  1  0
 19 20  2  0
 19 21  1  0
 18 22  2  0
 22 23  1  0
 23 24  2  0
 24 25  1  0
 25 26  2  0
 25 27  1  0
 27 28  1  0
 28 29  1  0
 29 30  2  0
 30 31  1  0
 31 32  2  0
 32 33  1  0
 33 34  2  0
 11  3  1  0
 27 14  1  0
 34 29  1  0
 24 16  1  0
  1 35  1  0
  1 36  1  0
  1 37  1  0
  4 38  1  0
  5 39  1  0
  8 40  1  0
  8 41  1  0
  8 42  1  0
 10 43  1  0
 12 44  1  0
 12 45  1  0
 17 46  1  0
 21 47  1  0
 22 48  1  0
 23 49  1  0
 28 50  1  0
 28 51  1  0
 30 52  1  0
 31 53  1  0
 32 54  1  0
 33 55  1  0
 34 56  1  0
M  END
$$$$
