
     RDKit          3D

 46 47  0  0  0  0  0  0  0  0999 V2000
    0.3285   -2.1300    1.5794 O   0  0  0  0  0  0  0  0  0  0  0  0
    0.1393   -0.9346    1.7593 C   0  0  0  0  0  0  0  0  0  0  0  0
   -1.0414   -0.3428    2.1475 N   0  0  0  0  0  0  0  0  0  0  0  0
   -2.2688   -1.0834    2.3210 C   0  0  0  0  0  0  0  0  0  0  0  0
   -2.9951   -1.3562    1.0031 C   0  0  0  0  0  0  0  0  0  0  0  0
   -3.5160   -0.0671    0.3525 C   0  0  0  0  0  0  0  0  0  0  0  0
   -4.2147   -0.3351   -0.9116 N   0  0  0  0  0  0  0  0  0  0  0  0
   -4.2760    0.8863   -1.7449 C   0  0  0  0  0  0  0  0  0  0  0  0
   -5.3640    0.7825   -2.8230 C   0  0  0  0  0  0  0  0  0  0  0  0
   -6.6843    0.6877   -2.2704 O   0  0  0  0  0  0  0  0  0  0  0  0
   -6.7045    0.0999   -0.9637 C   0  0  0  0  0  0  0  0  0  0  0  0
   -5.5667   -0.9090   -0.7322 C   0  0  0  0  0  0  0  0  0  0  0  0
    1.2910    0.0636    1.5419 C   0  0  0  0  0  0  0  0  0  0  0  0
    1.0954    1.2605    1.7067 O   0  0  0  0  0  0  0  0  0  0  0  0
    2.4590   -0.5689    1.1628 N   0  0  0  0  0  0  0  0  0  0  0  0
    3.5876    0.1484    0.9187 N   0  0  0  0  0  0  0  0  0  0  0  0
    4.6208   -0.5480    0.5622 C   0  0  0  0  0  0  0  0  0  0  0  0
    5.9123    0.1028    0.2660 C   0  0  0  0  0  0  0  0  0  0  0  0
    6.9860   -0.7112   -0.1136 C   0  0  0  0  0  0  0  0  0  0  0  0
    8.2260   -0.1368   -0.4030 C   0  0  0  0  0  0  0  0  0  0  0  0
    8.3946    1.2456   -0.3138 C   0  0  0  0  0  0  0  0  0  0  0  0
    7.3251    2.0581    0.0645 C   0  0  0  0  0  0  0  0  0  0  0  0
    6.0872    1.4890    0.3537 C   0  0  0  0  0  0  0  0  0  0  0  0
    5.0904    2.3528    0.7167 O   0  0  0  0  0  0  0  0  0  0  0  0
   -1.0335    0.6734    2.2124 H   0  0  0  0  0  0  0  0  0  0  0  0
   -2.0269   -2.0375    2.8029 H   0  0  0  0  0  0  0  0  0  0  0  0
   -2.9049   -0.5117    3.0046 H   0  0  0  0  0  0  0  0  0  0  0  0
   -3.8253   -2.0396    1.2130 H   0  0  0  0  0  0  0  0  0  0  0  0
   -2.3236   -1.8737    0.3065 H   0  0  0  0  0  0  0  0  0  0  0  0
   -4.1640    0.4831    1.0467 H   0  0  0  0  0  0  0  0  0  0  0  0
   -2.6491    0.5753    0.1507 H   0  0  0  0  0  0  0  0  0  0  0  0
   -3.3020    1.0430   -2.2214 H   0  0  0  0  0  0  0  0  0  0  0  0
   -4.4922    1.7628   -1.1195 H   0  0  0  0  0  0  0  0  0  0  0  0
   -5.1974   -0.0907   -3.4647 H   0  0  0  0  0  0  0  0  0  0  0  0
   -5.3422    1.6677   -3.4668 H   0  0  0  0  0  0  0  0  0  0  0  0
   -6.6604    0.9081   -0.2243 H   0  0  0  0  0  0  0  0  0  0  0  0
   -7.6736   -0.3951   -0.8439 H   0  0  0  0  0  0  0  0  0  0  0  0
   -5.6675   -1.7133   -1.4717 H   0  0  0  0  0  0  0  0  0  0  0  0
   -5.6929   -1.3752    0.2505 H   0  0  0  0  0  0  0  0  0  0  0  0
    2.4410   -1.5832    1.0646 H   0  0  0  0  0  0  0  0  0  0  0  0
    4.5773   -1.6481    0.4662 H   0  0  0  0  0  0  0  0  0  0  0  0
    6.8729   -1.7894   -0.1884 H   0  0  0  0  0  0  0  0  0  0  0  0
    9.0628   -0.7656   -0.6984 H   0  0  0  0  0  0  0  0  0  0  0  0
    9.3596    1.6933   -0.5390 H   0  0  0  0  0  0  0  0  0  0  0  0
    7.4539    3.1351    0.1346 H   0  0  0  0  0  0  0  0  0  0  0  0
    4.2770    1.8274    0.8913 H   0  0  0  0  0  0  0  0  0  0  0  0
  1  2  2  0
  2  3  1  0
  3  4  1  0
  4  5  1  0
  5  6  1  0
  6  7  1  0
  7  8  1  0
  8  9  1  0
  9 10  1  0
 10 11  1  0
 11 12  1  0
  2 13  1  0
 13 14  2  0
 13 15  1  0
 15 16  1  0
 16 17  2  3
 17 18  1  0
 18 19  2  0
 19 20  1  0
 20 21  2  0
 21 22  1  0
 22 23  2  0
 23 24  1  0
 12  7  1  0
 23 18  1  0
  3 25  1  0
  4 26  1  0
  4 27  1  0
  5 28  1  0
  5 29  1  0
  6 30  1  0
  6 31  1  0
  8 32  1  0
  8 33  1  0
  9 34  1  0
  9 35  1  0
 11 36  1  0
 11 37  1  0
 12 38  1  0
 12 39  1  0
 15 40  1  0
 17 41  1  0
 19 42  1  0
 20 43  1  0
 21 44  1  0
 22 45  1  0
 24 46  1  0
M  END
$$$$
