
     RDKit          3D

 62 64  0  0  0  0  0  0  0  0999 V2000
    4.7187   -2.1267   -1.9210 C   0  0  0  0  0  0  0  0  0  0  0  0
    5.1552   -1.8837   -0.5011 C   0  0  0  0  0  0  0  0  0  0  0  0
    5.5764   -3.0182    0.2205 C   0  0  0  0  0  0  0  0  0  0  0  0
    5.8945   -2.9382    1.5711 C   0  0  0  0  0  0  0  0  0  0  0  0
    5.7921   -1.7198    2.2289 C   0  0  0  0  0  0  0  0  0  0  0  0
    5.4056   -0.5607    1.5355 C   0  0  0  0  0  0  0  0  0  0  0  0
    5.3370    0.7301    2.3123 C   0  0  0  0  0  0  0  0  0  0  0  0
    5.1225   -0.6294    0.1465 C   0  0  0  0  0  0  0  0  0  0  0  0
    4.7610    0.5797   -0.4966 N   0  0  0  0  0  0  0  0  0  0  0  0
    5.0787    0.9736   -1.7852 C   0  0  0  0  0  0  0  0  0  0  0  0
    5.8028    0.3714   -2.5727 O   0  0  0  0  0  0  0  0  0  0  0  0
    4.4931    2.3424   -2.1593 C   0  0  0  0  0  0  0  0  0  0  0  0
    3.0697    2.4277   -2.0548 O   0  0  0  0  0  0  0  0  0  0  0  0
    2.5879    2.6941   -0.8138 C   0  0  0  0  0  0  0  0  0  0  0  0
    3.2802    2.8148    0.1899 O   0  0  0  0  0  0  0  0  0  0  0  0
    1.0870    2.7415   -0.8189 C   0  0  0  0  0  0  0  0  0  0  0  0
    0.5396    1.4034   -0.3422 C   0  0  0  0  0  0  0  0  0  0  0  0
   -0.9685    1.3863   -0.3508 C   0  0  0  0  0  0  0  0  0  0  0  0
   -1.6646    0.9272   -1.4785 C   0  0  0  0  0  0  0  0  0  0  0  0
   -3.0601    0.9328   -1.4988 C   0  0  0  0  0  0  0  0  0  0  0  0
   -3.7640    1.3892   -0.3814 C   0  0  0  0  0  0  0  0  0  0  0  0
   -5.5450    1.4280   -0.4162 S   0  0  0  0  0  6  0  0  0  0  0  0
   -5.9497    1.4660   -1.8060 O   0  0  0  0  0  0  0  0  0  0  0  0
   -5.9732    2.4541    0.5116 O   0  0  0  0  0  0  0  0  0  0  0  0
   -5.9817   -0.0899    0.2265 N   0  0  0  0  0  0  0  0  0  0  0  0
   -5.6936   -0.3067    1.6649 C   0  0  0  0  0  0  0  0  0  0  0  0
   -6.5285   -1.4779    2.1777 C   0  0  0  0  0  0  0  0  0  0  0  0
   -6.2828   -2.7379    1.3524 C   0  0  0  0  0  0  0  0  0  0  0  0
   -6.5055   -2.4624   -0.1321 C   0  0  0  0  0  0  0  0  0  0  0  0
   -5.6704   -1.2757   -0.6077 C   0  0  0  0  0  0  0  0  0  0  0  0
   -3.0836    1.8773    0.7372 C   0  0  0  0  0  0  0  0  0  0  0  0
   -1.6881    1.8686    0.7522 C   0  0  0  0  0  0  0  0  0  0  0  0
    4.2745   -3.1245   -2.0200 H   0  0  0  0  0  0  0  0  0  0  0  0
    3.9378   -1.4269   -2.2322 H   0  0  0  0  0  0  0  0  0  0  0  0
    5.5736   -2.0748   -2.6008 H   0  0  0  0  0  0  0  0  0  0  0  0
    5.6347   -3.9865   -0.2738 H   0  0  0  0  0  0  0  0  0  0  0  0
    6.2066   -3.8276    2.1116 H   0  0  0  0  0  0  0  0  0  0  0  0
    6.0287   -1.6756    3.2900 H   0  0  0  0  0  0  0  0  0  0  0  0
    5.6751    0.5989    3.3461 H   0  0  0  0  0  0  0  0  0  0  0  0
    5.9831    1.4870    1.8560 H   0  0  0  0  0  0  0  0  0  0  0  0
    4.3056    1.0949    2.3485 H   0  0  0  0  0  0  0  0  0  0  0  0
    4.4970    1.3492    0.1160 H   0  0  0  0  0  0  0  0  0  0  0  0
    4.9884    3.1256   -1.5725 H   0  0  0  0  0  0  0  0  0  0  0  0
    4.7400    2.5332   -3.2096 H   0  0  0  0  0  0  0  0  0  0  0  0
    0.7696    3.5662   -0.1700 H   0  0  0  0  0  0  0  0  0  0  0  0
    0.7301    2.9877   -1.8262 H   0  0  0  0  0  0  0  0  0  0  0  0
    0.9211    0.5888   -0.9719 H   0  0  0  0  0  0  0  0  0  0  0  0
    0.9014    1.1805    0.6702 H   0  0  0  0  0  0  0  0  0  0  0  0
   -1.1229    0.5700   -2.3525 H   0  0  0  0  0  0  0  0  0  0  0  0
   -3.5876    0.5889   -2.3860 H   0  0  0  0  0  0  0  0  0  0  0  0
   -4.6275   -0.5150    1.8083 H   0  0  0  0  0  0  0  0  0  0  0  0
   -5.9529    0.5819    2.2487 H   0  0  0  0  0  0  0  0  0  0  0  0
   -7.5934   -1.2173    2.1304 H   0  0  0  0  0  0  0  0  0  0  0  0
   -6.2895   -1.6714    3.2294 H   0  0  0  0  0  0  0  0  0  0  0  0
   -6.9509   -3.5391    1.6873 H   0  0  0  0  0  0  0  0  0  0  0  0
   -5.2551   -3.0867    1.5114 H   0  0  0  0  0  0  0  0  0  0  0  0
   -6.2511   -3.3534   -0.7168 H   0  0  0  0  0  0  0  0  0  0  0  0
   -7.5690   -2.2546   -0.3051 H   0  0  0  0  0  0  0  0  0  0  0  0
   -4.6036   -1.5157   -0.5380 H   0  0  0  0  0  0  0  0  0  0  0  0
   -5.9128   -1.0836   -1.6576 H   0  0  0  0  0  0  0  0  0  0  0  0
   -3.6294    2.2696    1.5925 H   0  0  0  0  0  0  0  0  0  0  0  0
   -1.1641    2.2492    1.6272 H   0  0  0  0  0  0  0  0  0  0  0  0
  1  2  1  0
  2  3  2  0
  3  4  1  0
  4  5  2  0
  5  6  1  0
  6  7  1  0
  6  8  2  0
  8  9  1  0
  9 10  1  0
 10 11  2  0
 10 12  1  0
 12 13  1  0
 13 14  1  0
 14 15  2  0
 14 16  1  0
 16 17  1  0
 17 18  1  0
 18 19  2  0
 19 20  1  0
 20 21  2  0
 21 22  1  0
 22 23  2  0
 22 24  2  0
 22 25  1  0
 25 26  1  0
 26 27  1  0
 27 28  1  0
 28 29  1  0
 29 30  1  0
 21 31  1  0
 31 32  2  0
  8  2  1  0
 32 18  1  0
 30 25  1  0
  1 33  1  0
  1 34  1  0
  1 35  1  0
  3 36  1  0
  4 37  1  0
  5 38  1  0
  7 39  1  0
  7 40  1  0
  7 41  1  0
  9 42  1  0
 12 43  1  0
 12 44  1  0
 16 45  1  0
 16 46  1  0
 17 47  1  0
 17 48  1  0
 19 49  1  0
 20 50  1  0
 26 51  1  0
 26 52  1  0
 27 53  1  0
 27 54  1  0
 28 55  1  0
 28 56  1  0
 29 57  1  0
 29 58  1  0
 30 59  1  0
 30 60  1  0
 31 61  1  0
 32 62  1  0
M  END
$$$$
