
     RDKit          3D

 49 52  0  0  0  0  0  0  0  0999 V2000
   -6.2435    0.3776    2.5305 C   0  0  0  0  0  0  0  0  0  0  0  0
   -5.3561    0.4387    1.3225 C   0  0  0  0  0  0  0  0  0  0  0  0
   -5.8523    0.9000    0.1000 C   0  0  0  0  0  0  0  0  0  0  0  0
   -5.0350    0.9307   -1.0355 C   0  0  0  0  0  0  0  0  0  0  0  0
   -5.5597    1.4864   -2.3279 C   0  0  0  0  0  0  0  0  0  0  0  0
   -3.7018    0.4975   -0.9411 C   0  0  0  0  0  0  0  0  0  0  0  0
   -3.1931   -0.0001    0.2640 C   0  0  0  0  0  0  0  0  0  0  0  0
   -1.8483   -0.4679    0.4012 N   0  0  0  0  0  0  0  0  0  0  0  0
   -1.3550   -0.7018    1.6547 N   0  0  0  0  0  0  0  0  0  0  0  0
   -0.0783   -1.0334    1.4815 C   0  0  0  0  0  0  0  0  0  0  0  0
    0.2852   -1.0667    0.1317 C   0  0  0  0  0  0  0  0  0  0  0  0
   -0.8777   -0.7531   -0.5516 C   0  0  0  0  0  0  0  0  0  0  0  0
   -1.0007   -0.7791   -2.0370 C   0  0  0  0  0  0  0  0  0  0  0  0
    0.1773   -1.5573   -2.6563 C   0  0  0  0  0  0  0  0  0  0  0  0
    1.5242   -1.1500   -2.0375 C   0  0  0  0  0  0  0  0  0  0  0  0
    1.5737   -1.4415   -0.5197 C   0  0  0  0  0  0  0  0  0  0  0  0
    2.6389   -0.7058    0.1115 N   0  0  0  0  0  0  0  0  0  0  0  0
    3.9558   -1.0937    0.0254 C   0  0  0  0  0  0  0  0  0  0  0  0
    4.3233   -2.1517   -0.4757 O   0  0  0  0  0  0  0  0  0  0  0  0
    4.8869   -0.1016    0.5841 C   0  0  0  0  0  0  0  0  0  0  0  0
    6.2977   -0.2096    0.6783 C   0  0  0  0  0  0  0  0  0  0  0  0
    6.7198    0.9604    1.2672 C   0  0  0  0  0  0  0  0  0  0  0  0
    8.0637    1.4531    1.6391 C   0  0  0  0  0  0  0  0  0  0  0  0
    5.5851    1.6884    1.4898 N   0  0  0  0  0  0  0  0  0  0  0  0
    4.4593    1.0783    1.0817 N   0  0  0  0  0  0  0  0  0  0  0  0
   -4.0327   -0.0179    1.3931 C   0  0  0  0  0  0  0  0  0  0  0  0
   -6.9930    1.1756    2.5054 H   0  0  0  0  0  0  0  0  0  0  0  0
   -5.6626    0.5078    3.4497 H   0  0  0  0  0  0  0  0  0  0  0  0
   -6.7562   -0.5884    2.5694 H   0  0  0  0  0  0  0  0  0  0  0  0
   -6.8821    1.2463    0.0337 H   0  0  0  0  0  0  0  0  0  0  0  0
   -5.3528    2.5595   -2.3847 H   0  0  0  0  0  0  0  0  0  0  0  0
   -6.6401    1.3292   -2.4122 H   0  0  0  0  0  0  0  0  0  0  0  0
   -5.0923    0.9887   -3.1841 H   0  0  0  0  0  0  0  0  0  0  0  0
   -3.0858    0.5961   -1.8247 H   0  0  0  0  0  0  0  0  0  0  0  0
    0.5308   -1.2502    2.3502 H   0  0  0  0  0  0  0  0  0  0  0  0
   -1.9328   -1.2593   -2.3516 H   0  0  0  0  0  0  0  0  0  0  0  0
   -0.9821    0.2472   -2.4213 H   0  0  0  0  0  0  0  0  0  0  0  0
    0.1967   -1.3852   -3.7385 H   0  0  0  0  0  0  0  0  0  0  0  0
    0.0262   -2.6343   -2.5064 H   0  0  0  0  0  0  0  0  0  0  0  0
    2.3415   -1.6788   -2.5425 H   0  0  0  0  0  0  0  0  0  0  0  0
    1.6875   -0.0794   -2.2233 H   0  0  0  0  0  0  0  0  0  0  0  0
    1.7479   -2.5147   -0.3701 H   0  0  0  0  0  0  0  0  0  0  0  0
    2.4897    0.2448    0.4405 H   0  0  0  0  0  0  0  0  0  0  0  0
    6.9082   -1.0423    0.3552 H   0  0  0  0  0  0  0  0  0  0  0  0
    8.1406    1.5791    2.7239 H   0  0  0  0  0  0  0  0  0  0  0  0
    8.2676    2.4177    1.1631 H   0  0  0  0  0  0  0  0  0  0  0  0
    8.8407    0.7495    1.3236 H   0  0  0  0  0  0  0  0  0  0  0  0
    5.5067    2.6076    1.9136 H   0  0  0  0  0  0  0  0  0  0  0  0
   -3.6614   -0.3963    2.3454 H   0  0  0  0  0  0  0  0  0  0  0  0
  1  2  1  0
  2  3  2  0
  3  4  1  0
  4  5  1  0
  4  6  2  0
  6  7  1  0
  7  8  1  0
  8  9  1  0
  9 10  2  0
 10 11  1  0
 11 12  2  0
 12 13  1  0
 13 14  1  0
 14 15  1  0
 15 16  1  0
 16 17  1  0
 17 18  1  0
 18 19  2  0
 18 20  1  0
 20 21  1  0
 21 22  2  0
 22 23  1  0
 22 24  1  0
 24 25  1  0
  7 26  2  0
 26  2  1  0
 12  8  1  0
 25 20  2  0
 16 11  1  0
  1 27  1  0
  1 28  1  0
  1 29  1  0
  3 30  1  0
  5 31  1  0
  5 32  1  0
  5 33  1  0
  6 34  1  0
 10 35  1  0
 13 36  1  0
 13 37  1  0
 14 38  1  0
 14 39  1  0
 15 40  1  0
 15 41  1  0
 16 42  1  0
 17 43  1  0
 21 44  1  0
 23 45  1  0
 23 46  1  0
 23 47  1  0
 24 48  1  0
 26 49  1  0
M  END
$$$$
