
     RDKit          3D

 46 48  0  0  0  0  0  0  0  0999 V2000
    8.2198   -0.2686    0.0914 C   0  0  0  0  0  0  0  0  0  0  0  0
    7.2972   -1.0403   -0.6671 O   0  0  0  0  0  0  0  0  0  0  0  0
    5.9681   -0.7963   -0.4640 C   0  0  0  0  0  0  0  0  0  0  0  0
    5.1064   -1.5833   -1.2297 C   0  0  0  0  0  0  0  0  0  0  0  0
    3.7210   -1.4371   -1.1205 C   0  0  0  0  0  0  0  0  0  0  0  0
    3.1759   -0.4970   -0.2379 C   0  0  0  0  0  0  0  0  0  0  0  0
    1.6876   -0.3768   -0.1565 C   0  0  0  0  0  0  0  0  0  0  0  0
    0.9908   -1.0477   -0.9189 O   0  0  0  0  0  0  0  0  0  0  0  0
    1.0967    0.5884    0.8676 C   0  0  0  0  0  0  0  0  0  0  0  0
   -0.3421    0.4654    0.8636 N   0  0  0  0  0  0  0  0  0  0  0  0
   -1.0355   -0.4354    1.6019 C   0  0  0  0  0  0  0  0  0  0  0  0
   -0.5885   -1.2258    2.4159 O   0  0  0  0  0  0  0  0  0  0  0  0
   -2.3700   -0.3165    1.2964 N   0  0  0  0  0  0  0  0  0  0  0  0
   -2.6194    0.6026    0.1981 C   0  0  0  0  0  0  0  0  0  0  0  0
   -3.5327    1.7614    0.6159 C   0  0  0  0  0  0  0  0  0  0  0  0
   -5.0449    1.5228    0.6351 C   0  0  0  0  0  0  0  0  0  0  0  0
   -5.4979    0.1130    0.9941 C   0  0  0  0  0  0  0  0  0  0  0  0
   -5.2110   -0.9751   -0.0485 C   0  0  0  0  0  0  0  0  0  0  0  0
   -4.4554   -0.5341   -1.2967 C   0  0  0  0  0  0  0  0  0  0  0  0
   -2.9908   -0.1437   -1.0916 C   0  0  0  0  0  0  0  0  0  0  0  0
   -1.1772    1.1469    0.0271 C   0  0  0  0  0  0  0  0  0  0  0  0
   -0.8410    2.0352   -0.7467 O   0  0  0  0  0  0  0  0  0  0  0  0
    4.0398    0.2943    0.5289 C   0  0  0  0  0  0  0  0  0  0  0  0
    5.4296    0.1433    0.4152 C   0  0  0  0  0  0  0  0  0  0  0  0
    8.1296    0.7970   -0.1438 H   0  0  0  0  0  0  0  0  0  0  0  0
    9.2294   -0.5866   -0.1861 H   0  0  0  0  0  0  0  0  0  0  0  0
    8.0967   -0.4490    1.1644 H   0  0  0  0  0  0  0  0  0  0  0  0
    5.5160   -2.3185   -1.9190 H   0  0  0  0  0  0  0  0  0  0  0  0
    3.0726   -2.0644   -1.7300 H   0  0  0  0  0  0  0  0  0  0  0  0
    1.3692    1.6124    0.5950 H   0  0  0  0  0  0  0  0  0  0  0  0
    1.4676    0.3334    1.8649 H   0  0  0  0  0  0  0  0  0  0  0  0
   -3.0229   -0.9888    1.6748 H   0  0  0  0  0  0  0  0  0  0  0  0
   -3.3510    2.6274   -0.0351 H   0  0  0  0  0  0  0  0  0  0  0  0
   -3.2343    2.0970    1.6198 H   0  0  0  0  0  0  0  0  0  0  0  0
   -5.4765    1.8180   -0.3285 H   0  0  0  0  0  0  0  0  0  0  0  0
   -5.4824    2.2214    1.3606 H   0  0  0  0  0  0  0  0  0  0  0  0
   -6.5835    0.1400    1.1576 H   0  0  0  0  0  0  0  0  0  0  0  0
   -5.0757   -0.1783    1.9629 H   0  0  0  0  0  0  0  0  0  0  0  0
   -4.6878   -1.8135    0.4265 H   0  0  0  0  0  0  0  0  0  0  0  0
   -6.1752   -1.3893   -0.3721 H   0  0  0  0  0  0  0  0  0  0  0  0
   -4.9902    0.2872   -1.7874 H   0  0  0  0  0  0  0  0  0  0  0  0
   -4.4813   -1.3567   -2.0237 H   0  0  0  0  0  0  0  0  0  0  0  0
   -2.3856   -1.0593   -1.1597 H   0  0  0  0  0  0  0  0  0  0  0  0
   -2.6936    0.4562   -1.9627 H   0  0  0  0  0  0  0  0  0  0  0  0
    3.6690    1.0419    1.2237 H   0  0  0  0  0  0  0  0  0  0  0  0
    6.0633    0.7770    1.0278 H   0  0  0  0  0  0  0  0  0  0  0  0
  1  2  1  0
  2  3  1  0
  3  4  2  0
  4  5  1  0
  5  6  2  0
  6  7  1  0
  7  8  2  0
  7  9  1  0
  9 10  1  0
 10 11  1  0
 11 12  2  0
 11 13  1  0
 13 14  1  0
 14 15  1  0
 15 16  1  0
 16 17  1  0
 17 18  1  0
 18 19  1  0
 19 20  1  0
 14 21  1  0
 21 22  2  0
  6 23  1  0
 23 24  2  0
 24  3  1  0
 21 10  1  0
 20 14  1  0
  1 25  1  0
  1 26  1  0
  1 27  1  0
  4 28  1  0
  5 29  1  0
  9 30  1  0
  9 31  1  0
 13 32  1  0
 15 33  1  0
 15 34  1  0
 16 35  1  0
 16 36  1  0
 17 37  1  0
 17 38  1  0
 18 39  1  0
 18 40  1  0
 19 41  1  0
 19 42  1  0
 20 43  1  0
 20 44  1  0
 23 45  1  0
 24 46  1  0
M  END
$$$$
