
     RDKit          3D

 55 57  0  0  0  0  0  0  0  0999 V2000
   -7.5366   -2.1832   -1.4607 C   0  0  0  0  0  0  0  0  0  0  0  0
   -7.0988   -0.9955   -0.6546 C   0  0  0  0  0  0  0  0  0  0  0  0
   -8.0282   -0.0369   -0.2460 C   0  0  0  0  0  0  0  0  0  0  0  0
   -7.6288    1.0484    0.5362 C   0  0  0  0  0  0  0  0  0  0  0  0
   -6.2900    1.2023    0.9301 C   0  0  0  0  0  0  0  0  0  0  0  0
   -5.9175    2.3942    1.7691 C   0  0  0  0  0  0  0  0  0  0  0  0
   -5.3534    0.2254    0.5384 C   0  0  0  0  0  0  0  0  0  0  0  0
   -3.9203    0.3192    0.9506 C   0  0  0  0  0  0  0  0  0  0  0  0
   -3.6300    0.7235    2.0746 O   0  0  0  0  0  0  0  0  0  0  0  0
   -2.8725   -0.1005   -0.0725 C   0  0  0  0  0  0  0  0  0  0  0  0
   -1.5939    0.4053    0.3170 O   0  0  0  0  0  0  0  0  0  0  0  0
   -0.5747    0.0004   -0.4733 C   0  0  0  0  0  0  0  0  0  0  0  0
   -0.6775   -0.7198   -1.4533 O   0  0  0  0  0  0  0  0  0  0  0  0
    0.7169    0.5565    0.0127 C   0  0  0  0  0  0  0  0  0  0  0  0
    0.8169    1.2819    1.2043 C   0  0  0  0  0  0  0  0  0  0  0  0
    2.0537    1.7812    1.6233 C   0  0  0  0  0  0  0  0  0  0  0  0
    3.2197    1.5598    0.8713 C   0  0  0  0  0  0  0  0  0  0  0  0
    4.5111    2.1520    1.3648 C   0  0  0  0  0  0  0  0  0  0  0  0
    3.1104    0.8261   -0.3265 C   0  0  0  0  0  0  0  0  0  0  0  0
    4.5288    0.5087   -1.3660 S   0  0  0  0  0  6  0  0  0  0  0  0
    5.2529    1.7512   -1.5216 O   0  0  0  0  0  0  0  0  0  0  0  0
    4.0956   -0.2476   -2.5227 O   0  0  0  0  0  0  0  0  0  0  0  0
    5.4684   -0.5487   -0.4151 N   0  0  0  0  0  0  0  0  0  0  0  0
    4.8724   -1.9002   -0.1519 C   0  0  0  0  0  0  0  0  0  0  0  0
    5.5803   -2.9844   -0.9698 C   0  0  0  0  0  0  0  0  0  0  0  0
    6.9737   -3.1049   -0.6493 O   0  0  0  0  0  0  0  0  0  0  0  0
    7.5754   -1.8624   -0.2581 C   0  0  0  0  0  0  0  0  0  0  0  0
    6.8925   -0.6403   -0.8778 C   0  0  0  0  0  0  0  0  0  0  0  0
    1.8662    0.3334   -0.7537 C   0  0  0  0  0  0  0  0  0  0  0  0
   -5.7651   -0.8667   -0.2455 C   0  0  0  0  0  0  0  0  0  0  0  0
   -8.3979   -1.9333   -2.0894 H   0  0  0  0  0  0  0  0  0  0  0  0
   -7.8119   -3.0069   -0.7946 H   0  0  0  0  0  0  0  0  0  0  0  0
   -6.7350   -2.5185   -2.1273 H   0  0  0  0  0  0  0  0  0  0  0  0
   -9.0748   -0.1286   -0.5304 H   0  0  0  0  0  0  0  0  0  0  0  0
   -8.3770    1.7792    0.8386 H   0  0  0  0  0  0  0  0  0  0  0  0
   -5.0236    2.8855    1.3716 H   0  0  0  0  0  0  0  0  0  0  0  0
   -6.7154    3.1451    1.7688 H   0  0  0  0  0  0  0  0  0  0  0  0
   -5.7459    2.0904    2.8063 H   0  0  0  0  0  0  0  0  0  0  0  0
   -3.1380    0.3148   -1.0508 H   0  0  0  0  0  0  0  0  0  0  0  0
   -2.8368   -1.1949   -0.0999 H   0  0  0  0  0  0  0  0  0  0  0  0
   -0.0606    1.4714    1.8206 H   0  0  0  0  0  0  0  0  0  0  0  0
    2.0969    2.3526    2.5500 H   0  0  0  0  0  0  0  0  0  0  0  0
    4.8040    3.0004    0.7396 H   0  0  0  0  0  0  0  0  0  0  0  0
    4.4098    2.5225    2.3913 H   0  0  0  0  0  0  0  0  0  0  0  0
    5.3107    1.4076    1.3832 H   0  0  0  0  0  0  0  0  0  0  0  0
    4.9899   -2.0983    0.9201 H   0  0  0  0  0  0  0  0  0  0  0  0
    3.8002   -1.9165   -0.3656 H   0  0  0  0  0  0  0  0  0  0  0  0
    5.4959   -2.7831   -2.0437 H   0  0  0  0  0  0  0  0  0  0  0  0
    5.1184   -3.9588   -0.7826 H   0  0  0  0  0  0  0  0  0  0  0  0
    7.5461   -1.8071    0.8364 H   0  0  0  0  0  0  0  0  0  0  0  0
    8.6279   -1.9001   -0.5562 H   0  0  0  0  0  0  0  0  0  0  0  0
    6.9224   -0.7223   -1.9707 H   0  0  0  0  0  0  0  0  0  0  0  0
    7.4207    0.2686   -0.5716 H   0  0  0  0  0  0  0  0  0  0  0  0
    1.7858   -0.2243   -1.6864 H   0  0  0  0  0  0  0  0  0  0  0  0
   -5.0595   -1.6435   -0.5312 H   0  0  0  0  0  0  0  0  0  0  0  0
  1  2  1  0
  2  3  2  0
  3  4  1  0
  4  5  2  0
  5  6  1  0
  5  7  1  0
  7  8  1  0
  8  9  2  0
  8 10  1  0
 10 11  1  0
 11 12  1  0
 12 13  2  0
 12 14  1  0
 14 15  2  0
 15 16  1  0
 16 17  2  0
 17 18  1  0
 17 19  1  0
 19 20  1  0
 20 21  2  0
 20 22  2  0
 20 23  1  0
 23 24  1  0
 24 25  1  0
 25 26  1  0
 26 27  1  0
 27 28  1  0
 19 29  2  0
  7 30  2  0
 30  2  1  0
 29 14  1  0
 28 23  1  0
  1 31  1  0
  1 32  1  0
  1 33  1  0
  3 34  1  0
  4 35  1  0
  6 36  1  0
  6 37  1  0
  6 38  1  0
 10 39  1  0
 10 40  1  0
 15 41  1  0
 16 42  1  0
 18 43  1  0
 18 44  1  0
 18 45  1  0
 24 46  1  0
 24 47  1  0
 25 48  1  0
 25 49  1  0
 27 50  1  0
 27 51  1  0
 28 52  1  0
 28 53  1  0
 29 54  1  0
 30 55  1  0
M  END
$$$$
