
     RDKit          3D

 44 46  0  0  0  0  0  0  0  0999 V2000
    3.3704    2.4874   -1.7520 C   0  0  0  0  0  0  0  0  0  0  0  0
    2.8313    1.2424   -2.2915 N   0  0  0  0  0  0  0  0  0  0  0  0
    3.0535    0.1012   -1.3814 C   0  0  0  0  0  0  0  0  0  0  0  0
    1.8369   -0.3016   -0.5259 C   0  0  0  0  0  0  0  0  0  0  0  0
    0.6462   -0.5591   -1.3435 N   0  0  0  0  0  0  0  0  0  0  0  0
   -0.4032   -1.3940   -0.9881 C   0  0  0  0  0  0  0  0  0  0  0  0
   -1.3149   -1.7066   -1.7492 O   0  0  0  0  0  0  0  0  0  0  0  0
   -0.4211   -1.9485    0.3819 C   0  0  0  0  0  0  0  0  0  0  0  0
    0.0130   -3.2731    0.5350 C   0  0  0  0  0  0  0  0  0  0  0  0
    0.0302   -3.8548    1.8000 C   0  0  0  0  0  0  0  0  0  0  0  0
   -0.3945   -3.1206    2.9051 C   0  0  0  0  0  0  0  0  0  0  0  0
   -0.8460   -1.8060    2.7473 C   0  0  0  0  0  0  0  0  0  0  0  0
   -0.8780   -1.1921    1.4814 C   0  0  0  0  0  0  0  0  0  0  0  0
   -1.3809    0.1907    1.3585 C   0  0  0  0  0  0  0  0  0  0  0  0
   -0.6119    1.2420    1.8988 C   0  0  0  0  0  0  0  0  0  0  0  0
   -1.0088    2.5758    1.7742 C   0  0  0  0  0  0  0  0  0  0  0  0
   -2.1895    2.8912    1.1109 C   0  0  0  0  0  0  0  0  0  0  0  0
   -2.9802    1.8717    0.5838 C   0  0  0  0  0  0  0  0  0  0  0  0
   -2.5885    0.5273    0.7104 C   0  0  0  0  0  0  0  0  0  0  0  0
   -3.4992   -0.5215    0.1919 C   0  0  0  0  0  0  0  0  0  0  0  0
   -3.7364   -1.5990    0.7022 O   0  0  0  0  0  0  0  0  0  0  0  0
   -4.0536   -0.1506   -0.9772 O   0  0  0  0  0  0  0  0  0  0  0  0
    0.6150    0.0862   -2.6565 C   0  0  0  0  0  0  0  0  0  0  0  0
    1.4058    1.4053   -2.6529 C   0  0  0  0  0  0  0  0  0  0  0  0
    4.4511    2.4014   -1.5937 H   0  0  0  0  0  0  0  0  0  0  0  0
    2.9030    2.7609   -0.7992 H   0  0  0  0  0  0  0  0  0  0  0  0
    3.2222    3.3105   -2.4600 H   0  0  0  0  0  0  0  0  0  0  0  0
    3.3197   -0.7576   -2.0117 H   0  0  0  0  0  0  0  0  0  0  0  0
    3.9219    0.2696   -0.7327 H   0  0  0  0  0  0  0  0  0  0  0  0
    2.0822   -1.1884    0.0660 H   0  0  0  0  0  0  0  0  0  0  0  0
    1.5907    0.5093    0.1666 H   0  0  0  0  0  0  0  0  0  0  0  0
    0.3284   -3.8468   -0.3331 H   0  0  0  0  0  0  0  0  0  0  0  0
    0.3607   -4.8831    1.9226 H   0  0  0  0  0  0  0  0  0  0  0  0
   -0.3956   -3.5774    3.8920 H   0  0  0  0  0  0  0  0  0  0  0  0
   -1.2009   -1.2657    3.6235 H   0  0  0  0  0  0  0  0  0  0  0  0
    0.3213    1.0220    2.4152 H   0  0  0  0  0  0  0  0  0  0  0  0
   -0.3929    3.3673    2.1941 H   0  0  0  0  0  0  0  0  0  0  0  0
   -2.5012    3.9279    1.0108 H   0  0  0  0  0  0  0  0  0  0  0  0
   -3.9116    2.1249    0.0814 H   0  0  0  0  0  0  0  0  0  0  0  0
   -4.4677   -0.9779   -1.3014 H   0  0  0  0  0  0  0  0  0  0  0  0
   -0.4234    0.2752   -2.9507 H   0  0  0  0  0  0  0  0  0  0  0  0
    1.0414   -0.6186   -3.3805 H   0  0  0  0  0  0  0  0  0  0  0  0
    0.9100    2.0851   -1.9458 H   0  0  0  0  0  0  0  0  0  0  0  0
    1.3450    1.8677   -3.6446 H   0  0  0  0  0  0  0  0  0  0  0  0
  1  2  1  0
  2  3  1  0
  3  4  1  0
  4  5  1  0
  5  6  1  0
  6  7  2  0
  6  8  1  0
  8  9  2  0
  9 10  1  0
 10 11  2  0
 11 12  1  0
 12 13  2  0
 13 14  1  0
 14 15  2  0
 15 16  1  0
 16 17  2  0
 17 18  1  0
 18 19  2  0
 19 20  1  0
 20 21  2  0
 20 22  1  0
  5 23  1  0
 23 24  1  0
 24  2  1  0
 13  8  1  0
 19 14  1  0
  1 25  1  0
  1 26  1  0
  1 27  1  0
  3 28  1  0
  3 29  1  0
  4 30  1  0
  4 31  1  0
  9 32  1  0
 10 33  1  0
 11 34  1  0
 12 35  1  0
 15 36  1  0
 16 37  1  0
 17 38  1  0
 18 39  1  0
 22 40  1  0
 23 41  1  0
 23 42  1  0
 24 43  1  0
 24 44  1  0
M  END
$$$$
