
     RDKit          3D

 46 46  0  0  0  0  0  0  0  0999 V2000
   -1.6576   -0.7168    1.7812 O   0  0  0  0  0  0  0  0  0  0  0  0
   -1.4583    0.2418    1.0445 C   0  0  0  0  0  0  0  0  0  0  0  0
   -0.0857    0.8205    0.7850 C   0  0  0  0  0  0  0  0  0  0  0  0
    0.9909    0.0831    1.5711 C   0  0  0  0  0  0  0  0  0  0  0  0
    2.3527    0.6649    1.3002 C   0  0  0  0  0  0  0  0  0  0  0  0
    2.5866    1.5751    0.5178 O   0  0  0  0  0  0  0  0  0  0  0  0
    3.2868    0.0078    2.0417 O   0  0  0  0  0  0  0  0  0  0  0  0
    4.6392    0.4811    1.9456 C   0  0  0  0  0  0  0  0  0  0  0  0
    5.4698   -0.4364    1.0516 C   0  0  0  0  0  0  0  0  0  0  0  0
    5.0352   -0.3885   -0.4176 C   0  0  0  0  0  0  0  0  0  0  0  0
    5.9441   -1.2365   -1.3022 C   0  0  0  0  0  0  0  0  0  0  0  0
    7.2254   -0.7893   -1.1714 F   0  0  0  0  0  0  0  0  0  0  0  0
    5.9405   -2.5169   -0.8343 F   0  0  0  0  0  0  0  0  0  0  0  0
    5.5127   -1.2025   -2.7702 C   0  0  0  0  0  0  0  0  0  0  0  0
    5.5347    0.0585   -3.2685 F   0  0  0  0  0  0  0  0  0  0  0  0
    6.3160   -1.9574   -3.5561 F   0  0  0  0  0  0  0  0  0  0  0  0
    4.2473   -1.6648   -2.9289 F   0  0  0  0  0  0  0  0  0  0  0  0
   -2.4570    0.9109    0.3677 N   0  0  0  0  0  0  0  0  0  0  0  0
   -3.8379    0.4485    0.3893 C   0  0  0  0  0  0  0  0  0  0  0  0
   -4.7999    1.6177    0.1234 C   0  0  0  0  0  0  0  0  0  0  0  0
   -6.1447    1.1844   -0.4661 C   0  0  0  0  0  0  0  0  0  0  0  0
   -6.5160   -0.2348   -0.0606 C   0  0  0  0  0  0  0  0  0  0  0  0
   -5.4770   -1.2512   -0.5364 C   0  0  0  0  0  0  0  0  0  0  0  0
   -4.0568   -0.6858   -0.6154 C   0  0  0  0  0  0  0  0  0  0  0  0
    0.1193    0.7545   -0.2904 H   0  0  0  0  0  0  0  0  0  0  0  0
   -0.0970    1.8815    1.0623 H   0  0  0  0  0  0  0  0  0  0  0  0
    1.0056   -0.9758    1.2886 H   0  0  0  0  0  0  0  0  0  0  0  0
    0.7884    0.1590    2.6456 H   0  0  0  0  0  0  0  0  0  0  0  0
    5.0491    0.4569    2.9613 H   0  0  0  0  0  0  0  0  0  0  0  0
    4.6927    1.5231    1.6097 H   0  0  0  0  0  0  0  0  0  0  0  0
    6.5231   -0.1441    1.1332 H   0  0  0  0  0  0  0  0  0  0  0  0
    5.3832   -1.4678    1.4140 H   0  0  0  0  0  0  0  0  0  0  0  0
    5.0564    0.6515   -0.7635 H   0  0  0  0  0  0  0  0  0  0  0  0
    4.0071   -0.7568   -0.5041 H   0  0  0  0  0  0  0  0  0  0  0  0
   -2.1840    1.5570   -0.3626 H   0  0  0  0  0  0  0  0  0  0  0  0
   -4.0365    0.0563    1.3957 H   0  0  0  0  0  0  0  0  0  0  0  0
   -4.9674    2.1506    1.0683 H   0  0  0  0  0  0  0  0  0  0  0  0
   -4.3487    2.3543   -0.5540 H   0  0  0  0  0  0  0  0  0  0  0  0
   -6.0948    1.2420   -1.5609 H   0  0  0  0  0  0  0  0  0  0  0  0
   -6.9261    1.8860   -0.1531 H   0  0  0  0  0  0  0  0  0  0  0  0
   -7.5004   -0.5002   -0.4623 H   0  0  0  0  0  0  0  0  0  0  0  0
   -6.6014   -0.2858    1.0323 H   0  0  0  0  0  0  0  0  0  0  0  0
   -5.7574   -1.6338   -1.5253 H   0  0  0  0  0  0  0  0  0  0  0  0
   -5.4954   -2.1140    0.1405 H   0  0  0  0  0  0  0  0  0  0  0  0
   -3.8715   -0.3108   -1.6310 H   0  0  0  0  0  0  0  0  0  0  0  0
   -3.3354   -1.4971   -0.4598 H   0  0  0  0  0  0  0  0  0  0  0  0
  1  2  2  0
  2  3  1  0
  3  4  1  0
  4  5  1  0
  5  6  2  0
  5  7  1  0
  7  8  1  0
  8  9  1  0
  9 10  1  0
 10 11  1  0
 11 12  1  0
 11 13  1  0
 11 14  1  0
 14 15  1  0
 14 16  1  0
 14 17  1  0
  2 18  1  0
 18 19  1  0
 19 20  1  0
 20 21  1  0
 21 22  1  0
 22 23  1  0
 23 24  1  0
 24 19  1  0
  3 25  1  0
  3 26  1  0
  4 27  1  0
  4 28  1  0
  8 29  1  0
  8 30  1  0
  9 31  1  0
  9 32  1  0
 10 33  1  0
 10 34  1  0
 18 35  1  0
 19 36  1  0
 20 37  1  0
 20 38  1  0
 21 39  1  0
 21 40  1  0
 22 41  1  0
 22 42  1  0
 23 43  1  0
 23 44  1  0
 24 45  1  0
 24 46  1  0
M  END
$$$$
