
     RDKit          3D

 57 61  0  0  0  0  0  0  0  0999 V2000
    6.0147   -3.3811    1.1550 C   0  0  0  0  0  0  0  0  0  0  0  0
    4.9891   -3.0741    0.1043 C   0  0  0  0  0  0  0  0  0  0  0  0
    3.6480   -2.8890    0.4574 C   0  0  0  0  0  0  0  0  0  0  0  0
    2.6972   -2.5678   -0.5139 C   0  0  0  0  0  0  0  0  0  0  0  0
    3.0725   -2.4191   -1.8563 C   0  0  0  0  0  0  0  0  0  0  0  0
    2.0479   -2.0637   -2.9039 C   0  0  0  0  0  0  0  0  0  0  0  0
    2.1689   -0.6835   -3.3251 N   0  0  0  0  0  0  0  0  0  0  0  0
    2.7200   -0.3668   -4.5235 N   0  0  0  0  0  0  0  0  0  0  0  0
    2.6817    0.9601   -4.6507 N   0  0  0  0  0  0  0  0  0  0  0  0
    2.0888    1.4561   -3.5314 C   0  0  0  0  0  0  0  0  0  0  0  0
    1.7971    2.8079   -3.1395 C   0  0  0  0  0  0  0  0  0  0  0  0
    2.0426    3.8167   -3.7908 O   0  0  0  0  0  0  0  0  0  0  0  0
    1.1813    2.8689   -1.8953 N   0  0  0  0  0  0  0  0  0  0  0  0
    0.8827    1.7552   -1.1123 C   0  0  0  0  0  0  0  0  0  0  0  0
    0.1875    2.0769    0.2047 C   0  0  0  0  0  0  0  0  0  0  0  0
   -1.2846    2.4139   -0.0735 C   0  0  0  0  0  0  0  0  0  0  0  0
   -2.1804    2.0182    1.0940 C   0  0  0  0  0  0  0  0  0  0  0  0
   -2.1380    0.5469    1.2973 N   0  0  0  0  0  0  0  0  0  0  0  0
   -2.9905   -0.0315    2.6646 S   0  0  0  0  0  6  0  0  0  0  0  0
   -2.5124    0.7124    3.8110 O   0  0  0  0  0  0  0  0  0  0  0  0
   -2.9649   -1.4781    2.6406 O   0  0  0  0  0  0  0  0  0  0  0  0
   -4.6621    0.4658    2.3252 C   0  0  0  0  0  0  0  0  0  0  0  0
   -5.3414   -0.1319    1.2561 C   0  0  0  0  0  0  0  0  0  0  0  0
   -6.6543    0.2501    0.9812 C   0  0  0  0  0  0  0  0  0  0  0  0
   -7.2698    1.2137    1.7758 C   0  0  0  0  0  0  0  0  0  0  0  0
   -8.5295    1.5802    1.5081 F   0  0  0  0  0  0  0  0  0  0  0  0
   -6.5996    1.8030    2.8449 C   0  0  0  0  0  0  0  0  0  0  0  0
   -5.2860    1.4273    3.1278 C   0  0  0  0  0  0  0  0  0  0  0  0
   -0.7923   -0.0753    1.1138 C   0  0  0  0  0  0  0  0  0  0  0  0
    0.3291    0.9491    1.2351 C   0  0  0  0  0  0  0  0  0  0  0  0
    1.1216    0.5247   -1.4728 N   0  0  0  0  0  0  0  0  0  0  0  0
    1.7361    0.4386   -2.6780 C   0  0  0  0  0  0  0  0  0  0  0  0
    4.4196   -2.5887   -2.2049 C   0  0  0  0  0  0  0  0  0  0  0  0
    5.3692   -2.9086   -1.2319 C   0  0  0  0  0  0  0  0  0  0  0  0
    6.8528   -3.9441    0.7320 H   0  0  0  0  0  0  0  0  0  0  0  0
    6.3955   -2.4511    1.5873 H   0  0  0  0  0  0  0  0  0  0  0  0
    5.5825   -3.9925    1.9541 H   0  0  0  0  0  0  0  0  0  0  0  0
    3.3349   -2.9928    1.4940 H   0  0  0  0  0  0  0  0  0  0  0  0
    1.6617   -2.4265   -0.2111 H   0  0  0  0  0  0  0  0  0  0  0  0
    2.1633   -2.7079   -3.7835 H   0  0  0  0  0  0  0  0  0  0  0  0
    1.0266   -2.2058   -2.5319 H   0  0  0  0  0  0  0  0  0  0  0  0
    0.9732    3.8036   -1.5759 H   0  0  0  0  0  0  0  0  0  0  0  0
    0.6817    2.9665    0.6184 H   0  0  0  0  0  0  0  0  0  0  0  0
   -1.6340    1.9077   -0.9832 H   0  0  0  0  0  0  0  0  0  0  0  0
   -1.3816    3.4892   -0.2647 H   0  0  0  0  0  0  0  0  0  0  0  0
   -1.8691    2.5463    2.0021 H   0  0  0  0  0  0  0  0  0  0  0  0
   -3.2052    2.3206    0.8570 H   0  0  0  0  0  0  0  0  0  0  0  0
   -4.8535   -0.8884    0.6449 H   0  0  0  0  0  0  0  0  0  0  0  0
   -7.2028   -0.1963    0.1575 H   0  0  0  0  0  0  0  0  0  0  0  0
   -7.1080    2.5462    3.4518 H   0  0  0  0  0  0  0  0  0  0  0  0
   -4.7635    1.8805    3.9676 H   0  0  0  0  0  0  0  0  0  0  0  0
   -0.6172   -0.8695    1.8473 H   0  0  0  0  0  0  0  0  0  0  0  0
   -0.7830   -0.5585    0.1303 H   0  0  0  0  0  0  0  0  0  0  0  0
    1.3020    0.4509    1.1461 H   0  0  0  0  0  0  0  0  0  0  0  0
    0.3015    1.3843    2.2433 H   0  0  0  0  0  0  0  0  0  0  0  0
    4.7419   -2.4630   -3.2378 H   0  0  0  0  0  0  0  0  0  0  0  0
    6.4105   -3.0257   -1.5252 H   0  0  0  0  0  0  0  0  0  0  0  0
  1  2  1  0
  2  3  2  0
  3  4  1  0
  4  5  2  0
  5  6  1  0
  6  7  1  0
  7  8  1  0
  8  9  2  0
  9 10  1  0
 10 11  1  0
 11 12  2  0
 11 13  1  0
 13 14  1  0
 14 15  1  0
 15 16  1  0
 16 17  1  0
 17 18  1  0
 18 19  1  0
 19 20  2  0
 19 21  2  0
 19 22  1  0
 22 23  2  0
 23 24  1  0
 24 25  2  0
 25 26  1  0
 25 27  1  0
 27 28  2  0
 18 29  1  0
 29 30  1  0
 14 31  2  0
 31 32  1  0
  5 33  1  0
 33 34  2  0
 34  2  1  0
 32  7  1  0
 32 10  2  0
 30 15  1  0
 28 22  1  0
  1 35  1  0
  1 36  1  0
  1 37  1  0
  3 38  1  0
  4 39  1  0
  6 40  1  0
  6 41  1  0
 13 42  1  0
 15 43  1  0
 16 44  1  0
 16 45  1  0
 17 46  1  0
 17 47  1  0
 23 48  1  0
 24 49  1  0
 27 50  1  0
 28 51  1  0
 29 52  1  0
 29 53  1  0
 30 54  1  0
 30 55  1  0
 33 56  1  0
 34 57  1  0
M  END
$$$$
