
     RDKit          3D

 38 39  0  0  0  0  0  0  0  0999 V2000
   -1.3065    2.1863    0.6135 C   0  0  0  0  0  0  0  0  0  0  0  0
   -2.2777    2.1437   -0.4703 N   0  0  0  0  0  0  0  0  0  0  0  0
   -2.2457    0.8785   -1.2096 C   0  0  0  0  0  0  0  0  0  0  0  0
   -2.8340   -0.2923   -0.4504 C   0  0  0  0  0  0  0  0  0  0  0  0
   -4.2332   -0.3936   -0.3398 C   0  0  0  0  0  0  0  0  0  0  0  0
   -4.8190   -1.4521    0.3511 C   0  0  0  0  0  0  0  0  0  0  0  0
   -4.0146   -2.4220    0.9394 C   0  0  0  0  0  0  0  0  0  0  0  0
   -2.6236   -2.3349    0.8424 C   0  0  0  0  0  0  0  0  0  0  0  0
   -2.0247   -1.2727    0.1560 C   0  0  0  0  0  0  0  0  0  0  0  0
   -0.6728   -1.1044    0.0165 O   0  0  0  0  0  0  0  0  0  0  0  0
    0.1836   -1.9902    0.7344 C   0  0  0  0  0  0  0  0  0  0  0  0
    1.6516   -1.5768    0.5815 C   0  0  0  0  0  0  0  0  0  0  0  0
    2.5428   -2.2415    1.1031 O   0  0  0  0  0  0  0  0  0  0  0  0
    1.8087   -0.4244   -0.1663 N   0  0  0  0  0  0  0  0  0  0  0  0
    2.9970    0.2520   -0.4928 C   0  0  0  0  0  0  0  0  0  0  0  0
    2.8780    1.4113   -1.2706 C   0  0  0  0  0  0  0  0  0  0  0  0
    4.0104    2.1431   -1.6368 C   0  0  0  0  0  0  0  0  0  0  0  0
    5.2727    1.7217   -1.2282 C   0  0  0  0  0  0  0  0  0  0  0  0
    5.4000    0.5703   -0.4546 C   0  0  0  0  0  0  0  0  0  0  0  0
    4.2664   -0.1623   -0.0877 C   0  0  0  0  0  0  0  0  0  0  0  0
   -1.3316    3.1764    1.0797 H   0  0  0  0  0  0  0  0  0  0  0  0
   -1.5244    1.4507    1.3936 H   0  0  0  0  0  0  0  0  0  0  0  0
   -0.2892    2.0281    0.2422 H   0  0  0  0  0  0  0  0  0  0  0  0
   -3.2122    2.2825   -0.0890 H   0  0  0  0  0  0  0  0  0  0  0  0
   -2.8337    1.0119   -2.1270 H   0  0  0  0  0  0  0  0  0  0  0  0
   -1.2309    0.6657   -1.5661 H   0  0  0  0  0  0  0  0  0  0  0  0
   -4.8728    0.3566   -0.8008 H   0  0  0  0  0  0  0  0  0  0  0  0
   -5.9012   -1.5211    0.4269 H   0  0  0  0  0  0  0  0  0  0  0  0
   -4.4697   -3.2514    1.4754 H   0  0  0  0  0  0  0  0  0  0  0  0
   -2.0388   -3.1187    1.3131 H   0  0  0  0  0  0  0  0  0  0  0  0
   -0.0449   -1.9585    1.8061 H   0  0  0  0  0  0  0  0  0  0  0  0
    0.0891   -3.0064    0.3358 H   0  0  0  0  0  0  0  0  0  0  0  0
    0.9424   -0.0300   -0.5218 H   0  0  0  0  0  0  0  0  0  0  0  0
    1.9035    1.7618   -1.6017 H   0  0  0  0  0  0  0  0  0  0  0  0
    3.9055    3.0409   -2.2403 H   0  0  0  0  0  0  0  0  0  0  0  0
    6.1560    2.2881   -1.5111 H   0  0  0  0  0  0  0  0  0  0  0  0
    6.3833    0.2365   -0.1328 H   0  0  0  0  0  0  0  0  0  0  0  0
    4.4102   -1.0530    0.5156 H   0  0  0  0  0  0  0  0  0  0  0  0
  1  2  1  0
  2  3  1  0
  3  4  1  0
  4  5  2  0
  5  6  1  0
  6  7  2  0
  7  8  1  0
  8  9  2  0
  9 10  1  0
 10 11  1  0
 11 12  1  0
 12 13  2  0
 12 14  1  0
 14 15  1  0
 15 16  2  0
 16 17  1  0
 17 18  2  0
 18 19  1  0
 19 20  2  0
  9  4  1  0
 20 15  1  0
  1 21  1  0
  1 22  1  0
  1 23  1  0
  2 24  1  0
  3 25  1  0
  3 26  1  0
  5 27  1  0
  6 28  1  0
  7 29  1  0
  8 30  1  0
 11 31  1  0
 11 32  1  0
 14 33  1  0
 16 34  1  0
 17 35  1  0
 18 36  1  0
 19 37  1  0
 20 38  1  0
M  END
$$$$
