
     RDKit          3D

 52 53  0  0  0  0  0  0  0  0999 V2000
    5.3446    1.3901   -0.8679 C   0  0  0  0  0  0  0  0  0  0  0  0
    4.8062    0.2805    0.0641 C   0  0  0  0  0  0  0  0  0  0  0  0
    4.8685   -1.0602   -0.6908 C   0  0  0  0  0  0  0  0  0  0  0  0
    5.7657    0.2001    1.2721 C   0  0  0  0  0  0  0  0  0  0  0  0
    3.3482    0.6353    0.5395 C   0  0  0  0  0  0  0  0  0  0  0  0
    2.2940    0.6893   -0.5975 C   0  0  0  0  0  0  0  0  0  0  0  0
    1.3418   -0.5066   -0.5944 C   0  0  0  0  0  0  0  0  0  0  0  0
    0.5597   -0.6175    0.7210 C   0  0  0  0  0  0  0  0  0  0  0  0
   -0.6562    0.1626    0.6447 O   0  0  0  0  0  0  0  0  0  0  0  0
   -1.7182   -0.4240    0.0309 C   0  0  0  0  0  0  0  0  0  0  0  0
   -1.7336   -1.5461   -0.4564 O   0  0  0  0  0  0  0  0  0  0  0  0
   -2.9130    0.5292    0.0490 C   0  0  0  0  0  0  0  0  0  0  0  0
   -4.1642    0.0831   -0.7783 N   0  0  0  0  0  4  0  0  0  0  0  0
   -3.7881   -0.0741   -2.2501 C   0  0  0  0  0  0  0  0  0  0  0  0
   -5.2846    1.1272   -0.6367 C   0  0  0  0  0  0  0  0  0  0  0  0
   -6.5520    0.3042   -0.5389 C   0  0  0  0  0  0  0  0  0  0  0  0
   -6.1202   -0.8663    0.3154 C   0  0  0  0  0  0  0  0  0  0  0  0
   -4.7544   -1.2400   -0.2349 C   0  0  0  0  0  0  0  0  0  0  0  0
    1.3505   -0.0889    1.9224 C   0  0  0  0  0  0  0  0  0  0  0  0
    2.8531   -0.2365    1.7185 C   0  0  0  0  0  0  0  0  0  0  0  0
    4.7817    1.4572   -1.8033 H   0  0  0  0  0  0  0  0  0  0  0  0
    5.3024    2.3699   -0.3792 H   0  0  0  0  0  0  0  0  0  0  0  0
    6.3903    1.2031   -1.1397 H   0  0  0  0  0  0  0  0  0  0  0  0
    5.8976   -1.2927   -0.9892 H   0  0  0  0  0  0  0  0  0  0  0  0
    4.5160   -1.8917   -0.0730 H   0  0  0  0  0  0  0  0  0  0  0  0
    4.2672   -1.0410   -1.6052 H   0  0  0  0  0  0  0  0  0  0  0  0
    5.5280   -0.6457    1.9257 H   0  0  0  0  0  0  0  0  0  0  0  0
    5.7229    1.1166    1.8711 H   0  0  0  0  0  0  0  0  0  0  0  0
    6.8037    0.0670    0.9452 H   0  0  0  0  0  0  0  0  0  0  0  0
    3.4055    1.6625    0.9323 H   0  0  0  0  0  0  0  0  0  0  0  0
    2.7573    0.7742   -1.5840 H   0  0  0  0  0  0  0  0  0  0  0  0
    1.6969    1.6030   -0.4739 H   0  0  0  0  0  0  0  0  0  0  0  0
    0.6593   -0.4206   -1.4474 H   0  0  0  0  0  0  0  0  0  0  0  0
    1.9251   -1.4230   -0.7432 H   0  0  0  0  0  0  0  0  0  0  0  0
    0.3043   -1.6693    0.9032 H   0  0  0  0  0  0  0  0  0  0  0  0
   -2.6105    1.4974   -0.3639 H   0  0  0  0  0  0  0  0  0  0  0  0
   -3.2516    0.6429    1.0844 H   0  0  0  0  0  0  0  0  0  0  0  0
   -4.7017   -0.2683   -2.8202 H   0  0  0  0  0  0  0  0  0  0  0  0
   -3.0981   -0.9120   -2.3628 H   0  0  0  0  0  0  0  0  0  0  0  0
   -3.3233    0.8574   -2.5857 H   0  0  0  0  0  0  0  0  0  0  0  0
   -5.2642    1.8109   -1.4907 H   0  0  0  0  0  0  0  0  0  0  0  0
   -5.1114    1.6875    0.2890 H   0  0  0  0  0  0  0  0  0  0  0  0
   -6.8704   -0.0378   -1.5304 H   0  0  0  0  0  0  0  0  0  0  0  0
   -7.3758    0.8668   -0.0909 H   0  0  0  0  0  0  0  0  0  0  0  0
   -6.0312   -0.5587    1.3644 H   0  0  0  0  0  0  0  0  0  0  0  0
   -6.8246   -1.7018    0.2695 H   0  0  0  0  0  0  0  0  0  0  0  0
   -4.1035   -1.6534    0.5400 H   0  0  0  0  0  0  0  0  0  0  0  0
   -4.8394   -1.9452   -1.0685 H   0  0  0  0  0  0  0  0  0  0  0  0
    1.0398   -0.6328    2.8228 H   0  0  0  0  0  0  0  0  0  0  0  0
    1.1063    0.9642    2.1149 H   0  0  0  0  0  0  0  0  0  0  0  0
    3.3645    0.0657    2.6399 H   0  0  0  0  0  0  0  0  0  0  0  0
    3.0890   -1.2941    1.5571 H   0  0  0  0  0  0  0  0  0  0  0  0
  1  2  1  0
  2  3  1  0
  2  4  1  0
  2  5  1  0
  5  6  1  0
  6  7  1  0
  7  8  1  0
  8  9  1  0
  9 10  1  0
 10 11  2  0
 10 12  1  0
 12 13  1  0
 13 14  1  0
 13 15  1  0
 15 16  1  0
 16 17  1  0
 17 18  1  0
  8 19  1  0
 19 20  1  0
 20  5  1  0
 18 13  1  0
  1 21  1  0
  1 22  1  0
  1 23  1  0
  3 24  1  0
  3 25  1  0
  3 26  1  0
  4 27  1  0
  4 28  1  0
  4 29  1  0
  5 30  1  0
  6 31  1  0
  6 32  1  0
  7 33  1  0
  7 34  1  0
  8 35  1  0
 12 36  1  0
 12 37  1  0
 14 38  1  0
 14 39  1  0
 14 40  1  0
 15 41  1  0
 15 42  1  0
 16 43  1  0
 16 44  1  0
 17 45  1  0
 17 46  1  0
 18 47  1  0
 18 48  1  0
 19 49  1  0
 19 50  1  0
 20 51  1  0
 20 52  1  0
M  CHG  1  13   1
M  END
$$$$
