
     RDKit          3D

 53 56  0  0  0  0  0  0  0  0999 V2000
    7.1642    1.0637   -1.7606 C   0  0  0  0  0  0  0  0  0  0  0  0
    6.0436    0.3530   -1.0630 C   0  0  0  0  0  0  0  0  0  0  0  0
    4.8234    0.1916   -1.6889 C   0  0  0  0  0  0  0  0  0  0  0  0
    3.8135   -0.4705   -0.9921 C   0  0  0  0  0  0  0  0  0  0  0  0
    2.5029   -0.5662   -1.6745 C   0  0  0  0  0  0  0  0  0  0  0  0
    2.4585   -1.1233   -2.7626 O   0  0  0  0  0  0  0  0  0  0  0  0
    1.4713    0.0539   -0.9949 N   0  0  0  0  0  0  0  0  0  0  0  0
    0.1211    0.1449   -1.3892 C   0  0  0  0  0  0  0  0  0  0  0  0
   -0.3894   -0.4169   -2.5567 C   0  0  0  0  0  0  0  0  0  0  0  0
   -1.7434   -0.2744   -2.8846 C   0  0  0  0  0  0  0  0  0  0  0  0
   -2.6259    0.4285   -2.0511 C   0  0  0  0  0  0  0  0  0  0  0  0
   -4.0635    0.5569   -2.4699 C   0  0  0  0  0  0  0  0  0  0  0  0
   -2.1093    0.9768   -0.8644 C   0  0  0  0  0  0  0  0  0  0  0  0
   -3.1387    1.8685    0.2888 S   0  0  0  0  0  6  0  0  0  0  0  0
   -2.3533    2.1589    1.4720 O   0  0  0  0  0  0  0  0  0  0  0  0
   -3.8056    2.9264   -0.4371 O   0  0  0  0  0  0  0  0  0  0  0  0
   -4.2998    0.7133    0.7545 N   0  0  0  0  0  0  0  0  0  0  0  0
   -3.7826   -0.4712    1.5143 C   0  0  0  0  0  0  0  0  0  0  0  0
   -4.1698   -0.3885    2.9937 C   0  0  0  0  0  0  0  0  0  0  0  0
   -5.5892   -0.3810    3.2010 O   0  0  0  0  0  0  0  0  0  0  0  0
   -6.3157    0.2467    2.1344 C   0  0  0  0  0  0  0  0  0  0  0  0
   -5.5057    1.3222    1.4054 C   0  0  0  0  0  0  0  0  0  0  0  0
   -0.7465    0.8419   -0.5441 C   0  0  0  0  0  0  0  0  0  0  0  0
    4.0385   -1.0032    0.2967 C   0  0  0  0  0  0  0  0  0  0  0  0
    3.0949   -1.7528    1.0464 C   0  0  0  0  0  0  0  0  0  0  0  0
    3.4032   -2.2292    2.3190 C   0  0  0  0  0  0  0  0  0  0  0  0
    4.6556   -1.9734    2.8577 C   0  0  0  0  0  0  0  0  0  0  0  0
    5.5944   -1.2537    2.1150 C   0  0  0  0  0  0  0  0  0  0  0  0
    5.3148   -0.7711    0.8435 C   0  0  0  0  0  0  0  0  0  0  0  0
    6.2805   -0.1039    0.1878 N   0  0  0  0  0  0  0  0  0  0  0  0
    8.0614    1.0864   -1.1337 H   0  0  0  0  0  0  0  0  0  0  0  0
    7.4145    0.5508   -2.6944 H   0  0  0  0  0  0  0  0  0  0  0  0
    6.8766    2.0961   -1.9828 H   0  0  0  0  0  0  0  0  0  0  0  0
    4.6509    0.5738   -2.6905 H   0  0  0  0  0  0  0  0  0  0  0  0
    1.7171    0.5243   -0.1306 H   0  0  0  0  0  0  0  0  0  0  0  0
    0.2409   -0.9706   -3.2467 H   0  0  0  0  0  0  0  0  0  0  0  0
   -2.0985   -0.7201   -3.8130 H   0  0  0  0  0  0  0  0  0  0  0  0
   -4.2329    0.1003   -3.4517 H   0  0  0  0  0  0  0  0  0  0  0  0
   -4.7227    0.0449   -1.7642 H   0  0  0  0  0  0  0  0  0  0  0  0
   -4.3521    1.6075   -2.5597 H   0  0  0  0  0  0  0  0  0  0  0  0
   -4.2259   -1.3636    1.0566 H   0  0  0  0  0  0  0  0  0  0  0  0
   -2.6973   -0.5672    1.4198 H   0  0  0  0  0  0  0  0  0  0  0  0
   -3.7664   -1.2490    3.5369 H   0  0  0  0  0  0  0  0  0  0  0  0
   -3.7555    0.5142    3.4570 H   0  0  0  0  0  0  0  0  0  0  0  0
   -7.2214    0.6827    2.5674 H   0  0  0  0  0  0  0  0  0  0  0  0
   -6.6303   -0.5384    1.4370 H   0  0  0  0  0  0  0  0  0  0  0  0
   -5.1915    2.0895    2.1227 H   0  0  0  0  0  0  0  0  0  0  0  0
   -6.1261    1.7864    0.6318 H   0  0  0  0  0  0  0  0  0  0  0  0
   -0.3646    1.2892    0.3714 H   0  0  0  0  0  0  0  0  0  0  0  0
    2.1160   -1.9907    0.6343 H   0  0  0  0  0  0  0  0  0  0  0  0
    2.6724   -2.8050    2.8815 H   0  0  0  0  0  0  0  0  0  0  0  0
    4.9138   -2.3404    3.8479 H   0  0  0  0  0  0  0  0  0  0  0  0
    6.5796   -1.0694    2.5388 H   0  0  0  0  0  0  0  0  0  0  0  0
  1  2  1  0
  2  3  2  0
  3  4  1  0
  4  5  1  0
  5  6  2  0
  5  7  1  0
  7  8  1  0
  8  9  2  0
  9 10  1  0
 10 11  2  0
 11 12  1  0
 11 13  1  0
 13 14  1  0
 14 15  2  0
 14 16  2  0
 14 17  1  0
 17 18  1  0
 18 19  1  0
 19 20  1  0
 20 21  1  0
 21 22  1  0
 13 23  2  0
  4 24  2  0
 24 25  1  0
 25 26  2  0
 26 27  1  0
 27 28  2  0
 28 29  1  0
 29 30  2  0
 30  2  1  0
 23  8  1  0
 29 24  1  0
 22 17  1  0
  1 31  1  0
  1 32  1  0
  1 33  1  0
  3 34  1  0
  7 35  1  0
  9 36  1  0
 10 37  1  0
 12 38  1  0
 12 39  1  0
 12 40  1  0
 18 41  1  0
 18 42  1  0
 19 43  1  0
 19 44  1  0
 21 45  1  0
 21 46  1  0
 22 47  1  0
 22 48  1  0
 23 49  1  0
 25 50  1  0
 26 51  1  0
 27 52  1  0
 28 53  1  0
M  END
$$$$
