
     RDKit          3D

 47 48  0  0  0  0  0  0  0  0999 V2000
    7.0878   -1.1706   -1.9638 C   0  0  0  0  0  0  0  0  0  0  0  0
    6.1923   -0.3266   -1.1069 C   0  0  0  0  0  0  0  0  0  0  0  0
    5.2150   -0.9078   -0.2945 C   0  0  0  0  0  0  0  0  0  0  0  0
    4.3846   -0.1102    0.4968 C   0  0  0  0  0  0  0  0  0  0  0  0
    4.5132    1.2852    0.4875 C   0  0  0  0  0  0  0  0  0  0  0  0
    3.6221    2.1455    1.3493 C   0  0  0  0  0  0  0  0  0  0  0  0
    2.4559    3.1604    0.4034 S   0  0  0  0  0  0  0  0  0  0  0  0
    1.3393    1.9594   -0.1598 C   0  0  0  0  0  0  0  0  0  0  0  0
    0.5453    2.1286   -1.1995 N   0  0  0  0  0  0  0  0  0  0  0  0
   -0.1978    0.9746   -1.3284 N   0  0  0  0  0  0  0  0  0  0  0  0
    0.1816    0.1839   -0.3483 C   0  0  0  0  0  0  0  0  0  0  0  0
   -0.2796   -1.1737    0.0216 C   0  0  0  0  0  0  0  0  0  0  0  0
   -1.2962   -1.7421   -0.9677 C   0  0  0  0  0  0  0  0  0  0  0  0
   -2.5525   -1.0216   -0.9865 N   0  0  0  0  0  0  0  0  0  0  0  0
   -3.4785   -1.1271    0.0065 C   0  0  0  0  0  0  0  0  0  0  0  0
   -3.3989   -1.8978    0.9495 O   0  0  0  0  0  0  0  0  0  0  0  0
   -4.4632   -0.2308   -0.2196 O   0  0  0  0  0  0  0  0  0  0  0  0
   -5.5811   -0.1073    0.6957 C   0  0  0  0  0  0  0  0  0  0  0  0
   -5.1151    0.3629    2.0782 C   0  0  0  0  0  0  0  0  0  0  0  0
   -6.3861   -1.4089    0.7741 C   0  0  0  0  0  0  0  0  0  0  0  0
   -6.4709    0.9829    0.0790 C   0  0  0  0  0  0  0  0  0  0  0  0
    1.1511    0.7412    0.4411 O   0  0  0  0  0  0  0  0  0  0  0  0
    5.4938    1.8643   -0.3294 C   0  0  0  0  0  0  0  0  0  0  0  0
    6.3234    1.0657   -1.1203 C   0  0  0  0  0  0  0  0  0  0  0  0
    6.9071   -0.9582   -3.0224 H   0  0  0  0  0  0  0  0  0  0  0  0
    6.9118   -2.2387   -1.7990 H   0  0  0  0  0  0  0  0  0  0  0  0
    8.1372   -0.9664   -1.7294 H   0  0  0  0  0  0  0  0  0  0  0  0
    5.0939   -1.9880   -0.2694 H   0  0  0  0  0  0  0  0  0  0  0  0
    3.6370   -0.5921    1.1218 H   0  0  0  0  0  0  0  0  0  0  0  0
    3.0768    1.5388    2.0826 H   0  0  0  0  0  0  0  0  0  0  0  0
    4.2581    2.8196    1.9351 H   0  0  0  0  0  0  0  0  0  0  0  0
    0.5900   -1.8395    0.0539 H   0  0  0  0  0  0  0  0  0  0  0  0
   -0.7031   -1.1445    1.0311 H   0  0  0  0  0  0  0  0  0  0  0  0
   -0.9009   -1.7324   -1.9895 H   0  0  0  0  0  0  0  0  0  0  0  0
   -1.5114   -2.7835   -0.6999 H   0  0  0  0  0  0  0  0  0  0  0  0
   -2.6633   -0.2292   -1.6063 H   0  0  0  0  0  0  0  0  0  0  0  0
   -4.5166   -0.3981    2.5878 H   0  0  0  0  0  0  0  0  0  0  0  0
   -5.9654    0.6006    2.7259 H   0  0  0  0  0  0  0  0  0  0  0  0
   -4.4820    1.2525    1.9939 H   0  0  0  0  0  0  0  0  0  0  0  0
   -7.3250   -1.2636    1.3196 H   0  0  0  0  0  0  0  0  0  0  0  0
   -6.6194   -1.7825   -0.2301 H   0  0  0  0  0  0  0  0  0  0  0  0
   -5.8313   -2.2028    1.2852 H   0  0  0  0  0  0  0  0  0  0  0  0
   -6.7936    0.6983   -0.9295 H   0  0  0  0  0  0  0  0  0  0  0  0
   -5.9177    1.9232   -0.0286 H   0  0  0  0  0  0  0  0  0  0  0  0
   -7.3619    1.1740    0.6862 H   0  0  0  0  0  0  0  0  0  0  0  0
    5.6183    2.9450   -0.3577 H   0  0  0  0  0  0  0  0  0  0  0  0
    7.0759    1.5375   -1.7485 H   0  0  0  0  0  0  0  0  0  0  0  0
  1  2  1  0
  2  3  2  0
  3  4  1  0
  4  5  2  0
  5  6  1  0
  6  7  1  0
  7  8  1  0
  8  9  2  0
  9 10  1  0
 10 11  2  0
 11 12  1  0
 12 13  1  0
 13 14  1  0
 14 15  1  0
 15 16  2  0
 15 17  1  0
 17 18  1  0
 18 19  1  0
 18 20  1  0
 18 21  1  0
 11 22  1  0
  5 23  1  0
 23 24  2  0
 24  2  1  0
 22  8  1  0
  1 25  1  0
  1 26  1  0
  1 27  1  0
  3 28  1  0
  4 29  1  0
  6 30  1  0
  6 31  1  0
 12 32  1  0
 12 33  1  0
 13 34  1  0
 13 35  1  0
 14 36  1  0
 19 37  1  0
 19 38  1  0
 19 39  1  0
 20 40  1  0
 20 41  1  0
 20 42  1  0
 21 43  1  0
 21 44  1  0
 21 45  1  0
 23 46  1  0
 24 47  1  0
M  END
$$$$
