
     RDKit          3D

 47 50  0  0  0  0  0  0  0  0999 V2000
   -1.7705    0.6092   -3.4059 O   0  0  0  0  0  0  0  0  0  0  0  0
   -2.2138    0.2453   -2.3336 C   0  0  0  0  0  0  0  0  0  0  0  0
   -3.5683   -0.2644   -2.1298 C   0  0  0  0  0  0  0  0  0  0  0  0
   -4.5800   -0.5101   -3.0366 C   0  0  0  0  0  0  0  0  0  0  0  0
   -5.7893   -0.9932   -2.5267 C   0  0  0  0  0  0  0  0  0  0  0  0
   -5.9564   -1.2111   -1.1427 C   0  0  0  0  0  0  0  0  0  0  0  0
   -4.9174   -0.9486   -0.2439 C   0  0  0  0  0  0  0  0  0  0  0  0
   -3.7324   -0.4773   -0.7728 C   0  0  0  0  0  0  0  0  0  0  0  0
   -2.4834   -0.0985   -0.1157 C   0  0  0  0  0  0  0  0  0  0  0  0
   -2.3186   -0.0753    1.0885 O   0  0  0  0  0  0  0  0  0  0  0  0
   -1.6129    0.2539   -1.1071 N   0  0  0  0  0  0  0  0  0  0  0  0
   -0.2763    0.7428   -0.8613 C   0  0  0  0  0  0  0  0  0  0  0  0
    0.6396   -0.2769   -0.3209 N   0  0  0  0  0  0  0  0  0  0  0  0
    1.2952   -0.1191    0.9196 C   0  0  0  0  0  0  0  0  0  0  0  0
    2.1990   -0.8677    1.3040 O   0  0  0  0  0  0  0  0  0  0  0  0
    0.8922    1.0856    1.7942 C   0  0  0  0  0  0  0  0  0  0  0  0
    1.4925    1.1268    3.0857 O   0  0  0  0  0  0  0  0  0  0  0  0
    2.5998    1.9199    3.2081 C   0  0  0  0  0  0  0  0  0  0  0  0
    3.5856    2.0661    2.2314 C   0  0  0  0  0  0  0  0  0  0  0  0
    4.6866    2.8938    2.4686 C   0  0  0  0  0  0  0  0  0  0  0  0
    4.8101    3.5659    3.6842 C   0  0  0  0  0  0  0  0  0  0  0  0
    3.8396    3.4012    4.6706 C   0  0  0  0  0  0  0  0  0  0  0  0
    2.7413    2.5729    4.4340 C   0  0  0  0  0  0  0  0  0  0  0  0
    0.8747   -1.4558   -1.1262 C   0  0  0  0  0  0  0  0  0  0  0  0
    0.7754   -1.4194   -2.5289 C   0  0  0  0  0  0  0  0  0  0  0  0
    0.9697   -2.5704   -3.3021 C   0  0  0  0  0  0  0  0  0  0  0  0
    1.2639   -3.7739   -2.6814 C   0  0  0  0  0  0  0  0  0  0  0  0
    1.4466   -4.8747   -3.4214 F   0  0  0  0  0  0  0  0  0  0  0  0
    1.3672   -3.8471   -1.3021 C   0  0  0  0  0  0  0  0  0  0  0  0
    1.1717   -2.6951   -0.5317 C   0  0  0  0  0  0  0  0  0  0  0  0
   -4.4399   -0.3359   -4.0986 H   0  0  0  0  0  0  0  0  0  0  0  0
   -6.6149   -1.2036   -3.2048 H   0  0  0  0  0  0  0  0  0  0  0  0
   -6.9086   -1.5868   -0.7710 H   0  0  0  0  0  0  0  0  0  0  0  0
   -5.0342   -1.1079    0.8232 H   0  0  0  0  0  0  0  0  0  0  0  0
    0.1607    1.1639   -1.7733 H   0  0  0  0  0  0  0  0  0  0  0  0
   -0.3866    1.5840   -0.1764 H   0  0  0  0  0  0  0  0  0  0  0  0
    1.0780    2.0198    1.2505 H   0  0  0  0  0  0  0  0  0  0  0  0
   -0.1833    1.0138    1.9783 H   0  0  0  0  0  0  0  0  0  0  0  0
    3.5401    1.5209    1.2945 H   0  0  0  0  0  0  0  0  0  0  0  0
    5.4568    3.0007    1.7088 H   0  0  0  0  0  0  0  0  0  0  0  0
    5.6705    4.2040    3.8686 H   0  0  0  0  0  0  0  0  0  0  0  0
    3.9397    3.9101    5.6255 H   0  0  0  0  0  0  0  0  0  0  0  0
    1.9899    2.4372    5.2076 H   0  0  0  0  0  0  0  0  0  0  0  0
    0.5802   -0.4980   -3.0694 H   0  0  0  0  0  0  0  0  0  0  0  0
    0.8986   -2.5268   -4.3846 H   0  0  0  0  0  0  0  0  0  0  0  0
    1.5934   -4.7961   -0.8261 H   0  0  0  0  0  0  0  0  0  0  0  0
    1.2281   -2.8042    0.5492 H   0  0  0  0  0  0  0  0  0  0  0  0
  1  2  2  0
  2  3  1  0
  3  4  2  0
  4  5  1  0
  5  6  2  0
  6  7  1  0
  7  8  2  0
  8  9  1  0
  9 10  2  0
  9 11  1  0
 11 12  1  0
 12 13  1  0
 13 14  1  0
 14 15  2  0
 14 16  1  0
 16 17  1  0
 17 18  1  0
 18 19  2  0
 19 20  1  0
 20 21  2  0
 21 22  1  0
 22 23  2  0
 13 24  1  0
 24 25  2  0
 25 26  1  0
 26 27  2  0
 27 28  1  0
 27 29  1  0
 29 30  2  0
 11  2  1  0
 23 18  1  0
 30 24  1  0
  8  3  1  0
  4 31  1  0
  5 32  1  0
  6 33  1  0
  7 34  1  0
 12 35  1  0
 12 36  1  0
 16 37  1  0
 16 38  1  0
 19 39  1  0
 20 40  1  0
 21 41  1  0
 22 42  1  0
 23 43  1  0
 25 44  1  0
 26 45  1  0
 29 46  1  0
 30 47  1  0
M  END
$$$$
