
     RDKit          3D

 40 42  0  0  0  0  0  0  0  0999 V2000
    6.2263   -0.5893   -0.1152 C   0  0  0  0  0  0  0  0  0  0  0  0
    5.5309    0.7033    0.2834 C   0  0  0  0  0  0  0  0  0  0  0  0
    4.0297    0.5629    0.2595 C   0  0  0  0  0  0  0  0  0  0  0  0
    3.3093    0.8281   -0.9120 C   0  0  0  0  0  0  0  0  0  0  0  0
    1.9189    0.6807   -0.9422 C   0  0  0  0  0  0  0  0  0  0  0  0
    1.2330    0.2626    0.2025 C   0  0  0  0  0  0  0  0  0  0  0  0
   -0.2403    0.0998    0.2066 C   0  0  0  0  0  0  0  0  0  0  0  0
   -0.8989   -0.3397    1.2342 N   0  0  0  0  0  0  0  0  0  0  0  0
   -2.3382   -0.3778    0.8261 N   0  0  0  0  0  0  0  0  0  0  0  0
   -3.5154   -0.1024    2.0347 S   0  0  0  0  0  6  0  0  0  0  0  0
   -2.9384    1.4260    2.7441 C   0  0  0  0  0  0  0  0  0  0  0  0
   -4.7890    0.1685    1.3994 O   0  0  0  0  0  0  0  0  0  0  0  0
   -3.3920   -1.1268    3.0518 O   0  0  0  0  0  0  0  0  0  0  0  0
   -2.5085    0.3248   -0.4682 C   0  0  0  0  0  0  0  0  0  0  0  0
   -3.3731   -0.4687   -1.4070 C   0  0  0  0  0  0  0  0  0  0  0  0
   -3.6195   -1.8296   -1.4397 C   0  0  0  0  0  0  0  0  0  0  0  0
   -4.4980   -2.2002   -2.4977 C   0  0  0  0  0  0  0  0  0  0  0  0
   -4.8921   -1.1137   -3.2446 C   0  0  0  0  0  0  0  0  0  0  0  0
   -4.2043    0.3423   -2.6727 S   0  0  0  0  0  0  0  0  0  0  0  0
   -1.0752    0.4348   -1.0013 C   0  0  0  0  0  0  0  0  0  0  0  0
    1.9503   -0.0137    1.3721 C   0  0  0  0  0  0  0  0  0  0  0  0
    3.3393    0.1343    1.3993 C   0  0  0  0  0  0  0  0  0  0  0  0
    5.9666   -1.4066    0.5661 H   0  0  0  0  0  0  0  0  0  0  0  0
    7.3126   -0.4582   -0.0891 H   0  0  0  0  0  0  0  0  0  0  0  0
    5.9457   -0.8953   -1.1288 H   0  0  0  0  0  0  0  0  0  0  0  0
    5.8362    1.5121   -0.3917 H   0  0  0  0  0  0  0  0  0  0  0  0
    5.8571    1.0060    1.2859 H   0  0  0  0  0  0  0  0  0  0  0  0
    3.8303    1.1480   -1.8125 H   0  0  0  0  0  0  0  0  0  0  0  0
    1.4011    0.8911   -1.8732 H   0  0  0  0  0  0  0  0  0  0  0  0
   -2.9057    2.1946    1.9705 H   0  0  0  0  0  0  0  0  0  0  0  0
   -3.6474    1.7199    3.5218 H   0  0  0  0  0  0  0  0  0  0  0  0
   -1.9542    1.2709    3.1888 H   0  0  0  0  0  0  0  0  0  0  0  0
   -2.9112    1.3308   -0.3003 H   0  0  0  0  0  0  0  0  0  0  0  0
   -3.1966   -2.5287   -0.7262 H   0  0  0  0  0  0  0  0  0  0  0  0
   -4.8292   -3.2124   -2.6947 H   0  0  0  0  0  0  0  0  0  0  0  0
   -5.5562   -1.1038   -4.0979 H   0  0  0  0  0  0  0  0  0  0  0  0
   -0.8526   -0.2805   -1.8008 H   0  0  0  0  0  0  0  0  0  0  0  0
   -0.8685    1.4497   -1.3545 H   0  0  0  0  0  0  0  0  0  0  0  0
    1.4384   -0.3520    2.2711 H   0  0  0  0  0  0  0  0  0  0  0  0
    3.8789   -0.0920    2.3169 H   0  0  0  0  0  0  0  0  0  0  0  0
  1  2  1  0
  2  3  1  0
  3  4  2  0
  4  5  1  0
  5  6  2  0
  6  7  1  0
  7  8  2  0
  8  9  1  0
  9 10  1  0
 10 11  1  0
 10 12  2  0
 10 13  2  0
  9 14  1  0
 14 15  1  0
 15 16  2  0
 16 17  1  0
 17 18  2  0
 18 19  1  0
 14 20  1  0
  6 21  1  0
 21 22  2  0
 22  3  1  0
 20  7  1  0
 19 15  1  0
  1 23  1  0
  1 24  1  0
  1 25  1  0
  2 26  1  0
  2 27  1  0
  4 28  1  0
  5 29  1  0
 11 30  1  0
 11 31  1  0
 11 32  1  0
 14 33  1  0
 16 34  1  0
 17 35  1  0
 18 36  1  0
 20 37  1  0
 20 38  1  0
 21 39  1  0
 22 40  1  0
M  END
$$$$
