
     RDKit          3D

 41 43  0  0  0  0  0  0  0  0999 V2000
   -2.0028   -3.4598    2.5717 C   0  0  0  0  0  0  0  0  0  0  0  0
   -2.2240   -1.9600    2.4557 C   0  0  0  0  0  0  0  0  0  0  0  0
   -2.0269   -1.4740    1.0183 C   0  0  0  0  0  0  0  0  0  0  0  0
   -2.2468    0.0344    0.9184 C   0  0  0  0  0  0  0  0  0  0  0  0
   -2.1006    0.6267   -0.7940 S   0  0  0  0  0  0  0  0  0  0  0  0
   -0.3728    0.6072   -0.9491 C   0  0  0  0  0  0  0  0  0  0  0  0
    0.1964   -0.4368   -1.4686 N   0  0  0  0  0  0  0  0  0  0  0  0
    1.5373   -0.1865   -1.3399 C   0  0  0  0  0  0  0  0  0  0  0  0
    2.5748   -0.9501   -1.7112 C   0  0  0  0  0  0  0  0  0  0  0  0
    2.5486   -2.2364   -2.3472 C   0  0  0  0  0  0  0  0  0  0  0  0
    1.4024   -2.9901   -2.7473 C   0  0  0  0  0  0  0  0  0  0  0  0
    1.7377   -4.1926   -3.3320 C   0  0  0  0  0  0  0  0  0  0  0  0
    3.4288   -4.4220   -3.4030 S   0  0  0  0  0  0  0  0  0  0  0  0
    3.7158   -2.9105   -2.6518 C   0  0  0  0  0  0  0  0  0  0  0  0
    1.7386    1.1322   -0.6709 C   0  0  0  0  0  0  0  0  0  0  0  0
    2.8213    1.6277   -0.4109 O   0  0  0  0  0  0  0  0  0  0  0  0
    0.4550    1.5927   -0.4816 N   0  0  0  0  0  0  0  0  0  0  0  0
    0.1537    2.8648    0.0776 C   0  0  0  0  0  0  0  0  0  0  0  0
   -0.9733    3.6043   -0.3082 C   0  0  0  0  0  0  0  0  0  0  0  0
   -1.2516    4.8545    0.2573 C   0  0  0  0  0  0  0  0  0  0  0  0
   -0.3997    5.3956    1.2133 C   0  0  0  0  0  0  0  0  0  0  0  0
    0.7364    4.6922    1.5949 C   0  0  0  0  0  0  0  0  0  0  0  0
    1.0125    3.4435    1.0274 C   0  0  0  0  0  0  0  0  0  0  0  0
   -0.9859   -3.7309    2.2703 H   0  0  0  0  0  0  0  0  0  0  0  0
   -2.7071   -4.0102    1.9397 H   0  0  0  0  0  0  0  0  0  0  0  0
   -2.1486   -3.7855    3.6064 H   0  0  0  0  0  0  0  0  0  0  0  0
   -1.5259   -1.4411    3.1229 H   0  0  0  0  0  0  0  0  0  0  0  0
   -3.2381   -1.7188    2.7951 H   0  0  0  0  0  0  0  0  0  0  0  0
   -2.7290   -2.0014    0.3604 H   0  0  0  0  0  0  0  0  0  0  0  0
   -1.0135   -1.7356    0.6925 H   0  0  0  0  0  0  0  0  0  0  0  0
   -1.5424    0.5748    1.5596 H   0  0  0  0  0  0  0  0  0  0  0  0
   -3.2559    0.2841    1.2633 H   0  0  0  0  0  0  0  0  0  0  0  0
    3.5680   -0.5496   -1.5045 H   0  0  0  0  0  0  0  0  0  0  0  0
    0.3726   -2.6789   -2.6209 H   0  0  0  0  0  0  0  0  0  0  0  0
    1.0679   -4.9467   -3.7214 H   0  0  0  0  0  0  0  0  0  0  0  0
    4.7357   -2.5977   -2.4734 H   0  0  0  0  0  0  0  0  0  0  0  0
   -1.6374    3.2639   -1.0969 H   0  0  0  0  0  0  0  0  0  0  0  0
   -2.1289    5.4106   -0.0650 H   0  0  0  0  0  0  0  0  0  0  0  0
   -0.6132    6.3681    1.6493 H   0  0  0  0  0  0  0  0  0  0  0  0
    1.4146    5.1118    2.3341 H   0  0  0  0  0  0  0  0  0  0  0  0
    1.9064    2.9262    1.3695 H   0  0  0  0  0  0  0  0  0  0  0  0
  1  2  1  0
  2  3  1  0
  3  4  1  0
  4  5  1  0
  5  6  1  0
  6  7  2  0
  7  8  1  0
  8  9  2  3
  9 10  1  0
 10 11  1  0
 11 12  2  0
 12 13  1  0
 13 14  1  0
  8 15  1  0
 15 16  2  0
 15 17  1  0
 17 18  1  0
 18 19  2  0
 19 20  1  0
 20 21  2  0
 21 22  1  0
 22 23  2  0
 17  6  1  0
 23 18  1  0
 14 10  2  0
  1 24  1  0
  1 25  1  0
  1 26  1  0
  2 27  1  0
  2 28  1  0
  3 29  1  0
  3 30  1  0
  4 31  1  0
  4 32  1  0
  9 33  1  0
 11 34  1  0
 12 35  1  0
 14 36  1  0
 19 37  1  0
 20 38  1  0
 21 39  1  0
 22 40  1  0
 23 41  1  0
M  END
$$$$
