
     RDKit          3D

 49 52  0  0  0  0  0  0  0  0999 V2000
   -7.2047   -3.6222   -0.2136 C   0  0  0  0  0  0  0  0  0  0  0  0
   -7.1479   -2.5871    0.7599 O   0  0  0  0  0  0  0  0  0  0  0  0
   -6.4329   -1.4690    0.4294 C   0  0  0  0  0  0  0  0  0  0  0  0
   -5.7393   -1.2599   -0.7619 C   0  0  0  0  0  0  0  0  0  0  0  0
   -5.0445   -0.0633   -0.9700 C   0  0  0  0  0  0  0  0  0  0  0  0
   -5.0373    0.9419    0.0067 C   0  0  0  0  0  0  0  0  0  0  0  0
   -4.2621    2.2142   -0.2180 C   0  0  0  0  0  0  0  0  0  0  0  0
   -2.8632    2.0183    0.0854 N   0  0  0  0  0  0  0  0  0  0  0  0
   -1.9329    1.7709   -0.9073 C   0  0  0  0  0  0  0  0  0  0  0  0
   -2.2454    1.8239   -2.0955 O   0  0  0  0  0  0  0  0  0  0  0  0
   -0.5952    1.4368   -0.4264 C   0  0  0  0  0  0  0  0  0  0  0  0
   -0.0494    1.5053    0.8562 C   0  0  0  0  0  0  0  0  0  0  0  0
    1.2951    1.0753    0.8622 C   0  0  0  0  0  0  0  0  0  0  0  0
    1.7221    0.7145   -0.3766 C   0  0  0  0  0  0  0  0  0  0  0  0
    0.5769    0.8583   -1.5764 S   0  0  0  0  0  0  0  0  0  0  0  0
    3.1299    0.2765   -0.3784 C   0  0  0  0  0  0  0  0  0  0  0  0
    3.5817    0.6998    0.9840 N   0  0  0  0  0  0  0  0  0  0  0  0
    4.5399   -0.2274    1.5832 C   0  0  0  0  0  0  0  0  0  0  0  0
    5.8438   -0.3083    0.8188 C   0  0  0  0  0  0  0  0  0  0  0  0
    6.2991   -1.5328    0.3090 C   0  0  0  0  0  0  0  0  0  0  0  0
    7.5064   -1.6045   -0.3887 C   0  0  0  0  0  0  0  0  0  0  0  0
    8.2713   -0.4556   -0.5821 C   0  0  0  0  0  0  0  0  0  0  0  0
    7.8311    0.7666   -0.0785 C   0  0  0  0  0  0  0  0  0  0  0  0
    6.6250    0.8402    0.6197 C   0  0  0  0  0  0  0  0  0  0  0  0
    2.3837    0.9083    1.8525 C   0  0  0  0  0  0  0  0  0  0  0  0
   -5.7286    0.7232    1.2039 C   0  0  0  0  0  0  0  0  0  0  0  0
   -6.4219   -0.4726    1.4082 C   0  0  0  0  0  0  0  0  0  0  0  0
   -7.6861   -3.2739   -1.1335 H   0  0  0  0  0  0  0  0  0  0  0  0
   -7.8161   -4.4323    0.1954 H   0  0  0  0  0  0  0  0  0  0  0  0
   -6.2081   -4.0277   -0.4169 H   0  0  0  0  0  0  0  0  0  0  0  0
   -5.7134   -2.0050   -1.5499 H   0  0  0  0  0  0  0  0  0  0  0  0
   -4.5009    0.0814   -1.9035 H   0  0  0  0  0  0  0  0  0  0  0  0
   -4.3996    2.5678   -1.2458 H   0  0  0  0  0  0  0  0  0  0  0  0
   -4.6283    3.0049    0.4463 H   0  0  0  0  0  0  0  0  0  0  0  0
   -2.6338    1.7756    1.0358 H   0  0  0  0  0  0  0  0  0  0  0  0
   -0.5813    1.8536    1.7313 H   0  0  0  0  0  0  0  0  0  0  0  0
    3.7235    0.7780   -1.1483 H   0  0  0  0  0  0  0  0  0  0  0  0
    3.1784   -0.8103   -0.5137 H   0  0  0  0  0  0  0  0  0  0  0  0
    4.7873    0.1047    2.6003 H   0  0  0  0  0  0  0  0  0  0  0  0
    4.0974   -1.2272    1.6852 H   0  0  0  0  0  0  0  0  0  0  0  0
    5.7160   -2.4399    0.4495 H   0  0  0  0  0  0  0  0  0  0  0  0
    7.8504   -2.5574   -0.7824 H   0  0  0  0  0  0  0  0  0  0  0  0
    9.2100   -0.5122   -1.1269 H   0  0  0  0  0  0  0  0  0  0  0  0
    8.4244    1.6642   -0.2311 H   0  0  0  0  0  0  0  0  0  0  0  0
    6.2856    1.8005    1.0029 H   0  0  0  0  0  0  0  0  0  0  0  0
    2.1739    0.0383    2.4859 H   0  0  0  0  0  0  0  0  0  0  0  0
    2.5174    1.7979    2.4743 H   0  0  0  0  0  0  0  0  0  0  0  0
   -5.7374    1.4789    1.9855 H   0  0  0  0  0  0  0  0  0  0  0  0
   -6.9599   -0.6309    2.3399 H   0  0  0  0  0  0  0  0  0  0  0  0
  1  2  1  0
  2  3  1  0
  3  4  2  0
  4  5  1  0
  5  6  2  0
  6  7  1  0
  7  8  1  0
  8  9  1  0
  9 10  2  0
  9 11  1  0
 11 12  2  0
 12 13  1  0
 13 14  2  0
 14 15  1  0
 14 16  1  0
 16 17  1  0
 17 18  1  0
 18 19  1  0
 19 20  2  0
 20 21  1  0
 21 22  2  0
 22 23  1  0
 23 24  2  0
 17 25  1  0
  6 26  1  0
 26 27  2  0
 27  3  1  0
 15 11  1  0
 24 19  1  0
 25 13  1  0
  1 28  1  0
  1 29  1  0
  1 30  1  0
  4 31  1  0
  5 32  1  0
  7 33  1  0
  7 34  1  0
  8 35  1  0
 12 36  1  0
 16 37  1  0
 16 38  1  0
 18 39  1  0
 18 40  1  0
 20 41  1  0
 21 42  1  0
 22 43  1  0
 23 44  1  0
 24 45  1  0
 25 46  1  0
 25 47  1  0
 26 48  1  0
 27 49  1  0
M  END
$$$$
