
     RDKit          3D

 53 56  0  0  0  0  0  0  0  0999 V2000
    5.9017    0.3941   -1.2472 C   0  0  0  0  0  0  0  0  0  0  0  0
    5.0307    0.0968   -2.3314 O   0  0  0  0  0  0  0  0  0  0  0  0
    3.7506   -0.2606   -2.0103 C   0  0  0  0  0  0  0  0  0  0  0  0
    2.8810   -0.3554   -3.0953 C   0  0  0  0  0  0  0  0  0  0  0  0
    1.5399   -0.7004   -2.9097 C   0  0  0  0  0  0  0  0  0  0  0  0
    1.0496   -0.9593   -1.6280 C   0  0  0  0  0  0  0  0  0  0  0  0
   -0.2498   -1.2977   -1.3568 O   0  0  0  0  0  0  0  0  0  0  0  0
   -1.2160   -0.9859   -2.3538 C   0  0  0  0  0  0  0  0  0  0  0  0
    1.9231   -0.8963   -0.5261 C   0  0  0  0  0  0  0  0  0  0  0  0
    1.4395   -1.1610    0.8852 C   0  0  0  0  0  0  0  0  0  0  0  0
    1.1735    0.0541    1.6819 N   0  0  0  0  0  0  0  0  0  0  0  0
    0.1341    0.8593    1.0984 N   0  0  0  0  0  0  0  0  0  0  0  0
   -1.2216    0.5468    1.2478 C   0  0  0  0  0  0  0  0  0  0  0  0
   -1.6271   -0.5593    2.1562 C   0  0  0  0  0  0  0  0  0  0  0  0
   -1.1819   -0.6098    3.4805 C   0  0  0  0  0  0  0  0  0  0  0  0
   -1.6084   -1.6415    4.3163 C   0  0  0  0  0  0  0  0  0  0  0  0
   -2.4854   -2.6159    3.8349 C   0  0  0  0  0  0  0  0  0  0  0  0
   -2.9440   -2.5712    2.5121 C   0  0  0  0  0  0  0  0  0  0  0  0
   -3.9212   -3.5920    2.0098 C   0  0  0  0  0  0  0  0  0  0  0  0
   -2.5247   -1.5241    1.6814 C   0  0  0  0  0  0  0  0  0  0  0  0
   -2.1597    1.1907    0.6176 N   0  0  0  0  0  0  0  0  0  0  0  0
   -1.7999    2.2509   -0.2249 C   0  0  0  0  0  0  0  0  0  0  0  0
   -2.8049    2.9061   -0.9405 C   0  0  0  0  0  0  0  0  0  0  0  0
   -2.4977    3.9752   -1.7874 C   0  0  0  0  0  0  0  0  0  0  0  0
   -1.1769    4.4014   -1.9250 C   0  0  0  0  0  0  0  0  0  0  0  0
   -0.1638    3.7584   -1.2156 C   0  0  0  0  0  0  0  0  0  0  0  0
   -0.4842    2.6887   -0.3713 C   0  0  0  0  0  0  0  0  0  0  0  0
    0.5631    1.9783    0.3777 C   0  0  0  0  0  0  0  0  0  0  0  0
    1.7290    2.3752    0.3607 O   0  0  0  0  0  0  0  0  0  0  0  0
    3.2718   -0.5379   -0.7307 C   0  0  0  0  0  0  0  0  0  0  0  0
    5.4968    1.1947   -0.6188 H   0  0  0  0  0  0  0  0  0  0  0  0
    6.8488    0.7471   -1.6666 H   0  0  0  0  0  0  0  0  0  0  0  0
    6.1135   -0.5036   -0.6573 H   0  0  0  0  0  0  0  0  0  0  0  0
    3.2500   -0.1520   -4.0977 H   0  0  0  0  0  0  0  0  0  0  0  0
    0.9073   -0.7645   -3.7885 H   0  0  0  0  0  0  0  0  0  0  0  0
   -2.2076   -1.1327   -1.9153 H   0  0  0  0  0  0  0  0  0  0  0  0
   -1.1440    0.0597   -2.6718 H   0  0  0  0  0  0  0  0  0  0  0  0
   -1.1259   -1.6656   -3.2070 H   0  0  0  0  0  0  0  0  0  0  0  0
    0.5686   -1.8253    0.8845 H   0  0  0  0  0  0  0  0  0  0  0  0
    2.2151   -1.7347    1.4089 H   0  0  0  0  0  0  0  0  0  0  0  0
    2.0178    0.6373    1.6458 H   0  0  0  0  0  0  0  0  0  0  0  0
   -0.5123    0.1534    3.8677 H   0  0  0  0  0  0  0  0  0  0  0  0
   -1.2635   -1.6826    5.3463 H   0  0  0  0  0  0  0  0  0  0  0  0
   -2.8153   -3.4092    4.5026 H   0  0  0  0  0  0  0  0  0  0  0  0
   -3.7893   -3.7632    0.9362 H   0  0  0  0  0  0  0  0  0  0  0  0
   -3.7743   -4.5539    2.5121 H   0  0  0  0  0  0  0  0  0  0  0  0
   -4.9450   -3.2507    2.1910 H   0  0  0  0  0  0  0  0  0  0  0  0
   -2.8897   -1.4574    0.6589 H   0  0  0  0  0  0  0  0  0  0  0  0
   -3.8364    2.5803   -0.8309 H   0  0  0  0  0  0  0  0  0  0  0  0
   -3.2918    4.4761   -2.3359 H   0  0  0  0  0  0  0  0  0  0  0  0
   -0.9373    5.2335   -2.5827 H   0  0  0  0  0  0  0  0  0  0  0  0
    0.8684    4.0843   -1.3217 H   0  0  0  0  0  0  0  0  0  0  0  0
    3.9258   -0.4786    0.1335 H   0  0  0  0  0  0  0  0  0  0  0  0
  1  2  1  0
  2  3  1  0
  3  4  2  0
  4  5  1  0
  5  6  2  0
  6  7  1  0
  7  8  1  0
  6  9  1  0
  9 10  1  0
 10 11  1  0
 11 12  1  0
 12 13  1  0
 13 14  1  0
 14 15  2  0
 15 16  1  0
 16 17  2  0
 17 18  1  0
 18 19  1  0
 18 20  2  0
 13 21  2  0
 21 22  1  0
 22 23  2  0
 23 24  1  0
 24 25  2  0
 25 26  1  0
 26 27  2  0
 27 28  1  0
 28 29  2  0
  9 30  2  0
 30  3  1  0
 28 12  1  0
 20 14  1  0
 27 22  1  0
  1 31  1  0
  1 32  1  0
  1 33  1  0
  4 34  1  0
  5 35  1  0
  8 36  1  0
  8 37  1  0
  8 38  1  0
 10 39  1  0
 10 40  1  0
 11 41  1  0
 15 42  1  0
 16 43  1  0
 17 44  1  0
 19 45  1  0
 19 46  1  0
 19 47  1  0
 20 48  1  0
 23 49  1  0
 24 50  1  0
 25 51  1  0
 26 52  1  0
 30 53  1  0
M  END
$$$$
