
     RDKit          3D

 44 45  0  0  0  0  0  0  0  0999 V2000
    3.0437    1.5984   -5.1084 C   0  0  0  0  0  0  0  0  0  0  0  0
    2.6171    0.2781   -4.4868 C   0  0  0  0  0  0  0  0  0  0  0  0
    2.4459    0.4011   -2.9732 C   0  0  0  0  0  0  0  0  0  0  0  0
    2.0204   -0.9321   -2.3527 C   0  0  0  0  0  0  0  0  0  0  0  0
    1.8239   -0.7870   -0.8990 N   0  0  0  0  0  0  0  0  0  0  0  0
    3.0594   -0.9081   -0.1138 C   0  0  0  0  0  0  0  0  0  0  0  0
    0.5662   -0.5667   -0.2963 C   0  0  0  0  0  0  0  0  0  0  0  0
    0.3786   -0.5345    1.0419 C   0  0  0  0  0  0  0  0  0  0  0  0
   -0.9078   -0.3597    1.7017 C   0  0  0  0  0  0  0  0  0  0  0  0
   -0.9840   -0.1948    3.0363 C   0  0  0  0  0  0  0  0  0  0  0  0
   -2.2452   -0.0312    3.7694 C   0  0  0  0  0  0  0  0  0  0  0  0
   -2.2976    0.2682    5.0928 C   0  0  0  0  0  0  0  0  0  0  0  0
   -1.1229    0.4670    5.8773 C   0  0  0  0  0  0  0  0  0  0  0  0
   -0.1603    0.6238    6.5067 N   0  0  0  0  0  0  0  0  0  0  0  0
   -3.5417    0.3910    5.7794 C   0  0  0  0  0  0  0  0  0  0  0  0
   -4.5609    0.4866    6.3264 N   0  0  0  0  0  0  0  0  0  0  0  0
   -3.4964   -0.2397    2.9244 C   0  0  0  0  0  0  0  0  0  0  0  0
   -3.3277    0.2982    1.5044 C   0  0  0  0  0  0  0  0  0  0  0  0
   -2.1325   -0.3696    0.8151 C   0  0  0  0  0  0  0  0  0  0  0  0
   -1.8324    0.3123   -0.5190 C   0  0  0  0  0  0  0  0  0  0  0  0
   -0.6362   -0.3466   -1.2089 C   0  0  0  0  0  0  0  0  0  0  0  0
    2.2971    2.3777   -4.9249 H   0  0  0  0  0  0  0  0  0  0  0  0
    3.1600    1.4876   -6.1910 H   0  0  0  0  0  0  0  0  0  0  0  0
    4.0005    1.9349   -4.6966 H   0  0  0  0  0  0  0  0  0  0  0  0
    3.3684   -0.4866   -4.7157 H   0  0  0  0  0  0  0  0  0  0  0  0
    1.6743   -0.0456   -4.9430 H   0  0  0  0  0  0  0  0  0  0  0  0
    1.7030    1.1756   -2.7486 H   0  0  0  0  0  0  0  0  0  0  0  0
    3.3887    0.7359   -2.5233 H   0  0  0  0  0  0  0  0  0  0  0  0
    2.7876   -1.6930   -2.5471 H   0  0  0  0  0  0  0  0  0  0  0  0
    1.1152   -1.3118   -2.8395 H   0  0  0  0  0  0  0  0  0  0  0  0
    3.2035   -0.0226    0.5146 H   0  0  0  0  0  0  0  0  0  0  0  0
    3.9468   -0.9967   -0.7503 H   0  0  0  0  0  0  0  0  0  0  0  0
    3.0210   -1.8000    0.5206 H   0  0  0  0  0  0  0  0  0  0  0  0
    1.2302   -0.6617    1.7037 H   0  0  0  0  0  0  0  0  0  0  0  0
   -0.0556   -0.1786    3.6063 H   0  0  0  0  0  0  0  0  0  0  0  0
   -4.3729    0.2500    3.3619 H   0  0  0  0  0  0  0  0  0  0  0  0
   -3.7175   -1.3144    2.8840 H   0  0  0  0  0  0  0  0  0  0  0  0
   -4.2416    0.1095    0.9282 H   0  0  0  0  0  0  0  0  0  0  0  0
   -3.1938    1.3879    1.5395 H   0  0  0  0  0  0  0  0  0  0  0  0
   -2.3915   -1.4200    0.6174 H   0  0  0  0  0  0  0  0  0  0  0  0
   -2.7063    0.2611   -1.1797 H   0  0  0  0  0  0  0  0  0  0  0  0
   -1.6174    1.3781   -0.3613 H   0  0  0  0  0  0  0  0  0  0  0  0
   -0.3659    0.2948   -2.0545 H   0  0  0  0  0  0  0  0  0  0  0  0
   -0.9438   -1.3171   -1.6184 H   0  0  0  0  0  0  0  0  0  0  0  0
  1  2  1  0
  2  3  1  0
  3  4  1  0
  4  5  1  0
  5  6  1  0
  5  7  1  0
  7  8  2  0
  8  9  1  0
  9 10  2  0
 10 11  1  0
 11 12  2  3
 12 13  1  0
 13 14  3  0
 12 15  1  0
 15 16  3  0
 11 17  1  0
 17 18  1  0
 18 19  1  0
 19 20  1  0
 20 21  1  0
 21  7  1  0
 19  9  1  0
  1 22  1  0
  1 23  1  0
  1 24  1  0
  2 25  1  0
  2 26  1  0
  3 27  1  0
  3 28  1  0
  4 29  1  0
  4 30  1  0
  6 31  1  0
  6 32  1  0
  6 33  1  0
  8 34  1  0
 10 35  1  0
 17 36  1  0
 17 37  1  0
 18 38  1  0
 18 39  1  0
 19 40  1  0
 20 41  1  0
 20 42  1  0
 21 43  1  0
 21 44  1  0
M  END
$$$$
