
     RDKit          3D

 62 64  0  0  0  0  0  0  0  0999 V2000
    8.6482    3.3299    2.0262 C   0  0  0  0  0  0  0  0  0  0  0  0
    7.7357    3.8421    1.0610 O   0  0  0  0  0  0  0  0  0  0  0  0
    6.4324    3.4421    1.1741 C   0  0  0  0  0  0  0  0  0  0  0  0
    5.9124    2.6010    2.1585 C   0  0  0  0  0  0  0  0  0  0  0  0
    4.5518    2.2719    2.1560 C   0  0  0  0  0  0  0  0  0  0  0  0
    3.6937    2.7795    1.1724 C   0  0  0  0  0  0  0  0  0  0  0  0
    2.2312    2.4071    1.1632 C   0  0  0  0  0  0  0  0  0  0  0  0
    2.0106    1.0073    0.5951 C   0  0  0  0  0  0  0  0  0  0  0  0
    0.5441    0.6205    0.6141 C   0  0  0  0  0  0  0  0  0  0  0  0
   -0.3511    1.4515    0.7168 O   0  0  0  0  0  0  0  0  0  0  0  0
    0.3729   -0.7373    0.4560 N   0  0  0  0  0  0  0  0  0  0  0  0
   -0.8289   -1.4733    0.4660 C   0  0  0  0  0  0  0  0  0  0  0  0
   -2.0645   -0.9366    0.8270 C   0  0  0  0  0  0  0  0  0  0  0  0
   -3.2056   -1.7417    0.7715 C   0  0  0  0  0  0  0  0  0  0  0  0
   -4.7874   -1.0626    1.2380 S   0  0  0  0  0  6  0  0  0  0  0  0
   -4.5568   -0.0998    2.2920 O   0  0  0  0  0  0  0  0  0  0  0  0
   -5.6861   -2.1816    1.4347 O   0  0  0  0  0  0  0  0  0  0  0  0
   -5.2871   -0.2393   -0.1618 N   0  0  0  0  0  0  0  0  0  0  0  0
   -4.6157    1.0400   -0.5013 C   0  0  0  0  0  0  0  0  0  0  0  0
   -3.9264    0.9571   -1.8598 C   0  0  0  0  0  0  0  0  0  0  0  0
   -4.9154    0.6365   -2.9790 C   0  0  0  0  0  0  0  0  0  0  0  0
   -6.1037   -0.1906   -2.4915 C   0  0  0  0  0  0  0  0  0  0  0  0
   -5.7232   -1.0719   -1.3081 C   0  0  0  0  0  0  0  0  0  0  0  0
   -3.1139   -3.0895    0.4104 C   0  0  0  0  0  0  0  0  0  0  0  0
   -1.8730   -3.6329    0.0709 C   0  0  0  0  0  0  0  0  0  0  0  0
   -0.7185   -2.8363    0.0912 C   0  0  0  0  0  0  0  0  0  0  0  0
    0.5730   -3.3407   -0.2451 N   0  0  0  0  0  0  0  0  0  0  0  0
    1.0185   -4.3382    0.7340 C   0  0  0  0  0  0  0  0  0  0  0  0
    0.6205   -3.8160   -1.6334 C   0  0  0  0  0  0  0  0  0  0  0  0
    4.2208    3.6209    0.1882 C   0  0  0  0  0  0  0  0  0  0  0  0
    5.5791    3.9501    0.1943 C   0  0  0  0  0  0  0  0  0  0  0  0
    9.6388    3.7371    1.7996 H   0  0  0  0  0  0  0  0  0  0  0  0
    8.7157    2.2384    1.9612 H   0  0  0  0  0  0  0  0  0  0  0  0
    8.3784    3.6537    3.0372 H   0  0  0  0  0  0  0  0  0  0  0  0
    6.5364    2.1853    2.9427 H   0  0  0  0  0  0  0  0  0  0  0  0
    4.1657    1.6184    2.9345 H   0  0  0  0  0  0  0  0  0  0  0  0
    1.8409    2.4681    2.1876 H   0  0  0  0  0  0  0  0  0  0  0  0
    1.6627    3.1484    0.5865 H   0  0  0  0  0  0  0  0  0  0  0  0
    2.3571    0.9587   -0.4445 H   0  0  0  0  0  0  0  0  0  0  0  0
    2.5820    0.2679    1.1701 H   0  0  0  0  0  0  0  0  0  0  0  0
    1.1742   -1.3171    0.2108 H   0  0  0  0  0  0  0  0  0  0  0  0
   -2.1516    0.0899    1.1657 H   0  0  0  0  0  0  0  0  0  0  0  0
   -3.8814    1.3256    0.2580 H   0  0  0  0  0  0  0  0  0  0  0  0
   -5.3760    1.8335   -0.5063 H   0  0  0  0  0  0  0  0  0  0  0  0
   -3.1540    0.1782   -1.8287 H   0  0  0  0  0  0  0  0  0  0  0  0
   -3.4091    1.8969   -2.0820 H   0  0  0  0  0  0  0  0  0  0  0  0
   -5.2924    1.5674   -3.4227 H   0  0  0  0  0  0  0  0  0  0  0  0
   -4.3895    0.1031   -3.7813 H   0  0  0  0  0  0  0  0  0  0  0  0
   -6.4885   -0.8053   -3.3140 H   0  0  0  0  0  0  0  0  0  0  0  0
   -6.9164    0.4863   -2.1958 H   0  0  0  0  0  0  0  0  0  0  0  0
   -4.9292   -1.7656   -1.6043 H   0  0  0  0  0  0  0  0  0  0  0  0
   -6.6021   -1.6580   -1.0134 H   0  0  0  0  0  0  0  0  0  0  0  0
   -3.9982   -3.7240    0.3996 H   0  0  0  0  0  0  0  0  0  0  0  0
   -1.8179   -4.6859   -0.1968 H   0  0  0  0  0  0  0  0  0  0  0  0
    2.0516   -4.6344    0.5157 H   0  0  0  0  0  0  0  0  0  0  0  0
    0.3990   -5.2431    0.7158 H   0  0  0  0  0  0  0  0  0  0  0  0
    1.0066   -3.9213    1.7478 H   0  0  0  0  0  0  0  0  0  0  0  0
    1.6538   -4.0661   -1.8993 H   0  0  0  0  0  0  0  0  0  0  0  0
    0.0074   -4.7115   -1.7855 H   0  0  0  0  0  0  0  0  0  0  0  0
    0.2909   -3.0323   -2.3235 H   0  0  0  0  0  0  0  0  0  0  0  0
    3.5816    4.0286   -0.5889 H   0  0  0  0  0  0  0  0  0  0  0  0
    5.9759    4.6098   -0.5740 H   0  0  0  0  0  0  0  0  0  0  0  0
  1  2  1  0
  2  3  1  0
  3  4  2  0
  4  5  1  0
  5  6  2  0
  6  7  1  0
  7  8  1  0
  8  9  1  0
  9 10  2  0
  9 11  1  0
 11 12  1  0
 12 13  2  0
 13 14  1  0
 14 15  1  0
 15 16  2  0
 15 17  2  0
 15 18  1  0
 18 19  1  0
 19 20  1  0
 20 21  1  0
 21 22  1  0
 22 23  1  0
 14 24  2  0
 24 25  1  0
 25 26  2  0
 26 27  1  0
 27 28  1  0
 27 29  1  0
  6 30  1  0
 30 31  2  0
 31  3  1  0
 26 12  1  0
 23 18  1  0
  1 32  1  0
  1 33  1  0
  1 34  1  0
  4 35  1  0
  5 36  1  0
  7 37  1  0
  7 38  1  0
  8 39  1  0
  8 40  1  0
 11 41  1  0
 13 42  1  0
 19 43  1  0
 19 44  1  0
 20 45  1  0
 20 46  1  0
 21 47  1  0
 21 48  1  0
 22 49  1  0
 22 50  1  0
 23 51  1  0
 23 52  1  0
 24 53  1  0
 25 54  1  0
 28 55  1  0
 28 56  1  0
 28 57  1  0
 29 58  1  0
 29 59  1  0
 29 60  1  0
 30 61  1  0
 31 62  1  0
M  END
$$$$
