
     RDKit          3D

 38 39  0  0  0  0  0  0  0  0999 V2000
   -4.3633    2.1644    2.8730 C   0  0  0  0  0  0  0  0  0  0  0  0
   -4.5747    1.4537    1.6614 O   0  0  0  0  0  0  0  0  0  0  0  0
   -3.4871    0.8590    1.0711 C   0  0  0  0  0  0  0  0  0  0  0  0
   -2.1795    0.9357    1.5672 C   0  0  0  0  0  0  0  0  0  0  0  0
   -1.1322    0.2989    0.8985 C   0  0  0  0  0  0  0  0  0  0  0  0
   -1.3949   -0.4149   -0.2708 C   0  0  0  0  0  0  0  0  0  0  0  0
   -0.2838   -1.0929   -0.9927 C   0  0  0  0  0  0  0  0  0  0  0  0
   -0.0967   -0.8491   -2.2548 N   0  0  0  0  0  0  0  0  0  0  0  0
    0.5093   -1.9708   -0.2798 N   0  0  0  0  0  0  0  0  0  0  0  0
    1.8034   -2.0763   -0.8253 O   0  0  0  0  0  0  0  0  0  0  0  0
    2.6947   -1.2374   -0.1972 C   0  0  0  0  0  0  0  0  0  0  0  0
    2.4249   -0.6014    0.8168 O   0  0  0  0  0  0  0  0  0  0  0  0
    3.9949   -1.2401   -0.9684 C   0  0  0  0  0  0  0  0  0  0  0  0
    5.0650   -0.4840   -0.2395 C   0  0  0  0  0  0  0  0  0  0  0  0
    5.3587    0.8642   -0.3078 C   0  0  0  0  0  0  0  0  0  0  0  0
    6.4555    1.2222    0.5282 C   0  0  0  0  0  0  0  0  0  0  0  0
    6.9659    0.1361    1.2024 C   0  0  0  0  0  0  0  0  0  0  0  0
    6.1258   -1.3048    0.8283 S   0  0  0  0  0  0  0  0  0  0  0  0
   -2.6936   -0.4979   -0.7824 C   0  0  0  0  0  0  0  0  0  0  0  0
   -3.7459    0.1351   -0.1138 C   0  0  0  0  0  0  0  0  0  0  0  0
   -5.0543    0.1092   -0.5296 O   0  0  0  0  0  0  0  0  0  0  0  0
   -5.3647   -0.6454   -1.6925 C   0  0  0  0  0  0  0  0  0  0  0  0
   -5.3305    2.5537    3.2053 H   0  0  0  0  0  0  0  0  0  0  0  0
   -3.6968    3.0193    2.7183 H   0  0  0  0  0  0  0  0  0  0  0  0
   -3.9841    1.5023    3.6586 H   0  0  0  0  0  0  0  0  0  0  0  0
   -1.9415    1.4906    2.4688 H   0  0  0  0  0  0  0  0  0  0  0  0
   -0.1186    0.3890    1.2831 H   0  0  0  0  0  0  0  0  0  0  0  0
   -0.7708   -0.1584   -2.5999 H   0  0  0  0  0  0  0  0  0  0  0  0
    0.5297   -1.8353    0.7308 H   0  0  0  0  0  0  0  0  0  0  0  0
    4.3049   -2.2780   -1.1357 H   0  0  0  0  0  0  0  0  0  0  0  0
    3.8142   -0.7732   -1.9435 H   0  0  0  0  0  0  0  0  0  0  0  0
    4.8085    1.5663   -0.9234 H   0  0  0  0  0  0  0  0  0  0  0  0
    6.8488    2.2260    0.6312 H   0  0  0  0  0  0  0  0  0  0  0  0
    7.7924    0.1176    1.8994 H   0  0  0  0  0  0  0  0  0  0  0  0
   -2.8567   -1.0722   -1.6883 H   0  0  0  0  0  0  0  0  0  0  0  0
   -5.1224   -1.7042   -1.5536 H   0  0  0  0  0  0  0  0  0  0  0  0
   -6.4432   -0.5711   -1.8613 H   0  0  0  0  0  0  0  0  0  0  0  0
   -4.8612   -0.2357   -2.5743 H   0  0  0  0  0  0  0  0  0  0  0  0
  1  2  1  0
  2  3  1  0
  3  4  2  0
  4  5  1  0
  5  6  2  0
  6  7  1  0
  7  8  2  3
  7  9  1  0
  9 10  1  0
 10 11  1  0
 11 12  2  0
 11 13  1  0
 13 14  1  0
 14 15  2  0
 15 16  1  0
 16 17  2  0
 17 18  1  0
  6 19  1  0
 19 20  2  0
 20 21  1  0
 21 22  1  0
 20  3  1  0
 18 14  1  0
  1 23  1  0
  1 24  1  0
  1 25  1  0
  4 26  1  0
  5 27  1  0
  8 28  1  0
  9 29  1  0
 13 30  1  0
 13 31  1  0
 15 32  1  0
 16 33  1  0
 17 34  1  0
 19 35  1  0
 22 36  1  0
 22 37  1  0
 22 38  1  0
M  END
$$$$
