
     RDKit          3D

 39 40  0  0  0  0  0  0  0  0999 V2000
   -3.5445    1.8024    2.1640 C   0  0  0  0  0  0  0  0  0  0  0  0
   -3.6960    1.6280    0.6608 C   0  0  0  0  0  0  0  0  0  0  0  0
   -3.9209    0.2271    0.2941 N   0  0  0  0  0  0  0  0  0  0  0  0
   -5.3032   -0.2539    0.3188 C   0  0  0  0  0  0  0  0  0  0  0  0
   -5.9945   -0.0564   -1.0214 C   0  0  0  0  0  0  0  0  0  0  0  0
   -2.9206   -0.6605   -0.1186 C   0  0  0  0  0  0  0  0  0  0  0  0
   -3.1982   -1.8056   -0.4819 O   0  0  0  0  0  0  0  0  0  0  0  0
   -1.4899   -0.1272   -0.1180 C   0  0  0  0  0  0  0  0  0  0  0  0
   -0.2625   -1.4542   -0.3240 S   0  0  0  0  0  0  0  0  0  0  0  0
    1.1942   -0.5233   -0.2984 C   0  0  0  0  0  0  0  0  0  0  0  0
    1.2972    0.7751   -0.1538 N   0  0  0  0  0  0  0  0  0  0  0  0
    2.6357    1.0864   -0.2060 N   0  0  0  0  0  0  0  0  0  0  0  0
    3.3348   -0.0311   -0.3622 C   0  0  0  0  0  0  0  0  0  0  0  0
    4.7957   -0.0968   -0.4668 C   0  0  0  0  0  0  0  0  0  0  0  0
    5.4911    1.0190   -0.9456 C   0  0  0  0  0  0  0  0  0  0  0  0
    6.8717    0.9612   -1.0380 C   0  0  0  0  0  0  0  0  0  0  0  0
    7.5998   -0.1175   -0.6854 N   0  0  0  0  0  0  0  0  0  0  0  0
    6.9170   -1.1782   -0.2086 C   0  0  0  0  0  0  0  0  0  0  0  0
    5.5372   -1.2146   -0.0788 C   0  0  0  0  0  0  0  0  0  0  0  0
    2.4389   -1.0829   -0.4494 N   0  0  0  0  0  0  0  0  0  0  0  0
    2.7280   -2.4735   -0.7166 N   0  0  0  0  0  0  0  0  0  0  0  0
   -3.3618    2.8535    2.4073 H   0  0  0  0  0  0  0  0  0  0  0  0
   -2.7095    1.2106    2.5517 H   0  0  0  0  0  0  0  0  0  0  0  0
   -4.4488    1.4837    2.6922 H   0  0  0  0  0  0  0  0  0  0  0  0
   -4.5402    2.2235    0.2956 H   0  0  0  0  0  0  0  0  0  0  0  0
   -2.8037    2.0101    0.1578 H   0  0  0  0  0  0  0  0  0  0  0  0
   -5.8496    0.2715    1.1096 H   0  0  0  0  0  0  0  0  0  0  0  0
   -5.3141   -1.3190    0.5764 H   0  0  0  0  0  0  0  0  0  0  0  0
   -7.0234   -0.4263   -0.9762 H   0  0  0  0  0  0  0  0  0  0  0  0
   -6.0238    1.0023   -1.2983 H   0  0  0  0  0  0  0  0  0  0  0  0
   -5.4720   -0.5948   -1.8188 H   0  0  0  0  0  0  0  0  0  0  0  0
   -1.2875    0.3701    0.8340 H   0  0  0  0  0  0  0  0  0  0  0  0
   -1.3899    0.5832   -0.9446 H   0  0  0  0  0  0  0  0  0  0  0  0
    4.9678    1.9230   -1.2435 H   0  0  0  0  0  0  0  0  0  0  0  0
    7.4435    1.8075   -1.4079 H   0  0  0  0  0  0  0  0  0  0  0  0
    7.5277   -2.0285    0.0822 H   0  0  0  0  0  0  0  0  0  0  0  0
    5.0716   -2.1025    0.3338 H   0  0  0  0  0  0  0  0  0  0  0  0
    1.9623   -3.0561   -0.3709 H   0  0  0  0  0  0  0  0  0  0  0  0
    2.7405   -2.6351   -1.7239 H   0  0  0  0  0  0  0  0  0  0  0  0
  1  2  1  0
  2  3  1  0
  3  4  1  0
  4  5  1  0
  3  6  1  0
  6  7  2  0
  6  8  1  0
  8  9  1  0
  9 10  1  0
 10 11  2  0
 11 12  1  0
 12 13  2  0
 13 14  1  0
 14 15  2  0
 15 16  1  0
 16 17  2  0
 17 18  1  0
 18 19  2  0
 13 20  1  0
 20 21  1  0
 20 10  1  0
 19 14  1  0
  1 22  1  0
  1 23  1  0
  1 24  1  0
  2 25  1  0
  2 26  1  0
  4 27  1  0
  4 28  1  0
  5 29  1  0
  5 30  1  0
  5 31  1  0
  8 32  1  0
  8 33  1  0
 15 34  1  0
 16 35  1  0
 18 36  1  0
 19 37  1  0
 21 38  1  0
 21 39  1  0
M  END
$$$$
