
     RDKit          3D

 49 53  0  0  0  0  0  0  0  0999 V2000
    7.5919    0.6171    0.8761 C   0  0  0  0  0  0  0  0  0  0  0  0
    6.4975   -0.1054    0.2700 N   0  0  0  0  0  0  0  0  0  0  0  0
    6.5914   -1.1420   -0.6071 C   0  0  0  0  0  0  0  0  0  0  0  0
    5.2905   -1.5006   -0.8926 C   0  0  0  0  0  0  0  0  0  0  0  0
    4.8927   -2.5699   -1.7427 N   0  0  0  0  0  4  0  0  0  0  0  0
    5.3061   -2.5281   -2.9083 O   0  0  0  0  0  0  0  0  0  0  0  0
    4.2480   -3.4846   -1.2189 O   0  0  0  0  0  1  0  0  0  0  0  0
    4.4715   -0.6068   -0.1707 C   0  0  0  0  0  0  0  0  0  0  0  0
    3.0018   -0.5139   -0.1855 C   0  0  0  0  0  0  0  0  0  0  0  0
    2.3393   -1.1816   -0.9668 O   0  0  0  0  0  0  0  0  0  0  0  0
    2.5581    0.4044    0.7394 N   0  0  0  0  0  0  0  0  0  0  0  0
    1.2506    0.7428    0.9805 C   0  0  0  0  0  0  0  0  0  0  0  0
    0.8506    1.7037    1.9357 C   0  0  0  0  0  0  0  0  0  0  0  0
   -0.5221    1.7411    1.8644 C   0  0  0  0  0  0  0  0  0  0  0  0
   -0.8764    0.8340    0.9052 N   0  0  0  0  0  0  0  0  0  0  0  0
   -2.2197    0.4739    0.4265 C   0  0  0  0  0  0  0  0  0  0  0  0
   -2.3414    0.7748   -1.0936 C   0  0  0  0  0  0  0  0  0  0  0  0
   -3.7259    0.3655   -1.6251 C   0  0  0  0  0  0  0  0  0  0  0  0
   -3.9365   -1.1386   -1.3844 C   0  0  0  0  0  0  0  0  0  0  0  0
   -3.8625   -1.4489    0.1199 C   0  0  0  0  0  0  0  0  0  0  0  0
   -4.9471   -0.6490    0.8570 C   0  0  0  0  0  0  0  0  0  0  0  0
   -4.7366    0.8549    0.6259 C   0  0  0  0  0  0  0  0  0  0  0  0
   -4.8111    1.1557   -0.8787 C   0  0  0  0  0  0  0  0  0  0  0  0
   -3.3500    1.2593    1.1547 C   0  0  0  0  0  0  0  0  0  0  0  0
   -2.4783   -1.0419    0.6539 C   0  0  0  0  0  0  0  0  0  0  0  0
    0.1946    0.2229    0.3620 N   0  0  0  0  0  0  0  0  0  0  0  0
    5.2284    0.2399    0.5708 N   0  0  0  0  0  0  0  0  0  0  0  0
    7.5169    0.5069    1.9607 H   0  0  0  0  0  0  0  0  0  0  0  0
    8.5399    0.2046    0.5226 H   0  0  0  0  0  0  0  0  0  0  0  0
    7.5103    1.6682    0.5884 H   0  0  0  0  0  0  0  0  0  0  0  0
    7.5397   -1.5404   -0.9422 H   0  0  0  0  0  0  0  0  0  0  0  0
    3.2789    0.8781    1.2707 H   0  0  0  0  0  0  0  0  0  0  0  0
    1.4759    2.2925    2.5905 H   0  0  0  0  0  0  0  0  0  0  0  0
   -1.2445    2.3294    2.4105 H   0  0  0  0  0  0  0  0  0  0  0  0
   -2.1712    1.8433   -1.2813 H   0  0  0  0  0  0  0  0  0  0  0  0
   -1.5692    0.2366   -1.6588 H   0  0  0  0  0  0  0  0  0  0  0  0
   -3.7863    0.5794   -2.6981 H   0  0  0  0  0  0  0  0  0  0  0  0
   -3.1752   -1.7151   -1.9241 H   0  0  0  0  0  0  0  0  0  0  0  0
   -4.9109   -1.4479   -1.7823 H   0  0  0  0  0  0  0  0  0  0  0  0
   -4.0197   -2.5209    0.2836 H   0  0  0  0  0  0  0  0  0  0  0  0
   -4.9139   -0.8724    1.9304 H   0  0  0  0  0  0  0  0  0  0  0  0
   -5.9406   -0.9476    0.5004 H   0  0  0  0  0  0  0  0  0  0  0  0
   -5.5121    1.4212    1.1539 H   0  0  0  0  0  0  0  0  0  0  0  0
   -4.6798    2.2307   -1.0536 H   0  0  0  0  0  0  0  0  0  0  0  0
   -5.8022    0.8890   -1.2657 H   0  0  0  0  0  0  0  0  0  0  0  0
   -3.3093    1.0722    2.2360 H   0  0  0  0  0  0  0  0  0  0  0  0
   -3.2144    2.3401    1.0159 H   0  0  0  0  0  0  0  0  0  0  0  0
   -2.4066   -1.2803    1.7235 H   0  0  0  0  0  0  0  0  0  0  0  0
   -1.7112   -1.6463    0.1521 H   0  0  0  0  0  0  0  0  0  0  0  0
  1  2  1  0
  2  3  1  0
  3  4  2  0
  4  5  1  0
  5  6  2  0
  5  7  1  0
  4  8  1  0
  8  9  1  0
  9 10  2  0
  9 11  1  0
 11 12  1  0
 12 13  1  0
 13 14  2  0
 14 15  1  0
 15 16  1  0
 16 17  1  0
 17 18  1  0
 18 19  1  0
 19 20  1  0
 20 21  1  0
 21 22  1  0
 22 23  1  0
 22 24  1  0
 20 25  1  0
 15 26  1  0
  8 27  2  0
 27  2  1  0
 26 12  2  0
 24 16  1  0
 25 16  1  0
 23 18  1  0
  1 28  1  0
  1 29  1  0
  1 30  1  0
  3 31  1  0
 11 32  1  0
 13 33  1  0
 14 34  1  0
 17 35  1  0
 17 36  1  0
 18 37  1  0
 19 38  1  0
 19 39  1  0
 20 40  1  0
 21 41  1  0
 21 42  1  0
 22 43  1  0
 23 44  1  0
 23 45  1  0
 24 46  1  0
 24 47  1  0
 25 48  1  0
 25 49  1  0
M  CHG  2   5   1   7  -1
M  END
$$$$
