
     RDKit          3D

 46 48  0  0  0  0  0  0  0  0999 V2000
   -3.7851    1.9262    0.1031 C   0  0  0  0  0  0  0  0  0  0  0  0
   -3.1250    0.5851   -0.0956 C   0  0  0  0  0  0  0  0  0  0  0  0
   -3.8203   -0.5734   -0.0573 C   0  0  0  0  0  0  0  0  0  0  0  0
   -5.2615   -0.6971    0.1780 C   0  0  0  0  0  0  0  0  0  0  0  0
   -5.7554   -0.7978    1.4829 C   0  0  0  0  0  0  0  0  0  0  0  0
   -7.1288   -0.9125    1.7053 C   0  0  0  0  0  0  0  0  0  0  0  0
   -8.0119   -0.9271    0.6260 C   0  0  0  0  0  0  0  0  0  0  0  0
   -7.5238   -0.8268   -0.6766 C   0  0  0  0  0  0  0  0  0  0  0  0
   -6.1508   -0.7119   -0.9015 C   0  0  0  0  0  0  0  0  0  0  0  0
   -1.6799    0.5035   -0.3413 C   0  0  0  0  0  0  0  0  0  0  0  0
   -0.7195    1.4374   -0.4314 C   0  0  0  0  0  0  0  0  0  0  0  0
   -0.8115    3.1520   -0.2883 S   0  0  0  0  0  0  0  0  0  0  0  0
    0.9152    3.3885   -0.5367 C   0  0  0  0  0  0  0  0  0  0  0  0
    1.6472    4.8830   -0.5459 S   0  0  0  0  0  0  0  0  0  0  0  0
    1.4936    2.1569   -0.7423 N   0  0  0  0  0  0  0  0  0  0  0  0
    2.9908    1.9592   -0.8761 N   0  0  0  0  0  0  0  0  0  0  0  0
    3.7715    1.7440    0.6356 S   0  0  0  0  0  6  0  0  0  0  0  0
    4.7059    2.8327    0.8125 O   0  0  0  0  0  0  0  0  0  0  0  0
    2.7588    1.4455    1.6274 O   0  0  0  0  0  0  0  0  0  0  0  0
    4.7021    0.2639    0.3301 C   0  0  0  0  0  0  0  0  0  0  0  0
    6.0348    0.3572   -0.0775 C   0  0  0  0  0  0  0  0  0  0  0  0
    6.7627   -0.8095   -0.3157 C   0  0  0  0  0  0  0  0  0  0  0  0
    6.1706   -2.0667   -0.1321 C   0  0  0  0  0  0  0  0  0  0  0  0
    6.9474   -3.3188   -0.4185 C   0  0  0  0  0  0  0  0  0  0  0  0
    4.8315   -2.1431    0.2747 C   0  0  0  0  0  0  0  0  0  0  0  0
    4.0976   -0.9810    0.5165 C   0  0  0  0  0  0  0  0  0  0  0  0
    0.6928    1.0309   -0.6966 C   0  0  0  0  0  0  0  0  0  0  0  0
    1.0821   -0.1178   -0.8695 O   0  0  0  0  0  0  0  0  0  0  0  0
   -3.3747    2.4323    0.9828 H   0  0  0  0  0  0  0  0  0  0  0  0
   -3.6540    2.5562   -0.7826 H   0  0  0  0  0  0  0  0  0  0  0  0
   -4.8645    1.8588    0.2679 H   0  0  0  0  0  0  0  0  0  0  0  0
   -3.3304   -1.5346   -0.2037 H   0  0  0  0  0  0  0  0  0  0  0  0
   -5.0752   -0.7844    2.3311 H   0  0  0  0  0  0  0  0  0  0  0  0
   -7.5094   -0.9892    2.7204 H   0  0  0  0  0  0  0  0  0  0  0  0
   -9.0812   -1.0157    0.8003 H   0  0  0  0  0  0  0  0  0  0  0  0
   -8.2125   -0.8368   -1.5173 H   0  0  0  0  0  0  0  0  0  0  0  0
   -5.7805   -0.6313   -1.9205 H   0  0  0  0  0  0  0  0  0  0  0  0
   -1.3347   -0.5271   -0.4713 H   0  0  0  0  0  0  0  0  0  0  0  0
    3.2147    1.1871   -1.5131 H   0  0  0  0  0  0  0  0  0  0  0  0
    6.5136    1.3256   -0.2098 H   0  0  0  0  0  0  0  0  0  0  0  0
    7.7993   -0.7335   -0.6391 H   0  0  0  0  0  0  0  0  0  0  0  0
    6.6064   -4.1437    0.2159 H   0  0  0  0  0  0  0  0  0  0  0  0
    8.0134   -3.1723   -0.2150 H   0  0  0  0  0  0  0  0  0  0  0  0
    6.8229   -3.6039   -1.4677 H   0  0  0  0  0  0  0  0  0  0  0  0
    4.3535   -3.1116    0.4111 H   0  0  0  0  0  0  0  0  0  0  0  0
    3.0621   -1.0587    0.8427 H   0  0  0  0  0  0  0  0  0  0  0  0
  1  2  1  0
  2  3  2  3
  3  4  1  0
  4  5  2  0
  5  6  1  0
  6  7  2  0
  7  8  1  0
  8  9  2  0
  2 10  1  0
 10 11  2  3
 11 12  1  0
 12 13  1  0
 13 14  2  0
 13 15  1  0
 15 16  1  0
 16 17  1  0
 17 18  2  0
 17 19  2  0
 17 20  1  0
 20 21  2  0
 21 22  1  0
 22 23  2  0
 23 24  1  0
 23 25  1  0
 25 26  2  0
 15 27  1  0
 27 28  2  0
  9  4  1  0
 27 11  1  0
 26 20  1  0
  1 29  1  0
  1 30  1  0
  1 31  1  0
  3 32  1  0
  5 33  1  0
  6 34  1  0
  7 35  1  0
  8 36  1  0
  9 37  1  0
 10 38  1  0
 16 39  1  0
 21 40  1  0
 22 41  1  0
 24 42  1  0
 24 43  1  0
 24 44  1  0
 25 45  1  0
 26 46  1  0
M  END
$$$$
