
     RDKit          3D

 43 45  0  0  0  0  0  0  0  0999 V2000
   -6.7164    0.0328    2.3525 C   0  0  0  0  0  0  0  0  0  0  0  0
   -6.2785    1.4435    1.9854 C   0  0  0  0  0  0  0  0  0  0  0  0
   -5.9579    1.6006    0.5001 C   0  0  0  0  0  0  0  0  0  0  0  0
   -4.7160    0.8583    0.1041 C   0  0  0  0  0  0  0  0  0  0  0  0
   -4.7260   -0.3305   -0.4107 N   0  0  0  0  0  0  0  0  0  0  0  0
   -3.4269   -0.7223   -0.6430 N   0  0  0  0  0  0  0  0  0  0  0  0
   -3.1201   -1.9454   -1.1960 C   0  0  0  0  0  0  0  0  0  0  0  0
   -3.9095   -2.8167   -1.5467 O   0  0  0  0  0  0  0  0  0  0  0  0
   -1.6661   -2.1694   -1.3635 C   0  0  0  0  0  0  0  0  0  0  0  0
   -0.7935   -1.2216   -0.9784 C   0  0  0  0  0  0  0  0  0  0  0  0
    0.6947   -1.4274   -1.1582 C   0  0  0  0  0  0  0  0  0  0  0  0
    1.4677   -1.9532    0.4114 S   0  0  0  0  0  0  0  0  0  0  0  0
    1.7650   -0.3151    1.1682 C   0  0  0  0  0  0  0  0  0  0  0  0
    2.8405    0.4709    0.4272 C   0  0  0  0  0  0  0  0  0  0  0  0
    2.6748    1.6550    0.1500 O   0  0  0  0  0  0  0  0  0  0  0  0
    3.9812   -0.2756    0.1768 N   0  0  0  0  0  0  0  0  0  0  0  0
    5.1706    0.1405   -0.4499 C   0  0  0  0  0  0  0  0  0  0  0  0
    6.1636   -0.8320   -0.6416 C   0  0  0  0  0  0  0  0  0  0  0  0
    7.3740   -0.5010   -1.2558 C   0  0  0  0  0  0  0  0  0  0  0  0
    7.5919    0.8034   -1.6774 C   0  0  0  0  0  0  0  0  0  0  0  0
    8.7514    1.1225   -2.2664 F   0  0  0  0  0  0  0  0  0  0  0  0
    6.6225    1.7801   -1.4948 C   0  0  0  0  0  0  0  0  0  0  0  0
    5.4107    1.4488   -0.8798 C   0  0  0  0  0  0  0  0  0  0  0  0
   -1.1761   -0.0080   -0.4431 N   0  0  0  0  0  0  0  0  0  0  0  0
   -2.4461    0.1699   -0.3033 C   0  0  0  0  0  0  0  0  0  0  0  0
   -3.1565    1.6066    0.3562 S   0  0  0  0  0  0  0  0  0  0  0  0
   -7.0044   -0.0085    3.4078 H   0  0  0  0  0  0  0  0  0  0  0  0
   -7.5781   -0.2797    1.7542 H   0  0  0  0  0  0  0  0  0  0  0  0
   -5.9088   -0.6893    2.1995 H   0  0  0  0  0  0  0  0  0  0  0  0
   -5.4131    1.7212    2.5980 H   0  0  0  0  0  0  0  0  0  0  0  0
   -7.0882    2.1363    2.2431 H   0  0  0  0  0  0  0  0  0  0  0  0
   -5.8242    2.6635    0.2675 H   0  0  0  0  0  0  0  0  0  0  0  0
   -6.7949    1.2406   -0.1094 H   0  0  0  0  0  0  0  0  0  0  0  0
   -1.3700   -3.1185   -1.7917 H   0  0  0  0  0  0  0  0  0  0  0  0
    0.8843   -2.2215   -1.8894 H   0  0  0  0  0  0  0  0  0  0  0  0
    1.1723   -0.5251   -1.5536 H   0  0  0  0  0  0  0  0  0  0  0  0
    0.8404    0.2649    1.2080 H   0  0  0  0  0  0  0  0  0  0  0  0
    2.1068   -0.4662    2.1974 H   0  0  0  0  0  0  0  0  0  0  0  0
    3.9179   -1.2579    0.4265 H   0  0  0  0  0  0  0  0  0  0  0  0
    6.0096   -1.8580   -0.3169 H   0  0  0  0  0  0  0  0  0  0  0  0
    8.1446   -1.2500   -1.4065 H   0  0  0  0  0  0  0  0  0  0  0  0
    6.8103    2.7955   -1.8293 H   0  0  0  0  0  0  0  0  0  0  0  0
    4.6766    2.2380   -0.7502 H   0  0  0  0  0  0  0  0  0  0  0  0
  1  2  1  0
  2  3  1  0
  3  4  1  0
  4  5  2  0
  5  6  1  0
  6  7  1  0
  7  8  2  0
  7  9  1  0
  9 10  2  0
 10 11  1  0
 11 12  1  0
 12 13  1  0
 13 14  1  0
 14 15  2  0
 14 16  1  0
 16 17  1  0
 17 18  2  0
 18 19  1  0
 19 20  2  0
 20 21  1  0
 20 22  1  0
 22 23  2  0
 10 24  1  0
 24 25  2  0
 25 26  1  0
 26  4  1  0
 25  6  1  0
 23 17  1  0
  1 27  1  0
  1 28  1  0
  1 29  1  0
  2 30  1  0
  2 31  1  0
  3 32  1  0
  3 33  1  0
  9 34  1  0
 11 35  1  0
 11 36  1  0
 13 37  1  0
 13 38  1  0
 16 39  1  0
 18 40  1  0
 19 41  1  0
 22 42  1  0
 23 43  1  0
M  END
$$$$
