
     RDKit          3D

 57 61  0  0  0  0  0  0  0  0999 V2000
   -9.0160   -1.4339    2.2922 C   0  0  0  0  0  0  0  0  0  0  0  0
   -7.7349   -1.0223    1.6309 C   0  0  0  0  0  0  0  0  0  0  0  0
   -7.7073   -0.6931    0.2744 C   0  0  0  0  0  0  0  0  0  0  0  0
   -6.5029   -0.3400   -0.3446 C   0  0  0  0  0  0  0  0  0  0  0  0
   -5.2865   -0.3185    0.3622 C   0  0  0  0  0  0  0  0  0  0  0  0
   -4.0266    0.0520   -0.3182 C   0  0  0  0  0  0  0  0  0  0  0  0
   -2.7880   -0.4329    0.0629 C   0  0  0  0  0  0  0  0  0  0  0  0
   -1.6603   -0.0085   -0.6414 C   0  0  0  0  0  0  0  0  0  0  0  0
   -0.3567   -0.5098   -0.1501 C   0  0  0  0  0  0  0  0  0  0  0  0
   -0.1846   -1.7199   -0.1101 O   0  0  0  0  0  0  0  0  0  0  0  0
    0.5062    0.4875    0.2619 N   0  0  0  0  0  0  0  0  0  0  0  0
    1.8111    0.3331    0.7721 C   0  0  0  0  0  0  0  0  0  0  0  0
    2.4451   -0.9023    0.9289 C   0  0  0  0  0  0  0  0  0  0  0  0
    3.7461   -0.9742    1.4389 C   0  0  0  0  0  0  0  0  0  0  0  0
    4.4219    0.1979    1.7797 C   0  0  0  0  0  0  0  0  0  0  0  0
    6.0619    0.1188    2.4578 S   0  0  0  0  0  6  0  0  0  0  0  0
    6.1135    1.1143    3.5118 O   0  0  0  0  0  0  0  0  0  0  0  0
    6.3994   -1.2587    2.7468 O   0  0  0  0  0  0  0  0  0  0  0  0
    7.0261    0.7036    1.2377 N   0  0  0  0  0  0  0  0  0  0  0  0
    7.3892   -0.1869    0.2353 C   0  0  0  0  0  0  0  0  0  0  0  0
    6.4501   -0.9441   -0.3328 N   0  0  0  0  0  0  0  0  0  0  0  0
    6.8516   -1.6706   -1.3912 C   0  0  0  0  0  0  0  0  0  0  0  0
    8.1263   -1.6190   -1.9051 C   0  0  0  0  0  0  0  0  0  0  0  0
    8.9879   -0.7560   -1.2679 C   0  0  0  0  0  0  0  0  0  0  0  0
    8.6388   -0.0079   -0.2045 N   0  0  0  0  0  0  0  0  0  0  0  0
    3.7977    1.4389    1.6413 C   0  0  0  0  0  0  0  0  0  0  0  0
    2.4966    1.5019    1.1347 C   0  0  0  0  0  0  0  0  0  0  0  0
   -1.7687    0.8552   -1.7514 C   0  0  0  0  0  0  0  0  0  0  0  0
   -0.6875    1.2796   -2.5673 C   0  0  0  0  0  0  0  0  0  0  0  0
   -0.8936    2.1445   -3.6401 C   0  0  0  0  0  0  0  0  0  0  0  0
   -2.1771    2.5902   -3.9190 C   0  0  0  0  0  0  0  0  0  0  0  0
   -3.2458    2.1584   -3.1301 C   0  0  0  0  0  0  0  0  0  0  0  0
   -3.0680    1.2940   -2.0581 C   0  0  0  0  0  0  0  0  0  0  0  0
   -4.1514    0.9123   -1.3609 N   0  0  0  0  0  0  0  0  0  0  0  0
   -5.3341   -0.6593    1.7260 C   0  0  0  0  0  0  0  0  0  0  0  0
   -6.5372   -1.0126    2.3500 C   0  0  0  0  0  0  0  0  0  0  0  0
   -9.1170   -2.5232    2.2666 H   0  0  0  0  0  0  0  0  0  0  0  0
   -9.8796   -0.9881    1.7877 H   0  0  0  0  0  0  0  0  0  0  0  0
   -9.0402   -1.0989    3.3345 H   0  0  0  0  0  0  0  0  0  0  0  0
   -8.6207   -0.7057   -0.3157 H   0  0  0  0  0  0  0  0  0  0  0  0
   -6.5170   -0.0831   -1.4032 H   0  0  0  0  0  0  0  0  0  0  0  0
   -2.6801   -1.1357    0.8829 H   0  0  0  0  0  0  0  0  0  0  0  0
    0.1608    1.4389    0.2100 H   0  0  0  0  0  0  0  0  0  0  0  0
    1.9540   -1.8340    0.6647 H   0  0  0  0  0  0  0  0  0  0  0  0
    4.2237   -1.9449    1.5542 H   0  0  0  0  0  0  0  0  0  0  0  0
    7.8033    1.2608    1.5720 H   0  0  0  0  0  0  0  0  0  0  0  0
    6.0919   -2.3111   -1.8305 H   0  0  0  0  0  0  0  0  0  0  0  0
    8.4280   -2.2106   -2.7583 H   0  0  0  0  0  0  0  0  0  0  0  0
   10.0128   -0.6338   -1.6068 H   0  0  0  0  0  0  0  0  0  0  0  0
    4.3137    2.3527    1.9266 H   0  0  0  0  0  0  0  0  0  0  0  0
    2.0281    2.4775    1.0316 H   0  0  0  0  0  0  0  0  0  0  0  0
    0.3245    0.9217   -2.3858 H   0  0  0  0  0  0  0  0  0  0  0  0
   -0.0571    2.4596   -4.2590 H   0  0  0  0  0  0  0  0  0  0  0  0
   -2.3563    3.2629   -4.7539 H   0  0  0  0  0  0  0  0  0  0  0  0
   -4.2516    2.5023   -3.3633 H   0  0  0  0  0  0  0  0  0  0  0  0
   -4.4336   -0.6435    2.3353 H   0  0  0  0  0  0  0  0  0  0  0  0
   -6.5300   -1.2757    3.4056 H   0  0  0  0  0  0  0  0  0  0  0  0
  1  2  1  0
  2  3  2  0
  3  4  1  0
  4  5  2  0
  5  6  1  0
  6  7  2  0
  7  8  1  0
  8  9  1  0
  9 10  2  0
  9 11  1  0
 11 12  1  0
 12 13  2  0
 13 14  1  0
 14 15  2  0
 15 16  1  0
 16 17  2  0
 16 18  2  0
 16 19  1  0
 19 20  1  0
 20 21  2  0
 21 22  1  0
 22 23  2  0
 23 24  1  0
 24 25  2  0
 15 26  1  0
 26 27  2  0
  8 28  2  0
 28 29  1  0
 29 30  2  0
 30 31  1  0
 31 32  2  0
 32 33  1  0
 33 34  2  0
  5 35  1  0
 35 36  2  0
 36  2  1  0
 34  6  1  0
 27 12  1  0
 33 28  1  0
 25 20  1  0
  1 37  1  0
  1 38  1  0
  1 39  1  0
  3 40  1  0
  4 41  1  0
  7 42  1  0
 11 43  1  0
 13 44  1  0
 14 45  1  0
 19 46  1  0
 22 47  1  0
 23 48  1  0
 24 49  1  0
 26 50  1  0
 27 51  1  0
 29 52  1  0
 30 53  1  0
 31 54  1  0
 32 55  1  0
 35 56  1  0
 36 57  1  0
M  END
$$$$
