
     RDKit          3D

 43 44  0  0  0  0  0  0  0  0999 V2000
    6.0131   -1.1650   -0.2194 C   0  0  0  0  0  0  0  0  0  0  0  0
    4.5613   -1.4887    0.0803 C   0  0  0  0  0  0  0  0  0  0  0  0
    3.7684   -0.2930    0.0397 O   0  0  0  0  0  0  0  0  0  0  0  0
    3.7071    0.4231    1.2010 C   0  0  0  0  0  0  0  0  0  0  0  0
    4.2954    0.1366    2.2361 O   0  0  0  0  0  0  0  0  0  0  0  0
    2.7994    1.6398    1.0549 C   0  0  0  0  0  0  0  0  0  0  0  0
    2.1967    1.7716   -0.2633 N   0  0  0  0  0  0  0  0  0  0  0  0
    1.2576    2.7469   -0.5108 C   0  0  0  0  0  0  0  0  0  0  0  0
    0.9787    3.6207    0.3060 O   0  0  0  0  0  0  0  0  0  0  0  0
    0.5756    2.6427   -1.8642 C   0  0  0  0  0  0  0  0  0  0  0  0
   -1.0292    1.8059   -1.6957 S   0  0  0  0  0  0  0  0  0  0  0  0
   -0.5254    0.1876   -1.3278 C   0  0  0  0  0  0  0  0  0  0  0  0
    0.6500   -0.3114   -1.6466 N   0  0  0  0  0  0  0  0  0  0  0  0
    0.7847   -1.4555   -0.9122 N   0  0  0  0  0  0  0  0  0  0  0  0
   -0.2716   -1.6530   -0.1388 N   0  0  0  0  0  0  0  0  0  0  0  0
   -1.1729   -0.6868   -0.4677 N   0  0  0  0  0  0  0  0  0  0  0  0
   -2.4570   -0.6643    0.1307 C   0  0  0  0  0  0  0  0  0  0  0  0
   -2.5288   -1.0366    1.4901 C   0  0  0  0  0  0  0  0  0  0  0  0
   -3.7387   -0.9826    2.1925 C   0  0  0  0  0  0  0  0  0  0  0  0
   -3.7854   -1.3167    3.6547 C   0  0  0  0  0  0  0  0  0  0  0  0
   -4.8843   -0.5463    1.5276 C   0  0  0  0  0  0  0  0  0  0  0  0
   -4.8332   -0.2302    0.1681 C   0  0  0  0  0  0  0  0  0  0  0  0
   -3.6324   -0.3152   -0.5621 C   0  0  0  0  0  0  0  0  0  0  0  0
   -3.7357   -0.1056   -2.0482 C   0  0  0  0  0  0  0  0  0  0  0  0
    6.6148   -2.0781   -0.2486 H   0  0  0  0  0  0  0  0  0  0  0  0
    6.1021   -0.6511   -1.1822 H   0  0  0  0  0  0  0  0  0  0  0  0
    6.4311   -0.4962    0.5397 H   0  0  0  0  0  0  0  0  0  0  0  0
    4.1672   -2.1590   -0.6901 H   0  0  0  0  0  0  0  0  0  0  0  0
    4.4536   -2.0038    1.0419 H   0  0  0  0  0  0  0  0  0  0  0  0
    3.3829    2.5445    1.2488 H   0  0  0  0  0  0  0  0  0  0  0  0
    1.9902    1.5553    1.7883 H   0  0  0  0  0  0  0  0  0  0  0  0
    2.1966    0.9349   -0.8467 H   0  0  0  0  0  0  0  0  0  0  0  0
    0.4107    3.6579   -2.2405 H   0  0  0  0  0  0  0  0  0  0  0  0
    1.2139    2.1288   -2.5900 H   0  0  0  0  0  0  0  0  0  0  0  0
   -1.6287   -1.3377    2.0269 H   0  0  0  0  0  0  0  0  0  0  0  0
   -3.0477   -2.0886    3.9013 H   0  0  0  0  0  0  0  0  0  0  0  0
   -4.7700   -1.7074    3.9356 H   0  0  0  0  0  0  0  0  0  0  0  0
   -3.5759   -0.4221    4.2502 H   0  0  0  0  0  0  0  0  0  0  0  0
   -5.8326   -0.4681    2.0559 H   0  0  0  0  0  0  0  0  0  0  0  0
   -5.7569    0.0611   -0.3314 H   0  0  0  0  0  0  0  0  0  0  0  0
   -4.6447   -0.5846   -2.4314 H   0  0  0  0  0  0  0  0  0  0  0  0
   -2.9068   -0.5694   -2.5904 H   0  0  0  0  0  0  0  0  0  0  0  0
   -3.7930    0.9597   -2.2845 H   0  0  0  0  0  0  0  0  0  0  0  0
  1  2  1  0
  2  3  1  0
  3  4  1  0
  4  5  2  0
  4  6  1  0
  6  7  1  0
  7  8  1  0
  8  9  2  0
  8 10  1  0
 10 11  1  0
 11 12  1  0
 12 13  2  0
 13 14  1  0
 14 15  2  0
 15 16  1  0
 16 17  1  0
 17 18  2  0
 18 19  1  0
 19 20  1  0
 19 21  2  0
 21 22  1  0
 22 23  2  0
 23 24  1  0
 16 12  1  0
 23 17  1  0
  1 25  1  0
  1 26  1  0
  1 27  1  0
  2 28  1  0
  2 29  1  0
  6 30  1  0
  6 31  1  0
  7 32  1  0
 10 33  1  0
 10 34  1  0
 18 35  1  0
 20 36  1  0
 20 37  1  0
 20 38  1  0
 21 39  1  0
 22 40  1  0
 24 41  1  0
 24 42  1  0
 24 43  1  0
M  END
$$$$
