
     RDKit          3D

 54 56  0  0  0  0  0  0  0  0999 V2000
   -8.6669    0.7340   -1.3312 C   0  0  0  0  0  0  0  0  0  0  0  0
   -7.6848    1.0075   -0.2020 C   0  0  0  0  0  0  0  0  0  0  0  0
   -6.2763    0.5247   -0.5617 C   0  0  0  0  0  0  0  0  0  0  0  0
   -5.2980    0.7584    0.5891 C   0  0  0  0  0  0  0  0  0  0  0  0
   -3.9816    0.2360    0.2730 N   0  0  0  0  0  0  0  0  0  0  0  0
   -3.0672    0.9759   -0.4515 C   0  0  0  0  0  0  0  0  0  0  0  0
   -3.2830    2.1291   -0.8176 O   0  0  0  0  0  0  0  0  0  0  0  0
   -1.7768    0.2204   -0.7774 C   0  0  0  0  0  0  0  0  0  0  0  0
   -0.8804    1.0622   -1.6984 C   0  0  0  0  0  0  0  0  0  0  0  0
    0.4425    0.3664   -2.0017 C   0  0  0  0  0  0  0  0  0  0  0  0
    1.1996   -0.0049   -0.7161 C   0  0  0  0  0  0  0  0  0  0  0  0
    2.5184   -0.7026   -1.0913 C   0  0  0  0  0  0  0  0  0  0  0  0
    3.2927   -1.0981    0.0803 N   0  0  0  0  0  0  0  0  0  0  0  0
    4.3434   -0.3740    0.6335 C   0  0  0  0  0  0  0  0  0  0  0  0
    4.2679    0.9954    0.6189 N   0  0  0  0  0  0  0  0  0  0  0  0
    5.1856    1.8548    1.1623 C   0  0  0  0  0  0  0  0  0  0  0  0
    4.8352    3.4952    1.1156 S   0  0  0  0  0  0  0  0  0  0  0  0
    6.3258    1.3348    1.7114 N   0  0  0  0  0  0  0  0  0  0  0  0
    6.4428    0.0456    1.7371 C   0  0  0  0  0  0  0  0  0  0  0  0
    7.6777   -0.5392    2.3300 C   0  0  0  0  0  0  0  0  0  0  0  0
    7.8514   -1.8676    2.3886 C   0  0  0  0  0  0  0  0  0  0  0  0
    6.8620   -2.7929    1.8963 C   0  0  0  0  0  0  0  0  0  0  0  0
    5.7189   -2.3621    1.3460 C   0  0  0  0  0  0  0  0  0  0  0  0
    5.4342   -0.9381    1.2130 C   0  0  0  0  0  0  0  0  0  0  0  0
    0.3067   -0.8683    0.1909 C   0  0  0  0  0  0  0  0  0  0  0  0
   -1.0228   -0.1743    0.5000 C   0  0  0  0  0  0  0  0  0  0  0  0
   -8.6664   -0.3239   -1.6043 H   0  0  0  0  0  0  0  0  0  0  0  0
   -9.6786    1.0016   -1.0235 H   0  0  0  0  0  0  0  0  0  0  0  0
   -8.4139    1.3132   -2.2244 H   0  0  0  0  0  0  0  0  0  0  0  0
   -8.0325    0.5002    0.7105 H   0  0  0  0  0  0  0  0  0  0  0  0
   -7.6693    2.0864    0.0125 H   0  0  0  0  0  0  0  0  0  0  0  0
   -5.9245    1.0486   -1.4640 H   0  0  0  0  0  0  0  0  0  0  0  0
   -6.3001   -0.5485   -0.8082 H   0  0  0  0  0  0  0  0  0  0  0  0
   -5.2188    1.8309    0.8123 H   0  0  0  0  0  0  0  0  0  0  0  0
   -5.6382    0.2432    1.4966 H   0  0  0  0  0  0  0  0  0  0  0  0
   -3.8104   -0.7519    0.4236 H   0  0  0  0  0  0  0  0  0  0  0  0
   -2.0657   -0.6926   -1.3178 H   0  0  0  0  0  0  0  0  0  0  0  0
   -1.4023    1.2678   -2.6419 H   0  0  0  0  0  0  0  0  0  0  0  0
   -0.6755    2.0393   -1.2382 H   0  0  0  0  0  0  0  0  0  0  0  0
    0.2464   -0.5386   -2.5940 H   0  0  0  0  0  0  0  0  0  0  0  0
    1.0612    1.0259   -2.6246 H   0  0  0  0  0  0  0  0  0  0  0  0
    1.4260    0.9228   -0.1747 H   0  0  0  0  0  0  0  0  0  0  0  0
    3.1202   -0.0542   -1.7407 H   0  0  0  0  0  0  0  0  0  0  0  0
    2.3016   -1.6054   -1.6761 H   0  0  0  0  0  0  0  0  0  0  0  0
    3.4396   -2.1023    0.1108 H   0  0  0  0  0  0  0  0  0  0  0  0
    3.4326    1.4322    0.2452 H   0  0  0  0  0  0  0  0  0  0  0  0
    8.4162    0.1598    2.7040 H   0  0  0  0  0  0  0  0  0  0  0  0
    8.7558   -2.2821    2.8206 H   0  0  0  0  0  0  0  0  0  0  0  0
    7.0705   -3.8562    1.9882 H   0  0  0  0  0  0  0  0  0  0  0  0
    5.0026   -3.0935    0.9937 H   0  0  0  0  0  0  0  0  0  0  0  0
    0.1104   -1.8363   -0.2900 H   0  0  0  0  0  0  0  0  0  0  0  0
    0.8169   -1.0816    1.1382 H   0  0  0  0  0  0  0  0  0  0  0  0
   -1.6343   -0.8434    1.1185 H   0  0  0  0  0  0  0  0  0  0  0  0
   -0.8366    0.7204    1.1107 H   0  0  0  0  0  0  0  0  0  0  0  0
  1  2  1  0
  2  3  1  0
  3  4  1  0
  4  5  1  0
  5  6  1  0
  6  7  2  0
  6  8  1  0
  8  9  1  0
  9 10  1  0
 10 11  1  0
 11 12  1  0
 12 13  1  0
 13 14  1  0
 14 15  1  0
 15 16  1  0
 16 17  2  0
 16 18  1  0
 18 19  2  0
 19 20  1  0
 20 21  2  0
 21 22  1  0
 22 23  2  0
 23 24  1  0
 11 25  1  0
 25 26  1  0
 26  8  1  0
 24 14  2  0
 24 19  1  0
  1 27  1  0
  1 28  1  0
  1 29  1  0
  2 30  1  0
  2 31  1  0
  3 32  1  0
  3 33  1  0
  4 34  1  0
  4 35  1  0
  5 36  1  0
  8 37  1  0
  9 38  1  0
  9 39  1  0
 10 40  1  0
 10 41  1  0
 11 42  1  0
 12 43  1  0
 12 44  1  0
 13 45  1  0
 15 46  1  0
 20 47  1  0
 21 48  1  0
 22 49  1  0
 23 50  1  0
 25 51  1  0
 25 52  1  0
 26 53  1  0
 26 54  1  0
M  END
$$$$
