
     RDKit          3D

 49 52  0  0  0  0  0  0  0  0999 V2000
    4.8041   -3.6236   -0.3984 C   0  0  0  0  0  0  0  0  0  0  0  0
    5.3067   -2.2657   -0.8641 C   0  0  0  0  0  0  0  0  0  0  0  0
    4.4011   -1.1488   -0.4144 C   0  0  0  0  0  0  0  0  0  0  0  0
    3.3225   -0.7412   -1.2080 C   0  0  0  0  0  0  0  0  0  0  0  0
    2.4670    0.2849   -0.7840 C   0  0  0  0  0  0  0  0  0  0  0  0
    2.6634    0.9261    0.4445 C   0  0  0  0  0  0  0  0  0  0  0  0
    1.8071    2.0122    0.9506 C   0  0  0  0  0  0  0  0  0  0  0  0
    0.6491    2.5462    0.1356 C   0  0  0  0  0  0  0  0  0  0  0  0
   -0.4464    1.5860   -0.0609 N   0  0  0  0  0  0  0  0  0  0  0  0
   -1.1107    1.2433    1.2079 C   0  0  0  0  0  0  0  0  0  0  0  0
   -2.3811    0.4597    1.0298 C   0  0  0  0  0  0  0  0  0  0  0  0
   -3.0162    0.3387   -0.1501 C   0  0  0  0  0  0  0  0  0  0  0  0
   -4.2474   -0.4617   -0.2703 C   0  0  0  0  0  0  0  0  0  0  0  0
   -4.2626   -1.8034    0.1381 C   0  0  0  0  0  0  0  0  0  0  0  0
   -5.4232   -2.5722    0.0207 C   0  0  0  0  0  0  0  0  0  0  0  0
   -6.5824   -2.0078   -0.5066 C   0  0  0  0  0  0  0  0  0  0  0  0
   -6.5815   -0.6762   -0.9164 C   0  0  0  0  0  0  0  0  0  0  0  0
   -5.4200    0.0924   -0.7998 C   0  0  0  0  0  0  0  0  0  0  0  0
   -2.4886    1.0469   -1.3722 C   0  0  0  0  0  0  0  0  0  0  0  0
   -1.4287    2.1075   -1.0239 C   0  0  0  0  0  0  0  0  0  0  0  0
    2.1101    2.5473    2.1440 C   0  0  0  0  0  0  0  0  0  0  0  0
    3.2299    2.0953    2.9807 C   0  0  0  0  0  0  0  0  0  0  0  0
    3.4424    2.6171    4.0695 O   0  0  0  0  0  0  0  0  0  0  0  0
    4.0155    1.0753    2.4802 O   0  0  0  0  0  0  0  0  0  0  0  0
    3.7389    0.4987    1.2255 C   0  0  0  0  0  0  0  0  0  0  0  0
    4.6020   -0.5215    0.8176 C   0  0  0  0  0  0  0  0  0  0  0  0
    5.4801   -4.4144   -0.7388 H   0  0  0  0  0  0  0  0  0  0  0  0
    4.7472   -3.6729    0.6943 H   0  0  0  0  0  0  0  0  0  0  0  0
    3.8060   -3.8358   -0.7965 H   0  0  0  0  0  0  0  0  0  0  0  0
    5.3892   -2.2560   -1.9578 H   0  0  0  0  0  0  0  0  0  0  0  0
    6.3207   -2.0948   -0.4822 H   0  0  0  0  0  0  0  0  0  0  0  0
    3.1327   -1.2240   -2.1648 H   0  0  0  0  0  0  0  0  0  0  0  0
    1.6386    0.5564   -1.4335 H   0  0  0  0  0  0  0  0  0  0  0  0
    1.0520    2.8511   -0.8402 H   0  0  0  0  0  0  0  0  0  0  0  0
    0.2576    3.4695    0.5858 H   0  0  0  0  0  0  0  0  0  0  0  0
   -0.4327    0.6311    1.8139 H   0  0  0  0  0  0  0  0  0  0  0  0
   -1.3502    2.1450    1.7863 H   0  0  0  0  0  0  0  0  0  0  0  0
   -2.7772   -0.0150    1.9239 H   0  0  0  0  0  0  0  0  0  0  0  0
   -3.3630   -2.2635    0.5411 H   0  0  0  0  0  0  0  0  0  0  0  0
   -5.4190   -3.6113    0.3387 H   0  0  0  0  0  0  0  0  0  0  0  0
   -7.4857   -2.6052   -0.5978 H   0  0  0  0  0  0  0  0  0  0  0  0
   -7.4860   -0.2328   -1.3245 H   0  0  0  0  0  0  0  0  0  0  0  0
   -5.4477    1.1330   -1.1120 H   0  0  0  0  0  0  0  0  0  0  0  0
   -2.0470    0.2986   -2.0432 H   0  0  0  0  0  0  0  0  0  0  0  0
   -3.2925    1.5436   -1.9263 H   0  0  0  0  0  0  0  0  0  0  0  0
   -1.9184    3.0078   -0.6279 H   0  0  0  0  0  0  0  0  0  0  0  0
   -0.9292    2.3977   -1.9567 H   0  0  0  0  0  0  0  0  0  0  0  0
    1.5309    3.3573    2.5727 H   0  0  0  0  0  0  0  0  0  0  0  0
    5.4225   -0.8211    1.4646 H   0  0  0  0  0  0  0  0  0  0  0  0
  1  2  1  0
  2  3  1  0
  3  4  2  0
  4  5  1  0
  5  6  2  0
  6  7  1  0
  7  8  1  0
  8  9  1  0
  9 10  1  0
 10 11  1  0
 11 12  2  0
 12 13  1  0
 13 14  2  0
 14 15  1  0
 15 16  2  0
 16 17  1  0
 17 18  2  0
 12 19  1  0
 19 20  1  0
  7 21  2  0
 21 22  1  0
 22 23  2  0
 22 24  1  0
 24 25  1  0
 25 26  2  0
 26  3  1  0
 25  6  1  0
 20  9  1  0
 18 13  1  0
  1 27  1  0
  1 28  1  0
  1 29  1  0
  2 30  1  0
  2 31  1  0
  4 32  1  0
  5 33  1  0
  8 34  1  0
  8 35  1  0
 10 36  1  0
 10 37  1  0
 11 38  1  0
 14 39  1  0
 15 40  1  0
 16 41  1  0
 17 42  1  0
 18 43  1  0
 19 44  1  0
 19 45  1  0
 20 46  1  0
 20 47  1  0
 21 48  1  0
 26 49  1  0
M  END
$$$$
