
     RDKit          3D

 46 48  0  0  0  0  0  0  0  0999 V2000
   -2.9098    1.1061    0.4322 C   0  0  0  0  0  0  0  0  0  0  0  0
   -3.4144    0.3994   -0.8013 C   0  0  0  0  0  0  0  0  0  0  0  0
   -4.7257    0.1579   -1.0141 C   0  0  0  0  0  0  0  0  0  0  0  0
   -5.8133    0.4325   -0.0673 C   0  0  0  0  0  0  0  0  0  0  0  0
   -6.8279    1.3272   -0.4248 C   0  0  0  0  0  0  0  0  0  0  0  0
   -7.8809    1.5863    0.4553 C   0  0  0  0  0  0  0  0  0  0  0  0
   -7.9291    0.9477    1.6936 C   0  0  0  0  0  0  0  0  0  0  0  0
   -6.9269    0.0476    2.0525 C   0  0  0  0  0  0  0  0  0  0  0  0
   -5.8738   -0.2128    1.1735 C   0  0  0  0  0  0  0  0  0  0  0  0
   -2.4744    0.0891   -1.8752 C   0  0  0  0  0  0  0  0  0  0  0  0
   -1.1897   -0.2987   -1.8339 C   0  0  0  0  0  0  0  0  0  0  0  0
   -0.2758   -0.5266   -3.3024 S   0  0  0  0  0  0  0  0  0  0  0  0
    1.2112   -0.9260   -2.4540 C   0  0  0  0  0  0  0  0  0  0  0  0
    2.6434   -1.2861   -3.2241 S   0  0  0  0  0  0  0  0  0  0  0  0
    0.9545   -0.9116   -1.1033 N   0  0  0  0  0  0  0  0  0  0  0  0
    2.0312   -1.1677   -0.0588 N   0  0  0  0  0  0  0  0  0  0  0  0
    2.7201    0.2810    0.5408 S   0  0  0  0  0  6  0  0  0  0  0  0
    2.3635    0.3564    1.9402 O   0  0  0  0  0  0  0  0  0  0  0  0
    2.4071    1.3496   -0.3852 O   0  0  0  0  0  0  0  0  0  0  0  0
    4.4505   -0.0846    0.4331 C   0  0  0  0  0  0  0  0  0  0  0  0
    5.0714   -0.7801    1.4742 C   0  0  0  0  0  0  0  0  0  0  0  0
    6.4388   -1.0511    1.4013 C   0  0  0  0  0  0  0  0  0  0  0  0
    7.1923   -0.6136    0.3036 C   0  0  0  0  0  0  0  0  0  0  0  0
    8.6549   -0.9376    0.2123 C   0  0  0  0  0  0  0  0  0  0  0  0
    6.5560    0.0848   -0.7317 C   0  0  0  0  0  0  0  0  0  0  0  0
    5.1894    0.3614   -0.6643 C   0  0  0  0  0  0  0  0  0  0  0  0
   -0.3283   -0.6343   -0.6626 C   0  0  0  0  0  0  0  0  0  0  0  0
   -0.6841   -0.7277    0.5029 O   0  0  0  0  0  0  0  0  0  0  0  0
   -1.9884    1.6630    0.2303 H   0  0  0  0  0  0  0  0  0  0  0  0
   -2.7283    0.3954    1.2433 H   0  0  0  0  0  0  0  0  0  0  0  0
   -3.6300    1.8485    0.7937 H   0  0  0  0  0  0  0  0  0  0  0  0
   -5.0659   -0.2905   -1.9462 H   0  0  0  0  0  0  0  0  0  0  0  0
   -6.8016    1.8338   -1.3865 H   0  0  0  0  0  0  0  0  0  0  0  0
   -8.6629    2.2869    0.1745 H   0  0  0  0  0  0  0  0  0  0  0  0
   -8.7483    1.1499    2.3786 H   0  0  0  0  0  0  0  0  0  0  0  0
   -6.9649   -0.4536    3.0162 H   0  0  0  0  0  0  0  0  0  0  0  0
   -5.1021   -0.9226    1.4626 H   0  0  0  0  0  0  0  0  0  0  0  0
   -2.9199    0.2021   -2.8671 H   0  0  0  0  0  0  0  0  0  0  0  0
    1.6295   -1.6514    0.7554 H   0  0  0  0  0  0  0  0  0  0  0  0
    4.5048   -1.1112    2.3415 H   0  0  0  0  0  0  0  0  0  0  0  0
    6.9166   -1.6017    2.2094 H   0  0  0  0  0  0  0  0  0  0  0  0
    9.1886   -0.1797   -0.3705 H   0  0  0  0  0  0  0  0  0  0  0  0
    8.7924   -1.9125   -0.2653 H   0  0  0  0  0  0  0  0  0  0  0  0
    9.1113   -0.9622    1.2075 H   0  0  0  0  0  0  0  0  0  0  0  0
    7.1236    0.4208   -1.5974 H   0  0  0  0  0  0  0  0  0  0  0  0
    4.7154    0.9163   -1.4709 H   0  0  0  0  0  0  0  0  0  0  0  0
  1  2  1  0
  2  3  2  3
  3  4  1  0
  4  5  2  0
  5  6  1  0
  6  7  2  0
  7  8  1  0
  8  9  2  0
  2 10  1  0
 10 11  2  3
 11 12  1  0
 12 13  1  0
 13 14  2  0
 13 15  1  0
 15 16  1  0
 16 17  1  0
 17 18  2  0
 17 19  2  0
 17 20  1  0
 20 21  2  0
 21 22  1  0
 22 23  2  0
 23 24  1  0
 23 25  1  0
 25 26  2  0
 15 27  1  0
 27 28  2  0
  9  4  1  0
 27 11  1  0
 26 20  1  0
  1 29  1  0
  1 30  1  0
  1 31  1  0
  3 32  1  0
  5 33  1  0
  6 34  1  0
  7 35  1  0
  8 36  1  0
  9 37  1  0
 10 38  1  0
 16 39  1  0
 21 40  1  0
 22 41  1  0
 24 42  1  0
 24 43  1  0
 24 44  1  0
 25 45  1  0
 26 46  1  0
M  END
$$$$
