
     RDKit          3D

 45 49  0  0  0  0  0  0  0  0999 V2000
    1.5982   -1.9871    2.3079 O   0  0  0  0  0  0  0  0  0  0  0  0
    0.8182   -1.7374    1.3923 C   0  0  0  0  0  0  0  0  0  0  0  0
   -0.4958   -2.4500    1.2183 C   0  0  0  0  0  0  0  0  0  0  0  0
   -1.5226   -1.6275    0.6000 N   0  0  0  0  0  0  0  0  0  0  0  0
   -2.0085   -1.7919   -0.6893 C   0  0  0  0  0  0  0  0  0  0  0  0
   -1.5484   -2.7391   -1.4930 O   0  0  0  0  0  0  0  0  0  0  0  0
   -2.9536   -0.8243   -0.8585 C   0  0  0  0  0  0  0  0  0  0  0  0
   -3.0443   -0.0662    0.3300 C   0  0  0  0  0  0  0  0  0  0  0  0
   -2.1544   -0.5651    1.2329 C   0  0  0  0  0  0  0  0  0  0  0  0
   -1.8414   -0.2134    2.4709 O   0  0  0  0  0  0  0  0  0  0  0  0
   -4.0830    0.9861    0.1048 C   0  0  0  0  0  0  0  0  0  0  0  0
   -5.4618    0.2825    0.0142 C   0  0  0  0  0  0  0  0  0  0  0  0
   -5.3618   -0.5571   -1.3019 C   0  0  0  0  0  0  0  0  0  0  0  0
   -3.9362   -0.2458   -1.8267 C   0  0  0  0  0  0  0  0  0  0  0  0
   -3.8461    1.2616   -1.4171 C   0  0  0  0  0  0  0  0  0  0  0  0
    1.0577   -0.8571    0.3406 O   0  0  0  0  0  0  0  0  0  0  0  0
    2.2437   -0.1202    0.4264 C   0  0  0  0  0  0  0  0  0  0  0  0
    2.4261    0.8219    1.4340 C   0  0  0  0  0  0  0  0  0  0  0  0
    3.5989    1.5769    1.4551 C   0  0  0  0  0  0  0  0  0  0  0  0
    4.5811    1.4065    0.4636 C   0  0  0  0  0  0  0  0  0  0  0  0
    5.7658    2.1599    0.4726 C   0  0  0  0  0  0  0  0  0  0  0  0
    6.7309    1.9848   -0.5206 C   0  0  0  0  0  0  0  0  0  0  0  0
    6.5247    1.0553   -1.5359 C   0  0  0  0  0  0  0  0  0  0  0  0
    5.3531    0.2971   -1.5607 C   0  0  0  0  0  0  0  0  0  0  0  0
    4.3726    0.4592   -0.5686 C   0  0  0  0  0  0  0  0  0  0  0  0
    3.1908   -0.2966   -0.5803 C   0  0  0  0  0  0  0  0  0  0  0  0
   -0.8784   -2.7491    2.2001 H   0  0  0  0  0  0  0  0  0  0  0  0
   -0.3376   -3.3489    0.6162 H   0  0  0  0  0  0  0  0  0  0  0  0
   -2.0298   -2.6483   -2.3350 H   0  0  0  0  0  0  0  0  0  0  0  0
   -2.4107    0.5434    2.6997 H   0  0  0  0  0  0  0  0  0  0  0  0
   -4.0320    1.8567    0.7582 H   0  0  0  0  0  0  0  0  0  0  0  0
   -6.2706    1.0165   -0.0741 H   0  0  0  0  0  0  0  0  0  0  0  0
   -5.6646   -0.3574    0.8798 H   0  0  0  0  0  0  0  0  0  0  0  0
   -5.5136   -1.6240   -1.1058 H   0  0  0  0  0  0  0  0  0  0  0  0
   -6.1232   -0.2217   -2.0150 H   0  0  0  0  0  0  0  0  0  0  0  0
   -3.7557   -0.4631   -2.8792 H   0  0  0  0  0  0  0  0  0  0  0  0
   -4.6232    1.8845   -1.8734 H   0  0  0  0  0  0  0  0  0  0  0  0
   -2.8578    1.6939   -1.6177 H   0  0  0  0  0  0  0  0  0  0  0  0
    1.6706    0.9660    2.2006 H   0  0  0  0  0  0  0  0  0  0  0  0
    3.7421    2.3023    2.2526 H   0  0  0  0  0  0  0  0  0  0  0  0
    5.9458    2.8911    1.2575 H   0  0  0  0  0  0  0  0  0  0  0  0
    7.6436    2.5746   -0.4999 H   0  0  0  0  0  0  0  0  0  0  0  0
    7.2761    0.9182   -2.3090 H   0  0  0  0  0  0  0  0  0  0  0  0
    5.2110   -0.4255   -2.3611 H   0  0  0  0  0  0  0  0  0  0  0  0
    3.0042   -1.0222   -1.3668 H   0  0  0  0  0  0  0  0  0  0  0  0
  1  2  2  0
  2  3  1  0
  3  4  1  0
  4  5  1  0
  5  6  1  0
  5  7  2  0
  7  8  1  0
  8  9  2  0
  9 10  1  0
  8 11  1  0
 11 12  1  0
 12 13  1  0
 13 14  1  0
 14 15  1  0
  2 16  1  0
 16 17  1  0
 17 18  2  0
 18 19  1  0
 19 20  2  0
 20 21  1  0
 21 22  2  0
 22 23  1  0
 23 24  2  0
 24 25  1  0
 25 26  2  0
  9  4  1  0
 15 11  1  0
 26 17  1  0
 14  7  1  0
 25 20  1  0
  3 27  1  0
  3 28  1  0
  6 29  1  0
 10 30  1  0
 11 31  1  0
 12 32  1  0
 12 33  1  0
 13 34  1  0
 13 35  1  0
 14 36  1  0
 15 37  1  0
 15 38  1  0
 18 39  1  0
 19 40  1  0
 21 41  1  0
 22 42  1  0
 23 43  1  0
 24 44  1  0
 26 45  1  0
M  END
$$$$
