
     RDKit          3D

 39 41  0  0  0  0  0  0  0  0999 V2000
    3.8919    0.5501    2.1804 O   0  0  0  0  0  0  0  0  0  0  0  0
    4.0725    0.0908    1.0578 C   0  0  0  0  0  0  0  0  0  0  0  0
    3.0873   -0.3887    0.2134 N   0  0  0  0  0  0  0  0  0  0  0  0
    1.6999   -0.4580    0.4368 C   0  0  0  0  0  0  0  0  0  0  0  0
    1.0740   -0.0327    1.6084 C   0  0  0  0  0  0  0  0  0  0  0  0
   -0.3156   -0.1352    1.7502 C   0  0  0  0  0  0  0  0  0  0  0  0
   -1.1050   -0.6594    0.7192 C   0  0  0  0  0  0  0  0  0  0  0  0
   -2.6050   -0.7884    0.8868 C   0  0  0  0  0  0  0  0  0  0  0  0
   -3.3682   -0.2292   -0.2395 N   0  0  0  0  0  0  0  0  0  0  0  0
   -3.2984    1.2477   -0.3077 C   0  0  0  0  0  0  0  0  0  0  0  0
   -4.5405    1.9485    0.2657 C   0  0  0  0  0  0  0  0  0  0  0  0
   -5.7588    1.5718   -0.3908 O   0  0  0  0  0  0  0  0  0  0  0  0
   -5.7088    0.2553   -0.9577 C   0  0  0  0  0  0  0  0  0  0  0  0
   -4.7745   -0.6829   -0.1813 C   0  0  0  0  0  0  0  0  0  0  0  0
   -0.4722   -1.0951   -0.4514 C   0  0  0  0  0  0  0  0  0  0  0  0
    0.9149   -0.9914   -0.5918 C   0  0  0  0  0  0  0  0  0  0  0  0
    5.3995   -0.0009    0.4732 C   0  0  0  0  0  0  0  0  0  0  0  0
    6.6386    0.3599    0.9685 C   0  0  0  0  0  0  0  0  0  0  0  0
    7.5872    0.0436   -0.0342 C   0  0  0  0  0  0  0  0  0  0  0  0
    6.8740   -0.4910   -1.0818 C   0  0  0  0  0  0  0  0  0  0  0  0
    7.6199   -1.1043   -2.7204 Br  0  0  0  0  0  0  0  0  0  0  0  0
    5.5468   -0.5236   -0.7869 O   0  0  0  0  0  0  0  0  0  0  0  0
    3.4241   -0.7301   -0.6806 H   0  0  0  0  0  0  0  0  0  0  0  0
    1.6360    0.3849    2.4378 H   0  0  0  0  0  0  0  0  0  0  0  0
   -0.7725    0.2026    2.6778 H   0  0  0  0  0  0  0  0  0  0  0  0
   -2.8113   -1.8635    0.9777 H   0  0  0  0  0  0  0  0  0  0  0  0
   -2.9258   -0.3271    1.8302 H   0  0  0  0  0  0  0  0  0  0  0  0
   -2.3971    1.6457    0.1710 H   0  0  0  0  0  0  0  0  0  0  0  0
   -3.2192    1.5096   -1.3705 H   0  0  0  0  0  0  0  0  0  0  0  0
   -4.4387    3.0339    0.1653 H   0  0  0  0  0  0  0  0  0  0  0  0
   -4.6484    1.7305    1.3347 H   0  0  0  0  0  0  0  0  0  0  0  0
   -6.7293   -0.1410   -0.9532 H   0  0  0  0  0  0  0  0  0  0  0  0
   -5.3981    0.3419   -2.0055 H   0  0  0  0  0  0  0  0  0  0  0  0
   -4.8398   -1.6947   -0.5962 H   0  0  0  0  0  0  0  0  0  0  0  0
   -5.1213   -0.7220    0.8601 H   0  0  0  0  0  0  0  0  0  0  0  0
   -1.0640   -1.5107   -1.2648 H   0  0  0  0  0  0  0  0  0  0  0  0
    1.3674   -1.3341   -1.5187 H   0  0  0  0  0  0  0  0  0  0  0  0
    6.8206    0.7986    1.9409 H   0  0  0  0  0  0  0  0  0  0  0  0
    8.6578    0.1887    0.0052 H   0  0  0  0  0  0  0  0  0  0  0  0
  1  2  2  0
  2  3  1  0
  3  4  1  0
  4  5  2  0
  5  6  1  0
  6  7  2  0
  7  8  1  0
  8  9  1  0
  9 10  1  0
 10 11  1  0
 11 12  1  0
 12 13  1  0
 13 14  1  0
  7 15  1  0
 15 16  2  0
  2 17  1  0
 17 18  2  0
 18 19  1  0
 19 20  2  0
 20 21  1  0
 20 22  1  0
 16  4  1  0
 22 17  1  0
 14  9  1  0
  3 23  1  0
  5 24  1  0
  6 25  1  0
  8 26  1  0
  8 27  1  0
 10 28  1  0
 10 29  1  0
 11 30  1  0
 11 31  1  0
 13 32  1  0
 13 33  1  0
 14 34  1  0
 14 35  1  0
 15 36  1  0
 16 37  1  0
 18 38  1  0
 19 39  1  0
M  END
$$$$
