
     RDKit          3D

 40 42  0  0  0  0  0  0  0  0999 V2000
    6.8978   -0.5190   -2.1519 C   0  0  0  0  0  0  0  0  0  0  0  0
    5.4804   -0.5546   -2.0554 O   0  0  0  0  0  0  0  0  0  0  0  0
    4.9093    0.1227   -1.0118 C   0  0  0  0  0  0  0  0  0  0  0  0
    5.5948    0.8586   -0.0459 C   0  0  0  0  0  0  0  0  0  0  0  0
    4.8874    1.5078    0.9662 C   0  0  0  0  0  0  0  0  0  0  0  0
    3.4951    1.4216    1.0150 C   0  0  0  0  0  0  0  0  0  0  0  0
    2.7932    0.6834    0.0551 C   0  0  0  0  0  0  0  0  0  0  0  0
    1.3871    0.6520    0.1718 N   0  0  0  0  0  0  0  0  0  0  0  0
    0.4950   -0.0695   -0.6010 C   0  0  0  0  0  0  0  0  0  0  0  0
    0.7650   -0.8720   -1.4855 O   0  0  0  0  0  0  0  0  0  0  0  0
   -0.9392    0.1490   -0.2593 C   0  0  0  0  0  0  0  0  0  0  0  0
   -1.4240    1.4163    0.0933 C   0  0  0  0  0  0  0  0  0  0  0  0
   -2.7755    1.5875    0.4016 C   0  0  0  0  0  0  0  0  0  0  0  0
   -3.6457    0.4943    0.3642 C   0  0  0  0  0  0  0  0  0  0  0  0
   -3.1659   -0.7737   -0.0070 C   0  0  0  0  0  0  0  0  0  0  0  0
   -1.8160   -0.9402   -0.3302 C   0  0  0  0  0  0  0  0  0  0  0  0
   -4.1511   -1.9076   -0.1050 C   0  0  0  0  0  0  0  0  0  0  0  0
   -5.1147   -1.9070    1.0831 C   0  0  0  0  0  0  0  0  0  0  0  0
   -5.6355   -0.5214    1.4946 C   0  0  0  0  0  0  0  0  0  0  0  0
   -5.1181    0.6403    0.6444 C   0  0  0  0  0  0  0  0  0  0  0  0
    3.5111    0.0405   -0.9557 C   0  0  0  0  0  0  0  0  0  0  0  0
    7.2573    0.5036   -2.3072 H   0  0  0  0  0  0  0  0  0  0  0  0
    7.1886   -1.1099   -3.0258 H   0  0  0  0  0  0  0  0  0  0  0  0
    7.3654   -0.9737   -1.2723 H   0  0  0  0  0  0  0  0  0  0  0  0
    6.6757    0.9475   -0.0536 H   0  0  0  0  0  0  0  0  0  0  0  0
    5.4224    2.0818    1.7184 H   0  0  0  0  0  0  0  0  0  0  0  0
    2.9709    1.9372    1.8152 H   0  0  0  0  0  0  0  0  0  0  0  0
    1.0013    1.1633    0.9543 H   0  0  0  0  0  0  0  0  0  0  0  0
   -0.7708    2.2846    0.0950 H   0  0  0  0  0  0  0  0  0  0  0  0
   -3.1468    2.5775    0.6565 H   0  0  0  0  0  0  0  0  0  0  0  0
   -1.4406   -1.9144   -0.6383 H   0  0  0  0  0  0  0  0  0  0  0  0
   -3.6328   -2.8728   -0.1462 H   0  0  0  0  0  0  0  0  0  0  0  0
   -4.7106   -1.8014   -1.0426 H   0  0  0  0  0  0  0  0  0  0  0  0
   -5.9588   -2.5726    0.8663 H   0  0  0  0  0  0  0  0  0  0  0  0
   -4.6042   -2.3477    1.9502 H   0  0  0  0  0  0  0  0  0  0  0  0
   -5.3461   -0.3478    2.5399 H   0  0  0  0  0  0  0  0  0  0  0  0
   -6.7321   -0.5184    1.4859 H   0  0  0  0  0  0  0  0  0  0  0  0
   -5.6529    0.6736   -0.3128 H   0  0  0  0  0  0  0  0  0  0  0  0
   -5.3244    1.5838    1.1630 H   0  0  0  0  0  0  0  0  0  0  0  0
    3.0081   -0.5356   -1.7265 H   0  0  0  0  0  0  0  0  0  0  0  0
  1  2  1  0
  2  3  1  0
  3  4  2  0
  4  5  1  0
  5  6  2  0
  6  7  1  0
  7  8  1  0
  8  9  1  0
  9 10  2  0
  9 11  1  0
 11 12  2  0
 12 13  1  0
 13 14  2  0
 14 15  1  0
 15 16  2  0
 15 17  1  0
 17 18  1  0
 18 19  1  0
 19 20  1  0
  7 21  2  0
 21  3  1  0
 16 11  1  0
 20 14  1  0
  1 22  1  0
  1 23  1  0
  1 24  1  0
  4 25  1  0
  5 26  1  0
  6 27  1  0
  8 28  1  0
 12 29  1  0
 13 30  1  0
 16 31  1  0
 17 32  1  0
 17 33  1  0
 18 34  1  0
 18 35  1  0
 19 36  1  0
 19 37  1  0
 20 38  1  0
 20 39  1  0
 21 40  1  0
M  END
$$$$
