
     RDKit          3D

 45 46  0  0  0  0  0  0  0  0999 V2000
    4.5119   -1.8430    2.8131 C   0  0  0  0  0  0  0  0  0  0  0  0
    4.0629   -1.6319    1.3976 C   0  0  0  0  0  0  0  0  0  0  0  0
    4.9493   -1.8512    0.3393 C   0  0  0  0  0  0  0  0  0  0  0  0
    4.5272   -1.6727   -0.9768 C   0  0  0  0  0  0  0  0  0  0  0  0
    3.2108   -1.2923   -1.2493 C   0  0  0  0  0  0  0  0  0  0  0  0
    2.2993   -1.1094   -0.2098 C   0  0  0  0  0  0  0  0  0  0  0  0
    0.9639   -0.6887   -0.4022 N   0  0  0  0  0  0  0  0  0  0  0  0
    0.1223   -0.8110   -1.5028 C   0  0  0  0  0  0  0  0  0  0  0  0
    0.2554   -2.0488   -2.6370 S   0  0  0  0  0  0  0  0  0  0  0  0
   -0.8906    0.1810   -1.5265 N   0  0  0  0  0  0  0  0  0  0  0  0
   -0.8497    1.3686   -0.6433 C   0  0  0  0  0  0  0  0  0  0  0  0
   -1.6015    1.1776    0.6948 C   0  0  0  0  0  0  0  0  0  0  0  0
   -1.3399    2.1651    1.7561 N   0  0  0  0  0  0  0  0  0  0  0  0
    0.0245    2.1054    2.2717 C   0  0  0  0  0  0  0  0  0  0  0  0
   -1.6928    3.5248    1.3555 C   0  0  0  0  0  0  0  0  0  0  0  0
   -2.0002    0.1618   -2.5028 C   0  0  0  0  0  0  0  0  0  0  0  0
   -3.2699   -0.2955   -1.8474 C   0  0  0  0  0  0  0  0  0  0  0  0
   -3.5195   -1.4750   -1.1709 C   0  0  0  0  0  0  0  0  0  0  0  0
   -4.8591   -1.5566   -0.6934 C   0  0  0  0  0  0  0  0  0  0  0  0
   -5.5937   -0.4419   -1.0279 C   0  0  0  0  0  0  0  0  0  0  0  0
   -4.6743    0.6881   -1.9215 S   0  0  0  0  0  0  0  0  0  0  0  0
    2.7396   -1.2638    1.1127 C   0  0  0  0  0  0  0  0  0  0  0  0
    4.4993   -2.9103    3.0546 H   0  0  0  0  0  0  0  0  0  0  0  0
    3.8603   -1.3163    3.5182 H   0  0  0  0  0  0  0  0  0  0  0  0
    5.5259   -1.4560    2.9569 H   0  0  0  0  0  0  0  0  0  0  0  0
    5.9757   -2.1544    0.5336 H   0  0  0  0  0  0  0  0  0  0  0  0
    5.2252   -1.8232   -1.7964 H   0  0  0  0  0  0  0  0  0  0  0  0
    2.9341   -1.1186   -2.2839 H   0  0  0  0  0  0  0  0  0  0  0  0
    0.4823   -0.4437    0.4499 H   0  0  0  0  0  0  0  0  0  0  0  0
    0.2012    1.6170   -0.4639 H   0  0  0  0  0  0  0  0  0  0  0  0
   -1.2642    2.2247   -1.1889 H   0  0  0  0  0  0  0  0  0  0  0  0
   -1.4050    0.1775    1.0999 H   0  0  0  0  0  0  0  0  0  0  0  0
   -2.6795    1.1811    0.4986 H   0  0  0  0  0  0  0  0  0  0  0  0
    0.2732    1.0876    2.5921 H   0  0  0  0  0  0  0  0  0  0  0  0
    0.1237    2.7436    3.1569 H   0  0  0  0  0  0  0  0  0  0  0  0
    0.7706    2.4292    1.5389 H   0  0  0  0  0  0  0  0  0  0  0  0
   -1.6272    4.2039    2.2130 H   0  0  0  0  0  0  0  0  0  0  0  0
   -1.0395    3.9119    0.5660 H   0  0  0  0  0  0  0  0  0  0  0  0
   -2.7287    3.5678    1.0009 H   0  0  0  0  0  0  0  0  0  0  0  0
   -2.0932    1.1689   -2.9265 H   0  0  0  0  0  0  0  0  0  0  0  0
   -1.7934   -0.4948   -3.3507 H   0  0  0  0  0  0  0  0  0  0  0  0
   -2.7711   -2.2447   -1.0213 H   0  0  0  0  0  0  0  0  0  0  0  0
   -5.2628   -2.3918   -0.1341 H   0  0  0  0  0  0  0  0  0  0  0  0
   -6.6297   -0.2374   -0.7955 H   0  0  0  0  0  0  0  0  0  0  0  0
    2.0470   -1.1129    1.9375 H   0  0  0  0  0  0  0  0  0  0  0  0
  1  2  1  0
  2  3  2  0
  3  4  1  0
  4  5  2  0
  5  6  1  0
  6  7  1  0
  7  8  1  0
  8  9  2  0
  8 10  1  0
 10 11  1  0
 11 12  1  0
 12 13  1  0
 13 14  1  0
 13 15  1  0
 10 16  1  0
 16 17  1  0
 17 18  2  0
 18 19  1  0
 19 20  2  0
 20 21  1  0
  6 22  2  0
 22  2  1  0
 21 17  1  0
  1 23  1  0
  1 24  1  0
  1 25  1  0
  3 26  1  0
  4 27  1  0
  5 28  1  0
  7 29  1  0
 11 30  1  0
 11 31  1  0
 12 32  1  0
 12 33  1  0
 14 34  1  0
 14 35  1  0
 14 36  1  0
 15 37  1  0
 15 38  1  0
 15 39  1  0
 16 40  1  0
 16 41  1  0
 18 42  1  0
 19 43  1  0
 20 44  1  0
 22 45  1  0
M  END
$$$$
