
     RDKit          3D

 55 57  0  0  0  0  0  0  0  0999 V2000
   -5.0089   -1.8811    1.6284 C   0  0  0  0  0  0  0  0  0  0  0  0
   -3.9249   -1.0763    0.9203 C   0  0  0  0  0  0  0  0  0  0  0  0
   -2.7071   -1.8883    0.4028 C   0  0  0  0  0  0  0  0  0  0  0  0
   -1.8961   -2.4909    1.5634 C   0  0  0  0  0  0  0  0  0  0  0  0
   -3.1853   -3.0425   -0.5040 C   0  0  0  0  0  0  0  0  0  0  0  0
   -1.8296   -1.0372   -0.4278 N   0  0  0  0  0  0  0  0  0  0  0  0
   -1.2283    0.1402    0.0059 C   0  0  0  0  0  0  0  0  0  0  0  0
   -1.4263    0.6142    1.1228 O   0  0  0  0  0  0  0  0  0  0  0  0
   -0.2075    0.7239   -1.0210 C   0  0  0  0  0  0  0  0  0  0  0  0
   -0.2822    2.2250   -1.2680 C   0  0  0  0  0  0  0  0  0  0  0  0
   -0.7404    3.1646   -0.3309 C   0  0  0  0  0  0  0  0  0  0  0  0
   -0.7695    4.5305   -0.6387 C   0  0  0  0  0  0  0  0  0  0  0  0
   -0.3369    4.9828   -1.8832 C   0  0  0  0  0  0  0  0  0  0  0  0
    0.1308    4.0685   -2.8219 C   0  0  0  0  0  0  0  0  0  0  0  0
    0.1548    2.7097   -2.5095 C   0  0  0  0  0  0  0  0  0  0  0  0
    0.6188    1.8507   -3.4313 F   0  0  0  0  0  0  0  0  0  0  0  0
    1.1527    0.1967   -0.7410 N   0  0  0  0  0  0  0  0  0  0  0  0
    1.3975   -1.1043   -1.2386 C   0  0  0  0  0  0  0  0  0  0  0  0
    0.4924   -1.7819   -1.7333 O   0  0  0  0  0  0  0  0  0  0  0  0
    2.7914   -1.5985   -1.1942 C   0  0  0  0  0  0  0  0  0  0  0  0
    3.9995   -0.8491   -1.2803 C   0  0  0  0  0  0  0  0  0  0  0  0
    5.0119   -1.7752   -1.2203 C   0  0  0  0  0  0  0  0  0  0  0  0
    4.4009   -2.9869   -1.1080 N   0  0  0  0  0  0  0  0  0  0  0  0
    3.0640   -2.9163   -1.0956 N   0  0  0  0  0  0  0  0  0  0  0  0
    1.7876    0.6301    0.4691 C   0  0  0  0  0  0  0  0  0  0  0  0
    1.9519   -0.2507    1.5497 C   0  0  0  0  0  0  0  0  0  0  0  0
    2.5912    0.1715    2.7180 C   0  0  0  0  0  0  0  0  0  0  0  0
    3.0781    1.4738    2.8158 C   0  0  0  0  0  0  0  0  0  0  0  0
    2.9256    2.3546    1.7460 C   0  0  0  0  0  0  0  0  0  0  0  0
    2.2843    1.9345    0.5776 C   0  0  0  0  0  0  0  0  0  0  0  0
   -4.6127   -2.4256    2.4904 H   0  0  0  0  0  0  0  0  0  0  0  0
   -5.7925   -1.2048    1.9945 H   0  0  0  0  0  0  0  0  0  0  0  0
   -5.4888   -2.5971    0.9514 H   0  0  0  0  0  0  0  0  0  0  0  0
   -4.3880   -0.5447    0.0774 H   0  0  0  0  0  0  0  0  0  0  0  0
   -3.5916   -0.3015    1.6186 H   0  0  0  0  0  0  0  0  0  0  0  0
   -1.5573   -1.7233    2.2689 H   0  0  0  0  0  0  0  0  0  0  0  0
   -2.4815   -3.2225    2.1264 H   0  0  0  0  0  0  0  0  0  0  0  0
   -1.0014   -3.0039    1.1858 H   0  0  0  0  0  0  0  0  0  0  0  0
   -3.7647   -3.7886    0.0490 H   0  0  0  0  0  0  0  0  0  0  0  0
   -3.8061   -2.6659   -1.3266 H   0  0  0  0  0  0  0  0  0  0  0  0
   -2.3339   -3.5685   -0.9558 H   0  0  0  0  0  0  0  0  0  0  0  0
   -1.2515   -1.5511   -1.0942 H   0  0  0  0  0  0  0  0  0  0  0  0
   -0.5233    0.2985   -1.9865 H   0  0  0  0  0  0  0  0  0  0  0  0
   -1.0705    2.8611    0.6601 H   0  0  0  0  0  0  0  0  0  0  0  0
   -1.1299    5.2413    0.1028 H   0  0  0  0  0  0  0  0  0  0  0  0
   -0.3637    6.0435   -2.1180 H   0  0  0  0  0  0  0  0  0  0  0  0
    0.4765    4.4009   -3.7955 H   0  0  0  0  0  0  0  0  0  0  0  0
    4.1068    0.2233   -1.3835 H   0  0  0  0  0  0  0  0  0  0  0  0
    6.0868   -1.6803   -1.2514 H   0  0  0  0  0  0  0  0  0  0  0  0
    4.8314   -3.9038   -1.0417 H   0  0  0  0  0  0  0  0  0  0  0  0
    1.5641   -1.2668    1.5119 H   0  0  0  0  0  0  0  0  0  0  0  0
    2.7029   -0.5160    3.5536 H   0  0  0  0  0  0  0  0  0  0  0  0
    3.5755    1.8011    3.7257 H   0  0  0  0  0  0  0  0  0  0  0  0
    3.3106    3.3693    1.8171 H   0  0  0  0  0  0  0  0  0  0  0  0
    2.2129    2.6331   -0.2525 H   0  0  0  0  0  0  0  0  0  0  0  0
  1  2  1  0
  2  3  1  0
  3  4  1  0
  3  5  1  0
  3  6  1  0
  6  7  1  0
  7  8  2  0
  7  9  1  0
  9 10  1  0
 10 11  2  0
 11 12  1  0
 12 13  2  0
 13 14  1  0
 14 15  2  0
 15 16  1  0
  9 17  1  0
 17 18  1  0
 18 19  2  0
 18 20  1  0
 20 21  1  0
 21 22  2  0
 22 23  1  0
 23 24  1  0
 17 25  1  0
 25 26  2  0
 26 27  1  0
 27 28  2  0
 28 29  1  0
 29 30  2  0
 15 10  1  0
 24 20  2  0
 30 25  1  0
  1 31  1  0
  1 32  1  0
  1 33  1  0
  2 34  1  0
  2 35  1  0
  4 36  1  0
  4 37  1  0
  4 38  1  0
  5 39  1  0
  5 40  1  0
  5 41  1  0
  6 42  1  0
  9 43  1  0
 11 44  1  0
 12 45  1  0
 13 46  1  0
 14 47  1  0
 21 48  1  0
 22 49  1  0
 23 50  1  0
 26 51  1  0
 27 52  1  0
 28 53  1  0
 29 54  1  0
 30 55  1  0
M  END
$$$$
