
     RDKit          3D

 37 39  0  0  0  0  0  0  0  0999 V2000
   -0.3935   -0.0540   -1.4160 C   0  0  0  0  0  0  0  0  0  0  0  0
   -0.5342    0.0629    0.0843 C   0  0  0  0  0  0  0  0  0  0  0  0
    0.4670    0.1312    0.9107 N   0  0  0  0  0  0  0  0  0  0  0  0
    1.7385    0.0932    0.4263 N   0  0  0  0  0  0  0  0  0  0  0  0
    2.8051    0.1042    1.3139 C   0  0  0  0  0  0  0  0  0  0  0  0
    2.7212    0.1300    2.5372 O   0  0  0  0  0  0  0  0  0  0  0  0
    4.1517    0.0424    0.6853 C   0  0  0  0  0  0  0  0  0  0  0  0
    4.4270    0.6794   -0.5335 C   0  0  0  0  0  0  0  0  0  0  0  0
    5.7062    0.6001   -1.0883 C   0  0  0  0  0  0  0  0  0  0  0  0
    6.7108   -0.1064   -0.4255 C   0  0  0  0  0  0  0  0  0  0  0  0
    6.4381   -0.7236    0.7955 C   0  0  0  0  0  0  0  0  0  0  0  0
    7.6854   -1.5844    1.6101 Cl  0  0  0  0  0  0  0  0  0  0  0  0
    5.1664   -0.6491    1.3578 C   0  0  0  0  0  0  0  0  0  0  0  0
   -1.9201    0.1000    0.6773 C   0  0  0  0  0  0  0  0  0  0  0  0
   -2.7636   -1.1119    0.3508 C   0  0  0  0  0  0  0  0  0  0  0  0
   -2.4439   -2.2841    0.4143 O   0  0  0  0  0  0  0  0  0  0  0  0
   -4.0753   -0.6553   -0.1069 C   0  0  0  0  0  0  0  0  0  0  0  0
   -5.1831   -1.4106   -0.4435 C   0  0  0  0  0  0  0  0  0  0  0  0
   -6.3210   -0.7257   -0.8804 C   0  0  0  0  0  0  0  0  0  0  0  0
   -6.3249    0.6801   -0.9772 C   0  0  0  0  0  0  0  0  0  0  0  0
   -5.1909    1.4247   -0.6389 C   0  0  0  0  0  0  0  0  0  0  0  0
   -4.0791    0.7289   -0.2022 C   0  0  0  0  0  0  0  0  0  0  0  0
   -2.7700    1.2510    0.1879 C   0  0  0  0  0  0  0  0  0  0  0  0
   -2.4569    2.4226    0.0896 O   0  0  0  0  0  0  0  0  0  0  0  0
    0.1870    0.7902   -1.7983 H   0  0  0  0  0  0  0  0  0  0  0  0
   -1.3695   -0.0494   -1.9070 H   0  0  0  0  0  0  0  0  0  0  0  0
    0.1126   -0.9914   -1.6628 H   0  0  0  0  0  0  0  0  0  0  0  0
    1.8971   -0.0699   -0.5589 H   0  0  0  0  0  0  0  0  0  0  0  0
    3.6691    1.2684   -1.0437 H   0  0  0  0  0  0  0  0  0  0  0  0
    5.9257    1.0990   -2.0296 H   0  0  0  0  0  0  0  0  0  0  0  0
    7.7065   -0.1633   -0.8585 H   0  0  0  0  0  0  0  0  0  0  0  0
    4.9586   -1.1254    2.3138 H   0  0  0  0  0  0  0  0  0  0  0  0
   -1.8595    0.1756    1.7702 H   0  0  0  0  0  0  0  0  0  0  0  0
   -5.1682   -2.4941   -0.3710 H   0  0  0  0  0  0  0  0  0  0  0  0
   -7.2157   -1.2840   -1.1517 H   0  0  0  0  0  0  0  0  0  0  0  0
   -7.2226    1.1910   -1.3222 H   0  0  0  0  0  0  0  0  0  0  0  0
   -5.1820    2.5080   -0.7157 H   0  0  0  0  0  0  0  0  0  0  0  0
  1  2  1  0
  2  3  2  3
  3  4  1  0
  4  5  1  0
  5  6  2  0
  5  7  1  0
  7  8  2  0
  8  9  1  0
  9 10  2  0
 10 11  1  0
 11 12  1  0
 11 13  2  0
  2 14  1  0
 14 15  1  0
 15 16  2  0
 15 17  1  0
 17 18  2  0
 18 19  1  0
 19 20  2  0
 20 21  1  0
 21 22  2  0
 22 23  1  0
 23 24  2  0
 13  7  1  0
 23 14  1  0
 22 17  1  0
  1 25  1  0
  1 26  1  0
  1 27  1  0
  4 28  1  0
  8 29  1  0
  9 30  1  0
 10 31  1  0
 13 32  1  0
 14 33  1  0
 18 34  1  0
 19 35  1  0
 20 36  1  0
 21 37  1  0
M  END
$$$$
