
     RDKit          3D

 37 39  0  0  0  0  0  0  0  0999 V2000
    4.5689   -1.9298    1.8929 C   0  0  0  0  0  0  0  0  0  0  0  0
    3.3498   -1.3936    1.2053 C   0  0  0  0  0  0  0  0  0  0  0  0
    2.5287   -2.2327    0.4563 C   0  0  0  0  0  0  0  0  0  0  0  0
    1.4045   -1.7252   -0.2079 C   0  0  0  0  0  0  0  0  0  0  0  0
    1.0770   -0.3617   -0.1692 C   0  0  0  0  0  0  0  0  0  0  0  0
    1.9211    0.4867    0.5789 C   0  0  0  0  0  0  0  0  0  0  0  0
    3.0415   -0.0336    1.2570 C   0  0  0  0  0  0  0  0  0  0  0  0
    1.6365    1.9565    0.7237 C   0  0  0  0  0  0  0  0  0  0  0  0
    0.8360    2.4543   -0.4582 C   0  0  0  0  0  0  0  0  0  0  0  0
   -0.3986    1.5880   -0.6333 C   0  0  0  0  0  0  0  0  0  0  0  0
   -0.1021    0.1666   -0.8130 N   0  0  0  0  0  0  0  0  0  0  0  0
   -0.9573   -0.6259   -1.5939 C   0  0  0  0  0  0  0  0  0  0  0  0
   -0.5874   -1.6038   -2.2525 O   0  0  0  0  0  0  0  0  0  0  0  0
   -2.4834   -0.3351   -1.5176 C   0  0  0  0  0  0  0  0  0  0  0  0
   -3.0489   -0.8492   -0.1984 C   0  0  0  0  0  0  0  0  0  0  0  0
   -4.3731   -0.1346   -0.1243 C   0  0  0  0  0  0  0  0  0  0  0  0
   -4.0333    1.2121   -0.7193 C   0  0  0  0  0  0  0  0  0  0  0  0
   -2.9775    0.9962   -1.6664 O   0  0  0  0  0  0  0  0  0  0  0  0
    4.7866   -1.3600    2.8024 H   0  0  0  0  0  0  0  0  0  0  0  0
    5.4325   -1.8715    1.2233 H   0  0  0  0  0  0  0  0  0  0  0  0
    4.4227   -2.9733    2.1914 H   0  0  0  0  0  0  0  0  0  0  0  0
    2.7469   -3.2960    0.3826 H   0  0  0  0  0  0  0  0  0  0  0  0
    0.7989   -2.4462   -0.7471 H   0  0  0  0  0  0  0  0  0  0  0  0
    3.6792    0.6363    1.8315 H   0  0  0  0  0  0  0  0  0  0  0  0
    1.0846    2.1197    1.6573 H   0  0  0  0  0  0  0  0  0  0  0  0
    2.5721    2.5250    0.7833 H   0  0  0  0  0  0  0  0  0  0  0  0
    1.4471    2.4147   -1.3694 H   0  0  0  0  0  0  0  0  0  0  0  0
    0.5468    3.5000   -0.3060 H   0  0  0  0  0  0  0  0  0  0  0  0
   -1.0697    1.6859    0.2277 H   0  0  0  0  0  0  0  0  0  0  0  0
   -0.9145    1.9592   -1.5229 H   0  0  0  0  0  0  0  0  0  0  0  0
   -2.9365   -0.9019   -2.3426 H   0  0  0  0  0  0  0  0  0  0  0  0
   -2.4175   -0.5534    0.6479 H   0  0  0  0  0  0  0  0  0  0  0  0
   -3.1456   -1.9389   -0.1772 H   0  0  0  0  0  0  0  0  0  0  0  0
   -4.7813   -0.0655    0.8872 H   0  0  0  0  0  0  0  0  0  0  0  0
   -5.1074   -0.6483   -0.7560 H   0  0  0  0  0  0  0  0  0  0  0  0
   -3.6604    1.9011    0.0458 H   0  0  0  0  0  0  0  0  0  0  0  0
   -4.8869    1.6779   -1.2195 H   0  0  0  0  0  0  0  0  0  0  0  0
  1  2  1  0
  2  3  2  0
  3  4  1  0
  4  5  2  0
  5  6  1  0
  6  7  2  0
  6  8  1  0
  8  9  1  0
  9 10  1  0
 10 11  1  0
 11 12  1  0
 12 13  2  0
 12 14  1  0
 14 15  1  0
 15 16  1  0
 16 17  1  0
 17 18  1  0
  7  2  1  0
 18 14  1  0
 11  5  1  0
  1 19  1  0
  1 20  1  0
  1 21  1  0
  3 22  1  0
  4 23  1  0
  7 24  1  0
  8 25  1  0
  8 26  1  0
  9 27  1  0
  9 28  1  0
 10 29  1  0
 10 30  1  0
 14 31  1  0
 15 32  1  0
 15 33  1  0
 16 34  1  0
 16 35  1  0
 17 36  1  0
 17 37  1  0
M  END
$$$$
