
     RDKit          3D

 55 58  0  0  0  0  0  0  0  0999 V2000
   -8.4816   -2.3105    2.0775 C   0  0  0  0  0  0  0  0  0  0  0  0
   -8.7099   -0.8379    1.7563 C   0  0  0  0  0  0  0  0  0  0  0  0
   -9.3008   -0.1093    2.9571 C   0  0  0  0  0  0  0  0  0  0  0  0
   -7.4495   -0.2091    1.4580 O   0  0  0  0  0  0  0  0  0  0  0  0
   -7.0096   -0.3301    0.1807 C   0  0  0  0  0  0  0  0  0  0  0  0
   -7.5829   -0.9173   -0.7232 O   0  0  0  0  0  0  0  0  0  0  0  0
   -5.7018    0.3602    0.0111 C   0  0  0  0  0  0  0  0  0  0  0  0
   -5.1048    0.3434   -1.2560 C   0  0  0  0  0  0  0  0  0  0  0  0
   -3.8758    0.9741   -1.4666 C   0  0  0  0  0  0  0  0  0  0  0  0
   -3.2283    1.6377   -0.4155 C   0  0  0  0  0  0  0  0  0  0  0  0
   -1.8898    2.2945   -0.6398 C   0  0  0  0  0  0  0  0  0  0  0  0
   -0.8875    1.2845   -0.5059 O   0  0  0  0  0  0  0  0  0  0  0  0
    0.3731    1.7381   -0.6983 C   0  0  0  0  0  0  0  0  0  0  0  0
    0.6841    2.8889   -0.9577 O   0  0  0  0  0  0  0  0  0  0  0  0
    1.3555    0.6295   -0.5534 C   0  0  0  0  0  0  0  0  0  0  0  0
    0.9667   -0.6792   -0.2409 C   0  0  0  0  0  0  0  0  0  0  0  0
    1.9269   -1.6831   -0.1179 C   0  0  0  0  0  0  0  0  0  0  0  0
    3.2788   -1.3861   -0.3067 C   0  0  0  0  0  0  0  0  0  0  0  0
    3.6919   -0.0821   -0.6205 C   0  0  0  0  0  0  0  0  0  0  0  0
    5.0964    0.2515   -0.8234 C   0  0  0  0  0  0  0  0  0  0  0  0
    5.6600    1.4084   -1.1058 N   0  0  0  0  0  0  0  0  0  0  0  0
    7.0167    1.1725   -1.1952 N   0  0  0  0  0  0  0  0  0  0  0  0
    7.1907   -0.1133   -0.9625 C   0  0  0  0  0  0  0  0  0  0  0  0
    8.4149   -0.9035   -0.9333 C   0  0  0  0  0  0  0  0  0  0  0  0
    9.6490   -0.2794   -1.1730 C   0  0  0  0  0  0  0  0  0  0  0  0
   10.8385   -1.0123   -1.1523 C   0  0  0  0  0  0  0  0  0  0  0  0
   10.8094   -2.3801   -0.8916 C   0  0  0  0  0  0  0  0  0  0  0  0
    9.5933   -3.0158   -0.6514 C   0  0  0  0  0  0  0  0  0  0  0  0
    8.4032   -2.2825   -0.6720 C   0  0  0  0  0  0  0  0  0  0  0  0
    6.0095   -0.7660   -0.7160 O   0  0  0  0  0  0  0  0  0  0  0  0
    2.7157    0.9200   -0.7404 C   0  0  0  0  0  0  0  0  0  0  0  0
   -3.8219    1.6433    0.8542 C   0  0  0  0  0  0  0  0  0  0  0  0
   -5.0522    1.0131    1.0667 C   0  0  0  0  0  0  0  0  0  0  0  0
   -8.0574   -2.8370    1.2164 H   0  0  0  0  0  0  0  0  0  0  0  0
   -9.4174   -2.8048    2.3558 H   0  0  0  0  0  0  0  0  0  0  0  0
   -7.7653   -2.4253    2.8988 H   0  0  0  0  0  0  0  0  0  0  0  0
   -9.4015   -0.7329    0.9114 H   0  0  0  0  0  0  0  0  0  0  0  0
   -8.6249   -0.1572    3.8182 H   0  0  0  0  0  0  0  0  0  0  0  0
   -9.4409    0.9523    2.7267 H   0  0  0  0  0  0  0  0  0  0  0  0
  -10.2673   -0.5342    3.2447 H   0  0  0  0  0  0  0  0  0  0  0  0
   -5.5935   -0.1647   -2.0857 H   0  0  0  0  0  0  0  0  0  0  0  0
   -3.4241    0.9413   -2.4564 H   0  0  0  0  0  0  0  0  0  0  0  0
   -1.7289    3.0889    0.0994 H   0  0  0  0  0  0  0  0  0  0  0  0
   -1.8561    2.7366   -1.6434 H   0  0  0  0  0  0  0  0  0  0  0  0
   -0.0806   -0.9327   -0.0905 H   0  0  0  0  0  0  0  0  0  0  0  0
    1.6223   -2.6988    0.1248 H   0  0  0  0  0  0  0  0  0  0  0  0
    4.0075   -2.1884   -0.2052 H   0  0  0  0  0  0  0  0  0  0  0  0
    9.6907    0.7895   -1.3789 H   0  0  0  0  0  0  0  0  0  0  0  0
   11.7860   -0.5133   -1.3402 H   0  0  0  0  0  0  0  0  0  0  0  0
   11.7349   -2.9505   -0.8757 H   0  0  0  0  0  0  0  0  0  0  0  0
    9.5702   -4.0836   -0.4480 H   0  0  0  0  0  0  0  0  0  0  0  0
    7.4672   -2.8028   -0.4818 H   0  0  0  0  0  0  0  0  0  0  0  0
    3.0174    1.9397   -0.9839 H   0  0  0  0  0  0  0  0  0  0  0  0
   -3.3279    2.1371    1.6889 H   0  0  0  0  0  0  0  0  0  0  0  0
   -5.4886    1.0374    2.0623 H   0  0  0  0  0  0  0  0  0  0  0  0
  1  2  1  0
  2  3  1  0
  2  4  1  0
  4  5  1  0
  5  6  2  0
  5  7  1  0
  7  8  2  0
  8  9  1  0
  9 10  2  0
 10 11  1  0
 11 12  1  0
 12 13  1  0
 13 14  2  0
 13 15  1  0
 15 16  2  0
 16 17  1  0
 17 18  2  0
 18 19  1  0
 19 20  1  0
 20 21  2  0
 21 22  1  0
 22 23  2  0
 23 24  1  0
 24 25  2  0
 25 26  1  0
 26 27  2  0
 27 28  1  0
 28 29  2  0
 23 30  1  0
 19 31  2  0
 10 32  1  0
 32 33  2  0
 33  7  1  0
 31 15  1  0
 30 20  1  0
 29 24  1  0
  1 34  1  0
  1 35  1  0
  1 36  1  0
  2 37  1  0
  3 38  1  0
  3 39  1  0
  3 40  1  0
  8 41  1  0
  9 42  1  0
 11 43  1  0
 11 44  1  0
 16 45  1  0
 17 46  1  0
 18 47  1  0
 25 48  1  0
 26 49  1  0
 27 50  1  0
 28 51  1  0
 29 52  1  0
 31 53  1  0
 32 54  1  0
 33 55  1  0
M  END
$$$$
