
     RDKit          3D

 42 44  0  0  0  0  0  0  0  0999 V2000
    1.2731    3.2159   -0.2782 C   0  0  0  0  0  0  0  0  0  0  0  0
    1.7447    1.9150   -0.6077 O   0  0  0  0  0  0  0  0  0  0  0  0
    0.8180    0.9065   -0.6645 C   0  0  0  0  0  0  0  0  0  0  0  0
   -0.4930    0.9986   -0.1820 C   0  0  0  0  0  0  0  0  0  0  0  0
   -1.3913   -0.0829   -0.2497 C   0  0  0  0  0  0  0  0  0  0  0  0
   -2.6991    0.0136    0.2431 N   0  0  0  0  0  0  0  0  0  0  0  0
   -2.9574   -0.8181    1.4328 C   0  0  0  0  0  0  0  0  0  0  0  0
   -4.0980   -0.1017    2.1525 C   0  0  0  0  0  0  0  0  0  0  0  0
   -3.8437    1.3565    1.8148 C   0  0  0  0  0  0  0  0  0  0  0  0
   -3.4209    1.2840    0.3525 C   0  0  0  0  0  0  0  0  0  0  0  0
   -0.9190   -1.2969   -0.8134 C   0  0  0  0  0  0  0  0  0  0  0  0
   -1.8225   -2.3338   -0.8691 O   0  0  0  0  0  0  0  0  0  0  0  0
   -1.4209   -3.5359   -1.5078 C   0  0  0  0  0  0  0  0  0  0  0  0
    0.3962   -1.3920   -1.2879 C   0  0  0  0  0  0  0  0  0  0  0  0
    1.2695   -0.2959   -1.2245 C   0  0  0  0  0  0  0  0  0  0  0  0
    2.6819   -0.4306   -1.7465 C   0  0  0  0  0  0  0  0  0  0  0  0
    3.6896   -0.4277   -0.6510 C   0  0  0  0  0  0  0  0  0  0  0  0
    3.8375   -1.3046    0.2972 N   0  0  0  0  0  0  0  0  0  0  0  0
    4.8888   -0.8518    1.0681 C   0  0  0  0  0  0  0  0  0  0  0  0
    5.5339   -1.5833    2.4147 S   0  0  0  0  0  0  0  0  0  0  0  0
    5.3842    0.3172    0.5885 N   0  0  0  0  0  0  0  0  0  0  0  0
    4.7270    0.6588   -0.5342 C   0  0  0  0  0  0  0  0  0  0  0  0
    4.9232    1.5583   -1.3158 O   0  0  0  0  0  0  0  0  0  0  0  0
    0.4651    3.5301   -0.9474 H   0  0  0  0  0  0  0  0  0  0  0  0
    2.1049    3.9147   -0.4094 H   0  0  0  0  0  0  0  0  0  0  0  0
    0.9617    3.2637    0.7702 H   0  0  0  0  0  0  0  0  0  0  0  0
   -0.8175    1.9120    0.2988 H   0  0  0  0  0  0  0  0  0  0  0  0
   -2.0786   -0.8564    2.0896 H   0  0  0  0  0  0  0  0  0  0  0  0
   -3.2510   -1.8387    1.1693 H   0  0  0  0  0  0  0  0  0  0  0  0
   -4.1014   -0.2960    3.2286 H   0  0  0  0  0  0  0  0  0  0  0  0
   -5.0636   -0.4207    1.7417 H   0  0  0  0  0  0  0  0  0  0  0  0
   -4.7242    1.9869    1.9661 H   0  0  0  0  0  0  0  0  0  0  0  0
   -3.0241    1.7493    2.4282 H   0  0  0  0  0  0  0  0  0  0  0  0
   -4.3102    1.2237   -0.2867 H   0  0  0  0  0  0  0  0  0  0  0  0
   -2.8695    2.1757    0.0445 H   0  0  0  0  0  0  0  0  0  0  0  0
   -2.2729   -4.2225   -1.4933 H   0  0  0  0  0  0  0  0  0  0  0  0
   -0.6005   -4.0158   -0.9645 H   0  0  0  0  0  0  0  0  0  0  0  0
   -1.1556   -3.3599   -2.5555 H   0  0  0  0  0  0  0  0  0  0  0  0
    0.7680   -2.3193   -1.7114 H   0  0  0  0  0  0  0  0  0  0  0  0
    2.7989   -1.3703   -2.2997 H   0  0  0  0  0  0  0  0  0  0  0  0
    2.8868    0.3723   -2.4630 H   0  0  0  0  0  0  0  0  0  0  0  0
    6.1821    0.8020    0.9621 H   0  0  0  0  0  0  0  0  0  0  0  0
  1  2  1  0
  2  3  1  0
  3  4  2  0
  4  5  1  0
  5  6  1  0
  6  7  1  0
  7  8  1  0
  8  9  1  0
  9 10  1  0
  5 11  2  0
 11 12  1  0
 12 13  1  0
 11 14  1  0
 14 15  2  0
 15 16  1  0
 16 17  1  0
 17 18  2  0
 18 19  1  0
 19 20  2  0
 19 21  1  0
 21 22  1  0
 22 23  2  0
 15  3  1  0
 22 17  1  0
 10  6  1  0
  1 24  1  0
  1 25  1  0
  1 26  1  0
  4 27  1  0
  7 28  1  0
  7 29  1  0
  8 30  1  0
  8 31  1  0
  9 32  1  0
  9 33  1  0
 10 34  1  0
 10 35  1  0
 13 36  1  0
 13 37  1  0
 13 38  1  0
 14 39  1  0
 16 40  1  0
 16 41  1  0
 21 42  1  0
M  END
$$$$
